ligand
 OpenBabel11021811493D
libRbt.so/2013.1/901 2013/11/27
 14 13  0  0  0  0  0  0  0  0999 V2000
   59.5274   -1.4922    3.4469 N   0  0  0  0  0  0  0  0  0  0  0  0
   59.4364   -0.7833    2.1894 C   0  0  0  0  0  0  0  0  0  0  0  0
   58.0560   -1.0535    1.5562 C   0  0  0  0  0  0  0  0  0  0  0  0
   57.8168   -0.3029    0.2369 C   0  0  0  0  0  0  0  0  0  0  0  0
   57.8238    1.1654    0.3250 N   0  0  0  0  0  0  0  0  0  0  0  0
   56.8515    1.9335    1.1006 C   0  0  0  0  0  0  0  0  0  0  0  0
   55.4165    1.7351    0.6233 C   0  0  0  0  0  0  0  0  0  0  0  0
   54.4259    2.7378    1.2239 C   0  0  0  0  0  0  0  0  0  0  0  0
   53.0042    2.5330    0.6877 C   0  0  0  0  0  0  0  0  0  0  0  0
   53.0091    2.6820   -0.7661 N   0  0  0  0  0  0  0  0  0  0  0  0
   51.9444    2.2054   -1.6508 C   0  0  0  0  0  0  0  0  0  0  0  0
   52.3690    2.1642   -3.1253 C   0  0  0  0  0  0  0  0  0  0  0  0
   51.2110    1.7279   -4.0289 C   0  0  0  0  0  0  0  0  0  0  0  0
   50.2005    2.7810   -4.0637 N   0  0  0  0  0  0  0  0  0  0  0  0
  1  2  1  0  0  0  0
  2  3  1  0  0  0  0
  3  4  1  0  0  0  0
  4  5  1  0  0  0  0
  5  6  1  0  0  0  0
  6  7  1  0  0  0  0
  7  8  1  0  0  0  0
  8  9  1  0  0  0  0
  9 10  1  0  0  0  0
 10 11  1  0  0  0  0
 11 12  1  0  0  0  0
 12 13  1  0  0  0  0
 13 14  1  0  0  0  0
M  END
>  <CHROM.1>
177.58554843,-62.44122085,-63.36844503,-61.18426367,-168.12349616,178.25630123
-59.07099906,162.42323438,-165.03413183,-177.17763915,69.39295683,55.07798607
1.28809142,-0.16030503,-0.29923852,0.60164144,-2.10186623

>  <Name>
ligand

>  <RI>
0

>  <Rbt.Current_Directory>
/home/itssahil/PROJECTS/Mol_Feturizer/New_Systems/rnas/4FAW

>  <Rbt.Executable>
rbdock ($Id: //depot/dev/client3/rdock/2013.1/src/exe/rbdock.cxx#4 $)

>  <Rbt.Library>
libRbt.so (2013.1, Build901 2013/11/27)

>  <Rbt.Parameter_File>
/export/apps/rDock/src/rDock_2013.1_src/data/scripts/dock_solv.prm

>  <Rbt.Receptor>
prm/pocket_docking_2.prm

>  <SCORE>
-3.08867

>  <SCORE.INTER>
6.13057

>  <SCORE.INTER.CONST>
1

>  <SCORE.INTER.POLAR>
0

>  <SCORE.INTER.ROT>
11

>  <SCORE.INTER.SOLV>
6.86777

>  <SCORE.INTER.VDW>
-9.13554

>  <SCORE.INTER.norm>
0.437898

>  <SCORE.INTRA>
-9.2345

>  <SCORE.INTRA.DIHEDRAL>
-17.7438

>  <SCORE.INTRA.DIHEDRAL.0>
19.1003

>  <SCORE.INTRA.POLAR>
0

>  <SCORE.INTRA.POLAR.0>
0

>  <SCORE.INTRA.REPUL>
0

>  <SCORE.INTRA.REPUL.0>
0

>  <SCORE.INTRA.SOLV>
-0.0088139

>  <SCORE.INTRA.SOLV.lig_0>
-47.5333

>  <SCORE.INTRA.VDW>
-0.358187

>  <SCORE.INTRA.VDW.0>
-0.287413

>  <SCORE.INTRA.norm>
-0.659607

>  <SCORE.RESTR>
0.0152577

>  <SCORE.RESTR.CAVITY>
0.0152577

>  <SCORE.RESTR.norm>
0.00108983

>  <SCORE.SYSTEM>
0

>  <SCORE.SYSTEM.CONST>
0

>  <SCORE.SYSTEM.DIHEDRAL>
0

>  <SCORE.SYSTEM.SOLV>
0

>  <SCORE.SYSTEM.norm>
0

>  <SCORE.heavy>
14

>  <SCORE.norm>
-0.220619

>  <RMSD>
1.321

$$$$
ligand
 OpenBabel11021811493D
libRbt.so/2013.1/901 2013/11/27
 14 13  0  0  0  0  0  0  0  0999 V2000
   50.2110    2.6074   -4.6820 N   0  0  0  0  0  0  0  0  0  0  0  0
   51.0047    2.2589   -3.5241 C   0  0  0  0  0  0  0  0  0  0  0  0
   52.0365    3.3758   -3.2645 C   0  0  0  0  0  0  0  0  0  0  0  0
   52.9627    3.1044   -2.0688 C   0  0  0  0  0  0  0  0  0  0  0  0
   52.2989    2.9603   -0.7642 N   0  0  0  0  0  0  0  0  0  0  0  0
   53.0197    2.8762    0.5048 C   0  0  0  0  0  0  0  0  0  0  0  0
   53.8590    1.6090    0.6317 C   0  0  0  0  0  0  0  0  0  0  0  0
   54.7328    1.5752    1.8898 C   0  0  0  0  0  0  0  0  0  0  0  0
   55.6280    0.3312    1.9348 C   0  0  0  0  0  0  0  0  0  0  0  0
   56.5546    0.3605    0.8050 N   0  0  0  0  0  0  0  0  0  0  0  0
   57.3760   -0.7738    0.3783 C   0  0  0  0  0  0  0  0  0  0  0  0
   58.6444   -0.9431    1.2261 C   0  0  0  0  0  0  0  0  0  0  0  0
   58.3070   -1.3686    2.6588 C   0  0  0  0  0  0  0  0  0  0  0  0
   59.5396   -1.4857    3.4323 N   0  0  0  0  0  0  0  0  0  0  0  0
  1  2  1  0  0  0  0
  2  3  1  0  0  0  0
  3  4  1  0  0  0  0
  4  5  1  0  0  0  0
  5  6  1  0  0  0  0
  6  7  1  0  0  0  0
  7  8  1  0  0  0  0
  8  9  1  0  0  0  0
  9 10  1  0  0  0  0
 10 11  1  0  0  0  0
 11 12  1  0  0  0  0
 12 13  1  0  0  0  0
 13 14  1  0  0  0  0
M  END
>  <CHROM.1>
-178.83566319,-60.87925741,-171.63154965,-66.17484107,173.96810490,-176.24943335
62.95056969,-167.69030673,-80.55865872,67.91476056,-178.67545887,54.72680737
1.17771594,-0.06003902,-2.69107514,-0.63659534,1.31086881

>  <Name>
ligand

>  <RI>
0

>  <Rbt.Current_Directory>
/home/itssahil/PROJECTS/Mol_Feturizer/New_Systems/rnas/4FAW

>  <Rbt.Executable>
rbdock ($Id: //depot/dev/client3/rdock/2013.1/src/exe/rbdock.cxx#4 $)

>  <Rbt.Library>
libRbt.so (2013.1, Build901 2013/11/27)

>  <Rbt.Parameter_File>
/export/apps/rDock/src/rDock_2013.1_src/data/scripts/dock_solv.prm

>  <Rbt.Receptor>
prm/pocket_docking_2.prm

>  <SCORE>
-3.99985

>  <SCORE.INTER>
5.61379

>  <SCORE.INTER.CONST>
1

>  <SCORE.INTER.POLAR>
0

>  <SCORE.INTER.ROT>
11

>  <SCORE.INTER.SOLV>
6.12447

>  <SCORE.INTER.VDW>
-9.23229

>  <SCORE.INTER.norm>
0.400985

>  <SCORE.INTRA>
-9.62515

>  <SCORE.INTRA.DIHEDRAL>
-18.1004

>  <SCORE.INTRA.DIHEDRAL.0>
19.1003

>  <SCORE.INTRA.POLAR>
0

>  <SCORE.INTRA.POLAR.0>
0

>  <SCORE.INTRA.REPUL>
0

>  <SCORE.INTRA.REPUL.0>
0

>  <SCORE.INTRA.SOLV>
-0.337336

>  <SCORE.INTRA.SOLV.lig_0>
-47.5333

>  <SCORE.INTRA.VDW>
-0.406308

>  <SCORE.INTRA.VDW.0>
-0.287413

>  <SCORE.INTRA.norm>
-0.687511

>  <SCORE.RESTR>
0.0115088

>  <SCORE.RESTR.CAVITY>
0.0115088

>  <SCORE.RESTR.norm>
0.000822058

>  <SCORE.SYSTEM>
0

>  <SCORE.SYSTEM.CONST>
0

>  <SCORE.SYSTEM.DIHEDRAL>
0

>  <SCORE.SYSTEM.SOLV>
0

>  <SCORE.SYSTEM.norm>
0

>  <SCORE.heavy>
14

>  <SCORE.norm>
-0.285703

>  <RMSD>
1.344

$$$$
ligand
 OpenBabel11021811493D
libRbt.so/2013.1/901 2013/11/27
 14 13  0  0  0  0  0  0  0  0999 V2000
   50.3869    2.5200   -4.8619 N   0  0  0  0  0  0  0  0  0  0  0  0
   51.4721    2.9381   -4.0018 C   0  0  0  0  0  0  0  0  0  0  0  0
   50.9445    3.0882   -2.5600 C   0  0  0  0  0  0  0  0  0  0  0  0
   52.0191    3.5001   -1.5418 C   0  0  0  0  0  0  0  0  0  0  0  0
   53.1620    2.5835   -1.4107 N   0  0  0  0  0  0  0  0  0  0  0  0
   54.0805    2.5940   -0.2735 C   0  0  0  0  0  0  0  0  0  0  0  0
   53.4777    1.9810    0.9863 C   0  0  0  0  0  0  0  0  0  0  0  0
   54.5096    1.6875    2.0801 C   0  0  0  0  0  0  0  0  0  0  0  0
   55.2839    0.3925    1.8076 C   0  0  0  0  0  0  0  0  0  0  0  0
   56.2859    0.6364    0.7721 N   0  0  0  0  0  0  0  0  0  0  0  0
   57.2204   -0.3727    0.2703 C   0  0  0  0  0  0  0  0  0  0  0  0
   58.4838   -0.4962    1.1333 C   0  0  0  0  0  0  0  0  0  0  0  0
   58.1603   -1.0586    2.5214 C   0  0  0  0  0  0  0  0  0  0  0  0
   59.3851   -1.1293    3.3128 N   0  0  0  0  0  0  0  0  0  0  0  0
  1  2  1  0  0  0  0
  2  3  1  0  0  0  0
  3  4  1  0  0  0  0
  4  5  1  0  0  0  0
  5  6  1  0  0  0  0
  6  7  1  0  0  0  0
  7  8  1  0  0  0  0
  8  9  1  0  0  0  0
  9 10  1  0  0  0  0
 10 11  1  0  0  0  0
 11 12  1  0  0  0  0
 12 13  1  0  0  0  0
 13 14  1  0  0  0  0
M  END
>  <CHROM.1>
178.67886329,-59.30145785,-162.67263070,74.92056279,166.65565390,-79.34278082
76.76655951,179.19842664,-84.94983546,67.09326460,-178.74940623,54.63362171
1.34753606,-0.12595600,-2.62572485,-0.58447840,1.38870181

>  <Name>
ligand

>  <RI>
0

>  <Rbt.Current_Directory>
/home/itssahil/PROJECTS/Mol_Feturizer/New_Systems/rnas/4FAW

>  <Rbt.Executable>
rbdock ($Id: //depot/dev/client3/rdock/2013.1/src/exe/rbdock.cxx#4 $)

>  <Rbt.Library>
libRbt.so (2013.1, Build901 2013/11/27)

>  <Rbt.Parameter_File>
/export/apps/rDock/src/rDock_2013.1_src/data/scripts/dock_solv.prm

>  <Rbt.Receptor>
prm/pocket_docking_2.prm

>  <SCORE>
-1.11013

>  <SCORE.INTER>
6.88293

>  <SCORE.INTER.CONST>
1

>  <SCORE.INTER.POLAR>
0

>  <SCORE.INTER.ROT>
11

>  <SCORE.INTER.SOLV>
6.00971

>  <SCORE.INTER.VDW>
-8.34795

>  <SCORE.INTER.norm>
0.491638

>  <SCORE.INTRA>
-7.99306

>  <SCORE.INTRA.DIHEDRAL>
-14.9662

>  <SCORE.INTRA.DIHEDRAL.0>
19.1003

>  <SCORE.INTRA.POLAR>
0

>  <SCORE.INTRA.POLAR.0>
0

>  <SCORE.INTRA.REPUL>
0

>  <SCORE.INTRA.REPUL.0>
0

>  <SCORE.INTRA.SOLV>
0.165161

>  <SCORE.INTRA.SOLV.lig_0>
-47.5333

>  <SCORE.INTRA.VDW>
-0.592551

>  <SCORE.INTRA.VDW.0>
-0.287413

>  <SCORE.INTRA.norm>
-0.570933

>  <SCORE.RESTR>
0

>  <SCORE.RESTR.CAVITY>
0

>  <SCORE.RESTR.norm>
0

>  <SCORE.SYSTEM>
0

>  <SCORE.SYSTEM.CONST>
0

>  <SCORE.SYSTEM.DIHEDRAL>
0

>  <SCORE.SYSTEM.SOLV>
0

>  <SCORE.SYSTEM.norm>
0

>  <SCORE.heavy>
14

>  <SCORE.norm>
-0.0792952

>  <RMSD>
1.349

$$$$
ligand
 OpenBabel11021811493D
libRbt.so/2013.1/901 2013/11/27
 14 13  0  0  0  0  0  0  0  0999 V2000
   59.5827   -0.2049    3.7999 N   0  0  0  0  0  0  0  0  0  0  0  0
   59.9787    0.0113    2.4256 C   0  0  0  0  0  0  0  0  0  0  0  0
   58.7786    0.5745    1.6369 C   0  0  0  0  0  0  0  0  0  0  0  0
   57.5967   -0.4002    1.5185 C   0  0  0  0  0  0  0  0  0  0  0  0
   56.4318    0.0936    0.7683 N   0  0  0  0  0  0  0  0  0  0  0  0
   55.0480   -0.1492    1.1719 C   0  0  0  0  0  0  0  0  0  0  0  0
   54.4480    1.0035    1.9704 C   0  0  0  0  0  0  0  0  0  0  0  0
   53.7782    2.0707    1.0986 C   0  0  0  0  0  0  0  0  0  0  0  0
   54.7794    2.7632    0.1664 C   0  0  0  0  0  0  0  0  0  0  0  0
   54.0591    3.6507   -0.7441 N   0  0  0  0  0  0  0  0  0  0  0  0
   53.0612    3.2048   -1.7180 C   0  0  0  0  0  0  0  0  0  0  0  0
   52.3637    4.3706   -2.4325 C   0  0  0  0  0  0  0  0  0  0  0  0
   51.2820    3.8700   -3.3954 C   0  0  0  0  0  0  0  0  0  0  0  0
   51.9020    3.0671   -4.4452 N   0  0  0  0  0  0  0  0  0  0  0  0
  1  2  1  0  0  0  0
  2  3  1  0  0  0  0
  3  4  1  0  0  0  0
  4  5  1  0  0  0  0
  5  6  1  0  0  0  0
  6  7  1  0  0  0  0
  7  8  1  0  0  0  0
  8  9  1  0  0  0  0
  9 10  1  0  0  0  0
 10 11  1  0  0  0  0
 11 12  1  0  0  0  0
 12 13  1  0  0  0  0
 13 14  1  0  0  0  0
M  END
>  <CHROM.1>
-64.98302807,-179.72526884,-139.63010497,96.12032960,88.93411282,-63.12013885
173.34271246,-61.98823455,173.90157123,-177.35383602,-63.11825315,55.22060626
1.70901756,0.13021003,-0.76574496,0.17781500,-1.13783717

>  <Name>
ligand

>  <RI>
0

>  <Rbt.Current_Directory>
/home/itssahil/PROJECTS/Mol_Feturizer/New_Systems/rnas/4FAW

>  <Rbt.Executable>
rbdock ($Id: //depot/dev/client3/rdock/2013.1/src/exe/rbdock.cxx#4 $)

>  <Rbt.Library>
libRbt.so (2013.1, Build901 2013/11/27)

>  <Rbt.Parameter_File>
/export/apps/rDock/src/rDock_2013.1_src/data/scripts/dock_solv.prm

>  <Rbt.Receptor>
prm/pocket_docking_2.prm

>  <SCORE>
1.32843

>  <SCORE.INTER>
7.82782

>  <SCORE.INTER.CONST>
1

>  <SCORE.INTER.POLAR>
0

>  <SCORE.INTER.ROT>
11

>  <SCORE.INTER.SOLV>
4.83127

>  <SCORE.INTER.VDW>
-7.32521

>  <SCORE.INTER.norm>
0.55913

>  <SCORE.INTRA>
-6.67679

>  <SCORE.INTRA.DIHEDRAL>
-14.3981

>  <SCORE.INTRA.DIHEDRAL.0>
19.1003

>  <SCORE.INTRA.POLAR>
0

>  <SCORE.INTRA.POLAR.0>
0

>  <SCORE.INTRA.REPUL>
0

>  <SCORE.INTRA.REPUL.0>
0

>  <SCORE.INTRA.SOLV>
0.85721

>  <SCORE.INTRA.SOLV.lig_0>
-47.5333

>  <SCORE.INTRA.VDW>
0.0936647

>  <SCORE.INTRA.VDW.0>
-0.287413

>  <SCORE.INTRA.norm>
-0.476914

>  <SCORE.RESTR>
0.177398

>  <SCORE.RESTR.CAVITY>
0.177398

>  <SCORE.RESTR.norm>
0.0126713

>  <SCORE.SYSTEM>
0

>  <SCORE.SYSTEM.CONST>
0

>  <SCORE.SYSTEM.DIHEDRAL>
0

>  <SCORE.SYSTEM.SOLV>
0

>  <SCORE.SYSTEM.norm>
0

>  <SCORE.heavy>
14

>  <SCORE.norm>
0.094888

>  <RMSD>
1.354

$$$$
ligand
 OpenBabel11021811493D
libRbt.so/2013.1/901 2013/11/27
 14 13  0  0  0  0  0  0  0  0999 V2000
   51.5278    1.6638   -4.4715 N   0  0  0  0  0  0  0  0  0  0  0  0
   51.4317    2.0668   -3.0857 C   0  0  0  0  0  0  0  0  0  0  0  0
   52.8005    2.6045   -2.6202 C   0  0  0  0  0  0  0  0  0  0  0  0
   52.7871    3.2046   -1.2057 C   0  0  0  0  0  0  0  0  0  0  0  0
   52.4641    2.2702   -0.1166 N   0  0  0  0  0  0  0  0  0  0  0  0
   53.1725    2.2427    1.1618 C   0  0  0  0  0  0  0  0  0  0  0  0
   54.6025    1.7260    1.0410 C   0  0  0  0  0  0  0  0  0  0  0  0
   55.5501    2.7021    0.3362 C   0  0  0  0  0  0  0  0  0  0  0  0
   56.9161    2.0690    0.0462 C   0  0  0  0  0  0  0  0  0  0  0  0
   57.5183    1.6216    1.3003 N   0  0  0  0  0  0  0  0  0  0  0  0
   58.1806    0.3292    1.4859 C   0  0  0  0  0  0  0  0  0  0  0  0
   58.5852    0.0712    2.9440 C   0  0  0  0  0  0  0  0  0  0  0  0
   59.1970   -1.3229    3.1164 C   0  0  0  0  0  0  0  0  0  0  0  0
   59.5411   -1.5306    4.5199 N   0  0  0  0  0  0  0  0  0  0  0  0
  1  2  1  0  0  0  0
  2  3  1  0  0  0  0
  3  4  1  0  0  0  0
  4  5  1  0  0  0  0
  5  6  1  0  0  0  0
  6  7  1  0  0  0  0
  7  8  1  0  0  0  0
  8  9  1  0  0  0  0
  9 10  1  0  0  0  0
 10 11  1  0  0  0  0
 11 12  1  0  0  0  0
 12 13  1  0  0  0  0
 13 14  1  0  0  0  0
M  END
>  <CHROM.1>
173.81179460,63.29549942,137.46493119,-69.71485490,71.23152149,-171.42593860
-58.33886676,135.62430782,-173.88224900,176.53446208,-178.91960665,55.30534288
1.40861245,0.31799975,-2.58428499,-0.51775600,1.36887215

>  <Name>
ligand

>  <RI>
0

>  <Rbt.Current_Directory>
/home/itssahil/PROJECTS/Mol_Feturizer/New_Systems/rnas/4FAW

>  <Rbt.Executable>
rbdock ($Id: //depot/dev/client3/rdock/2013.1/src/exe/rbdock.cxx#4 $)

>  <Rbt.Library>
libRbt.so (2013.1, Build901 2013/11/27)

>  <Rbt.Parameter_File>
/export/apps/rDock/src/rDock_2013.1_src/data/scripts/dock_solv.prm

>  <Rbt.Receptor>
prm/pocket_docking_2.prm

>  <SCORE>
-0.74554

>  <SCORE.INTER>
8.13032

>  <SCORE.INTER.CONST>
1

>  <SCORE.INTER.POLAR>
0

>  <SCORE.INTER.ROT>
11

>  <SCORE.INTER.SOLV>
4.64681

>  <SCORE.INTER.VDW>
-7.06206

>  <SCORE.INTER.norm>
0.580737

>  <SCORE.INTRA>
-8.87586

>  <SCORE.INTRA.DIHEDRAL>
-16.0059

>  <SCORE.INTRA.DIHEDRAL.0>
19.1003

>  <SCORE.INTRA.POLAR>
0

>  <SCORE.INTRA.POLAR.0>
0

>  <SCORE.INTRA.REPUL>
0

>  <SCORE.INTRA.REPUL.0>
0

>  <SCORE.INTRA.SOLV>
-0.433358

>  <SCORE.INTRA.SOLV.lig_0>
-47.5333

>  <SCORE.INTRA.VDW>
-0.656228

>  <SCORE.INTRA.VDW.0>
-0.287413

>  <SCORE.INTRA.norm>
-0.63399

>  <SCORE.RESTR>
0

>  <SCORE.RESTR.CAVITY>
0

>  <SCORE.RESTR.norm>
0

>  <SCORE.SYSTEM>
0

>  <SCORE.SYSTEM.CONST>
0

>  <SCORE.SYSTEM.DIHEDRAL>
0

>  <SCORE.SYSTEM.SOLV>
0

>  <SCORE.SYSTEM.norm>
0

>  <SCORE.heavy>
14

>  <SCORE.norm>
-0.0532528

>  <RMSD>
1.376

$$$$
ligand
 OpenBabel11021811493D
libRbt.so/2013.1/901 2013/11/27
 14 13  0  0  0  0  0  0  0  0999 V2000
   59.3061   -1.1697    3.0386 N   0  0  0  0  0  0  0  0  0  0  0  0
   60.0375   -0.0307    2.5288 C   0  0  0  0  0  0  0  0  0  0  0  0
   59.0390    1.0838    2.1539 C   0  0  0  0  0  0  0  0  0  0  0  0
   58.1356    0.7368    0.9604 C   0  0  0  0  0  0  0  0  0  0  0  0
   57.2011    1.7907    0.5367 N   0  0  0  0  0  0  0  0  0  0  0  0
   55.8588    1.9525    1.0928 C   0  0  0  0  0  0  0  0  0  0  0  0
   55.1521    3.2075    0.5911 C   0  0  0  0  0  0  0  0  0  0  0  0
   53.6802    3.2911    1.0081 C   0  0  0  0  0  0  0  0  0  0  0  0
   52.8165    2.2544    0.2800 C   0  0  0  0  0  0  0  0  0  0  0  0
   52.8865    2.4919   -1.1603 N   0  0  0  0  0  0  0  0  0  0  0  0
   51.8468    2.1030   -2.1149 C   0  0  0  0  0  0  0  0  0  0  0  0
   52.3788    1.9538   -3.5470 C   0  0  0  0  0  0  0  0  0  0  0  0
   51.2868    1.4582   -4.5007 C   0  0  0  0  0  0  0  0  0  0  0  0
   50.2427    2.4726   -4.6105 N   0  0  0  0  0  0  0  0  0  0  0  0
  1  2  1  0  0  0  0
  2  3  1  0  0  0  0
  3  4  1  0  0  0  0
  4  5  1  0  0  0  0
  5  6  1  0  0  0  0
  6  7  1  0  0  0  0
  7  8  1  0  0  0  0
  8  9  1  0  0  0  0
  9 10  1  0  0  0  0
 10 11  1  0  0  0  0
 11 12  1  0  0  0  0
 12 13  1  0  0  0  0
 13 14  1  0  0  0  0
M  END
>  <CHROM.1>
-67.21940548,-177.84819661,-88.36377614,173.84886060,171.96139463,-70.08116675
-60.58873999,-154.42624353,-157.21967233,176.27962622,65.34062275,54.99063524
1.68552220,-0.26724074,-0.39041182,0.54421982,-2.14899953

>  <Name>
ligand

>  <RI>
0

>  <Rbt.Current_Directory>
/home/itssahil/PROJECTS/Mol_Feturizer/New_Systems/rnas/4FAW

>  <Rbt.Executable>
rbdock ($Id: //depot/dev/client3/rdock/2013.1/src/exe/rbdock.cxx#4 $)

>  <Rbt.Library>
libRbt.so (2013.1, Build901 2013/11/27)

>  <Rbt.Parameter_File>
/export/apps/rDock/src/rDock_2013.1_src/data/scripts/dock_solv.prm

>  <Rbt.Receptor>
prm/pocket_docking_2.prm

>  <SCORE>
-1.33758

>  <SCORE.INTER>
6.9168

>  <SCORE.INTER.CONST>
1

>  <SCORE.INTER.POLAR>
0

>  <SCORE.INTER.ROT>
11

>  <SCORE.INTER.SOLV>
4.82437

>  <SCORE.INTER.VDW>
-7.93025

>  <SCORE.INTER.norm>
0.494057

>  <SCORE.INTRA>
-8.27875

>  <SCORE.INTRA.DIHEDRAL>
-16.6496

>  <SCORE.INTRA.DIHEDRAL.0>
19.1003

>  <SCORE.INTRA.POLAR>
0

>  <SCORE.INTRA.POLAR.0>
0

>  <SCORE.INTRA.REPUL>
0

>  <SCORE.INTRA.REPUL.0>
0

>  <SCORE.INTRA.SOLV>
0.660005

>  <SCORE.INTRA.SOLV.lig_0>
-47.5333

>  <SCORE.INTRA.VDW>
-0.28393

>  <SCORE.INTRA.VDW.0>
-0.287413

>  <SCORE.INTRA.norm>
-0.591339

>  <SCORE.RESTR>
0.0243663

>  <SCORE.RESTR.CAVITY>
0.0243663

>  <SCORE.RESTR.norm>
0.00174045

>  <SCORE.SYSTEM>
0

>  <SCORE.SYSTEM.CONST>
0

>  <SCORE.SYSTEM.DIHEDRAL>
0

>  <SCORE.SYSTEM.SOLV>
0

>  <SCORE.SYSTEM.norm>
0

>  <SCORE.heavy>
14

>  <SCORE.norm>
-0.0955413

>  <RMSD>
1.380

$$$$
ligand
 OpenBabel11021811493D
libRbt.so/2013.1/901 2013/11/27
 14 13  0  0  0  0  0  0  0  0999 V2000
   59.5299   -1.2571    3.4821 N   0  0  0  0  0  0  0  0  0  0  0  0
   59.6376   -0.3146    2.3902 C   0  0  0  0  0  0  0  0  0  0  0  0
   58.2235    0.1412    1.9754 C   0  0  0  0  0  0  0  0  0  0  0  0
   58.2103    1.1955    0.8576 C   0  0  0  0  0  0  0  0  0  0  0  0
   56.8856    1.7093    0.4773 N   0  0  0  0  0  0  0  0  0  0  0  0
   56.0398    2.5021    1.3679 C   0  0  0  0  0  0  0  0  0  0  0  0
   54.8535    1.7178    1.9193 C   0  0  0  0  0  0  0  0  0  0  0  0
   53.9031    1.1996    0.8350 C   0  0  0  0  0  0  0  0  0  0  0  0
   53.1757    2.3410    0.1146 C   0  0  0  0  0  0  0  0  0  0  0  0
   52.4882    1.8111   -1.0610 N   0  0  0  0  0  0  0  0  0  0  0  0
   51.6338    2.6033   -1.9475 C   0  0  0  0  0  0  0  0  0  0  0  0
   51.4091    1.9357   -3.3113 C   0  0  0  0  0  0  0  0  0  0  0  0
   50.6218    2.8478   -4.2578 C   0  0  0  0  0  0  0  0  0  0  0  0
   50.4793    2.1927   -5.5547 N   0  0  0  0  0  0  0  0  0  0  0  0
  1  2  1  0  0  0  0
  2  3  1  0  0  0  0
  3  4  1  0  0  0  0
  4  5  1  0  0  0  0
  5  6  1  0  0  0  0
  6  7  1  0  0  0  0
  7  8  1  0  0  0  0
  8  9  1  0  0  0  0
  9 10  1  0  0  0  0
 10 11  1  0  0  0  0
 11 12  1  0  0  0  0
 12 13  1  0  0  0  0
 13 14  1  0  0  0  0
M  END
>  <CHROM.1>
177.50634295,-177.01474477,65.83349845,-105.96659079,-60.71954677,-66.85464061
169.33254920,176.62268363,161.75251097,-174.69456214,177.79319355,54.79220773
1.47339800,-0.19358275,-0.59016574,0.39763912,-1.73300497

>  <Name>
ligand

>  <RI>
0

>  <Rbt.Current_Directory>
/home/itssahil/PROJECTS/Mol_Feturizer/New_Systems/rnas/4FAW

>  <Rbt.Executable>
rbdock ($Id: //depot/dev/client3/rdock/2013.1/src/exe/rbdock.cxx#4 $)

>  <Rbt.Library>
libRbt.so (2013.1, Build901 2013/11/27)

>  <Rbt.Parameter_File>
/export/apps/rDock/src/rDock_2013.1_src/data/scripts/dock_solv.prm

>  <Rbt.Receptor>
prm/pocket_docking_2.prm

>  <SCORE>
-2.26647

>  <SCORE.INTER>
7.03358

>  <SCORE.INTER.CONST>
1

>  <SCORE.INTER.POLAR>
0

>  <SCORE.INTER.ROT>
11

>  <SCORE.INTER.SOLV>
4.76701

>  <SCORE.INTER.VDW>
-7.83328

>  <SCORE.INTER.norm>
0.502398

>  <SCORE.INTRA>
-9.31452

>  <SCORE.INTRA.DIHEDRAL>
-16.9666

>  <SCORE.INTRA.DIHEDRAL.0>
19.1003

>  <SCORE.INTRA.POLAR>
0

>  <SCORE.INTRA.POLAR.0>
0

>  <SCORE.INTRA.REPUL>
0

>  <SCORE.INTRA.REPUL.0>
0

>  <SCORE.INTRA.SOLV>
-0.754564

>  <SCORE.INTRA.SOLV.lig_0>
-47.5333

>  <SCORE.INTRA.VDW>
-0.453926

>  <SCORE.INTRA.VDW.0>
-0.287413

>  <SCORE.INTRA.norm>
-0.665323

>  <SCORE.RESTR>
0.014476

>  <SCORE.RESTR.CAVITY>
0.014476

>  <SCORE.RESTR.norm>
0.001034

>  <SCORE.SYSTEM>
0

>  <SCORE.SYSTEM.CONST>
0

>  <SCORE.SYSTEM.DIHEDRAL>
0

>  <SCORE.SYSTEM.SOLV>
0

>  <SCORE.SYSTEM.norm>
0

>  <SCORE.heavy>
14

>  <SCORE.norm>
-0.161891

>  <RMSD>
1.403

$$$$
ligand
 OpenBabel11021811493D
libRbt.so/2013.1/901 2013/11/27
 14 13  0  0  0  0  0  0  0  0999 V2000
   59.5853   -1.0624    3.3725 N   0  0  0  0  0  0  0  0  0  0  0  0
   60.0539   -0.0207    2.4852 C   0  0  0  0  0  0  0  0  0  0  0  0
   58.8385    0.6994    1.8656 C   0  0  0  0  0  0  0  0  0  0  0  0
   58.0415   -0.1622    0.8738 C   0  0  0  0  0  0  0  0  0  0  0  0
   56.6546    0.2615    0.6280 N   0  0  0  0  0  0  0  0  0  0  0  0
   55.5383   -0.0743    1.5101 C   0  0  0  0  0  0  0  0  0  0  0  0
   54.2580    0.6800    1.1664 C   0  0  0  0  0  0  0  0  0  0  0  0
   54.3404    2.1853    1.4399 C   0  0  0  0  0  0  0  0  0  0  0  0
   53.0187    2.8989    1.1320 C   0  0  0  0  0  0  0  0  0  0  0  0
   52.7723    2.8611   -0.3079 N   0  0  0  0  0  0  0  0  0  0  0  0
   52.1020    1.7616   -1.0045 C   0  0  0  0  0  0  0  0  0  0  0  0
   51.9262    2.0270   -2.5062 C   0  0  0  0  0  0  0  0  0  0  0  0
   51.0026    3.2231   -2.7586 C   0  0  0  0  0  0  0  0  0  0  0  0
   50.8471    3.4201   -4.1967 N   0  0  0  0  0  0  0  0  0  0  0  0
  1  2  1  0  0  0  0
  2  3  1  0  0  0  0
  3  4  1  0  0  0  0
  4  5  1  0  0  0  0
  5  6  1  0  0  0  0
  6  7  1  0  0  0  0
  7  8  1  0  0  0  0
  8  9  1  0  0  0  0
  9 10  1  0  0  0  0
 10 11  1  0  0  0  0
 11 12  1  0  0  0  0
 12 13  1  0  0  0  0
 13 14  1  0  0  0  0
M  END
>  <CHROM.1>
-69.04316830,158.93035624,-81.91744763,170.05007788,-68.00501114,-177.84589096
-67.50955378,86.56858530,177.35211985,-64.18814062,-178.96126019,54.92707844
1.33558102,0.26442686,0.50880176,-0.40823819,1.54121232

>  <Name>
ligand

>  <RI>
0

>  <Rbt.Current_Directory>
/home/itssahil/PROJECTS/Mol_Feturizer/New_Systems/rnas/4FAW

>  <Rbt.Executable>
rbdock ($Id: //depot/dev/client3/rdock/2013.1/src/exe/rbdock.cxx#4 $)

>  <Rbt.Library>
libRbt.so (2013.1, Build901 2013/11/27)

>  <Rbt.Parameter_File>
/export/apps/rDock/src/rDock_2013.1_src/data/scripts/dock_solv.prm

>  <Rbt.Receptor>
prm/pocket_docking_2.prm

>  <SCORE>
-3.62807

>  <SCORE.INTER>
4.68288

>  <SCORE.INTER.CONST>
1

>  <SCORE.INTER.POLAR>
0

>  <SCORE.INTER.ROT>
11

>  <SCORE.INTER.SOLV>
6.01499

>  <SCORE.INTER.VDW>
-9.81641

>  <SCORE.INTER.norm>
0.334491

>  <SCORE.INTRA>
-8.31094

>  <SCORE.INTRA.DIHEDRAL>
-15.8098

>  <SCORE.INTRA.DIHEDRAL.0>
19.1003

>  <SCORE.INTRA.POLAR>
0

>  <SCORE.INTRA.POLAR.0>
0

>  <SCORE.INTRA.REPUL>
0

>  <SCORE.INTRA.REPUL.0>
0

>  <SCORE.INTRA.SOLV>
0.484133

>  <SCORE.INTRA.SOLV.lig_0>
-47.5333

>  <SCORE.INTRA.VDW>
-0.64809

>  <SCORE.INTRA.VDW.0>
-0.287413

>  <SCORE.INTRA.norm>
-0.593639

>  <SCORE.RESTR>
0

>  <SCORE.RESTR.CAVITY>
0

>  <SCORE.RESTR.norm>
0

>  <SCORE.SYSTEM>
0

>  <SCORE.SYSTEM.CONST>
0

>  <SCORE.SYSTEM.DIHEDRAL>
0

>  <SCORE.SYSTEM.SOLV>
0

>  <SCORE.SYSTEM.norm>
0

>  <SCORE.heavy>
14

>  <SCORE.norm>
-0.259148

>  <RMSD>
1.420

$$$$
ligand
 OpenBabel11021811493D
libRbt.so/2013.1/901 2013/11/27
 14 13  0  0  0  0  0  0  0  0999 V2000
   51.5190    2.0601   -4.8799 N   0  0  0  0  0  0  0  0  0  0  0  0
   52.3376    2.6212   -3.8277 C   0  0  0  0  0  0  0  0  0  0  0  0
   51.9481    1.9715   -2.4840 C   0  0  0  0  0  0  0  0  0  0  0  0
   52.6430    2.5960   -1.2641 C   0  0  0  0  0  0  0  0  0  0  0  0
   52.3725    1.9481    0.0284 N   0  0  0  0  0  0  0  0  0  0  0  0
   52.9406    2.4039    1.2959 C   0  0  0  0  0  0  0  0  0  0  0  0
   54.4578    2.2592    1.3564 C   0  0  0  0  0  0  0  0  0  0  0  0
   54.9456    0.8210    1.1536 C   0  0  0  0  0  0  0  0  0  0  0  0
   56.4750    0.7368    1.0853 C   0  0  0  0  0  0  0  0  0  0  0  0
   56.8724   -0.6445    0.8213 N   0  0  0  0  0  0  0  0  0  0  0  0
   58.2453   -1.0730    0.5472 C   0  0  0  0  0  0  0  0  0  0  0  0
   59.1973   -0.8100    1.7222 C   0  0  0  0  0  0  0  0  0  0  0  0
   58.7718   -1.5879    2.9719 C   0  0  0  0  0  0  0  0  0  0  0  0
   59.6053   -1.1846    4.1006 N   0  0  0  0  0  0  0  0  0  0  0  0
  1  2  1  0  0  0  0
  2  3  1  0  0  0  0
  3  4  1  0  0  0  0
  4  5  1  0  0  0  0
  5  6  1  0  0  0  0
  6  7  1  0  0  0  0
  7  8  1  0  0  0  0
  8  9  1  0  0  0  0
  9 10  1  0  0  0  0
 10 11  1  0  0  0  0
 11 12  1  0  0  0  0
 12 13  1  0  0  0  0
 13 14  1  0  0  0  0
M  END
>  <CHROM.1>
-173.67494811,-175.95078531,-179.79858195,-65.10727693,-58.50947340,174.45975554
-177.03656939,173.03426913,62.49712541,61.74382138,-173.23713914,55.16654891
0.86568235,0.18772778,-2.62185961,-0.55978001,1.39928876

>  <Name>
ligand

>  <RI>
0

>  <Rbt.Current_Directory>
/home/itssahil/PROJECTS/Mol_Feturizer/New_Systems/rnas/4FAW

>  <Rbt.Executable>
rbdock ($Id: //depot/dev/client3/rdock/2013.1/src/exe/rbdock.cxx#4 $)

>  <Rbt.Library>
libRbt.so (2013.1, Build901 2013/11/27)

>  <Rbt.Parameter_File>
/export/apps/rDock/src/rDock_2013.1_src/data/scripts/dock_solv.prm

>  <Rbt.Receptor>
prm/pocket_docking_2.prm

>  <SCORE>
-5.04362

>  <SCORE.INTER>
4.93632

>  <SCORE.INTER.CONST>
1

>  <SCORE.INTER.POLAR>
0

>  <SCORE.INTER.ROT>
11

>  <SCORE.INTER.SOLV>
7.19489

>  <SCORE.INTER.VDW>
-10.0408

>  <SCORE.INTER.norm>
0.352594

>  <SCORE.INTRA>
-9.9991

>  <SCORE.INTRA.DIHEDRAL>
-18.4705

>  <SCORE.INTRA.DIHEDRAL.0>
19.1003

>  <SCORE.INTRA.POLAR>
0

>  <SCORE.INTRA.POLAR.0>
0

>  <SCORE.INTRA.REPUL>
0

>  <SCORE.INTRA.REPUL.0>
0

>  <SCORE.INTRA.SOLV>
-0.64897

>  <SCORE.INTRA.SOLV.lig_0>
-47.5333

>  <SCORE.INTRA.VDW>
-0.439382

>  <SCORE.INTRA.VDW.0>
-0.287413

>  <SCORE.INTRA.norm>
-0.714221

>  <SCORE.RESTR>
0.0191644

>  <SCORE.RESTR.CAVITY>
0.0191644

>  <SCORE.RESTR.norm>
0.00136889

>  <SCORE.SYSTEM>
0

>  <SCORE.SYSTEM.CONST>
0

>  <SCORE.SYSTEM.DIHEDRAL>
0

>  <SCORE.SYSTEM.SOLV>
0

>  <SCORE.SYSTEM.norm>
0

>  <SCORE.heavy>
14

>  <SCORE.norm>
-0.360258

>  <RMSD>
1.426

$$$$
ligand
 OpenBabel11021811493D
libRbt.so/2013.1/901 2013/11/27
 14 13  0  0  0  0  0  0  0  0999 V2000
   50.5876    1.5576   -4.4554 N   0  0  0  0  0  0  0  0  0  0  0  0
   51.8772    1.9629   -3.9408 C   0  0  0  0  0  0  0  0  0  0  0  0
   51.7220    2.3858   -2.4655 C   0  0  0  0  0  0  0  0  0  0  0  0
   53.0289    2.8606   -1.8115 C   0  0  0  0  0  0  0  0  0  0  0  0
   52.9224    3.2974   -0.4109 N   0  0  0  0  0  0  0  0  0  0  0  0
   52.9010    2.3762    0.7239 C   0  0  0  0  0  0  0  0  0  0  0  0
   54.1414    1.4918    0.7984 C   0  0  0  0  0  0  0  0  0  0  0  0
   55.4490    2.2790    0.9338 C   0  0  0  0  0  0  0  0  0  0  0  0
   56.6799    1.3904    0.7187 C   0  0  0  0  0  0  0  0  0  0  0  0
   56.7348    0.3768    1.7701 N   0  0  0  0  0  0  0  0  0  0  0  0
   57.1803   -1.0030    1.5673 C   0  0  0  0  0  0  0  0  0  0  0  0
   58.6440   -1.0959    1.1145 C   0  0  0  0  0  0  0  0  0  0  0  0
   59.5872   -0.4488    2.1340 C   0  0  0  0  0  0  0  0  0  0  0  0
   59.5329   -1.1965    3.3867 N   0  0  0  0  0  0  0  0  0  0  0  0
  1  2  1  0  0  0  0
  2  3  1  0  0  0  0
  3  4  1  0  0  0  0
  4  5  1  0  0  0  0
  5  6  1  0  0  0  0
  6  7  1  0  0  0  0
  7  8  1  0  0  0  0
  8  9  1  0  0  0  0
  9 10  1  0  0  0  0
 10 11  1  0  0  0  0
 11 12  1  0  0  0  0
 12 13  1  0  0  0  0
 13 14  1  0  0  0  0
M  END
>  <CHROM.1>
-179.10276490,178.91406497,80.98146954,58.45966857,59.78147076,-168.33389970
-63.89641107,143.13087870,62.25559728,58.79491770,64.45079148,55.07065599
1.15966404,0.00449504,-2.85390926,-0.64319197,0.99183160

>  <Name>
ligand

>  <RI>
0

>  <Rbt.Current_Directory>
/home/itssahil/PROJECTS/Mol_Feturizer/New_Systems/rnas/4FAW

>  <Rbt.Executable>
rbdock ($Id: //depot/dev/client3/rdock/2013.1/src/exe/rbdock.cxx#4 $)

>  <Rbt.Library>
libRbt.so (2013.1, Build901 2013/11/27)

>  <Rbt.Parameter_File>
/export/apps/rDock/src/rDock_2013.1_src/data/scripts/dock_solv.prm

>  <Rbt.Receptor>
prm/pocket_docking_2.prm

>  <SCORE>
-2.42731

>  <SCORE.INTER>
5.65771

>  <SCORE.INTER.CONST>
1

>  <SCORE.INTER.POLAR>
0

>  <SCORE.INTER.ROT>
11

>  <SCORE.INTER.SOLV>
5.14616

>  <SCORE.INTER.VDW>
-8.87692

>  <SCORE.INTER.norm>
0.404122

>  <SCORE.INTRA>
-8.08502

>  <SCORE.INTRA.DIHEDRAL>
-17.2576

>  <SCORE.INTRA.DIHEDRAL.0>
19.1003

>  <SCORE.INTRA.POLAR>
0

>  <SCORE.INTRA.POLAR.0>
0

>  <SCORE.INTRA.REPUL>
0

>  <SCORE.INTRA.REPUL.0>
0

>  <SCORE.INTRA.SOLV>
1.16983

>  <SCORE.INTRA.SOLV.lig_0>
-47.5333

>  <SCORE.INTRA.VDW>
-0.0411517

>  <SCORE.INTRA.VDW.0>
-0.287413

>  <SCORE.INTRA.norm>
-0.577502

>  <SCORE.RESTR>
0

>  <SCORE.RESTR.CAVITY>
0

>  <SCORE.RESTR.norm>
0

>  <SCORE.SYSTEM>
0

>  <SCORE.SYSTEM.CONST>
0

>  <SCORE.SYSTEM.DIHEDRAL>
0

>  <SCORE.SYSTEM.SOLV>
0

>  <SCORE.SYSTEM.norm>
0

>  <SCORE.heavy>
14

>  <SCORE.norm>
-0.173379

>  <RMSD>
1.453

$$$$
ligand
 OpenBabel11021811493D
libRbt.so/2013.1/901 2013/11/27
 14 13  0  0  0  0  0  0  0  0999 V2000
   59.5857   -0.6533    4.8819 N   0  0  0  0  0  0  0  0  0  0  0  0
   58.3316    0.0420    5.0708 C   0  0  0  0  0  0  0  0  0  0  0  0
   57.3524   -0.3699    3.9523 C   0  0  0  0  0  0  0  0  0  0  0  0
   57.7995    0.0529    2.5444 C   0  0  0  0  0  0  0  0  0  0  0  0
   56.9194   -0.3620    1.4413 N   0  0  0  0  0  0  0  0  0  0  0  0
   55.4977   -0.0288    1.3722 C   0  0  0  0  0  0  0  0  0  0  0  0
   55.2413    1.3976    0.8969 C   0  0  0  0  0  0  0  0  0  0  0  0
   53.7610    1.7048    0.6484 C   0  0  0  0  0  0  0  0  0  0  0  0
   53.5652    3.0396   -0.0802 C   0  0  0  0  0  0  0  0  0  0  0  0
   52.1389    3.2623   -0.3077 N   0  0  0  0  0  0  0  0  0  0  0  0
   51.5505    3.6016   -1.6046 C   0  0  0  0  0  0  0  0  0  0  0  0
   51.4759    2.4005   -2.5574 C   0  0  0  0  0  0  0  0  0  0  0  0
   50.7606    2.7652   -3.8624 C   0  0  0  0  0  0  0  0  0  0  0  0
   50.6294    1.5717   -4.6928 N   0  0  0  0  0  0  0  0  0  0  0  0
  1  2  1  0  0  0  0
  2  3  1  0  0  0  0
  3  4  1  0  0  0  0
  4  5  1  0  0  0  0
  5  6  1  0  0  0  0
  6  7  1  0  0  0  0
  7  8  1  0  0  0  0
  8  9  1  0  0  0  0
  9 10  1  0  0  0  0
 10 11  1  0  0  0  0
 11 12  1  0  0  0  0
 12 13  1  0  0  0  0
 13 14  1  0  0  0  0
M  END
>  <CHROM.1>
-64.42667178,177.87418759,56.14350292,79.02127947,172.63797310,-168.89029388
178.99683077,-128.72087605,75.16664596,175.71293971,-175.95858687,54.61484980
1.31617013,0.55030373,-0.33179384,0.76201651,-2.26974184

>  <Name>
ligand

>  <RI>
0

>  <Rbt.Current_Directory>
/home/itssahil/PROJECTS/Mol_Feturizer/New_Systems/rnas/4FAW

>  <Rbt.Executable>
rbdock ($Id: //depot/dev/client3/rdock/2013.1/src/exe/rbdock.cxx#4 $)

>  <Rbt.Library>
libRbt.so (2013.1, Build901 2013/11/27)

>  <Rbt.Parameter_File>
/export/apps/rDock/src/rDock_2013.1_src/data/scripts/dock_solv.prm

>  <Rbt.Receptor>
prm/pocket_docking_2.prm

>  <SCORE>
0.695985

>  <SCORE.INTER>
9.80135

>  <SCORE.INTER.CONST>
1

>  <SCORE.INTER.POLAR>
0

>  <SCORE.INTER.ROT>
11

>  <SCORE.INTER.SOLV>
4.97948

>  <SCORE.INTER.VDW>
-6.05893

>  <SCORE.INTER.norm>
0.700096

>  <SCORE.INTRA>
-9.10536

>  <SCORE.INTRA.DIHEDRAL>
-16.5651

>  <SCORE.INTRA.DIHEDRAL.0>
19.1003

>  <SCORE.INTRA.POLAR>
0

>  <SCORE.INTRA.POLAR.0>
0

>  <SCORE.INTRA.REPUL>
0

>  <SCORE.INTRA.REPUL.0>
0

>  <SCORE.INTRA.SOLV>
-0.78275

>  <SCORE.INTRA.SOLV.lig_0>
-47.5333

>  <SCORE.INTRA.VDW>
-0.431451

>  <SCORE.INTRA.VDW.0>
-0.287413

>  <SCORE.INTRA.norm>
-0.650383

>  <SCORE.RESTR>
0

>  <SCORE.RESTR.CAVITY>
0

>  <SCORE.RESTR.norm>
0

>  <SCORE.SYSTEM>
0

>  <SCORE.SYSTEM.CONST>
0

>  <SCORE.SYSTEM.DIHEDRAL>
0

>  <SCORE.SYSTEM.SOLV>
0

>  <SCORE.SYSTEM.norm>
0

>  <SCORE.heavy>
14

>  <SCORE.norm>
0.0497132

>  <RMSD>
1.489

$$$$
ligand
 OpenBabel11021811493D
libRbt.so/2013.1/901 2013/11/27
 14 13  0  0  0  0  0  0  0  0999 V2000
   59.5332   -1.1309    3.3412 N   0  0  0  0  0  0  0  0  0  0  0  0
   60.0340   -0.0459    2.5263 C   0  0  0  0  0  0  0  0  0  0  0  0
   59.0170    1.1138    2.5493 C   0  0  0  0  0  0  0  0  0  0  0  0
   57.6866    0.7912    1.8515 C   0  0  0  0  0  0  0  0  0  0  0  0
   56.6688    1.8524    1.8911 N   0  0  0  0  0  0  0  0  0  0  0  0
   55.6041    1.9889    0.8988 C   0  0  0  0  0  0  0  0  0  0  0  0
   54.6184    3.1046    1.2305 C   0  0  0  0  0  0  0  0  0  0  0  0
   53.6002    3.3747    0.1179 C   0  0  0  0  0  0  0  0  0  0  0  0
   52.6592    2.1843   -0.1018 C   0  0  0  0  0  0  0  0  0  0  0  0
   51.8559    2.4170   -1.3002 N   0  0  0  0  0  0  0  0  0  0  0  0
   52.1896    1.9090   -2.6321 C   0  0  0  0  0  0  0  0  0  0  0  0
   51.6106    2.7726   -3.7614 C   0  0  0  0  0  0  0  0  0  0  0  0
   50.0790    2.7906   -3.7227 C   0  0  0  0  0  0  0  0  0  0  0  0
   49.5757    3.5870   -4.8379 N   0  0  0  0  0  0  0  0  0  0  0  0
  1  2  1  0  0  0  0
  2  3  1  0  0  0  0
  3  4  1  0  0  0  0
  4  5  1  0  0  0  0
  5  6  1  0  0  0  0
  6  7  1  0  0  0  0
  7  8  1  0  0  0  0
  8  9  1  0  0  0  0
  9 10  1  0  0  0  0
 10 11  1  0  0  0  0
 11 12  1  0  0  0  0
 12 13  1  0  0  0  0
 13 14  1  0  0  0  0
M  END
>  <CHROM.1>
-67.21589296,177.90884729,154.77065611,175.48058706,172.85614782,65.47236999
-171.30506812,95.34751183,-153.58794832,-62.46847208,-178.18987821,54.62381245
1.90789854,-0.13923515,-0.34054719,0.59806457,-2.17662962

>  <Name>
ligand

>  <RI>
0

>  <Rbt.Current_Directory>
/home/itssahil/PROJECTS/Mol_Feturizer/New_Systems/rnas/4FAW

>  <Rbt.Executable>
rbdock ($Id: //depot/dev/client3/rdock/2013.1/src/exe/rbdock.cxx#4 $)

>  <Rbt.Library>
libRbt.so (2013.1, Build901 2013/11/27)

>  <Rbt.Parameter_File>
/export/apps/rDock/src/rDock_2013.1_src/data/scripts/dock_solv.prm

>  <Rbt.Receptor>
prm/pocket_docking_2.prm

>  <SCORE>
-0.369705

>  <SCORE.INTER>
8.37559

>  <SCORE.INTER.CONST>
1

>  <SCORE.INTER.POLAR>
0

>  <SCORE.INTER.ROT>
11

>  <SCORE.INTER.SOLV>
5.1661

>  <SCORE.INTER.VDW>
-7.07164

>  <SCORE.INTER.norm>
0.598256

>  <SCORE.INTRA>
-8.76006

>  <SCORE.INTRA.DIHEDRAL>
-16.5349

>  <SCORE.INTRA.DIHEDRAL.0>
19.1003

>  <SCORE.INTRA.POLAR>
0

>  <SCORE.INTRA.POLAR.0>
0

>  <SCORE.INTRA.REPUL>
0

>  <SCORE.INTRA.REPUL.0>
0

>  <SCORE.INTRA.SOLV>
-0.277069

>  <SCORE.INTRA.SOLV.lig_0>
-47.5333

>  <SCORE.INTRA.VDW>
-0.354094

>  <SCORE.INTRA.VDW.0>
-0.287413

>  <SCORE.INTRA.norm>
-0.625719

>  <SCORE.RESTR>
0.0147687

>  <SCORE.RESTR.CAVITY>
0.0147687

>  <SCORE.RESTR.norm>
0.00105491

>  <SCORE.SYSTEM>
0

>  <SCORE.SYSTEM.CONST>
0

>  <SCORE.SYSTEM.DIHEDRAL>
0

>  <SCORE.SYSTEM.SOLV>
0

>  <SCORE.SYSTEM.norm>
0

>  <SCORE.heavy>
14

>  <SCORE.norm>
-0.0264075

>  <RMSD>
1.495

$$$$
ligand
 OpenBabel11021811493D
libRbt.so/2013.1/901 2013/11/27
 14 13  0  0  0  0  0  0  0  0999 V2000
   50.4357    3.0776   -5.4168 N   0  0  0  0  0  0  0  0  0  0  0  0
   51.4500    3.1026   -4.3859 C   0  0  0  0  0  0  0  0  0  0  0  0
   51.1595    1.9836   -3.3646 C   0  0  0  0  0  0  0  0  0  0  0  0
   52.1954    1.8863   -2.2338 C   0  0  0  0  0  0  0  0  0  0  0  0
   52.2745    3.0487   -1.3360 N   0  0  0  0  0  0  0  0  0  0  0  0
   52.0467    2.9735    0.1060 C   0  0  0  0  0  0  0  0  0  0  0  0
   53.3230    2.7131    0.8993 C   0  0  0  0  0  0  0  0  0  0  0  0
   53.8909    1.3037    0.7026 C   0  0  0  0  0  0  0  0  0  0  0  0
   55.2998    1.1642    1.2913 C   0  0  0  0  0  0  0  0  0  0  0  0
   55.9088   -0.0707    0.8017 N   0  0  0  0  0  0  0  0  0  0  0  0
   57.3335   -0.3905    0.9093 C   0  0  0  0  0  0  0  0  0  0  0  0
   57.7381   -0.8404    2.3200 C   0  0  0  0  0  0  0  0  0  0  0  0
   59.2535   -1.0370    2.4314 C   0  0  0  0  0  0  0  0  0  0  0  0
   59.5947   -1.4051    3.8023 N   0  0  0  0  0  0  0  0  0  0  0  0
  1  2  1  0  0  0  0
  2  3  1  0  0  0  0
  3  4  1  0  0  0  0
  4  5  1  0  0  0  0
  5  6  1  0  0  0  0
  6  7  1  0  0  0  0
  7  8  1  0  0  0  0
  8  9  1  0  0  0  0
  9 10  1  0  0  0  0
 10 11  1  0  0  0  0
 11 12  1  0  0  0  0
 12 13  1  0  0  0  0
 13 14  1  0  0  0  0
M  END
>  <CHROM.1>
178.52541609,64.34290188,120.72998636,90.82826446,-69.60426380,169.05947212
-166.51315568,165.95101862,77.09278055,-174.54686644,177.47445211,54.42167189
1.25071582,-0.24795369,-2.62330723,-0.60837785,1.33318475

>  <Name>
ligand

>  <RI>
0

>  <Rbt.Current_Directory>
/home/itssahil/PROJECTS/Mol_Feturizer/New_Systems/rnas/4FAW

>  <Rbt.Executable>
rbdock ($Id: //depot/dev/client3/rdock/2013.1/src/exe/rbdock.cxx#4 $)

>  <Rbt.Library>
libRbt.so (2013.1, Build901 2013/11/27)

>  <Rbt.Parameter_File>
/export/apps/rDock/src/rDock_2013.1_src/data/scripts/dock_solv.prm

>  <Rbt.Receptor>
prm/pocket_docking_2.prm

>  <SCORE>
-2.34053

>  <SCORE.INTER>
6.54521

>  <SCORE.INTER.CONST>
1

>  <SCORE.INTER.POLAR>
0

>  <SCORE.INTER.ROT>
11

>  <SCORE.INTER.SOLV>
6.05876

>  <SCORE.INTER.VDW>
-8.58945

>  <SCORE.INTER.norm>
0.467515

>  <SCORE.INTRA>
-8.89261

>  <SCORE.INTRA.DIHEDRAL>
-15.1896

>  <SCORE.INTRA.DIHEDRAL.0>
19.1003

>  <SCORE.INTRA.POLAR>
0

>  <SCORE.INTRA.POLAR.0>
0

>  <SCORE.INTRA.REPUL>
0

>  <SCORE.INTRA.REPUL.0>
0

>  <SCORE.INTRA.SOLV>
-0.837291

>  <SCORE.INTRA.SOLV.lig_0>
-47.5333

>  <SCORE.INTRA.VDW>
-0.879164

>  <SCORE.INTRA.VDW.0>
-0.287413

>  <SCORE.INTRA.norm>
-0.635186

>  <SCORE.RESTR>
0.00687373

>  <SCORE.RESTR.CAVITY>
0.00687373

>  <SCORE.RESTR.norm>
0.00049098

>  <SCORE.SYSTEM>
0

>  <SCORE.SYSTEM.CONST>
0

>  <SCORE.SYSTEM.DIHEDRAL>
0

>  <SCORE.SYSTEM.SOLV>
0

>  <SCORE.SYSTEM.norm>
0

>  <SCORE.heavy>
14

>  <SCORE.norm>
-0.167181

>  <RMSD>
1.515

$$$$
ligand
 OpenBabel11021811493D
libRbt.so/2013.1/901 2013/11/27
 14 13  0  0  0  0  0  0  0  0999 V2000
   50.7846    2.2226   -5.4117 N   0  0  0  0  0  0  0  0  0  0  0  0
   51.0278    1.6103   -4.1241 C   0  0  0  0  0  0  0  0  0  0  0  0
   51.5835    2.6747   -3.1557 C   0  0  0  0  0  0  0  0  0  0  0  0
   51.8668    2.1448   -1.7415 C   0  0  0  0  0  0  0  0  0  0  0  0
   52.2551    3.1546   -0.7450 N   0  0  0  0  0  0  0  0  0  0  0  0
   53.6415    3.4347   -0.3756 C   0  0  0  0  0  0  0  0  0  0  0  0
   54.0857    2.6939    0.8815 C   0  0  0  0  0  0  0  0  0  0  0  0
   53.9043    1.1750    0.7950 C   0  0  0  0  0  0  0  0  0  0  0  0
   54.6906    0.4390    1.8863 C   0  0  0  0  0  0  0  0  0  0  0  0
   56.1225    0.5911    1.6373 N   0  0  0  0  0  0  0  0  0  0  0  0
   57.1450   -0.3598    2.0774 C   0  0  0  0  0  0  0  0  0  0  0  0
   58.5427   -0.0228    1.5397 C   0  0  0  0  0  0  0  0  0  0  0  0
   59.5945   -1.0085    2.0591 C   0  0  0  0  0  0  0  0  0  0  0  0
   59.5834   -1.0041    3.5189 N   0  0  0  0  0  0  0  0  0  0  0  0
  1  2  1  0  0  0  0
  2  3  1  0  0  0  0
  3  4  1  0  0  0  0
  4  5  1  0  0  0  0
  5  6  1  0  0  0  0
  6  7  1  0  0  0  0
  7  8  1  0  0  0  0
  8  9  1  0  0  0  0
  9 10  1  0  0  0  0
 10 11  1  0  0  0  0
 11 12  1  0  0  0  0
 12 13  1  0  0  0  0
 13 14  1  0  0  0  0
M  END
>  <CHROM.1>
179.29237446,-173.45617755,-97.69997319,-96.39212930,55.85856370,164.59820800
-67.56249067,-153.52367455,173.55417730,178.00452341,-57.04957719,54.63055456
1.26754581,-0.08267552,-2.68316062,-0.60372979,1.18633966

>  <Name>
ligand

>  <RI>
0

>  <Rbt.Current_Directory>
/home/itssahil/PROJECTS/Mol_Feturizer/New_Systems/rnas/4FAW

>  <Rbt.Executable>
rbdock ($Id: //depot/dev/client3/rdock/2013.1/src/exe/rbdock.cxx#4 $)

>  <Rbt.Library>
libRbt.so (2013.1, Build901 2013/11/27)

>  <Rbt.Parameter_File>
/export/apps/rDock/src/rDock_2013.1_src/data/scripts/dock_solv.prm

>  <Rbt.Receptor>
prm/pocket_docking_2.prm

>  <SCORE>
-1.69801

>  <SCORE.INTER>
6.42341

>  <SCORE.INTER.CONST>
1

>  <SCORE.INTER.POLAR>
0

>  <SCORE.INTER.ROT>
11

>  <SCORE.INTER.SOLV>
4.74917

>  <SCORE.INTER.VDW>
-8.23412

>  <SCORE.INTER.norm>
0.458815

>  <SCORE.INTRA>
-8.13805

>  <SCORE.INTRA.DIHEDRAL>
-15.5134

>  <SCORE.INTRA.DIHEDRAL.0>
19.1003

>  <SCORE.INTRA.POLAR>
0

>  <SCORE.INTRA.POLAR.0>
0

>  <SCORE.INTRA.REPUL>
0

>  <SCORE.INTRA.REPUL.0>
0

>  <SCORE.INTRA.SOLV>
0.256725

>  <SCORE.INTRA.SOLV.lig_0>
-47.5333

>  <SCORE.INTRA.VDW>
-0.509722

>  <SCORE.INTRA.VDW.0>
-0.287413

>  <SCORE.INTRA.norm>
-0.581289

>  <SCORE.RESTR>
0.0166317

>  <SCORE.RESTR.CAVITY>
0.0166317

>  <SCORE.RESTR.norm>
0.00118798

>  <SCORE.SYSTEM>
0

>  <SCORE.SYSTEM.CONST>
0

>  <SCORE.SYSTEM.DIHEDRAL>
0

>  <SCORE.SYSTEM.SOLV>
0

>  <SCORE.SYSTEM.norm>
0

>  <SCORE.heavy>
14

>  <SCORE.norm>
-0.121286

>  <RMSD>
1.518

$$$$
ligand
 OpenBabel11021811493D
libRbt.so/2013.1/901 2013/11/27
 14 13  0  0  0  0  0  0  0  0999 V2000
   51.0217    3.9368   -4.5825 N   0  0  0  0  0  0  0  0  0  0  0  0
   50.4714    2.6484   -4.2229 C   0  0  0  0  0  0  0  0  0  0  0  0
   51.4633    1.9168   -3.2953 C   0  0  0  0  0  0  0  0  0  0  0  0
   51.6487    2.5884   -1.9258 C   0  0  0  0  0  0  0  0  0  0  0  0
   52.6298    1.9568   -1.0302 N   0  0  0  0  0  0  0  0  0  0  0  0
   52.8868    2.4098    0.3357 C   0  0  0  0  0  0  0  0  0  0  0  0
   54.2244    1.9238    0.8841 C   0  0  0  0  0  0  0  0  0  0  0  0
   54.3082    0.4016    1.0375 C   0  0  0  0  0  0  0  0  0  0  0  0
   55.6717   -0.0479    1.5756 C   0  0  0  0  0  0  0  0  0  0  0  0
   56.7110    0.2944    0.6069 N   0  0  0  0  0  0  0  0  0  0  0  0
   57.8137   -0.5910    0.2280 C   0  0  0  0  0  0  0  0  0  0  0  0
   58.9179   -0.6563    1.2923 C   0  0  0  0  0  0  0  0  0  0  0  0
   58.4704   -1.4661    2.5137 C   0  0  0  0  0  0  0  0  0  0  0  0
   59.5420   -1.4792    3.5051 N   0  0  0  0  0  0  0  0  0  0  0  0
  1  2  1  0  0  0  0
  2  3  1  0  0  0  0
  3  4  1  0  0  0  0
  4  5  1  0  0  0  0
  5  6  1  0  0  0  0
  6  7  1  0  0  0  0
  7  8  1  0  0  0  0
  8  9  1  0  0  0  0
  9 10  1  0  0  0  0
 10 11  1  0  0  0  0
 11 12  1  0  0  0  0
 12 13  1  0  0  0  0
 13 14  1  0  0  0  0
M  END
>  <CHROM.1>
66.33350603,-177.46644890,-176.53217802,-160.85984975,-64.61809521,179.34711587
-63.92741740,-136.98586424,-76.50369491,73.17998434,-178.98407590,54.69852871
0.98823664,-0.21977911,-2.54190687,-0.46149915,1.60867479

>  <Name>
ligand

>  <RI>
0

>  <Rbt.Current_Directory>
/home/itssahil/PROJECTS/Mol_Feturizer/New_Systems/rnas/4FAW

>  <Rbt.Executable>
rbdock ($Id: //depot/dev/client3/rdock/2013.1/src/exe/rbdock.cxx#4 $)

>  <Rbt.Library>
libRbt.so (2013.1, Build901 2013/11/27)

>  <Rbt.Parameter_File>
/export/apps/rDock/src/rDock_2013.1_src/data/scripts/dock_solv.prm

>  <Rbt.Receptor>
prm/pocket_docking_2.prm

>  <SCORE>
-4.69367

>  <SCORE.INTER>
4.01417

>  <SCORE.INTER.CONST>
1

>  <SCORE.INTER.POLAR>
0

>  <SCORE.INTER.ROT>
11

>  <SCORE.INTER.SOLV>
7.06837

>  <SCORE.INTER.VDW>
-10.6133

>  <SCORE.INTER.norm>
0.286727

>  <SCORE.INTRA>
-8.70785

>  <SCORE.INTRA.DIHEDRAL>
-16.6749

>  <SCORE.INTRA.DIHEDRAL.0>
19.1003

>  <SCORE.INTRA.POLAR>
0

>  <SCORE.INTRA.POLAR.0>
0

>  <SCORE.INTRA.REPUL>
0

>  <SCORE.INTRA.REPUL.0>
0

>  <SCORE.INTRA.SOLV>
0.369276

>  <SCORE.INTRA.SOLV.lig_0>
-47.5333

>  <SCORE.INTRA.VDW>
-0.55504

>  <SCORE.INTRA.VDW.0>
-0.287413

>  <SCORE.INTRA.norm>
-0.621989

>  <SCORE.RESTR>
0

>  <SCORE.RESTR.CAVITY>
0

>  <SCORE.RESTR.norm>
0

>  <SCORE.SYSTEM>
0

>  <SCORE.SYSTEM.CONST>
0

>  <SCORE.SYSTEM.DIHEDRAL>
0

>  <SCORE.SYSTEM.SOLV>
0

>  <SCORE.SYSTEM.norm>
0

>  <SCORE.heavy>
14

>  <SCORE.norm>
-0.335262

>  <RMSD>
1.526

$$$$
ligand
 OpenBabel11021811493D
libRbt.so/2013.1/901 2013/11/27
 14 13  0  0  0  0  0  0  0  0999 V2000
   58.3507    0.8104    3.5620 N   0  0  0  0  0  0  0  0  0  0  0  0
   59.6068    0.4685    2.9317 C   0  0  0  0  0  0  0  0  0  0  0  0
   59.5230   -0.9725    2.3876 C   0  0  0  0  0  0  0  0  0  0  0  0
   58.6214   -1.1218    1.1524 C   0  0  0  0  0  0  0  0  0  0  0  0
   57.2140   -0.7356    1.3362 N   0  0  0  0  0  0  0  0  0  0  0  0
   56.6699    0.5571    0.9242 C   0  0  0  0  0  0  0  0  0  0  0  0
   55.2053    0.7384    1.3093 C   0  0  0  0  0  0  0  0  0  0  0  0
   54.5871    2.0356    0.7778 C   0  0  0  0  0  0  0  0  0  0  0  0
   53.0823    2.1138    1.0614 C   0  0  0  0  0  0  0  0  0  0  0  0
   52.4922    3.1790    0.2533 N   0  0  0  0  0  0  0  0  0  0  0  0
   52.5209    3.2207   -1.2098 C   0  0  0  0  0  0  0  0  0  0  0  0
   51.9216    1.9627   -1.8536 C   0  0  0  0  0  0  0  0  0  0  0  0
   52.0888    1.9797   -3.3765 C   0  0  0  0  0  0  0  0  0  0  0  0
   51.3368    3.1001   -3.9338 N   0  0  0  0  0  0  0  0  0  0  0  0
  1  2  1  0  0  0  0
  2  3  1  0  0  0  0
  3  4  1  0  0  0  0
  4  5  1  0  0  0  0
  5  6  1  0  0  0  0
  6  7  1  0  0  0  0
  7  8  1  0  0  0  0
  8  9  1  0  0  0  0
  9 10  1  0  0  0  0
 10 11  1  0  0  0  0
 11 12  1  0  0  0  0
 12 13  1  0  0  0  0
 13 14  1  0  0  0  0
M  END
>  <CHROM.1>
71.82811342,-59.76752287,99.07087736,-176.31000768,-174.95982808,174.15042504
-165.70613446,59.93135242,55.79840472,-174.56120333,-63.71386697,55.23021104
1.23814456,0.38018415,0.35840377,-0.58088989,1.17254080

>  <Name>
ligand

>  <RI>
0

>  <Rbt.Current_Directory>
/home/itssahil/PROJECTS/Mol_Feturizer/New_Systems/rnas/4FAW

>  <Rbt.Executable>
rbdock ($Id: //depot/dev/client3/rdock/2013.1/src/exe/rbdock.cxx#4 $)

>  <Rbt.Library>
libRbt.so (2013.1, Build901 2013/11/27)

>  <Rbt.Parameter_File>
/export/apps/rDock/src/rDock_2013.1_src/data/scripts/dock_solv.prm

>  <Rbt.Receptor>
prm/pocket_docking_2.prm

>  <SCORE>
-1.72212

>  <SCORE.INTER>
5.03519

>  <SCORE.INTER.CONST>
1

>  <SCORE.INTER.POLAR>
0

>  <SCORE.INTER.ROT>
11

>  <SCORE.INTER.SOLV>
4.98837

>  <SCORE.INTER.VDW>
-9.23933

>  <SCORE.INTER.norm>
0.359656

>  <SCORE.INTRA>
-6.78737

>  <SCORE.INTRA.DIHEDRAL>
-16.5488

>  <SCORE.INTRA.DIHEDRAL.0>
19.1003

>  <SCORE.INTRA.POLAR>
0

>  <SCORE.INTRA.POLAR.0>
0

>  <SCORE.INTRA.REPUL>
0

>  <SCORE.INTRA.REPUL.0>
0

>  <SCORE.INTRA.SOLV>
3.35866

>  <SCORE.INTRA.SOLV.lig_0>
-47.5333

>  <SCORE.INTRA.VDW>
-0.192296

>  <SCORE.INTRA.VDW.0>
-0.287413

>  <SCORE.INTRA.norm>
-0.484812

>  <SCORE.RESTR>
0.0300601

>  <SCORE.RESTR.CAVITY>
0.0300601

>  <SCORE.RESTR.norm>
0.00214715

>  <SCORE.SYSTEM>
0

>  <SCORE.SYSTEM.CONST>
0

>  <SCORE.SYSTEM.DIHEDRAL>
0

>  <SCORE.SYSTEM.SOLV>
0

>  <SCORE.SYSTEM.norm>
0

>  <SCORE.heavy>
14

>  <SCORE.norm>
-0.123008

>  <RMSD>
1.576

$$$$
ligand
 OpenBabel11021811493D
libRbt.so/2013.1/901 2013/11/27
 14 13  0  0  0  0  0  0  0  0999 V2000
   51.6983    1.9374   -4.2813 N   0  0  0  0  0  0  0  0  0  0  0  0
   51.4605    2.1637   -2.8726 C   0  0  0  0  0  0  0  0  0  0  0  0
   52.4744    3.2020   -2.3498 C   0  0  0  0  0  0  0  0  0  0  0  0
   52.3295    3.5171   -0.8529 C   0  0  0  0  0  0  0  0  0  0  0  0
   52.5167    2.3807    0.0620 N   0  0  0  0  0  0  0  0  0  0  0  0
   52.9207    2.5257    1.4594 C   0  0  0  0  0  0  0  0  0  0  0  0
   54.3663    2.9854    1.6182 C   0  0  0  0  0  0  0  0  0  0  0  0
   55.3815    2.0663    0.9311 C   0  0  0  0  0  0  0  0  0  0  0  0
   55.4250    0.6751    1.5742 C   0  0  0  0  0  0  0  0  0  0  0  0
   56.3106   -0.1898    0.7973 N   0  0  0  0  0  0  0  0  0  0  0  0
   57.7360    0.0648    0.5814 C   0  0  0  0  0  0  0  0  0  0  0  0
   58.6244   -1.1044    1.0286 C   0  0  0  0  0  0  0  0  0  0  0  0
   58.5873   -1.2852    2.5496 C   0  0  0  0  0  0  0  0  0  0  0  0
   59.1912   -0.1209    3.1907 N   0  0  0  0  0  0  0  0  0  0  0  0
  1  2  1  0  0  0  0
  2  3  1  0  0  0  0
  3  4  1  0  0  0  0
  4  5  1  0  0  0  0
  5  6  1  0  0  0  0
  6  7  1  0  0  0  0
  7  8  1  0  0  0  0
  8  9  1  0  0  0  0
  9 10  1  0  0  0  0
 10 11  1  0  0  0  0
 11 12  1  0  0  0  0
 12 13  1  0  0  0  0
 13 14  1  0  0  0  0
M  END
>  <CHROM.1>
-179.44232400,60.70753637,155.90795518,-69.86392618,-56.78863072,-65.44077391
174.52159484,60.83146855,124.18931608,-67.21995657,-65.70953694,54.93017293
1.34426223,0.24555215,-2.81518767,-0.62290018,1.18313430

>  <Name>
ligand

>  <RI>
0

>  <Rbt.Current_Directory>
/home/itssahil/PROJECTS/Mol_Feturizer/New_Systems/rnas/4FAW

>  <Rbt.Executable>
rbdock ($Id: //depot/dev/client3/rdock/2013.1/src/exe/rbdock.cxx#4 $)

>  <Rbt.Library>
libRbt.so (2013.1, Build901 2013/11/27)

>  <Rbt.Parameter_File>
/export/apps/rDock/src/rDock_2013.1_src/data/scripts/dock_solv.prm

>  <Rbt.Receptor>
prm/pocket_docking_2.prm

>  <SCORE>
-1.01434

>  <SCORE.INTER>
6.44723

>  <SCORE.INTER.CONST>
1

>  <SCORE.INTER.POLAR>
0

>  <SCORE.INTER.ROT>
11

>  <SCORE.INTER.SOLV>
6.38961

>  <SCORE.INTER.VDW>
-8.76505

>  <SCORE.INTER.norm>
0.460516

>  <SCORE.INTRA>
-7.49118

>  <SCORE.INTRA.DIHEDRAL>
-16.8231

>  <SCORE.INTRA.DIHEDRAL.0>
19.1003

>  <SCORE.INTRA.POLAR>
0

>  <SCORE.INTRA.POLAR.0>
0

>  <SCORE.INTRA.REPUL>
0

>  <SCORE.INTRA.REPUL.0>
0

>  <SCORE.INTRA.SOLV>
1.6101

>  <SCORE.INTRA.SOLV.lig_0>
-47.5333

>  <SCORE.INTRA.VDW>
0.115342

>  <SCORE.INTRA.VDW.0>
-0.287413

>  <SCORE.INTRA.norm>
-0.535084

>  <SCORE.RESTR>
0.0296066

>  <SCORE.RESTR.CAVITY>
0.0296066

>  <SCORE.RESTR.norm>
0.00211476

>  <SCORE.SYSTEM>
0

>  <SCORE.SYSTEM.CONST>
0

>  <SCORE.SYSTEM.DIHEDRAL>
0

>  <SCORE.SYSTEM.SOLV>
0

>  <SCORE.SYSTEM.norm>
0

>  <SCORE.heavy>
14

>  <SCORE.norm>
-0.0724532

>  <RMSD>
1.590

$$$$
ligand
 OpenBabel11021811493D
libRbt.so/2013.1/901 2013/11/27
 14 13  0  0  0  0  0  0  0  0999 V2000
   51.2630    1.8603   -3.8616 N   0  0  0  0  0  0  0  0  0  0  0  0
   51.1062    2.5078   -2.5777 C   0  0  0  0  0  0  0  0  0  0  0  0
   52.1077    1.8946   -1.5774 C   0  0  0  0  0  0  0  0  0  0  0  0
   52.0481    2.5170   -0.1737 C   0  0  0  0  0  0  0  0  0  0  0  0
   53.1433    2.1495    0.7369 N   0  0  0  0  0  0  0  0  0  0  0  0
   54.5544    2.3947    0.4446 C   0  0  0  0  0  0  0  0  0  0  0  0
   55.4862    1.9092    1.5503 C   0  0  0  0  0  0  0  0  0  0  0  0
   56.9723    2.0825    1.2205 C   0  0  0  0  0  0  0  0  0  0  0  0
   57.4597    1.0463    0.2009 C   0  0  0  0  0  0  0  0  0  0  0  0
   57.4154   -0.2841    0.8040 N   0  0  0  0  0  0  0  0  0  0  0  0
   58.5961   -1.0931    1.1121 C   0  0  0  0  0  0  0  0  0  0  0  0
   59.5628   -0.3928    2.0771 C   0  0  0  0  0  0  0  0  0  0  0  0
   58.9274   -0.1904    3.4566 C   0  0  0  0  0  0  0  0  0  0  0  0
   58.7941   -1.4827    4.1227 N   0  0  0  0  0  0  0  0  0  0  0  0
  1  2  1  0  0  0  0
  2  3  1  0  0  0  0
  3  4  1  0  0  0  0
  4  5  1  0  0  0  0
  5  6  1  0  0  0  0
  6  7  1  0  0  0  0
  7  8  1  0  0  0  0
  8  9  1  0  0  0  0
  9 10  1  0  0  0  0
 10 11  1  0  0  0  0
 11 12  1  0  0  0  0
 12 13  1  0  0  0  0
 13 14  1  0  0  0  0
M  END
>  <CHROM.1>
179.28263348,-168.91297044,58.40350056,-179.61696656,176.50090898,-74.77891916
-66.74513449,-112.87765183,58.74120904,65.22037817,70.32608750,55.53135023
1.06581849,0.53827603,-2.75609565,-0.52469571,1.23644840

>  <Name>
ligand

>  <RI>
0

>  <Rbt.Current_Directory>
/home/itssahil/PROJECTS/Mol_Feturizer/New_Systems/rnas/4FAW

>  <Rbt.Executable>
rbdock ($Id: //depot/dev/client3/rdock/2013.1/src/exe/rbdock.cxx#4 $)

>  <Rbt.Library>
libRbt.so (2013.1, Build901 2013/11/27)

>  <Rbt.Parameter_File>
/export/apps/rDock/src/rDock_2013.1_src/data/scripts/dock_solv.prm

>  <Rbt.Receptor>
prm/pocket_docking_2.prm

>  <SCORE>
-1.87609

>  <SCORE.INTER>
5.92344

>  <SCORE.INTER.CONST>
1

>  <SCORE.INTER.POLAR>
0

>  <SCORE.INTER.ROT>
11

>  <SCORE.INTER.SOLV>
7.82469

>  <SCORE.INTER.VDW>
-9.5926

>  <SCORE.INTER.norm>
0.423103

>  <SCORE.INTRA>
-7.79953

>  <SCORE.INTRA.DIHEDRAL>
-15.8999

>  <SCORE.INTRA.DIHEDRAL.0>
19.1003

>  <SCORE.INTRA.POLAR>
0

>  <SCORE.INTRA.POLAR.0>
0

>  <SCORE.INTRA.REPUL>
0

>  <SCORE.INTRA.REPUL.0>
0

>  <SCORE.INTRA.SOLV>
0.700985

>  <SCORE.INTRA.SOLV.lig_0>
-47.5333

>  <SCORE.INTRA.VDW>
-0.200059

>  <SCORE.INTRA.VDW.0>
-0.287413

>  <SCORE.INTRA.norm>
-0.557109

>  <SCORE.RESTR>
0

>  <SCORE.RESTR.CAVITY>
0

>  <SCORE.RESTR.norm>
0

>  <SCORE.SYSTEM>
0

>  <SCORE.SYSTEM.CONST>
0

>  <SCORE.SYSTEM.DIHEDRAL>
0

>  <SCORE.SYSTEM.SOLV>
0

>  <SCORE.SYSTEM.norm>
0

>  <SCORE.heavy>
14

>  <SCORE.norm>
-0.134006

>  <RMSD>
1.592

$$$$
ligand
 OpenBabel11021811493D
libRbt.so/2013.1/901 2013/11/27
 14 13  0  0  0  0  0  0  0  0999 V2000
   52.5058    3.4797   -4.6052 N   0  0  0  0  0  0  0  0  0  0  0  0
   51.7093    3.0152   -3.4908 C   0  0  0  0  0  0  0  0  0  0  0  0
   52.6426    2.4201   -2.4164 C   0  0  0  0  0  0  0  0  0  0  0  0
   51.9112    1.9249   -1.1591 C   0  0  0  0  0  0  0  0  0  0  0  0
   52.7659    1.3763   -0.0951 N   0  0  0  0  0  0  0  0  0  0  0  0
   53.1952    2.1431    1.0731 C   0  0  0  0  0  0  0  0  0  0  0  0
   54.2493    3.1947    0.7425 C   0  0  0  0  0  0  0  0  0  0  0  0
   55.5194    2.6137    0.1127 C   0  0  0  0  0  0  0  0  0  0  0  0
   56.2852    1.7130    1.0891 C   0  0  0  0  0  0  0  0  0  0  0  0
   57.4897    1.2049    0.4359 N   0  0  0  0  0  0  0  0  0  0  0  0
   57.7349   -0.2065    0.1338 C   0  0  0  0  0  0  0  0  0  0  0  0
   58.0182   -1.0437    1.3888 C   0  0  0  0  0  0  0  0  0  0  0  0
   59.2503   -0.5276    2.1392 C   0  0  0  0  0  0  0  0  0  0  0  0
   59.4561   -1.3294    3.3418 N   0  0  0  0  0  0  0  0  0  0  0  0
  1  2  1  0  0  0  0
  2  3  1  0  0  0  0
  3  4  1  0  0  0  0
  4  5  1  0  0  0  0
  5  6  1  0  0  0  0
  6  7  1  0  0  0  0
  7  8  1  0  0  0  0
  8  9  1  0  0  0  0
  9 10  1  0  0  0  0
 10 11  1  0  0  0  0
 11 12  1  0  0  0  0
 12 13  1  0  0  0  0
 13 14  1  0  0  0  0
M  END
>  <CHROM.1>
178.40847248,-178.70813892,97.98880596,-72.63573206,-58.48666488,-65.80808412
-179.33538603,-115.19148545,-71.34924761,-59.70565693,178.39341482,55.19508516
1.42715079,-0.09348264,-2.54688142,-0.43366497,1.64791645

>  <Name>
ligand

>  <RI>
0

>  <Rbt.Current_Directory>
/home/itssahil/PROJECTS/Mol_Feturizer/New_Systems/rnas/4FAW

>  <Rbt.Executable>
rbdock ($Id: //depot/dev/client3/rdock/2013.1/src/exe/rbdock.cxx#4 $)

>  <Rbt.Library>
libRbt.so (2013.1, Build901 2013/11/27)

>  <Rbt.Parameter_File>
/export/apps/rDock/src/rDock_2013.1_src/data/scripts/dock_solv.prm

>  <Rbt.Receptor>
prm/pocket_docking_2.prm

>  <SCORE>
-3.30747

>  <SCORE.INTER>
5.4952

>  <SCORE.INTER.CONST>
1

>  <SCORE.INTER.POLAR>
0

>  <SCORE.INTER.ROT>
11

>  <SCORE.INTER.SOLV>
6.08069

>  <SCORE.INTER.VDW>
-9.29676

>  <SCORE.INTER.norm>
0.392514

>  <SCORE.INTRA>
-8.82842

>  <SCORE.INTRA.DIHEDRAL>
-16.6694

>  <SCORE.INTRA.DIHEDRAL.0>
19.1003

>  <SCORE.INTRA.POLAR>
0

>  <SCORE.INTRA.POLAR.0>
0

>  <SCORE.INTRA.REPUL>
0

>  <SCORE.INTRA.REPUL.0>
0

>  <SCORE.INTRA.SOLV>
-0.355782

>  <SCORE.INTRA.SOLV.lig_0>
-47.5333

>  <SCORE.INTRA.VDW>
-0.315846

>  <SCORE.INTRA.VDW.0>
-0.287413

>  <SCORE.INTRA.norm>
-0.630601

>  <SCORE.RESTR>
0.0257428

>  <SCORE.RESTR.CAVITY>
0.0257428

>  <SCORE.RESTR.norm>
0.00183877

>  <SCORE.SYSTEM>
0

>  <SCORE.SYSTEM.CONST>
0

>  <SCORE.SYSTEM.DIHEDRAL>
0

>  <SCORE.SYSTEM.SOLV>
0

>  <SCORE.SYSTEM.norm>
0

>  <SCORE.heavy>
14

>  <SCORE.norm>
-0.236248

>  <RMSD>
1.614

$$$$
ligand
 OpenBabel11021811493D
libRbt.so/2013.1/901 2013/11/27
 14 13  0  0  0  0  0  0  0  0999 V2000
   59.2356   -1.0328    3.3562 N   0  0  0  0  0  0  0  0  0  0  0  0
   59.4070   -1.0422    1.9200 C   0  0  0  0  0  0  0  0  0  0  0  0
   58.6379    0.1487    1.3118 C   0  0  0  0  0  0  0  0  0  0  0  0
   57.1105    0.0318    1.4313 C   0  0  0  0  0  0  0  0  0  0  0  0
   56.3375    1.1608    0.8914 N   0  0  0  0  0  0  0  0  0  0  0  0
   54.9084    1.3511    1.1328 C   0  0  0  0  0  0  0  0  0  0  0  0
   54.3744    2.6581    0.5559 C   0  0  0  0  0  0  0  0  0  0  0  0
   52.8912    2.9001    0.8545 C   0  0  0  0  0  0  0  0  0  0  0  0
   51.9821    1.9687    0.0439 C   0  0  0  0  0  0  0  0  0  0  0  0
   51.8505    2.4848   -1.3170 N   0  0  0  0  0  0  0  0  0  0  0  0
   52.5936    1.9756   -2.4711 C   0  0  0  0  0  0  0  0  0  0  0  0
   51.7358    1.8893   -3.7411 C   0  0  0  0  0  0  0  0  0  0  0  0
   51.2321    3.2711   -4.1709 C   0  0  0  0  0  0  0  0  0  0  0  0
   50.3961    3.1336   -5.3598 N   0  0  0  0  0  0  0  0  0  0  0  0
  1  2  1  0  0  0  0
  2  3  1  0  0  0  0
  3  4  1  0  0  0  0
  4  5  1  0  0  0  0
  5  6  1  0  0  0  0
  6  7  1  0  0  0  0
  7  8  1  0  0  0  0
  8  9  1  0  0  0  0
  9 10  1  0  0  0  0
 10 11  1  0  0  0  0
 11 12  1  0  0  0  0
 12 13  1  0  0  0  0
 13 14  1  0  0  0  0
M  END
>  <CHROM.1>
-67.71215929,178.66380632,-168.11870602,175.30361343,-177.46903505,-71.95351325
-79.27985785,100.34668584,139.90794325,62.12804718,-178.58747549,54.47805197
1.49279428,-0.39721203,-0.55819986,0.49251468,-1.71541631

>  <Name>
ligand

>  <RI>
0

>  <Rbt.Current_Directory>
/home/itssahil/PROJECTS/Mol_Feturizer/New_Systems/rnas/4FAW

>  <Rbt.Executable>
rbdock ($Id: //depot/dev/client3/rdock/2013.1/src/exe/rbdock.cxx#4 $)

>  <Rbt.Library>
libRbt.so (2013.1, Build901 2013/11/27)

>  <Rbt.Parameter_File>
/export/apps/rDock/src/rDock_2013.1_src/data/scripts/dock_solv.prm

>  <Rbt.Receptor>
prm/pocket_docking_2.prm

>  <SCORE>
-1.41246

>  <SCORE.INTER>
6.67318

>  <SCORE.INTER.CONST>
1

>  <SCORE.INTER.POLAR>
0

>  <SCORE.INTER.ROT>
11

>  <SCORE.INTER.SOLV>
5.18153

>  <SCORE.INTER.VDW>
-8.21172

>  <SCORE.INTER.norm>
0.476656

>  <SCORE.INTRA>
-8.10042

>  <SCORE.INTRA.DIHEDRAL>
-15.0095

>  <SCORE.INTRA.DIHEDRAL.0>
19.1003

>  <SCORE.INTRA.POLAR>
0

>  <SCORE.INTRA.POLAR.0>
0

>  <SCORE.INTRA.REPUL>
0

>  <SCORE.INTRA.REPUL.0>
0

>  <SCORE.INTRA.SOLV>
0.0663971

>  <SCORE.INTRA.SOLV.lig_0>
-47.5333

>  <SCORE.INTRA.VDW>
-0.628875

>  <SCORE.INTRA.VDW.0>
-0.287413

>  <SCORE.INTRA.norm>
-0.578601

>  <SCORE.RESTR>
0.0147769

>  <SCORE.RESTR.CAVITY>
0.0147769

>  <SCORE.RESTR.norm>
0.00105549

>  <SCORE.SYSTEM>
0

>  <SCORE.SYSTEM.CONST>
0

>  <SCORE.SYSTEM.DIHEDRAL>
0

>  <SCORE.SYSTEM.SOLV>
0

>  <SCORE.SYSTEM.norm>
0

>  <SCORE.heavy>
14

>  <SCORE.norm>
-0.10089

>  <RMSD>
1.629

$$$$
ligand
 OpenBabel11021811493D
libRbt.so/2013.1/901 2013/11/27
 14 13  0  0  0  0  0  0  0  0999 V2000
   49.9194    1.9149   -4.8785 N   0  0  0  0  0  0  0  0  0  0  0  0
   50.6753    2.6166   -3.8644 C   0  0  0  0  0  0  0  0  0  0  0  0
   52.0461    1.9308   -3.6913 C   0  0  0  0  0  0  0  0  0  0  0  0
   52.9673    2.6245   -2.6759 C   0  0  0  0  0  0  0  0  0  0  0  0
   52.4755    2.6682   -1.2903 N   0  0  0  0  0  0  0  0  0  0  0  0
   52.6584    1.5789   -0.3328 C   0  0  0  0  0  0  0  0  0  0  0  0
   53.0469    2.0666    1.0592 C   0  0  0  0  0  0  0  0  0  0  0  0
   54.3616    2.8528    1.0892 C   0  0  0  0  0  0  0  0  0  0  0  0
   55.5662    1.9726    0.7355 C   0  0  0  0  0  0  0  0  0  0  0  0
   55.7374    0.9500    1.7654 N   0  0  0  0  0  0  0  0  0  0  0  0
   56.7386   -0.1169    1.7145 C   0  0  0  0  0  0  0  0  0  0  0  0
   58.1775    0.4173    1.6891 C   0  0  0  0  0  0  0  0  0  0  0  0
   59.1984   -0.7198    1.8001 C   0  0  0  0  0  0  0  0  0  0  0  0
   59.1357   -1.2982    3.1390 N   0  0  0  0  0  0  0  0  0  0  0  0
  1  2  1  0  0  0  0
  2  3  1  0  0  0  0
  3  4  1  0  0  0  0
  4  5  1  0  0  0  0
  5  6  1  0  0  0  0
  6  7  1  0  0  0  0
  7  8  1  0  0  0  0
  8  9  1  0  0  0  0
  9 10  1  0  0  0  0
 10 11  1  0  0  0  0
 11 12  1  0  0  0  0
 12 13  1  0  0  0  0
 13 14  1  0  0  0  0
M  END
>  <CHROM.1>
177.61272926,62.36460290,84.69469255,137.75203727,-60.20720685,-66.09745917
-65.05193415,176.10484344,61.32413049,173.39948533,-69.02154819,54.47894753
1.39001020,-0.26721089,-2.65344129,-0.56560866,1.20487795

>  <Name>
ligand

>  <RI>
0

>  <Rbt.Current_Directory>
/home/itssahil/PROJECTS/Mol_Feturizer/New_Systems/rnas/4FAW

>  <Rbt.Executable>
rbdock ($Id: //depot/dev/client3/rdock/2013.1/src/exe/rbdock.cxx#4 $)

>  <Rbt.Library>
libRbt.so (2013.1, Build901 2013/11/27)

>  <Rbt.Parameter_File>
/export/apps/rDock/src/rDock_2013.1_src/data/scripts/dock_solv.prm

>  <Rbt.Receptor>
prm/pocket_docking_2.prm

>  <SCORE>
-0.820054

>  <SCORE.INTER>
7.37434

>  <SCORE.INTER.CONST>
1

>  <SCORE.INTER.POLAR>
0

>  <SCORE.INTER.ROT>
11

>  <SCORE.INTER.SOLV>
5.92062

>  <SCORE.INTER.VDW>
-7.99065

>  <SCORE.INTER.norm>
0.526739

>  <SCORE.INTRA>
-8.19439

>  <SCORE.INTRA.DIHEDRAL>
-16.9332

>  <SCORE.INTRA.DIHEDRAL.0>
19.1003

>  <SCORE.INTRA.POLAR>
0

>  <SCORE.INTRA.POLAR.0>
0

>  <SCORE.INTRA.REPUL>
0

>  <SCORE.INTRA.REPUL.0>
0

>  <SCORE.INTRA.SOLV>
0.830925

>  <SCORE.INTRA.SOLV.lig_0>
-47.5333

>  <SCORE.INTRA.VDW>
-0.143272

>  <SCORE.INTRA.VDW.0>
-0.287413

>  <SCORE.INTRA.norm>
-0.585314

>  <SCORE.RESTR>
0

>  <SCORE.RESTR.CAVITY>
0

>  <SCORE.RESTR.norm>
0

>  <SCORE.SYSTEM>
0

>  <SCORE.SYSTEM.CONST>
0

>  <SCORE.SYSTEM.DIHEDRAL>
0

>  <SCORE.SYSTEM.SOLV>
0

>  <SCORE.SYSTEM.norm>
0

>  <SCORE.heavy>
14

>  <SCORE.norm>
-0.0585753

>  <RMSD>
1.630

$$$$
ligand
 OpenBabel11021811493D
libRbt.so/2013.1/901 2013/11/27
 14 13  0  0  0  0  0  0  0  0999 V2000
   59.6135   -1.5011    3.6267 N   0  0  0  0  0  0  0  0  0  0  0  0
   59.2261   -1.0777    2.2990 C   0  0  0  0  0  0  0  0  0  0  0  0
   57.7026   -0.8375    2.2700 C   0  0  0  0  0  0  0  0  0  0  0  0
   57.1858   -0.2674    0.9400 C   0  0  0  0  0  0  0  0  0  0  0  0
   55.7990    0.2227    0.9490 N   0  0  0  0  0  0  0  0  0  0  0  0
   55.3259    1.2944    1.8233 C   0  0  0  0  0  0  0  0  0  0  0  0
   53.8674    1.6662    1.5765 C   0  0  0  0  0  0  0  0  0  0  0  0
   53.5977    2.1858    0.1605 C   0  0  0  0  0  0  0  0  0  0  0  0
   52.1148    2.5054   -0.0620 C   0  0  0  0  0  0  0  0  0  0  0  0
   51.9080    2.8990   -1.4541 N   0  0  0  0  0  0  0  0  0  0  0  0
   51.9736    1.9808   -2.5925 C   0  0  0  0  0  0  0  0  0  0  0  0
   51.4566    2.6084   -3.8945 C   0  0  0  0  0  0  0  0  0  0  0  0
   50.0007    3.0655   -3.7556 C   0  0  0  0  0  0  0  0  0  0  0  0
   49.5316    3.5842   -5.0370 N   0  0  0  0  0  0  0  0  0  0  0  0
  1  2  1  0  0  0  0
  2  3  1  0  0  0  0
  3  4  1  0  0  0  0
  4  5  1  0  0  0  0
  5  6  1  0  0  0  0
  6  7  1  0  0  0  0
  7  8  1  0  0  0  0
  8  9  1  0  0  0  0
  9 10  1  0  0  0  0
 10 11  1  0  0  0  0
 11 12  1  0  0  0  0
 12 13  1  0  0  0  0
 13 14  1  0  0  0  0
M  END
>  <CHROM.1>
175.07231784,-168.48840298,59.76709216,176.62459749,-61.37552890,178.15445521
-175.81283287,71.37786346,169.05339050,-59.00554867,-176.81233609,54.23594655
1.30920427,-0.22495539,-0.52303931,0.56175753,-1.75166942

>  <Name>
ligand

>  <RI>
0

>  <Rbt.Current_Directory>
/home/itssahil/PROJECTS/Mol_Feturizer/New_Systems/rnas/4FAW

>  <Rbt.Executable>
rbdock ($Id: //depot/dev/client3/rdock/2013.1/src/exe/rbdock.cxx#4 $)

>  <Rbt.Library>
libRbt.so (2013.1, Build901 2013/11/27)

>  <Rbt.Parameter_File>
/export/apps/rDock/src/rDock_2013.1_src/data/scripts/dock_solv.prm

>  <Rbt.Receptor>
prm/pocket_docking_2.prm

>  <SCORE>
-3.50933

>  <SCORE.INTER>
6.26394

>  <SCORE.INTER.CONST>
1

>  <SCORE.INTER.POLAR>
0

>  <SCORE.INTER.ROT>
11

>  <SCORE.INTER.SOLV>
7.61818

>  <SCORE.INTER.VDW>
-9.29677

>  <SCORE.INTER.norm>
0.447424

>  <SCORE.INTRA>
-9.78769

>  <SCORE.INTRA.DIHEDRAL>
-18.1844

>  <SCORE.INTRA.DIHEDRAL.0>
19.1003

>  <SCORE.INTRA.POLAR>
0

>  <SCORE.INTRA.POLAR.0>
0

>  <SCORE.INTRA.REPUL>
0

>  <SCORE.INTRA.REPUL.0>
0

>  <SCORE.INTRA.SOLV>
-0.719843

>  <SCORE.INTRA.SOLV.lig_0>
-47.5333

>  <SCORE.INTRA.VDW>
-0.335578

>  <SCORE.INTRA.VDW.0>
-0.287413

>  <SCORE.INTRA.norm>
-0.699121

>  <SCORE.RESTR>
0.0144175

>  <SCORE.RESTR.CAVITY>
0.0144175

>  <SCORE.RESTR.norm>
0.00102982

>  <SCORE.SYSTEM>
0

>  <SCORE.SYSTEM.CONST>
0

>  <SCORE.SYSTEM.DIHEDRAL>
0

>  <SCORE.SYSTEM.SOLV>
0

>  <SCORE.SYSTEM.norm>
0

>  <SCORE.heavy>
14

>  <SCORE.norm>
-0.250667

>  <RMSD>
1.647

$$$$
ligand
 OpenBabel11021811493D
libRbt.so/2013.1/901 2013/11/27
 14 13  0  0  0  0  0  0  0  0999 V2000
   50.1239    3.7245   -4.4081 N   0  0  0  0  0  0  0  0  0  0  0  0
   50.8438    2.5138   -4.7369 C   0  0  0  0  0  0  0  0  0  0  0  0
   51.4606    1.9279   -3.4501 C   0  0  0  0  0  0  0  0  0  0  0  0
   52.5339    2.8215   -2.8094 C   0  0  0  0  0  0  0  0  0  0  0  0
   53.1023    2.3328   -1.5439 N   0  0  0  0  0  0  0  0  0  0  0  0
   52.3429    2.2423   -0.2980 C   0  0  0  0  0  0  0  0  0  0  0  0
   53.2119    1.8974    0.9071 C   0  0  0  0  0  0  0  0  0  0  0  0
   54.2580    2.9675    1.2357 C   0  0  0  0  0  0  0  0  0  0  0  0
   55.5109    2.8343    0.3620 C   0  0  0  0  0  0  0  0  0  0  0  0
   56.2271    1.6135    0.7259 N   0  0  0  0  0  0  0  0  0  0  0  0
   57.5200    1.2144    0.1668 C   0  0  0  0  0  0  0  0  0  0  0  0
   58.4365    0.5478    1.2021 C   0  0  0  0  0  0  0  0  0  0  0  0
   57.8588   -0.7873    1.6833 C   0  0  0  0  0  0  0  0  0  0  0  0
   58.6807   -1.3063    2.7725 N   0  0  0  0  0  0  0  0  0  0  0  0
  1  2  1  0  0  0  0
  2  3  1  0  0  0  0
  3  4  1  0  0  0  0
  4  5  1  0  0  0  0
  5  6  1  0  0  0  0
  6  7  1  0  0  0  0
  7  8  1  0  0  0  0
  8  9  1  0  0  0  0
  9 10  1  0  0  0  0
 10 11  1  0  0  0  0
 11 12  1  0  0  0  0
 12 13  1  0  0  0  0
 13 14  1  0  0  0  0
M  END
>  <CHROM.1>
-64.85682771,177.10938704,-67.72084973,-171.69757920,63.83161949,-82.20269146
-68.57150193,-175.32352081,142.60613316,65.41229697,-173.51759367,54.43648148
1.75321962,-0.58505858,-2.66413447,-0.56227756,1.25085256

>  <Name>
ligand

>  <RI>
0

>  <Rbt.Current_Directory>
/home/itssahil/PROJECTS/Mol_Feturizer/New_Systems/rnas/4FAW

>  <Rbt.Executable>
rbdock ($Id: //depot/dev/client3/rdock/2013.1/src/exe/rbdock.cxx#4 $)

>  <Rbt.Library>
libRbt.so (2013.1, Build901 2013/11/27)

>  <Rbt.Parameter_File>
/export/apps/rDock/src/rDock_2013.1_src/data/scripts/dock_solv.prm

>  <Rbt.Receptor>
prm/pocket_docking_2.prm

>  <SCORE>
-0.35841

>  <SCORE.INTER>
7.51939

>  <SCORE.INTER.CONST>
1

>  <SCORE.INTER.POLAR>
0

>  <SCORE.INTER.ROT>
11

>  <SCORE.INTER.SOLV>
5.91515

>  <SCORE.INTER.VDW>
-7.89212

>  <SCORE.INTER.norm>
0.537099

>  <SCORE.INTRA>
-7.8778

>  <SCORE.INTRA.DIHEDRAL>
-15.5901

>  <SCORE.INTRA.DIHEDRAL.0>
19.1003

>  <SCORE.INTRA.POLAR>
0

>  <SCORE.INTRA.POLAR.0>
0

>  <SCORE.INTRA.REPUL>
0

>  <SCORE.INTRA.REPUL.0>
0

>  <SCORE.INTRA.SOLV>
1.22572

>  <SCORE.INTRA.SOLV.lig_0>
-47.5333

>  <SCORE.INTRA.VDW>
-0.695626

>  <SCORE.INTRA.VDW.0>
-0.287413

>  <SCORE.INTRA.norm>
-0.5627

>  <SCORE.RESTR>
0

>  <SCORE.RESTR.CAVITY>
0

>  <SCORE.RESTR.norm>
0

>  <SCORE.SYSTEM>
0

>  <SCORE.SYSTEM.CONST>
0

>  <SCORE.SYSTEM.DIHEDRAL>
0

>  <SCORE.SYSTEM.SOLV>
0

>  <SCORE.SYSTEM.norm>
0

>  <SCORE.heavy>
14

>  <SCORE.norm>
-0.0256007

>  <RMSD>
1.658

$$$$
ligand
 OpenBabel11021811493D
libRbt.so/2013.1/901 2013/11/27
 14 13  0  0  0  0  0  0  0  0999 V2000
   59.5744   -1.4579    3.5415 N   0  0  0  0  0  0  0  0  0  0  0  0
   58.6586   -0.4791    2.9979 C   0  0  0  0  0  0  0  0  0  0  0  0
   58.1847   -0.9488    1.6071 C   0  0  0  0  0  0  0  0  0  0  0  0
   57.0357   -0.1118    1.0237 C   0  0  0  0  0  0  0  0  0  0  0  0
   55.8370    0.0069    1.8679 N   0  0  0  0  0  0  0  0  0  0  0  0
   54.6575    0.7845    1.4924 C   0  0  0  0  0  0  0  0  0  0  0  0
   54.7997    2.2714    1.8009 C   0  0  0  0  0  0  0  0  0  0  0  0
   53.5237    3.0776    1.5373 C   0  0  0  0  0  0  0  0  0  0  0  0
   53.2180    3.1968    0.0396 C   0  0  0  0  0  0  0  0  0  0  0  0
   52.9552    1.8677   -0.5081 N   0  0  0  0  0  0  0  0  0  0  0  0
   51.9070    1.5673   -1.4852 C   0  0  0  0  0  0  0  0  0  0  0  0
   52.3107    1.9278   -2.9216 C   0  0  0  0  0  0  0  0  0  0  0  0
   52.3571    3.4457   -3.1254 C   0  0  0  0  0  0  0  0  0  0  0  0
   52.5738    3.7381   -4.5392 N   0  0  0  0  0  0  0  0  0  0  0  0
  1  2  1  0  0  0  0
  2  3  1  0  0  0  0
  3  4  1  0  0  0  0
  4  5  1  0  0  0  0
  5  6  1  0  0  0  0
  6  7  1  0  0  0  0
  7  8  1  0  0  0  0
  8  9  1  0  0  0  0
  9 10  1  0  0  0  0
 10 11  1  0  0  0  0
 11 12  1  0  0  0  0
 12 13  1  0  0  0  0
 13 14  1  0  0  0  0
M  END
>  <CHROM.1>
170.56045382,-55.28210406,178.67298363,-82.67562898,-174.48714507,-70.00011237
63.63188043,139.45819942,80.17983976,-71.10529502,-172.73024976,54.82791902
1.34913395,0.23783073,-0.57880007,0.62493859,-1.69421651

>  <Name>
ligand

>  <RI>
0

>  <Rbt.Current_Directory>
/home/itssahil/PROJECTS/Mol_Feturizer/New_Systems/rnas/4FAW

>  <Rbt.Executable>
rbdock ($Id: //depot/dev/client3/rdock/2013.1/src/exe/rbdock.cxx#4 $)

>  <Rbt.Library>
libRbt.so (2013.1, Build901 2013/11/27)

>  <Rbt.Parameter_File>
/export/apps/rDock/src/rDock_2013.1_src/data/scripts/dock_solv.prm

>  <Rbt.Receptor>
prm/pocket_docking_2.prm

>  <SCORE>
-1.47839

>  <SCORE.INTER>
6.21911

>  <SCORE.INTER.CONST>
1

>  <SCORE.INTER.POLAR>
0

>  <SCORE.INTER.ROT>
11

>  <SCORE.INTER.SOLV>
4.96657

>  <SCORE.INTER.VDW>
-8.44279

>  <SCORE.INTER.norm>
0.444222

>  <SCORE.INTRA>
-7.71576

>  <SCORE.INTRA.DIHEDRAL>
-15.8647

>  <SCORE.INTRA.DIHEDRAL.0>
19.1003

>  <SCORE.INTRA.POLAR>
0

>  <SCORE.INTRA.POLAR.0>
0

>  <SCORE.INTRA.REPUL>
0

>  <SCORE.INTRA.REPUL.0>
0

>  <SCORE.INTRA.SOLV>
0.368852

>  <SCORE.INTRA.SOLV.lig_0>
-47.5333

>  <SCORE.INTRA.VDW>
0.032181

>  <SCORE.INTRA.VDW.0>
-0.287413

>  <SCORE.INTRA.norm>
-0.551125

>  <SCORE.RESTR>
0.0182639

>  <SCORE.RESTR.CAVITY>
0.0182639

>  <SCORE.RESTR.norm>
0.00130456

>  <SCORE.SYSTEM>
0

>  <SCORE.SYSTEM.CONST>
0

>  <SCORE.SYSTEM.DIHEDRAL>
0

>  <SCORE.SYSTEM.SOLV>
0

>  <SCORE.SYSTEM.norm>
0

>  <SCORE.heavy>
14

>  <SCORE.norm>
-0.105599

>  <RMSD>
1.673

$$$$
ligand
 OpenBabel11021811493D
libRbt.so/2013.1/901 2013/11/27
 14 13  0  0  0  0  0  0  0  0999 V2000
   49.7867    3.6886   -4.5607 N   0  0  0  0  0  0  0  0  0  0  0  0
   50.3198    2.8005   -3.5511 C   0  0  0  0  0  0  0  0  0  0  0  0
   51.8593    2.7919   -3.6480 C   0  0  0  0  0  0  0  0  0  0  0  0
   52.5464    1.9144   -2.5902 C   0  0  0  0  0  0  0  0  0  0  0  0
   52.3834    2.3480   -1.1942 N   0  0  0  0  0  0  0  0  0  0  0  0
   52.8384    1.5657   -0.0462 C   0  0  0  0  0  0  0  0  0  0  0  0
   54.0372    2.1876    0.6627 C   0  0  0  0  0  0  0  0  0  0  0  0
   54.5573    1.3519    1.8368 C   0  0  0  0  0  0  0  0  0  0  0  0
   55.3087    0.1017    1.3643 C   0  0  0  0  0  0  0  0  0  0  0  0
   56.5922    0.4973    0.7882 N   0  0  0  0  0  0  0  0  0  0  0  0
   57.4977   -0.4109    0.0819 C   0  0  0  0  0  0  0  0  0  0  0  0
   58.0898   -1.4921    0.9966 C   0  0  0  0  0  0  0  0  0  0  0  0
   59.1738   -0.9166    1.9140 C   0  0  0  0  0  0  0  0  0  0  0  0
   58.5554   -0.0384    2.9027 N   0  0  0  0  0  0  0  0  0  0  0  0
  1  2  1  0  0  0  0
  2  3  1  0  0  0  0
  3  4  1  0  0  0  0
  4  5  1  0  0  0  0
  5  6  1  0  0  0  0
  6  7  1  0  0  0  0
  7  8  1  0  0  0  0
  8  9  1  0  0  0  0
  9 10  1  0  0  0  0
 10 11  1  0  0  0  0
 11 12  1  0  0  0  0
 12 13  1  0  0  0  0
 13 14  1  0  0  0  0
M  END
>  <CHROM.1>
178.11899007,-64.91543491,173.11698012,109.64240860,-177.87325891,73.53954925
71.61735118,-171.79964610,-66.24214699,-74.73568189,69.70290032,54.53908971
1.17049561,-0.36015498,-2.62366444,-0.51774252,1.44801096

>  <Name>
ligand

>  <RI>
0

>  <Rbt.Current_Directory>
/home/itssahil/PROJECTS/Mol_Feturizer/New_Systems/rnas/4FAW

>  <Rbt.Executable>
rbdock ($Id: //depot/dev/client3/rdock/2013.1/src/exe/rbdock.cxx#4 $)

>  <Rbt.Library>
libRbt.so (2013.1, Build901 2013/11/27)

>  <Rbt.Parameter_File>
/export/apps/rDock/src/rDock_2013.1_src/data/scripts/dock_solv.prm

>  <Rbt.Receptor>
prm/pocket_docking_2.prm

>  <SCORE>
-4.11938

>  <SCORE.INTER>
2.82996

>  <SCORE.INTER.CONST>
1

>  <SCORE.INTER.POLAR>
0

>  <SCORE.INTER.ROT>
11

>  <SCORE.INTER.SOLV>
6.52222

>  <SCORE.INTER.VDW>
-11.2208

>  <SCORE.INTER.norm>
0.20214

>  <SCORE.INTRA>
-6.96036

>  <SCORE.INTRA.DIHEDRAL>
-15.3778

>  <SCORE.INTRA.DIHEDRAL.0>
19.1003

>  <SCORE.INTRA.POLAR>
0

>  <SCORE.INTRA.POLAR.0>
0

>  <SCORE.INTRA.REPUL>
0

>  <SCORE.INTRA.REPUL.0>
0

>  <SCORE.INTRA.SOLV>
2.76788

>  <SCORE.INTRA.SOLV.lig_0>
-47.5333

>  <SCORE.INTRA.VDW>
-0.655404

>  <SCORE.INTRA.VDW.0>
-0.287413

>  <SCORE.INTRA.norm>
-0.497168

>  <SCORE.RESTR>
0.0110219

>  <SCORE.RESTR.CAVITY>
0.0110219

>  <SCORE.RESTR.norm>
0.000787276

>  <SCORE.SYSTEM>
0

>  <SCORE.SYSTEM.CONST>
0

>  <SCORE.SYSTEM.DIHEDRAL>
0

>  <SCORE.SYSTEM.SOLV>
0

>  <SCORE.SYSTEM.norm>
0

>  <SCORE.heavy>
14

>  <SCORE.norm>
-0.294241

>  <RMSD>
1.709

$$$$
ligand
 OpenBabel11021811493D
libRbt.so/2013.1/901 2013/11/27
 14 13  0  0  0  0  0  0  0  0999 V2000
   50.7790    2.7199   -5.2402 N   0  0  0  0  0  0  0  0  0  0  0  0
   51.9712    1.9054   -5.1540 C   0  0  0  0  0  0  0  0  0  0  0  0
   52.7437    2.2752   -3.8710 C   0  0  0  0  0  0  0  0  0  0  0  0
   52.0099    1.9060   -2.5724 C   0  0  0  0  0  0  0  0  0  0  0  0
   52.6934    2.2752   -1.3233 N   0  0  0  0  0  0  0  0  0  0  0  0
   52.1983    1.9188    0.0051 C   0  0  0  0  0  0  0  0  0  0  0  0
   53.0998    2.4146    1.1311 C   0  0  0  0  0  0  0  0  0  0  0  0
   54.5380    1.8942    1.0398 C   0  0  0  0  0  0  0  0  0  0  0  0
   54.6213    0.3856    1.3010 C   0  0  0  0  0  0  0  0  0  0  0  0
   55.9487   -0.0978    0.9269 N   0  0  0  0  0  0  0  0  0  0  0  0
   57.1365    0.0032    1.7769 C   0  0  0  0  0  0  0  0  0  0  0  0
   58.3767   -0.6459    1.1470 C   0  0  0  0  0  0  0  0  0  0  0  0
   59.6035   -0.5051    2.0541 C   0  0  0  0  0  0  0  0  0  0  0  0
   59.3482   -1.1815    3.3224 N   0  0  0  0  0  0  0  0  0  0  0  0
  1  2  1  0  0  0  0
  2  3  1  0  0  0  0
  3  4  1  0  0  0  0
  4  5  1  0  0  0  0
  5  6  1  0  0  0  0
  6  7  1  0  0  0  0
  7  8  1  0  0  0  0
  8  9  1  0  0  0  0
  9 10  1  0  0  0  0
 10 11  1  0  0  0  0
 11 12  1  0  0  0  0
 12 13  1  0  0  0  0
 13 14  1  0  0  0  0
M  END
>  <CHROM.1>
66.74356734,-178.33712621,-175.32539614,179.58129753,-58.06346179,-68.44168536
168.13458323,81.71058097,177.43264862,179.23291037,61.20682391,54.64771979
1.09062261,-0.38966696,-2.47040914,-0.44352769,1.52139880

>  <Name>
ligand

>  <RI>
0

>  <Rbt.Current_Directory>
/home/itssahil/PROJECTS/Mol_Feturizer/New_Systems/rnas/4FAW

>  <Rbt.Executable>
rbdock ($Id: //depot/dev/client3/rdock/2013.1/src/exe/rbdock.cxx#4 $)

>  <Rbt.Library>
libRbt.so (2013.1, Build901 2013/11/27)

>  <Rbt.Parameter_File>
/export/apps/rDock/src/rDock_2013.1_src/data/scripts/dock_solv.prm

>  <Rbt.Receptor>
prm/pocket_docking_2.prm

>  <SCORE>
-4.26571

>  <SCORE.INTER>
4.35237

>  <SCORE.INTER.CONST>
1

>  <SCORE.INTER.POLAR>
0

>  <SCORE.INTER.ROT>
11

>  <SCORE.INTER.SOLV>
6.46649

>  <SCORE.INTER.VDW>
-10.1872

>  <SCORE.INTER.norm>
0.310884

>  <SCORE.INTRA>
-8.62489

>  <SCORE.INTRA.DIHEDRAL>
-17.7168

>  <SCORE.INTRA.DIHEDRAL.0>
19.1003

>  <SCORE.INTRA.POLAR>
0

>  <SCORE.INTRA.POLAR.0>
0

>  <SCORE.INTRA.REPUL>
0

>  <SCORE.INTRA.REPUL.0>
0

>  <SCORE.INTRA.SOLV>
0.791978

>  <SCORE.INTRA.SOLV.lig_0>
-47.5333

>  <SCORE.INTRA.VDW>
-0.162502

>  <SCORE.INTRA.VDW.0>
-0.287413

>  <SCORE.INTRA.norm>
-0.616064

>  <SCORE.RESTR>
0.00680719

>  <SCORE.RESTR.CAVITY>
0.00680719

>  <SCORE.RESTR.norm>
0.000486228

>  <SCORE.SYSTEM>
0

>  <SCORE.SYSTEM.CONST>
0

>  <SCORE.SYSTEM.DIHEDRAL>
0

>  <SCORE.SYSTEM.SOLV>
0

>  <SCORE.SYSTEM.norm>
0

>  <SCORE.heavy>
14

>  <SCORE.norm>
-0.304694

>  <RMSD>
1.727

$$$$
ligand
 OpenBabel11021811493D
libRbt.so/2013.1/901 2013/11/27
 14 13  0  0  0  0  0  0  0  0999 V2000
   59.5852   -0.9556    3.3664 N   0  0  0  0  0  0  0  0  0  0  0  0
   58.3901   -0.1521    3.2308 C   0  0  0  0  0  0  0  0  0  0  0  0
   57.4580   -0.8053    2.1896 C   0  0  0  0  0  0  0  0  0  0  0  0
   56.1216   -0.0709    2.0006 C   0  0  0  0  0  0  0  0  0  0  0  0
   56.2077    1.2746    1.4124 N   0  0  0  0  0  0  0  0  0  0  0  0
   55.0470    2.1343    1.1872 C   0  0  0  0  0  0  0  0  0  0  0  0
   53.8267    1.3700    0.6843 C   0  0  0  0  0  0  0  0  0  0  0  0
   52.7406    2.2716    0.0884 C   0  0  0  0  0  0  0  0  0  0  0  0
   53.1867    2.9145   -1.2302 C   0  0  0  0  0  0  0  0  0  0  0  0
   52.0570    3.6207   -1.8308 N   0  0  0  0  0  0  0  0  0  0  0  0
   50.9941    2.9760   -2.6041 C   0  0  0  0  0  0  0  0  0  0  0  0
   51.5031    2.3514   -3.9106 C   0  0  0  0  0  0  0  0  0  0  0  0
   50.3465    1.8266   -4.7676 C   0  0  0  0  0  0  0  0  0  0  0  0
   49.5279    2.9491   -5.2162 N   0  0  0  0  0  0  0  0  0  0  0  0
  1  2  1  0  0  0  0
  2  3  1  0  0  0  0
  3  4  1  0  0  0  0
  4  5  1  0  0  0  0
  5  6  1  0  0  0  0
  6  7  1  0  0  0  0
  7  8  1  0  0  0  0
  8  9  1  0  0  0  0
  9 10  1  0  0  0  0
 10 11  1  0  0  0  0
 11 12  1  0  0  0  0
 12 13  1  0  0  0  0
 13 14  1  0  0  0  0
M  END
>  <CHROM.1>
177.55241182,66.37563060,-178.51242890,-39.70542910,-164.37754428,68.62892237
172.88153557,-80.46724338,-64.88864275,-173.57749351,65.91248623,54.07075584
1.55028925,-0.38562264,-0.29554865,0.74001516,-2.29257884

>  <Name>
ligand

>  <RI>
0

>  <Rbt.Current_Directory>
/home/itssahil/PROJECTS/Mol_Feturizer/New_Systems/rnas/4FAW

>  <Rbt.Executable>
rbdock ($Id: //depot/dev/client3/rdock/2013.1/src/exe/rbdock.cxx#4 $)

>  <Rbt.Library>
libRbt.so (2013.1, Build901 2013/11/27)

>  <Rbt.Parameter_File>
/export/apps/rDock/src/rDock_2013.1_src/data/scripts/dock_solv.prm

>  <Rbt.Receptor>
prm/pocket_docking_2.prm

>  <SCORE>
0.459089

>  <SCORE.INTER>
8.03134

>  <SCORE.INTER.CONST>
1

>  <SCORE.INTER.POLAR>
0

>  <SCORE.INTER.ROT>
11

>  <SCORE.INTER.SOLV>
5.81552

>  <SCORE.INTER.VDW>
-7.51761

>  <SCORE.INTER.norm>
0.573667

>  <SCORE.INTRA>
-7.59831

>  <SCORE.INTRA.DIHEDRAL>
-16.6278

>  <SCORE.INTRA.DIHEDRAL.0>
19.1003

>  <SCORE.INTRA.POLAR>
0

>  <SCORE.INTRA.POLAR.0>
0

>  <SCORE.INTRA.REPUL>
0

>  <SCORE.INTRA.REPUL.0>
0

>  <SCORE.INTRA.SOLV>
-0.176047

>  <SCORE.INTRA.SOLV.lig_0>
-47.5333

>  <SCORE.INTRA.VDW>
0.803593

>  <SCORE.INTRA.VDW.0>
-0.287413

>  <SCORE.INTRA.norm>
-0.542736

>  <SCORE.RESTR>
0.0260535

>  <SCORE.RESTR.CAVITY>
0.0260535

>  <SCORE.RESTR.norm>
0.00186097

>  <SCORE.SYSTEM>
0

>  <SCORE.SYSTEM.CONST>
0

>  <SCORE.SYSTEM.DIHEDRAL>
0

>  <SCORE.SYSTEM.SOLV>
0

>  <SCORE.SYSTEM.norm>
0

>  <SCORE.heavy>
14

>  <SCORE.norm>
0.0327921

>  <RMSD>
1.785

$$$$
ligand
 OpenBabel11021811493D
libRbt.so/2013.1/901 2013/11/27
 14 13  0  0  0  0  0  0  0  0999 V2000
   50.5800    2.6653   -5.0568 N   0  0  0  0  0  0  0  0  0  0  0  0
   50.7219    2.6237   -3.6180 C   0  0  0  0  0  0  0  0  0  0  0  0
   52.0388    1.9040   -3.2611 C   0  0  0  0  0  0  0  0  0  0  0  0
   52.2534    1.7068   -1.7525 C   0  0  0  0  0  0  0  0  0  0  0  0
   52.3189    2.9370   -0.9487 N   0  0  0  0  0  0  0  0  0  0  0  0
   52.4720    2.9457    0.5051 C   0  0  0  0  0  0  0  0  0  0  0  0
   53.7758    3.5905    0.9642 C   0  0  0  0  0  0  0  0  0  0  0  0
   55.0051    2.6980    0.7654 C   0  0  0  0  0  0  0  0  0  0  0  0
   55.0705    1.5702    1.8022 C   0  0  0  0  0  0  0  0  0  0  0  0
   56.3232    0.8354    1.6396 N   0  0  0  0  0  0  0  0  0  0  0  0
   56.4417   -0.4607    0.9692 C   0  0  0  0  0  0  0  0  0  0  0  0
   57.8737   -0.7635    0.5067 C   0  0  0  0  0  0  0  0  0  0  0  0
   58.8031   -1.0221    1.6970 C   0  0  0  0  0  0  0  0  0  0  0  0
   58.9911    0.2185    2.4432 N   0  0  0  0  0  0  0  0  0  0  0  0
  1  2  1  0  0  0  0
  2  3  1  0  0  0  0
  3  4  1  0  0  0  0
  4  5  1  0  0  0  0
  5  6  1  0  0  0  0
  6  7  1  0  0  0  0
  7  8  1  0  0  0  0
  8  9  1  0  0  0  0
  9 10  1  0  0  0  0
 10 11  1  0  0  0  0
 11 12  1  0  0  0  0
 12 13  1  0  0  0  0
 13 14  1  0  0  0  0
M  END
>  <CHROM.1>
-175.81417305,-60.69299510,177.84211482,116.29506174,-75.91866337,-74.90701811
-174.69139402,-101.68871613,159.70195381,69.61032242,-68.44574856,54.47634362
1.53199195,-0.23879902,-2.82333368,-0.63425113,1.01862377

>  <Name>
ligand

>  <RI>
0

>  <Rbt.Current_Directory>
/home/itssahil/PROJECTS/Mol_Feturizer/New_Systems/rnas/4FAW

>  <Rbt.Executable>
rbdock ($Id: //depot/dev/client3/rdock/2013.1/src/exe/rbdock.cxx#4 $)

>  <Rbt.Library>
libRbt.so (2013.1, Build901 2013/11/27)

>  <Rbt.Parameter_File>
/export/apps/rDock/src/rDock_2013.1_src/data/scripts/dock_solv.prm

>  <Rbt.Receptor>
prm/pocket_docking_2.prm

>  <SCORE>
-1.64317

>  <SCORE.INTER>
5.21287

>  <SCORE.INTER.CONST>
1

>  <SCORE.INTER.POLAR>
0

>  <SCORE.INTER.ROT>
11

>  <SCORE.INTER.SOLV>
5.01634

>  <SCORE.INTER.VDW>
-9.1302

>  <SCORE.INTER.norm>
0.372348

>  <SCORE.INTRA>
-6.85604

>  <SCORE.INTRA.DIHEDRAL>
-14.0833

>  <SCORE.INTRA.DIHEDRAL.0>
19.1003

>  <SCORE.INTRA.POLAR>
0

>  <SCORE.INTRA.POLAR.0>
0

>  <SCORE.INTRA.REPUL>
0

>  <SCORE.INTRA.REPUL.0>
0

>  <SCORE.INTRA.SOLV>
2.18187

>  <SCORE.INTRA.SOLV.lig_0>
-47.5333

>  <SCORE.INTRA.VDW>
-0.905327

>  <SCORE.INTRA.VDW.0>
-0.287413

>  <SCORE.INTRA.norm>
-0.489717

>  <SCORE.RESTR>
0

>  <SCORE.RESTR.CAVITY>
0

>  <SCORE.RESTR.norm>
0

>  <SCORE.SYSTEM>
0

>  <SCORE.SYSTEM.CONST>
0

>  <SCORE.SYSTEM.DIHEDRAL>
0

>  <SCORE.SYSTEM.SOLV>
0

>  <SCORE.SYSTEM.norm>
0

>  <SCORE.heavy>
14

>  <SCORE.norm>
-0.117369

>  <RMSD>
1.801

$$$$
ligand
 OpenBabel11021811493D
libRbt.so/2013.1/901 2013/11/27
 14 13  0  0  0  0  0  0  0  0999 V2000
   52.5253    2.6229   -5.0878 N   0  0  0  0  0  0  0  0  0  0  0  0
   51.0852    2.7186   -4.9932 C   0  0  0  0  0  0  0  0  0  0  0  0
   50.6037    1.9019   -3.7764 C   0  0  0  0  0  0  0  0  0  0  0  0
   51.1029    2.4400   -2.4264 C   0  0  0  0  0  0  0  0  0  0  0  0
   52.5525    2.3451   -2.1956 N   0  0  0  0  0  0  0  0  0  0  0  0
   53.1937    2.6913   -0.9283 C   0  0  0  0  0  0  0  0  0  0  0  0
   53.0810    1.5879    0.1187 C   0  0  0  0  0  0  0  0  0  0  0  0
   53.7550    1.9344    1.4503 C   0  0  0  0  0  0  0  0  0  0  0  0
   55.2804    2.0170    1.3183 C   0  0  0  0  0  0  0  0  0  0  0  0
   55.8233    0.6734    1.1294 N   0  0  0  0  0  0  0  0  0  0  0  0
   57.0875    0.3790    0.4521 C   0  0  0  0  0  0  0  0  0  0  0  0
   58.2934    1.0508    1.1233 C   0  0  0  0  0  0  0  0  0  0  0  0
   58.6127    0.4048    2.4755 C   0  0  0  0  0  0  0  0  0  0  0  0
   59.1635   -0.9294    2.2568 N   0  0  0  0  0  0  0  0  0  0  0  0
  1  2  1  0  0  0  0
  2  3  1  0  0  0  0
  3  4  1  0  0  0  0
  4  5  1  0  0  0  0
  5  6  1  0  0  0  0
  6  7  1  0  0  0  0
  7  8  1  0  0  0  0
  8  9  1  0  0  0  0
  9 10  1  0  0  0  0
 10 11  1  0  0  0  0
 11 12  1  0  0  0  0
 12 13  1  0  0  0  0
 13 14  1  0  0  0  0
M  END
>  <CHROM.1>
64.20294851,-66.61393245,-174.22564927,79.86715391,179.71306292,-67.74009905
-71.26167245,154.20585026,59.44650080,70.58133156,70.70269693,54.43977691
1.55999982,-0.64866605,-2.46295652,-0.32992451,1.55428264

>  <Name>
ligand

>  <RI>
0

>  <Rbt.Current_Directory>
/home/itssahil/PROJECTS/Mol_Feturizer/New_Systems/rnas/4FAW

>  <Rbt.Executable>
rbdock ($Id: //depot/dev/client3/rdock/2013.1/src/exe/rbdock.cxx#4 $)

>  <Rbt.Library>
libRbt.so (2013.1, Build901 2013/11/27)

>  <Rbt.Parameter_File>
/export/apps/rDock/src/rDock_2013.1_src/data/scripts/dock_solv.prm

>  <Rbt.Receptor>
prm/pocket_docking_2.prm

>  <SCORE>
1.30759

>  <SCORE.INTER>
7.99532

>  <SCORE.INTER.CONST>
1

>  <SCORE.INTER.POLAR>
0

>  <SCORE.INTER.ROT>
11

>  <SCORE.INTER.SOLV>
6.09233

>  <SCORE.INTER.VDW>
-7.63389

>  <SCORE.INTER.norm>
0.571095

>  <SCORE.INTRA>
-6.68774

>  <SCORE.INTRA.DIHEDRAL>
-16.5278

>  <SCORE.INTRA.DIHEDRAL.0>
19.1003

>  <SCORE.INTRA.POLAR>
0

>  <SCORE.INTRA.POLAR.0>
0

>  <SCORE.INTRA.REPUL>
0

>  <SCORE.INTRA.REPUL.0>
0

>  <SCORE.INTRA.SOLV>
3.40619

>  <SCORE.INTRA.SOLV.lig_0>
-47.5333

>  <SCORE.INTRA.VDW>
-0.126918

>  <SCORE.INTRA.VDW.0>
-0.287413

>  <SCORE.INTRA.norm>
-0.477696

>  <SCORE.RESTR>
0

>  <SCORE.RESTR.CAVITY>
0

>  <SCORE.RESTR.norm>
0

>  <SCORE.SYSTEM>
0

>  <SCORE.SYSTEM.CONST>
0

>  <SCORE.SYSTEM.DIHEDRAL>
0

>  <SCORE.SYSTEM.SOLV>
0

>  <SCORE.SYSTEM.norm>
0

>  <SCORE.heavy>
14

>  <SCORE.norm>
0.093399

>  <RMSD>
1.829

$$$$
ligand
 OpenBabel11021811493D
libRbt.so/2013.1/901 2013/11/27
 14 13  0  0  0  0  0  0  0  0999 V2000
   52.7687    3.2321   -3.9899 N   0  0  0  0  0  0  0  0  0  0  0  0
   53.1500    2.5138   -2.7937 C   0  0  0  0  0  0  0  0  0  0  0  0
   51.8812    2.1601   -1.9910 C   0  0  0  0  0  0  0  0  0  0  0  0
   52.1597    1.3918   -0.6898 C   0  0  0  0  0  0  0  0  0  0  0  0
   52.8582    2.1460    0.3623 N   0  0  0  0  0  0  0  0  0  0  0  0
   54.2529    1.9137    0.7334 C   0  0  0  0  0  0  0  0  0  0  0  0
   54.5048    0.5025    1.2545 C   0  0  0  0  0  0  0  0  0  0  0  0
   55.9577    0.2528    1.6720 C   0  0  0  0  0  0  0  0  0  0  0  0
   56.9181    0.3173    0.4785 C   0  0  0  0  0  0  0  0  0  0  0  0
   58.2940    0.2042    0.9578 N   0  0  0  0  0  0  0  0  0  0  0  0
   58.9276   -1.0506    1.3671 C   0  0  0  0  0  0  0  0  0  0  0  0
   58.8482   -1.2918    2.8810 C   0  0  0  0  0  0  0  0  0  0  0  0
   59.6104   -0.2148    3.6599 C   0  0  0  0  0  0  0  0  0  0  0  0
   59.4769   -0.4667    5.0916 N   0  0  0  0  0  0  0  0  0  0  0  0
  1  2  1  0  0  0  0
  2  3  1  0  0  0  0
  3  4  1  0  0  0  0
  4  5  1  0  0  0  0
  5  6  1  0  0  0  0
  6  7  1  0  0  0  0
  7  8  1  0  0  0  0
  8  9  1  0  0  0  0
  9 10  1  0  0  0  0
 10 11  1  0  0  0  0
 11 12  1  0  0  0  0
 12 13  1  0  0  0  0
 13 14  1  0  0  0  0
M  END
>  <CHROM.1>
-179.94370773,67.64650491,-107.58344664,-61.30979419,-178.91973873,-65.54858435
174.43330079,77.38839122,-95.09184630,-63.21074523,178.52705144,55.68623926
0.82914844,0.64242764,-2.44527450,-0.28875256,1.76259060

>  <Name>
ligand

>  <RI>
0

>  <Rbt.Current_Directory>
/home/itssahil/PROJECTS/Mol_Feturizer/New_Systems/rnas/4FAW

>  <Rbt.Executable>
rbdock ($Id: //depot/dev/client3/rdock/2013.1/src/exe/rbdock.cxx#4 $)

>  <Rbt.Library>
libRbt.so (2013.1, Build901 2013/11/27)

>  <Rbt.Parameter_File>
/export/apps/rDock/src/rDock_2013.1_src/data/scripts/dock_solv.prm

>  <Rbt.Receptor>
prm/pocket_docking_2.prm

>  <SCORE>
-4.16221

>  <SCORE.INTER>
4.58353

>  <SCORE.INTER.CONST>
1

>  <SCORE.INTER.POLAR>
0

>  <SCORE.INTER.ROT>
11

>  <SCORE.INTER.SOLV>
6.13242

>  <SCORE.INTER.VDW>
-9.92179

>  <SCORE.INTER.norm>
0.327395

>  <SCORE.INTRA>
-8.75672

>  <SCORE.INTRA.DIHEDRAL>
-16.5168

>  <SCORE.INTRA.DIHEDRAL.0>
19.1003

>  <SCORE.INTRA.POLAR>
0

>  <SCORE.INTRA.POLAR.0>
0

>  <SCORE.INTRA.REPUL>
0

>  <SCORE.INTRA.REPUL.0>
0

>  <SCORE.INTRA.SOLV>
-0.638207

>  <SCORE.INTRA.SOLV.lig_0>
-47.5333

>  <SCORE.INTRA.VDW>
-0.179209

>  <SCORE.INTRA.VDW.0>
-0.287413

>  <SCORE.INTRA.norm>
-0.62548

>  <SCORE.RESTR>
0.0109832

>  <SCORE.RESTR.CAVITY>
0.0109832

>  <SCORE.RESTR.norm>
0.000784514

>  <SCORE.SYSTEM>
0

>  <SCORE.SYSTEM.CONST>
0

>  <SCORE.SYSTEM.DIHEDRAL>
0

>  <SCORE.SYSTEM.SOLV>
0

>  <SCORE.SYSTEM.norm>
0

>  <SCORE.heavy>
14

>  <SCORE.norm>
-0.297301

>  <RMSD>
1.848

$$$$
ligand
 OpenBabel11021811493D
libRbt.so/2013.1/901 2013/11/27
 14 13  0  0  0  0  0  0  0  0999 V2000
   59.2721   -1.0790    3.3617 N   0  0  0  0  0  0  0  0  0  0  0  0
   59.4497   -1.0072    1.9280 C   0  0  0  0  0  0  0  0  0  0  0  0
   58.3445   -0.1150    1.3263 C   0  0  0  0  0  0  0  0  0  0  0  0
   56.9318   -0.7083    1.4414 C   0  0  0  0  0  0  0  0  0  0  0  0
   55.8290    0.1833    1.0508 N   0  0  0  0  0  0  0  0  0  0  0  0
   54.7113    0.5201    1.9308 C   0  0  0  0  0  0  0  0  0  0  0  0
   53.9149    1.7282    1.4484 C   0  0  0  0  0  0  0  0  0  0  0  0
   53.2356    1.5135    0.0920 C   0  0  0  0  0  0  0  0  0  0  0  0
   52.4782    2.7619   -0.3757 C   0  0  0  0  0  0  0  0  0  0  0  0
   51.8624    2.4964   -1.6742 N   0  0  0  0  0  0  0  0  0  0  0  0
   51.0673    3.4678   -2.4276 C   0  0  0  0  0  0  0  0  0  0  0  0
   50.2247    2.8179   -3.5338 C   0  0  0  0  0  0  0  0  0  0  0  0
   51.1001    2.0309   -4.5146 C   0  0  0  0  0  0  0  0  0  0  0  0
   50.2691    1.5132   -5.5976 N   0  0  0  0  0  0  0  0  0  0  0  0
  1  2  1  0  0  0  0
  2  3  1  0  0  0  0
  3  4  1  0  0  0  0
  4  5  1  0  0  0  0
  5  6  1  0  0  0  0
  6  7  1  0  0  0  0
  7  8  1  0  0  0  0
  8  9  1  0  0  0  0
  9 10  1  0  0  0  0
 10 11  1  0  0  0  0
 11 12  1  0  0  0  0
 12 13  1  0  0  0  0
 13 14  1  0  0  0  0
M  END
>  <CHROM.1>
-66.86323902,171.91642593,-123.89606195,164.57835480,62.98782018,-178.42093983
179.63521821,-179.57763139,-163.58267129,-57.31664257,-175.98228017,54.19214017
1.15184556,-0.39587320,-0.50240492,0.54929094,-1.84589099

>  <Name>
ligand

>  <RI>
0

>  <Rbt.Current_Directory>
/home/itssahil/PROJECTS/Mol_Feturizer/New_Systems/rnas/4FAW

>  <Rbt.Executable>
rbdock ($Id: //depot/dev/client3/rdock/2013.1/src/exe/rbdock.cxx#4 $)

>  <Rbt.Library>
libRbt.so (2013.1, Build901 2013/11/27)

>  <Rbt.Parameter_File>
/export/apps/rDock/src/rDock_2013.1_src/data/scripts/dock_solv.prm

>  <Rbt.Receptor>
prm/pocket_docking_2.prm

>  <SCORE>
-3.949

>  <SCORE.INTER>
5.35436

>  <SCORE.INTER.CONST>
1

>  <SCORE.INTER.POLAR>
0

>  <SCORE.INTER.ROT>
11

>  <SCORE.INTER.SOLV>
7.51158

>  <SCORE.INTER.VDW>
-9.86762

>  <SCORE.INTER.norm>
0.382455

>  <SCORE.INTRA>
-9.30336

>  <SCORE.INTRA.DIHEDRAL>
-16.9665

>  <SCORE.INTRA.DIHEDRAL.0>
19.1003

>  <SCORE.INTRA.POLAR>
0

>  <SCORE.INTRA.POLAR.0>
0

>  <SCORE.INTRA.REPUL>
0

>  <SCORE.INTRA.REPUL.0>
0

>  <SCORE.INTRA.SOLV>
-0.00423538

>  <SCORE.INTRA.SOLV.lig_0>
-47.5333

>  <SCORE.INTRA.VDW>
-0.817991

>  <SCORE.INTRA.VDW.0>
-0.287413

>  <SCORE.INTRA.norm>
-0.664526

>  <SCORE.RESTR>
0

>  <SCORE.RESTR.CAVITY>
0

>  <SCORE.RESTR.norm>
0

>  <SCORE.SYSTEM>
0

>  <SCORE.SYSTEM.CONST>
0

>  <SCORE.SYSTEM.DIHEDRAL>
0

>  <SCORE.SYSTEM.SOLV>
0

>  <SCORE.SYSTEM.norm>
0

>  <SCORE.heavy>
14

>  <SCORE.norm>
-0.282071

>  <RMSD>
1.860

$$$$
ligand
 OpenBabel11021811493D
libRbt.so/2013.1/901 2013/11/27
 14 13  0  0  0  0  0  0  0  0999 V2000
   49.4813    1.5352   -5.5420 N   0  0  0  0  0  0  0  0  0  0  0  0
   49.3554    2.5304   -4.4999 C   0  0  0  0  0  0  0  0  0  0  0  0
   50.6045    2.4762   -3.5964 C   0  0  0  0  0  0  0  0  0  0  0  0
   50.5856    3.4919   -2.4436 C   0  0  0  0  0  0  0  0  0  0  0  0
   51.7539    3.4688   -1.5502 N   0  0  0  0  0  0  0  0  0  0  0  0
   52.0757    2.3478   -0.6689 C   0  0  0  0  0  0  0  0  0  0  0  0
   53.4310    2.4958    0.0147 C   0  0  0  0  0  0  0  0  0  0  0  0
   53.7632    1.3481    0.9738 C   0  0  0  0  0  0  0  0  0  0  0  0
   55.1148    1.5521    1.6684 C   0  0  0  0  0  0  0  0  0  0  0  0
   56.1896    1.3993    0.6901 N   0  0  0  0  0  0  0  0  0  0  0  0
   57.1494    0.2938    0.6806 C   0  0  0  0  0  0  0  0  0  0  0  0
   57.9645    0.2014    1.9780 C   0  0  0  0  0  0  0  0  0  0  0  0
   58.9151   -1.0001    1.9572 C   0  0  0  0  0  0  0  0  0  0  0  0
   59.5357   -1.1495    3.2701 N   0  0  0  0  0  0  0  0  0  0  0  0
  1  2  1  0  0  0  0
  2  3  1  0  0  0  0
  3  4  1  0  0  0  0
  4  5  1  0  0  0  0
  5  6  1  0  0  0  0
  6  7  1  0  0  0  0
  7  8  1  0  0  0  0
  8  9  1  0  0  0  0
  9 10  1  0  0  0  0
 10 11  1  0  0  0  0
 11 12  1  0  0  0  0
 12 13  1  0  0  0  0
 13 14  1  0  0  0  0
M  END
>  <CHROM.1>
-179.89170459,179.57875507,-66.57450455,172.46989665,178.27910267,-178.47592755
-69.56120101,-111.65745513,-59.27101765,177.58618751,-172.59648887,53.99416985
1.49944991,-0.50474539,-2.81314986,-0.60632837,0.98858949

>  <Name>
ligand

>  <RI>
0

>  <Rbt.Current_Directory>
/home/itssahil/PROJECTS/Mol_Feturizer/New_Systems/rnas/4FAW

>  <Rbt.Executable>
rbdock ($Id: //depot/dev/client3/rdock/2013.1/src/exe/rbdock.cxx#4 $)

>  <Rbt.Library>
libRbt.so (2013.1, Build901 2013/11/27)

>  <Rbt.Parameter_File>
/export/apps/rDock/src/rDock_2013.1_src/data/scripts/dock_solv.prm

>  <Rbt.Receptor>
prm/pocket_docking_2.prm

>  <SCORE>
-2.59072

>  <SCORE.INTER>
7.01467

>  <SCORE.INTER.CONST>
1

>  <SCORE.INTER.POLAR>
0

>  <SCORE.INTER.ROT>
11

>  <SCORE.INTER.SOLV>
9.02268

>  <SCORE.INTER.VDW>
-9.26445

>  <SCORE.INTER.norm>
0.501048

>  <SCORE.INTRA>
-9.60697

>  <SCORE.INTRA.DIHEDRAL>
-17.2878

>  <SCORE.INTRA.DIHEDRAL.0>
19.1003

>  <SCORE.INTRA.POLAR>
0

>  <SCORE.INTRA.POLAR.0>
0

>  <SCORE.INTRA.REPUL>
0

>  <SCORE.INTRA.REPUL.0>
0

>  <SCORE.INTRA.SOLV>
-1.11885

>  <SCORE.INTRA.SOLV.lig_0>
-47.5333

>  <SCORE.INTRA.VDW>
-0.403617

>  <SCORE.INTRA.VDW.0>
-0.287413

>  <SCORE.INTRA.norm>
-0.686212

>  <SCORE.RESTR>
0.00157309

>  <SCORE.RESTR.CAVITY>
0.00157309

>  <SCORE.RESTR.norm>
0.000112364

>  <SCORE.SYSTEM>
0

>  <SCORE.SYSTEM.CONST>
0

>  <SCORE.SYSTEM.DIHEDRAL>
0

>  <SCORE.SYSTEM.SOLV>
0

>  <SCORE.SYSTEM.norm>
0

>  <SCORE.heavy>
14

>  <SCORE.norm>
-0.185052

>  <RMSD>
1.878

$$$$
ligand
 OpenBabel11021811493D
libRbt.so/2013.1/901 2013/11/27
 14 13  0  0  0  0  0  0  0  0999 V2000
   59.3050   -1.0375    2.8017 N   0  0  0  0  0  0  0  0  0  0  0  0
   58.7726   -0.0435    1.8957 C   0  0  0  0  0  0  0  0  0  0  0  0
   59.5512    1.2754    2.0791 C   0  0  0  0  0  0  0  0  0  0  0  0
   59.0669    2.4173    1.1720 C   0  0  0  0  0  0  0  0  0  0  0  0
   57.6884    2.8764    1.4010 N   0  0  0  0  0  0  0  0  0  0  0  0
   56.5160    2.2495    0.7932 C   0  0  0  0  0  0  0  0  0  0  0  0
   55.4600    1.8413    1.8153 C   0  0  0  0  0  0  0  0  0  0  0  0
   54.2406    1.1512    1.1956 C   0  0  0  0  0  0  0  0  0  0  0  0
   53.4586    2.0891    0.2683 C   0  0  0  0  0  0  0  0  0  0  0  0
   52.3095    1.3755   -0.2849 N   0  0  0  0  0  0  0  0  0  0  0  0
   51.5696    1.7952   -1.4764 C   0  0  0  0  0  0  0  0  0  0  0  0
   52.0917    1.1408   -2.7630 C   0  0  0  0  0  0  0  0  0  0  0  0
   51.3605    1.6752   -3.9990 C   0  0  0  0  0  0  0  0  0  0  0  0
   51.8806    1.0149   -5.1926 N   0  0  0  0  0  0  0  0  0  0  0  0
  1  2  1  0  0  0  0
  2  3  1  0  0  0  0
  3  4  1  0  0  0  0
  4  5  1  0  0  0  0
  5  6  1  0  0  0  0
  6  7  1  0  0  0  0
  7  8  1  0  0  0  0
  8  9  1  0  0  0  0
  9 10  1  0  0  0  0
 10 11  1  0  0  0  0
 11 12  1  0  0  0  0
 12 13  1  0  0  0  0
 13 14  1  0  0  0  0
M  END
>  <CHROM.1>
-179.57145906,63.69414274,-85.30540547,126.23185875,-178.56485877,-64.46869951
-179.79250024,-161.50602897,92.91107906,-176.04158829,-179.41206538,55.23362528
1.41592571,-0.02088357,-0.60135549,0.18575153,-1.74750673

>  <Name>
ligand

>  <RI>
0

>  <Rbt.Current_Directory>
/home/itssahil/PROJECTS/Mol_Feturizer/New_Systems/rnas/4FAW

>  <Rbt.Executable>
rbdock ($Id: //depot/dev/client3/rdock/2013.1/src/exe/rbdock.cxx#4 $)

>  <Rbt.Library>
libRbt.so (2013.1, Build901 2013/11/27)

>  <Rbt.Parameter_File>
/export/apps/rDock/src/rDock_2013.1_src/data/scripts/dock_solv.prm

>  <Rbt.Receptor>
prm/pocket_docking_3.prm

>  <SCORE>
-4.53334

>  <SCORE.INTER>
4.74119

>  <SCORE.INTER.CONST>
1

>  <SCORE.INTER.POLAR>
0

>  <SCORE.INTER.ROT>
11

>  <SCORE.INTER.SOLV>
8.17703

>  <SCORE.INTER.VDW>
-10.4982

>  <SCORE.INTER.norm>
0.338657

>  <SCORE.INTRA>
-9.27453

>  <SCORE.INTRA.DIHEDRAL>
-16.323

>  <SCORE.INTRA.DIHEDRAL.0>
19.1003

>  <SCORE.INTRA.POLAR>
0

>  <SCORE.INTRA.POLAR.0>
0

>  <SCORE.INTRA.REPUL>
0

>  <SCORE.INTRA.REPUL.0>
0

>  <SCORE.INTRA.SOLV>
-0.993768

>  <SCORE.INTRA.SOLV.lig_0>
-47.5333

>  <SCORE.INTRA.VDW>
-0.616136

>  <SCORE.INTRA.VDW.0>
-0.287413

>  <SCORE.INTRA.norm>
-0.662467

>  <SCORE.RESTR>
0

>  <SCORE.RESTR.CAVITY>
0

>  <SCORE.RESTR.norm>
0

>  <SCORE.SYSTEM>
0

>  <SCORE.SYSTEM.CONST>
0

>  <SCORE.SYSTEM.DIHEDRAL>
0

>  <SCORE.SYSTEM.SOLV>
0

>  <SCORE.SYSTEM.norm>
0

>  <SCORE.heavy>
14

>  <SCORE.norm>
-0.32381

>  <RMSD>
1.880

$$$$
ligand
 OpenBabel11021811493D
libRbt.so/2013.1/901 2013/11/27
 14 13  0  0  0  0  0  0  0  0999 V2000
   50.1067    2.4585   -5.8415 N   0  0  0  0  0  0  0  0  0  0  0  0
   49.4914    2.3187   -4.5399 C   0  0  0  0  0  0  0  0  0  0  0  0
   50.5923    2.0986   -3.4820 C   0  0  0  0  0  0  0  0  0  0  0  0
   51.5067    3.3152   -3.2703 C   0  0  0  0  0  0  0  0  0  0  0  0
   52.4377    3.2268   -2.1350 N   0  0  0  0  0  0  0  0  0  0  0  0
   52.0236    3.3482   -0.7383 C   0  0  0  0  0  0  0  0  0  0  0  0
   52.5736    2.2343    0.1465 C   0  0  0  0  0  0  0  0  0  0  0  0
   54.0916    2.3006    0.3440 C   0  0  0  0  0  0  0  0  0  0  0  0
   54.6172    1.1152    1.1622 C   0  0  0  0  0  0  0  0  0  0  0  0
   56.0777    1.1028    1.1131 N   0  0  0  0  0  0  0  0  0  0  0  0
   56.9088   -0.0443    1.4830 C   0  0  0  0  0  0  0  0  0  0  0  0
   58.4115    0.2593    1.4055 C   0  0  0  0  0  0  0  0  0  0  0  0
   59.2499   -0.9634    1.7927 C   0  0  0  0  0  0  0  0  0  0  0  0
   59.0630   -1.2490    3.2121 N   0  0  0  0  0  0  0  0  0  0  0  0
  1  2  1  0  0  0  0
  2  3  1  0  0  0  0
  3  4  1  0  0  0  0
  4  5  1  0  0  0  0
  5  6  1  0  0  0  0
  6  7  1  0  0  0  0
  7  8  1  0  0  0  0
  8  9  1  0  0  0  0
  9 10  1  0  0  0  0
 10 11  1  0  0  0  0
 11 12  1  0  0  0  0
 12 13  1  0  0  0  0
 13 14  1  0  0  0  0
M  END
>  <CHROM.1>
66.90967447,171.12736430,-73.58146679,131.05120803,68.37653003,-176.29875850
169.92578442,-163.95553463,-176.80764247,-179.75058699,-67.62915949,54.08213509
1.53732242,-0.66759947,-2.70133244,-0.59058139,1.17750212

>  <Name>
ligand

>  <RI>
0

>  <Rbt.Current_Directory>
/home/itssahil/PROJECTS/Mol_Feturizer/New_Systems/rnas/4FAW

>  <Rbt.Executable>
rbdock ($Id: //depot/dev/client3/rdock/2013.1/src/exe/rbdock.cxx#4 $)

>  <Rbt.Library>
libRbt.so (2013.1, Build901 2013/11/27)

>  <Rbt.Parameter_File>
/export/apps/rDock/src/rDock_2013.1_src/data/scripts/dock_solv.prm

>  <Rbt.Receptor>
prm/pocket_docking_2.prm

>  <SCORE>
-1.98526

>  <SCORE.INTER>
6.73775

>  <SCORE.INTER.CONST>
1

>  <SCORE.INTER.POLAR>
0

>  <SCORE.INTER.ROT>
11

>  <SCORE.INTER.SOLV>
6.74049

>  <SCORE.INTER.VDW>
-8.68833

>  <SCORE.INTER.norm>
0.481268

>  <SCORE.INTRA>
-8.74795

>  <SCORE.INTRA.DIHEDRAL>
-16.2623

>  <SCORE.INTRA.DIHEDRAL.0>
19.1003

>  <SCORE.INTRA.POLAR>
0

>  <SCORE.INTRA.POLAR.0>
0

>  <SCORE.INTRA.REPUL>
0

>  <SCORE.INTRA.REPUL.0>
0

>  <SCORE.INTRA.SOLV>
0.25182

>  <SCORE.INTRA.SOLV.lig_0>
-47.5333

>  <SCORE.INTRA.VDW>
-0.742721

>  <SCORE.INTRA.VDW.0>
-0.287413

>  <SCORE.INTRA.norm>
-0.624854

>  <SCORE.RESTR>
0.0249376

>  <SCORE.RESTR.CAVITY>
0.0249376

>  <SCORE.RESTR.norm>
0.00178126

>  <SCORE.SYSTEM>
0

>  <SCORE.SYSTEM.CONST>
0

>  <SCORE.SYSTEM.DIHEDRAL>
0

>  <SCORE.SYSTEM.SOLV>
0

>  <SCORE.SYSTEM.norm>
0

>  <SCORE.heavy>
14

>  <SCORE.norm>
-0.141804

>  <RMSD>
1.889

$$$$
ligand
 OpenBabel11021811493D
libRbt.so/2013.1/901 2013/11/27
 14 13  0  0  0  0  0  0  0  0999 V2000
   59.6979   -1.6437    2.7649 N   0  0  0  0  0  0  0  0  0  0  0  0
   58.8397   -0.6653    2.1339 C   0  0  0  0  0  0  0  0  0  0  0  0
   58.4029   -1.1932    0.7519 C   0  0  0  0  0  0  0  0  0  0  0  0
   57.5412   -0.2054   -0.0499 C   0  0  0  0  0  0  0  0  0  0  0  0
   58.1692    1.0886   -0.3579 N   0  0  0  0  0  0  0  0  0  0  0  0
   57.6455    2.0257   -1.3501 C   0  0  0  0  0  0  0  0  0  0  0  0
   56.4829    2.8622   -0.8259 C   0  0  0  0  0  0  0  0  0  0  0  0
   55.7838    3.6889   -1.9101 C   0  0  0  0  0  0  0  0  0  0  0  0
   54.5908    4.4751   -1.3539 C   0  0  0  0  0  0  0  0  0  0  0  0
   53.5908    3.5401   -0.8427 N   0  0  0  0  0  0  0  0  0  0  0  0
   52.8586    2.5779   -1.6683 C   0  0  0  0  0  0  0  0  0  0  0  0
   51.8885    3.2512   -2.6490 C   0  0  0  0  0  0  0  0  0  0  0  0
   51.1294    2.2155   -3.4848 C   0  0  0  0  0  0  0  0  0  0  0  0
   50.2416    2.9027   -4.4180 N   0  0  0  0  0  0  0  0  0  0  0  0
  1  2  1  0  0  0  0
  2  3  1  0  0  0  0
  3  4  1  0  0  0  0
  4  5  1  0  0  0  0
  5  6  1  0  0  0  0
  6  7  1  0  0  0  0
  7  8  1  0  0  0  0
  8  9  1  0  0  0  0
  9 10  1  0  0  0  0
 10 11  1  0  0  0  0
 11 12  1  0  0  0  0
 12 13  1  0  0  0  0
 13 14  1  0  0  0  0
M  END
>  <CHROM.1>
-177.03257351,60.00150223,165.57254312,80.13446489,-171.02702494,177.91912847
-62.43872840,-64.11577556,-67.47970558,-179.38490295,-178.88557284,55.49021291
1.78014483,-0.94724544,0.55805162,0.41891303,2.86495628

>  <Name>
ligand

>  <RI>
0

>  <Rbt.Current_Directory>
/home/itssahil/PROJECTS/Mol_Feturizer/New_Systems/rnas/4FAW

>  <Rbt.Executable>
rbdock ($Id: //depot/dev/client3/rdock/2013.1/src/exe/rbdock.cxx#4 $)

>  <Rbt.Library>
libRbt.so (2013.1, Build901 2013/11/27)

>  <Rbt.Parameter_File>
/export/apps/rDock/src/rDock_2013.1_src/data/scripts/dock_solv.prm

>  <Rbt.Receptor>
prm/pocket_docking_3.prm

>  <SCORE>
-6.76787

>  <SCORE.INTER>
2.94715

>  <SCORE.INTER.CONST>
1

>  <SCORE.INTER.POLAR>
0

>  <SCORE.INTER.ROT>
11

>  <SCORE.INTER.SOLV>
7.83764

>  <SCORE.INTER.VDW>
-11.5811

>  <SCORE.INTER.norm>
0.210511

>  <SCORE.INTRA>
-9.71502

>  <SCORE.INTRA.DIHEDRAL>
-18.1951

>  <SCORE.INTRA.DIHEDRAL.0>
19.1003

>  <SCORE.INTRA.POLAR>
0

>  <SCORE.INTRA.POLAR.0>
0

>  <SCORE.INTRA.REPUL>
0

>  <SCORE.INTRA.REPUL.0>
0

>  <SCORE.INTRA.SOLV>
-0.753429

>  <SCORE.INTRA.SOLV.lig_0>
-47.5333

>  <SCORE.INTRA.VDW>
-0.240752

>  <SCORE.INTRA.VDW.0>
-0.287413

>  <SCORE.INTRA.norm>
-0.69393

>  <SCORE.RESTR>
0

>  <SCORE.RESTR.CAVITY>
0

>  <SCORE.RESTR.norm>
0

>  <SCORE.SYSTEM>
0

>  <SCORE.SYSTEM.CONST>
0

>  <SCORE.SYSTEM.DIHEDRAL>
0

>  <SCORE.SYSTEM.SOLV>
0

>  <SCORE.SYSTEM.norm>
0

>  <SCORE.heavy>
14

>  <SCORE.norm>
-0.483419

>  <RMSD>
1.919

$$$$
ligand
 OpenBabel11021811493D
libRbt.so/2013.1/901 2013/11/27
 14 13  0  0  0  0  0  0  0  0999 V2000
   60.1512   -2.1758    2.6911 N   0  0  0  0  0  0  0  0  0  0  0  0
   60.2778   -0.7953    2.2786 C   0  0  0  0  0  0  0  0  0  0  0  0
   58.8715   -0.2105    2.0336 C   0  0  0  0  0  0  0  0  0  0  0  0
   58.1001   -0.8959    0.8952 C   0  0  0  0  0  0  0  0  0  0  0  0
   56.7273   -0.4168    0.6724 N   0  0  0  0  0  0  0  0  0  0  0  0
   55.6296   -0.6434    1.6109 C   0  0  0  0  0  0  0  0  0  0  0  0
   54.2830   -0.1600    1.0824 C   0  0  0  0  0  0  0  0  0  0  0  0
   54.1626    1.3659    1.0142 C   0  0  0  0  0  0  0  0  0  0  0  0
   52.8413    1.8104    0.3758 C   0  0  0  0  0  0  0  0  0  0  0  0
   52.8329    1.4288   -1.0349 N   0  0  0  0  0  0  0  0  0  0  0  0
   51.7212    1.6799   -1.9538 C   0  0  0  0  0  0  0  0  0  0  0  0
   52.1087    1.4814   -3.4258 C   0  0  0  0  0  0  0  0  0  0  0  0
   50.9116    1.7084   -4.3549 C   0  0  0  0  0  0  0  0  0  0  0  0
   49.9975    0.5747   -4.2527 N   0  0  0  0  0  0  0  0  0  0  0  0
  1  2  1  0  0  0  0
  2  3  1  0  0  0  0
  3  4  1  0  0  0  0
  4  5  1  0  0  0  0
  5  6  1  0  0  0  0
  6  7  1  0  0  0  0
  7  8  1  0  0  0  0
  8  9  1  0  0  0  0
  9 10  1  0  0  0  0
 10 11  1  0  0  0  0
 11 12  1  0  0  0  0
 12 13  1  0  0  0  0
 13 14  1  0  0  0  0
M  END
>  <CHROM.1>
-63.04752403,176.94859959,-68.87330126,-174.54968610,-70.55688971,175.47184316
-67.06857745,179.22459256,166.30909319,178.17669647,-73.73749547,54.90115759
0.33961940,-0.16901044,-0.48792541,0.41844911,-1.78412954

>  <Name>
ligand

>  <RI>
0

>  <Rbt.Current_Directory>
/home/itssahil/PROJECTS/Mol_Feturizer/New_Systems/rnas/4FAW

>  <Rbt.Executable>
rbdock ($Id: //depot/dev/client3/rdock/2013.1/src/exe/rbdock.cxx#4 $)

>  <Rbt.Library>
libRbt.so (2013.1, Build901 2013/11/27)

>  <Rbt.Parameter_File>
/export/apps/rDock/src/rDock_2013.1_src/data/scripts/dock_solv.prm

>  <Rbt.Receptor>
prm/pocket_docking_3.prm

>  <SCORE>
-6.56394

>  <SCORE.INTER>
2.49412

>  <SCORE.INTER.CONST>
1

>  <SCORE.INTER.POLAR>
0

>  <SCORE.INTER.ROT>
11

>  <SCORE.INTER.SOLV>
11.2355

>  <SCORE.INTER.VDW>
-13.0157

>  <SCORE.INTER.norm>
0.178151

>  <SCORE.INTRA>
-9.05806

>  <SCORE.INTRA.DIHEDRAL>
-17.4143

>  <SCORE.INTRA.DIHEDRAL.0>
19.1003

>  <SCORE.INTRA.POLAR>
0

>  <SCORE.INTRA.POLAR.0>
0

>  <SCORE.INTRA.REPUL>
0

>  <SCORE.INTRA.REPUL.0>
0

>  <SCORE.INTRA.SOLV>
0.646803

>  <SCORE.INTRA.SOLV.lig_0>
-47.5333

>  <SCORE.INTRA.VDW>
-0.674329

>  <SCORE.INTRA.VDW.0>
-0.287413

>  <SCORE.INTRA.norm>
-0.647005

>  <SCORE.RESTR>
0

>  <SCORE.RESTR.CAVITY>
0

>  <SCORE.RESTR.norm>
0

>  <SCORE.SYSTEM>
0

>  <SCORE.SYSTEM.CONST>
0

>  <SCORE.SYSTEM.DIHEDRAL>
0

>  <SCORE.SYSTEM.SOLV>
0

>  <SCORE.SYSTEM.norm>
0

>  <SCORE.heavy>
14

>  <SCORE.norm>
-0.468853

>  <RMSD>
1.920

$$$$
ligand
 OpenBabel11021811493D
libRbt.so/2013.1/901 2013/11/27
 14 13  0  0  0  0  0  0  0  0999 V2000
   50.3107    2.3242   -4.4504 N   0  0  0  0  0  0  0  0  0  0  0  0
   51.5271    2.4670   -3.6808 C   0  0  0  0  0  0  0  0  0  0  0  0
   51.2373    3.3271   -2.4335 C   0  0  0  0  0  0  0  0  0  0  0  0
   52.4705    3.5871   -1.5545 C   0  0  0  0  0  0  0  0  0  0  0  0
   53.5793    4.3043   -2.2025 N   0  0  0  0  0  0  0  0  0  0  0  0
   54.8949    4.4815   -1.5905 C   0  0  0  0  0  0  0  0  0  0  0  0
   55.7389    3.2113   -1.6111 C   0  0  0  0  0  0  0  0  0  0  0  0
   57.0973    3.3658   -0.9195 C   0  0  0  0  0  0  0  0  0  0  0  0
   57.8982    2.0583   -0.9267 C   0  0  0  0  0  0  0  0  0  0  0  0
   57.2264    1.0746   -0.0801 N   0  0  0  0  0  0  0  0  0  0  0  0
   57.5066   -0.3623   -0.0984 C   0  0  0  0  0  0  0  0  0  0  0  0
   58.5860   -0.7717    0.9133 C   0  0  0  0  0  0  0  0  0  0  0  0
   58.1158   -0.5479    2.3543 C   0  0  0  0  0  0  0  0  0  0  0  0
   59.1640   -0.9730    3.2773 N   0  0  0  0  0  0  0  0  0  0  0  0
  1  2  1  0  0  0  0
  2  3  1  0  0  0  0
  3  4  1  0  0  0  0
  4  5  1  0  0  0  0
  5  6  1  0  0  0  0
  6  7  1  0  0  0  0
  7  8  1  0  0  0  0
  8  9  1  0  0  0  0
  9 10  1  0  0  0  0
 10 11  1  0  0  0  0
 11 12  1  0  0  0  0
 12 13  1  0  0  0  0
 13 14  1  0  0  0  0
M  END
>  <CHROM.1>
-178.19183797,60.67696377,-171.36615388,74.91927335,-177.52498843,178.39255911
-67.26047782,164.41888597,91.40477468,65.52473978,178.99416542,55.38249152
1.96770470,-0.92882499,2.55743091,-0.43372133,-0.35061685

>  <Name>
ligand

>  <RI>
0

>  <Rbt.Current_Directory>
/home/itssahil/PROJECTS/Mol_Feturizer/New_Systems/rnas/4FAW

>  <Rbt.Executable>
rbdock ($Id: //depot/dev/client3/rdock/2013.1/src/exe/rbdock.cxx#4 $)

>  <Rbt.Library>
libRbt.so (2013.1, Build901 2013/11/27)

>  <Rbt.Parameter_File>
/export/apps/rDock/src/rDock_2013.1_src/data/scripts/dock_solv.prm

>  <Rbt.Receptor>
prm/pocket_docking_3.prm

>  <SCORE>
-6.26769

>  <SCORE.INTER>
3.60228

>  <SCORE.INTER.CONST>
1

>  <SCORE.INTER.POLAR>
0

>  <SCORE.INTER.ROT>
11

>  <SCORE.INTER.SOLV>
6.36392

>  <SCORE.INTER.VDW>
-10.6531

>  <SCORE.INTER.norm>
0.257306

>  <SCORE.INTRA>
-9.86997

>  <SCORE.INTRA.DIHEDRAL>
-17.6696

>  <SCORE.INTRA.DIHEDRAL.0>
19.1003

>  <SCORE.INTRA.POLAR>
0

>  <SCORE.INTRA.POLAR.0>
0

>  <SCORE.INTRA.REPUL>
0

>  <SCORE.INTRA.REPUL.0>
0

>  <SCORE.INTRA.SOLV>
-0.479639

>  <SCORE.INTRA.SOLV.lig_0>
-47.5333

>  <SCORE.INTRA.VDW>
-0.795368

>  <SCORE.INTRA.VDW.0>
-0.287413

>  <SCORE.INTRA.norm>
-0.704998

>  <SCORE.RESTR>
0

>  <SCORE.RESTR.CAVITY>
0

>  <SCORE.RESTR.norm>
0

>  <SCORE.SYSTEM>
0

>  <SCORE.SYSTEM.CONST>
0

>  <SCORE.SYSTEM.DIHEDRAL>
0

>  <SCORE.SYSTEM.SOLV>
0

>  <SCORE.SYSTEM.norm>
0

>  <SCORE.heavy>
14

>  <SCORE.norm>
-0.447692

>  <RMSD>
1.921

$$$$
ligand
 OpenBabel11021811493D
libRbt.so/2013.1/901 2013/11/27
 14 13  0  0  0  0  0  0  0  0999 V2000
   50.9308    1.7012   -3.9798 N   0  0  0  0  0  0  0  0  0  0  0  0
   52.0074    0.9738   -3.3442 C   0  0  0  0  0  0  0  0  0  0  0  0
   52.5484    1.8037   -2.1618 C   0  0  0  0  0  0  0  0  0  0  0  0
   51.5935    1.8744   -0.9601 C   0  0  0  0  0  0  0  0  0  0  0  0
   52.0935    2.6072    0.2132 N   0  0  0  0  0  0  0  0  0  0  0  0
   53.1059    2.0784    1.1255 C   0  0  0  0  0  0  0  0  0  0  0  0
   54.5144    2.1170    0.5415 C   0  0  0  0  0  0  0  0  0  0  0  0
   55.5395    1.3240    1.3586 C   0  0  0  0  0  0  0  0  0  0  0  0
   55.2475   -0.1812    1.3422 C   0  0  0  0  0  0  0  0  0  0  0  0
   56.4183   -0.9067    1.8304 N   0  0  0  0  0  0  0  0  0  0  0  0
   57.6084   -1.1940    1.0275 C   0  0  0  0  0  0  0  0  0  0  0  0
   58.6871   -1.9537    1.8121 C   0  0  0  0  0  0  0  0  0  0  0  0
   59.2298   -1.1143    2.9733 C   0  0  0  0  0  0  0  0  0  0  0  0
   60.2929   -1.8523    3.6490 N   0  0  0  0  0  0  0  0  0  0  0  0
  1  2  1  0  0  0  0
  2  3  1  0  0  0  0
  3  4  1  0  0  0  0
  4  5  1  0  0  0  0
  5  6  1  0  0  0  0
  6  7  1  0  0  0  0
  7  8  1  0  0  0  0
  8  9  1  0  0  0  0
  9 10  1  0  0  0  0
 10 11  1  0  0  0  0
 11 12  1  0  0  0  0
 12 13  1  0  0  0  0
 13 14  1  0  0  0  0
M  END
>  <CHROM.1>
71.42719612,177.44362416,-74.54902631,75.23886465,-168.64577229,65.90305213
165.54069492,-79.36706444,179.13817429,-63.94374796,-177.38878219,54.98697792
0.51988642,0.38765617,-2.85137814,-0.62511752,1.08563226

>  <Name>
ligand

>  <RI>
0

>  <Rbt.Current_Directory>
/home/itssahil/PROJECTS/Mol_Feturizer/New_Systems/rnas/4FAW

>  <Rbt.Executable>
rbdock ($Id: //depot/dev/client3/rdock/2013.1/src/exe/rbdock.cxx#4 $)

>  <Rbt.Library>
libRbt.so (2013.1, Build901 2013/11/27)

>  <Rbt.Parameter_File>
/export/apps/rDock/src/rDock_2013.1_src/data/scripts/dock_solv.prm

>  <Rbt.Receptor>
prm/pocket_docking_3.prm

>  <SCORE>
-5.29735

>  <SCORE.INTER>
3.23118

>  <SCORE.INTER.CONST>
1

>  <SCORE.INTER.POLAR>
0

>  <SCORE.INTER.ROT>
11

>  <SCORE.INTER.SOLV>
9.27326

>  <SCORE.INTER.VDW>
-11.8703

>  <SCORE.INTER.norm>
0.230799

>  <SCORE.INTRA>
-8.52853

>  <SCORE.INTRA.DIHEDRAL>
-16.5088

>  <SCORE.INTRA.DIHEDRAL.0>
19.1003

>  <SCORE.INTRA.POLAR>
0

>  <SCORE.INTRA.POLAR.0>
0

>  <SCORE.INTRA.REPUL>
0

>  <SCORE.INTRA.REPUL.0>
0

>  <SCORE.INTRA.SOLV>
-0.348327

>  <SCORE.INTRA.SOLV.lig_0>
-47.5333

>  <SCORE.INTRA.VDW>
-0.0999429

>  <SCORE.INTRA.VDW.0>
-0.287413

>  <SCORE.INTRA.norm>
-0.609181

>  <SCORE.RESTR>
0

>  <SCORE.RESTR.CAVITY>
0

>  <SCORE.RESTR.norm>
0

>  <SCORE.SYSTEM>
0

>  <SCORE.SYSTEM.CONST>
0

>  <SCORE.SYSTEM.DIHEDRAL>
0

>  <SCORE.SYSTEM.SOLV>
0

>  <SCORE.SYSTEM.norm>
0

>  <SCORE.heavy>
14

>  <SCORE.norm>
-0.378382

>  <RMSD>
1.938

$$$$
ligand
 OpenBabel11021811493D
libRbt.so/2013.1/901 2013/11/27
 14 13  0  0  0  0  0  0  0  0999 V2000
   51.3656    3.7417   -3.1593 N   0  0  0  0  0  0  0  0  0  0  0  0
   51.9158    2.4847   -2.7018 C   0  0  0  0  0  0  0  0  0  0  0  0
   53.1295    2.1155   -3.5793 C   0  0  0  0  0  0  0  0  0  0  0  0
   54.3158    3.0825   -3.4425 C   0  0  0  0  0  0  0  0  0  0  0  0
   54.9265    3.1621   -2.1067 N   0  0  0  0  0  0  0  0  0  0  0  0
   56.1044    3.9728   -1.8032 C   0  0  0  0  0  0  0  0  0  0  0  0
   56.8810    3.4674   -0.5918 C   0  0  0  0  0  0  0  0  0  0  0  0
   57.3612    2.0191   -0.7312 C   0  0  0  0  0  0  0  0  0  0  0  0
   57.9662    1.4859    0.5728 C   0  0  0  0  0  0  0  0  0  0  0  0
   58.2279    0.0547    0.4352 N   0  0  0  0  0  0  0  0  0  0  0  0
   58.6124   -0.8265    1.5394 C   0  0  0  0  0  0  0  0  0  0  0  0
   60.0247   -0.5385    2.0672 C   0  0  0  0  0  0  0  0  0  0  0  0
   60.4360   -1.5476    3.1444 C   0  0  0  0  0  0  0  0  0  0  0  0
   59.6051   -1.3566    4.3295 N   0  0  0  0  0  0  0  0  0  0  0  0
  1  2  1  0  0  0  0
  2  3  1  0  0  0  0
  3  4  1  0  0  0  0
  4  5  1  0  0  0  0
  5  6  1  0  0  0  0
  6  7  1  0  0  0  0
  7  8  1  0  0  0  0
  8  9  1  0  0  0  0
  9 10  1  0  0  0  0
 10 11  1  0  0  0  0
 11 12  1  0  0  0  0
 12 13  1  0  0  0  0
 13 14  1  0  0  0  0
M  END
>  <CHROM.1>
65.49976331,62.50785971,176.73538661,-155.62694052,57.95371439,-172.18385132
172.00124772,-170.29632523,-69.12935787,-175.51548950,-67.14560788,56.49105551
1.52271299,-0.43065219,2.40252917,-0.38070090,-0.56462164

>  <Name>
ligand

>  <RI>
0

>  <Rbt.Current_Directory>
/home/itssahil/PROJECTS/Mol_Feturizer/New_Systems/rnas/4FAW

>  <Rbt.Executable>
rbdock ($Id: //depot/dev/client3/rdock/2013.1/src/exe/rbdock.cxx#4 $)

>  <Rbt.Library>
libRbt.so (2013.1, Build901 2013/11/27)

>  <Rbt.Parameter_File>
/export/apps/rDock/src/rDock_2013.1_src/data/scripts/dock_solv.prm

>  <Rbt.Receptor>
prm/pocket_docking_3.prm

>  <SCORE>
-6.18675

>  <SCORE.INTER>
2.61459

>  <SCORE.INTER.CONST>
1

>  <SCORE.INTER.POLAR>
0

>  <SCORE.INTER.ROT>
11

>  <SCORE.INTER.SOLV>
7.67541

>  <SCORE.INTER.VDW>
-11.7487

>  <SCORE.INTER.norm>
0.186756

>  <SCORE.INTRA>
-8.80352

>  <SCORE.INTRA.DIHEDRAL>
-17.6116

>  <SCORE.INTRA.DIHEDRAL.0>
19.1003

>  <SCORE.INTRA.POLAR>
0

>  <SCORE.INTRA.POLAR.0>
0

>  <SCORE.INTRA.REPUL>
0

>  <SCORE.INTRA.REPUL.0>
0

>  <SCORE.INTRA.SOLV>
1.24232

>  <SCORE.INTRA.SOLV.lig_0>
-47.5333

>  <SCORE.INTRA.VDW>
-0.618872

>  <SCORE.INTRA.VDW.0>
-0.287413

>  <SCORE.INTRA.norm>
-0.628823

>  <SCORE.RESTR>
0.00218894

>  <SCORE.RESTR.CAVITY>
0.00218894

>  <SCORE.RESTR.norm>
0.000156353

>  <SCORE.SYSTEM>
0

>  <SCORE.SYSTEM.CONST>
0

>  <SCORE.SYSTEM.DIHEDRAL>
0

>  <SCORE.SYSTEM.SOLV>
0

>  <SCORE.SYSTEM.norm>
0

>  <SCORE.heavy>
14

>  <SCORE.norm>
-0.441911

>  <RMSD>
1.989

$$$$
ligand
 OpenBabel11021811493D
libRbt.so/2013.1/901 2013/11/27
 14 13  0  0  0  0  0  0  0  0999 V2000
   59.5086   -1.0559    2.6638 N   0  0  0  0  0  0  0  0  0  0  0  0
   58.0675   -0.9773    2.5667 C   0  0  0  0  0  0  0  0  0  0  0  0
   57.6859   -0.3683    1.2018 C   0  0  0  0  0  0  0  0  0  0  0  0
   56.1813   -0.1048    1.0346 C   0  0  0  0  0  0  0  0  0  0  0  0
   55.5866    0.8412    1.9911 N   0  0  0  0  0  0  0  0  0  0  0  0
   54.2609    1.4341    1.8238 C   0  0  0  0  0  0  0  0  0  0  0  0
   54.2227    2.5180    0.7514 C   0  0  0  0  0  0  0  0  0  0  0  0
   52.8132    3.0425    0.4589 C   0  0  0  0  0  0  0  0  0  0  0  0
   51.9192    1.9680   -0.1713 C   0  0  0  0  0  0  0  0  0  0  0  0
   52.4215    1.6411   -1.5041 N   0  0  0  0  0  0  0  0  0  0  0  0
   52.0681    2.3696   -2.7238 C   0  0  0  0  0  0  0  0  0  0  0  0
   52.9979    2.0461   -3.9015 C   0  0  0  0  0  0  0  0  0  0  0  0
   52.5633    2.7788   -5.1750 C   0  0  0  0  0  0  0  0  0  0  0  0
   51.2629    2.2733   -5.6048 N   0  0  0  0  0  0  0  0  0  0  0  0
  1  2  1  0  0  0  0
  2  3  1  0  0  0  0
  3  4  1  0  0  0  0
  4  5  1  0  0  0  0
  5  6  1  0  0  0  0
  6  7  1  0  0  0  0
  7  8  1  0  0  0  0
  8  9  1  0  0  0  0
  9 10  1  0  0  0  0
 10 11  1  0  0  0  0
 11 12  1  0  0  0  0
 12 13  1  0  0  0  0
 13 14  1  0  0  0  0
M  END
>  <CHROM.1>
-174.29168085,61.04475598,166.45654564,-74.38275008,173.78388245,-66.06015320
-66.91800263,-86.10731934,165.42596090,177.56448801,-65.66687176,54.39700155
1.31490302,-0.47053029,-0.72981681,0.52229911,-1.64741213

>  <Name>
ligand

>  <RI>
0

>  <Rbt.Current_Directory>
/home/itssahil/PROJECTS/Mol_Feturizer/New_Systems/rnas/4FAW

>  <Rbt.Executable>
rbdock ($Id: //depot/dev/client3/rdock/2013.1/src/exe/rbdock.cxx#4 $)

>  <Rbt.Library>
libRbt.so (2013.1, Build901 2013/11/27)

>  <Rbt.Parameter_File>
/export/apps/rDock/src/rDock_2013.1_src/data/scripts/dock_solv.prm

>  <Rbt.Receptor>
prm/pocket_docking_2.prm

>  <SCORE>
-2.22442

>  <SCORE.INTER>
6.51637

>  <SCORE.INTER.CONST>
1

>  <SCORE.INTER.POLAR>
0

>  <SCORE.INTER.ROT>
11

>  <SCORE.INTER.SOLV>
6.33881

>  <SCORE.INTER.VDW>
-8.70202

>  <SCORE.INTER.norm>
0.465455

>  <SCORE.INTRA>
-8.74562

>  <SCORE.INTRA.DIHEDRAL>
-17.4022

>  <SCORE.INTRA.DIHEDRAL.0>
19.1003

>  <SCORE.INTRA.POLAR>
0

>  <SCORE.INTRA.POLAR.0>
0

>  <SCORE.INTRA.REPUL>
0

>  <SCORE.INTRA.REPUL.0>
0

>  <SCORE.INTRA.SOLV>
0.309085

>  <SCORE.INTRA.SOLV.lig_0>
-47.5333

>  <SCORE.INTRA.VDW>
-0.199041

>  <SCORE.INTRA.VDW.0>
-0.287413

>  <SCORE.INTRA.norm>
-0.624687

>  <SCORE.RESTR>
0.00483024

>  <SCORE.RESTR.CAVITY>
0.00483024

>  <SCORE.RESTR.norm>
0.000345017

>  <SCORE.SYSTEM>
0

>  <SCORE.SYSTEM.CONST>
0

>  <SCORE.SYSTEM.DIHEDRAL>
0

>  <SCORE.SYSTEM.SOLV>
0

>  <SCORE.SYSTEM.norm>
0

>  <SCORE.heavy>
14

>  <SCORE.norm>
-0.158887

>  <RMSD>
1.997

$$$$
ligand
 OpenBabel11021811493D
libRbt.so/2013.1/901 2013/11/27
 14 13  0  0  0  0  0  0  0  0999 V2000
   59.5364   -1.4767    2.8411 N   0  0  0  0  0  0  0  0  0  0  0  0
   58.7970   -0.4204    2.1856 C   0  0  0  0  0  0  0  0  0  0  0  0
   59.6609    0.8572    2.1558 C   0  0  0  0  0  0  0  0  0  0  0  0
   58.9488    2.0783    1.5534 C   0  0  0  0  0  0  0  0  0  0  0  0
   58.4813    1.9276    0.1669 N   0  0  0  0  0  0  0  0  0  0  0  0
   57.8317    2.9976   -0.5881 C   0  0  0  0  0  0  0  0  0  0  0  0
   56.3923    3.2482   -0.1503 C   0  0  0  0  0  0  0  0  0  0  0  0
   55.7590    4.4822   -0.8011 C   0  0  0  0  0  0  0  0  0  0  0  0
   55.5723    4.3033   -2.3124 C   0  0  0  0  0  0  0  0  0  0  0  0
   54.6967    3.1598   -2.5599 N   0  0  0  0  0  0  0  0  0  0  0  0
   54.2865    2.7036   -3.8892 C   0  0  0  0  0  0  0  0  0  0  0  0
   53.1118    3.5103   -4.4596 C   0  0  0  0  0  0  0  0  0  0  0  0
   51.8453    3.3263   -3.6171 C   0  0  0  0  0  0  0  0  0  0  0  0
   51.4112    1.9344   -3.6928 N   0  0  0  0  0  0  0  0  0  0  0  0
  1  2  1  0  0  0  0
  2  3  1  0  0  0  0
  3  4  1  0  0  0  0
  4  5  1  0  0  0  0
  5  6  1  0  0  0  0
  6  7  1  0  0  0  0
  7  8  1  0  0  0  0
  8  9  1  0  0  0  0
  9 10  1  0  0  0  0
 10 11  1  0  0  0  0
 11 12  1  0  0  0  0
 12 13  1  0  0  0  0
 13 14  1  0  0  0  0
M  END
>  <CHROM.1>
-176.63851128,-59.17566852,-177.49541502,-74.56889485,172.43525463,66.59519324
60.18943048,179.26981304,-81.73999752,-64.30989448,-64.69511748,56.16656229
2.33121329,-0.94061074,0.53122223,0.61129074,2.79919075

>  <Name>
ligand

>  <RI>
0

>  <Rbt.Current_Directory>
/home/itssahil/PROJECTS/Mol_Feturizer/New_Systems/rnas/4FAW

>  <Rbt.Executable>
rbdock ($Id: //depot/dev/client3/rdock/2013.1/src/exe/rbdock.cxx#4 $)

>  <Rbt.Library>
libRbt.so (2013.1, Build901 2013/11/27)

>  <Rbt.Parameter_File>
/export/apps/rDock/src/rDock_2013.1_src/data/scripts/dock_solv.prm

>  <Rbt.Receptor>
prm/pocket_docking_3.prm

>  <SCORE>
-3.80322

>  <SCORE.INTER>
4.64925

>  <SCORE.INTER.CONST>
1

>  <SCORE.INTER.POLAR>
0

>  <SCORE.INTER.ROT>
11

>  <SCORE.INTER.SOLV>
7.63187

>  <SCORE.INTER.VDW>
-10.3778

>  <SCORE.INTER.norm>
0.332089

>  <SCORE.INTRA>
-8.45247

>  <SCORE.INTRA.DIHEDRAL>
-17.9873

>  <SCORE.INTRA.DIHEDRAL.0>
19.1003

>  <SCORE.INTRA.POLAR>
0

>  <SCORE.INTRA.POLAR.0>
0

>  <SCORE.INTRA.REPUL>
0

>  <SCORE.INTRA.REPUL.0>
0

>  <SCORE.INTRA.SOLV>
1.25628

>  <SCORE.INTRA.SOLV.lig_0>
-47.5333

>  <SCORE.INTRA.VDW>
-0.0869476

>  <SCORE.INTRA.VDW.0>
-0.287413

>  <SCORE.INTRA.norm>
-0.603748

>  <SCORE.RESTR>
0

>  <SCORE.RESTR.CAVITY>
0

>  <SCORE.RESTR.norm>
0

>  <SCORE.SYSTEM>
0

>  <SCORE.SYSTEM.CONST>
0

>  <SCORE.SYSTEM.DIHEDRAL>
0

>  <SCORE.SYSTEM.SOLV>
0

>  <SCORE.SYSTEM.norm>
0

>  <SCORE.heavy>
14

>  <SCORE.norm>
-0.271659

>  <RMSD>
2.000

$$$$
ligand
 OpenBabel11021811493D
libRbt.so/2013.1/901 2013/11/27
 14 13  0  0  0  0  0  0  0  0999 V2000
   49.0518    1.5026   -4.7752 N   0  0  0  0  0  0  0  0  0  0  0  0
   49.1202    2.8067   -4.1534 C   0  0  0  0  0  0  0  0  0  0  0  0
   50.5801    3.3039   -4.1823 C   0  0  0  0  0  0  0  0  0  0  0  0
   51.5483    2.4455   -3.3536 C   0  0  0  0  0  0  0  0  0  0  0  0
   51.3530    2.4854   -1.8963 N   0  0  0  0  0  0  0  0  0  0  0  0
   51.9764    1.5411   -0.9708 C   0  0  0  0  0  0  0  0  0  0  0  0
   53.0778    2.1725   -0.1255 C   0  0  0  0  0  0  0  0  0  0  0  0
   53.8834    1.1566    0.6908 C   0  0  0  0  0  0  0  0  0  0  0  0
   55.0858    1.8036    1.3884 C   0  0  0  0  0  0  0  0  0  0  0  0
   55.9902    0.7583    1.8629 N   0  0  0  0  0  0  0  0  0  0  0  0
   56.8593   -0.0404    0.9968 C   0  0  0  0  0  0  0  0  0  0  0  0
   57.6763   -1.0836    1.7716 C   0  0  0  0  0  0  0  0  0  0  0  0
   58.6670   -0.4174    2.7321 C   0  0  0  0  0  0  0  0  0  0  0  0
   59.4158   -1.4471    3.4465 N   0  0  0  0  0  0  0  0  0  0  0  0
  1  2  1  0  0  0  0
  2  3  1  0  0  0  0
  3  4  1  0  0  0  0
  4  5  1  0  0  0  0
  5  6  1  0  0  0  0
  6  7  1  0  0  0  0
  7  8  1  0  0  0  0
  8  9  1  0  0  0  0
  9 10  1  0  0  0  0
 10 11  1  0  0  0  0
 11 12  1  0  0  0  0
 12 13  1  0  0  0  0
 13 14  1  0  0  0  0
M  END
>  <CHROM.1>
-64.25093353,-67.68417750,166.81148622,108.86893515,-171.13891395,172.90896747
-165.92670571,73.49433725,-178.76708061,-64.76232422,179.84547328,53.87749965
1.21357493,-0.46918636,-2.84788019,-0.66472166,0.90580861

>  <Name>
ligand

>  <RI>
0

>  <Rbt.Current_Directory>
/home/itssahil/PROJECTS/Mol_Feturizer/New_Systems/rnas/4FAW

>  <Rbt.Executable>
rbdock ($Id: //depot/dev/client3/rdock/2013.1/src/exe/rbdock.cxx#4 $)

>  <Rbt.Library>
libRbt.so (2013.1, Build901 2013/11/27)

>  <Rbt.Parameter_File>
/export/apps/rDock/src/rDock_2013.1_src/data/scripts/dock_solv.prm

>  <Rbt.Receptor>
prm/pocket_docking_2.prm

>  <SCORE>
-2.43206

>  <SCORE.INTER>
6.10815

>  <SCORE.INTER.CONST>
1

>  <SCORE.INTER.POLAR>
0

>  <SCORE.INTER.ROT>
11

>  <SCORE.INTER.SOLV>
10.854

>  <SCORE.INTER.VDW>
-10.4792

>  <SCORE.INTER.norm>
0.436296

>  <SCORE.INTRA>
-8.55848

>  <SCORE.INTRA.DIHEDRAL>
-16.1268

>  <SCORE.INTRA.DIHEDRAL.0>
19.1003

>  <SCORE.INTRA.POLAR>
0

>  <SCORE.INTRA.POLAR.0>
0

>  <SCORE.INTRA.REPUL>
0

>  <SCORE.INTRA.REPUL.0>
0

>  <SCORE.INTRA.SOLV>
0.404002

>  <SCORE.INTRA.SOLV.lig_0>
-47.5333

>  <SCORE.INTRA.VDW>
-0.697082

>  <SCORE.INTRA.VDW.0>
-0.287413

>  <SCORE.INTRA.norm>
-0.61132

>  <SCORE.RESTR>
0.0182673

>  <SCORE.RESTR.CAVITY>
0.0182673

>  <SCORE.RESTR.norm>
0.0013048

>  <SCORE.SYSTEM>
0

>  <SCORE.SYSTEM.CONST>
0

>  <SCORE.SYSTEM.DIHEDRAL>
0

>  <SCORE.SYSTEM.SOLV>
0

>  <SCORE.SYSTEM.norm>
0

>  <SCORE.heavy>
14

>  <SCORE.norm>
-0.173719

>  <RMSD>
2.003

$$$$
ligand
 OpenBabel11021811493D
libRbt.so/2013.1/901 2013/11/27
 14 13  0  0  0  0  0  0  0  0999 V2000
   51.7059    2.1895   -4.3232 N   0  0  0  0  0  0  0  0  0  0  0  0
   52.4661    1.5271   -3.2861 C   0  0  0  0  0  0  0  0  0  0  0  0
   52.2073    2.2350   -1.9402 C   0  0  0  0  0  0  0  0  0  0  0  0
   52.7517    3.6704   -1.8751 C   0  0  0  0  0  0  0  0  0  0  0  0
   54.2110    3.8082   -1.9984 N   0  0  0  0  0  0  0  0  0  0  0  0
   55.1625    3.1812   -1.0828 C   0  0  0  0  0  0  0  0  0  0  0  0
   56.6150    3.5034   -1.4186 C   0  0  0  0  0  0  0  0  0  0  0  0
   57.6272    2.7581   -0.5425 C   0  0  0  0  0  0  0  0  0  0  0  0
   57.6284    1.2504   -0.8209 C   0  0  0  0  0  0  0  0  0  0  0  0
   58.1985    0.5468    0.3262 N   0  0  0  0  0  0  0  0  0  0  0  0
   58.2848   -0.9099    0.4446 C   0  0  0  0  0  0  0  0  0  0  0  0
   58.6645   -1.3711    1.8586 C   0  0  0  0  0  0  0  0  0  0  0  0
   60.0336   -0.8246    2.2765 C   0  0  0  0  0  0  0  0  0  0  0  0
   60.3502   -1.2897    3.6236 N   0  0  0  0  0  0  0  0  0  0  0  0
  1  2  1  0  0  0  0
  2  3  1  0  0  0  0
  3  4  1  0  0  0  0
  4  5  1  0  0  0  0
  5  6  1  0  0  0  0
  6  7  1  0  0  0  0
  7  8  1  0  0  0  0
  8  9  1  0  0  0  0
  9 10  1  0  0  0  0
 10 11  1  0  0  0  0
 11 12  1  0  0  0  0
 12 13  1  0  0  0  0
 13 14  1  0  0  0  0
M  END
>  <CHROM.1>
-66.50736507,-63.00138274,-59.16839706,-178.94948254,-175.05637553,68.06914101
-158.97960024,176.20839737,-168.44363260,-60.54829548,-179.96075805,56.13620615
1.44826007,-0.62560062,2.59732893,-0.50939763,-0.25291203

>  <Name>
ligand

>  <RI>
0

>  <Rbt.Current_Directory>
/home/itssahil/PROJECTS/Mol_Feturizer/New_Systems/rnas/4FAW

>  <Rbt.Executable>
rbdock ($Id: //depot/dev/client3/rdock/2013.1/src/exe/rbdock.cxx#4 $)

>  <Rbt.Library>
libRbt.so (2013.1, Build901 2013/11/27)

>  <Rbt.Parameter_File>
/export/apps/rDock/src/rDock_2013.1_src/data/scripts/dock_solv.prm

>  <Rbt.Receptor>
prm/pocket_docking_3.prm

>  <SCORE>
-6.58999

>  <SCORE.INTER>
1.8278

>  <SCORE.INTER.CONST>
1

>  <SCORE.INTER.POLAR>
0

>  <SCORE.INTER.ROT>
11

>  <SCORE.INTER.SOLV>
7.98426

>  <SCORE.INTER.VDW>
-12.3762

>  <SCORE.INTER.norm>
0.130557

>  <SCORE.INTRA>
-8.41779

>  <SCORE.INTRA.DIHEDRAL>
-16.9161

>  <SCORE.INTRA.DIHEDRAL.0>
19.1003

>  <SCORE.INTRA.POLAR>
0

>  <SCORE.INTRA.POLAR.0>
0

>  <SCORE.INTRA.REPUL>
0

>  <SCORE.INTRA.REPUL.0>
0

>  <SCORE.INTRA.SOLV>
0.740316

>  <SCORE.INTRA.SOLV.lig_0>
-47.5333

>  <SCORE.INTRA.VDW>
-0.329906

>  <SCORE.INTRA.VDW.0>
-0.287413

>  <SCORE.INTRA.norm>
-0.601271

>  <SCORE.RESTR>
0

>  <SCORE.RESTR.CAVITY>
0

>  <SCORE.RESTR.norm>
0

>  <SCORE.SYSTEM>
0

>  <SCORE.SYSTEM.CONST>
0

>  <SCORE.SYSTEM.DIHEDRAL>
0

>  <SCORE.SYSTEM.SOLV>
0

>  <SCORE.SYSTEM.norm>
0

>  <SCORE.heavy>
14

>  <SCORE.norm>
-0.470714

>  <RMSD>
2.038

$$$$
ligand
 OpenBabel11021811493D
libRbt.so/2013.1/901 2013/11/27
 14 13  0  0  0  0  0  0  0  0999 V2000
   58.1025   -0.6954    3.4765 N   0  0  0  0  0  0  0  0  0  0  0  0
   59.0092   -0.2360    2.4474 C   0  0  0  0  0  0  0  0  0  0  0  0
   58.7320   -1.0154    1.1454 C   0  0  0  0  0  0  0  0  0  0  0  0
   57.3537   -0.7304    0.5288 C   0  0  0  0  0  0  0  0  0  0  0  0
   57.0505    0.6844    0.2644 N   0  0  0  0  0  0  0  0  0  0  0  0
   57.8700    1.5407   -0.5913 C   0  0  0  0  0  0  0  0  0  0  0  0
   57.3274    2.9612   -0.7093 C   0  0  0  0  0  0  0  0  0  0  0  0
   55.9588    3.0405   -1.3935 C   0  0  0  0  0  0  0  0  0  0  0  0
   55.4174    4.4744   -1.4320 C   0  0  0  0  0  0  0  0  0  0  0  0
   54.0688    4.4677   -1.9950 N   0  0  0  0  0  0  0  0  0  0  0  0
   53.1284    5.5861   -1.9047 C   0  0  0  0  0  0  0  0  0  0  0  0
   51.6731    5.1615   -2.1457 C   0  0  0  0  0  0  0  0  0  0  0  0
   51.4824    4.5925   -3.5555 C   0  0  0  0  0  0  0  0  0  0  0  0
   50.0663    4.3173   -3.7793 N   0  0  0  0  0  0  0  0  0  0  0  0
  1  2  1  0  0  0  0
  2  3  1  0  0  0  0
  3  4  1  0  0  0  0
  4  5  1  0  0  0  0
  5  6  1  0  0  0  0
  6  7  1  0  0  0  0
  7  8  1  0  0  0  0
  8  9  1  0  0  0  0
  9 10  1  0  0  0  0
 10 11  1  0  0  0  0
 11 12  1  0  0  0  0
 12 13  1  0  0  0  0
 13 14  1  0  0  0  0
M  END
>  <CHROM.1>
66.02835482,54.80448210,57.75761358,179.42720919,-64.29003422,177.22674935
-175.40851541,165.21320593,-160.65144502,-62.04356474,-174.88705991,55.51746551
2.43932177,-0.68891594,0.78133753,0.26877705,2.68922255

>  <Name>
ligand

>  <RI>
0

>  <Rbt.Current_Directory>
/home/itssahil/PROJECTS/Mol_Feturizer/New_Systems/rnas/4FAW

>  <Rbt.Executable>
rbdock ($Id: //depot/dev/client3/rdock/2013.1/src/exe/rbdock.cxx#4 $)

>  <Rbt.Library>
libRbt.so (2013.1, Build901 2013/11/27)

>  <Rbt.Parameter_File>
/export/apps/rDock/src/rDock_2013.1_src/data/scripts/dock_solv.prm

>  <Rbt.Receptor>
prm/pocket_docking_3.prm

>  <SCORE>
-3.97697

>  <SCORE.INTER>
5.19851

>  <SCORE.INTER.CONST>
1

>  <SCORE.INTER.POLAR>
0

>  <SCORE.INTER.ROT>
11

>  <SCORE.INTER.SOLV>
5.92091

>  <SCORE.INTER.VDW>
-9.4413

>  <SCORE.INTER.norm>
0.371322

>  <SCORE.INTRA>
-9.20187

>  <SCORE.INTRA.DIHEDRAL>
-18.1096

>  <SCORE.INTRA.DIHEDRAL.0>
19.1003

>  <SCORE.INTRA.POLAR>
0

>  <SCORE.INTRA.POLAR.0>
0

>  <SCORE.INTRA.REPUL>
0

>  <SCORE.INTRA.REPUL.0>
0

>  <SCORE.INTRA.SOLV>
0.984837

>  <SCORE.INTRA.SOLV.lig_0>
-47.5333

>  <SCORE.INTRA.VDW>
-0.639498

>  <SCORE.INTRA.VDW.0>
-0.287413

>  <SCORE.INTRA.norm>
-0.657277

>  <SCORE.RESTR>
0.0263941

>  <SCORE.RESTR.CAVITY>
0.0263941

>  <SCORE.RESTR.norm>
0.00188529

>  <SCORE.SYSTEM>
0

>  <SCORE.SYSTEM.CONST>
0

>  <SCORE.SYSTEM.DIHEDRAL>
0

>  <SCORE.SYSTEM.SOLV>
0

>  <SCORE.SYSTEM.norm>
0

>  <SCORE.heavy>
14

>  <SCORE.norm>
-0.284069

>  <RMSD>
2.072

$$$$
ligand
 OpenBabel11021811493D
libRbt.so/2013.1/901 2013/11/27
 14 13  0  0  0  0  0  0  0  0999 V2000
   50.6193    0.3984   -4.0372 N   0  0  0  0  0  0  0  0  0  0  0  0
   51.1460    1.6281   -3.4870 C   0  0  0  0  0  0  0  0  0  0  0  0
   52.0735    1.2939   -2.3006 C   0  0  0  0  0  0  0  0  0  0  0  0
   52.6587    2.5292   -1.5987 C   0  0  0  0  0  0  0  0  0  0  0  0
   53.6182    2.2569   -0.5175 N   0  0  0  0  0  0  0  0  0  0  0  0
   53.2273    1.7927    0.8124 C   0  0  0  0  0  0  0  0  0  0  0  0
   54.4202    1.4789    1.7096 C   0  0  0  0  0  0  0  0  0  0  0  0
   55.2582    0.2919    1.2236 C   0  0  0  0  0  0  0  0  0  0  0  0
   56.4620    0.0263    2.1353 C   0  0  0  0  0  0  0  0  0  0  0  0
   57.3336   -0.9658    1.5094 N   0  0  0  0  0  0  0  0  0  0  0  0
   58.7352   -1.1829    1.8724 C   0  0  0  0  0  0  0  0  0  0  0  0
   59.0264   -2.6332    2.2826 C   0  0  0  0  0  0  0  0  0  0  0  0
   60.4780   -2.8037    2.7427 C   0  0  0  0  0  0  0  0  0  0  0  0
   60.6927   -2.0327    3.9637 N   0  0  0  0  0  0  0  0  0  0  0  0
  1  2  1  0  0  0  0
  2  3  1  0  0  0  0
  3  4  1  0  0  0  0
  4  5  1  0  0  0  0
  5  6  1  0  0  0  0
  6  7  1  0  0  0  0
  7  8  1  0  0  0  0
  8  9  1  0  0  0  0
  9 10  1  0  0  0  0
 10 11  1  0  0  0  0
 11 12  1  0  0  0  0
 12 13  1  0  0  0  0
 13 14  1  0  0  0  0
M  END
>  <CHROM.1>
-177.98518896,-176.14442258,-75.92458331,175.33012585,-65.80637969,178.85608677
-170.94749386,161.38308711,123.60101104,-176.28903423,65.17862835,55.41059766
0.14852622,0.45083898,-2.96469235,-0.66310680,0.88263858

>  <Name>
ligand

>  <RI>
0

>  <Rbt.Current_Directory>
/home/itssahil/PROJECTS/Mol_Feturizer/New_Systems/rnas/4FAW

>  <Rbt.Executable>
rbdock ($Id: //depot/dev/client3/rdock/2013.1/src/exe/rbdock.cxx#4 $)

>  <Rbt.Library>
libRbt.so (2013.1, Build901 2013/11/27)

>  <Rbt.Parameter_File>
/export/apps/rDock/src/rDock_2013.1_src/data/scripts/dock_solv.prm

>  <Rbt.Receptor>
prm/pocket_docking_3.prm

>  <SCORE>
-4.91112

>  <SCORE.INTER>
4.4159

>  <SCORE.INTER.CONST>
1

>  <SCORE.INTER.POLAR>
0

>  <SCORE.INTER.ROT>
11

>  <SCORE.INTER.SOLV>
8.59338

>  <SCORE.INTER.VDW>
-10.8539

>  <SCORE.INTER.norm>
0.315421

>  <SCORE.INTRA>
-9.32857

>  <SCORE.INTRA.DIHEDRAL>
-16.7727

>  <SCORE.INTRA.DIHEDRAL.0>
19.1003

>  <SCORE.INTRA.POLAR>
0

>  <SCORE.INTRA.POLAR.0>
0

>  <SCORE.INTRA.REPUL>
0

>  <SCORE.INTRA.REPUL.0>
0

>  <SCORE.INTRA.SOLV>
-0.329174

>  <SCORE.INTRA.SOLV.lig_0>
-47.5333

>  <SCORE.INTRA.VDW>
-0.777656

>  <SCORE.INTRA.VDW.0>
-0.287413

>  <SCORE.INTRA.norm>
-0.666326

>  <SCORE.RESTR>
0.00155872

>  <SCORE.RESTR.CAVITY>
0.00155872

>  <SCORE.RESTR.norm>
0.000111337

>  <SCORE.SYSTEM>
0

>  <SCORE.SYSTEM.CONST>
0

>  <SCORE.SYSTEM.DIHEDRAL>
0

>  <SCORE.SYSTEM.SOLV>
0

>  <SCORE.SYSTEM.norm>
0

>  <SCORE.heavy>
14

>  <SCORE.norm>
-0.350794

>  <RMSD>
2.087

$$$$
ligand
 OpenBabel11021811493D
libRbt.so/2013.1/901 2013/11/27
 14 13  0  0  0  0  0  0  0  0999 V2000
   50.8825    2.4339   -2.3535 N   0  0  0  0  0  0  0  0  0  0  0  0
   52.2598    2.1095   -2.6532 C   0  0  0  0  0  0  0  0  0  0  0  0
   53.1580    2.6092   -1.5029 C   0  0  0  0  0  0  0  0  0  0  0  0
   52.9575    1.8525   -0.1807 C   0  0  0  0  0  0  0  0  0  0  0  0
   53.8859    2.2031    0.9050 N   0  0  0  0  0  0  0  0  0  0  0  0
   54.3325    1.2554    1.9245 C   0  0  0  0  0  0  0  0  0  0  0  0
   55.2880    0.1988    1.3797 C   0  0  0  0  0  0  0  0  0  0  0  0
   56.5760    0.7821    0.7895 C   0  0  0  0  0  0  0  0  0  0  0  0
   57.5128   -0.3107    0.2612 C   0  0  0  0  0  0  0  0  0  0  0  0
   58.0840   -1.0449    1.3883 N   0  0  0  0  0  0  0  0  0  0  0  0
   59.4548   -0.8792    1.8750 C   0  0  0  0  0  0  0  0  0  0  0  0
   59.6201    0.3468    2.7838 C   0  0  0  0  0  0  0  0  0  0  0  0
   59.0116    0.1027    4.1687 C   0  0  0  0  0  0  0  0  0  0  0  0
   57.5656   -0.0534    4.0417 N   0  0  0  0  0  0  0  0  0  0  0  0
  1  2  1  0  0  0  0
  2  3  1  0  0  0  0
  3  4  1  0  0  0  0
  4  5  1  0  0  0  0
  5  6  1  0  0  0  0
  6  7  1  0  0  0  0
  7  8  1  0  0  0  0
  8  9  1  0  0  0  0
  9 10  1  0  0  0  0
 10 11  1  0  0  0  0
 11 12  1  0  0  0  0
 12 13  1  0  0  0  0
 13 14  1  0  0  0  0
M  END
>  <CHROM.1>
67.87960296,174.09523896,-148.37943796,70.98042853,60.48671253,179.63659731
-71.05560383,-104.09815571,80.76361511,74.37537351,-65.46640769,55.75663267
0.82897385,0.91620111,-2.63815175,-0.43774041,1.44431944

>  <Name>
ligand

>  <RI>
0

>  <Rbt.Current_Directory>
/home/itssahil/PROJECTS/Mol_Feturizer/New_Systems/rnas/4FAW

>  <Rbt.Executable>
rbdock ($Id: //depot/dev/client3/rdock/2013.1/src/exe/rbdock.cxx#4 $)

>  <Rbt.Library>
libRbt.so (2013.1, Build901 2013/11/27)

>  <Rbt.Parameter_File>
/export/apps/rDock/src/rDock_2013.1_src/data/scripts/dock_solv.prm

>  <Rbt.Receptor>
prm/pocket_docking_2.prm

>  <SCORE>
-0.847998

>  <SCORE.INTER>
5.57172

>  <SCORE.INTER.CONST>
1

>  <SCORE.INTER.POLAR>
0

>  <SCORE.INTER.ROT>
11

>  <SCORE.INTER.SOLV>
8.78767

>  <SCORE.INTER.VDW>
-10.1481

>  <SCORE.INTER.norm>
0.39798

>  <SCORE.INTRA>
-6.42389

>  <SCORE.INTRA.DIHEDRAL>
-15.3568

>  <SCORE.INTRA.DIHEDRAL.0>
19.1003

>  <SCORE.INTRA.POLAR>
0

>  <SCORE.INTRA.POLAR.0>
0

>  <SCORE.INTRA.REPUL>
0

>  <SCORE.INTRA.REPUL.0>
0

>  <SCORE.INTRA.SOLV>
4.94003

>  <SCORE.INTRA.SOLV.lig_0>
-47.5333

>  <SCORE.INTRA.VDW>
-1.21551

>  <SCORE.INTRA.VDW.0>
-0.287413

>  <SCORE.INTRA.norm>
-0.458849

>  <SCORE.RESTR>
0.00417379

>  <SCORE.RESTR.CAVITY>
0.00417379

>  <SCORE.RESTR.norm>
0.000298128

>  <SCORE.SYSTEM>
0

>  <SCORE.SYSTEM.CONST>
0

>  <SCORE.SYSTEM.DIHEDRAL>
0

>  <SCORE.SYSTEM.SOLV>
0

>  <SCORE.SYSTEM.norm>
0

>  <SCORE.heavy>
14

>  <SCORE.norm>
-0.0605713

>  <RMSD>
2.091

$$$$
ligand
 OpenBabel11021811493D
libRbt.so/2013.1/901 2013/11/27
 14 13  0  0  0  0  0  0  0  0999 V2000
   53.8067    3.5468   -4.0643 N   0  0  0  0  0  0  0  0  0  0  0  0
   52.6176    3.4503   -4.8822 C   0  0  0  0  0  0  0  0  0  0  0  0
   51.9030    2.1173   -4.5791 C   0  0  0  0  0  0  0  0  0  0  0  0
   51.3398    2.0213   -3.1527 C   0  0  0  0  0  0  0  0  0  0  0  0
   52.3317    1.8261   -2.0843 N   0  0  0  0  0  0  0  0  0  0  0  0
   51.9790    1.6359   -0.6784 C   0  0  0  0  0  0  0  0  0  0  0  0
   52.6709    2.6284    0.2502 C   0  0  0  0  0  0  0  0  0  0  0  0
   54.1914    2.4508    0.3150 C   0  0  0  0  0  0  0  0  0  0  0  0
   54.5890    1.1564    1.0344 C   0  0  0  0  0  0  0  0  0  0  0  0
   56.0421    1.0066    0.9933 N   0  0  0  0  0  0  0  0  0  0  0  0
   56.7532   -0.2446    1.2621 C   0  0  0  0  0  0  0  0  0  0  0  0
   57.7893   -0.1110    2.3868 C   0  0  0  0  0  0  0  0  0  0  0  0
   58.5714   -1.4137    2.5845 C   0  0  0  0  0  0  0  0  0  0  0  0
   59.5510   -1.2333    3.6519 N   0  0  0  0  0  0  0  0  0  0  0  0
  1  2  1  0  0  0  0
  2  3  1  0  0  0  0
  3  4  1  0  0  0  0
  4  5  1  0  0  0  0
  5  6  1  0  0  0  0
  6  7  1  0  0  0  0
  7  8  1  0  0  0  0
  8  9  1  0  0  0  0
  9 10  1  0  0  0  0
 10 11  1  0  0  0  0
 11 12  1  0  0  0  0
 12 13  1  0  0  0  0
 13 14  1  0  0  0  0
M  END
>  <CHROM.1>
65.90680688,-73.62669615,-176.36185729,-125.51864487,-66.18155719,-69.59255275
176.67650913,-163.51842567,-123.74106006,-176.61491134,179.41952189,54.58080370
1.34554688,-0.49740812,-2.31687296,-0.30692256,1.79214046

>  <Name>
ligand

>  <RI>
0

>  <Rbt.Current_Directory>
/home/itssahil/PROJECTS/Mol_Feturizer/New_Systems/rnas/4FAW

>  <Rbt.Executable>
rbdock ($Id: //depot/dev/client3/rdock/2013.1/src/exe/rbdock.cxx#4 $)

>  <Rbt.Library>
libRbt.so (2013.1, Build901 2013/11/27)

>  <Rbt.Parameter_File>
/export/apps/rDock/src/rDock_2013.1_src/data/scripts/dock_solv.prm

>  <Rbt.Receptor>
prm/pocket_docking_2.prm

>  <SCORE>
-0.207632

>  <SCORE.INTER>
7.15607

>  <SCORE.INTER.CONST>
1

>  <SCORE.INTER.POLAR>
0

>  <SCORE.INTER.ROT>
11

>  <SCORE.INTER.SOLV>
6.29769

>  <SCORE.INTER.VDW>
-8.26185

>  <SCORE.INTER.norm>
0.511148

>  <SCORE.INTRA>
-7.4075

>  <SCORE.INTRA.DIHEDRAL>
-15.1043

>  <SCORE.INTRA.DIHEDRAL.0>
19.1003

>  <SCORE.INTRA.POLAR>
0

>  <SCORE.INTRA.POLAR.0>
0

>  <SCORE.INTRA.REPUL>
0

>  <SCORE.INTRA.REPUL.0>
0

>  <SCORE.INTRA.SOLV>
1.93333

>  <SCORE.INTRA.SOLV.lig_0>
-47.5333

>  <SCORE.INTRA.VDW>
-0.822003

>  <SCORE.INTRA.VDW.0>
-0.287413

>  <SCORE.INTRA.norm>
-0.529107

>  <SCORE.RESTR>
0.0438021

>  <SCORE.RESTR.CAVITY>
0.0438021

>  <SCORE.RESTR.norm>
0.00312872

>  <SCORE.SYSTEM>
0

>  <SCORE.SYSTEM.CONST>
0

>  <SCORE.SYSTEM.DIHEDRAL>
0

>  <SCORE.SYSTEM.SOLV>
0

>  <SCORE.SYSTEM.norm>
0

>  <SCORE.heavy>
14

>  <SCORE.norm>
-0.0148309

>  <RMSD>
2.103

$$$$
ligand
 OpenBabel11021811493D
libRbt.so/2013.1/901 2013/11/27
 14 13  0  0  0  0  0  0  0  0999 V2000
   51.5219    2.7220   -4.8161 N   0  0  0  0  0  0  0  0  0  0  0  0
   52.9126    2.6602   -5.2089 C   0  0  0  0  0  0  0  0  0  0  0  0
   53.7811    2.4243   -3.9561 C   0  0  0  0  0  0  0  0  0  0  0  0
   53.7782    3.5981   -2.9645 C   0  0  0  0  0  0  0  0  0  0  0  0
   54.5810    3.4097   -1.7466 N   0  0  0  0  0  0  0  0  0  0  0  0
   56.0420    3.4548   -1.7262 C   0  0  0  0  0  0  0  0  0  0  0  0
   56.6410    2.8348   -0.4680 C   0  0  0  0  0  0  0  0  0  0  0  0
   58.1731    2.8331   -0.4543 C   0  0  0  0  0  0  0  0  0  0  0  0
   58.7358    2.2472    0.8461 C   0  0  0  0  0  0  0  0  0  0  0  0
   58.4029    0.8262    0.9206 N   0  0  0  0  0  0  0  0  0  0  0  0
   59.0951   -0.1427    1.7723 C   0  0  0  0  0  0  0  0  0  0  0  0
   58.5294   -1.5635    1.6397 C   0  0  0  0  0  0  0  0  0  0  0  0
   59.3669   -2.5751    2.4290 C   0  0  0  0  0  0  0  0  0  0  0  0
   59.3069   -2.2490    3.8508 N   0  0  0  0  0  0  0  0  0  0  0  0
  1  2  1  0  0  0  0
  2  3  1  0  0  0  0
  3  4  1  0  0  0  0
  4  5  1  0  0  0  0
  5  6  1  0  0  0  0
  6  7  1  0  0  0  0
  7  8  1  0  0  0  0
  8  9  1  0  0  0  0
  9 10  1  0  0  0  0
 10 11  1  0  0  0  0
 11 12  1  0  0  0  0
 12 13  1  0  0  0  0
 13 14  1  0  0  0  0
M  END
>  <CHROM.1>
-66.61308089,179.29229585,73.72338396,-162.96595557,178.07628479,178.00638783
66.38100994,160.26952020,-179.87227001,174.04296230,63.13843789,56.49078478
1.46297247,-0.70598705,2.50740272,-0.69873734,-0.26714350

>  <Name>
ligand

>  <RI>
0

>  <Rbt.Current_Directory>
/home/itssahil/PROJECTS/Mol_Feturizer/New_Systems/rnas/4FAW

>  <Rbt.Executable>
rbdock ($Id: //depot/dev/client3/rdock/2013.1/src/exe/rbdock.cxx#4 $)

>  <Rbt.Library>
libRbt.so (2013.1, Build901 2013/11/27)

>  <Rbt.Parameter_File>
/export/apps/rDock/src/rDock_2013.1_src/data/scripts/dock_solv.prm

>  <Rbt.Receptor>
prm/pocket_docking_3.prm

>  <SCORE>
-6.01879

>  <SCORE.INTER>
3.32541

>  <SCORE.INTER.CONST>
1

>  <SCORE.INTER.POLAR>
0

>  <SCORE.INTER.ROT>
11

>  <SCORE.INTER.SOLV>
8.84663

>  <SCORE.INTER.VDW>
-11.6653

>  <SCORE.INTER.norm>
0.237529

>  <SCORE.INTRA>
-9.3442

>  <SCORE.INTRA.DIHEDRAL>
-17.9167

>  <SCORE.INTRA.DIHEDRAL.0>
19.1003

>  <SCORE.INTRA.POLAR>
0

>  <SCORE.INTRA.POLAR.0>
0

>  <SCORE.INTRA.REPUL>
0

>  <SCORE.INTRA.REPUL.0>
0

>  <SCORE.INTRA.SOLV>
0.346453

>  <SCORE.INTRA.SOLV.lig_0>
-47.5333

>  <SCORE.INTRA.VDW>
-0.559072

>  <SCORE.INTRA.VDW.0>
-0.287413

>  <SCORE.INTRA.norm>
-0.667443

>  <SCORE.RESTR>
0

>  <SCORE.RESTR.CAVITY>
0

>  <SCORE.RESTR.norm>
0

>  <SCORE.SYSTEM>
0

>  <SCORE.SYSTEM.CONST>
0

>  <SCORE.SYSTEM.DIHEDRAL>
0

>  <SCORE.SYSTEM.SOLV>
0

>  <SCORE.SYSTEM.norm>
0

>  <SCORE.heavy>
14

>  <SCORE.norm>
-0.429914

>  <RMSD>
2.141

$$$$
ligand
 OpenBabel11021811493D
libRbt.so/2013.1/901 2013/11/27
 14 13  0  0  0  0  0  0  0  0999 V2000
   58.4756   -1.5165    2.8483 N   0  0  0  0  0  0  0  0  0  0  0  0
   59.2277   -1.0026    1.7247 C   0  0  0  0  0  0  0  0  0  0  0  0
   58.3010   -0.9148    0.4946 C   0  0  0  0  0  0  0  0  0  0  0  0
   57.1193    0.0513    0.6710 C   0  0  0  0  0  0  0  0  0  0  0  0
   57.4664    1.4182    1.0890 N   0  0  0  0  0  0  0  0  0  0  0  0
   58.2385    2.3448    0.2629 C   0  0  0  0  0  0  0  0  0  0  0  0
   57.5524    2.6815   -1.0570 C   0  0  0  0  0  0  0  0  0  0  0  0
   56.1191    3.1965   -0.8897 C   0  0  0  0  0  0  0  0  0  0  0  0
   55.4751    3.5517   -2.2350 C   0  0  0  0  0  0  0  0  0  0  0  0
   54.0440    3.7765   -2.0422 N   0  0  0  0  0  0  0  0  0  0  0  0
   53.0179    2.7408   -2.1758 C   0  0  0  0  0  0  0  0  0  0  0  0
   53.0856    2.0053   -3.5215 C   0  0  0  0  0  0  0  0  0  0  0  0
   51.9919    0.9379   -3.6312 C   0  0  0  0  0  0  0  0  0  0  0  0
   50.6886    1.5883   -3.7308 N   0  0  0  0  0  0  0  0  0  0  0  0
  1  2  1  0  0  0  0
  2  3  1  0  0  0  0
  3  4  1  0  0  0  0
  4  5  1  0  0  0  0
  5  6  1  0  0  0  0
  6  7  1  0  0  0  0
  7  8  1  0  0  0  0
  8  9  1  0  0  0  0
  9 10  1  0  0  0  0
 10 11  1  0  0  0  0
 11 12  1  0  0  0  0
 12 13  1  0  0  0  0
 13 14  1  0  0  0  0
M  END
>  <CHROM.1>
62.50055336,53.23964294,65.29787781,61.71302363,53.67075391,178.78237327
168.77486593,-91.71351488,-53.51653424,-179.53625761,69.03815300,55.77189414
1.48999123,-0.87108442,0.50679433,0.53674699,2.80849809

>  <Name>
ligand

>  <RI>
0

>  <Rbt.Current_Directory>
/home/itssahil/PROJECTS/Mol_Feturizer/New_Systems/rnas/4FAW

>  <Rbt.Executable>
rbdock ($Id: //depot/dev/client3/rdock/2013.1/src/exe/rbdock.cxx#4 $)

>  <Rbt.Library>
libRbt.so (2013.1, Build901 2013/11/27)

>  <Rbt.Parameter_File>
/export/apps/rDock/src/rDock_2013.1_src/data/scripts/dock_solv.prm

>  <Rbt.Receptor>
prm/pocket_docking_4.prm

>  <SCORE>
-5.61774

>  <SCORE.INTER>
2.05138

>  <SCORE.INTER.CONST>
1

>  <SCORE.INTER.POLAR>
0

>  <SCORE.INTER.ROT>
11

>  <SCORE.INTER.SOLV>
9.12107

>  <SCORE.INTER.VDW>
-12.6061

>  <SCORE.INTER.norm>
0.146527

>  <SCORE.INTRA>
-7.66912

>  <SCORE.INTRA.DIHEDRAL>
-17.2686

>  <SCORE.INTRA.DIHEDRAL.0>
19.1003

>  <SCORE.INTRA.POLAR>
0

>  <SCORE.INTRA.POLAR.0>
0

>  <SCORE.INTRA.REPUL>
0

>  <SCORE.INTRA.REPUL.0>
0

>  <SCORE.INTRA.SOLV>
1.53685

>  <SCORE.INTRA.SOLV.lig_0>
-47.5333

>  <SCORE.INTRA.VDW>
0.196741

>  <SCORE.INTRA.VDW.0>
-0.287413

>  <SCORE.INTRA.norm>
-0.547794

>  <SCORE.RESTR>
0

>  <SCORE.RESTR.CAVITY>
0

>  <SCORE.RESTR.norm>
0

>  <SCORE.SYSTEM>
0

>  <SCORE.SYSTEM.CONST>
0

>  <SCORE.SYSTEM.DIHEDRAL>
0

>  <SCORE.SYSTEM.SOLV>
0

>  <SCORE.SYSTEM.norm>
0

>  <SCORE.heavy>
14

>  <SCORE.norm>
-0.401267

>  <RMSD>
2.154

$$$$
ligand
 OpenBabel11021811493D
libRbt.so/2013.1/901 2013/11/27
 14 13  0  0  0  0  0  0  0  0999 V2000
   50.8544    0.9470   -4.1466 N   0  0  0  0  0  0  0  0  0  0  0  0
   51.3646    1.7969   -3.0932 C   0  0  0  0  0  0  0  0  0  0  0  0
   51.9735    0.9152   -1.9835 C   0  0  0  0  0  0  0  0  0  0  0  0
   52.5623    1.7100   -0.8076 C   0  0  0  0  0  0  0  0  0  0  0  0
   53.2543    0.9162    0.2193 N   0  0  0  0  0  0  0  0  0  0  0  0
   54.3447    1.4347    1.0434 C   0  0  0  0  0  0  0  0  0  0  0  0
   54.8286    0.4365    2.0902 C   0  0  0  0  0  0  0  0  0  0  0  0
   55.3573   -0.8715    1.4927 C   0  0  0  0  0  0  0  0  0  0  0  0
   56.6596   -0.6615    0.7111 C   0  0  0  0  0  0  0  0  0  0  0  0
   57.7130   -0.2371    1.6307 N   0  0  0  0  0  0  0  0  0  0  0  0
   58.8370   -1.0780    2.0468 C   0  0  0  0  0  0  0  0  0  0  0  0
   59.8533   -0.3259    2.9172 C   0  0  0  0  0  0  0  0  0  0  0  0
   60.9696   -1.2558    3.4038 C   0  0  0  0  0  0  0  0  0  0  0  0
   60.4050   -2.2659    4.2938 N   0  0  0  0  0  0  0  0  0  0  0  0
  1  2  1  0  0  0  0
  2  3  1  0  0  0  0
  3  4  1  0  0  0  0
  4  5  1  0  0  0  0
  5  6  1  0  0  0  0
  6  7  1  0  0  0  0
  7  8  1  0  0  0  0
  8  9  1  0  0  0  0
  9 10  1  0  0  0  0
 10 11  1  0  0  0  0
 11 12  1  0  0  0  0
 12 13  1  0  0  0  0
 13 14  1  0  0  0  0
M  END
>  <CHROM.1>
179.52253617,-175.03728451,151.62307387,176.37079020,59.96687873,67.84910864
65.06437795,108.05669608,174.78167994,176.55895097,-65.04236717,55.64126382
0.10444922,0.70137000,-2.63671303,-0.41553146,1.37345822

>  <Name>
ligand

>  <RI>
0

>  <Rbt.Current_Directory>
/home/itssahil/PROJECTS/Mol_Feturizer/New_Systems/rnas/4FAW

>  <Rbt.Executable>
rbdock ($Id: //depot/dev/client3/rdock/2013.1/src/exe/rbdock.cxx#4 $)

>  <Rbt.Library>
libRbt.so (2013.1, Build901 2013/11/27)

>  <Rbt.Parameter_File>
/export/apps/rDock/src/rDock_2013.1_src/data/scripts/dock_solv.prm

>  <Rbt.Receptor>
prm/pocket_docking_3.prm

>  <SCORE>
-6.83945

>  <SCORE.INTER>
1.69879

>  <SCORE.INTER.CONST>
1

>  <SCORE.INTER.POLAR>
0

>  <SCORE.INTER.ROT>
11

>  <SCORE.INTER.SOLV>
8.65549

>  <SCORE.INTER.VDW>
-12.686

>  <SCORE.INTER.norm>
0.121342

>  <SCORE.INTRA>
-8.53823

>  <SCORE.INTRA.DIHEDRAL>
-16.8466

>  <SCORE.INTRA.DIHEDRAL.0>
19.1003

>  <SCORE.INTRA.POLAR>
0

>  <SCORE.INTRA.POLAR.0>
0

>  <SCORE.INTRA.REPUL>
0

>  <SCORE.INTRA.REPUL.0>
0

>  <SCORE.INTRA.SOLV>
0.547376

>  <SCORE.INTRA.SOLV.lig_0>
-47.5333

>  <SCORE.INTRA.VDW>
-0.388599

>  <SCORE.INTRA.VDW.0>
-0.287413

>  <SCORE.INTRA.norm>
-0.609874

>  <SCORE.RESTR>
0

>  <SCORE.RESTR.CAVITY>
0

>  <SCORE.RESTR.norm>
0

>  <SCORE.SYSTEM>
0

>  <SCORE.SYSTEM.CONST>
0

>  <SCORE.SYSTEM.DIHEDRAL>
0

>  <SCORE.SYSTEM.SOLV>
0

>  <SCORE.SYSTEM.norm>
0

>  <SCORE.heavy>
14

>  <SCORE.norm>
-0.488532

>  <RMSD>
2.162

$$$$
ligand
 OpenBabel11021811493D
libRbt.so/2013.1/901 2013/11/27
 14 13  0  0  0  0  0  0  0  0999 V2000
   50.9143    1.6396   -4.3582 N   0  0  0  0  0  0  0  0  0  0  0  0
   51.9458    1.1106   -3.4932 C   0  0  0  0  0  0  0  0  0  0  0  0
   53.1844    2.0273   -3.5653 C   0  0  0  0  0  0  0  0  0  0  0  0
   52.9499    3.4385   -3.0047 C   0  0  0  0  0  0  0  0  0  0  0  0
   54.1101    4.3421   -3.0383 N   0  0  0  0  0  0  0  0  0  0  0  0
   55.0534    4.4883   -1.9311 C   0  0  0  0  0  0  0  0  0  0  0  0
   55.9746    3.2836   -1.7686 C   0  0  0  0  0  0  0  0  0  0  0  0
   57.0105    3.4495   -0.6520 C   0  0  0  0  0  0  0  0  0  0  0  0
   57.9364    2.2324   -0.5413 C   0  0  0  0  0  0  0  0  0  0  0  0
   57.1631    1.0747   -0.0971 N   0  0  0  0  0  0  0  0  0  0  0  0
   57.6706   -0.2983   -0.0682 C   0  0  0  0  0  0  0  0  0  0  0  0
   57.9702   -0.7927    1.3538 C   0  0  0  0  0  0  0  0  0  0  0  0
   59.1798   -0.0690    1.9544 C   0  0  0  0  0  0  0  0  0  0  0  0
   59.4826   -0.6372    3.2647 N   0  0  0  0  0  0  0  0  0  0  0  0
  1  2  1  0  0  0  0
  2  3  1  0  0  0  0
  3  4  1  0  0  0  0
  4  5  1  0  0  0  0
  5  6  1  0  0  0  0
  6  7  1  0  0  0  0
  7  8  1  0  0  0  0
  8  9  1  0  0  0  0
  9 10  1  0  0  0  0
 10 11  1  0  0  0  0
 11 12  1  0  0  0  0
 12 13  1  0  0  0  0
 13 14  1  0  0  0  0
M  END
>  <CHROM.1>
65.39029828,179.27877252,-92.21020615,72.72606110,177.39832658,-178.71267586
-66.68276168,170.65232614,106.35132675,-69.30288485,-176.02965958,55.75339351
1.80646186,-1.13897739,2.63469361,-0.59763184,-0.29482294

>  <Name>
ligand

>  <RI>
0

>  <Rbt.Current_Directory>
/home/itssahil/PROJECTS/Mol_Feturizer/New_Systems/rnas/4FAW

>  <Rbt.Executable>
rbdock ($Id: //depot/dev/client3/rdock/2013.1/src/exe/rbdock.cxx#4 $)

>  <Rbt.Library>
libRbt.so (2013.1, Build901 2013/11/27)

>  <Rbt.Parameter_File>
/export/apps/rDock/src/rDock_2013.1_src/data/scripts/dock_solv.prm

>  <Rbt.Receptor>
prm/pocket_docking_3.prm

>  <SCORE>
-7.16894

>  <SCORE.INTER>
1.94367

>  <SCORE.INTER.CONST>
1

>  <SCORE.INTER.POLAR>
0

>  <SCORE.INTER.ROT>
11

>  <SCORE.INTER.SOLV>
6.41778

>  <SCORE.INTER.VDW>
-11.7768

>  <SCORE.INTER.norm>
0.138833

>  <SCORE.INTRA>
-9.11261

>  <SCORE.INTRA.DIHEDRAL>
-16.4877

>  <SCORE.INTRA.DIHEDRAL.0>
19.1003

>  <SCORE.INTRA.POLAR>
0

>  <SCORE.INTRA.POLAR.0>
0

>  <SCORE.INTRA.REPUL>
0

>  <SCORE.INTRA.REPUL.0>
0

>  <SCORE.INTRA.SOLV>
-0.13507

>  <SCORE.INTRA.SOLV.lig_0>
-47.5333

>  <SCORE.INTRA.VDW>
-0.801217

>  <SCORE.INTRA.VDW.0>
-0.287413

>  <SCORE.INTRA.norm>
-0.650901

>  <SCORE.RESTR>
0

>  <SCORE.RESTR.CAVITY>
0

>  <SCORE.RESTR.norm>
0

>  <SCORE.SYSTEM>
0

>  <SCORE.SYSTEM.CONST>
0

>  <SCORE.SYSTEM.DIHEDRAL>
0

>  <SCORE.SYSTEM.SOLV>
0

>  <SCORE.SYSTEM.norm>
0

>  <SCORE.heavy>
14

>  <SCORE.norm>
-0.512067

>  <RMSD>
2.174

$$$$
ligand
 OpenBabel11021811493D
libRbt.so/2013.1/901 2013/11/27
 14 13  0  0  0  0  0  0  0  0999 V2000
   60.5157   -2.5393    3.8708 N   0  0  0  0  0  0  0  0  0  0  0  0
   59.5627   -2.8423    2.8258 C   0  0  0  0  0  0  0  0  0  0  0  0
   59.2652   -1.5575    2.0257 C   0  0  0  0  0  0  0  0  0  0  0  0
   58.2535   -1.7523    0.8857 C   0  0  0  0  0  0  0  0  0  0  0  0
   57.9877   -0.5673    0.0558 N   0  0  0  0  0  0  0  0  0  0  0  0
   57.5459    0.7166    0.5974 C   0  0  0  0  0  0  0  0  0  0  0  0
   57.3372    1.7781   -0.4777 C   0  0  0  0  0  0  0  0  0  0  0  0
   56.8072    3.1081    0.0678 C   0  0  0  0  0  0  0  0  0  0  0  0
   56.4358    4.0833   -1.0557 C   0  0  0  0  0  0  0  0  0  0  0  0
   55.3577    3.5093   -1.8581 N   0  0  0  0  0  0  0  0  0  0  0  0
   54.7240    4.1804   -2.9945 C   0  0  0  0  0  0  0  0  0  0  0  0
   53.7297    3.2791   -3.7397 C   0  0  0  0  0  0  0  0  0  0  0  0
   52.5183    2.9396   -2.8651 C   0  0  0  0  0  0  0  0  0  0  0  0
   51.5847    2.1173   -3.6289 N   0  0  0  0  0  0  0  0  0  0  0  0
  1  2  1  0  0  0  0
  2  3  1  0  0  0  0
  3  4  1  0  0  0  0
  4  5  1  0  0  0  0
  5  6  1  0  0  0  0
  6  7  1  0  0  0  0
  7  8  1  0  0  0  0
  8  9  1  0  0  0  0
  9 10  1  0  0  0  0
 10 11  1  0  0  0  0
 11 12  1  0  0  0  0
 12 13  1  0  0  0  0
 13 14  1  0  0  0  0
M  END
>  <CHROM.1>
-179.66740004,-177.22495796,-55.19518683,-179.76593931,177.12161527,-172.45463329
62.38487982,178.19428707,173.74545473,66.35326322,178.27450612,56.54475015
1.17545662,-0.44936710,-0.73867599,-0.59775401,-0.23741542

>  <Name>
ligand

>  <RI>
0

>  <Rbt.Current_Directory>
/home/itssahil/PROJECTS/Mol_Feturizer/New_Systems/rnas/4FAW

>  <Rbt.Executable>
rbdock ($Id: //depot/dev/client3/rdock/2013.1/src/exe/rbdock.cxx#4 $)

>  <Rbt.Library>
libRbt.so (2013.1, Build901 2013/11/27)

>  <Rbt.Parameter_File>
/export/apps/rDock/src/rDock_2013.1_src/data/scripts/dock_solv.prm

>  <Rbt.Receptor>
prm/pocket_docking_3.prm

>  <SCORE>
-7.1516

>  <SCORE.INTER>
3.07553

>  <SCORE.INTER.CONST>
1

>  <SCORE.INTER.POLAR>
0

>  <SCORE.INTER.ROT>
11

>  <SCORE.INTER.SOLV>
9.69512

>  <SCORE.INTER.VDW>
-12.1147

>  <SCORE.INTER.norm>
0.219681

>  <SCORE.INTRA>
-10.2402

>  <SCORE.INTRA.DIHEDRAL>
-18.5663

>  <SCORE.INTRA.DIHEDRAL.0>
19.1003

>  <SCORE.INTRA.POLAR>
0

>  <SCORE.INTRA.POLAR.0>
0

>  <SCORE.INTRA.REPUL>
0

>  <SCORE.INTRA.REPUL.0>
0

>  <SCORE.INTRA.SOLV>
-0.763583

>  <SCORE.INTRA.SOLV.lig_0>
-47.5333

>  <SCORE.INTRA.VDW>
-0.57523

>  <SCORE.INTRA.VDW.0>
-0.287413

>  <SCORE.INTRA.norm>
-0.73144

>  <SCORE.RESTR>
0.0130285

>  <SCORE.RESTR.CAVITY>
0.0130285

>  <SCORE.RESTR.norm>
0.000930604

>  <SCORE.SYSTEM>
0

>  <SCORE.SYSTEM.CONST>
0

>  <SCORE.SYSTEM.DIHEDRAL>
0

>  <SCORE.SYSTEM.SOLV>
0

>  <SCORE.SYSTEM.norm>
0

>  <SCORE.heavy>
14

>  <SCORE.norm>
-0.510829

>  <RMSD>
2.175

$$$$
ligand
 OpenBabel11021811493D
libRbt.so/2013.1/901 2013/11/27
 14 13  0  0  0  0  0  0  0  0999 V2000
   58.8135   -0.7527    2.0204 N   0  0  0  0  0  0  0  0  0  0  0  0
   57.8609   -1.2175    1.0361 C   0  0  0  0  0  0  0  0  0  0  0  0
   57.7887   -0.1968   -0.1181 C   0  0  0  0  0  0  0  0  0  0  0  0
   57.2374    1.1763    0.2965 C   0  0  0  0  0  0  0  0  0  0  0  0
   55.8324    1.1976    0.7313 N   0  0  0  0  0  0  0  0  0  0  0  0
   55.1082    2.4225    1.0660 C   0  0  0  0  0  0  0  0  0  0  0  0
   53.6300    2.1820    1.3550 C   0  0  0  0  0  0  0  0  0  0  0  0
   52.8211    1.7763    0.1187 C   0  0  0  0  0  0  0  0  0  0  0  0
   52.7051    2.9218   -0.8939 C   0  0  0  0  0  0  0  0  0  0  0  0
   51.7755    2.5383   -1.9542 N   0  0  0  0  0  0  0  0  0  0  0  0
   51.2241    3.4630   -2.9463 C   0  0  0  0  0  0  0  0  0  0  0  0
   49.9293    2.9455   -3.5881 C   0  0  0  0  0  0  0  0  0  0  0  0
   50.1721    1.6525   -4.3735 C   0  0  0  0  0  0  0  0  0  0  0  0
   51.0320    1.9357   -5.5187 N   0  0  0  0  0  0  0  0  0  0  0  0
  1  2  1  0  0  0  0
  2  3  1  0  0  0  0
  3  4  1  0  0  0  0
  4  5  1  0  0  0  0
  5  6  1  0  0  0  0
  6  7  1  0  0  0  0
  7  8  1  0  0  0  0
  8  9  1  0  0  0  0
  9 10  1  0  0  0  0
 10 11  1  0  0  0  0
 11 12  1  0  0  0  0
 12 13  1  0  0  0  0
 13 14  1  0  0  0  0
M  END
>  <CHROM.1>
-64.81037778,-65.29810715,-175.26948276,174.37364581,-69.03016495,-67.87773090
-172.21197606,167.78488950,-158.86630510,-63.18296750,-66.12887089,53.99486870
1.57475202,-0.91195609,-0.39269254,0.55718140,-1.99658357

>  <Name>
ligand

>  <RI>
0

>  <Rbt.Current_Directory>
/home/itssahil/PROJECTS/Mol_Feturizer/New_Systems/rnas/4FAW

>  <Rbt.Executable>
rbdock ($Id: //depot/dev/client3/rdock/2013.1/src/exe/rbdock.cxx#4 $)

>  <Rbt.Library>
libRbt.so (2013.1, Build901 2013/11/27)

>  <Rbt.Parameter_File>
/export/apps/rDock/src/rDock_2013.1_src/data/scripts/dock_solv.prm

>  <Rbt.Receptor>
prm/pocket_docking_2.prm

>  <SCORE>
-2.60328

>  <SCORE.INTER>
5.38975

>  <SCORE.INTER.CONST>
1

>  <SCORE.INTER.POLAR>
0

>  <SCORE.INTER.ROT>
11

>  <SCORE.INTER.SOLV>
7.23241

>  <SCORE.INTER.VDW>
-9.75097

>  <SCORE.INTER.norm>
0.384982

>  <SCORE.INTRA>
-7.99303

>  <SCORE.INTRA.DIHEDRAL>
-17.4487

>  <SCORE.INTRA.DIHEDRAL.0>
19.1003

>  <SCORE.INTRA.POLAR>
0

>  <SCORE.INTRA.POLAR.0>
0

>  <SCORE.INTRA.REPUL>
0

>  <SCORE.INTRA.REPUL.0>
0

>  <SCORE.INTRA.SOLV>
2.39523

>  <SCORE.INTRA.SOLV.lig_0>
-47.5333

>  <SCORE.INTRA.VDW>
-0.466276

>  <SCORE.INTRA.VDW.0>
-0.287413

>  <SCORE.INTRA.norm>
-0.57093

>  <SCORE.RESTR>
0

>  <SCORE.RESTR.CAVITY>
0

>  <SCORE.RESTR.norm>
0

>  <SCORE.SYSTEM>
0

>  <SCORE.SYSTEM.CONST>
0

>  <SCORE.SYSTEM.DIHEDRAL>
0

>  <SCORE.SYSTEM.SOLV>
0

>  <SCORE.SYSTEM.norm>
0

>  <SCORE.heavy>
14

>  <SCORE.norm>
-0.185949

>  <RMSD>
2.185

$$$$
ligand
 OpenBabel11021811493D
libRbt.so/2013.1/901 2013/11/27
 14 13  0  0  0  0  0  0  0  0999 V2000
   51.8020    1.7044   -4.2809 N   0  0  0  0  0  0  0  0  0  0  0  0
   51.5436    0.9841   -3.0535 C   0  0  0  0  0  0  0  0  0  0  0  0
   52.1769    1.7515   -1.8748 C   0  0  0  0  0  0  0  0  0  0  0  0
   51.8688    1.1445   -0.4972 C   0  0  0  0  0  0  0  0  0  0  0  0
   52.4833    1.8235    0.6538 N   0  0  0  0  0  0  0  0  0  0  0  0
   53.9237    1.8519    0.9012 C   0  0  0  0  0  0  0  0  0  0  0  0
   54.5042    0.4751    1.2073 C   0  0  0  0  0  0  0  0  0  0  0  0
   56.0359    0.4467    1.2327 C   0  0  0  0  0  0  0  0  0  0  0  0
   56.5824   -0.9803    1.3592 C   0  0  0  0  0  0  0  0  0  0  0  0
   58.0433   -0.9404    1.3632 N   0  0  0  0  0  0  0  0  0  0  0  0
   58.8540   -0.4087    2.4602 C   0  0  0  0  0  0  0  0  0  0  0  0
   60.3288   -0.8240    2.3666 C   0  0  0  0  0  0  0  0  0  0  0  0
   60.5017   -2.3291    2.5957 C   0  0  0  0  0  0  0  0  0  0  0  0
   60.2087   -2.6435    3.9910 N   0  0  0  0  0  0  0  0  0  0  0  0
  1  2  1  0  0  0  0
  2  3  1  0  0  0  0
  3  4  1  0  0  0  0
  4  5  1  0  0  0  0
  5  6  1  0  0  0  0
  6  7  1  0  0  0  0
  7  8  1  0  0  0  0
  8  9  1  0  0  0  0
  9 10  1  0  0  0  0
 10 11  1  0  0  0  0
 11 12  1  0  0  0  0
 12 13  1  0  0  0  0
 13 14  1  0  0  0  0
M  END
>  <CHROM.1>
175.14600335,178.40484346,-66.88658879,-65.56458122,170.14686729,-172.49596610
179.39554511,70.00813147,164.76769728,-67.81893761,-69.05295319,55.63264886
0.14689686,0.60183095,-2.69347849,-0.46180808,1.40926225

>  <Name>
ligand

>  <RI>
0

>  <Rbt.Current_Directory>
/home/itssahil/PROJECTS/Mol_Feturizer/New_Systems/rnas/4FAW

>  <Rbt.Executable>
rbdock ($Id: //depot/dev/client3/rdock/2013.1/src/exe/rbdock.cxx#4 $)

>  <Rbt.Library>
libRbt.so (2013.1, Build901 2013/11/27)

>  <Rbt.Parameter_File>
/export/apps/rDock/src/rDock_2013.1_src/data/scripts/dock_solv.prm

>  <Rbt.Receptor>
prm/pocket_docking_3.prm

>  <SCORE>
-6.62452

>  <SCORE.INTER>
2.35886

>  <SCORE.INTER.CONST>
1

>  <SCORE.INTER.POLAR>
0

>  <SCORE.INTER.ROT>
11

>  <SCORE.INTER.SOLV>
9.46194

>  <SCORE.INTER.VDW>
-12.5147

>  <SCORE.INTER.norm>
0.16849

>  <SCORE.INTRA>
-8.98338

>  <SCORE.INTRA.DIHEDRAL>
-17.5506

>  <SCORE.INTRA.DIHEDRAL.0>
19.1003

>  <SCORE.INTRA.POLAR>
0

>  <SCORE.INTRA.POLAR.0>
0

>  <SCORE.INTRA.REPUL>
0

>  <SCORE.INTRA.REPUL.0>
0

>  <SCORE.INTRA.SOLV>
0.0677121

>  <SCORE.INTRA.SOLV.lig_0>
-47.5333

>  <SCORE.INTRA.VDW>
-0.241957

>  <SCORE.INTRA.VDW.0>
-0.287413

>  <SCORE.INTRA.norm>
-0.64167

>  <SCORE.RESTR>
0

>  <SCORE.RESTR.CAVITY>
0

>  <SCORE.RESTR.norm>
0

>  <SCORE.SYSTEM>
0

>  <SCORE.SYSTEM.CONST>
0

>  <SCORE.SYSTEM.DIHEDRAL>
0

>  <SCORE.SYSTEM.SOLV>
0

>  <SCORE.SYSTEM.norm>
0

>  <SCORE.heavy>
14

>  <SCORE.norm>
-0.47318

>  <RMSD>
2.219

$$$$
ligand
 OpenBabel11021811493D
libRbt.so/2013.1/901 2013/11/27
 14 13  0  0  0  0  0  0  0  0999 V2000
   51.3763    1.1978   -3.6359 N   0  0  0  0  0  0  0  0  0  0  0  0
   51.3256    2.3694   -2.7892 C   0  0  0  0  0  0  0  0  0  0  0  0
   52.6830    2.5357   -2.0755 C   0  0  0  0  0  0  0  0  0  0  0  0
   52.7320    3.7177   -1.0949 C   0  0  0  0  0  0  0  0  0  0  0  0
   54.0370    3.9753   -0.4669 N   0  0  0  0  0  0  0  0  0  0  0  0
   55.1586    4.6044   -1.1620 C   0  0  0  0  0  0  0  0  0  0  0  0
   56.0799    3.5971   -1.8425 C   0  0  0  0  0  0  0  0  0  0  0  0
   56.8114    2.6746   -0.8620 C   0  0  0  0  0  0  0  0  0  0  0  0
   57.6589    1.6219   -1.5862 C   0  0  0  0  0  0  0  0  0  0  0  0
   58.1937    0.6756   -0.6094 N   0  0  0  0  0  0  0  0  0  0  0  0
   57.3945   -0.3308    0.0919 C   0  0  0  0  0  0  0  0  0  0  0  0
   58.2518   -1.4272    0.7391 C   0  0  0  0  0  0  0  0  0  0  0  0
   59.2235   -0.8424    1.7695 C   0  0  0  0  0  0  0  0  0  0  0  0
   58.4664   -0.2700    2.8787 N   0  0  0  0  0  0  0  0  0  0  0  0
  1  2  1  0  0  0  0
  2  3  1  0  0  0  0
  3  4  1  0  0  0  0
  4  5  1  0  0  0  0
  5  6  1  0  0  0  0
  6  7  1  0  0  0  0
  7  8  1  0  0  0  0
  8  9  1  0  0  0  0
  9 10  1  0  0  0  0
 10 11  1  0  0  0  0
 11 12  1  0  0  0  0
 12 13  1  0  0  0  0
 13 14  1  0  0  0  0
M  END
>  <CHROM.1>
-177.43262634,-175.60969925,75.42043158,-90.99434548,-65.18845769,176.45971099
-172.98297015,71.77754926,163.64351478,60.06845137,65.04942397,55.67095532
1.72149802,-0.76049420,2.65308235,-0.46999004,-0.09079558

>  <Name>
ligand

>  <RI>
0

>  <Rbt.Current_Directory>
/home/itssahil/PROJECTS/Mol_Feturizer/New_Systems/rnas/4FAW

>  <Rbt.Executable>
rbdock ($Id: //depot/dev/client3/rdock/2013.1/src/exe/rbdock.cxx#4 $)

>  <Rbt.Library>
libRbt.so (2013.1, Build901 2013/11/27)

>  <Rbt.Parameter_File>
/export/apps/rDock/src/rDock_2013.1_src/data/scripts/dock_solv.prm

>  <Rbt.Receptor>
prm/pocket_docking_3.prm

>  <SCORE>
-6.42462

>  <SCORE.INTER>
2.5324

>  <SCORE.INTER.CONST>
1

>  <SCORE.INTER.POLAR>
0

>  <SCORE.INTER.ROT>
11

>  <SCORE.INTER.SOLV>
8.86107

>  <SCORE.INTER.VDW>
-12.1988

>  <SCORE.INTER.norm>
0.180885

>  <SCORE.INTRA>
-8.95702

>  <SCORE.INTRA.DIHEDRAL>
-17.4352

>  <SCORE.INTRA.DIHEDRAL.0>
19.1003

>  <SCORE.INTRA.POLAR>
0

>  <SCORE.INTRA.POLAR.0>
0

>  <SCORE.INTRA.REPUL>
0

>  <SCORE.INTRA.REPUL.0>
0

>  <SCORE.INTRA.SOLV>
0.672551

>  <SCORE.INTRA.SOLV.lig_0>
-47.5333

>  <SCORE.INTRA.VDW>
-0.575679

>  <SCORE.INTRA.VDW.0>
-0.287413

>  <SCORE.INTRA.norm>
-0.639787

>  <SCORE.RESTR>
0

>  <SCORE.RESTR.CAVITY>
0

>  <SCORE.RESTR.norm>
0

>  <SCORE.SYSTEM>
0

>  <SCORE.SYSTEM.CONST>
0

>  <SCORE.SYSTEM.DIHEDRAL>
0

>  <SCORE.SYSTEM.SOLV>
0

>  <SCORE.SYSTEM.norm>
0

>  <SCORE.heavy>
14

>  <SCORE.norm>
-0.458902

>  <RMSD>
2.246

$$$$
ligand
 OpenBabel11021811493D
libRbt.so/2013.1/901 2013/11/27
 14 13  0  0  0  0  0  0  0  0999 V2000
   59.8928   -1.8435    4.3296 N   0  0  0  0  0  0  0  0  0  0  0  0
   59.4144   -1.9114    2.9663 C   0  0  0  0  0  0  0  0  0  0  0  0
   60.0877   -0.7972    2.1388 C   0  0  0  0  0  0  0  0  0  0  0  0
   59.6988    0.6245    2.5730 C   0  0  0  0  0  0  0  0  0  0  0  0
   58.2783    0.9747    2.4207 N   0  0  0  0  0  0  0  0  0  0  0  0
   57.6258    1.1605    1.1259 C   0  0  0  0  0  0  0  0  0  0  0  0
   58.2055    2.3231    0.3267 C   0  0  0  0  0  0  0  0  0  0  0  0
   57.5509    2.5111   -1.0458 C   0  0  0  0  0  0  0  0  0  0  0  0
   56.1381    3.0962   -0.9337 C   0  0  0  0  0  0  0  0  0  0  0  0
   55.5639    3.2343   -2.2704 N   0  0  0  0  0  0  0  0  0  0  0  0
   54.2124    3.7262   -2.5442 C   0  0  0  0  0  0  0  0  0  0  0  0
   53.1303    2.6679   -2.2890 C   0  0  0  0  0  0  0  0  0  0  0  0
   51.7344    3.2026   -2.6256 C   0  0  0  0  0  0  0  0  0  0  0  0
   51.4044    4.2992   -1.7202 N   0  0  0  0  0  0  0  0  0  0  0  0
  1  2  1  0  0  0  0
  2  3  1  0  0  0  0
  3  4  1  0  0  0  0
  4  5  1  0  0  0  0
  5  6  1  0  0  0  0
  6  7  1  0  0  0  0
  7  8  1  0  0  0  0
  8  9  1  0  0  0  0
  9 10  1  0  0  0  0
 10 11  1  0  0  0  0
 11 12  1  0  0  0  0
 12 13  1  0  0  0  0
 13 14  1  0  0  0  0
M  END
>  <CHROM.1>
-65.43433820,-63.19655162,-69.67570680,-63.02050329,178.77207478,73.03353780
-179.27054393,178.23111150,-77.87173292,-178.27935359,-64.61008319,56.63853771
1.66201251,0.17493723,0.79200789,0.09847332,2.35364586

>  <Name>
ligand

>  <RI>
0

>  <Rbt.Current_Directory>
/home/itssahil/PROJECTS/Mol_Feturizer/New_Systems/rnas/4FAW

>  <Rbt.Executable>
rbdock ($Id: //depot/dev/client3/rdock/2013.1/src/exe/rbdock.cxx#4 $)

>  <Rbt.Library>
libRbt.so (2013.1, Build901 2013/11/27)

>  <Rbt.Parameter_File>
/export/apps/rDock/src/rDock_2013.1_src/data/scripts/dock_solv.prm

>  <Rbt.Receptor>
prm/pocket_docking_3.prm

>  <SCORE>
-4.31552

>  <SCORE.INTER>
4.08113

>  <SCORE.INTER.CONST>
1

>  <SCORE.INTER.POLAR>
0

>  <SCORE.INTER.ROT>
11

>  <SCORE.INTER.SOLV>
6.02172

>  <SCORE.INTER.VDW>
-10.2198

>  <SCORE.INTER.norm>
0.291509

>  <SCORE.INTRA>
-8.39816

>  <SCORE.INTRA.DIHEDRAL>
-17.837

>  <SCORE.INTRA.DIHEDRAL.0>
19.1003

>  <SCORE.INTRA.POLAR>
0

>  <SCORE.INTRA.POLAR.0>
0

>  <SCORE.INTRA.REPUL>
0

>  <SCORE.INTRA.REPUL.0>
0

>  <SCORE.INTRA.SOLV>
1.04784

>  <SCORE.INTRA.SOLV.lig_0>
-47.5333

>  <SCORE.INTRA.VDW>
-0.00355637

>  <SCORE.INTRA.VDW.0>
-0.287413

>  <SCORE.INTRA.norm>
-0.599868

>  <SCORE.RESTR>
0.00150942

>  <SCORE.RESTR.CAVITY>
0.00150942

>  <SCORE.RESTR.norm>
0.000107816

>  <SCORE.SYSTEM>
0

>  <SCORE.SYSTEM.CONST>
0

>  <SCORE.SYSTEM.DIHEDRAL>
0

>  <SCORE.SYSTEM.SOLV>
0

>  <SCORE.SYSTEM.norm>
0

>  <SCORE.heavy>
14

>  <SCORE.norm>
-0.308251

>  <RMSD>
2.261

$$$$
ligand
 OpenBabel11021811493D
libRbt.so/2013.1/901 2013/11/27
 14 13  0  0  0  0  0  0  0  0999 V2000
   59.1629   -0.9690    2.3938 N   0  0  0  0  0  0  0  0  0  0  0  0
   58.6203   -1.0731    1.0571 C   0  0  0  0  0  0  0  0  0  0  0  0
   57.0877   -0.9100    1.1202 C   0  0  0  0  0  0  0  0  0  0  0  0
   56.6267    0.4613    1.6380 C   0  0  0  0  0  0  0  0  0  0  0  0
   55.1715    0.6642    1.7058 N   0  0  0  0  0  0  0  0  0  0  0  0
   54.5484    1.9376    2.0625 C   0  0  0  0  0  0  0  0  0  0  0  0
   53.2276    2.1793    1.3392 C   0  0  0  0  0  0  0  0  0  0  0  0
   53.3548    2.1774   -0.1877 C   0  0  0  0  0  0  0  0  0  0  0  0
   51.9902    2.2851   -0.8784 C   0  0  0  0  0  0  0  0  0  0  0  0
   52.1829    2.3318   -2.3263 N   0  0  0  0  0  0  0  0  0  0  0  0
   51.1079    2.1880   -3.3097 C   0  0  0  0  0  0  0  0  0  0  0  0
   50.0627    3.3085   -3.2177 C   0  0  0  0  0  0  0  0  0  0  0  0
   48.9302    3.1015   -4.2288 C   0  0  0  0  0  0  0  0  0  0  0  0
   49.4750    3.1471   -5.5824 N   0  0  0  0  0  0  0  0  0  0  0  0
  1  2  1  0  0  0  0
  2  3  1  0  0  0  0
  3  4  1  0  0  0  0
  4  5  1  0  0  0  0
  5  6  1  0  0  0  0
  6  7  1  0  0  0  0
  7  8  1  0  0  0  0
  8  9  1  0  0  0  0
  9 10  1  0  0  0  0
 10 11  1  0  0  0  0
 11 12  1  0  0  0  0
 12 13  1  0  0  0  0
 13 14  1  0  0  0  0
M  END
>  <CHROM.1>
62.69409198,179.58762092,-174.58915281,146.63893351,-58.82855841,174.38589758
177.76323159,168.26375437,62.98254803,-178.13126413,-62.32161458,53.68193300
1.48792599,-0.60088502,-0.48058477,0.55486182,-1.83409245

>  <Name>
ligand

>  <RI>
0

>  <Rbt.Current_Directory>
/home/itssahil/PROJECTS/Mol_Feturizer/New_Systems/rnas/4FAW

>  <Rbt.Executable>
rbdock ($Id: //depot/dev/client3/rdock/2013.1/src/exe/rbdock.cxx#4 $)

>  <Rbt.Library>
libRbt.so (2013.1, Build901 2013/11/27)

>  <Rbt.Parameter_File>
/export/apps/rDock/src/rDock_2013.1_src/data/scripts/dock_solv.prm

>  <Rbt.Receptor>
prm/pocket_docking_2.prm

>  <SCORE>
-4.28187

>  <SCORE.INTER>
4.86546

>  <SCORE.INTER.CONST>
1

>  <SCORE.INTER.POLAR>
0

>  <SCORE.INTER.ROT>
11

>  <SCORE.INTER.SOLV>
9.53269

>  <SCORE.INTER.VDW>
-10.8673

>  <SCORE.INTER.norm>
0.347533

>  <SCORE.INTRA>
-9.16586

>  <SCORE.INTRA.DIHEDRAL>
-18.0373

>  <SCORE.INTRA.DIHEDRAL.0>
19.1003

>  <SCORE.INTRA.POLAR>
0

>  <SCORE.INTRA.POLAR.0>
0

>  <SCORE.INTRA.REPUL>
0

>  <SCORE.INTRA.REPUL.0>
0

>  <SCORE.INTRA.SOLV>
0.462438

>  <SCORE.INTRA.SOLV.lig_0>
-47.5333

>  <SCORE.INTRA.VDW>
-0.378414

>  <SCORE.INTRA.VDW.0>
-0.287413

>  <SCORE.INTRA.norm>
-0.654704

>  <SCORE.RESTR>
0.0185286

>  <SCORE.RESTR.CAVITY>
0.0185286

>  <SCORE.RESTR.norm>
0.00132347

>  <SCORE.SYSTEM>
0

>  <SCORE.SYSTEM.CONST>
0

>  <SCORE.SYSTEM.DIHEDRAL>
0

>  <SCORE.SYSTEM.SOLV>
0

>  <SCORE.SYSTEM.norm>
0

>  <SCORE.heavy>
14

>  <SCORE.norm>
-0.305848

>  <RMSD>
2.309

$$$$
ligand
 OpenBabel11021811493D
libRbt.so/2013.1/901 2013/11/27
 14 13  0  0  0  0  0  0  0  0999 V2000
   59.5278   -0.8108    2.4374 N   0  0  0  0  0  0  0  0  0  0  0  0
   58.5974   -1.8505    2.0560 C   0  0  0  0  0  0  0  0  0  0  0  0
   57.9266   -1.4633    0.7219 C   0  0  0  0  0  0  0  0  0  0  0  0
   57.1654   -0.1294    0.7701 C   0  0  0  0  0  0  0  0  0  0  0  0
   56.1202   -0.0252    1.7998 N   0  0  0  0  0  0  0  0  0  0  0  0
   55.1302    1.0496    1.8411 C   0  0  0  0  0  0  0  0  0  0  0  0
   54.0004    0.8595    0.8343 C   0  0  0  0  0  0  0  0  0  0  0  0
   53.0307    2.0440    0.7693 C   0  0  0  0  0  0  0  0  0  0  0  0
   51.9146    1.8177   -0.2574 C   0  0  0  0  0  0  0  0  0  0  0  0
   52.5026    1.6733   -1.5875 N   0  0  0  0  0  0  0  0  0  0  0  0
   52.5947    2.7516   -2.5735 C   0  0  0  0  0  0  0  0  0  0  0  0
   53.7417    2.5483   -3.5732 C   0  0  0  0  0  0  0  0  0  0  0  0
   53.8085    3.6939   -4.5885 C   0  0  0  0  0  0  0  0  0  0  0  0
   54.1100    4.9412   -3.8923 N   0  0  0  0  0  0  0  0  0  0  0  0
  1  2  1  0  0  0  0
  2  3  1  0  0  0  0
  3  4  1  0  0  0  0
  4  5  1  0  0  0  0
  5  6  1  0  0  0  0
  6  7  1  0  0  0  0
  7  8  1  0  0  0  0
  8  9  1  0  0  0  0
  9 10  1  0  0  0  0
 10 11  1  0  0  0  0
 11 12  1  0  0  0  0
 12 13  1  0  0  0  0
 13 14  1  0  0  0  0
M  END
>  <CHROM.1>
-58.85148380,-56.37771189,-168.07262469,77.88036424,-174.31770851,179.72947274
-61.55503386,-98.06552490,154.66368295,-179.98889582,63.59605843,55.01198123
1.22132716,-0.37449196,-0.89042615,0.28389867,-1.08509976

>  <Name>
ligand

>  <RI>
0

>  <Rbt.Current_Directory>
/home/itssahil/PROJECTS/Mol_Feturizer/New_Systems/rnas/4FAW

>  <Rbt.Executable>
rbdock ($Id: //depot/dev/client3/rdock/2013.1/src/exe/rbdock.cxx#4 $)

>  <Rbt.Library>
libRbt.so (2013.1, Build901 2013/11/27)

>  <Rbt.Parameter_File>
/export/apps/rDock/src/rDock_2013.1_src/data/scripts/dock_solv.prm

>  <Rbt.Receptor>
prm/pocket_docking_4.prm

>  <SCORE>
-4.66646

>  <SCORE.INTER>
3.61686

>  <SCORE.INTER.CONST>
1

>  <SCORE.INTER.POLAR>
0

>  <SCORE.INTER.ROT>
11

>  <SCORE.INTER.SOLV>
8.80945

>  <SCORE.INTER.VDW>
-11.4586

>  <SCORE.INTER.norm>
0.258347

>  <SCORE.INTRA>
-8.28332

>  <SCORE.INTRA.DIHEDRAL>
-17.208

>  <SCORE.INTRA.DIHEDRAL.0>
19.1003

>  <SCORE.INTRA.POLAR>
0

>  <SCORE.INTRA.POLAR.0>
0

>  <SCORE.INTRA.REPUL>
0

>  <SCORE.INTRA.REPUL.0>
0

>  <SCORE.INTRA.SOLV>
1.63372

>  <SCORE.INTRA.SOLV.lig_0>
-47.5333

>  <SCORE.INTRA.VDW>
-0.496202

>  <SCORE.INTRA.VDW.0>
-0.287413

>  <SCORE.INTRA.norm>
-0.591666

>  <SCORE.RESTR>
0

>  <SCORE.RESTR.CAVITY>
0

>  <SCORE.RESTR.norm>
0

>  <SCORE.SYSTEM>
0

>  <SCORE.SYSTEM.CONST>
0

>  <SCORE.SYSTEM.DIHEDRAL>
0

>  <SCORE.SYSTEM.SOLV>
0

>  <SCORE.SYSTEM.norm>
0

>  <SCORE.heavy>
14

>  <SCORE.norm>
-0.333318

>  <RMSD>
2.309

$$$$
ligand
 OpenBabel11021811493D
libRbt.so/2013.1/901 2013/11/27
 14 13  0  0  0  0  0  0  0  0999 V2000
   50.3715    1.7271   -5.0638 N   0  0  0  0  0  0  0  0  0  0  0  0
   49.7304    3.0145   -4.9095 C   0  0  0  0  0  0  0  0  0  0  0  0
   49.4894    3.2820   -3.4095 C   0  0  0  0  0  0  0  0  0  0  0  0
   50.7766    3.5072   -2.6010 C   0  0  0  0  0  0  0  0  0  0  0  0
   51.6717    2.3458   -2.4852 N   0  0  0  0  0  0  0  0  0  0  0  0
   52.0384    1.7315   -1.2104 C   0  0  0  0  0  0  0  0  0  0  0  0
   53.2460    2.3932   -0.5545 C   0  0  0  0  0  0  0  0  0  0  0  0
   53.7102    1.6912    0.7259 C   0  0  0  0  0  0  0  0  0  0  0  0
   54.9977    2.3078    1.2852 C   0  0  0  0  0  0  0  0  0  0  0  0
   56.0788    2.1318    0.3177 N   0  0  0  0  0  0  0  0  0  0  0  0
   57.2986    1.3626    0.5702 C   0  0  0  0  0  0  0  0  0  0  0  0
   57.0633   -0.1540    0.5411 C   0  0  0  0  0  0  0  0  0  0  0  0
   58.3614   -0.9266    0.7971 C   0  0  0  0  0  0  0  0  0  0  0  0
   58.8277   -0.6543    2.1534 N   0  0  0  0  0  0  0  0  0  0  0  0
  1  2  1  0  0  0  0
  2  3  1  0  0  0  0
  3  4  1  0  0  0  0
  4  5  1  0  0  0  0
  5  6  1  0  0  0  0
  6  7  1  0  0  0  0
  7  8  1  0  0  0  0
  8  9  1  0  0  0  0
  9 10  1  0  0  0  0
 10 11  1  0  0  0  0
 11 12  1  0  0  0  0
 12 13  1  0  0  0  0
 13 14  1  0  0  0  0
M  END
>  <CHROM.1>
68.41615817,-66.17282712,-119.25832239,-86.76068194,-175.41841870,174.87592424
-62.92647597,-117.88622914,74.64502125,179.52014900,64.94226542,53.83281039
1.69726096,-0.98868650,-2.82968942,-0.57697516,1.01204423

>  <Name>
ligand

>  <RI>
0

>  <Rbt.Current_Directory>
/home/itssahil/PROJECTS/Mol_Feturizer/New_Systems/rnas/4FAW

>  <Rbt.Executable>
rbdock ($Id: //depot/dev/client3/rdock/2013.1/src/exe/rbdock.cxx#4 $)

>  <Rbt.Library>
libRbt.so (2013.1, Build901 2013/11/27)

>  <Rbt.Parameter_File>
/export/apps/rDock/src/rDock_2013.1_src/data/scripts/dock_solv.prm

>  <Rbt.Receptor>
prm/pocket_docking_2.prm

>  <SCORE>
-2.16457

>  <SCORE.INTER>
4.98104

>  <SCORE.INTER.CONST>
1

>  <SCORE.INTER.POLAR>
0

>  <SCORE.INTER.ROT>
11

>  <SCORE.INTER.SOLV>
7.32919

>  <SCORE.INTER.VDW>
-10.0557

>  <SCORE.INTER.norm>
0.355788

>  <SCORE.INTRA>
-7.14688

>  <SCORE.INTRA.DIHEDRAL>
-15.3176

>  <SCORE.INTRA.DIHEDRAL.0>
19.1003

>  <SCORE.INTRA.POLAR>
0

>  <SCORE.INTRA.POLAR.0>
0

>  <SCORE.INTRA.REPUL>
0

>  <SCORE.INTRA.REPUL.0>
0

>  <SCORE.INTRA.SOLV>
2.45856

>  <SCORE.INTRA.SOLV.lig_0>
-47.5333

>  <SCORE.INTRA.VDW>
-0.717353

>  <SCORE.INTRA.VDW.0>
-0.287413

>  <SCORE.INTRA.norm>
-0.510491

>  <SCORE.RESTR>
0.00126908

>  <SCORE.RESTR.CAVITY>
0.00126908

>  <SCORE.RESTR.norm>
9.06488e-05

>  <SCORE.SYSTEM>
0

>  <SCORE.SYSTEM.CONST>
0

>  <SCORE.SYSTEM.DIHEDRAL>
0

>  <SCORE.SYSTEM.SOLV>
0

>  <SCORE.SYSTEM.norm>
0

>  <SCORE.heavy>
14

>  <SCORE.norm>
-0.154612

>  <RMSD>
2.329

$$$$
ligand
 OpenBabel11021811493D
libRbt.so/2013.1/901 2013/11/27
 14 13  0  0  0  0  0  0  0  0999 V2000
   49.4385    1.4014   -5.0811 N   0  0  0  0  0  0  0  0  0  0  0  0
   49.2056    2.6655   -4.4178 C   0  0  0  0  0  0  0  0  0  0  0  0
   50.5504    3.4016   -4.2474 C   0  0  0  0  0  0  0  0  0  0  0  0
   51.5579    2.6620   -3.3536 C   0  0  0  0  0  0  0  0  0  0  0  0
   51.1226    2.4084   -1.9717 N   0  0  0  0  0  0  0  0  0  0  0  0
   51.9114    1.6508   -1.0017 C   0  0  0  0  0  0  0  0  0  0  0  0
   53.0701    2.4527   -0.4180 C   0  0  0  0  0  0  0  0  0  0  0  0
   53.8544    1.7004    0.6620 C   0  0  0  0  0  0  0  0  0  0  0  0
   55.1261    2.4501    1.0764 C   0  0  0  0  0  0  0  0  0  0  0  0
   55.8257    1.6843    2.1059 N   0  0  0  0  0  0  0  0  0  0  0  0
   56.4440    0.3754    1.8873 C   0  0  0  0  0  0  0  0  0  0  0  0
   57.4881    0.3903    0.7622 C   0  0  0  0  0  0  0  0  0  0  0  0
   58.2638   -0.9296    0.7012 C   0  0  0  0  0  0  0  0  0  0  0  0
   59.0916   -1.0606    1.8966 N   0  0  0  0  0  0  0  0  0  0  0  0
  1  2  1  0  0  0  0
  2  3  1  0  0  0  0
  3  4  1  0  0  0  0
  4  5  1  0  0  0  0
  5  6  1  0  0  0  0
  6  7  1  0  0  0  0
  7  8  1  0  0  0  0
  8  9  1  0  0  0  0
  9 10  1  0  0  0  0
 10 11  1  0  0  0  0
 11 12  1  0  0  0  0
 12 13  1  0  0  0  0
 13 14  1  0  0  0  0
M  END
>  <CHROM.1>
-62.96709328,-59.83126193,176.25095262,77.00112170,176.51526401,171.63450907
179.94441517,66.16648921,56.88477070,171.35764117,-67.47027422,53.78212910
1.51822671,-0.81428608,-2.77020967,-0.58244359,1.03139428

>  <Name>
ligand

>  <RI>
0

>  <Rbt.Current_Directory>
/home/itssahil/PROJECTS/Mol_Feturizer/New_Systems/rnas/4FAW

>  <Rbt.Executable>
rbdock ($Id: //depot/dev/client3/rdock/2013.1/src/exe/rbdock.cxx#4 $)

>  <Rbt.Library>
libRbt.so (2013.1, Build901 2013/11/27)

>  <Rbt.Parameter_File>
/export/apps/rDock/src/rDock_2013.1_src/data/scripts/dock_solv.prm

>  <Rbt.Receptor>
prm/pocket_docking_2.prm

>  <SCORE>
-2.35764

>  <SCORE.INTER>
6.03665

>  <SCORE.INTER.CONST>
1

>  <SCORE.INTER.POLAR>
0

>  <SCORE.INTER.ROT>
11

>  <SCORE.INTER.SOLV>
10.3479

>  <SCORE.INTER.VDW>
-10.3582

>  <SCORE.INTER.norm>
0.431189

>  <SCORE.INTRA>
-8.42399

>  <SCORE.INTRA.DIHEDRAL>
-17.9731

>  <SCORE.INTRA.DIHEDRAL.0>
19.1003

>  <SCORE.INTRA.POLAR>
0

>  <SCORE.INTRA.POLAR.0>
0

>  <SCORE.INTRA.REPUL>
0

>  <SCORE.INTRA.REPUL.0>
0

>  <SCORE.INTRA.SOLV>
1.04945

>  <SCORE.INTRA.SOLV.lig_0>
-47.5333

>  <SCORE.INTRA.VDW>
0.037846

>  <SCORE.INTRA.VDW.0>
-0.287413

>  <SCORE.INTRA.norm>
-0.601713

>  <SCORE.RESTR>
0.0296927

>  <SCORE.RESTR.CAVITY>
0.0296927

>  <SCORE.RESTR.norm>
0.00212091

>  <SCORE.SYSTEM>
0

>  <SCORE.SYSTEM.CONST>
0

>  <SCORE.SYSTEM.DIHEDRAL>
0

>  <SCORE.SYSTEM.SOLV>
0

>  <SCORE.SYSTEM.norm>
0

>  <SCORE.heavy>
14

>  <SCORE.norm>
-0.168403

>  <RMSD>
2.333

$$$$
ligand
 OpenBabel11021811493D
libRbt.so/2013.1/901 2013/11/27
 14 13  0  0  0  0  0  0  0  0999 V2000
   60.8059   -3.1026    2.7595 N   0  0  0  0  0  0  0  0  0  0  0  0
   59.4309   -2.8803    2.3694 C   0  0  0  0  0  0  0  0  0  0  0  0
   59.1776   -1.3630    2.2548 C   0  0  0  0  0  0  0  0  0  0  0  0
   57.7176   -0.9954    1.9478 C   0  0  0  0  0  0  0  0  0  0  0  0
   57.4171    0.4435    1.8938 N   0  0  0  0  0  0  0  0  0  0  0  0
   56.1182    1.0121    2.2495 C   0  0  0  0  0  0  0  0  0  0  0  0
   55.1932    1.1846    1.0491 C   0  0  0  0  0  0  0  0  0  0  0  0
   53.8286    1.7824    1.4068 C   0  0  0  0  0  0  0  0  0  0  0  0
   52.9408    1.9690    0.1708 C   0  0  0  0  0  0  0  0  0  0  0  0
   52.6208    0.6611   -0.3973 N   0  0  0  0  0  0  0  0  0  0  0  0
   51.6331    0.4368   -1.4544 C   0  0  0  0  0  0  0  0  0  0  0  0
   52.1270    0.8868   -2.8364 C   0  0  0  0  0  0  0  0  0  0  0  0
   51.0020    0.8390   -3.8754 C   0  0  0  0  0  0  0  0  0  0  0  0
   50.5588   -0.5415   -4.0463 N   0  0  0  0  0  0  0  0  0  0  0  0
  1  2  1  0  0  0  0
  2  3  1  0  0  0  0
  3  4  1  0  0  0  0
  4  5  1  0  0  0  0
  5  6  1  0  0  0  0
  6  7  1  0  0  0  0
  7  8  1  0  0  0  0
  8  9  1  0  0  0  0
  9 10  1  0  0  0  0
 10 11  1  0  0  0  0
 11 12  1  0  0  0  0
 12 13  1  0  0  0  0
 13 14  1  0  0  0  0
M  END
>  <CHROM.1>
-175.63690156,177.17182790,-149.75097160,-93.50979443,-179.89114371,178.72032136
65.03709867,170.18221555,74.56889565,-171.29924502,-63.59084502,55.04070730
0.02400909,0.24947400,-0.18551248,0.59880576,-2.37119228

>  <Name>
ligand

>  <RI>
0

>  <Rbt.Current_Directory>
/home/itssahil/PROJECTS/Mol_Feturizer/New_Systems/rnas/4FAW

>  <Rbt.Executable>
rbdock ($Id: //depot/dev/client3/rdock/2013.1/src/exe/rbdock.cxx#4 $)

>  <Rbt.Library>
libRbt.so (2013.1, Build901 2013/11/27)

>  <Rbt.Parameter_File>
/export/apps/rDock/src/rDock_2013.1_src/data/scripts/dock_solv.prm

>  <Rbt.Receptor>
prm/pocket_docking_4.prm

>  <SCORE>
-6.07133

>  <SCORE.INTER>
3.12335

>  <SCORE.INTER.CONST>
1

>  <SCORE.INTER.POLAR>
0

>  <SCORE.INTER.ROT>
11

>  <SCORE.INTER.SOLV>
11.3011

>  <SCORE.INTER.VDW>
-12.6181

>  <SCORE.INTER.norm>
0.223096

>  <SCORE.INTRA>
-9.1973

>  <SCORE.INTRA.DIHEDRAL>
-17.0047

>  <SCORE.INTRA.DIHEDRAL.0>
19.1003

>  <SCORE.INTRA.POLAR>
0

>  <SCORE.INTRA.POLAR.0>
0

>  <SCORE.INTRA.REPUL>
0

>  <SCORE.INTRA.REPUL.0>
0

>  <SCORE.INTRA.SOLV>
-0.333284

>  <SCORE.INTRA.SOLV.lig_0>
-47.5333

>  <SCORE.INTRA.VDW>
-0.52833

>  <SCORE.INTRA.VDW.0>
-0.287413

>  <SCORE.INTRA.norm>
-0.65695

>  <SCORE.RESTR>
0.00262024

>  <SCORE.RESTR.CAVITY>
0.00262024

>  <SCORE.RESTR.norm>
0.00018716

>  <SCORE.SYSTEM>
0

>  <SCORE.SYSTEM.CONST>
0

>  <SCORE.SYSTEM.DIHEDRAL>
0

>  <SCORE.SYSTEM.SOLV>
0

>  <SCORE.SYSTEM.norm>
0

>  <SCORE.heavy>
14

>  <SCORE.norm>
-0.433666

>  <RMSD>
2.333

$$$$
ligand
 OpenBabel11021811493D
libRbt.so/2013.1/901 2013/11/27
 14 13  0  0  0  0  0  0  0  0999 V2000
   50.5075    0.0381   -4.0040 N   0  0  0  0  0  0  0  0  0  0  0  0
   51.6882   -0.0090   -3.1698 C   0  0  0  0  0  0  0  0  0  0  0  0
   52.4252    1.3430   -3.2612 C   0  0  0  0  0  0  0  0  0  0  0  0
   51.6747    2.5090   -2.5992 C   0  0  0  0  0  0  0  0  0  0  0  0
   51.5854    2.4624   -1.1317 N   0  0  0  0  0  0  0  0  0  0  0  0
   52.7509    2.3856   -0.2528 C   0  0  0  0  0  0  0  0  0  0  0  0
   53.0665    0.9628    0.1973 C   0  0  0  0  0  0  0  0  0  0  0  0
   54.3657    0.8474    1.0012 C   0  0  0  0  0  0  0  0  0  0  0  0
   54.6758   -0.6036    1.3876 C   0  0  0  0  0  0  0  0  0  0  0  0
   56.0952   -0.7249    1.7136 N   0  0  0  0  0  0  0  0  0  0  0  0
   57.1757   -0.7091    0.7260 C   0  0  0  0  0  0  0  0  0  0  0  0
   58.5673   -0.8246    1.3636 C   0  0  0  0  0  0  0  0  0  0  0  0
   58.7794   -2.2032    1.9977 C   0  0  0  0  0  0  0  0  0  0  0  0
   60.0868   -2.2421    2.6462 N   0  0  0  0  0  0  0  0  0  0  0  0
  1  2  1  0  0  0  0
  2  3  1  0  0  0  0
  3  4  1  0  0  0  0
  4  5  1  0  0  0  0
  5  6  1  0  0  0  0
  6  7  1  0  0  0  0
  7  8  1  0  0  0  0
  8  9  1  0  0  0  0
  9 10  1  0  0  0  0
 10 11  1  0  0  0  0
 11 12  1  0  0  0  0
 12 13  1  0  0  0  0
 13 14  1  0  0  0  0
M  END
>  <CHROM.1>
69.10870343,69.14957656,56.76114607,-97.11508562,174.12877758,-177.76391737
160.14209954,-73.71158706,178.74214905,67.49716992,-177.22895088,54.53171594
0.23098791,-0.24185022,-2.91562723,-0.62603381,0.94394671

>  <Name>
ligand

>  <RI>
0

>  <Rbt.Current_Directory>
/home/itssahil/PROJECTS/Mol_Feturizer/New_Systems/rnas/4FAW

>  <Rbt.Executable>
rbdock ($Id: //depot/dev/client3/rdock/2013.1/src/exe/rbdock.cxx#4 $)

>  <Rbt.Library>
libRbt.so (2013.1, Build901 2013/11/27)

>  <Rbt.Parameter_File>
/export/apps/rDock/src/rDock_2013.1_src/data/scripts/dock_solv.prm

>  <Rbt.Receptor>
prm/pocket_docking_4.prm

>  <SCORE>
-7.22656

>  <SCORE.INTER>
1.22758

>  <SCORE.INTER.CONST>
1

>  <SCORE.INTER.POLAR>
0

>  <SCORE.INTER.ROT>
11

>  <SCORE.INTER.SOLV>
12.7388

>  <SCORE.INTER.VDW>
-14.3612

>  <SCORE.INTER.norm>
0.0876842

>  <SCORE.INTRA>
-8.45414

>  <SCORE.INTRA.DIHEDRAL>
-15.7537

>  <SCORE.INTRA.DIHEDRAL.0>
19.1003

>  <SCORE.INTRA.POLAR>
0

>  <SCORE.INTRA.POLAR.0>
0

>  <SCORE.INTRA.REPUL>
0

>  <SCORE.INTRA.REPUL.0>
0

>  <SCORE.INTRA.SOLV>
0.258259

>  <SCORE.INTRA.SOLV.lig_0>
-47.5333

>  <SCORE.INTRA.VDW>
-0.706421

>  <SCORE.INTRA.VDW.0>
-0.287413

>  <SCORE.INTRA.norm>
-0.603867

>  <SCORE.RESTR>
0

>  <SCORE.RESTR.CAVITY>
0

>  <SCORE.RESTR.norm>
0

>  <SCORE.SYSTEM>
0

>  <SCORE.SYSTEM.CONST>
0

>  <SCORE.SYSTEM.DIHEDRAL>
0

>  <SCORE.SYSTEM.SOLV>
0

>  <SCORE.SYSTEM.norm>
0

>  <SCORE.heavy>
14

>  <SCORE.norm>
-0.516183

>  <RMSD>
2.335

$$$$
ligand
 OpenBabel11021811493D
libRbt.so/2013.1/901 2013/11/27
 14 13  0  0  0  0  0  0  0  0999 V2000
   60.4445   -2.1542    3.6699 N   0  0  0  0  0  0  0  0  0  0  0  0
   60.0583   -1.3907    2.5037 C   0  0  0  0  0  0  0  0  0  0  0  0
   58.7352   -1.9548    1.9463 C   0  0  0  0  0  0  0  0  0  0  0  0
   58.2236   -1.2249    0.6946 C   0  0  0  0  0  0  0  0  0  0  0  0
   57.9907    0.2195    0.8458 N   0  0  0  0  0  0  0  0  0  0  0  0
   57.6170    1.0984   -0.2609 C   0  0  0  0  0  0  0  0  0  0  0  0
   57.5894    2.5723    0.1304 C   0  0  0  0  0  0  0  0  0  0  0  0
   57.0954    3.4951   -0.9884 C   0  0  0  0  0  0  0  0  0  0  0  0
   55.6030    3.2979   -1.2795 C   0  0  0  0  0  0  0  0  0  0  0  0
   55.2153    4.1379   -2.4108 N   0  0  0  0  0  0  0  0  0  0  0  0
   54.0401    3.9032   -3.2518 C   0  0  0  0  0  0  0  0  0  0  0  0
   54.1386    2.6044   -4.0639 C   0  0  0  0  0  0  0  0  0  0  0  0
   52.9344    2.4347   -4.9960 C   0  0  0  0  0  0  0  0  0  0  0  0
   53.0155    3.4143   -6.0754 N   0  0  0  0  0  0  0  0  0  0  0  0
  1  2  1  0  0  0  0
  2  3  1  0  0  0  0
  3  4  1  0  0  0  0
  4  5  1  0  0  0  0
  5  6  1  0  0  0  0
  6  7  1  0  0  0  0
  7  8  1  0  0  0  0
  8  9  1  0  0  0  0
  9 10  1  0  0  0  0
 10 11  1  0  0  0  0
 11 12  1  0  0  0  0
 12 13  1  0  0  0  0
 13 14  1  0  0  0  0
M  END
>  <CHROM.1>
-179.73398776,-57.88693420,174.51147525,-173.50701406,-175.54961826,68.91273246
-176.24407775,158.42622065,-65.66068916,-176.46333427,70.42957529,56.62147917
1.46095496,-0.96684929,0.46399107,0.87906602,-3.09233975

>  <Name>
ligand

>  <RI>
0

>  <Rbt.Current_Directory>
/home/itssahil/PROJECTS/Mol_Feturizer/New_Systems/rnas/4FAW

>  <Rbt.Executable>
rbdock ($Id: //depot/dev/client3/rdock/2013.1/src/exe/rbdock.cxx#4 $)

>  <Rbt.Library>
libRbt.so (2013.1, Build901 2013/11/27)

>  <Rbt.Parameter_File>
/export/apps/rDock/src/rDock_2013.1_src/data/scripts/dock_solv.prm

>  <Rbt.Receptor>
prm/pocket_docking_3.prm

>  <SCORE>
-7.85011

>  <SCORE.INTER>
1.48252

>  <SCORE.INTER.CONST>
1

>  <SCORE.INTER.POLAR>
0

>  <SCORE.INTER.ROT>
11

>  <SCORE.INTER.SOLV>
7.28572

>  <SCORE.INTER.VDW>
-12.3736

>  <SCORE.INTER.norm>
0.105894

>  <SCORE.INTRA>
-9.33263

>  <SCORE.INTRA.DIHEDRAL>
-17.7507

>  <SCORE.INTRA.DIHEDRAL.0>
19.1003

>  <SCORE.INTRA.POLAR>
0

>  <SCORE.INTRA.POLAR.0>
0

>  <SCORE.INTRA.REPUL>
0

>  <SCORE.INTRA.REPUL.0>
0

>  <SCORE.INTRA.SOLV>
-0.264017

>  <SCORE.INTRA.SOLV.lig_0>
-47.5333

>  <SCORE.INTRA.VDW>
-0.325274

>  <SCORE.INTRA.VDW.0>
-0.287413

>  <SCORE.INTRA.norm>
-0.666617

>  <SCORE.RESTR>
0

>  <SCORE.RESTR.CAVITY>
0

>  <SCORE.RESTR.norm>
0

>  <SCORE.SYSTEM>
0

>  <SCORE.SYSTEM.CONST>
0

>  <SCORE.SYSTEM.DIHEDRAL>
0

>  <SCORE.SYSTEM.SOLV>
0

>  <SCORE.SYSTEM.norm>
0

>  <SCORE.heavy>
14

>  <SCORE.norm>
-0.560722

>  <RMSD>
2.343

$$$$
ligand
 OpenBabel11021811493D
libRbt.so/2013.1/901 2013/11/27
 14 13  0  0  0  0  0  0  0  0999 V2000
   58.9781   -1.1045    1.4421 N   0  0  0  0  0  0  0  0  0  0  0  0
   57.6406   -1.0909    0.8916 C   0  0  0  0  0  0  0  0  0  0  0  0
   56.7463   -0.1823    1.7600 C   0  0  0  0  0  0  0  0  0  0  0  0
   55.3497    0.0670    1.1698 C   0  0  0  0  0  0  0  0  0  0  0  0
   54.5766    1.1534    1.7906 N   0  0  0  0  0  0  0  0  0  0  0  0
   55.1343    2.4692    2.0981 C   0  0  0  0  0  0  0  0  0  0  0  0
   54.8847    3.4954    0.9977 C   0  0  0  0  0  0  0  0  0  0  0  0
   53.4495    4.0311    0.9722 C   0  0  0  0  0  0  0  0  0  0  0  0
   52.4491    2.9725    0.4931 C   0  0  0  0  0  0  0  0  0  0  0  0
   52.7202    2.6483   -0.9058 N   0  0  0  0  0  0  0  0  0  0  0  0
   52.0899    1.5483   -1.6380 C   0  0  0  0  0  0  0  0  0  0  0  0
   51.7012    1.9329   -3.0723 C   0  0  0  0  0  0  0  0  0  0  0  0
   52.9373    2.2441   -3.9225 C   0  0  0  0  0  0  0  0  0  0  0  0
   52.5170    2.6168   -5.2700 N   0  0  0  0  0  0  0  0  0  0  0  0
  1  2  1  0  0  0  0
  2  3  1  0  0  0  0
  3  4  1  0  0  0  0
  4  5  1  0  0  0  0
  5  6  1  0  0  0  0
  6  7  1  0  0  0  0
  7  8  1  0  0  0  0
  8  9  1  0  0  0  0
  9 10  1  0  0  0  0
 10 11  1  0  0  0  0
 11 12  1  0  0  0  0
 12 13  1  0  0  0  0
 13 14  1  0  0  0  0
M  END
>  <CHROM.1>
172.09140805,-166.70310820,45.85159813,94.63502786,76.07208283,-70.57386998
-65.72381935,171.00443440,138.86539785,64.88653769,-179.41459917,54.36947827
1.62879577,-0.22788561,-0.47349528,0.71970773,-1.96676027

>  <Name>
ligand

>  <RI>
0

>  <Rbt.Current_Directory>
/home/itssahil/PROJECTS/Mol_Feturizer/New_Systems/rnas/4FAW

>  <Rbt.Executable>
rbdock ($Id: //depot/dev/client3/rdock/2013.1/src/exe/rbdock.cxx#4 $)

>  <Rbt.Library>
libRbt.so (2013.1, Build901 2013/11/27)

>  <Rbt.Parameter_File>
/export/apps/rDock/src/rDock_2013.1_src/data/scripts/dock_solv.prm

>  <Rbt.Receptor>
prm/pocket_docking_2.prm

>  <SCORE>
-0.0520346

>  <SCORE.INTER>
7.25887

>  <SCORE.INTER.CONST>
1

>  <SCORE.INTER.POLAR>
0

>  <SCORE.INTER.ROT>
11

>  <SCORE.INTER.SOLV>
8.25953

>  <SCORE.INTER.VDW>
-8.84726

>  <SCORE.INTER.norm>
0.518491

>  <SCORE.INTRA>
-7.31767

>  <SCORE.INTRA.DIHEDRAL>
-14.7354

>  <SCORE.INTRA.DIHEDRAL.0>
19.1003

>  <SCORE.INTRA.POLAR>
0

>  <SCORE.INTRA.POLAR.0>
0

>  <SCORE.INTRA.REPUL>
0

>  <SCORE.INTRA.REPUL.0>
0

>  <SCORE.INTRA.SOLV>
1.00073

>  <SCORE.INTRA.SOLV.lig_0>
-47.5333

>  <SCORE.INTRA.VDW>
-0.450338

>  <SCORE.INTRA.VDW.0>
-0.287413

>  <SCORE.INTRA.norm>
-0.522691

>  <SCORE.RESTR>
0.00676546

>  <SCORE.RESTR.CAVITY>
0.00676546

>  <SCORE.RESTR.norm>
0.000483247

>  <SCORE.SYSTEM>
0

>  <SCORE.SYSTEM.CONST>
0

>  <SCORE.SYSTEM.DIHEDRAL>
0

>  <SCORE.SYSTEM.SOLV>
0

>  <SCORE.SYSTEM.norm>
0

>  <SCORE.heavy>
14

>  <SCORE.norm>
-0.00371676

>  <RMSD>
2.347

$$$$
ligand
 OpenBabel11021811493D
libRbt.so/2013.1/901 2013/11/27
 14 13  0  0  0  0  0  0  0  0999 V2000
   59.0791   -0.7970    2.3254 N   0  0  0  0  0  0  0  0  0  0  0  0
   58.5064   -0.9949    1.0120 C   0  0  0  0  0  0  0  0  0  0  0  0
   56.9734   -0.8491    1.1024 C   0  0  0  0  0  0  0  0  0  0  0  0
   56.5033    0.5530    1.5197 C   0  0  0  0  0  0  0  0  0  0  0  0
   55.0469    0.7563    1.5544 N   0  0  0  0  0  0  0  0  0  0  0  0
   54.4131    1.9843    2.0312 C   0  0  0  0  0  0  0  0  0  0  0  0
   53.0965    2.2898    1.3244 C   0  0  0  0  0  0  0  0  0  0  0  0
   53.2427    2.4831   -0.1885 C   0  0  0  0  0  0  0  0  0  0  0  0
   51.8861    2.6714   -0.8778 C   0  0  0  0  0  0  0  0  0  0  0  0
   52.0912    2.8217   -2.3169 N   0  0  0  0  0  0  0  0  0  0  0  0
   51.2002    2.2747   -3.3417 C   0  0  0  0  0  0  0  0  0  0  0  0
   49.9894    3.1759   -3.6211 C   0  0  0  0  0  0  0  0  0  0  0  0
   49.1225    2.6135   -4.7524 C   0  0  0  0  0  0  0  0  0  0  0  0
   49.9192    2.5195   -5.9722 N   0  0  0  0  0  0  0  0  0  0  0  0
  1  2  1  0  0  0  0
  2  3  1  0  0  0  0
  3  4  1  0  0  0  0
  4  5  1  0  0  0  0
  5  6  1  0  0  0  0
  6  7  1  0  0  0  0
  7  8  1  0  0  0  0
  8  9  1  0  0  0  0
  9 10  1  0  0  0  0
 10 11  1  0  0  0  0
 11 12  1  0  0  0  0
 12 13  1  0  0  0  0
 13 14  1  0  0  0  0
M  END
>  <CHROM.1>
63.64688771,177.09926661,174.79815615,148.67951398,-60.58270698,175.22344950
-178.81092006,142.81498682,83.16343647,176.76313081,-60.13628282,53.64770784
1.53596252,-0.72850222,-0.49871348,0.57049219,-1.88483289

>  <Name>
ligand

>  <RI>
0

>  <Rbt.Current_Directory>
/home/itssahil/PROJECTS/Mol_Feturizer/New_Systems/rnas/4FAW

>  <Rbt.Executable>
rbdock ($Id: //depot/dev/client3/rdock/2013.1/src/exe/rbdock.cxx#4 $)

>  <Rbt.Library>
libRbt.so (2013.1, Build901 2013/11/27)

>  <Rbt.Parameter_File>
/export/apps/rDock/src/rDock_2013.1_src/data/scripts/dock_solv.prm

>  <Rbt.Receptor>
prm/pocket_docking_2.prm

>  <SCORE>
-3.92004

>  <SCORE.INTER>
4.8844

>  <SCORE.INTER.CONST>
1

>  <SCORE.INTER.POLAR>
0

>  <SCORE.INTER.ROT>
11

>  <SCORE.INTER.SOLV>
8.35671

>  <SCORE.INTER.VDW>
-10.4626

>  <SCORE.INTER.norm>
0.348886

>  <SCORE.INTRA>
-8.81446

>  <SCORE.INTRA.DIHEDRAL>
-17.0032

>  <SCORE.INTRA.DIHEDRAL.0>
19.1003

>  <SCORE.INTRA.POLAR>
0

>  <SCORE.INTRA.POLAR.0>
0

>  <SCORE.INTRA.REPUL>
0

>  <SCORE.INTRA.REPUL.0>
0

>  <SCORE.INTRA.SOLV>
0.489869

>  <SCORE.INTRA.SOLV.lig_0>
-47.5333

>  <SCORE.INTRA.VDW>
-0.55781

>  <SCORE.INTRA.VDW.0>
-0.287413

>  <SCORE.INTRA.norm>
-0.629604

>  <SCORE.RESTR>
0.0100226

>  <SCORE.RESTR.CAVITY>
0.0100226

>  <SCORE.RESTR.norm>
0.000715898

>  <SCORE.SYSTEM>
0

>  <SCORE.SYSTEM.CONST>
0

>  <SCORE.SYSTEM.DIHEDRAL>
0

>  <SCORE.SYSTEM.SOLV>
0

>  <SCORE.SYSTEM.norm>
0

>  <SCORE.heavy>
14

>  <SCORE.norm>
-0.280003

>  <RMSD>
2.356

$$$$
ligand
 OpenBabel11021811493D
libRbt.so/2013.1/901 2013/11/27
 14 13  0  0  0  0  0  0  0  0999 V2000
   58.9275   -0.6278    1.8471 N   0  0  0  0  0  0  0  0  0  0  0  0
   58.0230   -1.0987    0.8213 C   0  0  0  0  0  0  0  0  0  0  0  0
   56.8146   -0.1437    0.7364 C   0  0  0  0  0  0  0  0  0  0  0  0
   56.0079   -0.0403    2.0401 C   0  0  0  0  0  0  0  0  0  0  0  0
   54.7892    0.7808    1.9758 N   0  0  0  0  0  0  0  0  0  0  0  0
   54.7998    2.2422    1.9432 C   0  0  0  0  0  0  0  0  0  0  0  0
   54.6022    2.8095    0.5413 C   0  0  0  0  0  0  0  0  0  0  0  0
   53.2253    2.5026   -0.0565 C   0  0  0  0  0  0  0  0  0  0  0  0
   53.0744    3.0688   -1.4734 C   0  0  0  0  0  0  0  0  0  0  0  0
   51.7225    2.8015   -1.9599 N   0  0  0  0  0  0  0  0  0  0  0  0
   51.3354    2.8034   -3.3719 C   0  0  0  0  0  0  0  0  0  0  0  0
   49.8148    2.8644   -3.5725 C   0  0  0  0  0  0  0  0  0  0  0  0
   49.4430    2.7923   -5.0572 C   0  0  0  0  0  0  0  0  0  0  0  0
   49.8864    1.5142   -5.6060 N   0  0  0  0  0  0  0  0  0  0  0  0
  1  2  1  0  0  0  0
  2  3  1  0  0  0  0
  3  4  1  0  0  0  0
  4  5  1  0  0  0  0
  5  6  1  0  0  0  0
  6  7  1  0  0  0  0
  7  8  1  0  0  0  0
  8  9  1  0  0  0  0
  9 10  1  0  0  0  0
 10 11  1  0  0  0  0
 11 12  1  0  0  0  0
 12 13  1  0  0  0  0
 13 14  1  0  0  0  0
M  END
>  <CHROM.1>
-60.26121072,-175.60877351,-74.82878655,100.42129879,65.11222419,-179.05062434
-177.20756309,-159.81295600,-164.70003412,-177.08628389,62.34515643,53.74753685
1.59085535,-0.79938283,-0.37930508,0.66091009,-2.14281578

>  <Name>
ligand

>  <RI>
0

>  <Rbt.Current_Directory>
/home/itssahil/PROJECTS/Mol_Feturizer/New_Systems/rnas/4FAW

>  <Rbt.Executable>
rbdock ($Id: //depot/dev/client3/rdock/2013.1/src/exe/rbdock.cxx#4 $)

>  <Rbt.Library>
libRbt.so (2013.1, Build901 2013/11/27)

>  <Rbt.Parameter_File>
/export/apps/rDock/src/rDock_2013.1_src/data/scripts/dock_solv.prm

>  <Rbt.Receptor>
prm/pocket_docking_2.prm

>  <SCORE>
-3.08478

>  <SCORE.INTER>
6.00381

>  <SCORE.INTER.CONST>
1

>  <SCORE.INTER.POLAR>
0

>  <SCORE.INTER.ROT>
11

>  <SCORE.INTER.SOLV>
8.65041

>  <SCORE.INTER.VDW>
-9.81426

>  <SCORE.INTER.norm>
0.428844

>  <SCORE.INTRA>
-9.09459

>  <SCORE.INTRA.DIHEDRAL>
-17.2722

>  <SCORE.INTRA.DIHEDRAL.0>
19.1003

>  <SCORE.INTRA.POLAR>
0

>  <SCORE.INTRA.POLAR.0>
0

>  <SCORE.INTRA.REPUL>
0

>  <SCORE.INTRA.REPUL.0>
0

>  <SCORE.INTRA.SOLV>
0.447881

>  <SCORE.INTRA.SOLV.lig_0>
-47.5333

>  <SCORE.INTRA.VDW>
-0.682437

>  <SCORE.INTRA.VDW.0>
-0.287413

>  <SCORE.INTRA.norm>
-0.649614

>  <SCORE.RESTR>
0.00600417

>  <SCORE.RESTR.CAVITY>
0.00600417

>  <SCORE.RESTR.norm>
0.00042887

>  <SCORE.SYSTEM>
0

>  <SCORE.SYSTEM.CONST>
0

>  <SCORE.SYSTEM.DIHEDRAL>
0

>  <SCORE.SYSTEM.SOLV>
0

>  <SCORE.SYSTEM.norm>
0

>  <SCORE.heavy>
14

>  <SCORE.norm>
-0.220341

>  <RMSD>
2.368

$$$$
ligand
 OpenBabel11021811493D
libRbt.so/2013.1/901 2013/11/27
 14 13  0  0  0  0  0  0  0  0999 V2000
   53.4187    3.0788   -4.9970 N   0  0  0  0  0  0  0  0  0  0  0  0
   52.9567    4.2648   -4.3100 C   0  0  0  0  0  0  0  0  0  0  0  0
   54.0357    4.7191   -3.3055 C   0  0  0  0  0  0  0  0  0  0  0  0
   54.3222    3.6986   -2.1932 C   0  0  0  0  0  0  0  0  0  0  0  0
   55.3159    4.1079   -1.1889 N   0  0  0  0  0  0  0  0  0  0  0  0
   56.0499    3.1651   -0.3467 C   0  0  0  0  0  0  0  0  0  0  0  0
   57.3284    2.6508   -1.0004 C   0  0  0  0  0  0  0  0  0  0  0  0
   58.1723    1.7612   -0.0818 C   0  0  0  0  0  0  0  0  0  0  0  0
   57.5130    0.3988    0.1636 C   0  0  0  0  0  0  0  0  0  0  0  0
   58.4421   -0.4649    0.8891 N   0  0  0  0  0  0  0  0  0  0  0  0
   58.0365   -1.5498    1.7846 C   0  0  0  0  0  0  0  0  0  0  0  0
   59.2175   -2.4160    2.2440 C   0  0  0  0  0  0  0  0  0  0  0  0
   60.2496   -1.5895    3.0182 C   0  0  0  0  0  0  0  0  0  0  0  0
   59.6757   -1.1690    4.2931 N   0  0  0  0  0  0  0  0  0  0  0  0
  1  2  1  0  0  0  0
  2  3  1  0  0  0  0
  3  4  1  0  0  0  0
  4  5  1  0  0  0  0
  5  6  1  0  0  0  0
  6  7  1  0  0  0  0
  7  8  1  0  0  0  0
  8  9  1  0  0  0  0
  9 10  1  0  0  0  0
 10 11  1  0  0  0  0
 11 12  1  0  0  0  0
 12 13  1  0  0  0  0
 13 14  1  0  0  0  0
M  END
>  <CHROM.1>
-62.90628523,-178.21709336,-158.59346677,87.26178882,174.79180364,70.77785069
172.30431461,152.16510055,171.53067781,60.76842018,68.29876897,56.76674527
1.47545195,-0.35938837,2.71913729,-0.92183495,0.21782290

>  <Name>
ligand

>  <RI>
0

>  <Rbt.Current_Directory>
/home/itssahil/PROJECTS/Mol_Feturizer/New_Systems/rnas/4FAW

>  <Rbt.Executable>
rbdock ($Id: //depot/dev/client3/rdock/2013.1/src/exe/rbdock.cxx#4 $)

>  <Rbt.Library>
libRbt.so (2013.1, Build901 2013/11/27)

>  <Rbt.Parameter_File>
/export/apps/rDock/src/rDock_2013.1_src/data/scripts/dock_solv.prm

>  <Rbt.Receptor>
prm/pocket_docking_3.prm

>  <SCORE>
-3.99712

>  <SCORE.INTER>
4.08805

>  <SCORE.INTER.CONST>
1

>  <SCORE.INTER.POLAR>
0

>  <SCORE.INTER.ROT>
11

>  <SCORE.INTER.SOLV>
7.09634

>  <SCORE.INTER.VDW>
-10.5734

>  <SCORE.INTER.norm>
0.292004

>  <SCORE.INTRA>
-8.08517

>  <SCORE.INTRA.DIHEDRAL>
-16.5567

>  <SCORE.INTRA.DIHEDRAL.0>
19.1003

>  <SCORE.INTRA.POLAR>
0

>  <SCORE.INTRA.POLAR.0>
0

>  <SCORE.INTRA.REPUL>
0

>  <SCORE.INTRA.REPUL.0>
0

>  <SCORE.INTRA.SOLV>
1.06485

>  <SCORE.INTRA.SOLV.lig_0>
-47.5333

>  <SCORE.INTRA.VDW>
-0.339234

>  <SCORE.INTRA.VDW.0>
-0.287413

>  <SCORE.INTRA.norm>
-0.577512

>  <SCORE.RESTR>
0

>  <SCORE.RESTR.CAVITY>
0

>  <SCORE.RESTR.norm>
0

>  <SCORE.SYSTEM>
0

>  <SCORE.SYSTEM.CONST>
0

>  <SCORE.SYSTEM.DIHEDRAL>
0

>  <SCORE.SYSTEM.SOLV>
0

>  <SCORE.SYSTEM.norm>
0

>  <SCORE.heavy>
14

>  <SCORE.norm>
-0.285509

>  <RMSD>
2.378

$$$$
ligand
 OpenBabel11021811493D
libRbt.so/2013.1/901 2013/11/27
 14 13  0  0  0  0  0  0  0  0999 V2000
   51.2114    2.1311   -4.3571 N   0  0  0  0  0  0  0  0  0  0  0  0
   51.9610    3.0049   -3.4815 C   0  0  0  0  0  0  0  0  0  0  0  0
   53.4300    2.5363   -3.4374 C   0  0  0  0  0  0  0  0  0  0  0  0
   54.3172    3.3524   -2.4845 C   0  0  0  0  0  0  0  0  0  0  0  0
   55.7221    2.9262   -2.3947 N   0  0  0  0  0  0  0  0  0  0  0  0
   56.6354    3.3682   -1.3423 C   0  0  0  0  0  0  0  0  0  0  0  0
   57.9608    2.6135   -1.3464 C   0  0  0  0  0  0  0  0  0  0  0  0
   57.8107    1.1083   -1.1034 C   0  0  0  0  0  0  0  0  0  0  0  0
   57.3412    0.8002    0.3234 C   0  0  0  0  0  0  0  0  0  0  0  0
   57.0949   -0.6344    0.4527 N   0  0  0  0  0  0  0  0  0  0  0  0
   58.1317   -1.6311    0.7268 C   0  0  0  0  0  0  0  0  0  0  0  0
   58.6914   -1.5317    2.1527 C   0  0  0  0  0  0  0  0  0  0  0  0
   59.7155   -2.6372    2.4300 C   0  0  0  0  0  0  0  0  0  0  0  0
   60.2601   -2.4668    3.7737 N   0  0  0  0  0  0  0  0  0  0  0  0
  1  2  1  0  0  0  0
  2  3  1  0  0  0  0
  3  4  1  0  0  0  0
  4  5  1  0  0  0  0
  5  6  1  0  0  0  0
  6  7  1  0  0  0  0
  7  8  1  0  0  0  0
  8  9  1  0  0  0  0
  9 10  1  0  0  0  0
 10 11  1  0  0  0  0
 11 12  1  0  0  0  0
 12 13  1  0  0  0  0
 13 14  1  0  0  0  0
M  END
>  <CHROM.1>
-177.34537348,179.06282096,-165.74426123,170.78538722,-61.61860679,-67.91282990
174.61765216,83.12484787,69.81938496,176.80623698,177.57275737,56.44897248
0.92445808,-0.72061685,2.35015890,-0.42042125,-0.49000697

>  <Name>
ligand

>  <RI>
0

>  <Rbt.Current_Directory>
/home/itssahil/PROJECTS/Mol_Feturizer/New_Systems/rnas/4FAW

>  <Rbt.Executable>
rbdock ($Id: //depot/dev/client3/rdock/2013.1/src/exe/rbdock.cxx#4 $)

>  <Rbt.Library>
libRbt.so (2013.1, Build901 2013/11/27)

>  <Rbt.Parameter_File>
/export/apps/rDock/src/rDock_2013.1_src/data/scripts/dock_solv.prm

>  <Rbt.Receptor>
prm/pocket_docking_4.prm

>  <SCORE>
-9.59428

>  <SCORE.INTER>
0.0688222

>  <SCORE.INTER.CONST>
1

>  <SCORE.INTER.POLAR>
0

>  <SCORE.INTER.ROT>
11

>  <SCORE.INTER.SOLV>
10.2653

>  <SCORE.INTER.VDW>
-14.3092

>  <SCORE.INTER.norm>
0.00491587

>  <SCORE.INTRA>
-9.6631

>  <SCORE.INTRA.DIHEDRAL>
-17.9377

>  <SCORE.INTRA.DIHEDRAL.0>
19.1003

>  <SCORE.INTRA.POLAR>
0

>  <SCORE.INTRA.POLAR.0>
0

>  <SCORE.INTRA.REPUL>
0

>  <SCORE.INTRA.REPUL.0>
0

>  <SCORE.INTRA.SOLV>
-0.777054

>  <SCORE.INTRA.SOLV.lig_0>
-47.5333

>  <SCORE.INTRA.VDW>
-0.305718

>  <SCORE.INTRA.VDW.0>
-0.287413

>  <SCORE.INTRA.norm>
-0.690222

>  <SCORE.RESTR>
0

>  <SCORE.RESTR.CAVITY>
0

>  <SCORE.RESTR.norm>
0

>  <SCORE.SYSTEM>
0

>  <SCORE.SYSTEM.CONST>
0

>  <SCORE.SYSTEM.DIHEDRAL>
0

>  <SCORE.SYSTEM.SOLV>
0

>  <SCORE.SYSTEM.norm>
0

>  <SCORE.heavy>
14

>  <SCORE.norm>
-0.685306

>  <RMSD>
2.383

$$$$
ligand
 OpenBabel11021811493D
libRbt.so/2013.1/901 2013/11/27
 14 13  0  0  0  0  0  0  0  0999 V2000
   51.7874    3.4301   -3.2475 N   0  0  0  0  0  0  0  0  0  0  0  0
   52.6819    2.3454   -3.5876 C   0  0  0  0  0  0  0  0  0  0  0  0
   54.1370    2.8541   -3.5300 C   0  0  0  0  0  0  0  0  0  0  0  0
   54.5859    3.3046   -2.1312 C   0  0  0  0  0  0  0  0  0  0  0  0
   56.0176    3.6083   -1.9849 N   0  0  0  0  0  0  0  0  0  0  0  0
   56.6886    3.7385   -0.6927 C   0  0  0  0  0  0  0  0  0  0  0  0
   57.9932    2.9521   -0.6156 C   0  0  0  0  0  0  0  0  0  0  0  0
   57.8022    1.4352   -0.7156 C   0  0  0  0  0  0  0  0  0  0  0  0
   57.1905    0.8472    0.5615 C   0  0  0  0  0  0  0  0  0  0  0  0
   57.0758   -0.6028    0.4201 N   0  0  0  0  0  0  0  0  0  0  0  0
   58.1579   -1.5496    0.6955 C   0  0  0  0  0  0  0  0  0  0  0  0
   58.6092   -1.5281    2.1625 C   0  0  0  0  0  0  0  0  0  0  0  0
   59.7574   -2.5122    2.4091 C   0  0  0  0  0  0  0  0  0  0  0  0
   60.1929   -2.4100    3.7988 N   0  0  0  0  0  0  0  0  0  0  0  0
  1  2  1  0  0  0  0
  2  3  1  0  0  0  0
  3  4  1  0  0  0  0
  4  5  1  0  0  0  0
  5  6  1  0  0  0  0
  6  7  1  0  0  0  0
  7  8  1  0  0  0  0
  8  9  1  0  0  0  0
  9 10  1  0  0  0  0
 10 11  1  0  0  0  0
 11 12  1  0  0  0  0
 12 13  1  0  0  0  0
 13 14  1  0  0  0  0
M  END
>  <CHROM.1>
63.43163846,171.30186082,-164.88884858,132.16823936,-64.73708770,-72.77179182
-178.12762057,84.28958082,62.67560286,-179.01669357,177.33590688,56.61995594
1.13668578,-0.46134307,2.34047561,-0.51792241,-0.35764053

>  <Name>
ligand

>  <RI>
0

>  <Rbt.Current_Directory>
/home/itssahil/PROJECTS/Mol_Feturizer/New_Systems/rnas/4FAW

>  <Rbt.Executable>
rbdock ($Id: //depot/dev/client3/rdock/2013.1/src/exe/rbdock.cxx#4 $)

>  <Rbt.Library>
libRbt.so (2013.1, Build901 2013/11/27)

>  <Rbt.Parameter_File>
/export/apps/rDock/src/rDock_2013.1_src/data/scripts/dock_solv.prm

>  <Rbt.Receptor>
prm/pocket_docking_3.prm

>  <SCORE>
-7.92597

>  <SCORE.INTER>
0.61186

>  <SCORE.INTER.CONST>
1

>  <SCORE.INTER.POLAR>
0

>  <SCORE.INTER.ROT>
11

>  <SCORE.INTER.SOLV>
9.38889

>  <SCORE.INTER.VDW>
-13.6551

>  <SCORE.INTER.norm>
0.0437043

>  <SCORE.INTRA>
-8.55326

>  <SCORE.INTRA.DIHEDRAL>
-16.2977

>  <SCORE.INTRA.DIHEDRAL.0>
19.1003

>  <SCORE.INTRA.POLAR>
0

>  <SCORE.INTRA.POLAR.0>
0

>  <SCORE.INTRA.REPUL>
0

>  <SCORE.INTRA.REPUL.0>
0

>  <SCORE.INTRA.SOLV>
-0.164854

>  <SCORE.INTRA.SOLV.lig_0>
-47.5333

>  <SCORE.INTRA.VDW>
-0.322005

>  <SCORE.INTRA.VDW.0>
-0.287413

>  <SCORE.INTRA.norm>
-0.610947

>  <SCORE.RESTR>
0.0154302

>  <SCORE.RESTR.CAVITY>
0.0154302

>  <SCORE.RESTR.norm>
0.00110216

>  <SCORE.SYSTEM>
0

>  <SCORE.SYSTEM.CONST>
0

>  <SCORE.SYSTEM.DIHEDRAL>
0

>  <SCORE.SYSTEM.SOLV>
0

>  <SCORE.SYSTEM.norm>
0

>  <SCORE.heavy>
14

>  <SCORE.norm>
-0.566141

>  <RMSD>
2.391

$$$$
ligand
 OpenBabel11021811493D
libRbt.so/2013.1/901 2013/11/27
 14 13  0  0  0  0  0  0  0  0999 V2000
   61.0041   -1.1863    3.4536 N   0  0  0  0  0  0  0  0  0  0  0  0
   60.1399   -1.0545    2.3013 C   0  0  0  0  0  0  0  0  0  0  0  0
   58.6694   -1.1088    2.7640 C   0  0  0  0  0  0  0  0  0  0  0  0
   57.6508   -1.0408    1.6156 C   0  0  0  0  0  0  0  0  0  0  0  0
   56.2350   -1.0876    2.0117 N   0  0  0  0  0  0  0  0  0  0  0  0
   55.4251    0.1038    2.2601 C   0  0  0  0  0  0  0  0  0  0  0  0
   54.5272    0.4713    1.0833 C   0  0  0  0  0  0  0  0  0  0  0  0
   53.7642    1.7853    1.2804 C   0  0  0  0  0  0  0  0  0  0  0  0
   52.9087    2.1422    0.0591 C   0  0  0  0  0  0  0  0  0  0  0  0
   51.8509    1.1463   -0.0985 N   0  0  0  0  0  0  0  0  0  0  0  0
   51.8259    0.1237   -1.1460 C   0  0  0  0  0  0  0  0  0  0  0  0
   51.5928    0.7100   -2.5453 C   0  0  0  0  0  0  0  0  0  0  0  0
   51.4898   -0.3929   -3.6039 C   0  0  0  0  0  0  0  0  0  0  0  0
   51.2600    0.2119   -4.9127 N   0  0  0  0  0  0  0  0  0  0  0  0
  1  2  1  0  0  0  0
  2  3  1  0  0  0  0
  3  4  1  0  0  0  0
  4  5  1  0  0  0  0
  5  6  1  0  0  0  0
  6  7  1  0  0  0  0
  7  8  1  0  0  0  0
  8  9  1  0  0  0  0
  9 10  1  0  0  0  0
 10 11  1  0  0  0  0
 11 12  1  0  0  0  0
 12 13  1  0  0  0  0
 13 14  1  0  0  0  0
M  END
>  <CHROM.1>
-177.43459061,-179.91305042,92.71171937,100.12614055,-174.94448169,178.16957756
65.54583441,-107.15309456,-69.07585320,-176.63035353,179.62505521,54.88162310
0.05893056,0.32313111,-0.45662429,0.44576719,-2.00346993

>  <Name>
ligand

>  <RI>
0

>  <Rbt.Current_Directory>
/home/itssahil/PROJECTS/Mol_Feturizer/New_Systems/rnas/4FAW

>  <Rbt.Executable>
rbdock ($Id: //depot/dev/client3/rdock/2013.1/src/exe/rbdock.cxx#4 $)

>  <Rbt.Library>
libRbt.so (2013.1, Build901 2013/11/27)

>  <Rbt.Parameter_File>
/export/apps/rDock/src/rDock_2013.1_src/data/scripts/dock_solv.prm

>  <Rbt.Receptor>
prm/pocket_docking_8.prm

>  <SCORE>
-8.58812

>  <SCORE.INTER>
0.680162

>  <SCORE.INTER.CONST>
1

>  <SCORE.INTER.POLAR>
0

>  <SCORE.INTER.ROT>
11

>  <SCORE.INTER.SOLV>
14.483

>  <SCORE.INTER.VDW>
-15.3076

>  <SCORE.INTER.norm>
0.048583

>  <SCORE.INTRA>
-9.26829

>  <SCORE.INTRA.DIHEDRAL>
-16.0822

>  <SCORE.INTRA.DIHEDRAL.0>
19.1003

>  <SCORE.INTRA.POLAR>
0

>  <SCORE.INTRA.POLAR.0>
0

>  <SCORE.INTRA.REPUL>
0

>  <SCORE.INTRA.REPUL.0>
0

>  <SCORE.INTRA.SOLV>
-1.09573

>  <SCORE.INTRA.SOLV.lig_0>
-47.5333

>  <SCORE.INTRA.VDW>
-0.679306

>  <SCORE.INTRA.VDW.0>
-0.287413

>  <SCORE.INTRA.norm>
-0.66202

>  <SCORE.RESTR>
0

>  <SCORE.RESTR.CAVITY>
0

>  <SCORE.RESTR.norm>
0

>  <SCORE.SYSTEM>
0

>  <SCORE.SYSTEM.CONST>
0

>  <SCORE.SYSTEM.DIHEDRAL>
0

>  <SCORE.SYSTEM.SOLV>
0

>  <SCORE.SYSTEM.norm>
0

>  <SCORE.heavy>
14

>  <SCORE.norm>
-0.613437

>  <RMSD>
2.418

$$$$
ligand
 OpenBabel11021811493D
libRbt.so/2013.1/901 2013/11/27
 14 13  0  0  0  0  0  0  0  0999 V2000
   58.7990   -1.7283    1.5085 N   0  0  0  0  0  0  0  0  0  0  0  0
   57.6822   -1.5126    0.6149 C   0  0  0  0  0  0  0  0  0  0  0  0
   57.7496   -0.0746    0.0606 C   0  0  0  0  0  0  0  0  0  0  0  0
   57.7181    1.0142    1.1443 C   0  0  0  0  0  0  0  0  0  0  0  0
   56.4672    1.1186    1.9111 N   0  0  0  0  0  0  0  0  0  0  0  0
   55.3278    1.9330    1.4924 C   0  0  0  0  0  0  0  0  0  0  0  0
   54.1650    1.1030    0.9583 C   0  0  0  0  0  0  0  0  0  0  0  0
   53.1085    1.9309    0.2195 C   0  0  0  0  0  0  0  0  0  0  0  0
   52.0766    1.0456   -0.4893 C   0  0  0  0  0  0  0  0  0  0  0  0
   51.2292    1.8772   -1.3414 N   0  0  0  0  0  0  0  0  0  0  0  0
   51.5222    2.1982   -2.7394 C   0  0  0  0  0  0  0  0  0  0  0  0
   51.0049    1.1331   -3.7162 C   0  0  0  0  0  0  0  0  0  0  0  0
   51.3429    1.4929   -5.1667 C   0  0  0  0  0  0  0  0  0  0  0  0
   50.7230    0.5220   -6.0636 N   0  0  0  0  0  0  0  0  0  0  0  0
  1  2  1  0  0  0  0
  2  3  1  0  0  0  0
  3  4  1  0  0  0  0
  4  5  1  0  0  0  0
  5  6  1  0  0  0  0
  6  7  1  0  0  0  0
  7  8  1  0  0  0  0
  8  9  1  0  0  0  0
  9 10  1  0  0  0  0
 10 11  1  0  0  0  0
 11 12  1  0  0  0  0
 12 13  1  0  0  0  0
 13 14  1  0  0  0  0
M  END
>  <CHROM.1>
-58.81130812,-65.95463089,-87.54495338,105.94910341,-166.50265250,171.00502184
-171.14838937,89.47403831,86.38578895,-179.33877513,-174.62549548,54.20825851
0.86111019,-0.82901173,-0.51734250,0.49719463,-1.99226224

>  <Name>
ligand

>  <RI>
0

>  <Rbt.Current_Directory>
/home/itssahil/PROJECTS/Mol_Feturizer/New_Systems/rnas/4FAW

>  <Rbt.Executable>
rbdock ($Id: //depot/dev/client3/rdock/2013.1/src/exe/rbdock.cxx#4 $)

>  <Rbt.Library>
libRbt.so (2013.1, Build901 2013/11/27)

>  <Rbt.Parameter_File>
/export/apps/rDock/src/rDock_2013.1_src/data/scripts/dock_solv.prm

>  <Rbt.Receptor>
prm/pocket_docking_3.prm

>  <SCORE>
-4.03863

>  <SCORE.INTER>
4.18494

>  <SCORE.INTER.CONST>
1

>  <SCORE.INTER.POLAR>
0

>  <SCORE.INTER.ROT>
11

>  <SCORE.INTER.SOLV>
10.8692

>  <SCORE.INTER.VDW>
-11.7664

>  <SCORE.INTER.norm>
0.298924

>  <SCORE.INTRA>
-8.22357

>  <SCORE.INTRA.DIHEDRAL>
-14.9278

>  <SCORE.INTRA.DIHEDRAL.0>
19.1003

>  <SCORE.INTRA.POLAR>
0

>  <SCORE.INTRA.POLAR.0>
0

>  <SCORE.INTRA.REPUL>
0

>  <SCORE.INTRA.REPUL.0>
0

>  <SCORE.INTRA.SOLV>
0.230179

>  <SCORE.INTRA.SOLV.lig_0>
-47.5333

>  <SCORE.INTRA.VDW>
-0.874733

>  <SCORE.INTRA.VDW.0>
-0.287413

>  <SCORE.INTRA.norm>
-0.587398

>  <SCORE.RESTR>
0

>  <SCORE.RESTR.CAVITY>
0

>  <SCORE.RESTR.norm>
0

>  <SCORE.SYSTEM>
0

>  <SCORE.SYSTEM.CONST>
0

>  <SCORE.SYSTEM.DIHEDRAL>
0

>  <SCORE.SYSTEM.SOLV>
0

>  <SCORE.SYSTEM.norm>
0

>  <SCORE.heavy>
14

>  <SCORE.norm>
-0.288473

>  <RMSD>
2.423

$$$$
ligand
 OpenBabel11021811493D
libRbt.so/2013.1/901 2013/11/27
 14 13  0  0  0  0  0  0  0  0999 V2000
   50.6318    2.2476   -5.6151 N   0  0  0  0  0  0  0  0  0  0  0  0
   50.4737    1.9765   -4.2031 C   0  0  0  0  0  0  0  0  0  0  0  0
   51.7262    1.2384   -3.6873 C   0  0  0  0  0  0  0  0  0  0  0  0
   53.0218    2.0575   -3.7945 C   0  0  0  0  0  0  0  0  0  0  0  0
   53.0780    3.2774   -2.9745 N   0  0  0  0  0  0  0  0  0  0  0  0
   53.9667    3.4388   -1.8251 C   0  0  0  0  0  0  0  0  0  0  0  0
   55.4350    3.2110   -2.1692 C   0  0  0  0  0  0  0  0  0  0  0  0
   56.3613    3.2293   -0.9489 C   0  0  0  0  0  0  0  0  0  0  0  0
   57.7861    2.7865   -1.3018 C   0  0  0  0  0  0  0  0  0  0  0  0
   58.6439    2.9350   -0.1280 N   0  0  0  0  0  0  0  0  0  0  0  0
   58.5714    2.0867    1.0630 C   0  0  0  0  0  0  0  0  0  0  0  0
   59.5110    2.5522    2.1840 C   0  0  0  0  0  0  0  0  0  0  0  0
   59.3921    1.6567    3.4216 C   0  0  0  0  0  0  0  0  0  0  0  0
   60.2328    2.1912    4.4888 N   0  0  0  0  0  0  0  0  0  0  0  0
  1  2  1  0  0  0  0
  2  3  1  0  0  0  0
  3  4  1  0  0  0  0
  4  5  1  0  0  0  0
  5  6  1  0  0  0  0
  6  7  1  0  0  0  0
  7  8  1  0  0  0  0
  8  9  1  0  0  0  0
  9 10  1  0  0  0  0
 10 11  1  0  0  0  0
 11 12  1  0  0  0  0
 12 13  1  0  0  0  0
 13 14  1  0  0  0  0
M  END
>  <CHROM.1>
62.91440005,64.33417951,111.57374923,55.94497315,-173.84825713,171.24017189
175.17199039,71.01130043,-175.01448096,179.05228243,-176.13375335,55.63083796
2.49170007,-1.10646518,-2.51623422,0.35884248,2.01466405

>  <Name>
ligand

>  <RI>
0

>  <Rbt.Current_Directory>
/home/itssahil/PROJECTS/Mol_Feturizer/New_Systems/rnas/4FAW

>  <Rbt.Executable>
rbdock ($Id: //depot/dev/client3/rdock/2013.1/src/exe/rbdock.cxx#4 $)

>  <Rbt.Library>
libRbt.so (2013.1, Build901 2013/11/27)

>  <Rbt.Parameter_File>
/export/apps/rDock/src/rDock_2013.1_src/data/scripts/dock_solv.prm

>  <Rbt.Receptor>
prm/pocket_docking_4.prm

>  <SCORE>
-5.37104

>  <SCORE.INTER>
3.30962

>  <SCORE.INTER.CONST>
1

>  <SCORE.INTER.POLAR>
0

>  <SCORE.INTER.ROT>
11

>  <SCORE.INTER.SOLV>
8.924

>  <SCORE.INTER.VDW>
-11.7016

>  <SCORE.INTER.norm>
0.236401

>  <SCORE.INTRA>
-8.68066

>  <SCORE.INTRA.DIHEDRAL>
-17.1185

>  <SCORE.INTRA.DIHEDRAL.0>
19.1003

>  <SCORE.INTRA.POLAR>
0

>  <SCORE.INTRA.POLAR.0>
0

>  <SCORE.INTRA.REPUL>
0

>  <SCORE.INTRA.REPUL.0>
0

>  <SCORE.INTRA.SOLV>
0.148494

>  <SCORE.INTRA.SOLV.lig_0>
-47.5333

>  <SCORE.INTRA.VDW>
-0.195669

>  <SCORE.INTRA.VDW.0>
-0.287413

>  <SCORE.INTRA.norm>
-0.620047

>  <SCORE.RESTR>
0

>  <SCORE.RESTR.CAVITY>
0

>  <SCORE.RESTR.norm>
0

>  <SCORE.SYSTEM>
0

>  <SCORE.SYSTEM.CONST>
0

>  <SCORE.SYSTEM.DIHEDRAL>
0

>  <SCORE.SYSTEM.SOLV>
0

>  <SCORE.SYSTEM.norm>
0

>  <SCORE.heavy>
14

>  <SCORE.norm>
-0.383646

>  <RMSD>
2.447

$$$$
ligand
 OpenBabel11021811493D
libRbt.so/2013.1/901 2013/11/27
 14 13  0  0  0  0  0  0  0  0999 V2000
   53.0818    4.4465   -5.5929 N   0  0  0  0  0  0  0  0  0  0  0  0
   53.4078    3.4062   -4.6423 C   0  0  0  0  0  0  0  0  0  0  0  0
   53.0434    3.8870   -3.2227 C   0  0  0  0  0  0  0  0  0  0  0  0
   53.9754    4.9790   -2.6750 C   0  0  0  0  0  0  0  0  0  0  0  0
   55.3700    4.5732   -2.4424 N   0  0  0  0  0  0  0  0  0  0  0  0
   55.7495    3.3654   -1.7116 C   0  0  0  0  0  0  0  0  0  0  0  0
   57.0477    3.5254   -0.9272 C   0  0  0  0  0  0  0  0  0  0  0  0
   57.4505    2.2712   -0.1448 C   0  0  0  0  0  0  0  0  0  0  0  0
   57.8521    1.1187   -1.0730 C   0  0  0  0  0  0  0  0  0  0  0  0
   57.7027   -0.1495   -0.3625 N   0  0  0  0  0  0  0  0  0  0  0  0
   58.4231   -0.5022    0.8623 C   0  0  0  0  0  0  0  0  0  0  0  0
   58.3624   -2.0031    1.1779 C   0  0  0  0  0  0  0  0  0  0  0  0
   58.9675   -2.3109    2.5514 C   0  0  0  0  0  0  0  0  0  0  0  0
   60.3987   -2.0241    2.5255 N   0  0  0  0  0  0  0  0  0  0  0  0
  1  2  1  0  0  0  0
  2  3  1  0  0  0  0
  3  4  1  0  0  0  0
  4  5  1  0  0  0  0
  5  6  1  0  0  0  0
  6  7  1  0  0  0  0
  7  8  1  0  0  0  0
  8  9  1  0  0  0  0
  9 10  1  0  0  0  0
 10 11  1  0  0  0  0
 11 12  1  0  0  0  0
 12 13  1  0  0  0  0
 13 14  1  0  0  0  0
M  END
>  <CHROM.1>
-71.55910452,-65.48235452,-48.97149812,-146.99111083,179.42921917,68.05264070
-157.41729084,-60.44377202,-164.70008877,-172.67670070,-66.10749668,56.48798248
1.75592182,-1.11967317,2.48076612,-0.79518735,-0.01166896

>  <Name>
ligand

>  <RI>
0

>  <Rbt.Current_Directory>
/home/itssahil/PROJECTS/Mol_Feturizer/New_Systems/rnas/4FAW

>  <Rbt.Executable>
rbdock ($Id: //depot/dev/client3/rdock/2013.1/src/exe/rbdock.cxx#4 $)

>  <Rbt.Library>
libRbt.so (2013.1, Build901 2013/11/27)

>  <Rbt.Parameter_File>
/export/apps/rDock/src/rDock_2013.1_src/data/scripts/dock_solv.prm

>  <Rbt.Receptor>
prm/pocket_docking_3.prm

>  <SCORE>
-3.51051

>  <SCORE.INTER>
3.17509

>  <SCORE.INTER.CONST>
1

>  <SCORE.INTER.POLAR>
0

>  <SCORE.INTER.ROT>
11

>  <SCORE.INTER.SOLV>
10.5343

>  <SCORE.INTER.VDW>
-12.3281

>  <SCORE.INTER.norm>
0.226792

>  <SCORE.INTRA>
-6.6856

>  <SCORE.INTRA.DIHEDRAL>
-15.1987

>  <SCORE.INTRA.DIHEDRAL.0>
19.1003

>  <SCORE.INTRA.POLAR>
0

>  <SCORE.INTRA.POLAR.0>
0

>  <SCORE.INTRA.REPUL>
0

>  <SCORE.INTRA.REPUL.0>
0

>  <SCORE.INTRA.SOLV>
0.91634

>  <SCORE.INTRA.SOLV.lig_0>
-47.5333

>  <SCORE.INTRA.VDW>
0.455572

>  <SCORE.INTRA.VDW.0>
-0.287413

>  <SCORE.INTRA.norm>
-0.477543

>  <SCORE.RESTR>
0

>  <SCORE.RESTR.CAVITY>
0

>  <SCORE.RESTR.norm>
0

>  <SCORE.SYSTEM>
0

>  <SCORE.SYSTEM.CONST>
0

>  <SCORE.SYSTEM.DIHEDRAL>
0

>  <SCORE.SYSTEM.SOLV>
0

>  <SCORE.SYSTEM.norm>
0

>  <SCORE.heavy>
14

>  <SCORE.norm>
-0.250751

>  <RMSD>
2.474

$$$$
ligand
 OpenBabel11021811493D
libRbt.so/2013.1/901 2013/11/27
 14 13  0  0  0  0  0  0  0  0999 V2000
   60.5764   -3.1813    3.3225 N   0  0  0  0  0  0  0  0  0  0  0  0
   59.7517   -2.0414    2.9869 C   0  0  0  0  0  0  0  0  0  0  0  0
   60.5960   -0.7556    3.1037 C   0  0  0  0  0  0  0  0  0  0  0  0
   59.7862    0.5399    2.9393 C   0  0  0  0  0  0  0  0  0  0  0  0
   59.0989    0.7062    1.6495 N   0  0  0  0  0  0  0  0  0  0  0  0
   58.7244    2.0058    1.0946 C   0  0  0  0  0  0  0  0  0  0  0  0
   57.6568    1.9065    0.0099 C   0  0  0  0  0  0  0  0  0  0  0  0
   57.3007    3.2543   -0.6258 C   0  0  0  0  0  0  0  0  0  0  0  0
   56.1309    3.1347   -1.6098 C   0  0  0  0  0  0  0  0  0  0  0  0
   55.8185    4.4549   -2.1530 N   0  0  0  0  0  0  0  0  0  0  0  0
   54.5590    4.8012   -2.8142 C   0  0  0  0  0  0  0  0  0  0  0  0
   54.2361    3.8814   -3.9998 C   0  0  0  0  0  0  0  0  0  0  0  0
   52.9273    4.2894   -4.6842 C   0  0  0  0  0  0  0  0  0  0  0  0
   52.6964    3.4283   -5.8403 N   0  0  0  0  0  0  0  0  0  0  0  0
  1  2  1  0  0  0  0
  2  3  1  0  0  0  0
  3  4  1  0  0  0  0
  4  5  1  0  0  0  0
  5  6  1  0  0  0  0
  6  7  1  0  0  0  0
  7  8  1  0  0  0  0
  8  9  1  0  0  0  0
  9 10  1  0  0  0  0
 10 11  1  0  0  0  0
 11 12  1  0  0  0  0
 12 13  1  0  0  0  0
 13 14  1  0  0  0  0
M  END
>  <CHROM.1>
-172.87972698,-60.53090827,-155.83932176,-161.45064933,-177.35150320,-174.37569640
178.51851910,-162.07135821,-55.66620092,-178.86879602,177.31627836,57.13284096
1.88767408,-0.47279575,0.51854241,0.84148712,3.12954443

>  <Name>
ligand

>  <RI>
0

>  <Rbt.Current_Directory>
/home/itssahil/PROJECTS/Mol_Feturizer/New_Systems/rnas/4FAW

>  <Rbt.Executable>
rbdock ($Id: //depot/dev/client3/rdock/2013.1/src/exe/rbdock.cxx#4 $)

>  <Rbt.Library>
libRbt.so (2013.1, Build901 2013/11/27)

>  <Rbt.Parameter_File>
/export/apps/rDock/src/rDock_2013.1_src/data/scripts/dock_solv.prm

>  <Rbt.Receptor>
prm/pocket_docking_3.prm

>  <SCORE>
-5.07105

>  <SCORE.INTER>
4.96414

>  <SCORE.INTER.CONST>
1

>  <SCORE.INTER.POLAR>
0

>  <SCORE.INTER.ROT>
11

>  <SCORE.INTER.SOLV>
6.67848

>  <SCORE.INTER.VDW>
-9.85007

>  <SCORE.INTER.norm>
0.354581

>  <SCORE.INTRA>
-10.0386

>  <SCORE.INTRA.DIHEDRAL>
-17.7694

>  <SCORE.INTRA.DIHEDRAL.0>
19.1003

>  <SCORE.INTRA.POLAR>
0

>  <SCORE.INTRA.POLAR.0>
0

>  <SCORE.INTRA.REPUL>
0

>  <SCORE.INTRA.REPUL.0>
0

>  <SCORE.INTRA.SOLV>
-1.18766

>  <SCORE.INTRA.SOLV.lig_0>
-47.5333

>  <SCORE.INTRA.VDW>
-0.560065

>  <SCORE.INTRA.VDW.0>
-0.287413

>  <SCORE.INTRA.norm>
-0.717041

>  <SCORE.RESTR>
0.00338944

>  <SCORE.RESTR.CAVITY>
0.00338944

>  <SCORE.RESTR.norm>
0.000242103

>  <SCORE.SYSTEM>
0

>  <SCORE.SYSTEM.CONST>
0

>  <SCORE.SYSTEM.DIHEDRAL>
0

>  <SCORE.SYSTEM.SOLV>
0

>  <SCORE.SYSTEM.norm>
0

>  <SCORE.heavy>
14

>  <SCORE.norm>
-0.362218

>  <RMSD>
2.498

$$$$
ligand
 OpenBabel11021811493D
libRbt.so/2013.1/901 2013/11/27
 14 13  0  0  0  0  0  0  0  0999 V2000
   52.2864    3.6636   -3.7534 N   0  0  0  0  0  0  0  0  0  0  0  0
   52.6593    3.0828   -2.4823 C   0  0  0  0  0  0  0  0  0  0  0  0
   54.0224    3.6574   -2.0450 C   0  0  0  0  0  0  0  0  0  0  0  0
   54.5355    3.0989   -0.7086 C   0  0  0  0  0  0  0  0  0  0  0  0
   55.8236    3.6348   -0.2428 N   0  0  0  0  0  0  0  0  0  0  0  0
   57.0764    3.4844   -0.9810 C   0  0  0  0  0  0  0  0  0  0  0  0
   57.4760    2.0271   -1.1880 C   0  0  0  0  0  0  0  0  0  0  0  0
   57.6538    1.2479    0.1191 C   0  0  0  0  0  0  0  0  0  0  0  0
   57.8391   -0.2540   -0.1274 C   0  0  0  0  0  0  0  0  0  0  0  0
   58.1291   -0.9205    1.1404 N   0  0  0  0  0  0  0  0  0  0  0  0
   59.4336   -0.9041    1.8049 C   0  0  0  0  0  0  0  0  0  0  0  0
   59.4885   -1.8245    3.0322 C   0  0  0  0  0  0  0  0  0  0  0  0
   60.8571   -1.7612    3.7181 C   0  0  0  0  0  0  0  0  0  0  0  0
   60.8655   -2.6624    4.8666 N   0  0  0  0  0  0  0  0  0  0  0  0
  1  2  1  0  0  0  0
  2  3  1  0  0  0  0
  3  4  1  0  0  0  0
  4  5  1  0  0  0  0
  5  6  1  0  0  0  0
  6  7  1  0  0  0  0
  7  8  1  0  0  0  0
  8  9  1  0  0  0  0
  9 10  1  0  0  0  0
 10 11  1  0  0  0  0
 11 12  1  0  0  0  0
 12 13  1  0  0  0  0
 13 14  1  0  0  0  0
M  END
>  <CHROM.1>
-179.27860673,-179.11640111,-61.61873363,-60.44785173,-58.87889556,171.12179358
174.67068076,-77.86664432,-173.15671697,-178.86554860,-179.33552622,57.01055387
1.11223081,0.22508310,2.35965290,-0.45680785,-0.38832770

>  <Name>
ligand

>  <RI>
0

>  <Rbt.Current_Directory>
/home/itssahil/PROJECTS/Mol_Feturizer/New_Systems/rnas/4FAW

>  <Rbt.Executable>
rbdock ($Id: //depot/dev/client3/rdock/2013.1/src/exe/rbdock.cxx#4 $)

>  <Rbt.Library>
libRbt.so (2013.1, Build901 2013/11/27)

>  <Rbt.Parameter_File>
/export/apps/rDock/src/rDock_2013.1_src/data/scripts/dock_solv.prm

>  <Rbt.Receptor>
prm/pocket_docking_3.prm

>  <SCORE>
-7.29671

>  <SCORE.INTER>
2.69268

>  <SCORE.INTER.CONST>
1

>  <SCORE.INTER.POLAR>
0

>  <SCORE.INTER.ROT>
11

>  <SCORE.INTER.SOLV>
5.73642

>  <SCORE.INTER.VDW>
-11.0504

>  <SCORE.INTER.norm>
0.192334

>  <SCORE.INTRA>
-9.98939

>  <SCORE.INTRA.DIHEDRAL>
-18.3683

>  <SCORE.INTRA.DIHEDRAL.0>
19.1003

>  <SCORE.INTRA.POLAR>
0

>  <SCORE.INTRA.POLAR.0>
0

>  <SCORE.INTRA.REPUL>
0

>  <SCORE.INTRA.REPUL.0>
0

>  <SCORE.INTRA.SOLV>
-1.07865

>  <SCORE.INTRA.SOLV.lig_0>
-47.5333

>  <SCORE.INTRA.VDW>
-0.265932

>  <SCORE.INTRA.VDW.0>
-0.287413

>  <SCORE.INTRA.norm>
-0.713528

>  <SCORE.RESTR>
0

>  <SCORE.RESTR.CAVITY>
0

>  <SCORE.RESTR.norm>
0

>  <SCORE.SYSTEM>
0

>  <SCORE.SYSTEM.CONST>
0

>  <SCORE.SYSTEM.DIHEDRAL>
0

>  <SCORE.SYSTEM.SOLV>
0

>  <SCORE.SYSTEM.norm>
0

>  <SCORE.heavy>
14

>  <SCORE.norm>
-0.521194

>  <RMSD>
2.535

$$$$
ligand
 OpenBabel11021811493D
libRbt.so/2013.1/901 2013/11/27
 14 13  0  0  0  0  0  0  0  0999 V2000
   58.7232   -1.0487    1.5221 N   0  0  0  0  0  0  0  0  0  0  0  0
   58.0380   -0.7355    0.2873 C   0  0  0  0  0  0  0  0  0  0  0  0
   57.1357    0.4958    0.5088 C   0  0  0  0  0  0  0  0  0  0  0  0
   55.9254    0.2275    1.4167 C   0  0  0  0  0  0  0  0  0  0  0  0
   55.1759    1.4157    1.8526 N   0  0  0  0  0  0  0  0  0  0  0  0
   54.4560    2.2986    0.9365 C   0  0  0  0  0  0  0  0  0  0  0  0
   52.9965    1.8990    0.7456 C   0  0  0  0  0  0  0  0  0  0  0  0
   52.1927    2.8949   -0.0967 C   0  0  0  0  0  0  0  0  0  0  0  0
   52.6380    2.8979   -1.5639 C   0  0  0  0  0  0  0  0  0  0  0  0
   51.8801    3.9093   -2.2977 N   0  0  0  0  0  0  0  0  0  0  0  0
   50.4370    3.8500   -2.5376 C   0  0  0  0  0  0  0  0  0  0  0  0
   50.0861    3.2929   -3.9242 C   0  0  0  0  0  0  0  0  0  0  0  0
   50.5731    1.8492   -4.0866 C   0  0  0  0  0  0  0  0  0  0  0  0
   50.3064    1.3986   -5.4494 N   0  0  0  0  0  0  0  0  0  0  0  0
  1  2  1  0  0  0  0
  2  3  1  0  0  0  0
  3  4  1  0  0  0  0
  4  5  1  0  0  0  0
  5  6  1  0  0  0  0
  6  7  1  0  0  0  0
  7  8  1  0  0  0  0
  8  9  1  0  0  0  0
  9 10  1  0  0  0  0
 10 11  1  0  0  0  0
 11 12  1  0  0  0  0
 12 13  1  0  0  0  0
 13 14  1  0  0  0  0
M  END
>  <CHROM.1>
-69.51997888,169.39798368,64.00451925,91.67253442,174.08739826,68.68263885
-177.34137523,-65.97946381,-97.67206441,62.25170107,-175.80811058,53.61155753
1.76050325,-0.90609912,-0.34638906,0.62212345,-2.05113730

>  <Name>
ligand

>  <RI>
0

>  <Rbt.Current_Directory>
/home/itssahil/PROJECTS/Mol_Feturizer/New_Systems/rnas/4FAW

>  <Rbt.Executable>
rbdock ($Id: //depot/dev/client3/rdock/2013.1/src/exe/rbdock.cxx#4 $)

>  <Rbt.Library>
libRbt.so (2013.1, Build901 2013/11/27)

>  <Rbt.Parameter_File>
/export/apps/rDock/src/rDock_2013.1_src/data/scripts/dock_solv.prm

>  <Rbt.Receptor>
prm/pocket_docking_2.prm

>  <SCORE>
-1.81648

>  <SCORE.INTER>
6.32752

>  <SCORE.INTER.CONST>
1

>  <SCORE.INTER.POLAR>
0

>  <SCORE.INTER.ROT>
11

>  <SCORE.INTER.SOLV>
7.49648

>  <SCORE.INTER.VDW>
-9.21382

>  <SCORE.INTER.norm>
0.451965

>  <SCORE.INTRA>
-8.14937

>  <SCORE.INTRA.DIHEDRAL>
-16.2666

>  <SCORE.INTRA.DIHEDRAL.0>
19.1003

>  <SCORE.INTRA.POLAR>
0

>  <SCORE.INTRA.POLAR.0>
0

>  <SCORE.INTRA.REPUL>
0

>  <SCORE.INTRA.REPUL.0>
0

>  <SCORE.INTRA.SOLV>
-0.205108

>  <SCORE.INTRA.SOLV.lig_0>
-47.5333

>  <SCORE.INTRA.VDW>
0.0864621

>  <SCORE.INTRA.VDW.0>
-0.287413

>  <SCORE.INTRA.norm>
-0.582098

>  <SCORE.RESTR>
0.00538186

>  <SCORE.RESTR.CAVITY>
0.00538186

>  <SCORE.RESTR.norm>
0.000384418

>  <SCORE.SYSTEM>
0

>  <SCORE.SYSTEM.CONST>
0

>  <SCORE.SYSTEM.DIHEDRAL>
0

>  <SCORE.SYSTEM.SOLV>
0

>  <SCORE.SYSTEM.norm>
0

>  <SCORE.heavy>
14

>  <SCORE.norm>
-0.129748

>  <RMSD>
2.550

$$$$
ligand
 OpenBabel11021811493D
libRbt.so/2013.1/901 2013/11/27
 14 13  0  0  0  0  0  0  0  0999 V2000
   59.2255    0.1923    4.1676 N   0  0  0  0  0  0  0  0  0  0  0  0
   60.4435   -0.4177    3.6811 C   0  0  0  0  0  0  0  0  0  0  0  0
   60.2567   -0.8065    2.2001 C   0  0  0  0  0  0  0  0  0  0  0  0
   59.1812   -1.8789    1.9671 C   0  0  0  0  0  0  0  0  0  0  0  0
   57.7894   -1.4417    2.1556 N   0  0  0  0  0  0  0  0  0  0  0  0
   57.0637   -0.6163    1.1917 C   0  0  0  0  0  0  0  0  0  0  0  0
   57.3436    0.8744    1.3521 C   0  0  0  0  0  0  0  0  0  0  0  0
   56.5024    1.7597    0.4268 C   0  0  0  0  0  0  0  0  0  0  0  0
   56.8232    3.2481    0.6072 C   0  0  0  0  0  0  0  0  0  0  0  0
   55.9027    4.0433   -0.2028 N   0  0  0  0  0  0  0  0  0  0  0  0
   56.0995    4.3477   -1.6212 C   0  0  0  0  0  0  0  0  0  0  0  0
   54.8043    4.7792   -2.3231 C   0  0  0  0  0  0  0  0  0  0  0  0
   53.8068    3.6202   -2.4184 C   0  0  0  0  0  0  0  0  0  0  0  0
   52.6074    4.0697   -3.1189 N   0  0  0  0  0  0  0  0  0  0  0  0
  1  2  1  0  0  0  0
  2  3  1  0  0  0  0
  3  4  1  0  0  0  0
  4  5  1  0  0  0  0
  5  6  1  0  0  0  0
  6  7  1  0  0  0  0
  7  8  1  0  0  0  0
  8  9  1  0  0  0  0
  9 10  1  0  0  0  0
 10 11  1  0  0  0  0
 11 12  1  0  0  0  0
 12 13  1  0  0  0  0
 13 14  1  0  0  0  0
M  END
>  <CHROM.1>
-64.10726952,71.55376865,75.53205168,-83.55130299,-175.20065888,-179.38696679
-174.53537824,-84.74586825,160.92662937,-67.65072677,-178.69031087,56.98952746
1.55518717,0.57599883,-0.70115657,-0.71383714,-0.11852746

>  <Name>
ligand

>  <RI>
0

>  <Rbt.Current_Directory>
/home/itssahil/PROJECTS/Mol_Feturizer/New_Systems/rnas/4FAW

>  <Rbt.Executable>
rbdock ($Id: //depot/dev/client3/rdock/2013.1/src/exe/rbdock.cxx#4 $)

>  <Rbt.Library>
libRbt.so (2013.1, Build901 2013/11/27)

>  <Rbt.Parameter_File>
/export/apps/rDock/src/rDock_2013.1_src/data/scripts/dock_solv.prm

>  <Rbt.Receptor>
prm/pocket_docking_3.prm

>  <SCORE>
-3.05065

>  <SCORE.INTER>
5.09594

>  <SCORE.INTER.CONST>
1

>  <SCORE.INTER.POLAR>
0

>  <SCORE.INTER.ROT>
11

>  <SCORE.INTER.SOLV>
6.08363

>  <SCORE.INTER.VDW>
-9.56391

>  <SCORE.INTER.norm>
0.363996

>  <SCORE.INTRA>
-8.14659

>  <SCORE.INTRA.DIHEDRAL>
-16.8203

>  <SCORE.INTRA.DIHEDRAL.0>
19.1003

>  <SCORE.INTRA.POLAR>
0

>  <SCORE.INTRA.POLAR.0>
0

>  <SCORE.INTRA.REPUL>
0

>  <SCORE.INTRA.REPUL.0>
0

>  <SCORE.INTRA.SOLV>
2.69886

>  <SCORE.INTRA.SOLV.lig_0>
-47.5333

>  <SCORE.INTRA.VDW>
-1.08585

>  <SCORE.INTRA.VDW.0>
-0.287413

>  <SCORE.INTRA.norm>
-0.5819

>  <SCORE.RESTR>
0

>  <SCORE.RESTR.CAVITY>
0

>  <SCORE.RESTR.norm>
0

>  <SCORE.SYSTEM>
0

>  <SCORE.SYSTEM.CONST>
0

>  <SCORE.SYSTEM.DIHEDRAL>
0

>  <SCORE.SYSTEM.SOLV>
0

>  <SCORE.SYSTEM.norm>
0

>  <SCORE.heavy>
14

>  <SCORE.norm>
-0.217904

>  <RMSD>
2.551

$$$$
ligand
 OpenBabel11021811493D
libRbt.so/2013.1/901 2013/11/27
 14 13  0  0  0  0  0  0  0  0999 V2000
   58.7769   -0.3524    2.1366 N   0  0  0  0  0  0  0  0  0  0  0  0
   58.1792   -1.0052    0.9926 C   0  0  0  0  0  0  0  0  0  0  0  0
   56.9689   -0.1773    0.5141 C   0  0  0  0  0  0  0  0  0  0  0  0
   55.8334   -0.0788    1.5446 C   0  0  0  0  0  0  0  0  0  0  0  0
   54.5999    0.5729    1.0782 N   0  0  0  0  0  0  0  0  0  0  0  0
   54.4321    2.0229    0.9983 C   0  0  0  0  0  0  0  0  0  0  0  0
   52.9789    2.4642    1.1388 C   0  0  0  0  0  0  0  0  0  0  0  0
   52.0834    2.0042   -0.0161 C   0  0  0  0  0  0  0  0  0  0  0  0
   52.4229    2.7218   -1.3279 C   0  0  0  0  0  0  0  0  0  0  0  0
   51.4230    2.3822   -2.3382 N   0  0  0  0  0  0  0  0  0  0  0  0
   51.7370    1.9026   -3.6853 C   0  0  0  0  0  0  0  0  0  0  0  0
   50.4985    1.4074   -4.4451 C   0  0  0  0  0  0  0  0  0  0  0  0
   49.4867    2.5373   -4.6624 C   0  0  0  0  0  0  0  0  0  0  0  0
   50.0814    3.5628   -5.5145 N   0  0  0  0  0  0  0  0  0  0  0  0
  1  2  1  0  0  0  0
  2  3  1  0  0  0  0
  3  4  1  0  0  0  0
  4  5  1  0  0  0  0
  5  6  1  0  0  0  0
  6  7  1  0  0  0  0
  7  8  1  0  0  0  0
  8  9  1  0  0  0  0
  9 10  1  0  0  0  0
 10 11  1  0  0  0  0
 11 12  1  0  0  0  0
 12 13  1  0  0  0  0
 13 14  1  0  0  0  0
M  END
>  <CHROM.1>
-63.37493155,-173.46419629,-80.08994801,-152.73072034,-65.75596907,-68.98801700
-172.18062964,-129.41747688,170.49495906,62.63701669,63.81726121,53.53578840
1.42598946,-0.97036809,-0.54903898,0.54072997,-1.82692639

>  <Name>
ligand

>  <RI>
0

>  <Rbt.Current_Directory>
/home/itssahil/PROJECTS/Mol_Feturizer/New_Systems/rnas/4FAW

>  <Rbt.Executable>
rbdock ($Id: //depot/dev/client3/rdock/2013.1/src/exe/rbdock.cxx#4 $)

>  <Rbt.Library>
libRbt.so (2013.1, Build901 2013/11/27)

>  <Rbt.Parameter_File>
/export/apps/rDock/src/rDock_2013.1_src/data/scripts/dock_solv.prm

>  <Rbt.Receptor>
prm/pocket_docking_2.prm

>  <SCORE>
-3.91686

>  <SCORE.INTER>
3.61253

>  <SCORE.INTER.CONST>
1

>  <SCORE.INTER.POLAR>
0

>  <SCORE.INTER.ROT>
11

>  <SCORE.INTER.SOLV>
7.71269

>  <SCORE.INTER.VDW>
-11.0959

>  <SCORE.INTER.norm>
0.258038

>  <SCORE.INTRA>
-7.54721

>  <SCORE.INTRA.DIHEDRAL>
-16.1127

>  <SCORE.INTRA.DIHEDRAL.0>
19.1003

>  <SCORE.INTRA.POLAR>
0

>  <SCORE.INTRA.POLAR.0>
0

>  <SCORE.INTRA.REPUL>
0

>  <SCORE.INTRA.REPUL.0>
0

>  <SCORE.INTRA.SOLV>
1.62545

>  <SCORE.INTRA.SOLV.lig_0>
-47.5333

>  <SCORE.INTRA.VDW>
-0.303597

>  <SCORE.INTRA.VDW.0>
-0.287413

>  <SCORE.INTRA.norm>
-0.539086

>  <SCORE.RESTR>
0.0178123

>  <SCORE.RESTR.CAVITY>
0.0178123

>  <SCORE.RESTR.norm>
0.0012723

>  <SCORE.SYSTEM>
0

>  <SCORE.SYSTEM.CONST>
0

>  <SCORE.SYSTEM.DIHEDRAL>
0

>  <SCORE.SYSTEM.SOLV>
0

>  <SCORE.SYSTEM.norm>
0

>  <SCORE.heavy>
14

>  <SCORE.norm>
-0.279776

>  <RMSD>
2.574

$$$$
ligand
 OpenBabel11021811493D
libRbt.so/2013.1/901 2013/11/27
 14 13  0  0  0  0  0  0  0  0999 V2000
   52.0944    3.4099   -5.8023 N   0  0  0  0  0  0  0  0  0  0  0  0
   52.8810    2.7797   -4.7648 C   0  0  0  0  0  0  0  0  0  0  0  0
   53.6629    3.8639   -3.9950 C   0  0  0  0  0  0  0  0  0  0  0  0
   54.5510    3.3119   -2.8691 C   0  0  0  0  0  0  0  0  0  0  0  0
   55.3609    4.3050   -2.1470 N   0  0  0  0  0  0  0  0  0  0  0  0
   56.2921    3.9626   -1.0734 C   0  0  0  0  0  0  0  0  0  0  0  0
   57.4008    3.0170   -1.5238 C   0  0  0  0  0  0  0  0  0  0  0  0
   58.3984    2.6685   -0.4144 C   0  0  0  0  0  0  0  0  0  0  0  0
   57.7948    1.7139    0.6226 C   0  0  0  0  0  0  0  0  0  0  0  0
   58.8266    1.3263    1.5821 N   0  0  0  0  0  0  0  0  0  0  0  0
   59.3123    2.1820    2.6662 C   0  0  0  0  0  0  0  0  0  0  0  0
   59.7020    1.3894    3.9217 C   0  0  0  0  0  0  0  0  0  0  0  0
   60.1055    2.3214    5.0689 C   0  0  0  0  0  0  0  0  0  0  0  0
   60.2690    1.5414    6.2920 N   0  0  0  0  0  0  0  0  0  0  0  0
  1  2  1  0  0  0  0
  2  3  1  0  0  0  0
  3  4  1  0  0  0  0
  4  5  1  0  0  0  0
  5  6  1  0  0  0  0
  6  7  1  0  0  0  0
  7  8  1  0  0  0  0
  8  9  1  0  0  0  0
  9 10  1  0  0  0  0
 10 11  1  0  0  0  0
 11 12  1  0  0  0  0
 12 13  1  0  0  0  0
 13 14  1  0  0  0  0
M  END
>  <CHROM.1>
-179.45187331,177.38966981,-178.19373362,60.31058934,179.00595029,72.87191640
174.94574904,76.55070701,146.48898931,-175.75635105,171.43638289,56.90380702
2.69951223,-0.17406937,2.21699763,0.22977376,-1.54310709

>  <Name>
ligand

>  <RI>
0

>  <Rbt.Current_Directory>
/home/itssahil/PROJECTS/Mol_Feturizer/New_Systems/rnas/4FAW

>  <Rbt.Executable>
rbdock ($Id: //depot/dev/client3/rdock/2013.1/src/exe/rbdock.cxx#4 $)

>  <Rbt.Library>
libRbt.so (2013.1, Build901 2013/11/27)

>  <Rbt.Parameter_File>
/export/apps/rDock/src/rDock_2013.1_src/data/scripts/dock_solv.prm

>  <Rbt.Receptor>
prm/pocket_docking_5.prm

>  <SCORE>
-6.37161

>  <SCORE.INTER>
2.9381

>  <SCORE.INTER.CONST>
1

>  <SCORE.INTER.POLAR>
0

>  <SCORE.INTER.ROT>
11

>  <SCORE.INTER.SOLV>
6.13848

>  <SCORE.INTER.VDW>
-11.0208

>  <SCORE.INTER.norm>
0.209865

>  <SCORE.INTRA>
-9.30971

>  <SCORE.INTRA.DIHEDRAL>
-17.0399

>  <SCORE.INTRA.DIHEDRAL.0>
19.1003

>  <SCORE.INTRA.POLAR>
0

>  <SCORE.INTRA.POLAR.0>
0

>  <SCORE.INTRA.REPUL>
0

>  <SCORE.INTRA.REPUL.0>
0

>  <SCORE.INTRA.SOLV>
-1.35839

>  <SCORE.INTRA.SOLV.lig_0>
-47.5333

>  <SCORE.INTRA.VDW>
-0.110571

>  <SCORE.INTRA.VDW.0>
-0.287413

>  <SCORE.INTRA.norm>
-0.664979

>  <SCORE.RESTR>
0

>  <SCORE.RESTR.CAVITY>
0

>  <SCORE.RESTR.norm>
0

>  <SCORE.SYSTEM>
0

>  <SCORE.SYSTEM.CONST>
0

>  <SCORE.SYSTEM.DIHEDRAL>
0

>  <SCORE.SYSTEM.SOLV>
0

>  <SCORE.SYSTEM.norm>
0

>  <SCORE.heavy>
14

>  <SCORE.norm>
-0.455115

>  <RMSD>
2.599

$$$$
ligand
 OpenBabel11021811493D
libRbt.so/2013.1/901 2013/11/27
 14 13  0  0  0  0  0  0  0  0999 V2000
   58.4256   -1.0972    1.4432 N   0  0  0  0  0  0  0  0  0  0  0  0
   57.9040   -0.3135    0.3451 C   0  0  0  0  0  0  0  0  0  0  0  0
   56.8147    0.6400    0.8779 C   0  0  0  0  0  0  0  0  0  0  0  0
   55.5503   -0.0749    1.3794 C   0  0  0  0  0  0  0  0  0  0  0  0
   54.4782    0.7976    1.8823 N   0  0  0  0  0  0  0  0  0  0  0  0
   54.3484    2.2085    1.5228 C   0  0  0  0  0  0  0  0  0  0  0  0
   52.9043    2.6300    1.2711 C   0  0  0  0  0  0  0  0  0  0  0  0
   52.2908    1.9998    0.0166 C   0  0  0  0  0  0  0  0  0  0  0  0
   52.9058    2.5638   -1.2697 C   0  0  0  0  0  0  0  0  0  0  0  0
   52.3250    1.8809   -2.4238 N   0  0  0  0  0  0  0  0  0  0  0  0
   51.5691    2.5471   -3.4859 C   0  0  0  0  0  0  0  0  0  0  0  0
   50.5393    1.6246   -4.1528 C   0  0  0  0  0  0  0  0  0  0  0  0
   49.7456    2.3627   -5.2359 C   0  0  0  0  0  0  0  0  0  0  0  0
   49.0322    3.4849   -4.6335 N   0  0  0  0  0  0  0  0  0  0  0  0
  1  2  1  0  0  0  0
  2  3  1  0  0  0  0
  3  4  1  0  0  0  0
  4  5  1  0  0  0  0
  5  6  1  0  0  0  0
  6  7  1  0  0  0  0
  7  8  1  0  0  0  0
  8  9  1  0  0  0  0
  9 10  1  0  0  0  0
 10 11  1  0  0  0  0
 11 12  1  0  0  0  0
 12 13  1  0  0  0  0
 13 14  1  0  0  0  0
M  END
>  <CHROM.1>
-67.09646804,-179.31435768,21.65271651,139.29094433,-67.92893912,-70.04465237
177.40513916,119.36796318,-151.99809744,178.69519398,-60.34276476,53.48807784
1.51826469,-0.89020398,-0.55273520,0.52674196,-1.82534868

>  <Name>
ligand

>  <RI>
0

>  <Rbt.Current_Directory>
/home/itssahil/PROJECTS/Mol_Feturizer/New_Systems/rnas/4FAW

>  <Rbt.Executable>
rbdock ($Id: //depot/dev/client3/rdock/2013.1/src/exe/rbdock.cxx#4 $)

>  <Rbt.Library>
libRbt.so (2013.1, Build901 2013/11/27)

>  <Rbt.Parameter_File>
/export/apps/rDock/src/rDock_2013.1_src/data/scripts/dock_solv.prm

>  <Rbt.Receptor>
prm/pocket_docking_2.prm

>  <SCORE>
-0.881986

>  <SCORE.INTER>
5.59152

>  <SCORE.INTER.CONST>
1

>  <SCORE.INTER.POLAR>
0

>  <SCORE.INTER.ROT>
11

>  <SCORE.INTER.SOLV>
10.5245

>  <SCORE.INTER.VDW>
-10.7138

>  <SCORE.INTER.norm>
0.399394

>  <SCORE.INTRA>
-6.48083

>  <SCORE.INTRA.DIHEDRAL>
-14.7198

>  <SCORE.INTRA.DIHEDRAL.0>
19.1003

>  <SCORE.INTRA.POLAR>
0

>  <SCORE.INTRA.POLAR.0>
0

>  <SCORE.INTRA.REPUL>
0

>  <SCORE.INTRA.REPUL.0>
0

>  <SCORE.INTRA.SOLV>
0.676684

>  <SCORE.INTRA.SOLV.lig_0>
-47.5333

>  <SCORE.INTRA.VDW>
0.540738

>  <SCORE.INTRA.VDW.0>
-0.287413

>  <SCORE.INTRA.norm>
-0.462917

>  <SCORE.RESTR>
0.00732592

>  <SCORE.RESTR.CAVITY>
0.00732592

>  <SCORE.RESTR.norm>
0.00052328

>  <SCORE.SYSTEM>
0

>  <SCORE.SYSTEM.CONST>
0

>  <SCORE.SYSTEM.DIHEDRAL>
0

>  <SCORE.SYSTEM.SOLV>
0

>  <SCORE.SYSTEM.norm>
0

>  <SCORE.heavy>
14

>  <SCORE.norm>
-0.062999

>  <RMSD>
2.621

$$$$
ligand
 OpenBabel11021811493D
libRbt.so/2013.1/901 2013/11/27
 14 13  0  0  0  0  0  0  0  0999 V2000
   58.9430   -0.9417    2.1177 N   0  0  0  0  0  0  0  0  0  0  0  0
   58.2440   -1.1594    0.8702 C   0  0  0  0  0  0  0  0  0  0  0  0
   57.2102   -0.0327    0.6674 C   0  0  0  0  0  0  0  0  0  0  0  0
   56.0717   -0.0370    1.6993 C   0  0  0  0  0  0  0  0  0  0  0  0
   55.1418    1.1006    1.6318 N   0  0  0  0  0  0  0  0  0  0  0  0
   53.9085    1.0914    0.8471 C   0  0  0  0  0  0  0  0  0  0  0  0
   53.2255    2.4540    0.7923 C   0  0  0  0  0  0  0  0  0  0  0  0
   51.9420    2.4640   -0.0443 C   0  0  0  0  0  0  0  0  0  0  0  0
   52.2152    2.1503   -1.5201 C   0  0  0  0  0  0  0  0  0  0  0  0
   51.0004    2.3851   -2.2978 N   0  0  0  0  0  0  0  0  0  0  0  0
   50.6880    1.7227   -3.5655 C   0  0  0  0  0  0  0  0  0  0  0  0
   49.7396    2.5448   -4.4492 C   0  0  0  0  0  0  0  0  0  0  0  0
   50.4501    3.7613   -5.0517 C   0  0  0  0  0  0  0  0  0  0  0  0
   50.9809    4.5939   -3.9763 N   0  0  0  0  0  0  0  0  0  0  0  0
  1  2  1  0  0  0  0
  2  3  1  0  0  0  0
  3  4  1  0  0  0  0
  4  5  1  0  0  0  0
  5  6  1  0  0  0  0
  6  7  1  0  0  0  0
  7  8  1  0  0  0  0
  8  9  1  0  0  0  0
  9 10  1  0  0  0  0
 10 11  1  0  0  0  0
 11 12  1  0  0  0  0
 12 13  1  0  0  0  0
 13 14  1  0  0  0  0
M  END
>  <CHROM.1>
-65.81882609,173.80881679,91.81921836,-172.04137006,179.14459893,-63.55955075
-170.94042337,-154.20311918,-154.58673473,72.40069635,-58.07085116,53.55416397
1.57828784,-0.87717616,-0.55969562,0.52830073,-1.67060060

>  <Name>
ligand

>  <RI>
0

>  <Rbt.Current_Directory>
/home/itssahil/PROJECTS/Mol_Feturizer/New_Systems/rnas/4FAW

>  <Rbt.Executable>
rbdock ($Id: //depot/dev/client3/rdock/2013.1/src/exe/rbdock.cxx#4 $)

>  <Rbt.Library>
libRbt.so (2013.1, Build901 2013/11/27)

>  <Rbt.Parameter_File>
/export/apps/rDock/src/rDock_2013.1_src/data/scripts/dock_solv.prm

>  <Rbt.Receptor>
prm/pocket_docking_2.prm

>  <SCORE>
-1.67857

>  <SCORE.INTER>
5.17187

>  <SCORE.INTER.CONST>
1

>  <SCORE.INTER.POLAR>
0

>  <SCORE.INTER.ROT>
11

>  <SCORE.INTER.SOLV>
7.94668

>  <SCORE.INTER.VDW>
-10.1343

>  <SCORE.INTER.norm>
0.36942

>  <SCORE.INTRA>
-6.87538

>  <SCORE.INTRA.DIHEDRAL>
-16.2585

>  <SCORE.INTRA.DIHEDRAL.0>
19.1003

>  <SCORE.INTRA.POLAR>
0

>  <SCORE.INTRA.POLAR.0>
0

>  <SCORE.INTRA.REPUL>
0

>  <SCORE.INTRA.REPUL.0>
0

>  <SCORE.INTRA.SOLV>
2.88775

>  <SCORE.INTRA.SOLV.lig_0>
-47.5333

>  <SCORE.INTRA.VDW>
-0.189986

>  <SCORE.INTRA.VDW.0>
-0.287413

>  <SCORE.INTRA.norm>
-0.491099

>  <SCORE.RESTR>
0.0249377

>  <SCORE.RESTR.CAVITY>
0.0249377

>  <SCORE.RESTR.norm>
0.00178127

>  <SCORE.SYSTEM>
0

>  <SCORE.SYSTEM.CONST>
0

>  <SCORE.SYSTEM.DIHEDRAL>
0

>  <SCORE.SYSTEM.SOLV>
0

>  <SCORE.SYSTEM.norm>
0

>  <SCORE.heavy>
14

>  <SCORE.norm>
-0.119898

>  <RMSD>
2.626

$$$$
ligand
 OpenBabel11021811493D
libRbt.so/2013.1/901 2013/11/27
 14 13  0  0  0  0  0  0  0  0999 V2000
   52.9710    2.5688   -4.7464 N   0  0  0  0  0  0  0  0  0  0  0  0
   53.6261    3.3459   -3.7173 C   0  0  0  0  0  0  0  0  0  0  0  0
   54.1295    4.6700   -4.3280 C   0  0  0  0  0  0  0  0  0  0  0  0
   54.7987    5.6105   -3.3138 C   0  0  0  0  0  0  0  0  0  0  0  0
   56.0463    5.1180   -2.7099 N   0  0  0  0  0  0  0  0  0  0  0  0
   56.1026    4.4179   -1.4279 C   0  0  0  0  0  0  0  0  0  0  0  0
   56.9497    3.1505   -1.4766 C   0  0  0  0  0  0  0  0  0  0  0  0
   56.9543    2.3645   -0.1614 C   0  0  0  0  0  0  0  0  0  0  0  0
   57.7084    1.0356   -0.2884 C   0  0  0  0  0  0  0  0  0  0  0  0
   57.5534    0.2711    0.9474 N   0  0  0  0  0  0  0  0  0  0  0  0
   57.2133   -1.1518    1.0036 C   0  0  0  0  0  0  0  0  0  0  0  0
   58.4414   -2.0503    1.2050 C   0  0  0  0  0  0  0  0  0  0  0  0
   59.1322   -1.7622    2.5419 C   0  0  0  0  0  0  0  0  0  0  0  0
   60.3125   -2.6117    2.6702 N   0  0  0  0  0  0  0  0  0  0  0  0
  1  2  1  0  0  0  0
  2  3  1  0  0  0  0
  3  4  1  0  0  0  0
  4  5  1  0  0  0  0
  5  6  1  0  0  0  0
  6  7  1  0  0  0  0
  7  8  1  0  0  0  0
  8  9  1  0  0  0  0
  9 10  1  0  0  0  0
 10 11  1  0  0  0  0
 11 12  1  0  0  0  0
 12 13  1  0  0  0  0
 13 14  1  0  0  0  0
M  END
>  <CHROM.1>
177.73597152,64.82003661,-94.71658113,132.67605639,-176.77663365,174.74575385
-173.88126744,133.69666375,98.54122684,62.53120926,-178.39107031,56.56704595
1.78424082,-0.98585172,2.27577996,-0.73803683,-0.21958731

>  <Name>
ligand

>  <RI>
0

>  <Rbt.Current_Directory>
/home/itssahil/PROJECTS/Mol_Feturizer/New_Systems/rnas/4FAW

>  <Rbt.Executable>
rbdock ($Id: //depot/dev/client3/rdock/2013.1/src/exe/rbdock.cxx#4 $)

>  <Rbt.Library>
libRbt.so (2013.1, Build901 2013/11/27)

>  <Rbt.Parameter_File>
/export/apps/rDock/src/rDock_2013.1_src/data/scripts/dock_solv.prm

>  <Rbt.Receptor>
prm/pocket_docking_4.prm

>  <SCORE>
-6.2503

>  <SCORE.INTER>
2.75022

>  <SCORE.INTER.CONST>
1

>  <SCORE.INTER.POLAR>
0

>  <SCORE.INTER.ROT>
11

>  <SCORE.INTER.SOLV>
10.554

>  <SCORE.INTER.VDW>
-12.6178

>  <SCORE.INTER.norm>
0.196445

>  <SCORE.INTRA>
-9.01115

>  <SCORE.INTRA.DIHEDRAL>
-14.9338

>  <SCORE.INTRA.DIHEDRAL.0>
19.1003

>  <SCORE.INTRA.POLAR>
0

>  <SCORE.INTRA.POLAR.0>
0

>  <SCORE.INTRA.REPUL>
0

>  <SCORE.INTRA.REPUL.0>
0

>  <SCORE.INTRA.SOLV>
-0.811637

>  <SCORE.INTRA.SOLV.lig_0>
-47.5333

>  <SCORE.INTRA.VDW>
-1.13842

>  <SCORE.INTRA.VDW.0>
-0.287413

>  <SCORE.INTRA.norm>
-0.643654

>  <SCORE.RESTR>
0.0106322

>  <SCORE.RESTR.CAVITY>
0.0106322

>  <SCORE.RESTR.norm>
0.000759444

>  <SCORE.SYSTEM>
0

>  <SCORE.SYSTEM.CONST>
0

>  <SCORE.SYSTEM.DIHEDRAL>
0

>  <SCORE.SYSTEM.SOLV>
0

>  <SCORE.SYSTEM.norm>
0

>  <SCORE.heavy>
14

>  <SCORE.norm>
-0.44645

>  <RMSD>
2.663

$$$$
ligand
 OpenBabel11021811493D
libRbt.so/2013.1/901 2013/11/27
 14 13  0  0  0  0  0  0  0  0999 V2000
   59.1750    0.6831    1.9236 N   0  0  0  0  0  0  0  0  0  0  0  0
   57.9502   -0.0639    2.1081 C   0  0  0  0  0  0  0  0  0  0  0  0
   56.8128    0.6317    1.3322 C   0  0  0  0  0  0  0  0  0  0  0  0
   55.4406   -0.0385    1.5019 C   0  0  0  0  0  0  0  0  0  0  0  0
   54.3324    0.5720    0.7517 N   0  0  0  0  0  0  0  0  0  0  0  0
   53.7162    1.8471    1.1144 C   0  0  0  0  0  0  0  0  0  0  0  0
   53.0574    2.5495   -0.0684 C   0  0  0  0  0  0  0  0  0  0  0  0
   51.9943    1.6998   -0.7722 C   0  0  0  0  0  0  0  0  0  0  0  0
   51.3038    2.4664   -1.9064 C   0  0  0  0  0  0  0  0  0  0  0  0
   52.3017    2.8726   -2.8937 N   0  0  0  0  0  0  0  0  0  0  0  0
   52.8707    1.9847   -3.9093 C   0  0  0  0  0  0  0  0  0  0  0  0
   52.3443    2.2796   -5.3207 C   0  0  0  0  0  0  0  0  0  0  0  0
   50.8281    2.0757   -5.4062 C   0  0  0  0  0  0  0  0  0  0  0  0
   50.1519    3.1879   -4.7451 N   0  0  0  0  0  0  0  0  0  0  0  0
  1  2  1  0  0  0  0
  2  3  1  0  0  0  0
  3  4  1  0  0  0  0
  4  5  1  0  0  0  0
  5  6  1  0  0  0  0
  6  7  1  0  0  0  0
  7  8  1  0  0  0  0
  8  9  1  0  0  0  0
  9 10  1  0  0  0  0
 10 11  1  0  0  0  0
 11 12  1  0  0  0  0
 12 13  1  0  0  0  0
 13 14  1  0  0  0  0
M  END
>  <CHROM.1>
-177.47480898,-178.50894165,-73.14372308,155.13370723,56.78108926,176.94941262
59.66033618,78.70627180,106.90135793,-61.69120015,74.66009272,53.73414265
1.62475330,-1.16353790,-0.79906035,0.26810417,-1.49273111

>  <Name>
ligand

>  <RI>
0

>  <Rbt.Current_Directory>
/home/itssahil/PROJECTS/Mol_Feturizer/New_Systems/rnas/4FAW

>  <Rbt.Executable>
rbdock ($Id: //depot/dev/client3/rdock/2013.1/src/exe/rbdock.cxx#4 $)

>  <Rbt.Library>
libRbt.so (2013.1, Build901 2013/11/27)

>  <Rbt.Parameter_File>
/export/apps/rDock/src/rDock_2013.1_src/data/scripts/dock_solv.prm

>  <Rbt.Receptor>
prm/pocket_docking_2.prm

>  <SCORE>
-0.0942211

>  <SCORE.INTER>
7.07455

>  <SCORE.INTER.CONST>
1

>  <SCORE.INTER.POLAR>
0

>  <SCORE.INTER.ROT>
11

>  <SCORE.INTER.SOLV>
7.49077

>  <SCORE.INTER.VDW>
-8.71389

>  <SCORE.INTER.norm>
0.505325

>  <SCORE.INTRA>
-7.19073

>  <SCORE.INTRA.DIHEDRAL>
-16.2975

>  <SCORE.INTRA.DIHEDRAL.0>
19.1003

>  <SCORE.INTRA.POLAR>
0

>  <SCORE.INTRA.POLAR.0>
0

>  <SCORE.INTRA.REPUL>
0

>  <SCORE.INTRA.REPUL.0>
0

>  <SCORE.INTRA.SOLV>
2.97024

>  <SCORE.INTRA.SOLV.lig_0>
-47.5333

>  <SCORE.INTRA.VDW>
-0.527098

>  <SCORE.INTRA.VDW.0>
-0.287413

>  <SCORE.INTRA.norm>
-0.513623

>  <SCORE.RESTR>
0.021951

>  <SCORE.RESTR.CAVITY>
0.021951

>  <SCORE.RESTR.norm>
0.00156793

>  <SCORE.SYSTEM>
0

>  <SCORE.SYSTEM.CONST>
0

>  <SCORE.SYSTEM.DIHEDRAL>
0

>  <SCORE.SYSTEM.SOLV>
0

>  <SCORE.SYSTEM.norm>
0

>  <SCORE.heavy>
14

>  <SCORE.norm>
-0.00673008

>  <RMSD>
2.671

$$$$
ligand
 OpenBabel11021811493D
libRbt.so/2013.1/901 2013/11/27
 14 13  0  0  0  0  0  0  0  0999 V2000
   51.3770    4.3275   -1.5564 N   0  0  0  0  0  0  0  0  0  0  0  0
   51.6153    2.9629   -1.1402 C   0  0  0  0  0  0  0  0  0  0  0  0
   53.1163    2.6426   -1.2950 C   0  0  0  0  0  0  0  0  0  0  0  0
   54.0263    3.4468   -0.3536 C   0  0  0  0  0  0  0  0  0  0  0  0
   55.4709    3.2159   -0.5074 N   0  0  0  0  0  0  0  0  0  0  0  0
   56.2493    3.6947   -1.6483 C   0  0  0  0  0  0  0  0  0  0  0  0
   57.7179    3.2885   -1.5817 C   0  0  0  0  0  0  0  0  0  0  0  0
   57.9403    1.7749   -1.6647 C   0  0  0  0  0  0  0  0  0  0  0  0
   57.5875    1.0689   -0.3502 C   0  0  0  0  0  0  0  0  0  0  0  0
   57.9959   -0.3321   -0.4285 N   0  0  0  0  0  0  0  0  0  0  0  0
   57.4774   -1.3950    0.4346 C   0  0  0  0  0  0  0  0  0  0  0  0
   57.9381   -1.2566    1.8923 C   0  0  0  0  0  0  0  0  0  0  0  0
   59.4642   -1.3328    2.0062 C   0  0  0  0  0  0  0  0  0  0  0  0
   59.8492   -1.2572    3.4124 N   0  0  0  0  0  0  0  0  0  0  0  0
  1  2  1  0  0  0  0
  2  3  1  0  0  0  0
  3  4  1  0  0  0  0
  4  5  1  0  0  0  0
  5  6  1  0  0  0  0
  6  7  1  0  0  0  0
  7  8  1  0  0  0  0
  8  9  1  0  0  0  0
  9 10  1  0  0  0  0
 10 11  1  0  0  0  0
 11 12  1  0  0  0  0
 12 13  1  0  0  0  0
 13 14  1  0  0  0  0
M  END
>  <CHROM.1>
65.87887124,-177.45594142,71.96919359,-178.45685541,64.66817317,-75.57100483
-172.07720894,-160.56606907,-68.96740098,-61.11426223,-177.46689690,56.27329149
1.48921900,-0.19878627,2.40809229,0.12537681,-0.70713456

>  <Name>
ligand

>  <RI>
0

>  <Rbt.Current_Directory>
/home/itssahil/PROJECTS/Mol_Feturizer/New_Systems/rnas/4FAW

>  <Rbt.Executable>
rbdock ($Id: //depot/dev/client3/rdock/2013.1/src/exe/rbdock.cxx#4 $)

>  <Rbt.Library>
libRbt.so (2013.1, Build901 2013/11/27)

>  <Rbt.Parameter_File>
/export/apps/rDock/src/rDock_2013.1_src/data/scripts/dock_solv.prm

>  <Rbt.Receptor>
prm/pocket_docking_5.prm

>  <SCORE>
-8.24387

>  <SCORE.INTER>
0.435529

>  <SCORE.INTER.CONST>
1

>  <SCORE.INTER.POLAR>
0

>  <SCORE.INTER.ROT>
11

>  <SCORE.INTER.SOLV>
11.4783

>  <SCORE.INTER.VDW>
-14.4691

>  <SCORE.INTER.norm>
0.0311092

>  <SCORE.INTRA>
-8.6794

>  <SCORE.INTRA.DIHEDRAL>
-17.1735

>  <SCORE.INTRA.DIHEDRAL.0>
19.1003

>  <SCORE.INTRA.POLAR>
0

>  <SCORE.INTRA.POLAR.0>
0

>  <SCORE.INTRA.REPUL>
0

>  <SCORE.INTRA.REPUL.0>
0

>  <SCORE.INTRA.SOLV>
0.548716

>  <SCORE.INTRA.SOLV.lig_0>
-47.5333

>  <SCORE.INTRA.VDW>
-0.366988

>  <SCORE.INTRA.VDW.0>
-0.287413

>  <SCORE.INTRA.norm>
-0.619957

>  <SCORE.RESTR>
0

>  <SCORE.RESTR.CAVITY>
0

>  <SCORE.RESTR.norm>
0

>  <SCORE.SYSTEM>
0

>  <SCORE.SYSTEM.CONST>
0

>  <SCORE.SYSTEM.DIHEDRAL>
0

>  <SCORE.SYSTEM.SOLV>
0

>  <SCORE.SYSTEM.norm>
0

>  <SCORE.heavy>
14

>  <SCORE.norm>
-0.588848

>  <RMSD>
2.676

$$$$
ligand
 OpenBabel11021811493D
libRbt.so/2013.1/901 2013/11/27
 14 13  0  0  0  0  0  0  0  0999 V2000
   60.1346   -0.5515    4.2659 N   0  0  0  0  0  0  0  0  0  0  0  0
   60.0313    0.8622    3.9775 C   0  0  0  0  0  0  0  0  0  0  0  0
   59.1533    1.0590    2.7246 C   0  0  0  0  0  0  0  0  0  0  0  0
   58.9580    2.5296    2.3241 C   0  0  0  0  0  0  0  0  0  0  0  0
   57.9947    2.7757    1.2401 N   0  0  0  0  0  0  0  0  0  0  0  0
   58.2861    2.5315   -0.1715 C   0  0  0  0  0  0  0  0  0  0  0  0
   57.0461    2.5969   -1.0570 C   0  0  0  0  0  0  0  0  0  0  0  0
   56.4026    3.9863   -1.1104 C   0  0  0  0  0  0  0  0  0  0  0  0
   55.2377    4.0427   -2.1057 C   0  0  0  0  0  0  0  0  0  0  0  0
   54.1346    3.2243   -1.6065 N   0  0  0  0  0  0  0  0  0  0  0  0
   53.0785    2.6568   -2.4469 C   0  0  0  0  0  0  0  0  0  0  0  0
   51.7789    2.3935   -1.6736 C   0  0  0  0  0  0  0  0  0  0  0  0
   51.9845    1.3465   -0.5740 C   0  0  0  0  0  0  0  0  0  0  0  0
   52.7288    1.9441    0.5307 N   0  0  0  0  0  0  0  0  0  0  0  0
  1  2  1  0  0  0  0
  2  3  1  0  0  0  0
  3  4  1  0  0  0  0
  4  5  1  0  0  0  0
  5  6  1  0  0  0  0
  6  7  1  0  0  0  0
  7  8  1  0  0  0  0
  8  9  1  0  0  0  0
  9 10  1  0  0  0  0
 10 11  1  0  0  0  0
 11 12  1  0  0  0  0
 12 13  1  0  0  0  0
 13 14  1  0  0  0  0
M  END
>  <CHROM.1>
179.46016708,-172.64349750,-76.55724642,168.42110407,64.84831633,174.87178618
68.05364518,-157.52328466,-154.79380379,-63.29838988,74.01750794,56.21068518
2.24284241,0.30805061,0.60310947,0.24037084,2.23894075

>  <Name>
ligand

>  <RI>
0

>  <Rbt.Current_Directory>
/home/itssahil/PROJECTS/Mol_Feturizer/New_Systems/rnas/4FAW

>  <Rbt.Executable>
rbdock ($Id: //depot/dev/client3/rdock/2013.1/src/exe/rbdock.cxx#4 $)

>  <Rbt.Library>
libRbt.so (2013.1, Build901 2013/11/27)

>  <Rbt.Parameter_File>
/export/apps/rDock/src/rDock_2013.1_src/data/scripts/dock_solv.prm

>  <Rbt.Receptor>
prm/pocket_docking_3.prm

>  <SCORE>
-4.93796

>  <SCORE.INTER>
3.19279

>  <SCORE.INTER.CONST>
1

>  <SCORE.INTER.POLAR>
0

>  <SCORE.INTER.ROT>
11

>  <SCORE.INTER.SOLV>
6.94807

>  <SCORE.INTER.VDW>
-11.1208

>  <SCORE.INTER.norm>
0.228056

>  <SCORE.INTRA>
-8.13075

>  <SCORE.INTRA.DIHEDRAL>
-16.5661

>  <SCORE.INTRA.DIHEDRAL.0>
19.1003

>  <SCORE.INTRA.POLAR>
0

>  <SCORE.INTRA.POLAR.0>
0

>  <SCORE.INTRA.REPUL>
0

>  <SCORE.INTRA.REPUL.0>
0

>  <SCORE.INTRA.SOLV>
2.19282

>  <SCORE.INTRA.SOLV.lig_0>
-47.5333

>  <SCORE.INTRA.VDW>
-0.944097

>  <SCORE.INTRA.VDW.0>
-0.287413

>  <SCORE.INTRA.norm>
-0.580768

>  <SCORE.RESTR>
0

>  <SCORE.RESTR.CAVITY>
0

>  <SCORE.RESTR.norm>
0

>  <SCORE.SYSTEM>
0

>  <SCORE.SYSTEM.CONST>
0

>  <SCORE.SYSTEM.DIHEDRAL>
0

>  <SCORE.SYSTEM.SOLV>
0

>  <SCORE.SYSTEM.norm>
0

>  <SCORE.heavy>
14

>  <SCORE.norm>
-0.352711

>  <RMSD>
2.682

$$$$
ligand
 OpenBabel11021811493D
libRbt.so/2013.1/901 2013/11/27
 14 13  0  0  0  0  0  0  0  0999 V2000
   55.6849   -0.9660    2.6871 N   0  0  0  0  0  0  0  0  0  0  0  0
   55.8500   -0.4183    1.3586 C   0  0  0  0  0  0  0  0  0  0  0  0
   57.3235   -0.5714    0.9287 C   0  0  0  0  0  0  0  0  0  0  0  0
   57.6703    0.1541   -0.3806 C   0  0  0  0  0  0  0  0  0  0  0  0
   57.4188    1.6033   -0.3959 N   0  0  0  0  0  0  0  0  0  0  0  0
   57.5087    2.4268   -1.6003 C   0  0  0  0  0  0  0  0  0  0  0  0
   57.0928    3.8753   -1.3655 C   0  0  0  0  0  0  0  0  0  0  0  0
   55.6256    4.0334   -0.9532 C   0  0  0  0  0  0  0  0  0  0  0  0
   54.6898    4.0848   -2.1667 C   0  0  0  0  0  0  0  0  0  0  0  0
   54.7868    2.8281   -2.9063 N   0  0  0  0  0  0  0  0  0  0  0  0
   53.7961    2.3605   -3.8775 C   0  0  0  0  0  0  0  0  0  0  0  0
   52.5713    1.7145   -3.2151 C   0  0  0  0  0  0  0  0  0  0  0  0
   51.6594    1.0508   -4.2522 C   0  0  0  0  0  0  0  0  0  0  0  0
   51.1112    2.0723   -5.1394 N   0  0  0  0  0  0  0  0  0  0  0  0
  1  2  1  0  0  0  0
  2  3  1  0  0  0  0
  3  4  1  0  0  0  0
  4  5  1  0  0  0  0
  5  6  1  0  0  0  0
  6  7  1  0  0  0  0
  7  8  1  0  0  0  0
  8  9  1  0  0  0  0
  9 10  1  0  0  0  0
 10 11  1  0  0  0  0
 11 12  1  0  0  0  0
 12 13  1  0  0  0  0
 13 14  1  0  0  0  0
M  END
>  <CHROM.1>
-171.62646762,58.06314453,-171.17392660,175.42224652,-63.27900689,-85.01351182
61.85068730,161.98231565,-80.23633777,-171.43305609,-64.48757382,55.19941709
1.73214272,-1.51992798,0.72117654,0.55244701,2.49308260

>  <Name>
ligand

>  <RI>
0

>  <Rbt.Current_Directory>
/home/itssahil/PROJECTS/Mol_Feturizer/New_Systems/rnas/4FAW

>  <Rbt.Executable>
rbdock ($Id: //depot/dev/client3/rdock/2013.1/src/exe/rbdock.cxx#4 $)

>  <Rbt.Library>
libRbt.so (2013.1, Build901 2013/11/27)

>  <Rbt.Parameter_File>
/export/apps/rDock/src/rDock_2013.1_src/data/scripts/dock_solv.prm

>  <Rbt.Receptor>
prm/pocket_docking_4.prm

>  <SCORE>
-6.57514

>  <SCORE.INTER>
1.23927

>  <SCORE.INTER.CONST>
1

>  <SCORE.INTER.POLAR>
0

>  <SCORE.INTER.ROT>
11

>  <SCORE.INTER.SOLV>
10.9982

>  <SCORE.INTER.VDW>
-13.7732

>  <SCORE.INTER.norm>
0.0885191

>  <SCORE.INTRA>
-7.81474

>  <SCORE.INTRA.DIHEDRAL>
-15.5183

>  <SCORE.INTRA.DIHEDRAL.0>
19.1003

>  <SCORE.INTRA.POLAR>
0

>  <SCORE.INTRA.POLAR.0>
0

>  <SCORE.INTRA.REPUL>
0

>  <SCORE.INTRA.REPUL.0>
0

>  <SCORE.INTRA.SOLV>
1.31628

>  <SCORE.INTRA.SOLV.lig_0>
-47.5333

>  <SCORE.INTRA.VDW>
-0.713746

>  <SCORE.INTRA.VDW.0>
-0.287413

>  <SCORE.INTRA.norm>
-0.558196

>  <SCORE.RESTR>
0.000331827

>  <SCORE.RESTR.CAVITY>
0.000331827

>  <SCORE.RESTR.norm>
2.37019e-05

>  <SCORE.SYSTEM>
0

>  <SCORE.SYSTEM.CONST>
0

>  <SCORE.SYSTEM.DIHEDRAL>
0

>  <SCORE.SYSTEM.SOLV>
0

>  <SCORE.SYSTEM.norm>
0

>  <SCORE.heavy>
14

>  <SCORE.norm>
-0.469653

>  <RMSD>
2.700

$$$$
ligand
 OpenBabel11021811493D
libRbt.so/2013.1/901 2013/11/27
 14 13  0  0  0  0  0  0  0  0999 V2000
   52.0063    2.9726   -2.8217 N   0  0  0  0  0  0  0  0  0  0  0  0
   51.8921    3.2496   -1.4067 C   0  0  0  0  0  0  0  0  0  0  0  0
   53.1567    2.7360   -0.6879 C   0  0  0  0  0  0  0  0  0  0  0  0
   54.4522    3.4353   -1.1280 C   0  0  0  0  0  0  0  0  0  0  0  0
   55.6891    2.9468   -0.4995 N   0  0  0  0  0  0  0  0  0  0  0  0
   57.0224    3.1752   -1.0537 C   0  0  0  0  0  0  0  0  0  0  0  0
   58.0983    2.3203   -0.3921 C   0  0  0  0  0  0  0  0  0  0  0  0
   58.3065    2.6364    1.0926 C   0  0  0  0  0  0  0  0  0  0  0  0
   59.4495    1.8151    1.7006 C   0  0  0  0  0  0  0  0  0  0  0  0
   59.0813    0.4009    1.7030 N   0  0  0  0  0  0  0  0  0  0  0  0
   59.9995   -0.6931    2.0249 C   0  0  0  0  0  0  0  0  0  0  0  0
   60.3349   -0.7685    3.5209 C   0  0  0  0  0  0  0  0  0  0  0  0
   61.3472   -1.8813    3.8119 C   0  0  0  0  0  0  0  0  0  0  0  0
   61.5818   -1.9586    5.2507 N   0  0  0  0  0  0  0  0  0  0  0  0
  1  2  1  0  0  0  0
  2  3  1  0  0  0  0
  3  4  1  0  0  0  0
  4  5  1  0  0  0  0
  5  6  1  0  0  0  0
  6  7  1  0  0  0  0
  7  8  1  0  0  0  0
  8  9  1  0  0  0  0
  9 10  1  0  0  0  0
 10 11  1  0  0  0  0
 11 12  1  0  0  0  0
 12 13  1  0  0  0  0
 13 14  1  0  0  0  0
M  END
>  <CHROM.1>
62.95998944,-178.10318600,160.69491686,-167.41993339,-64.12704572,-176.68543125
-65.94359910,170.58042418,72.75334814,-177.33408716,-177.12264671,57.31564174
1.45634049,0.79388070,2.43797545,-0.18609450,-0.67227091

>  <Name>
ligand

>  <RI>
0

>  <Rbt.Current_Directory>
/home/itssahil/PROJECTS/Mol_Feturizer/New_Systems/rnas/4FAW

>  <Rbt.Executable>
rbdock ($Id: //depot/dev/client3/rdock/2013.1/src/exe/rbdock.cxx#4 $)

>  <Rbt.Library>
libRbt.so (2013.1, Build901 2013/11/27)

>  <Rbt.Parameter_File>
/export/apps/rDock/src/rDock_2013.1_src/data/scripts/dock_solv.prm

>  <Rbt.Receptor>
prm/pocket_docking_3.prm

>  <SCORE>
-5.76593

>  <SCORE.INTER>
3.91007

>  <SCORE.INTER.CONST>
1

>  <SCORE.INTER.POLAR>
0

>  <SCORE.INTER.ROT>
11

>  <SCORE.INTER.SOLV>
6.05835

>  <SCORE.INTER.VDW>
-10.3461

>  <SCORE.INTER.norm>
0.279291

>  <SCORE.INTRA>
-9.676

>  <SCORE.INTRA.DIHEDRAL>
-18.1456

>  <SCORE.INTRA.DIHEDRAL.0>
19.1003

>  <SCORE.INTRA.POLAR>
0

>  <SCORE.INTRA.POLAR.0>
0

>  <SCORE.INTRA.REPUL>
0

>  <SCORE.INTRA.REPUL.0>
0

>  <SCORE.INTRA.SOLV>
-0.00270213

>  <SCORE.INTRA.SOLV.lig_0>
-47.5333

>  <SCORE.INTRA.VDW>
-0.601847

>  <SCORE.INTRA.VDW.0>
-0.287413

>  <SCORE.INTRA.norm>
-0.691143

>  <SCORE.RESTR>
0

>  <SCORE.RESTR.CAVITY>
0

>  <SCORE.RESTR.norm>
0

>  <SCORE.SYSTEM>
0

>  <SCORE.SYSTEM.CONST>
0

>  <SCORE.SYSTEM.DIHEDRAL>
0

>  <SCORE.SYSTEM.SOLV>
0

>  <SCORE.SYSTEM.norm>
0

>  <SCORE.heavy>
14

>  <SCORE.norm>
-0.411852

>  <RMSD>
2.710

$$$$
ligand
 OpenBabel11021811493D
libRbt.so/2013.1/901 2013/11/27
 14 13  0  0  0  0  0  0  0  0999 V2000
   60.2391    0.1734    5.8352 N   0  0  0  0  0  0  0  0  0  0  0  0
   59.9319   -0.9279    4.9492 C   0  0  0  0  0  0  0  0  0  0  0  0
   60.7038   -0.7424    3.6266 C   0  0  0  0  0  0  0  0  0  0  0  0
   60.4196   -1.8310    2.5801 C   0  0  0  0  0  0  0  0  0  0  0  0
   59.0214   -1.9448    2.1377 N   0  0  0  0  0  0  0  0  0  0  0  0
   58.3001   -0.8731    1.4535 C   0  0  0  0  0  0  0  0  0  0  0  0
   56.7867   -0.9755    1.6132 C   0  0  0  0  0  0  0  0  0  0  0  0
   56.0299    0.2479    1.0861 C   0  0  0  0  0  0  0  0  0  0  0  0
   54.5127    0.1006    1.2513 C   0  0  0  0  0  0  0  0  0  0  0  0
   53.8498    1.2866    0.7131 N   0  0  0  0  0  0  0  0  0  0  0  0
   52.6832    1.2535   -0.1708 C   0  0  0  0  0  0  0  0  0  0  0  0
   52.6561    2.4224   -1.1654 C   0  0  0  0  0  0  0  0  0  0  0  0
   51.4652    2.3144   -2.1234 C   0  0  0  0  0  0  0  0  0  0  0  0
   51.5206    3.4068   -3.0902 N   0  0  0  0  0  0  0  0  0  0  0  0
  1  2  1  0  0  0  0
  2  3  1  0  0  0  0
  3  4  1  0  0  0  0
  4  5  1  0  0  0  0
  5  6  1  0  0  0  0
  6  7  1  0  0  0  0
  7  8  1  0  0  0  0
  8  9  1  0  0  0  0
  9 10  1  0  0  0  0
 10 11  1  0  0  0  0
 11 12  1  0  0  0  0
 12 13  1  0  0  0  0
 13 14  1  0  0  0  0
M  END
>  <CHROM.1>
-177.99305003,60.58501964,62.16390239,-156.00773976,171.26813502,179.41664718
-179.14769404,133.76382006,-148.07819243,176.89139066,-177.12552704,56.29433912
0.27916108,1.33541954,0.32496208,-0.60457514,1.08562882

>  <Name>
ligand

>  <RI>
0

>  <Rbt.Current_Directory>
/home/itssahil/PROJECTS/Mol_Feturizer/New_Systems/rnas/4FAW

>  <Rbt.Executable>
rbdock ($Id: //depot/dev/client3/rdock/2013.1/src/exe/rbdock.cxx#4 $)

>  <Rbt.Library>
libRbt.so (2013.1, Build901 2013/11/27)

>  <Rbt.Parameter_File>
/export/apps/rDock/src/rDock_2013.1_src/data/scripts/dock_solv.prm

>  <Rbt.Receptor>
prm/pocket_docking_4.prm

>  <SCORE>
-6.06933

>  <SCORE.INTER>
3.74984

>  <SCORE.INTER.CONST>
1

>  <SCORE.INTER.POLAR>
0

>  <SCORE.INTER.ROT>
11

>  <SCORE.INTER.SOLV>
8.12824

>  <SCORE.INTER.VDW>
-11.1429

>  <SCORE.INTER.norm>
0.267846

>  <SCORE.INTRA>
-9.81917

>  <SCORE.INTRA.DIHEDRAL>
-16.5992

>  <SCORE.INTRA.DIHEDRAL.0>
19.1003

>  <SCORE.INTRA.POLAR>
0

>  <SCORE.INTRA.POLAR.0>
0

>  <SCORE.INTRA.REPUL>
0

>  <SCORE.INTRA.REPUL.0>
0

>  <SCORE.INTRA.SOLV>
-1.18658

>  <SCORE.INTRA.SOLV.lig_0>
-47.5333

>  <SCORE.INTRA.VDW>
-0.926288

>  <SCORE.INTRA.VDW.0>
-0.287413

>  <SCORE.INTRA.norm>
-0.701369

>  <SCORE.RESTR>
0

>  <SCORE.RESTR.CAVITY>
0

>  <SCORE.RESTR.norm>
0

>  <SCORE.SYSTEM>
0

>  <SCORE.SYSTEM.CONST>
0

>  <SCORE.SYSTEM.DIHEDRAL>
0

>  <SCORE.SYSTEM.SOLV>
0

>  <SCORE.SYSTEM.norm>
0

>  <SCORE.heavy>
14

>  <SCORE.norm>
-0.433524

>  <RMSD>
2.731

$$$$
ligand
 OpenBabel11021811493D
libRbt.so/2013.1/901 2013/11/27
 14 13  0  0  0  0  0  0  0  0999 V2000
   53.0615    3.0869   -6.8293 N   0  0  0  0  0  0  0  0  0  0  0  0
   53.4399    2.4149   -5.6056 C   0  0  0  0  0  0  0  0  0  0  0  0
   53.9880    3.4550   -4.6070 C   0  0  0  0  0  0  0  0  0  0  0  0
   54.5416    2.8439   -3.3104 C   0  0  0  0  0  0  0  0  0  0  0  0
   55.1365    3.7938   -2.3578 N   0  0  0  0  0  0  0  0  0  0  0  0
   55.9479    3.3880   -1.2115 C   0  0  0  0  0  0  0  0  0  0  0  0
   57.3625    2.9701   -1.5994 C   0  0  0  0  0  0  0  0  0  0  0  0
   58.2756    2.7058   -0.3977 C   0  0  0  0  0  0  0  0  0  0  0  0
   57.8634    1.4450    0.3713 C   0  0  0  0  0  0  0  0  0  0  0  0
   58.8562    1.1628    1.4058 N   0  0  0  0  0  0  0  0  0  0  0  0
   59.1678    2.0591    2.5208 C   0  0  0  0  0  0  0  0  0  0  0  0
   59.8009    1.3287    3.7132 C   0  0  0  0  0  0  0  0  0  0  0  0
   60.1370    2.2997    4.8497 C   0  0  0  0  0  0  0  0  0  0  0  0
   60.7043    1.5559    5.9705 N   0  0  0  0  0  0  0  0  0  0  0  0
  1  2  1  0  0  0  0
  2  3  1  0  0  0  0
  3  4  1  0  0  0  0
  4  5  1  0  0  0  0
  5  6  1  0  0  0  0
  6  7  1  0  0  0  0
  7  8  1  0  0  0  0
  8  9  1  0  0  0  0
  9 10  1  0  0  0  0
 10 11  1  0  0  0  0
 11 12  1  0  0  0  0
 12 13  1  0  0  0  0
 13 14  1  0  0  0  0
M  END
>  <CHROM.1>
-174.82132654,177.04132847,-167.15229748,76.19200689,172.98686572,69.19076670
173.56335282,61.94997259,157.56429501,178.95317742,178.60688401,57.02024873
2.46498605,-0.50625419,-2.64190831,-0.89205973,0.76168585

>  <Name>
ligand

>  <RI>
0

>  <Rbt.Current_Directory>
/home/itssahil/PROJECTS/Mol_Feturizer/New_Systems/rnas/4FAW

>  <Rbt.Executable>
rbdock ($Id: //depot/dev/client3/rdock/2013.1/src/exe/rbdock.cxx#4 $)

>  <Rbt.Library>
libRbt.so (2013.1, Build901 2013/11/27)

>  <Rbt.Parameter_File>
/export/apps/rDock/src/rDock_2013.1_src/data/scripts/dock_solv.prm

>  <Rbt.Receptor>
prm/pocket_docking_4.prm

>  <SCORE>
-7.11137

>  <SCORE.INTER>
2.33706

>  <SCORE.INTER.CONST>
1

>  <SCORE.INTER.POLAR>
0

>  <SCORE.INTER.ROT>
11

>  <SCORE.INTER.SOLV>
7.78757

>  <SCORE.INTER.VDW>
-11.9711

>  <SCORE.INTER.norm>
0.166933

>  <SCORE.INTRA>
-9.44844

>  <SCORE.INTRA.DIHEDRAL>
-17.5628

>  <SCORE.INTRA.DIHEDRAL.0>
19.1003

>  <SCORE.INTRA.POLAR>
0

>  <SCORE.INTRA.POLAR.0>
0

>  <SCORE.INTRA.REPUL>
0

>  <SCORE.INTRA.REPUL.0>
0

>  <SCORE.INTRA.SOLV>
-1.35803

>  <SCORE.INTRA.SOLV.lig_0>
-47.5333

>  <SCORE.INTRA.VDW>
0.0119576

>  <SCORE.INTRA.VDW.0>
-0.287413

>  <SCORE.INTRA.norm>
-0.674888

>  <SCORE.RESTR>
0

>  <SCORE.RESTR.CAVITY>
0

>  <SCORE.RESTR.norm>
0

>  <SCORE.SYSTEM>
0

>  <SCORE.SYSTEM.CONST>
0

>  <SCORE.SYSTEM.DIHEDRAL>
0

>  <SCORE.SYSTEM.SOLV>
0

>  <SCORE.SYSTEM.norm>
0

>  <SCORE.heavy>
14

>  <SCORE.norm>
-0.507955

>  <RMSD>
2.738

$$$$
ligand
 OpenBabel11021811493D
libRbt.so/2013.1/901 2013/11/27
 14 13  0  0  0  0  0  0  0  0999 V2000
   60.5235   -1.4877    4.9123 N   0  0  0  0  0  0  0  0  0  0  0  0
   61.3031   -1.0668    3.7689 C   0  0  0  0  0  0  0  0  0  0  0  0
   60.5814   -1.5033    2.4774 C   0  0  0  0  0  0  0  0  0  0  0  0
   59.2593   -0.7636    2.2207 C   0  0  0  0  0  0  0  0  0  0  0  0
   58.5343   -1.1520    1.0012 N   0  0  0  0  0  0  0  0  0  0  0  0
   57.1871   -0.6855    0.6783 C   0  0  0  0  0  0  0  0  0  0  0  0
   57.1207    0.8167    0.4231 C   0  0  0  0  0  0  0  0  0  0  0  0
   57.8227    1.2515   -0.8675 C   0  0  0  0  0  0  0  0  0  0  0  0
   57.9161    2.7774   -0.9852 C   0  0  0  0  0  0  0  0  0  0  0  0
   56.5696    3.3452   -0.9989 N   0  0  0  0  0  0  0  0  0  0  0  0
   55.6804    3.3391   -2.1620 C   0  0  0  0  0  0  0  0  0  0  0  0
   54.2664    3.8377   -1.8333 C   0  0  0  0  0  0  0  0  0  0  0  0
   53.3602    3.8042   -3.0683 C   0  0  0  0  0  0  0  0  0  0  0  0
   52.0521    4.3538   -2.7244 N   0  0  0  0  0  0  0  0  0  0  0  0
  1  2  1  0  0  0  0
  2  3  1  0  0  0  0
  3  4  1  0  0  0  0
  4  5  1  0  0  0  0
  5  6  1  0  0  0  0
  6  7  1  0  0  0  0
  7  8  1  0  0  0  0
  8  9  1  0  0  0  0
  9 10  1  0  0  0  0
 10 11  1  0  0  0  0
 11 12  1  0  0  0  0
 12 13  1  0  0  0  0
 13 14  1  0  0  0  0
M  END
>  <CHROM.1>
67.91568740,-179.79111708,171.99100359,65.62647550,68.98343655,-171.54650900
-60.68977373,-77.57754816,172.45562203,-179.40761789,-176.94615978,57.29850108
1.20475210,0.20288716,0.85921395,0.21996260,2.49946460

>  <Name>
ligand

>  <RI>
0

>  <Rbt.Current_Directory>
/home/itssahil/PROJECTS/Mol_Feturizer/New_Systems/rnas/4FAW

>  <Rbt.Executable>
rbdock ($Id: //depot/dev/client3/rdock/2013.1/src/exe/rbdock.cxx#4 $)

>  <Rbt.Library>
libRbt.so (2013.1, Build901 2013/11/27)

>  <Rbt.Parameter_File>
/export/apps/rDock/src/rDock_2013.1_src/data/scripts/dock_solv.prm

>  <Rbt.Receptor>
prm/pocket_docking_4.prm

>  <SCORE>
-7.44085

>  <SCORE.INTER>
1.99612

>  <SCORE.INTER.CONST>
1

>  <SCORE.INTER.POLAR>
0

>  <SCORE.INTER.ROT>
11

>  <SCORE.INTER.SOLV>
7.17186

>  <SCORE.INTER.VDW>
-11.9932

>  <SCORE.INTER.norm>
0.14258

>  <SCORE.INTRA>
-9.43698

>  <SCORE.INTRA.DIHEDRAL>
-17.8728

>  <SCORE.INTRA.DIHEDRAL.0>
19.1003

>  <SCORE.INTRA.POLAR>
0

>  <SCORE.INTRA.POLAR.0>
0

>  <SCORE.INTRA.REPUL>
0

>  <SCORE.INTRA.REPUL.0>
0

>  <SCORE.INTRA.SOLV>
-0.0728641

>  <SCORE.INTRA.SOLV.lig_0>
-47.5333

>  <SCORE.INTRA.VDW>
-0.464144

>  <SCORE.INTRA.VDW.0>
-0.287413

>  <SCORE.INTRA.norm>
-0.67407

>  <SCORE.RESTR>
0

>  <SCORE.RESTR.CAVITY>
0

>  <SCORE.RESTR.norm>
0

>  <SCORE.SYSTEM>
0

>  <SCORE.SYSTEM.CONST>
0

>  <SCORE.SYSTEM.DIHEDRAL>
0

>  <SCORE.SYSTEM.SOLV>
0

>  <SCORE.SYSTEM.norm>
0

>  <SCORE.heavy>
14

>  <SCORE.norm>
-0.531489

>  <RMSD>
2.741

$$$$
ligand
 OpenBabel11021811493D
libRbt.so/2013.1/901 2013/11/27
 14 13  0  0  0  0  0  0  0  0999 V2000
   50.8072    0.6372   -5.6313 N   0  0  0  0  0  0  0  0  0  0  0  0
   50.8078    0.4151   -4.2020 C   0  0  0  0  0  0  0  0  0  0  0  0
   51.9069    1.2840   -3.5565 C   0  0  0  0  0  0  0  0  0  0  0  0
   51.9315    1.2204   -2.0214 C   0  0  0  0  0  0  0  0  0  0  0  0
   52.9467    2.0560   -1.3620 N   0  0  0  0  0  0  0  0  0  0  0  0
   52.6864    3.4080   -0.8709 C   0  0  0  0  0  0  0  0  0  0  0  0
   53.9209    4.0733   -0.2711 C   0  0  0  0  0  0  0  0  0  0  0  0
   54.9506    4.5124   -1.3173 C   0  0  0  0  0  0  0  0  0  0  0  0
   55.7810    3.3330   -1.8372 C   0  0  0  0  0  0  0  0  0  0  0  0
   56.6428    2.8382   -0.7656 N   0  0  0  0  0  0  0  0  0  0  0  0
   57.4675    1.6320   -0.8568 C   0  0  0  0  0  0  0  0  0  0  0  0
   57.5201    0.8454    0.4602 C   0  0  0  0  0  0  0  0  0  0  0  0
   58.1138   -0.5520    0.2540 C   0  0  0  0  0  0  0  0  0  0  0  0
   58.0699   -1.2878    1.5141 N   0  0  0  0  0  0  0  0  0  0  0  0
  1  2  1  0  0  0  0
  2  3  1  0  0  0  0
  3  4  1  0  0  0  0
  4  5  1  0  0  0  0
  5  6  1  0  0  0  0
  6  7  1  0  0  0  0
  7  8  1  0  0  0  0
  8  9  1  0  0  0  0
  9 10  1  0  0  0  0
 10 11  1  0  0  0  0
 11 12  1  0  0  0  0
 12 13  1  0  0  0  0
 13 14  1  0  0  0  0
M  END
>  <CHROM.1>
175.31654556,-178.78451389,94.10590688,-178.03204767,73.41408209,-77.71913169
-68.14598243,173.16188890,-142.54676348,167.09803772,-176.66911671,54.53948551
1.74421912,-1.46165051,-3.12185219,-0.58199246,0.20215825

>  <Name>
ligand

>  <RI>
0

>  <Rbt.Current_Directory>
/home/itssahil/PROJECTS/Mol_Feturizer/New_Systems/rnas/4FAW

>  <Rbt.Executable>
rbdock ($Id: //depot/dev/client3/rdock/2013.1/src/exe/rbdock.cxx#4 $)

>  <Rbt.Library>
libRbt.so (2013.1, Build901 2013/11/27)

>  <Rbt.Parameter_File>
/export/apps/rDock/src/rDock_2013.1_src/data/scripts/dock_solv.prm

>  <Rbt.Receptor>
prm/pocket_docking_3.prm

>  <SCORE>
-4.18942

>  <SCORE.INTER>
4.09043

>  <SCORE.INTER.CONST>
1

>  <SCORE.INTER.POLAR>
0

>  <SCORE.INTER.ROT>
11

>  <SCORE.INTER.SOLV>
8.15263

>  <SCORE.INTER.VDW>
-10.9239

>  <SCORE.INTER.norm>
0.292173

>  <SCORE.INTRA>
-8.27984

>  <SCORE.INTRA.DIHEDRAL>
-14.641

>  <SCORE.INTRA.DIHEDRAL.0>
19.1003

>  <SCORE.INTRA.POLAR>
0

>  <SCORE.INTRA.POLAR.0>
0

>  <SCORE.INTRA.REPUL>
0

>  <SCORE.INTRA.REPUL.0>
0

>  <SCORE.INTRA.SOLV>
0.233281

>  <SCORE.INTRA.SOLV.lig_0>
-47.5333

>  <SCORE.INTRA.VDW>
-1.076

>  <SCORE.INTRA.VDW.0>
-0.287413

>  <SCORE.INTRA.norm>
-0.591417

>  <SCORE.RESTR>
0

>  <SCORE.RESTR.CAVITY>
0

>  <SCORE.RESTR.norm>
0

>  <SCORE.SYSTEM>
0

>  <SCORE.SYSTEM.CONST>
0

>  <SCORE.SYSTEM.DIHEDRAL>
0

>  <SCORE.SYSTEM.SOLV>
0

>  <SCORE.SYSTEM.norm>
0

>  <SCORE.heavy>
14

>  <SCORE.norm>
-0.299244

>  <RMSD>
2.781

$$$$
ligand
 OpenBabel11021811493D
libRbt.so/2013.1/901 2013/11/27
 14 13  0  0  0  0  0  0  0  0999 V2000
   59.2893   -0.0625    2.4323 N   0  0  0  0  0  0  0  0  0  0  0  0
   59.2785    1.2522    1.8295 C   0  0  0  0  0  0  0  0  0  0  0  0
   58.0017    1.4066    0.9776 C   0  0  0  0  0  0  0  0  0  0  0  0
   57.8247    2.8051    0.3661 C   0  0  0  0  0  0  0  0  0  0  0  0
   56.5450    3.0480   -0.3173 N   0  0  0  0  0  0  0  0  0  0  0  0
   55.2498    3.0265    0.3602 C   0  0  0  0  0  0  0  0  0  0  0  0
   54.0820    2.7894   -0.5918 C   0  0  0  0  0  0  0  0  0  0  0  0
   52.7686    2.4504    0.1207 C   0  0  0  0  0  0  0  0  0  0  0  0
   51.7033    1.9327   -0.8530 C   0  0  0  0  0  0  0  0  0  0  0  0
   52.1684    0.6886   -1.4627 N   0  0  0  0  0  0  0  0  0  0  0  0
   51.4365   -0.0539   -2.4904 C   0  0  0  0  0  0  0  0  0  0  0  0
   51.5775    0.5664   -3.8875 C   0  0  0  0  0  0  0  0  0  0  0  0
   50.7320   -0.1850   -4.9211 C   0  0  0  0  0  0  0  0  0  0  0  0
   50.8657    0.4655   -6.2212 N   0  0  0  0  0  0  0  0  0  0  0  0
  1  2  1  0  0  0  0
  2  3  1  0  0  0  0
  3  4  1  0  0  0  0
  4  5  1  0  0  0  0
  5  6  1  0  0  0  0
  6  7  1  0  0  0  0
  7  8  1  0  0  0  0
  8  9  1  0  0  0  0
  9 10  1  0  0  0  0
 10 11  1  0  0  0  0
 11 12  1  0  0  0  0
 12 13  1  0  0  0  0
 13 14  1  0  0  0  0
M  END
>  <CHROM.1>
175.74286033,-172.88530263,63.33957399,-158.63277626,166.96728301,-167.92855901
62.59548626,-176.95818696,78.26949112,-176.55187550,178.23457883,54.39437402
1.43802720,-1.04690447,-0.55034998,0.37483370,-2.31367175

>  <Name>
ligand

>  <RI>
0

>  <Rbt.Current_Directory>
/home/itssahil/PROJECTS/Mol_Feturizer/New_Systems/rnas/4FAW

>  <Rbt.Executable>
rbdock ($Id: //depot/dev/client3/rdock/2013.1/src/exe/rbdock.cxx#4 $)

>  <Rbt.Library>
libRbt.so (2013.1, Build901 2013/11/27)

>  <Rbt.Parameter_File>
/export/apps/rDock/src/rDock_2013.1_src/data/scripts/dock_solv.prm

>  <Rbt.Receptor>
prm/pocket_docking_4.prm

>  <SCORE>
-6.21435

>  <SCORE.INTER>
3.3919

>  <SCORE.INTER.CONST>
1

>  <SCORE.INTER.POLAR>
0

>  <SCORE.INTER.ROT>
11

>  <SCORE.INTER.SOLV>
8.13906

>  <SCORE.INTER.VDW>
-11.3851

>  <SCORE.INTER.norm>
0.242278

>  <SCORE.INTRA>
-9.60625

>  <SCORE.INTRA.DIHEDRAL>
-16.9426

>  <SCORE.INTRA.DIHEDRAL.0>
19.1003

>  <SCORE.INTRA.POLAR>
0

>  <SCORE.INTRA.POLAR.0>
0

>  <SCORE.INTRA.REPUL>
0

>  <SCORE.INTRA.REPUL.0>
0

>  <SCORE.INTRA.SOLV>
-1.03861

>  <SCORE.INTRA.SOLV.lig_0>
-47.5333

>  <SCORE.INTRA.VDW>
-0.615669

>  <SCORE.INTRA.VDW.0>
-0.287413

>  <SCORE.INTRA.norm>
-0.686161

>  <SCORE.RESTR>
0

>  <SCORE.RESTR.CAVITY>
0

>  <SCORE.RESTR.norm>
0

>  <SCORE.SYSTEM>
0

>  <SCORE.SYSTEM.CONST>
0

>  <SCORE.SYSTEM.DIHEDRAL>
0

>  <SCORE.SYSTEM.SOLV>
0

>  <SCORE.SYSTEM.norm>
0

>  <SCORE.heavy>
14

>  <SCORE.norm>
-0.443882

>  <RMSD>
2.783

$$$$
ligand
 OpenBabel11021811493D
libRbt.so/2013.1/901 2013/11/27
 14 13  0  0  0  0  0  0  0  0999 V2000
   58.1737   -0.1962    3.3344 N   0  0  0  0  0  0  0  0  0  0  0  0
   57.7652    0.9174    2.5067 C   0  0  0  0  0  0  0  0  0  0  0  0
   58.9288    1.3045    1.5709 C   0  0  0  0  0  0  0  0  0  0  0  0
   58.6677    2.5714    0.7415 C   0  0  0  0  0  0  0  0  0  0  0  0
   57.5421    2.4982   -0.2025 N   0  0  0  0  0  0  0  0  0  0  0  0
   57.1014    3.6241   -1.0242 C   0  0  0  0  0  0  0  0  0  0  0  0
   55.7228    3.4099   -1.6404 C   0  0  0  0  0  0  0  0  0  0  0  0
   55.2335    4.5964   -2.4772 C   0  0  0  0  0  0  0  0  0  0  0  0
   53.8616    4.3289   -3.1073 C   0  0  0  0  0  0  0  0  0  0  0  0
   53.9773    3.2392   -4.0742 N   0  0  0  0  0  0  0  0  0  0  0  0
   52.8543    2.6782   -4.8276 C   0  0  0  0  0  0  0  0  0  0  0  0
   52.3202    1.3745   -4.2182 C   0  0  0  0  0  0  0  0  0  0  0  0
   51.8169    1.5908   -2.7873 C   0  0  0  0  0  0  0  0  0  0  0  0
   51.3717    0.3159   -2.2326 N   0  0  0  0  0  0  0  0  0  0  0  0
  1  2  1  0  0  0  0
  2  3  1  0  0  0  0
  3  4  1  0  0  0  0
  4  5  1  0  0  0  0
  5  6  1  0  0  0  0
  6  7  1  0  0  0  0
  7  8  1  0  0  0  0
  8  9  1  0  0  0  0
  9 10  1  0  0  0  0
 10 11  1  0  0  0  0
 11 12  1  0  0  0  0
 12 13  1  0  0  0  0
 13 14  1  0  0  0  0
M  END
>  <CHROM.1>
-173.98934475,-62.69928262,176.76000210,-165.29594062,178.61460021,178.57615535
-65.29276969,177.39585479,-99.36289078,60.35188039,-177.68020888,55.38127515
2.30412082,-1.31722070,0.59216372,0.54644298,2.41181674

>  <Name>
ligand

>  <RI>
0

>  <Rbt.Current_Directory>
/home/itssahil/PROJECTS/Mol_Feturizer/New_Systems/rnas/4FAW

>  <Rbt.Executable>
rbdock ($Id: //depot/dev/client3/rdock/2013.1/src/exe/rbdock.cxx#4 $)

>  <Rbt.Library>
libRbt.so (2013.1, Build901 2013/11/27)

>  <Rbt.Parameter_File>
/export/apps/rDock/src/rDock_2013.1_src/data/scripts/dock_solv.prm

>  <Rbt.Receptor>
prm/pocket_docking_4.prm

>  <SCORE>
-4.16531

>  <SCORE.INTER>
5.86076

>  <SCORE.INTER.CONST>
1

>  <SCORE.INTER.POLAR>
0

>  <SCORE.INTER.ROT>
11

>  <SCORE.INTER.SOLV>
9.42991

>  <SCORE.INTER.VDW>
-10.1695

>  <SCORE.INTER.norm>
0.418626

>  <SCORE.INTRA>
-10.0275

>  <SCORE.INTRA.DIHEDRAL>
-17.7295

>  <SCORE.INTRA.DIHEDRAL.0>
19.1003

>  <SCORE.INTRA.POLAR>
0

>  <SCORE.INTRA.POLAR.0>
0

>  <SCORE.INTRA.REPUL>
0

>  <SCORE.INTRA.REPUL.0>
0

>  <SCORE.INTRA.SOLV>
-0.385437

>  <SCORE.INTRA.SOLV.lig_0>
-47.5333

>  <SCORE.INTRA.VDW>
-0.970011

>  <SCORE.INTRA.VDW.0>
-0.287413

>  <SCORE.INTRA.norm>
-0.716248

>  <SCORE.RESTR>
0.0014016

>  <SCORE.RESTR.CAVITY>
0.0014016

>  <SCORE.RESTR.norm>
0.000100114

>  <SCORE.SYSTEM>
0

>  <SCORE.SYSTEM.CONST>
0

>  <SCORE.SYSTEM.DIHEDRAL>
0

>  <SCORE.SYSTEM.SOLV>
0

>  <SCORE.SYSTEM.norm>
0

>  <SCORE.heavy>
14

>  <SCORE.norm>
-0.297522

>  <RMSD>
2.787

$$$$
ligand
 OpenBabel11021811493D
libRbt.so/2013.1/901 2013/11/27
 14 13  0  0  0  0  0  0  0  0999 V2000
   51.5182    6.4159   -3.4284 N   0  0  0  0  0  0  0  0  0  0  0  0
   52.6436    5.6359   -2.9623 C   0  0  0  0  0  0  0  0  0  0  0  0
   53.8922    6.0075   -3.7884 C   0  0  0  0  0  0  0  0  0  0  0  0
   55.1425    5.1881   -3.4327 C   0  0  0  0  0  0  0  0  0  0  0  0
   55.6205    5.3176   -2.0477 N   0  0  0  0  0  0  0  0  0  0  0  0
   56.8160    4.6476   -1.5391 C   0  0  0  0  0  0  0  0  0  0  0  0
   56.6124    3.1529   -1.3139 C   0  0  0  0  0  0  0  0  0  0  0  0
   57.7630    2.4844   -0.5545 C   0  0  0  0  0  0  0  0  0  0  0  0
   57.4752    1.0078   -0.2581 C   0  0  0  0  0  0  0  0  0  0  0  0
   58.4828    0.4946    0.6676 N   0  0  0  0  0  0  0  0  0  0  0  0
   58.5790   -0.9022    1.0955 C   0  0  0  0  0  0  0  0  0  0  0  0
   59.6813   -1.1311    2.1389 C   0  0  0  0  0  0  0  0  0  0  0  0
   59.7678   -2.6053    2.5472 C   0  0  0  0  0  0  0  0  0  0  0  0
   60.7477   -2.7544    3.6190 N   0  0  0  0  0  0  0  0  0  0  0  0
  1  2  1  0  0  0  0
  2  3  1  0  0  0  0
  3  4  1  0  0  0  0
  4  5  1  0  0  0  0
  5  6  1  0  0  0  0
  6  7  1  0  0  0  0
  7  8  1  0  0  0  0
  8  9  1  0  0  0  0
  9 10  1  0  0  0  0
 10 11  1  0  0  0  0
 11 12  1  0  0  0  0
 12 13  1  0  0  0  0
 13 14  1  0  0  0  0
M  END
>  <CHROM.1>
-177.01084247,-61.15760776,-178.06117880,-74.32583801,-169.79732644,175.80533167
-169.77167518,-175.36682984,-176.42467603,-179.12024991,-175.22042645,56.76736912
2.35423730,-0.66136202,2.15533027,-0.10942281,-0.55549576

>  <Name>
ligand

>  <RI>
0

>  <Rbt.Current_Directory>
/home/itssahil/PROJECTS/Mol_Feturizer/New_Systems/rnas/4FAW

>  <Rbt.Executable>
rbdock ($Id: //depot/dev/client3/rdock/2013.1/src/exe/rbdock.cxx#4 $)

>  <Rbt.Library>
libRbt.so (2013.1, Build901 2013/11/27)

>  <Rbt.Parameter_File>
/export/apps/rDock/src/rDock_2013.1_src/data/scripts/dock_solv.prm

>  <Rbt.Receptor>
prm/pocket_docking_5.prm

>  <SCORE>
-6.7278

>  <SCORE.INTER>
3.67213

>  <SCORE.INTER.CONST>
1

>  <SCORE.INTER.POLAR>
0

>  <SCORE.INTER.ROT>
11

>  <SCORE.INTER.SOLV>
7.71202

>  <SCORE.INTER.VDW>
-11.0559

>  <SCORE.INTER.norm>
0.262295

>  <SCORE.INTRA>
-10.3999

>  <SCORE.INTRA.DIHEDRAL>
-17.936

>  <SCORE.INTRA.DIHEDRAL.0>
19.1003

>  <SCORE.INTRA.POLAR>
0

>  <SCORE.INTRA.POLAR.0>
0

>  <SCORE.INTRA.REPUL>
0

>  <SCORE.INTRA.REPUL.0>
0

>  <SCORE.INTRA.SOLV>
-1.19198

>  <SCORE.INTRA.SOLV.lig_0>
-47.5333

>  <SCORE.INTRA.VDW>
-0.835964

>  <SCORE.INTRA.VDW.0>
-0.287413

>  <SCORE.INTRA.norm>
-0.742852

>  <SCORE.RESTR>
0

>  <SCORE.RESTR.CAVITY>
0

>  <SCORE.RESTR.norm>
0

>  <SCORE.SYSTEM>
0

>  <SCORE.SYSTEM.CONST>
0

>  <SCORE.SYSTEM.DIHEDRAL>
0

>  <SCORE.SYSTEM.SOLV>
0

>  <SCORE.SYSTEM.norm>
0

>  <SCORE.heavy>
14

>  <SCORE.norm>
-0.480557

>  <RMSD>
2.807

$$$$
ligand
 OpenBabel11021811493D
libRbt.so/2013.1/901 2013/11/27
 14 13  0  0  0  0  0  0  0  0999 V2000
   60.3438   -1.4102    5.0693 N   0  0  0  0  0  0  0  0  0  0  0  0
   60.6831   -0.3698    4.1235 C   0  0  0  0  0  0  0  0  0  0  0  0
   59.5278   -0.2086    3.1142 C   0  0  0  0  0  0  0  0  0  0  0  0
   59.7058    0.9702    2.1447 C   0  0  0  0  0  0  0  0  0  0  0  0
   58.6367    1.1487    1.1503 N   0  0  0  0  0  0  0  0  0  0  0  0
   58.4192    2.3910    0.4112 C   0  0  0  0  0  0  0  0  0  0  0  0
   57.1285    2.3841   -0.4014 C   0  0  0  0  0  0  0  0  0  0  0  0
   56.7651    3.7522   -0.9876 C   0  0  0  0  0  0  0  0  0  0  0  0
   55.3686    3.7540   -1.6205 C   0  0  0  0  0  0  0  0  0  0  0  0
   55.0657    5.0931   -2.1211 N   0  0  0  0  0  0  0  0  0  0  0  0
   55.1737    5.4965   -3.5243 C   0  0  0  0  0  0  0  0  0  0  0  0
   54.2814    4.6625   -4.4542 C   0  0  0  0  0  0  0  0  0  0  0  0
   54.4560    5.0787   -5.9184 C   0  0  0  0  0  0  0  0  0  0  0  0
   54.0122    6.4594   -6.0857 N   0  0  0  0  0  0  0  0  0  0  0  0
  1  2  1  0  0  0  0
  2  3  1  0  0  0  0
  3  4  1  0  0  0  0
  4  5  1  0  0  0  0
  5  6  1  0  0  0  0
  6  7  1  0  0  0  0
  7  8  1  0  0  0  0
  8  9  1  0  0  0  0
  9 10  1  0  0  0  0
 10 11  1  0  0  0  0
 11 12  1  0  0  0  0
 12 13  1  0  0  0  0
 13 14  1  0  0  0  0
M  END
>  <CHROM.1>
173.91749997,179.08205925,161.89989736,-171.48001724,170.18171310,-171.69078974
178.20007067,100.47575926,59.18887175,-178.01918347,-63.71918012,57.11201978
2.80013021,-0.65004575,0.61373963,-0.93826927,1.31956422

>  <Name>
ligand

>  <RI>
0

>  <Rbt.Current_Directory>
/home/itssahil/PROJECTS/Mol_Feturizer/New_Systems/rnas/4FAW

>  <Rbt.Executable>
rbdock ($Id: //depot/dev/client3/rdock/2013.1/src/exe/rbdock.cxx#4 $)

>  <Rbt.Library>
libRbt.so (2013.1, Build901 2013/11/27)

>  <Rbt.Parameter_File>
/export/apps/rDock/src/rDock_2013.1_src/data/scripts/dock_solv.prm

>  <Rbt.Receptor>
prm/pocket_docking_5.prm

>  <SCORE>
-4.39213

>  <SCORE.INTER>
4.89411

>  <SCORE.INTER.CONST>
1

>  <SCORE.INTER.POLAR>
0

>  <SCORE.INTER.ROT>
11

>  <SCORE.INTER.SOLV>
4.76218

>  <SCORE.INTER.VDW>
-9.25799

>  <SCORE.INTER.norm>
0.349579

>  <SCORE.INTRA>
-9.28624

>  <SCORE.INTRA.DIHEDRAL>
-17.0153

>  <SCORE.INTRA.DIHEDRAL.0>
19.1003

>  <SCORE.INTRA.POLAR>
0

>  <SCORE.INTRA.POLAR.0>
0

>  <SCORE.INTRA.REPUL>
0

>  <SCORE.INTRA.REPUL.0>
0

>  <SCORE.INTRA.SOLV>
-0.702277

>  <SCORE.INTRA.SOLV.lig_0>
-47.5333

>  <SCORE.INTRA.VDW>
-0.427447

>  <SCORE.INTRA.VDW.0>
-0.287413

>  <SCORE.INTRA.norm>
-0.663303

>  <SCORE.RESTR>
0

>  <SCORE.RESTR.CAVITY>
0

>  <SCORE.RESTR.norm>
0

>  <SCORE.SYSTEM>
0

>  <SCORE.SYSTEM.CONST>
0

>  <SCORE.SYSTEM.DIHEDRAL>
0

>  <SCORE.SYSTEM.SOLV>
0

>  <SCORE.SYSTEM.norm>
0

>  <SCORE.heavy>
14

>  <SCORE.norm>
-0.313723

>  <RMSD>
2.826

$$$$
ligand
 OpenBabel11021811493D
libRbt.so/2013.1/901 2013/11/27
 14 13  0  0  0  0  0  0  0  0999 V2000
   60.8844   -2.5877    5.5571 N   0  0  0  0  0  0  0  0  0  0  0  0
   60.9392   -1.1875    5.1984 C   0  0  0  0  0  0  0  0  0  0  0  0
   61.2684   -1.0635    3.6965 C   0  0  0  0  0  0  0  0  0  0  0  0
   60.1644   -1.5954    2.7696 C   0  0  0  0  0  0  0  0  0  0  0  0
   58.8510   -0.9459    2.8995 N   0  0  0  0  0  0  0  0  0  0  0  0
   57.7685   -1.1102    1.9310 C   0  0  0  0  0  0  0  0  0  0  0  0
   56.5335   -0.2817    2.2698 C   0  0  0  0  0  0  0  0  0  0  0  0
   55.4465   -0.3312    1.1912 C   0  0  0  0  0  0  0  0  0  0  0  0
   54.3437    0.7049    1.4383 C   0  0  0  0  0  0  0  0  0  0  0  0
   53.3820    0.6598    0.3388 N   0  0  0  0  0  0  0  0  0  0  0  0
   52.4774    1.7551   -0.0153 C   0  0  0  0  0  0  0  0  0  0  0  0
   51.5146    1.3883   -1.1531 C   0  0  0  0  0  0  0  0  0  0  0  0
   52.2568    1.2270   -2.4838 C   0  0  0  0  0  0  0  0  0  0  0  0
   51.2933    0.9518   -3.5456 N   0  0  0  0  0  0  0  0  0  0  0  0
  1  2  1  0  0  0  0
  2  3  1  0  0  0  0
  3  4  1  0  0  0  0
  4  5  1  0  0  0  0
  5  6  1  0  0  0  0
  6  7  1  0  0  0  0
  7  8  1  0  0  0  0
  8  9  1  0  0  0  0
  9 10  1  0  0  0  0
 10 11  1  0  0  0  0
 11 12  1  0  0  0  0
 12 13  1  0  0  0  0
 13 14  1  0  0  0  0
M  END
>  <CHROM.1>
66.39972470,59.46433605,166.68903535,-177.52230092,174.07852650,-169.45249291
176.76163448,-158.43721891,-176.09906500,-68.83923804,-176.91182883,56.22317370
-0.17247393,1.43521099,0.53933466,-0.38043226,1.45956379

>  <Name>
ligand

>  <RI>
0

>  <Rbt.Current_Directory>
/home/itssahil/PROJECTS/Mol_Feturizer/New_Systems/rnas/4FAW

>  <Rbt.Executable>
rbdock ($Id: //depot/dev/client3/rdock/2013.1/src/exe/rbdock.cxx#4 $)

>  <Rbt.Library>
libRbt.so (2013.1, Build901 2013/11/27)

>  <Rbt.Parameter_File>
/export/apps/rDock/src/rDock_2013.1_src/data/scripts/dock_solv.prm

>  <Rbt.Receptor>
prm/pocket_docking_3.prm

>  <SCORE>
-5.90138

>  <SCORE.INTER>
3.56688

>  <SCORE.INTER.CONST>
1

>  <SCORE.INTER.POLAR>
0

>  <SCORE.INTER.ROT>
11

>  <SCORE.INTER.SOLV>
9.49776

>  <SCORE.INTER.VDW>
-11.7213

>  <SCORE.INTER.norm>
0.254777

>  <SCORE.INTRA>
-9.47998

>  <SCORE.INTRA.DIHEDRAL>
-17.4924

>  <SCORE.INTRA.DIHEDRAL.0>
19.1003

>  <SCORE.INTRA.POLAR>
0

>  <SCORE.INTRA.POLAR.0>
0

>  <SCORE.INTRA.REPUL>
0

>  <SCORE.INTRA.REPUL.0>
0

>  <SCORE.INTRA.SOLV>
0.44665

>  <SCORE.INTRA.SOLV.lig_0>
-47.5333

>  <SCORE.INTRA.VDW>
-0.957112

>  <SCORE.INTRA.VDW.0>
-0.287413

>  <SCORE.INTRA.norm>
-0.677141

>  <SCORE.RESTR>
0.0117176

>  <SCORE.RESTR.CAVITY>
0.0117176

>  <SCORE.RESTR.norm>
0.000836975

>  <SCORE.SYSTEM>
0

>  <SCORE.SYSTEM.CONST>
0

>  <SCORE.SYSTEM.DIHEDRAL>
0

>  <SCORE.SYSTEM.SOLV>
0

>  <SCORE.SYSTEM.norm>
0

>  <SCORE.heavy>
14

>  <SCORE.norm>
-0.421527

>  <RMSD>
2.856

$$$$
ligand
 OpenBabel11021811493D
libRbt.so/2013.1/901 2013/11/27
 14 13  0  0  0  0  0  0  0  0999 V2000
   61.4985   -2.6273    3.9898 N   0  0  0  0  0  0  0  0  0  0  0  0
   60.9703   -1.2961    3.7875 C   0  0  0  0  0  0  0  0  0  0  0  0
   60.3103   -1.2209    2.3952 C   0  0  0  0  0  0  0  0  0  0  0  0
   59.1152   -2.1705    2.2190 C   0  0  0  0  0  0  0  0  0  0  0  0
   58.4211   -2.0931    0.9244 N   0  0  0  0  0  0  0  0  0  0  0  0
   57.3855   -1.1074    0.6199 C   0  0  0  0  0  0  0  0  0  0  0  0
   57.8796    0.3313    0.7308 C   0  0  0  0  0  0  0  0  0  0  0  0
   56.8347    1.3726    0.3169 C   0  0  0  0  0  0  0  0  0  0  0  0
   55.6234    1.3767    1.2569 C   0  0  0  0  0  0  0  0  0  0  0  0
   54.5528    2.1750    0.6633 N   0  0  0  0  0  0  0  0  0  0  0  0
   53.1822    2.2327    1.1747 C   0  0  0  0  0  0  0  0  0  0  0  0
   52.1653    2.6579    0.1065 C   0  0  0  0  0  0  0  0  0  0  0  0
   52.0767    1.6269   -1.0235 C   0  0  0  0  0  0  0  0  0  0  0  0
   51.2218    2.1460   -2.0869 N   0  0  0  0  0  0  0  0  0  0  0  0
  1  2  1  0  0  0  0
  2  3  1  0  0  0  0
  3  4  1  0  0  0  0
  4  5  1  0  0  0  0
  5  6  1  0  0  0  0
  6  7  1  0  0  0  0
  7  8  1  0  0  0  0
  8  9  1  0  0  0  0
  9 10  1  0  0  0  0
 10 11  1  0  0  0  0
 11 12  1  0  0  0  0
 12 13  1  0  0  0  0
 13 14  1  0  0  0  0
M  END
>  <CHROM.1>
62.28116261,177.62703120,-83.67881355,59.96584903,175.83601737,64.99971988
-168.24960415,170.07518455,-157.03221349,64.32796873,-173.33350112,56.51699155
0.24326127,1.07683460,-0.06672297,-0.58273725,0.75780232

>  <Name>
ligand

>  <RI>
0

>  <Rbt.Current_Directory>
/home/itssahil/PROJECTS/Mol_Feturizer/New_Systems/rnas/4FAW

>  <Rbt.Executable>
rbdock ($Id: //depot/dev/client3/rdock/2013.1/src/exe/rbdock.cxx#4 $)

>  <Rbt.Library>
libRbt.so (2013.1, Build901 2013/11/27)

>  <Rbt.Parameter_File>
/export/apps/rDock/src/rDock_2013.1_src/data/scripts/dock_solv.prm

>  <Rbt.Receptor>
prm/pocket_docking_3.prm

>  <SCORE>
-4.48664

>  <SCORE.INTER>
4.17656

>  <SCORE.INTER.CONST>
1

>  <SCORE.INTER.POLAR>
0

>  <SCORE.INTER.ROT>
11

>  <SCORE.INTER.SOLV>
12.4043

>  <SCORE.INTER.VDW>
-12.2837

>  <SCORE.INTER.norm>
0.298326

>  <SCORE.INTRA>
-8.6632

>  <SCORE.INTRA.DIHEDRAL>
-17.2784

>  <SCORE.INTRA.DIHEDRAL.0>
19.1003

>  <SCORE.INTRA.POLAR>
0

>  <SCORE.INTRA.POLAR.0>
0

>  <SCORE.INTRA.REPUL>
0

>  <SCORE.INTRA.REPUL.0>
0

>  <SCORE.INTRA.SOLV>
-0.164189

>  <SCORE.INTRA.SOLV.lig_0>
-47.5333

>  <SCORE.INTRA.VDW>
0.0581118

>  <SCORE.INTRA.VDW.0>
-0.287413

>  <SCORE.INTRA.norm>
-0.6188

>  <SCORE.RESTR>
0

>  <SCORE.RESTR.CAVITY>
0

>  <SCORE.RESTR.norm>
0

>  <SCORE.SYSTEM>
0

>  <SCORE.SYSTEM.CONST>
0

>  <SCORE.SYSTEM.DIHEDRAL>
0

>  <SCORE.SYSTEM.SOLV>
0

>  <SCORE.SYSTEM.norm>
0

>  <SCORE.heavy>
14

>  <SCORE.norm>
-0.320474

>  <RMSD>
2.884

$$$$
ligand
 OpenBabel11021811493D
libRbt.so/2013.1/901 2013/11/27
 14 13  0  0  0  0  0  0  0  0999 V2000
   56.7524    0.2953    4.6820 N   0  0  0  0  0  0  0  0  0  0  0  0
   57.0551   -0.3803    3.4394 C   0  0  0  0  0  0  0  0  0  0  0  0
   58.4858   -0.9524    3.5112 C   0  0  0  0  0  0  0  0  0  0  0  0
   58.9315   -1.6810    2.2339 C   0  0  0  0  0  0  0  0  0  0  0  0
   58.8944   -0.8859    0.9969 N   0  0  0  0  0  0  0  0  0  0  0  0
   57.6967   -0.7262    0.1740 C   0  0  0  0  0  0  0  0  0  0  0  0
   57.8091    0.4180   -0.8281 C   0  0  0  0  0  0  0  0  0  0  0  0
   57.8855    1.8014   -0.1739 C   0  0  0  0  0  0  0  0  0  0  0  0
   57.9699    2.9252   -1.2136 C   0  0  0  0  0  0  0  0  0  0  0  0
   56.7281    2.9672   -1.9828 N   0  0  0  0  0  0  0  0  0  0  0  0
   55.5274    3.7002   -1.5773 C   0  0  0  0  0  0  0  0  0  0  0  0
   54.5977    4.0194   -2.7563 C   0  0  0  0  0  0  0  0  0  0  0  0
   54.0267    2.7418   -3.3802 C   0  0  0  0  0  0  0  0  0  0  0  0
   53.0719    3.0982   -4.4255 N   0  0  0  0  0  0  0  0  0  0  0  0
  1  2  1  0  0  0  0
  2  3  1  0  0  0  0
  3  4  1  0  0  0  0
  4  5  1  0  0  0  0
  5  6  1  0  0  0  0
  6  7  1  0  0  0  0
  7  8  1  0  0  0  0
  8  9  1  0  0  0  0
  9 10  1  0  0  0  0
 10 11  1  0  0  0  0
 11 12  1  0  0  0  0
 12 13  1  0  0  0  0
 13 14  1  0  0  0  0
M  END
>  <CHROM.1>
-179.21052697,57.67173328,-85.23392499,164.77028964,-66.26794735,-178.88350127
65.31000957,86.07511084,158.14668783,64.72603329,175.63832777,56.81678163
1.23857924,-0.09283208,1.04028099,-0.54973831,1.87296098

>  <Name>
ligand

>  <RI>
0

>  <Rbt.Current_Directory>
/home/itssahil/PROJECTS/Mol_Feturizer/New_Systems/rnas/4FAW

>  <Rbt.Executable>
rbdock ($Id: //depot/dev/client3/rdock/2013.1/src/exe/rbdock.cxx#4 $)

>  <Rbt.Library>
libRbt.so (2013.1, Build901 2013/11/27)

>  <Rbt.Parameter_File>
/export/apps/rDock/src/rDock_2013.1_src/data/scripts/dock_solv.prm

>  <Rbt.Receptor>
prm/pocket_docking_5.prm

>  <SCORE>
-7.96599

>  <SCORE.INTER>
1.5991

>  <SCORE.INTER.CONST>
1

>  <SCORE.INTER.POLAR>
0

>  <SCORE.INTER.ROT>
11

>  <SCORE.INTER.SOLV>
9.53775

>  <SCORE.INTER.VDW>
-13.0465

>  <SCORE.INTER.norm>
0.114221

>  <SCORE.INTRA>
-9.56509

>  <SCORE.INTRA.DIHEDRAL>
-17.2012

>  <SCORE.INTRA.DIHEDRAL.0>
19.1003

>  <SCORE.INTRA.POLAR>
0

>  <SCORE.INTRA.POLAR.0>
0

>  <SCORE.INTRA.REPUL>
0

>  <SCORE.INTRA.REPUL.0>
0

>  <SCORE.INTRA.SOLV>
-0.115031

>  <SCORE.INTRA.SOLV.lig_0>
-47.5333

>  <SCORE.INTRA.VDW>
-0.906963

>  <SCORE.INTRA.VDW.0>
-0.287413

>  <SCORE.INTRA.norm>
-0.683221

>  <SCORE.RESTR>
0

>  <SCORE.RESTR.CAVITY>
0

>  <SCORE.RESTR.norm>
0

>  <SCORE.SYSTEM>
0

>  <SCORE.SYSTEM.CONST>
0

>  <SCORE.SYSTEM.DIHEDRAL>
0

>  <SCORE.SYSTEM.SOLV>
0

>  <SCORE.SYSTEM.norm>
0

>  <SCORE.heavy>
14

>  <SCORE.norm>
-0.569

>  <RMSD>
2.909

$$$$
ligand
 OpenBabel11021811493D
libRbt.so/2013.1/901 2013/11/27
 14 13  0  0  0  0  0  0  0  0999 V2000
   60.8973   -0.4552    4.9324 N   0  0  0  0  0  0  0  0  0  0  0  0
   61.5753   -1.2531    3.9346 C   0  0  0  0  0  0  0  0  0  0  0  0
   60.5314   -2.0744    3.1501 C   0  0  0  0  0  0  0  0  0  0  0  0
   59.5744   -1.2213    2.3031 C   0  0  0  0  0  0  0  0  0  0  0  0
   58.5261   -1.9594    1.5822 N   0  0  0  0  0  0  0  0  0  0  0  0
   57.8292   -1.4349    0.4091 C   0  0  0  0  0  0  0  0  0  0  0  0
   56.8447   -0.3205    0.7483 C   0  0  0  0  0  0  0  0  0  0  0  0
   55.7080   -0.7666    1.6738 C   0  0  0  0  0  0  0  0  0  0  0  0
   54.6775    0.3466    1.8965 C   0  0  0  0  0  0  0  0  0  0  0  0
   53.9625    0.6013    0.6476 N   0  0  0  0  0  0  0  0  0  0  0  0
   53.1668    1.8005    0.3789 C   0  0  0  0  0  0  0  0  0  0  0  0
   52.4620    1.7546   -0.9840 C   0  0  0  0  0  0  0  0  0  0  0  0
   51.7016    3.0549   -1.2646 C   0  0  0  0  0  0  0  0  0  0  0  0
   51.0711    2.9733   -2.5788 N   0  0  0  0  0  0  0  0  0  0  0  0
  1  2  1  0  0  0  0
  2  3  1  0  0  0  0
  3  4  1  0  0  0  0
  4  5  1  0  0  0  0
  5  6  1  0  0  0  0
  6  7  1  0  0  0  0
  7  8  1  0  0  0  0
  8  9  1  0  0  0  0
  9 10  1  0  0  0  0
 10 11  1  0  0  0  0
 11 12  1  0  0  0  0
 12 13  1  0  0  0  0
 13 14  1  0  0  0  0
M  END
>  <CHROM.1>
66.01614547,-177.52824524,-158.46331043,-72.37696060,-62.27577090,-175.21554879
67.96183395,-163.47032589,-176.51293718,-176.91319861,178.92896507,56.32351956
0.07461203,1.20211888,0.15887963,-0.58440708,0.97735883

>  <Name>
ligand

>  <RI>
0

>  <Rbt.Current_Directory>
/home/itssahil/PROJECTS/Mol_Feturizer/New_Systems/rnas/4FAW

>  <Rbt.Executable>
rbdock ($Id: //depot/dev/client3/rdock/2013.1/src/exe/rbdock.cxx#4 $)

>  <Rbt.Library>
libRbt.so (2013.1, Build901 2013/11/27)

>  <Rbt.Parameter_File>
/export/apps/rDock/src/rDock_2013.1_src/data/scripts/dock_solv.prm

>  <Rbt.Receptor>
prm/pocket_docking_6.prm

>  <SCORE>
-7.67506

>  <SCORE.INTER>
1.98691

>  <SCORE.INTER.CONST>
1

>  <SCORE.INTER.POLAR>
0

>  <SCORE.INTER.ROT>
11

>  <SCORE.INTER.SOLV>
12.9019

>  <SCORE.INTER.VDW>
-13.9094

>  <SCORE.INTER.norm>
0.141922

>  <SCORE.INTRA>
-9.66197

>  <SCORE.INTRA.DIHEDRAL>
-17.8643

>  <SCORE.INTRA.DIHEDRAL.0>
19.1003

>  <SCORE.INTRA.POLAR>
0

>  <SCORE.INTRA.POLAR.0>
0

>  <SCORE.INTRA.REPUL>
0

>  <SCORE.INTRA.REPUL.0>
0

>  <SCORE.INTRA.SOLV>
-0.0357899

>  <SCORE.INTRA.SOLV.lig_0>
-47.5333

>  <SCORE.INTRA.VDW>
-0.711936

>  <SCORE.INTRA.VDW.0>
-0.287413

>  <SCORE.INTRA.norm>
-0.690141

>  <SCORE.RESTR>
0

>  <SCORE.RESTR.CAVITY>
0

>  <SCORE.RESTR.norm>
0

>  <SCORE.SYSTEM>
0

>  <SCORE.SYSTEM.CONST>
0

>  <SCORE.SYSTEM.DIHEDRAL>
0

>  <SCORE.SYSTEM.SOLV>
0

>  <SCORE.SYSTEM.norm>
0

>  <SCORE.heavy>
14

>  <SCORE.norm>
-0.548218

>  <RMSD>
2.945

$$$$
ligand
 OpenBabel11021811493D
libRbt.so/2013.1/901 2013/11/27
 14 13  0  0  0  0  0  0  0  0999 V2000
   52.8407    4.0616   -4.7491 N   0  0  0  0  0  0  0  0  0  0  0  0
   53.9638    3.8495   -3.8627 C   0  0  0  0  0  0  0  0  0  0  0  0
   54.2586    5.1572   -3.0994 C   0  0  0  0  0  0  0  0  0  0  0  0
   55.4353    5.0545   -2.1166 C   0  0  0  0  0  0  0  0  0  0  0  0
   55.2536    4.1200   -0.9953 N   0  0  0  0  0  0  0  0  0  0  0  0
   56.1156    2.9632   -0.7591 C   0  0  0  0  0  0  0  0  0  0  0  0
   57.2658    3.2613    0.1972 C   0  0  0  0  0  0  0  0  0  0  0  0
   58.2863    2.1234    0.3032 C   0  0  0  0  0  0  0  0  0  0  0  0
   59.4257    2.4613    1.2720 C   0  0  0  0  0  0  0  0  0  0  0  0
   58.8997    2.5271    2.6338 N   0  0  0  0  0  0  0  0  0  0  0  0
   59.7263    2.6582    3.8351 C   0  0  0  0  0  0  0  0  0  0  0  0
   59.5298    1.4995    4.8226 C   0  0  0  0  0  0  0  0  0  0  0  0
   60.4875    1.6108    6.0134 C   0  0  0  0  0  0  0  0  0  0  0  0
   60.2280    0.5192    6.9473 N   0  0  0  0  0  0  0  0  0  0  0  0
  1  2  1  0  0  0  0
  2  3  1  0  0  0  0
  3  4  1  0  0  0  0
  4  5  1  0  0  0  0
  5  6  1  0  0  0  0
  6  7  1  0  0  0  0
  7  8  1  0  0  0  0
  8  9  1  0  0  0  0
  9 10  1  0  0  0  0
 10 11  1  0  0  0  0
 11 12  1  0  0  0  0
 12 13  1  0  0  0  0
 13 14  1  0  0  0  0
M  END
>  <CHROM.1>
179.77260355,-63.90010367,119.29660237,93.30287032,-171.94510919,179.96142732
67.62793921,171.86547655,-121.05729591,175.53339165,177.82332777,57.26567467
2.99056498,0.74580059,2.15029609,0.01615313,-1.26213920

>  <Name>
ligand

>  <RI>
0

>  <Rbt.Current_Directory>
/home/itssahil/PROJECTS/Mol_Feturizer/New_Systems/rnas/4FAW

>  <Rbt.Executable>
rbdock ($Id: //depot/dev/client3/rdock/2013.1/src/exe/rbdock.cxx#4 $)

>  <Rbt.Library>
libRbt.so (2013.1, Build901 2013/11/27)

>  <Rbt.Parameter_File>
/export/apps/rDock/src/rDock_2013.1_src/data/scripts/dock_solv.prm

>  <Rbt.Receptor>
prm/pocket_docking_4.prm

>  <SCORE>
-4.58559

>  <SCORE.INTER>
4.45124

>  <SCORE.INTER.CONST>
1

>  <SCORE.INTER.POLAR>
0

>  <SCORE.INTER.ROT>
11

>  <SCORE.INTER.SOLV>
4.17411

>  <SCORE.INTER.VDW>
-9.35721

>  <SCORE.INTER.norm>
0.317946

>  <SCORE.INTRA>
-9.04766

>  <SCORE.INTRA.DIHEDRAL>
-15.3351

>  <SCORE.INTRA.DIHEDRAL.0>
19.1003

>  <SCORE.INTRA.POLAR>
0

>  <SCORE.INTRA.POLAR.0>
0

>  <SCORE.INTRA.REPUL>
0

>  <SCORE.INTRA.REPUL.0>
0

>  <SCORE.INTRA.SOLV>
-0.80113

>  <SCORE.INTRA.SOLV.lig_0>
-47.5333

>  <SCORE.INTRA.VDW>
-0.979521

>  <SCORE.INTRA.VDW.0>
-0.287413

>  <SCORE.INTRA.norm>
-0.646261

>  <SCORE.RESTR>
0.0108285

>  <SCORE.RESTR.CAVITY>
0.0108285

>  <SCORE.RESTR.norm>
0.000773462

>  <SCORE.SYSTEM>
0

>  <SCORE.SYSTEM.CONST>
0

>  <SCORE.SYSTEM.DIHEDRAL>
0

>  <SCORE.SYSTEM.SOLV>
0

>  <SCORE.SYSTEM.norm>
0

>  <SCORE.heavy>
14

>  <SCORE.norm>
-0.327542

>  <RMSD>
2.948

$$$$
ligand
 OpenBabel11021811493D
libRbt.so/2013.1/901 2013/11/27
 14 13  0  0  0  0  0  0  0  0999 V2000
   60.6387   -1.9075    4.6897 N   0  0  0  0  0  0  0  0  0  0  0  0
   59.6355   -2.6095    3.9196 C   0  0  0  0  0  0  0  0  0  0  0  0
   59.9311   -2.4240    2.4170 C   0  0  0  0  0  0  0  0  0  0  0  0
   59.7739   -0.9772    1.9239 C   0  0  0  0  0  0  0  0  0  0  0  0
   58.4111   -0.4265    1.9784 N   0  0  0  0  0  0  0  0  0  0  0  0
   57.4254   -0.6007    0.9130 C   0  0  0  0  0  0  0  0  0  0  0  0
   57.7151    0.2573   -0.3143 C   0  0  0  0  0  0  0  0  0  0  0  0
   57.8241    1.7539   -0.0048 C   0  0  0  0  0  0  0  0  0  0  0  0
   57.9384    2.5978   -1.2798 C   0  0  0  0  0  0  0  0  0  0  0  0
   56.6415    2.6368   -1.9524 N   0  0  0  0  0  0  0  0  0  0  0  0
   55.7049    3.7596   -1.8801 C   0  0  0  0  0  0  0  0  0  0  0  0
   54.2519    3.3414   -2.1453 C   0  0  0  0  0  0  0  0  0  0  0  0
   54.0757    2.8029   -3.5689 C   0  0  0  0  0  0  0  0  0  0  0  0
   54.2514    3.8928   -4.5242 N   0  0  0  0  0  0  0  0  0  0  0  0
  1  2  1  0  0  0  0
  2  3  1  0  0  0  0
  3  4  1  0  0  0  0
  4  5  1  0  0  0  0
  5  6  1  0  0  0  0
  6  7  1  0  0  0  0
  7  8  1  0  0  0  0
  8  9  1  0  0  0  0
  9 10  1  0  0  0  0
 10 11  1  0  0  0  0
 11 12  1  0  0  0  0
 12 13  1  0  0  0  0
 13 14  1  0  0  0  0
M  END
>  <CHROM.1>
-66.22328769,-65.16298349,-86.16598140,-73.97705171,-56.25924784,-172.79507721
73.09826787,100.82508473,-155.69534090,-63.45353758,-68.24809580,57.44417375
0.86400009,0.01225938,-0.94651509,-0.50164986,-0.53901131

>  <Name>
ligand

>  <RI>
0

>  <Rbt.Current_Directory>
/home/itssahil/PROJECTS/Mol_Feturizer/New_Systems/rnas/4FAW

>  <Rbt.Executable>
rbdock ($Id: //depot/dev/client3/rdock/2013.1/src/exe/rbdock.cxx#4 $)

>  <Rbt.Library>
libRbt.so (2013.1, Build901 2013/11/27)

>  <Rbt.Parameter_File>
/export/apps/rDock/src/rDock_2013.1_src/data/scripts/dock_solv.prm

>  <Rbt.Receptor>
prm/pocket_docking_4.prm

>  <SCORE>
-6.51283

>  <SCORE.INTER>
0.771092

>  <SCORE.INTER.CONST>
1

>  <SCORE.INTER.POLAR>
0

>  <SCORE.INTER.ROT>
11

>  <SCORE.INTER.SOLV>
8.17043

>  <SCORE.INTER.VDW>
-13.1427

>  <SCORE.INTER.norm>
0.055078

>  <SCORE.INTRA>
-7.28393

>  <SCORE.INTRA.DIHEDRAL>
-15.6846

>  <SCORE.INTRA.DIHEDRAL.0>
19.1003

>  <SCORE.INTRA.POLAR>
0

>  <SCORE.INTRA.POLAR.0>
0

>  <SCORE.INTRA.REPUL>
0

>  <SCORE.INTRA.REPUL.0>
0

>  <SCORE.INTRA.SOLV>
2.44764

>  <SCORE.INTRA.SOLV.lig_0>
-47.5333

>  <SCORE.INTRA.VDW>
-0.665448

>  <SCORE.INTRA.VDW.0>
-0.287413

>  <SCORE.INTRA.norm>
-0.52028

>  <SCORE.RESTR>
0

>  <SCORE.RESTR.CAVITY>
0

>  <SCORE.RESTR.norm>
0

>  <SCORE.SYSTEM>
0

>  <SCORE.SYSTEM.CONST>
0

>  <SCORE.SYSTEM.DIHEDRAL>
0

>  <SCORE.SYSTEM.SOLV>
0

>  <SCORE.SYSTEM.norm>
0

>  <SCORE.heavy>
14

>  <SCORE.norm>
-0.465202

>  <RMSD>
2.962

$$$$
ligand
 OpenBabel11021811493D
libRbt.so/2013.1/901 2013/11/27
 14 13  0  0  0  0  0  0  0  0999 V2000
   49.7207    1.4976   -5.2664 N   0  0  0  0  0  0  0  0  0  0  0  0
   48.9967    2.6244   -4.7201 C   0  0  0  0  0  0  0  0  0  0  0  0
   49.7744    3.1867   -3.5125 C   0  0  0  0  0  0  0  0  0  0  0  0
   51.1491    3.7712   -3.8726 C   0  0  0  0  0  0  0  0  0  0  0  0
   51.9947    4.1667   -2.7359 N   0  0  0  0  0  0  0  0  0  0  0  0
   52.7019    3.2124   -1.8837 C   0  0  0  0  0  0  0  0  0  0  0  0
   51.7956    2.5462   -0.8536 C   0  0  0  0  0  0  0  0  0  0  0  0
   52.5253    1.5485    0.0518 C   0  0  0  0  0  0  0  0  0  0  0  0
   53.5745    2.2342    0.9348 C   0  0  0  0  0  0  0  0  0  0  0  0
   54.2584    1.2278    1.7442 N   0  0  0  0  0  0  0  0  0  0  0  0
   55.1630    0.2092    1.2080 C   0  0  0  0  0  0  0  0  0  0  0  0
   56.4050   -0.0052    2.0843 C   0  0  0  0  0  0  0  0  0  0  0  0
   57.3301   -1.0733    1.4918 C   0  0  0  0  0  0  0  0  0  0  0  0
   57.8860   -0.5879    0.2322 N   0  0  0  0  0  0  0  0  0  0  0  0
  1  2  1  0  0  0  0
  2  3  1  0  0  0  0
  3  4  1  0  0  0  0
  4  5  1  0  0  0  0
  5  6  1  0  0  0  0
  6  7  1  0  0  0  0
  7  8  1  0  0  0  0
  8  9  1  0  0  0  0
  9 10  1  0  0  0  0
 10 11  1  0  0  0  0
 11 12  1  0  0  0  0
 12 13  1  0  0  0  0
 13 14  1  0  0  0  0
M  END
>  <CHROM.1>
64.40954191,-172.73366989,75.08959699,-78.44737820,-179.69697286,64.68966611
-178.42854280,68.39616258,138.75241254,-179.83267501,66.37132740,53.09095332
1.75424288,-1.07823891,-2.73272974,-0.69061659,1.11053530

>  <Name>
ligand

>  <RI>
0

>  <Rbt.Current_Directory>
/home/itssahil/PROJECTS/Mol_Feturizer/New_Systems/rnas/4FAW

>  <Rbt.Executable>
rbdock ($Id: //depot/dev/client3/rdock/2013.1/src/exe/rbdock.cxx#4 $)

>  <Rbt.Library>
libRbt.so (2013.1, Build901 2013/11/27)

>  <Rbt.Parameter_File>
/export/apps/rDock/src/rDock_2013.1_src/data/scripts/dock_solv.prm

>  <Rbt.Receptor>
prm/pocket_docking_2.prm

>  <SCORE>
-1.48693

>  <SCORE.INTER>
6.73632

>  <SCORE.INTER.CONST>
1

>  <SCORE.INTER.POLAR>
0

>  <SCORE.INTER.ROT>
11

>  <SCORE.INTER.SOLV>
12.5662

>  <SCORE.INTER.VDW>
-10.6312

>  <SCORE.INTER.norm>
0.481166

>  <SCORE.INTRA>
-8.22326

>  <SCORE.INTRA.DIHEDRAL>
-17.1491

>  <SCORE.INTRA.DIHEDRAL.0>
19.1003

>  <SCORE.INTRA.POLAR>
0

>  <SCORE.INTRA.POLAR.0>
0

>  <SCORE.INTRA.REPUL>
0

>  <SCORE.INTRA.REPUL.0>
0

>  <SCORE.INTRA.SOLV>
0.219529

>  <SCORE.INTRA.SOLV.lig_0>
-47.5333

>  <SCORE.INTRA.VDW>
0.241545

>  <SCORE.INTRA.VDW.0>
-0.287413

>  <SCORE.INTRA.norm>
-0.587376

>  <SCORE.RESTR>
0

>  <SCORE.RESTR.CAVITY>
0

>  <SCORE.RESTR.norm>
0

>  <SCORE.SYSTEM>
0

>  <SCORE.SYSTEM.CONST>
0

>  <SCORE.SYSTEM.DIHEDRAL>
0

>  <SCORE.SYSTEM.SOLV>
0

>  <SCORE.SYSTEM.norm>
0

>  <SCORE.heavy>
14

>  <SCORE.norm>
-0.10621

>  <RMSD>
2.967

$$$$
ligand
 OpenBabel11021811493D
libRbt.so/2013.1/901 2013/11/27
 14 13  0  0  0  0  0  0  0  0999 V2000
   51.9155    2.6121    2.0197 N   0  0  0  0  0  0  0  0  0  0  0  0
   52.8077    2.5839    0.8816 C   0  0  0  0  0  0  0  0  0  0  0  0
   51.9951    2.8436   -0.4036 C   0  0  0  0  0  0  0  0  0  0  0  0
   52.8396    2.8408   -1.6873 C   0  0  0  0  0  0  0  0  0  0  0  0
   53.9106    3.8469   -1.7515 N   0  0  0  0  0  0  0  0  0  0  0  0
   55.3125    3.5203   -2.0066 C   0  0  0  0  0  0  0  0  0  0  0  0
   56.0400    3.0046   -0.7692 C   0  0  0  0  0  0  0  0  0  0  0  0
   57.4667    2.5231   -1.0523 C   0  0  0  0  0  0  0  0  0  0  0  0
   58.1508    1.9798    0.2078 C   0  0  0  0  0  0  0  0  0  0  0  0
   57.4517    0.7781    0.6582 N   0  0  0  0  0  0  0  0  0  0  0  0
   57.7145   -0.5708    0.1534 C   0  0  0  0  0  0  0  0  0  0  0  0
   58.2192   -1.5268    1.2432 C   0  0  0  0  0  0  0  0  0  0  0  0
   59.4987   -0.9998    1.9010 C   0  0  0  0  0  0  0  0  0  0  0  0
   59.9915   -1.9845    2.8595 N   0  0  0  0  0  0  0  0  0  0  0  0
  1  2  1  0  0  0  0
  2  3  1  0  0  0  0
  3  4  1  0  0  0  0
  4  5  1  0  0  0  0
  5  6  1  0  0  0  0
  6  7  1  0  0  0  0
  7  8  1  0  0  0  0
  8  9  1  0  0  0  0
  9 10  1  0  0  0  0
 10 11  1  0  0  0  0
 11 12  1  0  0  0  0
 12 13  1  0  0  0  0
 13 14  1  0  0  0  0
M  END
>  <CHROM.1>
179.87598916,-60.19295537,125.20570321,-79.79122773,174.06811341,-178.53507265
65.10812031,85.27440009,117.77638954,-57.83675776,-175.97168057,55.95106813
1.53232850,0.16067573,2.54107761,0.27781587,-0.86186369

>  <Name>
ligand

>  <RI>
0

>  <Rbt.Current_Directory>
/home/itssahil/PROJECTS/Mol_Feturizer/New_Systems/rnas/4FAW

>  <Rbt.Executable>
rbdock ($Id: //depot/dev/client3/rdock/2013.1/src/exe/rbdock.cxx#4 $)

>  <Rbt.Library>
libRbt.so (2013.1, Build901 2013/11/27)

>  <Rbt.Parameter_File>
/export/apps/rDock/src/rDock_2013.1_src/data/scripts/dock_solv.prm

>  <Rbt.Receptor>
prm/pocket_docking_3.prm

>  <SCORE>
-7.00948

>  <SCORE.INTER>
1.97116

>  <SCORE.INTER.CONST>
1

>  <SCORE.INTER.POLAR>
0

>  <SCORE.INTER.ROT>
11

>  <SCORE.INTER.SOLV>
8.84658

>  <SCORE.INTER.VDW>
-12.5681

>  <SCORE.INTER.norm>
0.140797

>  <SCORE.INTRA>
-8.98291

>  <SCORE.INTRA.DIHEDRAL>
-15.6609

>  <SCORE.INTRA.DIHEDRAL.0>
19.1003

>  <SCORE.INTRA.POLAR>
0

>  <SCORE.INTRA.POLAR.0>
0

>  <SCORE.INTRA.REPUL>
0

>  <SCORE.INTRA.REPUL.0>
0

>  <SCORE.INTRA.SOLV>
-0.381563

>  <SCORE.INTRA.SOLV.lig_0>
-47.5333

>  <SCORE.INTRA.VDW>
-0.961666

>  <SCORE.INTRA.VDW.0>
-0.287413

>  <SCORE.INTRA.norm>
-0.641636

>  <SCORE.RESTR>
0.00226746

>  <SCORE.RESTR.CAVITY>
0.00226746

>  <SCORE.RESTR.norm>
0.000161961

>  <SCORE.SYSTEM>
0

>  <SCORE.SYSTEM.CONST>
0

>  <SCORE.SYSTEM.DIHEDRAL>
0

>  <SCORE.SYSTEM.SOLV>
0

>  <SCORE.SYSTEM.norm>
0

>  <SCORE.heavy>
14

>  <SCORE.norm>
-0.500677

>  <RMSD>
3.002

$$$$
ligand
 OpenBabel11021811493D
libRbt.so/2013.1/901 2013/11/27
 14 13  0  0  0  0  0  0  0  0999 V2000
   50.5242   -0.1423   -4.2800 N   0  0  0  0  0  0  0  0  0  0  0  0
   51.4343   -0.4337   -3.1942 C   0  0  0  0  0  0  0  0  0  0  0  0
   51.9286    0.8921   -2.5800 C   0  0  0  0  0  0  0  0  0  0  0  0
   52.7420    1.7640   -3.5492 C   0  0  0  0  0  0  0  0  0  0  0  0
   53.3139    2.9933   -2.9787 N   0  0  0  0  0  0  0  0  0  0  0  0
   54.3779    3.7635   -3.6204 C   0  0  0  0  0  0  0  0  0  0  0  0
   54.8628    4.9340   -2.7713 C   0  0  0  0  0  0  0  0  0  0  0  0
   55.3608    4.5200   -1.3827 C   0  0  0  0  0  0  0  0  0  0  0  0
   56.6645    3.7163   -1.4555 C   0  0  0  0  0  0  0  0  0  0  0  0
   57.0673    3.3242   -0.1065 N   0  0  0  0  0  0  0  0  0  0  0  0
   58.2632    2.5393    0.2051 C   0  0  0  0  0  0  0  0  0  0  0  0
   58.2901    2.0463    1.6586 C   0  0  0  0  0  0  0  0  0  0  0  0
   59.6218    1.3671    1.9944 C   0  0  0  0  0  0  0  0  0  0  0  0
   59.5716    0.8506    3.3589 N   0  0  0  0  0  0  0  0  0  0  0  0
  1  2  1  0  0  0  0
  2  3  1  0  0  0  0
  3  4  1  0  0  0  0
  4  5  1  0  0  0  0
  5  6  1  0  0  0  0
  6  7  1  0  0  0  0
  7  8  1  0  0  0  0
  8  9  1  0  0  0  0
  9 10  1  0  0  0  0
 10 11  1  0  0  0  0
 11 12  1  0  0  0  0
 12 13  1  0  0  0  0
 13 14  1  0  0  0  0
M  END
>  <CHROM.1>
-63.32039473,-175.85276238,163.81234742,-175.61733156,56.90632138,68.70079955
-178.58339905,179.68047011,-168.77164639,-173.57207821,-176.85273133,55.28742754
2.29557213,-1.33595777,2.94458137,-0.62951186,-0.46633142

>  <Name>
ligand

>  <RI>
0

>  <Rbt.Current_Directory>
/home/itssahil/PROJECTS/Mol_Feturizer/New_Systems/rnas/4FAW

>  <Rbt.Executable>
rbdock ($Id: //depot/dev/client3/rdock/2013.1/src/exe/rbdock.cxx#4 $)

>  <Rbt.Library>
libRbt.so (2013.1, Build901 2013/11/27)

>  <Rbt.Parameter_File>
/export/apps/rDock/src/rDock_2013.1_src/data/scripts/dock_solv.prm

>  <Rbt.Receptor>
prm/pocket_docking_7.prm

>  <SCORE>
-7.55663

>  <SCORE.INTER>
2.01626

>  <SCORE.INTER.CONST>
1

>  <SCORE.INTER.POLAR>
0

>  <SCORE.INTER.ROT>
11

>  <SCORE.INTER.SOLV>
8.56074

>  <SCORE.INTER.VDW>
-12.4427

>  <SCORE.INTER.norm>
0.144019

>  <SCORE.INTRA>
-9.57289

>  <SCORE.INTRA.DIHEDRAL>
-18.1264

>  <SCORE.INTRA.DIHEDRAL.0>
19.1003

>  <SCORE.INTRA.POLAR>
0

>  <SCORE.INTRA.POLAR.0>
0

>  <SCORE.INTRA.REPUL>
0

>  <SCORE.INTRA.REPUL.0>
0

>  <SCORE.INTRA.SOLV>
-0.058841

>  <SCORE.INTRA.SOLV.lig_0>
-47.5333

>  <SCORE.INTRA.VDW>
-0.480282

>  <SCORE.INTRA.VDW.0>
-0.287413

>  <SCORE.INTRA.norm>
-0.683778

>  <SCORE.RESTR>
0

>  <SCORE.RESTR.CAVITY>
0

>  <SCORE.RESTR.norm>
0

>  <SCORE.SYSTEM>
0

>  <SCORE.SYSTEM.CONST>
0

>  <SCORE.SYSTEM.DIHEDRAL>
0

>  <SCORE.SYSTEM.SOLV>
0

>  <SCORE.SYSTEM.norm>
0

>  <SCORE.heavy>
14

>  <SCORE.norm>
-0.539759

>  <RMSD>
3.042

$$$$
ligand
 OpenBabel11021811493D
libRbt.so/2013.1/901 2013/11/27
 14 13  0  0  0  0  0  0  0  0999 V2000
   51.4965    1.3248   -1.8709 N   0  0  0  0  0  0  0  0  0  0  0  0
   52.0538    1.0854   -0.5578 C   0  0  0  0  0  0  0  0  0  0  0  0
   52.2669    2.4370    0.1544 C   0  0  0  0  0  0  0  0  0  0  0  0
   52.9793    2.3222    1.5110 C   0  0  0  0  0  0  0  0  0  0  0  0
   54.3861    1.8955    1.4616 N   0  0  0  0  0  0  0  0  0  0  0  0
   54.8038    0.5055    1.2876 C   0  0  0  0  0  0  0  0  0  0  0  0
   56.3097    0.3537    1.0995 C   0  0  0  0  0  0  0  0  0  0  0  0
   56.7530   -1.0893    0.8373 C   0  0  0  0  0  0  0  0  0  0  0  0
   58.2775   -1.2115    0.7276 C   0  0  0  0  0  0  0  0  0  0  0  0
   58.8816   -0.9124    2.0242 N   0  0  0  0  0  0  0  0  0  0  0  0
   60.3223   -0.9061    2.2846 C   0  0  0  0  0  0  0  0  0  0  0  0
   60.6650   -0.5128    3.7282 C   0  0  0  0  0  0  0  0  0  0  0  0
   60.1727   -1.5655    4.7268 C   0  0  0  0  0  0  0  0  0  0  0  0
   60.9896   -2.7692    4.6037 N   0  0  0  0  0  0  0  0  0  0  0  0
  1  2  1  0  0  0  0
  2  3  1  0  0  0  0
  3  4  1  0  0  0  0
  4  5  1  0  0  0  0
  5  6  1  0  0  0  0
  6  7  1  0  0  0  0
  7  8  1  0  0  0  0
  8  9  1  0  0  0  0
  9 10  1  0  0  0  0
 10 11  1  0  0  0  0
 11 12  1  0  0  0  0
 12 13  1  0  0  0  0
 13 14  1  0  0  0  0
M  END
>  <CHROM.1>
-174.54781490,67.52832385,-79.05591773,172.94850338,-176.74943414,-176.98398636
66.47045149,-178.74619322,178.16148831,66.29873991,70.94178968,56.45414193
0.06845591,1.57270669,-2.95581623,-0.52731662,1.07575363

>  <Name>
ligand

>  <RI>
0

>  <Rbt.Current_Directory>
/home/itssahil/PROJECTS/Mol_Feturizer/New_Systems/rnas/4FAW

>  <Rbt.Executable>
rbdock ($Id: //depot/dev/client3/rdock/2013.1/src/exe/rbdock.cxx#4 $)

>  <Rbt.Library>
libRbt.so (2013.1, Build901 2013/11/27)

>  <Rbt.Parameter_File>
/export/apps/rDock/src/rDock_2013.1_src/data/scripts/dock_solv.prm

>  <Rbt.Receptor>
prm/pocket_docking_3.prm

>  <SCORE>
-6.29582

>  <SCORE.INTER>
2.99397

>  <SCORE.INTER.CONST>
1

>  <SCORE.INTER.POLAR>
0

>  <SCORE.INTER.ROT>
11

>  <SCORE.INTER.SOLV>
9.88088

>  <SCORE.INTER.VDW>
-12.231

>  <SCORE.INTER.norm>
0.213855

>  <SCORE.INTRA>
-9.28979

>  <SCORE.INTRA.DIHEDRAL>
-17.6335

>  <SCORE.INTRA.DIHEDRAL.0>
19.1003

>  <SCORE.INTRA.POLAR>
0

>  <SCORE.INTRA.POLAR.0>
0

>  <SCORE.INTRA.REPUL>
0

>  <SCORE.INTRA.REPUL.0>
0

>  <SCORE.INTRA.SOLV>
0.771604

>  <SCORE.INTRA.SOLV.lig_0>
-47.5333

>  <SCORE.INTRA.VDW>
-0.858852

>  <SCORE.INTRA.VDW.0>
-0.287413

>  <SCORE.INTRA.norm>
-0.663557

>  <SCORE.RESTR>
0

>  <SCORE.RESTR.CAVITY>
0

>  <SCORE.RESTR.norm>
0

>  <SCORE.SYSTEM>
0

>  <SCORE.SYSTEM.CONST>
0

>  <SCORE.SYSTEM.DIHEDRAL>
0

>  <SCORE.SYSTEM.SOLV>
0

>  <SCORE.SYSTEM.norm>
0

>  <SCORE.heavy>
14

>  <SCORE.norm>
-0.449702

>  <RMSD>
3.074

$$$$
ligand
 OpenBabel11021811493D
libRbt.so/2013.1/901 2013/11/27
 14 13  0  0  0  0  0  0  0  0999 V2000
   60.0781   -2.0512    6.0477 N   0  0  0  0  0  0  0  0  0  0  0  0
   59.9132   -2.7228    4.7773 C   0  0  0  0  0  0  0  0  0  0  0  0
   59.5456   -1.6819    3.6999 C   0  0  0  0  0  0  0  0  0  0  0  0
   59.3737   -2.2743    2.2926 C   0  0  0  0  0  0  0  0  0  0  0  0
   59.0965   -1.3068    1.2198 N   0  0  0  0  0  0  0  0  0  0  0  0
   57.7622   -1.0654    0.6736 C   0  0  0  0  0  0  0  0  0  0  0  0
   57.6933    0.1786   -0.2060 C   0  0  0  0  0  0  0  0  0  0  0  0
   57.9905    1.4796    0.5467 C   0  0  0  0  0  0  0  0  0  0  0  0
   57.9009    2.7067   -0.3683 C   0  0  0  0  0  0  0  0  0  0  0  0
   56.5361    2.8338   -0.8752 N   0  0  0  0  0  0  0  0  0  0  0  0
   56.0762    3.9112   -1.7534 C   0  0  0  0  0  0  0  0  0  0  0  0
   54.6936    3.6355   -2.3605 C   0  0  0  0  0  0  0  0  0  0  0  0
   54.2909    4.7296   -3.3547 C   0  0  0  0  0  0  0  0  0  0  0  0
   52.9674    4.4310   -3.8937 N   0  0  0  0  0  0  0  0  0  0  0  0
  1  2  1  0  0  0  0
  2  3  1  0  0  0  0
  3  4  1  0  0  0  0
  4  5  1  0  0  0  0
  5  6  1  0  0  0  0
  6  7  1  0  0  0  0
  7  8  1  0  0  0  0
  8  9  1  0  0  0  0
  9 10  1  0  0  0  0
 10 11  1  0  0  0  0
 11 12  1  0  0  0  0
 12 13  1  0  0  0  0
 13 14  1  0  0  0  0
M  END
>  <CHROM.1>
178.72488711,-176.72165655,-100.74682906,167.73336115,-63.42732228,-179.56300944
62.65018771,178.46172775,167.91455872,-175.66834833,-179.44376627,57.42281903
0.91451819,0.46033607,-0.33228527,-1.03718539,0.36391716

>  <Name>
ligand

>  <RI>
0

>  <Rbt.Current_Directory>
/home/itssahil/PROJECTS/Mol_Feturizer/New_Systems/rnas/4FAW

>  <Rbt.Executable>
rbdock ($Id: //depot/dev/client3/rdock/2013.1/src/exe/rbdock.cxx#4 $)

>  <Rbt.Library>
libRbt.so (2013.1, Build901 2013/11/27)

>  <Rbt.Parameter_File>
/export/apps/rDock/src/rDock_2013.1_src/data/scripts/dock_solv.prm

>  <Rbt.Receptor>
prm/pocket_docking_3.prm

>  <SCORE>
-7.78265

>  <SCORE.INTER>
2.3459

>  <SCORE.INTER.CONST>
1

>  <SCORE.INTER.POLAR>
0

>  <SCORE.INTER.ROT>
11

>  <SCORE.INTER.SOLV>
7.62939

>  <SCORE.INTER.VDW>
-11.9125

>  <SCORE.INTER.norm>
0.167565

>  <SCORE.INTRA>
-10.1286

>  <SCORE.INTRA.DIHEDRAL>
-17.7524

>  <SCORE.INTRA.DIHEDRAL.0>
19.1003

>  <SCORE.INTRA.POLAR>
0

>  <SCORE.INTRA.POLAR.0>
0

>  <SCORE.INTRA.REPUL>
0

>  <SCORE.INTRA.REPUL.0>
0

>  <SCORE.INTRA.SOLV>
-0.712537

>  <SCORE.INTRA.SOLV.lig_0>
-47.5333

>  <SCORE.INTRA.VDW>
-0.896107

>  <SCORE.INTRA.VDW.0>
-0.287413

>  <SCORE.INTRA.norm>
-0.723468

>  <SCORE.RESTR>
0

>  <SCORE.RESTR.CAVITY>
0

>  <SCORE.RESTR.norm>
0

>  <SCORE.SYSTEM>
0

>  <SCORE.SYSTEM.CONST>
0

>  <SCORE.SYSTEM.DIHEDRAL>
0

>  <SCORE.SYSTEM.SOLV>
0

>  <SCORE.SYSTEM.norm>
0

>  <SCORE.heavy>
14

>  <SCORE.norm>
-0.555903

>  <RMSD>
3.075

$$$$
ligand
 OpenBabel11021811493D
libRbt.so/2013.1/901 2013/11/27
 14 13  0  0  0  0  0  0  0  0999 V2000
   51.9482    3.5971    1.1694 N   0  0  0  0  0  0  0  0  0  0  0  0
   51.5211    4.2771   -0.0337 C   0  0  0  0  0  0  0  0  0  0  0  0
   51.6296    3.3066   -1.2278 C   0  0  0  0  0  0  0  0  0  0  0  0
   53.0648    2.8499   -1.5325 C   0  0  0  0  0  0  0  0  0  0  0  0
   54.0150    3.9160   -1.8848 N   0  0  0  0  0  0  0  0  0  0  0  0
   55.4378    3.6835   -2.1264 C   0  0  0  0  0  0  0  0  0  0  0  0
   56.2003    3.2873   -0.8662 C   0  0  0  0  0  0  0  0  0  0  0  0
   57.6590    2.8987   -1.1283 C   0  0  0  0  0  0  0  0  0  0  0  0
   58.3835    2.4838    0.1577 C   0  0  0  0  0  0  0  0  0  0  0  0
   57.7101    1.3250    0.7403 N   0  0  0  0  0  0  0  0  0  0  0  0
   57.6589   -0.0006    0.1211 C   0  0  0  0  0  0  0  0  0  0  0  0
   57.0950   -1.0755    1.0607 C   0  0  0  0  0  0  0  0  0  0  0  0
   55.6474   -0.7679    1.4578 C   0  0  0  0  0  0  0  0  0  0  0  0
   55.6278    0.3673    2.3756 N   0  0  0  0  0  0  0  0  0  0  0  0
  1  2  1  0  0  0  0
  2  3  1  0  0  0  0
  3  4  1  0  0  0  0
  4  5  1  0  0  0  0
  5  6  1  0  0  0  0
  6  7  1  0  0  0  0
  7  8  1  0  0  0  0
  8  9  1  0  0  0  0
  9 10  1  0  0  0  0
 10 11  1  0  0  0  0
 11 12  1  0  0  0  0
 12 13  1  0  0  0  0
 13 14  1  0  0  0  0
M  END
>  <CHROM.1>
-63.63147648,-60.74014437,176.14702368,-68.60614014,173.96912256,-178.99545733
60.55185438,66.24414514,170.24017483,62.20638139,-71.69329251,55.25721047
2.15337671,-0.12293460,2.53337639,0.20268598,-0.71186374

>  <Name>
ligand

>  <RI>
0

>  <Rbt.Current_Directory>
/home/itssahil/PROJECTS/Mol_Feturizer/New_Systems/rnas/4FAW

>  <Rbt.Executable>
rbdock ($Id: //depot/dev/client3/rdock/2013.1/src/exe/rbdock.cxx#4 $)

>  <Rbt.Library>
libRbt.so (2013.1, Build901 2013/11/27)

>  <Rbt.Parameter_File>
/export/apps/rDock/src/rDock_2013.1_src/data/scripts/dock_solv.prm

>  <Rbt.Receptor>
prm/pocket_docking_4.prm

>  <SCORE>
-5.89462

>  <SCORE.INTER>
1.73019

>  <SCORE.INTER.CONST>
1

>  <SCORE.INTER.POLAR>
0

>  <SCORE.INTER.ROT>
11

>  <SCORE.INTER.SOLV>
7.01557

>  <SCORE.INTER.VDW>
-12.1184

>  <SCORE.INTER.norm>
0.123585

>  <SCORE.INTRA>
-7.62481

>  <SCORE.INTRA.DIHEDRAL>
-18.2064

>  <SCORE.INTRA.DIHEDRAL.0>
19.1003

>  <SCORE.INTRA.POLAR>
0

>  <SCORE.INTRA.POLAR.0>
0

>  <SCORE.INTRA.REPUL>
0

>  <SCORE.INTRA.REPUL.0>
0

>  <SCORE.INTRA.SOLV>
3.76193

>  <SCORE.INTRA.SOLV.lig_0>
-47.5333

>  <SCORE.INTRA.VDW>
-0.402569

>  <SCORE.INTRA.VDW.0>
-0.287413

>  <SCORE.INTRA.norm>
-0.54463

>  <SCORE.RESTR>
0

>  <SCORE.RESTR.CAVITY>
0

>  <SCORE.RESTR.norm>
0

>  <SCORE.SYSTEM>
0

>  <SCORE.SYSTEM.CONST>
0

>  <SCORE.SYSTEM.DIHEDRAL>
0

>  <SCORE.SYSTEM.SOLV>
0

>  <SCORE.SYSTEM.norm>
0

>  <SCORE.heavy>
14

>  <SCORE.norm>
-0.421044

>  <RMSD>
3.150

$$$$
ligand
 OpenBabel11021811493D
libRbt.so/2013.1/901 2013/11/27
 14 13  0  0  0  0  0  0  0  0999 V2000
   61.1641   -1.5316    4.9726 N   0  0  0  0  0  0  0  0  0  0  0  0
   59.9531   -1.5604    4.1821 C   0  0  0  0  0  0  0  0  0  0  0  0
   60.1868   -2.4335    2.9321 C   0  0  0  0  0  0  0  0  0  0  0  0
   58.9812   -2.4978    1.9815 C   0  0  0  0  0  0  0  0  0  0  0  0
   58.5648   -1.2181    1.3877 N   0  0  0  0  0  0  0  0  0  0  0  0
   57.2215   -0.9669    0.8686 C   0  0  0  0  0  0  0  0  0  0  0  0
   56.9799    0.4987    0.5221 C   0  0  0  0  0  0  0  0  0  0  0  0
   57.8467    1.0067   -0.6347 C   0  0  0  0  0  0  0  0  0  0  0  0
   57.6217    2.4982   -0.9098 C   0  0  0  0  0  0  0  0  0  0  0  0
   56.2233    2.7179   -1.2728 N   0  0  0  0  0  0  0  0  0  0  0  0
   55.6371    4.0298   -1.5537 C   0  0  0  0  0  0  0  0  0  0  0  0
   54.1831    3.9413   -2.0377 C   0  0  0  0  0  0  0  0  0  0  0  0
   53.2636    3.3815   -0.9473 C   0  0  0  0  0  0  0  0  0  0  0  0
   53.1556    4.3502    0.1395 N   0  0  0  0  0  0  0  0  0  0  0  0
  1  2  1  0  0  0  0
  2  3  1  0  0  0  0
  3  4  1  0  0  0  0
  4  5  1  0  0  0  0
  5  6  1  0  0  0  0
  6  7  1  0  0  0  0
  7  8  1  0  0  0  0
  8  9  1  0  0  0  0
  9 10  1  0  0  0  0
 10 11  1  0  0  0  0
 11 12  1  0  0  0  0
 12 13  1  0  0  0  0
 13 14  1  0  0  0  0
M  END
>  <CHROM.1>
-177.80518330,62.08909125,-157.43377814,170.45000053,65.36741327,-177.36766975
-60.69264420,177.58813906,174.50771522,64.79872282,68.34768354,57.21301212
0.87248156,0.68761477,0.68704827,-0.67447606,1.81506811

>  <Name>
ligand

>  <RI>
0

>  <Rbt.Current_Directory>
/home/itssahil/PROJECTS/Mol_Feturizer/New_Systems/rnas/4FAW

>  <Rbt.Executable>
rbdock ($Id: //depot/dev/client3/rdock/2013.1/src/exe/rbdock.cxx#4 $)

>  <Rbt.Library>
libRbt.so (2013.1, Build901 2013/11/27)

>  <Rbt.Parameter_File>
/export/apps/rDock/src/rDock_2013.1_src/data/scripts/dock_solv.prm

>  <Rbt.Receptor>
prm/pocket_docking_3.prm

>  <SCORE>
-6.38864

>  <SCORE.INTER>
2.9018

>  <SCORE.INTER.CONST>
1

>  <SCORE.INTER.POLAR>
0

>  <SCORE.INTER.ROT>
11

>  <SCORE.INTER.SOLV>
7.18534

>  <SCORE.INTER.VDW>
-11.3939

>  <SCORE.INTER.norm>
0.207272

>  <SCORE.INTRA>
-9.31225

>  <SCORE.INTRA.DIHEDRAL>
-18.1052

>  <SCORE.INTRA.DIHEDRAL.0>
19.1003

>  <SCORE.INTRA.POLAR>
0

>  <SCORE.INTRA.POLAR.0>
0

>  <SCORE.INTRA.REPUL>
0

>  <SCORE.INTRA.REPUL.0>
0

>  <SCORE.INTRA.SOLV>
1.19844

>  <SCORE.INTRA.SOLV.lig_0>
-47.5333

>  <SCORE.INTRA.VDW>
-0.858873

>  <SCORE.INTRA.VDW.0>
-0.287413

>  <SCORE.INTRA.norm>
-0.665161

>  <SCORE.RESTR>
0.0218086

>  <SCORE.RESTR.CAVITY>
0.0218086

>  <SCORE.RESTR.norm>
0.00155775

>  <SCORE.SYSTEM>
0

>  <SCORE.SYSTEM.CONST>
0

>  <SCORE.SYSTEM.DIHEDRAL>
0

>  <SCORE.SYSTEM.SOLV>
0

>  <SCORE.SYSTEM.norm>
0

>  <SCORE.heavy>
14

>  <SCORE.norm>
-0.456332

>  <RMSD>
3.201

$$$$
ligand
 OpenBabel11021811493D
libRbt.so/2013.1/901 2013/11/27
 14 13  0  0  0  0  0  0  0  0999 V2000
   60.0027    1.9722    5.5785 N   0  0  0  0  0  0  0  0  0  0  0  0
   59.8352    1.5918    4.1930 C   0  0  0  0  0  0  0  0  0  0  0  0
   60.1207    0.0831    4.0456 C   0  0  0  0  0  0  0  0  0  0  0  0
   59.9865   -0.4399    2.6070 C   0  0  0  0  0  0  0  0  0  0  0  0
   58.6485   -0.3265    2.0066 N   0  0  0  0  0  0  0  0  0  0  0  0
   58.3314   -0.7672    0.6493 C   0  0  0  0  0  0  0  0  0  0  0  0
   57.4746    0.2340   -0.1186 C   0  0  0  0  0  0  0  0  0  0  0  0
   58.0886    1.6357   -0.1950 C   0  0  0  0  0  0  0  0  0  0  0  0
   57.3134    2.5518   -1.1492 C   0  0  0  0  0  0  0  0  0  0  0  0
   56.0029    2.8504   -0.5756 N   0  0  0  0  0  0  0  0  0  0  0  0
   54.9628    3.6305   -1.2487 C   0  0  0  0  0  0  0  0  0  0  0  0
   53.6976    3.7976   -0.3957 C   0  0  0  0  0  0  0  0  0  0  0  0
   53.0490    2.4445   -0.0858 C   0  0  0  0  0  0  0  0  0  0  0  0
   51.8994    2.6478    0.7907 N   0  0  0  0  0  0  0  0  0  0  0  0
  1  2  1  0  0  0  0
  2  3  1  0  0  0  0
  3  4  1  0  0  0  0
  4  5  1  0  0  0  0
  5  6  1  0  0  0  0
  6  7  1  0  0  0  0
  7  8  1  0  0  0  0
  8  9  1  0  0  0  0
  9 10  1  0  0  0  0
 10 11  1  0  0  0  0
 11 12  1  0  0  0  0
 12 13  1  0  0  0  0
 13 14  1  0  0  0  0
M  END
>  <CHROM.1>
-179.48122681,-62.35616117,179.85300746,-135.91343298,55.85943614,171.19969321
68.80930785,-176.11544702,-179.22593747,-61.87082454,176.64953434,57.10113310
1.56460854,1.14982267,0.45160701,-0.51641662,1.33476248

>  <Name>
ligand

>  <RI>
0

>  <Rbt.Current_Directory>
/home/itssahil/PROJECTS/Mol_Feturizer/New_Systems/rnas/4FAW

>  <Rbt.Executable>
rbdock ($Id: //depot/dev/client3/rdock/2013.1/src/exe/rbdock.cxx#4 $)

>  <Rbt.Library>
libRbt.so (2013.1, Build901 2013/11/27)

>  <Rbt.Parameter_File>
/export/apps/rDock/src/rDock_2013.1_src/data/scripts/dock_solv.prm

>  <Rbt.Receptor>
prm/pocket_docking_4.prm

>  <SCORE>
-5.8477

>  <SCORE.INTER>
3.89756

>  <SCORE.INTER.CONST>
1

>  <SCORE.INTER.POLAR>
0

>  <SCORE.INTER.ROT>
11

>  <SCORE.INTER.SOLV>
7.62683

>  <SCORE.INTER.VDW>
-10.8772

>  <SCORE.INTER.norm>
0.278397

>  <SCORE.INTRA>
-9.74526

>  <SCORE.INTRA.DIHEDRAL>
-17.3342

>  <SCORE.INTRA.DIHEDRAL.0>
19.1003

>  <SCORE.INTRA.POLAR>
0

>  <SCORE.INTRA.POLAR.0>
0

>  <SCORE.INTRA.REPUL>
0

>  <SCORE.INTRA.REPUL.0>
0

>  <SCORE.INTRA.SOLV>
-0.0652801

>  <SCORE.INTRA.SOLV.lig_0>
-47.5333

>  <SCORE.INTRA.VDW>
-1.04553

>  <SCORE.INTRA.VDW.0>
-0.287413

>  <SCORE.INTRA.norm>
-0.69609

>  <SCORE.RESTR>
0

>  <SCORE.RESTR.CAVITY>
0

>  <SCORE.RESTR.norm>
0

>  <SCORE.SYSTEM>
0

>  <SCORE.SYSTEM.CONST>
0

>  <SCORE.SYSTEM.DIHEDRAL>
0

>  <SCORE.SYSTEM.SOLV>
0

>  <SCORE.SYSTEM.norm>
0

>  <SCORE.heavy>
14

>  <SCORE.norm>
-0.417693

>  <RMSD>
3.233

$$$$
ligand
 OpenBabel11021811493D
libRbt.so/2013.1/901 2013/11/27
 14 13  0  0  0  0  0  0  0  0999 V2000
   54.2454    4.0662   -4.6031 N   0  0  0  0  0  0  0  0  0  0  0  0
   53.6445    4.0808   -3.2875 C   0  0  0  0  0  0  0  0  0  0  0  0
   54.5476    3.2994   -2.3112 C   0  0  0  0  0  0  0  0  0  0  0  0
   55.8493    4.0291   -1.9451 C   0  0  0  0  0  0  0  0  0  0  0  0
   56.7521    3.3100   -1.0332 N   0  0  0  0  0  0  0  0  0  0  0  0
   57.9481    2.5958   -1.4764 C   0  0  0  0  0  0  0  0  0  0  0  0
   57.8204    1.0813   -1.3495 C   0  0  0  0  0  0  0  0  0  0  0  0
   57.7140    0.5936    0.0991 C   0  0  0  0  0  0  0  0  0  0  0  0
   57.6273   -0.9347    0.1864 C   0  0  0  0  0  0  0  0  0  0  0  0
   57.6448   -1.3411    1.5900 N   0  0  0  0  0  0  0  0  0  0  0  0
   58.8619   -1.5472    2.3772 C   0  0  0  0  0  0  0  0  0  0  0  0
   59.4355   -2.9631    2.2274 C   0  0  0  0  0  0  0  0  0  0  0  0
   60.7869   -3.0971    2.9368 C   0  0  0  0  0  0  0  0  0  0  0  0
   60.5977   -2.9309    4.3748 N   0  0  0  0  0  0  0  0  0  0  0  0
  1  2  1  0  0  0  0
  2  3  1  0  0  0  0
  3  4  1  0  0  0  0
  4  5  1  0  0  0  0
  5  6  1  0  0  0  0
  6  7  1  0  0  0  0
  7  8  1  0  0  0  0
  8  9  1  0  0  0  0
  9 10  1  0  0  0  0
 10 11  1  0  0  0  0
 11 12  1  0  0  0  0
 12 13  1  0  0  0  0
 13 14  1  0  0  0  0
M  END
>  <CHROM.1>
72.23479166,-179.01877106,101.38499327,-110.55353468,-65.87361426,-178.38327508
175.14765720,-85.32650485,-86.06628902,173.69759552,65.03463992,57.39113979
0.73156730,-0.15825272,2.14068862,-0.43326164,-0.47838471

>  <Name>
ligand

>  <RI>
0

>  <Rbt.Current_Directory>
/home/itssahil/PROJECTS/Mol_Feturizer/New_Systems/rnas/4FAW

>  <Rbt.Executable>
rbdock ($Id: //depot/dev/client3/rdock/2013.1/src/exe/rbdock.cxx#4 $)

>  <Rbt.Library>
libRbt.so (2013.1, Build901 2013/11/27)

>  <Rbt.Parameter_File>
/export/apps/rDock/src/rDock_2013.1_src/data/scripts/dock_solv.prm

>  <Rbt.Receptor>
prm/pocket_docking_4.prm

>  <SCORE>
-8.34696

>  <SCORE.INTER>
-0.160989

>  <SCORE.INTER.CONST>
1

>  <SCORE.INTER.POLAR>
0

>  <SCORE.INTER.ROT>
11

>  <SCORE.INTER.SOLV>
10.3236

>  <SCORE.INTER.VDW>
-14.4819

>  <SCORE.INTER.norm>
-0.0114992

>  <SCORE.INTRA>
-8.18598

>  <SCORE.INTRA.DIHEDRAL>
-15.0793

>  <SCORE.INTRA.DIHEDRAL.0>
19.1003

>  <SCORE.INTRA.POLAR>
0

>  <SCORE.INTRA.POLAR.0>
0

>  <SCORE.INTRA.REPUL>
0

>  <SCORE.INTRA.REPUL.0>
0

>  <SCORE.INTRA.SOLV>
0.21009

>  <SCORE.INTRA.SOLV.lig_0>
-47.5333

>  <SCORE.INTRA.VDW>
-0.751386

>  <SCORE.INTRA.VDW.0>
-0.287413

>  <SCORE.INTRA.norm>
-0.584713

>  <SCORE.RESTR>
0

>  <SCORE.RESTR.CAVITY>
0

>  <SCORE.RESTR.norm>
0

>  <SCORE.SYSTEM>
0

>  <SCORE.SYSTEM.CONST>
0

>  <SCORE.SYSTEM.DIHEDRAL>
0

>  <SCORE.SYSTEM.SOLV>
0

>  <SCORE.SYSTEM.norm>
0

>  <SCORE.heavy>
14

>  <SCORE.norm>
-0.596212

>  <RMSD>
3.254

$$$$
ligand
 OpenBabel11021811493D
libRbt.so/2013.1/901 2013/11/27
 14 13  0  0  0  0  0  0  0  0999 V2000
   51.4168    3.7482    1.2499 N   0  0  0  0  0  0  0  0  0  0  0  0
   52.4411    3.8298    0.2320 C   0  0  0  0  0  0  0  0  0  0  0  0
   53.0428    5.2502    0.2338 C   0  0  0  0  0  0  0  0  0  0  0  0
   54.1798    5.4478   -0.7807 C   0  0  0  0  0  0  0  0  0  0  0  0
   55.3400    4.5572   -0.6239 N   0  0  0  0  0  0  0  0  0  0  0  0
   56.6023    4.7405   -1.3380 C   0  0  0  0  0  0  0  0  0  0  0  0
   57.5461    3.5507   -1.1971 C   0  0  0  0  0  0  0  0  0  0  0  0
   57.0796    2.3042   -1.9561 C   0  0  0  0  0  0  0  0  0  0  0  0
   57.9970    1.1015   -1.7055 C   0  0  0  0  0  0  0  0  0  0  0  0
   57.8896    0.6941   -0.3062 N   0  0  0  0  0  0  0  0  0  0  0  0
   57.5614   -0.6616    0.1385 C   0  0  0  0  0  0  0  0  0  0  0  0
   57.8411   -0.8828    1.6315 C   0  0  0  0  0  0  0  0  0  0  0  0
   59.3381   -0.7801    1.9415 C   0  0  0  0  0  0  0  0  0  0  0  0
   59.5634   -1.0896    3.3503 N   0  0  0  0  0  0  0  0  0  0  0  0
  1  2  1  0  0  0  0
  2  3  1  0  0  0  0
  3  4  1  0  0  0  0
  4  5  1  0  0  0  0
  5  6  1  0  0  0  0
  6  7  1  0  0  0  0
  7  8  1  0  0  0  0
  8  9  1  0  0  0  0
  9 10  1  0  0  0  0
 10 11  1  0  0  0  0
 11 12  1  0  0  0  0
 12 13  1  0  0  0  0
 13 14  1  0  0  0  0
M  END
>  <CHROM.1>
178.12757707,-58.75946384,-169.22905634,-169.46462356,70.62489567,-175.72555992
66.45817380,125.74106229,166.35948549,-65.09147795,-176.04502852,56.27430391
2.27226841,0.06179320,2.47346663,0.47604093,-0.79810134

>  <Name>
ligand

>  <RI>
0

>  <Rbt.Current_Directory>
/home/itssahil/PROJECTS/Mol_Feturizer/New_Systems/rnas/4FAW

>  <Rbt.Executable>
rbdock ($Id: //depot/dev/client3/rdock/2013.1/src/exe/rbdock.cxx#4 $)

>  <Rbt.Library>
libRbt.so (2013.1, Build901 2013/11/27)

>  <Rbt.Parameter_File>
/export/apps/rDock/src/rDock_2013.1_src/data/scripts/dock_solv.prm

>  <Rbt.Receptor>
prm/pocket_docking_5.prm

>  <SCORE>
-6.95669

>  <SCORE.INTER>
2.54805

>  <SCORE.INTER.CONST>
1

>  <SCORE.INTER.POLAR>
0

>  <SCORE.INTER.ROT>
11

>  <SCORE.INTER.SOLV>
8.75084

>  <SCORE.INTER.VDW>
-12.1516

>  <SCORE.INTER.norm>
0.182004

>  <SCORE.INTRA>
-9.50474

>  <SCORE.INTRA.DIHEDRAL>
-16.7743

>  <SCORE.INTRA.DIHEDRAL.0>
19.1003

>  <SCORE.INTRA.POLAR>
0

>  <SCORE.INTRA.POLAR.0>
0

>  <SCORE.INTRA.REPUL>
0

>  <SCORE.INTRA.REPUL.0>
0

>  <SCORE.INTRA.SOLV>
-0.151508

>  <SCORE.INTRA.SOLV.lig_0>
-47.5333

>  <SCORE.INTRA.VDW>
-1.04182

>  <SCORE.INTRA.VDW.0>
-0.287413

>  <SCORE.INTRA.norm>
-0.67891

>  <SCORE.RESTR>
0

>  <SCORE.RESTR.CAVITY>
0

>  <SCORE.RESTR.norm>
0

>  <SCORE.SYSTEM>
0

>  <SCORE.SYSTEM.CONST>
0

>  <SCORE.SYSTEM.DIHEDRAL>
0

>  <SCORE.SYSTEM.SOLV>
0

>  <SCORE.SYSTEM.norm>
0

>  <SCORE.heavy>
14

>  <SCORE.norm>
-0.496906

>  <RMSD>
3.264

$$$$
ligand
 OpenBabel11021811493D
libRbt.so/2013.1/901 2013/11/27
 14 13  0  0  0  0  0  0  0  0999 V2000
   58.3176    0.2876    2.5978 N   0  0  0  0  0  0  0  0  0  0  0  0
   56.8829    0.4243    2.4747 C   0  0  0  0  0  0  0  0  0  0  0  0
   56.3062   -0.8579    1.8400 C   0  0  0  0  0  0  0  0  0  0  0  0
   54.7752   -0.8556    1.7096 C   0  0  0  0  0  0  0  0  0  0  0  0
   54.2120    0.1473    0.7927 N   0  0  0  0  0  0  0  0  0  0  0  0
   54.0469    1.5577    1.1397 C   0  0  0  0  0  0  0  0  0  0  0  0
   53.1808    2.3204    0.1426 C   0  0  0  0  0  0  0  0  0  0  0  0
   51.7450    1.7940    0.0485 C   0  0  0  0  0  0  0  0  0  0  0  0
   51.6666    0.4723   -0.7246 C   0  0  0  0  0  0  0  0  0  0  0  0
   51.9394    0.7217   -2.1385 N   0  0  0  0  0  0  0  0  0  0  0  0
   51.4314   -0.1015   -3.2374 C   0  0  0  0  0  0  0  0  0  0  0  0
   51.5858    0.5730   -4.6076 C   0  0  0  0  0  0  0  0  0  0  0  0
   50.9313   -0.2571   -5.7168 C   0  0  0  0  0  0  0  0  0  0  0  0
   51.0269    0.4644   -6.9823 N   0  0  0  0  0  0  0  0  0  0  0  0
  1  2  1  0  0  0  0
  2  3  1  0  0  0  0
  3  4  1  0  0  0  0
  4  5  1  0  0  0  0
  5  6  1  0  0  0  0
  6  7  1  0  0  0  0
  7  8  1  0  0  0  0
  8  9  1  0  0  0  0
  9 10  1  0  0  0  0
 10 11  1  0  0  0  0
 11 12  1  0  0  0  0
 12 13  1  0  0  0  0
 13 14  1  0  0  0  0
M  END
>  <CHROM.1>
177.63035152,65.28232412,-78.69385565,-167.83052688,61.91091556,-74.80982273
-70.05348825,-153.04468396,166.12287988,-174.83898487,176.31529703,53.43181943
0.47791841,-0.90417855,-0.85720784,0.46241394,-1.91902139

>  <Name>
ligand

>  <RI>
0

>  <Rbt.Current_Directory>
/home/itssahil/PROJECTS/Mol_Feturizer/New_Systems/rnas/4FAW

>  <Rbt.Executable>
rbdock ($Id: //depot/dev/client3/rdock/2013.1/src/exe/rbdock.cxx#4 $)

>  <Rbt.Library>
libRbt.so (2013.1, Build901 2013/11/27)

>  <Rbt.Parameter_File>
/export/apps/rDock/src/rDock_2013.1_src/data/scripts/dock_solv.prm

>  <Rbt.Receptor>
prm/pocket_docking_4.prm

>  <SCORE>
-8.98134

>  <SCORE.INTER>
-0.395547

>  <SCORE.INTER.CONST>
1

>  <SCORE.INTER.POLAR>
0

>  <SCORE.INTER.ROT>
11

>  <SCORE.INTER.SOLV>
9.80396

>  <SCORE.INTER.VDW>
-14.465

>  <SCORE.INTER.norm>
-0.0282534

>  <SCORE.INTRA>
-8.58579

>  <SCORE.INTRA.DIHEDRAL>
-16.5214

>  <SCORE.INTRA.DIHEDRAL.0>
19.1003

>  <SCORE.INTRA.POLAR>
0

>  <SCORE.INTRA.POLAR.0>
0

>  <SCORE.INTRA.REPUL>
0

>  <SCORE.INTRA.REPUL.0>
0

>  <SCORE.INTRA.SOLV>
0.611276

>  <SCORE.INTRA.SOLV.lig_0>
-47.5333

>  <SCORE.INTRA.VDW>
-0.630746

>  <SCORE.INTRA.VDW.0>
-0.287413

>  <SCORE.INTRA.norm>
-0.613271

>  <SCORE.RESTR>
0

>  <SCORE.RESTR.CAVITY>
0

>  <SCORE.RESTR.norm>
0

>  <SCORE.SYSTEM>
0

>  <SCORE.SYSTEM.CONST>
0

>  <SCORE.SYSTEM.DIHEDRAL>
0

>  <SCORE.SYSTEM.SOLV>
0

>  <SCORE.SYSTEM.norm>
0

>  <SCORE.heavy>
14

>  <SCORE.norm>
-0.641524

>  <RMSD>
3.292

$$$$
ligand
 OpenBabel11021811493D
libRbt.so/2013.1/901 2013/11/27
 14 13  0  0  0  0  0  0  0  0999 V2000
   51.3867    3.8711   -0.1632 N   0  0  0  0  0  0  0  0  0  0  0  0
   51.6973    2.9202   -1.2078 C   0  0  0  0  0  0  0  0  0  0  0  0
   52.1648    1.5983   -0.5646 C   0  0  0  0  0  0  0  0  0  0  0  0
   53.4032    1.7447    0.3332 C   0  0  0  0  0  0  0  0  0  0  0  0
   53.9663    0.4909    0.8571 N   0  0  0  0  0  0  0  0  0  0  0  0
   54.8742    0.4282    2.0011 C   0  0  0  0  0  0  0  0  0  0  0  0
   55.8633   -0.7296    1.9154 C   0  0  0  0  0  0  0  0  0  0  0  0
   56.8757   -0.5887    0.7741 C   0  0  0  0  0  0  0  0  0  0  0  0
   57.8772   -1.7494    0.7472 C   0  0  0  0  0  0  0  0  0  0  0  0
   58.6110   -1.7849    2.0105 N   0  0  0  0  0  0  0  0  0  0  0  0
   59.4929   -2.8774    2.4253 C   0  0  0  0  0  0  0  0  0  0  0  0
   59.9766   -2.7348    3.8750 C   0  0  0  0  0  0  0  0  0  0  0  0
   60.8305   -1.4759    4.0586 C   0  0  0  0  0  0  0  0  0  0  0  0
   61.3072   -1.4106    5.4369 N   0  0  0  0  0  0  0  0  0  0  0  0
  1  2  1  0  0  0  0
  2  3  1  0  0  0  0
  3  4  1  0  0  0  0
  4  5  1  0  0  0  0
  5  6  1  0  0  0  0
  6  7  1  0  0  0  0
  7  8  1  0  0  0  0
  8  9  1  0  0  0  0
  9 10  1  0  0  0  0
 10 11  1  0  0  0  0
 11 12  1  0  0  0  0
 12 13  1  0  0  0  0
 13 14  1  0  0  0  0
M  END
>  <CHROM.1>
-59.01566558,-173.98812288,-161.89709174,-149.25138071,66.71789789,178.29362721
-59.90326418,169.88688677,-172.15605103,-63.32334398,-177.89023984,56.30905602
-0.16432117,1.60686688,-3.12484954,0.64301265,-2.32076175

>  <Name>
ligand

>  <RI>
0

>  <Rbt.Current_Directory>
/home/itssahil/PROJECTS/Mol_Feturizer/New_Systems/rnas/4FAW

>  <Rbt.Executable>
rbdock ($Id: //depot/dev/client3/rdock/2013.1/src/exe/rbdock.cxx#4 $)

>  <Rbt.Library>
libRbt.so (2013.1, Build901 2013/11/27)

>  <Rbt.Parameter_File>
/export/apps/rDock/src/rDock_2013.1_src/data/scripts/dock_solv.prm

>  <Rbt.Receptor>
prm/pocket_docking_3.prm

>  <SCORE>
-7.5149

>  <SCORE.INTER>
1.89726

>  <SCORE.INTER.CONST>
1

>  <SCORE.INTER.POLAR>
0

>  <SCORE.INTER.ROT>
11

>  <SCORE.INTER.SOLV>
11.4311

>  <SCORE.INTER.VDW>
-13.4789

>  <SCORE.INTER.norm>
0.135519

>  <SCORE.INTRA>
-9.41217

>  <SCORE.INTRA.DIHEDRAL>
-17.7158

>  <SCORE.INTRA.DIHEDRAL.0>
19.1003

>  <SCORE.INTRA.POLAR>
0

>  <SCORE.INTRA.POLAR.0>
0

>  <SCORE.INTRA.REPUL>
0

>  <SCORE.INTRA.REPUL.0>
0

>  <SCORE.INTRA.SOLV>
0.370995

>  <SCORE.INTRA.SOLV.lig_0>
-47.5333

>  <SCORE.INTRA.VDW>
-0.73977

>  <SCORE.INTRA.VDW.0>
-0.287413

>  <SCORE.INTRA.norm>
-0.672298

>  <SCORE.RESTR>
0

>  <SCORE.RESTR.CAVITY>
0

>  <SCORE.RESTR.norm>
0

>  <SCORE.SYSTEM>
0

>  <SCORE.SYSTEM.CONST>
0

>  <SCORE.SYSTEM.DIHEDRAL>
0

>  <SCORE.SYSTEM.SOLV>
0

>  <SCORE.SYSTEM.norm>
0

>  <SCORE.heavy>
14

>  <SCORE.norm>
-0.536779

>  <RMSD>
3.330

$$$$
ligand
 OpenBabel11021811493D
libRbt.so/2013.1/901 2013/11/27
 14 13  0  0  0  0  0  0  0  0999 V2000
   52.5058    3.2983    0.3706 N   0  0  0  0  0  0  0  0  0  0  0  0
   53.7186    2.9103   -0.3155 C   0  0  0  0  0  0  0  0  0  0  0  0
   54.0252    3.9414   -1.4211 C   0  0  0  0  0  0  0  0  0  0  0  0
   55.2775    3.6146   -2.2494 C   0  0  0  0  0  0  0  0  0  0  0  0
   56.5411    3.5451   -1.4998 N   0  0  0  0  0  0  0  0  0  0  0  0
   57.0726    2.3112   -0.9236 C   0  0  0  0  0  0  0  0  0  0  0  0
   58.1172    2.5598    0.1596 C   0  0  0  0  0  0  0  0  0  0  0  0
   58.4532    1.3138    0.9856 C   0  0  0  0  0  0  0  0  0  0  0  0
   59.5229    1.5985    2.0465 C   0  0  0  0  0  0  0  0  0  0  0  0
   59.7839    0.3800    2.8098 N   0  0  0  0  0  0  0  0  0  0  0  0
   60.4493   -0.8077    2.2713 C   0  0  0  0  0  0  0  0  0  0  0  0
   60.6083   -1.9248    3.3120 C   0  0  0  0  0  0  0  0  0  0  0  0
   61.5710   -1.5141    4.4310 C   0  0  0  0  0  0  0  0  0  0  0  0
   60.9248   -0.5232    5.2864 N   0  0  0  0  0  0  0  0  0  0  0  0
  1  2  1  0  0  0  0
  2  3  1  0  0  0  0
  3  4  1  0  0  0  0
  4  5  1  0  0  0  0
  5  6  1  0  0  0  0
  6  7  1  0  0  0  0
  7  8  1  0  0  0  0
  8  9  1  0  0  0  0
  9 10  1  0  0  0  0
 10 11  1  0  0  0  0
 11 12  1  0  0  0  0
 12 13  1  0  0  0  0
 13 14  1  0  0  0  0
M  END
>  <CHROM.1>
-178.43491173,-60.66894255,91.71581475,-161.29439156,167.08178752,179.02736107
179.20938302,69.27848589,178.96487849,-66.49507755,72.52706715,57.75523460
1.47872564,1.08997656,2.37267592,0.22732806,-1.06833680

>  <Name>
ligand

>  <RI>
0

>  <Rbt.Current_Directory>
/home/itssahil/PROJECTS/Mol_Feturizer/New_Systems/rnas/4FAW

>  <Rbt.Executable>
rbdock ($Id: //depot/dev/client3/rdock/2013.1/src/exe/rbdock.cxx#4 $)

>  <Rbt.Library>
libRbt.so (2013.1, Build901 2013/11/27)

>  <Rbt.Parameter_File>
/export/apps/rDock/src/rDock_2013.1_src/data/scripts/dock_solv.prm

>  <Rbt.Receptor>
prm/pocket_docking_3.prm

>  <SCORE>
-3.81114

>  <SCORE.INTER>
4.4725

>  <SCORE.INTER.CONST>
1

>  <SCORE.INTER.POLAR>
0

>  <SCORE.INTER.ROT>
11

>  <SCORE.INTER.SOLV>
6.68602

>  <SCORE.INTER.VDW>
-10.1803

>  <SCORE.INTER.norm>
0.319464

>  <SCORE.INTRA>
-8.28363

>  <SCORE.INTRA.DIHEDRAL>
-16.755

>  <SCORE.INTRA.DIHEDRAL.0>
19.1003

>  <SCORE.INTRA.POLAR>
0

>  <SCORE.INTRA.POLAR.0>
0

>  <SCORE.INTRA.REPUL>
0

>  <SCORE.INTRA.REPUL.0>
0

>  <SCORE.INTRA.SOLV>
1.7167

>  <SCORE.INTRA.SOLV.lig_0>
-47.5333

>  <SCORE.INTRA.VDW>
-0.76451

>  <SCORE.INTRA.VDW.0>
-0.287413

>  <SCORE.INTRA.norm>
-0.591688

>  <SCORE.RESTR>
0

>  <SCORE.RESTR.CAVITY>
0

>  <SCORE.RESTR.norm>
0

>  <SCORE.SYSTEM>
0

>  <SCORE.SYSTEM.CONST>
0

>  <SCORE.SYSTEM.DIHEDRAL>
0

>  <SCORE.SYSTEM.SOLV>
0

>  <SCORE.SYSTEM.norm>
0

>  <SCORE.heavy>
14

>  <SCORE.norm>
-0.272224

>  <RMSD>
3.334

$$$$
ligand
 OpenBabel11021811493D
libRbt.so/2013.1/901 2013/11/27
 14 13  0  0  0  0  0  0  0  0999 V2000
   58.5917   -1.5890    1.2283 N   0  0  0  0  0  0  0  0  0  0  0  0
   57.6105   -0.9711    0.3636 C   0  0  0  0  0  0  0  0  0  0  0  0
   56.5870   -0.2057    1.2273 C   0  0  0  0  0  0  0  0  0  0  0  0
   57.1892    0.9673    2.0162 C   0  0  0  0  0  0  0  0  0  0  0  0
   57.4105    2.2055    1.2537 N   0  0  0  0  0  0  0  0  0  0  0  0
   58.1770    2.2632    0.0103 C   0  0  0  0  0  0  0  0  0  0  0  0
   57.3223    2.6190   -1.2018 C   0  0  0  0  0  0  0  0  0  0  0  0
   56.6821    4.0083   -1.1148 C   0  0  0  0  0  0  0  0  0  0  0  0
   55.6323    4.2273   -2.2106 C   0  0  0  0  0  0  0  0  0  0  0  0
   54.4951    3.3400   -1.9758 N   0  0  0  0  0  0  0  0  0  0  0  0
   53.5017    3.5300   -0.9173 C   0  0  0  0  0  0  0  0  0  0  0  0
   52.8652    2.2121   -0.4543 C   0  0  0  0  0  0  0  0  0  0  0  0
   51.8678    2.4427    0.6858 C   0  0  0  0  0  0  0  0  0  0  0  0
   52.5710    2.9936    1.8405 N   0  0  0  0  0  0  0  0  0  0  0  0
  1  2  1  0  0  0  0
  2  3  1  0  0  0  0
  3  4  1  0  0  0  0
  4  5  1  0  0  0  0
  5  6  1  0  0  0  0
  6  7  1  0  0  0  0
  7  8  1  0  0  0  0
  8  9  1  0  0  0  0
  9 10  1  0  0  0  0
 10 11  1  0  0  0  0
 11 12  1  0  0  0  0
 12 13  1  0  0  0  0
 13 14  1  0  0  0  0
M  END
>  <CHROM.1>
63.91261162,79.54499848,-53.89915744,113.65313002,62.57270706,-169.34925458
67.09695145,73.51020494,-152.28963267,178.01693834,-62.44404254,55.75025194
2.00319157,0.05344776,0.63563282,-0.22820771,2.43722034

>  <Name>
ligand

>  <RI>
0

>  <Rbt.Current_Directory>
/home/itssahil/PROJECTS/Mol_Feturizer/New_Systems/rnas/4FAW

>  <Rbt.Executable>
rbdock ($Id: //depot/dev/client3/rdock/2013.1/src/exe/rbdock.cxx#4 $)

>  <Rbt.Library>
libRbt.so (2013.1, Build901 2013/11/27)

>  <Rbt.Parameter_File>
/export/apps/rDock/src/rDock_2013.1_src/data/scripts/dock_solv.prm

>  <Rbt.Receptor>
prm/pocket_docking_4.prm

>  <SCORE>
-3.86388

>  <SCORE.INTER>
3.38925

>  <SCORE.INTER.CONST>
1

>  <SCORE.INTER.POLAR>
0

>  <SCORE.INTER.ROT>
11

>  <SCORE.INTER.SOLV>
9.70018

>  <SCORE.INTER.VDW>
-11.9072

>  <SCORE.INTER.norm>
0.24209

>  <SCORE.INTRA>
-7.25313

>  <SCORE.INTRA.DIHEDRAL>
-15.135

>  <SCORE.INTRA.DIHEDRAL.0>
19.1003

>  <SCORE.INTRA.POLAR>
0

>  <SCORE.INTRA.POLAR.0>
0

>  <SCORE.INTRA.REPUL>
0

>  <SCORE.INTRA.REPUL.0>
0

>  <SCORE.INTRA.SOLV>
1.99746

>  <SCORE.INTRA.SOLV.lig_0>
-47.5333

>  <SCORE.INTRA.VDW>
-0.684357

>  <SCORE.INTRA.VDW.0>
-0.287413

>  <SCORE.INTRA.norm>
-0.518081

>  <SCORE.RESTR>
0

>  <SCORE.RESTR.CAVITY>
0

>  <SCORE.RESTR.norm>
0

>  <SCORE.SYSTEM>
0

>  <SCORE.SYSTEM.CONST>
0

>  <SCORE.SYSTEM.DIHEDRAL>
0

>  <SCORE.SYSTEM.SOLV>
0

>  <SCORE.SYSTEM.norm>
0

>  <SCORE.heavy>
14

>  <SCORE.norm>
-0.275991

>  <RMSD>
3.349

$$$$
ligand
 OpenBabel11021811493D
libRbt.so/2013.1/901 2013/11/27
 14 13  0  0  0  0  0  0  0  0999 V2000
   59.7466    2.3643    1.7210 N   0  0  0  0  0  0  0  0  0  0  0  0
   58.4887    2.0855    1.0636 C   0  0  0  0  0  0  0  0  0  0  0  0
   57.9636    0.7150    1.5385 C   0  0  0  0  0  0  0  0  0  0  0  0
   56.6150    0.3149    0.9203 C   0  0  0  0  0  0  0  0  0  0  0  0
   55.5145    1.2723    1.1094 N   0  0  0  0  0  0  0  0  0  0  0  0
   54.1025    0.9171    0.9791 C   0  0  0  0  0  0  0  0  0  0  0  0
   53.3216    1.8873    0.0986 C   0  0  0  0  0  0  0  0  0  0  0  0
   51.8382    1.5307   -0.0417 C   0  0  0  0  0  0  0  0  0  0  0  0
   51.6326    0.2141   -0.8000 C   0  0  0  0  0  0  0  0  0  0  0  0
   51.9200    0.4220   -2.2177 N   0  0  0  0  0  0  0  0  0  0  0  0
   51.4072   -0.4216   -3.2988 C   0  0  0  0  0  0  0  0  0  0  0  0
   51.6232    0.1940   -4.6883 C   0  0  0  0  0  0  0  0  0  0  0  0
   51.0276   -0.6886   -5.7900 C   0  0  0  0  0  0  0  0  0  0  0  0
   49.5756   -0.7312   -5.6445 N   0  0  0  0  0  0  0  0  0  0  0  0
  1  2  1  0  0  0  0
  2  3  1  0  0  0  0
  3  4  1  0  0  0  0
  4  5  1  0  0  0  0
  5  6  1  0  0  0  0
  6  7  1  0  0  0  0
  7  8  1  0  0  0  0
  8  9  1  0  0  0  0
  9 10  1  0  0  0  0
 10 11  1  0  0  0  0
 11 12  1  0  0  0  0
 12 13  1  0  0  0  0
 13 14  1  0  0  0  0
M  END
>  <CHROM.1>
179.20526030,-55.92115211,-160.29049384,-131.33892836,-179.73831621,-66.23877178
-72.78496552,-157.64210552,167.96295546,-177.81513069,65.58623875,53.91252809
0.71967526,-1.07496899,-0.71312277,-0.03134903,-1.83836105

>  <Name>
ligand

>  <RI>
0

>  <Rbt.Current_Directory>
/home/itssahil/PROJECTS/Mol_Feturizer/New_Systems/rnas/4FAW

>  <Rbt.Executable>
rbdock ($Id: //depot/dev/client3/rdock/2013.1/src/exe/rbdock.cxx#4 $)

>  <Rbt.Library>
libRbt.so (2013.1, Build901 2013/11/27)

>  <Rbt.Parameter_File>
/export/apps/rDock/src/rDock_2013.1_src/data/scripts/dock_solv.prm

>  <Rbt.Receptor>
prm/pocket_docking_6.prm

>  <SCORE>
-7.08523

>  <SCORE.INTER>
1.33485

>  <SCORE.INTER.CONST>
1

>  <SCORE.INTER.POLAR>
0

>  <SCORE.INTER.ROT>
11

>  <SCORE.INTER.SOLV>
13.6193

>  <SCORE.INTER.VDW>
-14.5832

>  <SCORE.INTER.norm>
0.0953461

>  <SCORE.INTRA>
-8.42008

>  <SCORE.INTRA.DIHEDRAL>
-16.2712

>  <SCORE.INTRA.DIHEDRAL.0>
19.1003

>  <SCORE.INTRA.POLAR>
0

>  <SCORE.INTRA.POLAR.0>
0

>  <SCORE.INTRA.REPUL>
0

>  <SCORE.INTRA.REPUL.0>
0

>  <SCORE.INTRA.SOLV>
0.252382

>  <SCORE.INTRA.SOLV.lig_0>
-47.5333

>  <SCORE.INTRA.VDW>
-0.410648

>  <SCORE.INTRA.VDW.0>
-0.287413

>  <SCORE.INTRA.norm>
-0.601434

>  <SCORE.RESTR>
0

>  <SCORE.RESTR.CAVITY>
0

>  <SCORE.RESTR.norm>
0

>  <SCORE.SYSTEM>
0

>  <SCORE.SYSTEM.CONST>
0

>  <SCORE.SYSTEM.DIHEDRAL>
0

>  <SCORE.SYSTEM.SOLV>
0

>  <SCORE.SYSTEM.norm>
0

>  <SCORE.heavy>
14

>  <SCORE.norm>
-0.506088

>  <RMSD>
3.357

$$$$
ligand
 OpenBabel11021811493D
libRbt.so/2013.1/901 2013/11/27
 14 13  0  0  0  0  0  0  0  0999 V2000
   53.6321    5.8884   -1.4947 N   0  0  0  0  0  0  0  0  0  0  0  0
   53.5821    4.7093   -0.6584 C   0  0  0  0  0  0  0  0  0  0  0  0
   53.8694    3.4645   -1.5229 C   0  0  0  0  0  0  0  0  0  0  0  0
   55.2934    3.4195   -2.0987 C   0  0  0  0  0  0  0  0  0  0  0  0
   56.3793    3.3030   -1.1134 N   0  0  0  0  0  0  0  0  0  0  0  0
   57.7051    2.7750   -1.4300 C   0  0  0  0  0  0  0  0  0  0  0  0
   57.7816    1.2549   -1.3312 C   0  0  0  0  0  0  0  0  0  0  0  0
   57.5919    0.7223    0.0929 C   0  0  0  0  0  0  0  0  0  0  0  0
   57.6441   -0.8092    0.1456 C   0  0  0  0  0  0  0  0  0  0  0  0
   57.4442   -1.2531    1.5235 N   0  0  0  0  0  0  0  0  0  0  0  0
   58.5085   -1.3527    2.5239 C   0  0  0  0  0  0  0  0  0  0  0  0
   59.2912   -2.6700    2.4317 C   0  0  0  0  0  0  0  0  0  0  0  0
   60.3148   -2.7931    3.5652 C   0  0  0  0  0  0  0  0  0  0  0  0
   60.9717   -4.0944    3.4854 N   0  0  0  0  0  0  0  0  0  0  0  0
  1  2  1  0  0  0  0
  2  3  1  0  0  0  0
  3  4  1  0  0  0  0
  4  5  1  0  0  0  0
  5  6  1  0  0  0  0
  6  7  1  0  0  0  0
  7  8  1  0  0  0  0
  8  9  1  0  0  0  0
  9 10  1  0  0  0  0
 10 11  1  0  0  0  0
 11 12  1  0  0  0  0
 12 13  1  0  0  0  0
 13 14  1  0  0  0  0
M  END
>  <CHROM.1>
65.51802865,64.75327461,157.19848826,-85.73068013,-65.86117034,178.72238863
-179.44293566,-84.76360720,-83.57235355,-175.13045103,176.40550450,57.14353999
0.89743278,0.29408842,2.23006722,0.52921958,-0.91637444

>  <Name>
ligand

>  <RI>
0

>  <Rbt.Current_Directory>
/home/itssahil/PROJECTS/Mol_Feturizer/New_Systems/rnas/4FAW

>  <Rbt.Executable>
rbdock ($Id: //depot/dev/client3/rdock/2013.1/src/exe/rbdock.cxx#4 $)

>  <Rbt.Library>
libRbt.so (2013.1, Build901 2013/11/27)

>  <Rbt.Parameter_File>
/export/apps/rDock/src/rDock_2013.1_src/data/scripts/dock_solv.prm

>  <Rbt.Receptor>
prm/pocket_docking_4.prm

>  <SCORE>
-7.9006

>  <SCORE.INTER>
1.12048

>  <SCORE.INTER.CONST>
1

>  <SCORE.INTER.POLAR>
0

>  <SCORE.INTER.ROT>
11

>  <SCORE.INTER.SOLV>
8.57143

>  <SCORE.INTER.VDW>
-13.0435

>  <SCORE.INTER.norm>
0.0800346

>  <SCORE.INTRA>
-9.02471

>  <SCORE.INTRA.DIHEDRAL>
-16.9404

>  <SCORE.INTRA.DIHEDRAL.0>
19.1003

>  <SCORE.INTRA.POLAR>
0

>  <SCORE.INTRA.POLAR.0>
0

>  <SCORE.INTRA.REPUL>
0

>  <SCORE.INTRA.REPUL.0>
0

>  <SCORE.INTRA.SOLV>
0.414831

>  <SCORE.INTRA.SOLV.lig_0>
-47.5333

>  <SCORE.INTRA.VDW>
-0.761931

>  <SCORE.INTRA.VDW.0>
-0.287413

>  <SCORE.INTRA.norm>
-0.644622

>  <SCORE.RESTR>
0.0036278

>  <SCORE.RESTR.CAVITY>
0.0036278

>  <SCORE.RESTR.norm>
0.000259129

>  <SCORE.SYSTEM>
0

>  <SCORE.SYSTEM.CONST>
0

>  <SCORE.SYSTEM.DIHEDRAL>
0

>  <SCORE.SYSTEM.SOLV>
0

>  <SCORE.SYSTEM.norm>
0

>  <SCORE.heavy>
14

>  <SCORE.norm>
-0.564329

>  <RMSD>
3.382

$$$$
ligand
 OpenBabel11021811493D
libRbt.so/2013.1/901 2013/11/27
 14 13  0  0  0  0  0  0  0  0999 V2000
   53.3402    5.4578   -2.1072 N   0  0  0  0  0  0  0  0  0  0  0  0
   54.5395    5.0903   -1.3869 C   0  0  0  0  0  0  0  0  0  0  0  0
   55.2697    3.9723   -2.1592 C   0  0  0  0  0  0  0  0  0  0  0  0
   56.5070    3.4191   -1.4352 C   0  0  0  0  0  0  0  0  0  0  0  0
   56.2600    2.8096   -0.1195 N   0  0  0  0  0  0  0  0  0  0  0  0
   57.2844    2.6756    0.9147 C   0  0  0  0  0  0  0  0  0  0  0  0
   58.1424    1.4259    0.7467 C   0  0  0  0  0  0  0  0  0  0  0  0
   57.3557    0.1183    0.8843 C   0  0  0  0  0  0  0  0  0  0  0  0
   58.2782   -1.1054    0.9332 C   0  0  0  0  0  0  0  0  0  0  0  0
   59.1833   -0.9839    2.0741 N   0  0  0  0  0  0  0  0  0  0  0  0
   60.2479   -1.9375    2.3915 C   0  0  0  0  0  0  0  0  0  0  0  0
   59.9008   -2.8436    3.5809 C   0  0  0  0  0  0  0  0  0  0  0  0
   59.7259   -2.0331    4.8693 C   0  0  0  0  0  0  0  0  0  0  0  0
   59.5070   -2.9443    5.9888 N   0  0  0  0  0  0  0  0  0  0  0  0
  1  2  1  0  0  0  0
  2  3  1  0  0  0  0
  3  4  1  0  0  0  0
  4  5  1  0  0  0  0
  5  6  1  0  0  0  0
  6  7  1  0  0  0  0
  7  8  1  0  0  0  0
  8  9  1  0  0  0  0
  9 10  1  0  0  0  0
 10 11  1  0  0  0  0
 11 12  1  0  0  0  0
 12 13  1  0  0  0  0
 13 14  1  0  0  0  0
M  END
>  <CHROM.1>
-175.50035014,60.59576335,-156.88504827,-84.76953611,-63.60216511,-170.89857516
59.57004827,-176.76364446,-104.97591572,-63.19025757,-175.36505083,57.53889763
0.93715472,1.08379387,2.37892731,0.84759118,-1.35119238

>  <Name>
ligand

>  <RI>
0

>  <Rbt.Current_Directory>
/home/itssahil/PROJECTS/Mol_Feturizer/New_Systems/rnas/4FAW

>  <Rbt.Executable>
rbdock ($Id: //depot/dev/client3/rdock/2013.1/src/exe/rbdock.cxx#4 $)

>  <Rbt.Library>
libRbt.so (2013.1, Build901 2013/11/27)

>  <Rbt.Parameter_File>
/export/apps/rDock/src/rDock_2013.1_src/data/scripts/dock_solv.prm

>  <Rbt.Receptor>
prm/pocket_docking_3.prm

>  <SCORE>
-4.6555

>  <SCORE.INTER>
4.52237

>  <SCORE.INTER.CONST>
1

>  <SCORE.INTER.POLAR>
0

>  <SCORE.INTER.ROT>
11

>  <SCORE.INTER.SOLV>
6.34769

>  <SCORE.INTER.VDW>
-10.0343

>  <SCORE.INTER.norm>
0.323026

>  <SCORE.INTRA>
-9.17787

>  <SCORE.INTRA.DIHEDRAL>
-16.6545

>  <SCORE.INTRA.DIHEDRAL.0>
19.1003

>  <SCORE.INTRA.POLAR>
0

>  <SCORE.INTRA.POLAR.0>
0

>  <SCORE.INTRA.REPUL>
0

>  <SCORE.INTRA.REPUL.0>
0

>  <SCORE.INTRA.SOLV>
-0.0678241

>  <SCORE.INTRA.SOLV.lig_0>
-47.5333

>  <SCORE.INTRA.VDW>
-0.816723

>  <SCORE.INTRA.VDW.0>
-0.287413

>  <SCORE.INTRA.norm>
-0.655562

>  <SCORE.RESTR>
0

>  <SCORE.RESTR.CAVITY>
0

>  <SCORE.RESTR.norm>
0

>  <SCORE.SYSTEM>
0

>  <SCORE.SYSTEM.CONST>
0

>  <SCORE.SYSTEM.DIHEDRAL>
0

>  <SCORE.SYSTEM.SOLV>
0

>  <SCORE.SYSTEM.norm>
0

>  <SCORE.heavy>
14

>  <SCORE.norm>
-0.332535

>  <RMSD>
3.403

$$$$
ligand
 OpenBabel11021811493D
libRbt.so/2013.1/901 2013/11/27
 14 13  0  0  0  0  0  0  0  0999 V2000
   53.2912    4.7222   -0.1291 N   0  0  0  0  0  0  0  0  0  0  0  0
   53.6733    3.8717   -1.2349 C   0  0  0  0  0  0  0  0  0  0  0  0
   54.8080    4.5531   -2.0273 C   0  0  0  0  0  0  0  0  0  0  0  0
   56.0979    4.7591   -1.2182 C   0  0  0  0  0  0  0  0  0  0  0  0
   56.7295    3.5370   -0.6976 N   0  0  0  0  0  0  0  0  0  0  0  0
   57.2878    2.4892   -1.5505 C   0  0  0  0  0  0  0  0  0  0  0  0
   58.0310    1.4133   -0.7654 C   0  0  0  0  0  0  0  0  0  0  0  0
   57.1293    0.6061    0.1743 C   0  0  0  0  0  0  0  0  0  0  0  0
   57.8507   -0.6164    0.7538 C   0  0  0  0  0  0  0  0  0  0  0  0
   58.8688   -0.1725    1.7036 N   0  0  0  0  0  0  0  0  0  0  0  0
   60.1009   -0.9058    1.9993 C   0  0  0  0  0  0  0  0  0  0  0  0
   59.8462   -2.2205    2.7497 C   0  0  0  0  0  0  0  0  0  0  0  0
   61.1524   -2.9776    3.0110 C   0  0  0  0  0  0  0  0  0  0  0  0
   60.8629   -4.2014    3.7525 N   0  0  0  0  0  0  0  0  0  0  0  0
  1  2  1  0  0  0  0
  2  3  1  0  0  0  0
  3  4  1  0  0  0  0
  4  5  1  0  0  0  0
  5  6  1  0  0  0  0
  6  7  1  0  0  0  0
  7  8  1  0  0  0  0
  8  9  1  0  0  0  0
  9 10  1  0  0  0  0
 10 11  1  0  0  0  0
 11 12  1  0  0  0  0
 12 13  1  0  0  0  0
 13 14  1  0  0  0  0
M  END
>  <CHROM.1>
62.95633272,60.11887706,64.44181949,173.05781568,64.59704787,169.83260731
70.24610013,-151.57368850,-68.59087820,178.55988274,178.66296006,57.55218236
1.06127699,0.46551939,2.21438668,0.32431013,-0.76473578

>  <Name>
ligand

>  <RI>
0

>  <Rbt.Current_Directory>
/home/itssahil/PROJECTS/Mol_Feturizer/New_Systems/rnas/4FAW

>  <Rbt.Executable>
rbdock ($Id: //depot/dev/client3/rdock/2013.1/src/exe/rbdock.cxx#4 $)

>  <Rbt.Library>
libRbt.so (2013.1, Build901 2013/11/27)

>  <Rbt.Parameter_File>
/export/apps/rDock/src/rDock_2013.1_src/data/scripts/dock_solv.prm

>  <Rbt.Receptor>
prm/pocket_docking_4.prm

>  <SCORE>
-6.13368

>  <SCORE.INTER>
2.73583

>  <SCORE.INTER.CONST>
1

>  <SCORE.INTER.POLAR>
0

>  <SCORE.INTER.ROT>
11

>  <SCORE.INTER.SOLV>
7.69011

>  <SCORE.INTER.VDW>
-11.6728

>  <SCORE.INTER.norm>
0.195416

>  <SCORE.INTRA>
-8.86951

>  <SCORE.INTRA.DIHEDRAL>
-17.4962

>  <SCORE.INTRA.DIHEDRAL.0>
19.1003

>  <SCORE.INTRA.POLAR>
0

>  <SCORE.INTRA.POLAR.0>
0

>  <SCORE.INTRA.REPUL>
0

>  <SCORE.INTRA.REPUL.0>
0

>  <SCORE.INTRA.SOLV>
0.918577

>  <SCORE.INTRA.SOLV.lig_0>
-47.5333

>  <SCORE.INTRA.VDW>
-0.580684

>  <SCORE.INTRA.VDW.0>
-0.287413

>  <SCORE.INTRA.norm>
-0.633536

>  <SCORE.RESTR>
0

>  <SCORE.RESTR.CAVITY>
0

>  <SCORE.RESTR.norm>
0

>  <SCORE.SYSTEM>
0

>  <SCORE.SYSTEM.CONST>
0

>  <SCORE.SYSTEM.DIHEDRAL>
0

>  <SCORE.SYSTEM.SOLV>
0

>  <SCORE.SYSTEM.norm>
0

>  <SCORE.heavy>
14

>  <SCORE.norm>
-0.43812

>  <RMSD>
3.453

$$$$
ligand
 OpenBabel11021811493D
libRbt.so/2013.1/901 2013/11/27
 14 13  0  0  0  0  0  0  0  0999 V2000
   60.0650    0.6370    5.6113 N   0  0  0  0  0  0  0  0  0  0  0  0
   59.5865    0.4029    4.2665 C   0  0  0  0  0  0  0  0  0  0  0  0
   60.5123   -0.6166    3.5715 C   0  0  0  0  0  0  0  0  0  0  0  0
   60.0887   -0.9676    2.1368 C   0  0  0  0  0  0  0  0  0  0  0  0
   58.7630   -1.5888    1.9942 N   0  0  0  0  0  0  0  0  0  0  0  0
   58.0597   -1.7096    0.7184 C   0  0  0  0  0  0  0  0  0  0  0  0
   57.1816   -0.5028    0.4042 C   0  0  0  0  0  0  0  0  0  0  0  0
   57.9661    0.8048    0.2554 C   0  0  0  0  0  0  0  0  0  0  0  0
   57.0425    2.0060    0.0210 C   0  0  0  0  0  0  0  0  0  0  0  0
   56.1923    2.1990    1.1939 N   0  0  0  0  0  0  0  0  0  0  0  0
   54.8387    2.7552    1.1526 C   0  0  0  0  0  0  0  0  0  0  0  0
   53.8089    1.7741    0.5754 C   0  0  0  0  0  0  0  0  0  0  0  0
   52.4246    2.4205    0.4585 C   0  0  0  0  0  0  0  0  0  0  0  0
   51.4953    1.4695   -0.1443 N   0  0  0  0  0  0  0  0  0  0  0  0
  1  2  1  0  0  0  0
  2  3  1  0  0  0  0
  3  4  1  0  0  0  0
  4  5  1  0  0  0  0
  5  6  1  0  0  0  0
  6  7  1  0  0  0  0
  7  8  1  0  0  0  0
  8  9  1  0  0  0  0
  9 10  1  0  0  0  0
 10 11  1  0  0  0  0
 11 12  1  0  0  0  0
 12 13  1  0  0  0  0
 13 14  1  0  0  0  0
M  END
>  <CHROM.1>
178.94406704,-61.30464487,165.34116667,-89.11865628,62.53684089,-176.69320570
63.71574095,-149.65747399,73.54289035,-176.12843192,177.69817276,57.00195188
0.64880804,1.58658379,0.12458345,-0.52486767,0.92320708

>  <Name>
ligand

>  <RI>
0

>  <Rbt.Current_Directory>
/home/itssahil/PROJECTS/Mol_Feturizer/New_Systems/rnas/4FAW

>  <Rbt.Executable>
rbdock ($Id: //depot/dev/client3/rdock/2013.1/src/exe/rbdock.cxx#4 $)

>  <Rbt.Library>
libRbt.so (2013.1, Build901 2013/11/27)

>  <Rbt.Parameter_File>
/export/apps/rDock/src/rDock_2013.1_src/data/scripts/dock_solv.prm

>  <Rbt.Receptor>
prm/pocket_docking_4.prm

>  <SCORE>
-5.63255

>  <SCORE.INTER>
4.32482

>  <SCORE.INTER.CONST>
1

>  <SCORE.INTER.POLAR>
0

>  <SCORE.INTER.ROT>
11

>  <SCORE.INTER.SOLV>
10.6086

>  <SCORE.INTER.VDW>
-11.5863

>  <SCORE.INTER.norm>
0.308916

>  <SCORE.INTRA>
-9.95738

>  <SCORE.INTRA.DIHEDRAL>
-17.3951

>  <SCORE.INTRA.DIHEDRAL.0>
19.1003

>  <SCORE.INTRA.POLAR>
0

>  <SCORE.INTRA.POLAR.0>
0

>  <SCORE.INTRA.REPUL>
0

>  <SCORE.INTRA.REPUL.0>
0

>  <SCORE.INTRA.SOLV>
-0.396592

>  <SCORE.INTRA.SOLV.lig_0>
-47.5333

>  <SCORE.INTRA.VDW>
-1.06155

>  <SCORE.INTRA.VDW.0>
-0.287413

>  <SCORE.INTRA.norm>
-0.711241

>  <SCORE.RESTR>
0

>  <SCORE.RESTR.CAVITY>
0

>  <SCORE.RESTR.norm>
0

>  <SCORE.SYSTEM>
0

>  <SCORE.SYSTEM.CONST>
0

>  <SCORE.SYSTEM.DIHEDRAL>
0

>  <SCORE.SYSTEM.SOLV>
0

>  <SCORE.SYSTEM.norm>
0

>  <SCORE.heavy>
14

>  <SCORE.norm>
-0.402325

>  <RMSD>
3.464

$$$$
ligand
 OpenBabel11021811493D
libRbt.so/2013.1/901 2013/11/27
 14 13  0  0  0  0  0  0  0  0999 V2000
   60.7693   -2.9735    4.0588 N   0  0  0  0  0  0  0  0  0  0  0  0
   59.6786   -3.1623    3.1278 C   0  0  0  0  0  0  0  0  0  0  0  0
   59.5158   -1.8870    2.2754 C   0  0  0  0  0  0  0  0  0  0  0  0
   58.4070   -1.9817    1.2158 C   0  0  0  0  0  0  0  0  0  0  0  0
   58.3822   -0.9027    0.2165 N   0  0  0  0  0  0  0  0  0  0  0  0
   57.4855    0.2493    0.2926 C   0  0  0  0  0  0  0  0  0  0  0  0
   57.8535    1.3581   -0.6879 C   0  0  0  0  0  0  0  0  0  0  0  0
   56.9405    2.5852   -0.5975 C   0  0  0  0  0  0  0  0  0  0  0  0
   57.3908    3.7076   -1.5399 C   0  0  0  0  0  0  0  0  0  0  0  0
   56.2841    4.6394   -1.7465 N   0  0  0  0  0  0  0  0  0  0  0  0
   56.3651    5.8535   -2.5607 C   0  0  0  0  0  0  0  0  0  0  0  0
   55.2639    6.8693   -2.2264 C   0  0  0  0  0  0  0  0  0  0  0  0
   53.8698    6.2886   -2.4849 C   0  0  0  0  0  0  0  0  0  0  0  0
   52.8599    7.2938   -2.1672 N   0  0  0  0  0  0  0  0  0  0  0  0
  1  2  1  0  0  0  0
  2  3  1  0  0  0  0
  3  4  1  0  0  0  0
  4  5  1  0  0  0  0
  5  6  1  0  0  0  0
  6  7  1  0  0  0  0
  7  8  1  0  0  0  0
  8  9  1  0  0  0  0
  9 10  1  0  0  0  0
 10 11  1  0  0  0  0
 11 12  1  0  0  0  0
 12 13  1  0  0  0  0
 13 14  1  0  0  0  0
M  END
>  <CHROM.1>
178.35038866,-168.75684189,-99.00200233,167.85831977,-178.71596399,176.70710079
161.47025860,178.23603113,-160.15285645,-61.26615976,-179.38661149,57.21905513
1.99552979,-0.20184286,1.10182113,-0.27769192,2.50218691

>  <Name>
ligand

>  <RI>
0

>  <Rbt.Current_Directory>
/home/itssahil/PROJECTS/Mol_Feturizer/New_Systems/rnas/4FAW

>  <Rbt.Executable>
rbdock ($Id: //depot/dev/client3/rdock/2013.1/src/exe/rbdock.cxx#4 $)

>  <Rbt.Library>
libRbt.so (2013.1, Build901 2013/11/27)

>  <Rbt.Parameter_File>
/export/apps/rDock/src/rDock_2013.1_src/data/scripts/dock_solv.prm

>  <Rbt.Receptor>
prm/pocket_docking_5.prm

>  <SCORE>
-7.5813

>  <SCORE.INTER>
1.93068

>  <SCORE.INTER.CONST>
1

>  <SCORE.INTER.POLAR>
0

>  <SCORE.INTER.ROT>
11

>  <SCORE.INTER.SOLV>
11.2892

>  <SCORE.INTER.VDW>
-13.4093

>  <SCORE.INTER.norm>
0.137905

>  <SCORE.INTRA>
-9.51198

>  <SCORE.INTRA.DIHEDRAL>
-16.078

>  <SCORE.INTRA.DIHEDRAL.0>
19.1003

>  <SCORE.INTRA.POLAR>
0

>  <SCORE.INTRA.POLAR.0>
0

>  <SCORE.INTRA.REPUL>
0

>  <SCORE.INTRA.REPUL.0>
0

>  <SCORE.INTRA.SOLV>
-1.12281

>  <SCORE.INTRA.SOLV.lig_0>
-47.5333

>  <SCORE.INTRA.VDW>
-0.911562

>  <SCORE.INTRA.VDW.0>
-0.287413

>  <SCORE.INTRA.norm>
-0.679427

>  <SCORE.RESTR>
0

>  <SCORE.RESTR.CAVITY>
0

>  <SCORE.RESTR.norm>
0

>  <SCORE.SYSTEM>
0

>  <SCORE.SYSTEM.CONST>
0

>  <SCORE.SYSTEM.DIHEDRAL>
0

>  <SCORE.SYSTEM.SOLV>
0

>  <SCORE.SYSTEM.norm>
0

>  <SCORE.heavy>
14

>  <SCORE.norm>
-0.541521

>  <RMSD>
3.465

$$$$
ligand
 OpenBabel11021811493D
libRbt.so/2013.1/901 2013/11/27
 14 13  0  0  0  0  0  0  0  0999 V2000
   52.1359    3.0628    1.3980 N   0  0  0  0  0  0  0  0  0  0  0  0
   52.5183    2.2357    0.2746 C   0  0  0  0  0  0  0  0  0  0  0  0
   53.8299    2.7789   -0.3290 C   0  0  0  0  0  0  0  0  0  0  0  0
   55.0561    2.6002    0.5796 C   0  0  0  0  0  0  0  0  0  0  0  0
   56.3332    3.0856    0.0347 N   0  0  0  0  0  0  0  0  0  0  0  0
   57.0169    2.4648   -1.0985 C   0  0  0  0  0  0  0  0  0  0  0  0
   57.9791    1.3574   -0.6812 C   0  0  0  0  0  0  0  0  0  0  0  0
   57.2884    0.1632   -0.0146 C   0  0  0  0  0  0  0  0  0  0  0  0
   58.2934   -0.9013    0.4412 C   0  0  0  0  0  0  0  0  0  0  0  0
   59.1097   -0.3628    1.5272 N   0  0  0  0  0  0  0  0  0  0  0  0
   60.1725   -1.1033    2.2096 C   0  0  0  0  0  0  0  0  0  0  0  0
   60.3943   -0.6319    3.6535 C   0  0  0  0  0  0  0  0  0  0  0  0
   61.4767   -1.4611    4.3526 C   0  0  0  0  0  0  0  0  0  0  0  0
   61.5455   -1.0795    5.7601 N   0  0  0  0  0  0  0  0  0  0  0  0
  1  2  1  0  0  0  0
  2  3  1  0  0  0  0
  3  4  1  0  0  0  0
  4  5  1  0  0  0  0
  5  6  1  0  0  0  0
  6  7  1  0  0  0  0
  7  8  1  0  0  0  0
  8  9  1  0  0  0  0
  9 10  1  0  0  0  0
 10 11  1  0  0  0  0
 11 12  1  0  0  0  0
 12 13  1  0  0  0  0
 13 14  1  0  0  0  0
M  END
>  <CHROM.1>
68.62562084,179.09356094,-68.36511819,-89.27604411,63.68107476,-177.66497176
67.13306606,179.87898046,-152.36938210,177.93358563,-173.62779076,57.36787566
0.87191579,1.29305406,2.63438499,0.42386830,-1.40588900

>  <Name>
ligand

>  <RI>
0

>  <Rbt.Current_Directory>
/home/itssahil/PROJECTS/Mol_Feturizer/New_Systems/rnas/4FAW

>  <Rbt.Executable>
rbdock ($Id: //depot/dev/client3/rdock/2013.1/src/exe/rbdock.cxx#4 $)

>  <Rbt.Library>
libRbt.so (2013.1, Build901 2013/11/27)

>  <Rbt.Parameter_File>
/export/apps/rDock/src/rDock_2013.1_src/data/scripts/dock_solv.prm

>  <Rbt.Receptor>
prm/pocket_docking_3.prm

>  <SCORE>
-5.66507

>  <SCORE.INTER>
3.68872

>  <SCORE.INTER.CONST>
1

>  <SCORE.INTER.POLAR>
0

>  <SCORE.INTER.ROT>
11

>  <SCORE.INTER.SOLV>
7.64763

>  <SCORE.INTER.VDW>
-11.0234

>  <SCORE.INTER.norm>
0.26348

>  <SCORE.INTRA>
-9.35379

>  <SCORE.INTRA.DIHEDRAL>
-17.2283

>  <SCORE.INTRA.DIHEDRAL.0>
19.1003

>  <SCORE.INTRA.POLAR>
0

>  <SCORE.INTRA.POLAR.0>
0

>  <SCORE.INTRA.REPUL>
0

>  <SCORE.INTRA.REPUL.0>
0

>  <SCORE.INTRA.SOLV>
-0.0757813

>  <SCORE.INTRA.SOLV.lig_0>
-47.5333

>  <SCORE.INTRA.VDW>
-0.701769

>  <SCORE.INTRA.VDW.0>
-0.287413

>  <SCORE.INTRA.norm>
-0.668128

>  <SCORE.RESTR>
0

>  <SCORE.RESTR.CAVITY>
0

>  <SCORE.RESTR.norm>
0

>  <SCORE.SYSTEM>
0

>  <SCORE.SYSTEM.CONST>
0

>  <SCORE.SYSTEM.DIHEDRAL>
0

>  <SCORE.SYSTEM.SOLV>
0

>  <SCORE.SYSTEM.norm>
0

>  <SCORE.heavy>
14

>  <SCORE.norm>
-0.404648

>  <RMSD>
3.490

$$$$
ligand
 OpenBabel11021811493D
libRbt.so/2013.1/901 2013/11/27
 14 13  0  0  0  0  0  0  0  0999 V2000
   59.8141   -1.8957    2.5322 N   0  0  0  0  0  0  0  0  0  0  0  0
   59.2027   -0.8225    1.7795 C   0  0  0  0  0  0  0  0  0  0  0  0
   58.2108   -1.4212    0.7611 C   0  0  0  0  0  0  0  0  0  0  0  0
   57.4406   -0.3696   -0.0524 C   0  0  0  0  0  0  0  0  0  0  0  0
   58.2470    0.4411   -0.9776 N   0  0  0  0  0  0  0  0  0  0  0  0
   57.7082    1.5540   -1.7574 C   0  0  0  0  0  0  0  0  0  0  0  0
   57.3515    2.7651   -0.9017 C   0  0  0  0  0  0  0  0  0  0  0  0
   56.6354    3.8753   -1.6776 C   0  0  0  0  0  0  0  0  0  0  0  0
   56.2502    5.0523   -0.7735 C   0  0  0  0  0  0  0  0  0  0  0  0
   55.4331    5.9976   -1.5314 N   0  0  0  0  0  0  0  0  0  0  0  0
   53.9821    6.1344   -1.3926 C   0  0  0  0  0  0  0  0  0  0  0  0
   53.5774    6.9922   -0.1856 C   0  0  0  0  0  0  0  0  0  0  0  0
   52.0550    7.0427   -0.0204 C   0  0  0  0  0  0  0  0  0  0  0  0
   51.5668    5.7252    0.3760 N   0  0  0  0  0  0  0  0  0  0  0  0
  1  2  1  0  0  0  0
  2  3  1  0  0  0  0
  3  4  1  0  0  0  0
  4  5  1  0  0  0  0
  5  6  1  0  0  0  0
  6  7  1  0  0  0  0
  7  8  1  0  0  0  0
  8  9  1  0  0  0  0
  9 10  1  0  0  0  0
 10 11  1  0  0  0  0
 11 12  1  0  0  0  0
 12 13  1  0  0  0  0
 13 14  1  0  0  0  0
M  END
>  <CHROM.1>
176.99144335,66.49746586,-175.23094185,70.17998328,-173.23478717,177.98609272
-173.16798011,104.08111116,81.04337644,-176.48766127,68.36583258,56.24821028
2.93377288,-0.27311169,0.73709955,-0.64184712,2.36646266

>  <Name>
ligand

>  <RI>
0

>  <Rbt.Current_Directory>
/home/itssahil/PROJECTS/Mol_Feturizer/New_Systems/rnas/4FAW

>  <Rbt.Executable>
rbdock ($Id: //depot/dev/client3/rdock/2013.1/src/exe/rbdock.cxx#4 $)

>  <Rbt.Library>
libRbt.so (2013.1, Build901 2013/11/27)

>  <Rbt.Parameter_File>
/export/apps/rDock/src/rDock_2013.1_src/data/scripts/dock_solv.prm

>  <Rbt.Receptor>
prm/pocket_docking_5.prm

>  <SCORE>
-6.19698

>  <SCORE.INTER>
3.06277

>  <SCORE.INTER.CONST>
1

>  <SCORE.INTER.POLAR>
0

>  <SCORE.INTER.ROT>
11

>  <SCORE.INTER.SOLV>
10.7026

>  <SCORE.INTER.VDW>
-12.459

>  <SCORE.INTER.norm>
0.218769

>  <SCORE.INTRA>
-9.25975

>  <SCORE.INTRA.DIHEDRAL>
-16.8037

>  <SCORE.INTRA.DIHEDRAL.0>
19.1003

>  <SCORE.INTRA.POLAR>
0

>  <SCORE.INTRA.POLAR.0>
0

>  <SCORE.INTRA.REPUL>
0

>  <SCORE.INTRA.REPUL.0>
0

>  <SCORE.INTRA.SOLV>
-0.450895

>  <SCORE.INTRA.SOLV.lig_0>
-47.5333

>  <SCORE.INTRA.VDW>
-0.632428

>  <SCORE.INTRA.VDW.0>
-0.287413

>  <SCORE.INTRA.norm>
-0.661411

>  <SCORE.RESTR>
0

>  <SCORE.RESTR.CAVITY>
0

>  <SCORE.RESTR.norm>
0

>  <SCORE.SYSTEM>
0

>  <SCORE.SYSTEM.CONST>
0

>  <SCORE.SYSTEM.DIHEDRAL>
0

>  <SCORE.SYSTEM.SOLV>
0

>  <SCORE.SYSTEM.norm>
0

>  <SCORE.heavy>
14

>  <SCORE.norm>
-0.442642

>  <RMSD>
3.561

$$$$
ligand
 OpenBabel11021811493D
libRbt.so/2013.1/901 2013/11/27
 14 13  0  0  0  0  0  0  0  0999 V2000
   53.1811    3.9822   -3.3542 N   0  0  0  0  0  0  0  0  0  0  0  0
   54.2217    3.6821   -2.3954 C   0  0  0  0  0  0  0  0  0  0  0  0
   55.2997    4.7836   -2.4587 C   0  0  0  0  0  0  0  0  0  0  0  0
   56.4648    4.5738   -1.4792 C   0  0  0  0  0  0  0  0  0  0  0  0
   57.2623    3.3549   -1.6841 N   0  0  0  0  0  0  0  0  0  0  0  0
   58.2183    2.8402   -0.7053 C   0  0  0  0  0  0  0  0  0  0  0  0
   57.5850    1.8880    0.3040 C   0  0  0  0  0  0  0  0  0  0  0  0
   58.5766    1.3374    1.3341 C   0  0  0  0  0  0  0  0  0  0  0  0
   59.0893    2.4301    2.2797 C   0  0  0  0  0  0  0  0  0  0  0  0
   59.8499    1.8135    3.3646 N   0  0  0  0  0  0  0  0  0  0  0  0
   60.2454    2.5028    4.5942 C   0  0  0  0  0  0  0  0  0  0  0  0
   60.2822    1.5713    5.8137 C   0  0  0  0  0  0  0  0  0  0  0  0
   61.3241    0.4615    5.6387 C   0  0  0  0  0  0  0  0  0  0  0  0
   61.2109   -0.4874    6.7424 N   0  0  0  0  0  0  0  0  0  0  0  0
  1  2  1  0  0  0  0
  2  3  1  0  0  0  0
  3  4  1  0  0  0  0
  4  5  1  0  0  0  0
  5  6  1  0  0  0  0
  6  7  1  0  0  0  0
  7  8  1  0  0  0  0
  8  9  1  0  0  0  0
  9 10  1  0  0  0  0
 10 11  1  0  0  0  0
 11 12  1  0  0  0  0
 12 13  1  0  0  0  0
 13 14  1  0  0  0  0
M  END
>  <CHROM.1>
179.98876892,62.16805754,-166.72922300,88.77346346,179.84403543,67.44172693
170.76202267,-166.43328855,147.18921604,62.59782233,-173.19186673,58.05802752
2.48113792,1.28532371,2.25673146,-0.49790519,-0.82335844

>  <Name>
ligand

>  <RI>
0

>  <Rbt.Current_Directory>
/home/itssahil/PROJECTS/Mol_Feturizer/New_Systems/rnas/4FAW

>  <Rbt.Executable>
rbdock ($Id: //depot/dev/client3/rdock/2013.1/src/exe/rbdock.cxx#4 $)

>  <Rbt.Library>
libRbt.so (2013.1, Build901 2013/11/27)

>  <Rbt.Parameter_File>
/export/apps/rDock/src/rDock_2013.1_src/data/scripts/dock_solv.prm

>  <Rbt.Receptor>
prm/pocket_docking_5.prm

>  <SCORE>
-7.3152

>  <SCORE.INTER>
1.94563

>  <SCORE.INTER.CONST>
1

>  <SCORE.INTER.POLAR>
0

>  <SCORE.INTER.ROT>
11

>  <SCORE.INTER.SOLV>
7.69505

>  <SCORE.INTER.VDW>
-12.2013

>  <SCORE.INTER.norm>
0.138974

>  <SCORE.INTRA>
-9.26083

>  <SCORE.INTRA.DIHEDRAL>
-16.8038

>  <SCORE.INTRA.DIHEDRAL.0>
19.1003

>  <SCORE.INTRA.POLAR>
0

>  <SCORE.INTRA.POLAR.0>
0

>  <SCORE.INTRA.REPUL>
0

>  <SCORE.INTRA.REPUL.0>
0

>  <SCORE.INTRA.SOLV>
-0.620222

>  <SCORE.INTRA.SOLV.lig_0>
-47.5333

>  <SCORE.INTRA.VDW>
-0.548837

>  <SCORE.INTRA.VDW.0>
-0.287413

>  <SCORE.INTRA.norm>
-0.661488

>  <SCORE.RESTR>
0

>  <SCORE.RESTR.CAVITY>
0

>  <SCORE.RESTR.norm>
0

>  <SCORE.SYSTEM>
0

>  <SCORE.SYSTEM.CONST>
0

>  <SCORE.SYSTEM.DIHEDRAL>
0

>  <SCORE.SYSTEM.SOLV>
0

>  <SCORE.SYSTEM.norm>
0

>  <SCORE.heavy>
14

>  <SCORE.norm>
-0.522514

>  <RMSD>
3.587

$$$$
ligand
 OpenBabel11021811493D
libRbt.so/2013.1/901 2013/11/27
 14 13  0  0  0  0  0  0  0  0999 V2000
   54.5486    7.1300   -3.8792 N   0  0  0  0  0  0  0  0  0  0  0  0
   54.2473    5.7265   -3.7021 C   0  0  0  0  0  0  0  0  0  0  0  0
   55.2726    5.1088   -2.7290 C   0  0  0  0  0  0  0  0  0  0  0  0
   55.0298    3.6217   -2.4277 C   0  0  0  0  0  0  0  0  0  0  0  0
   55.9468    3.0071   -1.4557 N   0  0  0  0  0  0  0  0  0  0  0  0
   57.2542    2.4588   -1.8123 C   0  0  0  0  0  0  0  0  0  0  0  0
   57.9667    1.8006   -0.6353 C   0  0  0  0  0  0  0  0  0  0  0  0
   58.0760    2.7027    0.5983 C   0  0  0  0  0  0  0  0  0  0  0  0
   58.9031    2.0533    1.7141 C   0  0  0  0  0  0  0  0  0  0  0  0
   58.8580    2.8992    2.9049 N   0  0  0  0  0  0  0  0  0  0  0  0
   59.9075    2.9500    3.9245 C   0  0  0  0  0  0  0  0  0  0  0  0
   59.9688    1.6772    4.7803 C   0  0  0  0  0  0  0  0  0  0  0  0
   61.0236    1.7962    5.8851 C   0  0  0  0  0  0  0  0  0  0  0  0
   61.0336    0.5712    6.6792 N   0  0  0  0  0  0  0  0  0  0  0  0
  1  2  1  0  0  0  0
  2  3  1  0  0  0  0
  3  4  1  0  0  0  0
  4  5  1  0  0  0  0
  5  6  1  0  0  0  0
  6  7  1  0  0  0  0
  7  8  1  0  0  0  0
  8  9  1  0  0  0  0
  9 10  1  0  0  0  0
 10 11  1  0  0  0  0
 11 12  1  0  0  0  0
 12 13  1  0  0  0  0
 13 14  1  0  0  0  0
M  END
>  <CHROM.1>
178.28155566,-177.27480018,-84.87637425,-176.30444195,-52.76273388,-174.99848205
-174.36723170,-152.69244176,-71.09340029,-176.82113428,179.35322154,57.71694780
3.10725116,0.70307875,3.02189663,1.02328490,-2.60652460

>  <Name>
ligand

>  <RI>
0

>  <Rbt.Current_Directory>
/home/itssahil/PROJECTS/Mol_Feturizer/New_Systems/rnas/4FAW

>  <Rbt.Executable>
rbdock ($Id: //depot/dev/client3/rdock/2013.1/src/exe/rbdock.cxx#4 $)

>  <Rbt.Library>
libRbt.so (2013.1, Build901 2013/11/27)

>  <Rbt.Parameter_File>
/export/apps/rDock/src/rDock_2013.1_src/data/scripts/dock_solv.prm

>  <Rbt.Receptor>
prm/pocket_docking_5.prm

>  <SCORE>
-7.68467

>  <SCORE.INTER>
2.23993

>  <SCORE.INTER.CONST>
1

>  <SCORE.INTER.POLAR>
0

>  <SCORE.INTER.ROT>
11

>  <SCORE.INTER.SOLV>
6.61823

>  <SCORE.INTER.VDW>
-11.6461

>  <SCORE.INTER.norm>
0.159995

>  <SCORE.INTRA>
-9.92461

>  <SCORE.INTRA.DIHEDRAL>
-17.5358

>  <SCORE.INTRA.DIHEDRAL.0>
19.1003

>  <SCORE.INTRA.POLAR>
0

>  <SCORE.INTRA.POLAR.0>
0

>  <SCORE.INTRA.REPUL>
0

>  <SCORE.INTRA.REPUL.0>
0

>  <SCORE.INTRA.SOLV>
-1.07573

>  <SCORE.INTRA.SOLV.lig_0>
-47.5333

>  <SCORE.INTRA.VDW>
-0.618829

>  <SCORE.INTRA.VDW.0>
-0.287413

>  <SCORE.INTRA.norm>
-0.708901

>  <SCORE.RESTR>
0

>  <SCORE.RESTR.CAVITY>
0

>  <SCORE.RESTR.norm>
0

>  <SCORE.SYSTEM>
0

>  <SCORE.SYSTEM.CONST>
0

>  <SCORE.SYSTEM.DIHEDRAL>
0

>  <SCORE.SYSTEM.SOLV>
0

>  <SCORE.SYSTEM.norm>
0

>  <SCORE.heavy>
14

>  <SCORE.norm>
-0.548905

>  <RMSD>
3.603

$$$$
ligand
 OpenBabel11021811493D
libRbt.so/2013.1/901 2013/11/27
 14 13  0  0  0  0  0  0  0  0999 V2000
   59.0307    0.4547    4.6932 N   0  0  0  0  0  0  0  0  0  0  0  0
   60.4369    0.3642    4.3668 C   0  0  0  0  0  0  0  0  0  0  0  0
   60.6787   -0.9042    3.5229 C   0  0  0  0  0  0  0  0  0  0  0  0
   59.9868   -0.8825    2.1511 C   0  0  0  0  0  0  0  0  0  0  0  0
   58.5163   -0.8618    2.1757 N   0  0  0  0  0  0  0  0  0  0  0  0
   57.6832   -1.2356    1.0341 C   0  0  0  0  0  0  0  0  0  0  0  0
   57.8743   -0.3190   -0.1699 C   0  0  0  0  0  0  0  0  0  0  0  0
   57.5781    1.1545    0.1275 C   0  0  0  0  0  0  0  0  0  0  0  0
   57.7063    2.0308   -1.1241 C   0  0  0  0  0  0  0  0  0  0  0  0
   57.4208    3.4204   -0.7734 N   0  0  0  0  0  0  0  0  0  0  0  0
   56.9829    4.4417   -1.7267 C   0  0  0  0  0  0  0  0  0  0  0  0
   55.4856    4.3496   -2.0523 C   0  0  0  0  0  0  0  0  0  0  0  0
   55.0598    5.4407   -3.0402 C   0  0  0  0  0  0  0  0  0  0  0  0
   55.1680    6.7463   -2.3960 N   0  0  0  0  0  0  0  0  0  0  0  0
  1  2  1  0  0  0  0
  2  3  1  0  0  0  0
  3  4  1  0  0  0  0
  4  5  1  0  0  0  0
  5  6  1  0  0  0  0
  6  7  1  0  0  0  0
  7  8  1  0  0  0  0
  8  9  1  0  0  0  0
  9 10  1  0  0  0  0
 10 11  1  0  0  0  0
 11 12  1  0  0  0  0
 12 13  1  0  0  0  0
 13 14  1  0  0  0  0
M  END
>  <CHROM.1>
64.61703831,-64.48290698,-161.05073445,-63.13212848,-58.21581286,-176.85206972
-179.64807068,-157.28857866,79.63037237,179.41083726,-67.17984714,57.82929599
1.72826968,0.48473759,-0.45502016,-1.05794548,0.29380146

>  <Name>
ligand

>  <RI>
0

>  <Rbt.Current_Directory>
/home/itssahil/PROJECTS/Mol_Feturizer/New_Systems/rnas/4FAW

>  <Rbt.Executable>
rbdock ($Id: //depot/dev/client3/rdock/2013.1/src/exe/rbdock.cxx#4 $)

>  <Rbt.Library>
libRbt.so (2013.1, Build901 2013/11/27)

>  <Rbt.Parameter_File>
/export/apps/rDock/src/rDock_2013.1_src/data/scripts/dock_solv.prm

>  <Rbt.Receptor>
prm/pocket_docking_7.prm

>  <SCORE>
-8.13288

>  <SCORE.INTER>
0.0863871

>  <SCORE.INTER.CONST>
1

>  <SCORE.INTER.POLAR>
0

>  <SCORE.INTER.ROT>
11

>  <SCORE.INTER.SOLV>
8.29919

>  <SCORE.INTER.VDW>
-13.6421

>  <SCORE.INTER.norm>
0.00617051

>  <SCORE.INTRA>
-8.21927

>  <SCORE.INTRA.DIHEDRAL>
-17.7499

>  <SCORE.INTRA.DIHEDRAL.0>
19.1003

>  <SCORE.INTRA.POLAR>
0

>  <SCORE.INTRA.POLAR.0>
0

>  <SCORE.INTRA.REPUL>
0

>  <SCORE.INTRA.REPUL.0>
0

>  <SCORE.INTRA.SOLV>
2.42265

>  <SCORE.INTRA.SOLV.lig_0>
-47.5333

>  <SCORE.INTRA.VDW>
-0.55565

>  <SCORE.INTRA.VDW.0>
-0.287413

>  <SCORE.INTRA.norm>
-0.58709

>  <SCORE.RESTR>
0

>  <SCORE.RESTR.CAVITY>
0

>  <SCORE.RESTR.norm>
0

>  <SCORE.SYSTEM>
0

>  <SCORE.SYSTEM.CONST>
0

>  <SCORE.SYSTEM.DIHEDRAL>
0

>  <SCORE.SYSTEM.SOLV>
0

>  <SCORE.SYSTEM.norm>
0

>  <SCORE.heavy>
14

>  <SCORE.norm>
-0.58092

>  <RMSD>
3.618

$$$$
ligand
 OpenBabel11021811493D
libRbt.so/2013.1/901 2013/11/27
 14 13  0  0  0  0  0  0  0  0999 V2000
   53.9458    4.6814   -2.3014 N   0  0  0  0  0  0  0  0  0  0  0  0
   55.2573    5.0971   -2.7477 C   0  0  0  0  0  0  0  0  0  0  0  0
   56.0607    5.6178   -1.5382 C   0  0  0  0  0  0  0  0  0  0  0  0
   56.4447    4.5262   -0.5272 C   0  0  0  0  0  0  0  0  0  0  0  0
   57.4489    3.5539   -0.9850 N   0  0  0  0  0  0  0  0  0  0  0  0
   57.1437    2.4340   -1.8737 C   0  0  0  0  0  0  0  0  0  0  0  0
   57.8917    1.1573   -1.5038 C   0  0  0  0  0  0  0  0  0  0  0  0
   57.6607    0.7080   -0.0573 C   0  0  0  0  0  0  0  0  0  0  0  0
   58.1886   -0.7091    0.1958 C   0  0  0  0  0  0  0  0  0  0  0  0
   58.2025   -0.9708    1.6335 N   0  0  0  0  0  0  0  0  0  0  0  0
   58.9363   -2.0671    2.2684 C   0  0  0  0  0  0  0  0  0  0  0  0
   59.3527   -1.7484    3.7111 C   0  0  0  0  0  0  0  0  0  0  0  0
   60.1206   -2.9144    4.3423 C   0  0  0  0  0  0  0  0  0  0  0  0
   60.4973   -2.5632    5.7083 N   0  0  0  0  0  0  0  0  0  0  0  0
  1  2  1  0  0  0  0
  2  3  1  0  0  0  0
  3  4  1  0  0  0  0
  4  5  1  0  0  0  0
  5  6  1  0  0  0  0
  6  7  1  0  0  0  0
  7  8  1  0  0  0  0
  8  9  1  0  0  0  0
  9 10  1  0  0  0  0
 10 11  1  0  0  0  0
 11 12  1  0  0  0  0
 12 13  1  0  0  0  0
 13 14  1  0  0  0  0
M  END
>  <CHROM.1>
68.70558596,69.46753703,-78.55804687,-141.04890643,55.74968695,168.48728879
168.02394240,-164.23711905,151.90438737,-179.84502664,179.83256837,57.65372720
1.20020747,0.45154996,3.10374213,1.15606745,-2.23080425

>  <Name>
ligand

>  <RI>
0

>  <Rbt.Current_Directory>
/home/itssahil/PROJECTS/Mol_Feturizer/New_Systems/rnas/4FAW

>  <Rbt.Executable>
rbdock ($Id: //depot/dev/client3/rdock/2013.1/src/exe/rbdock.cxx#4 $)

>  <Rbt.Library>
libRbt.so (2013.1, Build901 2013/11/27)

>  <Rbt.Parameter_File>
/export/apps/rDock/src/rDock_2013.1_src/data/scripts/dock_solv.prm

>  <Rbt.Receptor>
prm/pocket_docking_5.prm

>  <SCORE>
-6.82908

>  <SCORE.INTER>
1.36953

>  <SCORE.INTER.CONST>
1

>  <SCORE.INTER.POLAR>
0

>  <SCORE.INTER.ROT>
11

>  <SCORE.INTER.SOLV>
8.93028

>  <SCORE.INTER.VDW>
-12.9971

>  <SCORE.INTER.norm>
0.0978235

>  <SCORE.INTRA>
-8.19861

>  <SCORE.INTRA.DIHEDRAL>
-15.4877

>  <SCORE.INTRA.DIHEDRAL.0>
19.1003

>  <SCORE.INTRA.POLAR>
0

>  <SCORE.INTRA.POLAR.0>
0

>  <SCORE.INTRA.REPUL>
0

>  <SCORE.INTRA.REPUL.0>
0

>  <SCORE.INTRA.SOLV>
0.878725

>  <SCORE.INTRA.SOLV.lig_0>
-47.5333

>  <SCORE.INTRA.VDW>
-0.894145

>  <SCORE.INTRA.VDW.0>
-0.287413

>  <SCORE.INTRA.norm>
-0.585615

>  <SCORE.RESTR>
0

>  <SCORE.RESTR.CAVITY>
0

>  <SCORE.RESTR.norm>
0

>  <SCORE.SYSTEM>
0

>  <SCORE.SYSTEM.CONST>
0

>  <SCORE.SYSTEM.DIHEDRAL>
0

>  <SCORE.SYSTEM.SOLV>
0

>  <SCORE.SYSTEM.norm>
0

>  <SCORE.heavy>
14

>  <SCORE.norm>
-0.487792

>  <RMSD>
3.620

$$$$
ligand
 OpenBabel11021811493D
libRbt.so/2013.1/901 2013/11/27
 14 13  0  0  0  0  0  0  0  0999 V2000
   60.3176   -1.9873    4.3807 N   0  0  0  0  0  0  0  0  0  0  0  0
   60.8229   -1.1478    3.3168 C   0  0  0  0  0  0  0  0  0  0  0  0
   59.6339   -0.5639    2.5263 C   0  0  0  0  0  0  0  0  0  0  0  0
   58.7774   -1.6227    1.8145 C   0  0  0  0  0  0  0  0  0  0  0  0
   57.6561   -1.1072    1.0143 N   0  0  0  0  0  0  0  0  0  0  0  0
   57.8275   -0.2897   -0.1854 C   0  0  0  0  0  0  0  0  0  0  0  0
   57.4497    1.1723    0.0295 C   0  0  0  0  0  0  0  0  0  0  0  0
   57.6628    2.0495   -1.2085 C   0  0  0  0  0  0  0  0  0  0  0  0
   57.0778    3.4548   -1.0250 C   0  0  0  0  0  0  0  0  0  0  0  0
   55.6207    3.3880   -1.1138 N   0  0  0  0  0  0  0  0  0  0  0  0
   54.7442    2.9498   -0.0261 C   0  0  0  0  0  0  0  0  0  0  0  0
   54.6570    3.9709    1.1167 C   0  0  0  0  0  0  0  0  0  0  0  0
   53.7698    3.4602    2.2568 C   0  0  0  0  0  0  0  0  0  0  0  0
   52.3989    3.3158    1.7761 N   0  0  0  0  0  0  0  0  0  0  0  0
  1  2  1  0  0  0  0
  2  3  1  0  0  0  0
  3  4  1  0  0  0  0
  4  5  1  0  0  0  0
  5  6  1  0  0  0  0
  6  7  1  0  0  0  0
  7  8  1  0  0  0  0
  8  9  1  0  0  0  0
  9 10  1  0  0  0  0
 10 11  1  0  0  0  0
 11 12  1  0  0  0  0
 12 13  1  0  0  0  0
 13 14  1  0  0  0  0
M  END
>  <CHROM.1>
-63.37970068,-178.19401569,65.46939314,-107.58821924,178.33137269,171.34370774
-74.07533660,79.31365978,71.71511809,-178.11508087,-64.45598524,57.02996357
1.21745136,1.04786582,0.55383036,-0.58887791,1.97804727

>  <Name>
ligand

>  <RI>
0

>  <Rbt.Current_Directory>
/home/itssahil/PROJECTS/Mol_Feturizer/New_Systems/rnas/4FAW

>  <Rbt.Executable>
rbdock ($Id: //depot/dev/client3/rdock/2013.1/src/exe/rbdock.cxx#4 $)

>  <Rbt.Library>
libRbt.so (2013.1, Build901 2013/11/27)

>  <Rbt.Parameter_File>
/export/apps/rDock/src/rDock_2013.1_src/data/scripts/dock_solv.prm

>  <Rbt.Receptor>
prm/pocket_docking_3.prm

>  <SCORE>
-5.7474

>  <SCORE.INTER>
2.52072

>  <SCORE.INTER.CONST>
1

>  <SCORE.INTER.POLAR>
0

>  <SCORE.INTER.ROT>
11

>  <SCORE.INTER.SOLV>
7.38399

>  <SCORE.INTER.VDW>
-11.7142

>  <SCORE.INTER.norm>
0.180051

>  <SCORE.INTRA>
-8.26872

>  <SCORE.INTRA.DIHEDRAL>
-16.4279

>  <SCORE.INTRA.DIHEDRAL.0>
19.1003

>  <SCORE.INTRA.POLAR>
0

>  <SCORE.INTRA.POLAR.0>
0

>  <SCORE.INTRA.REPUL>
0

>  <SCORE.INTRA.REPUL.0>
0

>  <SCORE.INTRA.SOLV>
0.36819

>  <SCORE.INTRA.SOLV.lig_0>
-47.5333

>  <SCORE.INTRA.VDW>
-0.238848

>  <SCORE.INTRA.VDW.0>
-0.287413

>  <SCORE.INTRA.norm>
-0.590623

>  <SCORE.RESTR>
0.000600138

>  <SCORE.RESTR.CAVITY>
0.000600138

>  <SCORE.RESTR.norm>
4.2867e-05

>  <SCORE.SYSTEM>
0

>  <SCORE.SYSTEM.CONST>
0

>  <SCORE.SYSTEM.DIHEDRAL>
0

>  <SCORE.SYSTEM.SOLV>
0

>  <SCORE.SYSTEM.norm>
0

>  <SCORE.heavy>
14

>  <SCORE.norm>
-0.410529

>  <RMSD>
3.623

$$$$
ligand
 OpenBabel11021811493D
libRbt.so/2013.1/901 2013/11/27
 14 13  0  0  0  0  0  0  0  0999 V2000
   53.9371    3.8207   -0.1751 N   0  0  0  0  0  0  0  0  0  0  0  0
   53.9694    5.2280   -0.5078 C   0  0  0  0  0  0  0  0  0  0  0  0
   54.7657    5.4197   -1.8150 C   0  0  0  0  0  0  0  0  0  0  0  0
   56.2634    5.1011   -1.6859 C   0  0  0  0  0  0  0  0  0  0  0  0
   56.5974    3.6973   -1.4009 N   0  0  0  0  0  0  0  0  0  0  0  0
   57.8983    3.0997   -1.6964 C   0  0  0  0  0  0  0  0  0  0  0  0
   57.8919    1.5775   -1.5996 C   0  0  0  0  0  0  0  0  0  0  0  0
   57.7552    1.0544   -0.1661 C   0  0  0  0  0  0  0  0  0  0  0  0
   57.8311   -0.4757   -0.1027 C   0  0  0  0  0  0  0  0  0  0  0  0
   57.8604   -0.9014    1.2950 N   0  0  0  0  0  0  0  0  0  0  0  0
   58.5343   -2.1077    1.7790 C   0  0  0  0  0  0  0  0  0  0  0  0
   59.8553   -1.8036    2.4993 C   0  0  0  0  0  0  0  0  0  0  0  0
   60.5460   -3.0887    2.9673 C   0  0  0  0  0  0  0  0  0  0  0  0
   61.7394   -2.7452    3.7348 N   0  0  0  0  0  0  0  0  0  0  0  0
  1  2  1  0  0  0  0
  2  3  1  0  0  0  0
  3  4  1  0  0  0  0
  4  5  1  0  0  0  0
  5  6  1  0  0  0  0
  6  7  1  0  0  0  0
  7  8  1  0  0  0  0
  8  9  1  0  0  0  0
  9 10  1  0  0  0  0
 10 11  1  0  0  0  0
 11 12  1  0  0  0  0
 12 13  1  0  0  0  0
 13 14  1  0  0  0  0
M  END
>  <CHROM.1>
-67.37291993,65.40045818,157.79047415,-167.10816599,-70.19857006,-176.82762176
173.09306037,-149.61283943,104.38865188,-178.87299066,-175.60414741,57.53178077
1.27699163,0.22300938,2.18209699,0.43781220,-0.79456816

>  <Name>
ligand

>  <RI>
0

>  <Rbt.Current_Directory>
/home/itssahil/PROJECTS/Mol_Feturizer/New_Systems/rnas/4FAW

>  <Rbt.Executable>
rbdock ($Id: //depot/dev/client3/rdock/2013.1/src/exe/rbdock.cxx#4 $)

>  <Rbt.Library>
libRbt.so (2013.1, Build901 2013/11/27)

>  <Rbt.Parameter_File>
/export/apps/rDock/src/rDock_2013.1_src/data/scripts/dock_solv.prm

>  <Rbt.Receptor>
prm/pocket_docking_5.prm

>  <SCORE>
-8.46564

>  <SCORE.INTER>
-0.0611148

>  <SCORE.INTER.CONST>
1

>  <SCORE.INTER.POLAR>
0

>  <SCORE.INTER.ROT>
11

>  <SCORE.INTER.SOLV>
9.72124

>  <SCORE.INTER.VDW>
-14.2145

>  <SCORE.INTER.norm>
-0.00436534

>  <SCORE.INTRA>
-8.40453

>  <SCORE.INTRA.DIHEDRAL>
-15.9889

>  <SCORE.INTRA.DIHEDRAL.0>
19.1003

>  <SCORE.INTRA.POLAR>
0

>  <SCORE.INTRA.POLAR.0>
0

>  <SCORE.INTRA.REPUL>
0

>  <SCORE.INTRA.REPUL.0>
0

>  <SCORE.INTRA.SOLV>
1.49193

>  <SCORE.INTRA.SOLV.lig_0>
-47.5333

>  <SCORE.INTRA.VDW>
-1.15603

>  <SCORE.INTRA.VDW.0>
-0.287413

>  <SCORE.INTRA.norm>
-0.600323

>  <SCORE.RESTR>
0

>  <SCORE.RESTR.CAVITY>
0

>  <SCORE.RESTR.norm>
0

>  <SCORE.SYSTEM>
0

>  <SCORE.SYSTEM.CONST>
0

>  <SCORE.SYSTEM.DIHEDRAL>
0

>  <SCORE.SYSTEM.SOLV>
0

>  <SCORE.SYSTEM.norm>
0

>  <SCORE.heavy>
14

>  <SCORE.norm>
-0.604689

>  <RMSD>
3.635

$$$$
ligand
 OpenBabel11021811493D
libRbt.so/2013.1/901 2013/11/27
 14 13  0  0  0  0  0  0  0  0999 V2000
   53.8159    4.6038    0.6187 N   0  0  0  0  0  0  0  0  0  0  0  0
   54.7390    5.4741   -0.0761 C   0  0  0  0  0  0  0  0  0  0  0  0
   54.8954    4.9860   -1.5310 C   0  0  0  0  0  0  0  0  0  0  0  0
   55.5638    3.6083   -1.6587 C   0  0  0  0  0  0  0  0  0  0  0  0
   56.9292    3.5066   -1.1213 N   0  0  0  0  0  0  0  0  0  0  0  0
   57.6778    2.2531   -1.0475 C   0  0  0  0  0  0  0  0  0  0  0  0
   57.1620    1.3128    0.0370 C   0  0  0  0  0  0  0  0  0  0  0  0
   57.9131   -0.0211    0.1007 C   0  0  0  0  0  0  0  0  0  0  0  0
   57.2574   -1.0040    1.0779 C   0  0  0  0  0  0  0  0  0  0  0  0
   58.1829   -2.1005    1.3554 N   0  0  0  0  0  0  0  0  0  0  0  0
   59.0580   -2.1687    2.5271 C   0  0  0  0  0  0  0  0  0  0  0  0
   60.2834   -1.2517    2.4096 C   0  0  0  0  0  0  0  0  0  0  0  0
   61.1285   -1.2809    3.6873 C   0  0  0  0  0  0  0  0  0  0  0  0
   61.5894   -2.6443    3.9321 N   0  0  0  0  0  0  0  0  0  0  0  0
  1  2  1  0  0  0  0
  2  3  1  0  0  0  0
  3  4  1  0  0  0  0
  4  5  1  0  0  0  0
  5  6  1  0  0  0  0
  6  7  1  0  0  0  0
  7  8  1  0  0  0  0
  8  9  1  0  0  0  0
  9 10  1  0  0  0  0
 10 11  1  0  0  0  0
 11 12  1  0  0  0  0
 12 13  1  0  0  0  0
 13 14  1  0  0  0  0
M  END
>  <CHROM.1>
-65.72837007,-60.46851398,174.46951774,-72.70194711,178.43262581,-172.82994609
-165.62749394,97.16316929,-76.56274534,176.38998451,59.94489963,57.58539055
1.09106554,0.73632289,-2.80975467,0.93074829,-2.49470279

>  <Name>
ligand

>  <RI>
0

>  <Rbt.Current_Directory>
/home/itssahil/PROJECTS/Mol_Feturizer/New_Systems/rnas/4FAW

>  <Rbt.Executable>
rbdock ($Id: //depot/dev/client3/rdock/2013.1/src/exe/rbdock.cxx#4 $)

>  <Rbt.Library>
libRbt.so (2013.1, Build901 2013/11/27)

>  <Rbt.Parameter_File>
/export/apps/rDock/src/rDock_2013.1_src/data/scripts/dock_solv.prm

>  <Rbt.Receptor>
prm/pocket_docking_3.prm

>  <SCORE>
-6.59807

>  <SCORE.INTER>
1.8132

>  <SCORE.INTER.CONST>
1

>  <SCORE.INTER.POLAR>
0

>  <SCORE.INTER.ROT>
11

>  <SCORE.INTER.SOLV>
9.41982

>  <SCORE.INTER.VDW>
-12.8645

>  <SCORE.INTER.norm>
0.129514

>  <SCORE.INTRA>
-8.42644

>  <SCORE.INTRA.DIHEDRAL>
-16.7749

>  <SCORE.INTRA.DIHEDRAL.0>
19.1003

>  <SCORE.INTRA.POLAR>
0

>  <SCORE.INTRA.POLAR.0>
0

>  <SCORE.INTRA.REPUL>
0

>  <SCORE.INTRA.REPUL.0>
0

>  <SCORE.INTRA.SOLV>
0.998631

>  <SCORE.INTRA.SOLV.lig_0>
-47.5333

>  <SCORE.INTRA.VDW>
-0.538316

>  <SCORE.INTRA.VDW.0>
-0.287413

>  <SCORE.INTRA.norm>
-0.601889

>  <SCORE.RESTR>
0.0151722

>  <SCORE.RESTR.CAVITY>
0.0151722

>  <SCORE.RESTR.norm>
0.00108373

>  <SCORE.SYSTEM>
0

>  <SCORE.SYSTEM.CONST>
0

>  <SCORE.SYSTEM.DIHEDRAL>
0

>  <SCORE.SYSTEM.SOLV>
0

>  <SCORE.SYSTEM.norm>
0

>  <SCORE.heavy>
14

>  <SCORE.norm>
-0.471291

>  <RMSD>
3.638

$$$$
ligand
 OpenBabel11021811493D
libRbt.so/2013.1/901 2013/11/27
 14 13  0  0  0  0  0  0  0  0999 V2000
   54.0877    6.0760   -0.4773 N   0  0  0  0  0  0  0  0  0  0  0  0
   55.5081    6.0875   -0.7501 C   0  0  0  0  0  0  0  0  0  0  0  0
   55.7561    5.5127   -2.1599 C   0  0  0  0  0  0  0  0  0  0  0  0
   55.3882    4.0276   -2.3021 C   0  0  0  0  0  0  0  0  0  0  0  0
   56.1331    3.0978   -1.4394 N   0  0  0  0  0  0  0  0  0  0  0  0
   57.5889    2.9669   -1.4590 C   0  0  0  0  0  0  0  0  0  0  0  0
   58.1501    2.3510   -0.1815 C   0  0  0  0  0  0  0  0  0  0  0  0
   57.8080    0.8670   -0.0141 C   0  0  0  0  0  0  0  0  0  0  0  0
   58.3874    0.2859    1.2811 C   0  0  0  0  0  0  0  0  0  0  0  0
   58.2861   -1.1716    1.2455 N   0  0  0  0  0  0  0  0  0  0  0  0
   58.8497   -2.0656    2.2586 C   0  0  0  0  0  0  0  0  0  0  0  0
   60.3605   -1.8724    2.4495 C   0  0  0  0  0  0  0  0  0  0  0  0
   60.9241   -2.8543    3.4818 C   0  0  0  0  0  0  0  0  0  0  0  0
   60.3775   -2.5396    4.7985 N   0  0  0  0  0  0  0  0  0  0  0  0
  1  2  1  0  0  0  0
  2  3  1  0  0  0  0
  3  4  1  0  0  0  0
  4  5  1  0  0  0  0
  5  6  1  0  0  0  0
  6  7  1  0  0  0  0
  7  8  1  0  0  0  0
  8  9  1  0  0  0  0
  9 10  1  0  0  0  0
 10 11  1  0  0  0  0
 11 12  1  0  0  0  0
 12 13  1  0  0  0  0
 13 14  1  0  0  0  0
M  END
>  <CHROM.1>
-65.48159926,-61.23234221,-58.52826328,159.12894096,69.59783103,-179.91741546
-167.69081305,174.17332544,-56.79986553,-178.11644383,-66.48601101,57.68629372
1.48353652,0.48059943,2.68701728,1.02448658,-1.60893588

>  <Name>
ligand

>  <RI>
0

>  <Rbt.Current_Directory>
/home/itssahil/PROJECTS/Mol_Feturizer/New_Systems/rnas/4FAW

>  <Rbt.Executable>
rbdock ($Id: //depot/dev/client3/rdock/2013.1/src/exe/rbdock.cxx#4 $)

>  <Rbt.Library>
libRbt.so (2013.1, Build901 2013/11/27)

>  <Rbt.Parameter_File>
/export/apps/rDock/src/rDock_2013.1_src/data/scripts/dock_solv.prm

>  <Rbt.Receptor>
prm/pocket_docking_4.prm

>  <SCORE>
-6.45088

>  <SCORE.INTER>
1.97186

>  <SCORE.INTER.CONST>
1

>  <SCORE.INTER.POLAR>
0

>  <SCORE.INTER.ROT>
11

>  <SCORE.INTER.SOLV>
7.98924

>  <SCORE.INTER.VDW>
-12.2818

>  <SCORE.INTER.norm>
0.140847

>  <SCORE.INTRA>
-8.42274

>  <SCORE.INTRA.DIHEDRAL>
-17.5538

>  <SCORE.INTRA.DIHEDRAL.0>
19.1003

>  <SCORE.INTRA.POLAR>
0

>  <SCORE.INTRA.POLAR.0>
0

>  <SCORE.INTRA.REPUL>
0

>  <SCORE.INTRA.REPUL.0>
0

>  <SCORE.INTRA.SOLV>
1.22451

>  <SCORE.INTRA.SOLV.lig_0>
-47.5333

>  <SCORE.INTRA.VDW>
-0.258094

>  <SCORE.INTRA.VDW.0>
-0.287413

>  <SCORE.INTRA.norm>
-0.601625

>  <SCORE.RESTR>
0

>  <SCORE.RESTR.CAVITY>
0

>  <SCORE.RESTR.norm>
0

>  <SCORE.SYSTEM>
0

>  <SCORE.SYSTEM.CONST>
0

>  <SCORE.SYSTEM.DIHEDRAL>
0

>  <SCORE.SYSTEM.SOLV>
0

>  <SCORE.SYSTEM.norm>
0

>  <SCORE.heavy>
14

>  <SCORE.norm>
-0.460777

>  <RMSD>
3.652

$$$$
ligand
 OpenBabel11021811493D
libRbt.so/2013.1/901 2013/11/27
 14 13  0  0  0  0  0  0  0  0999 V2000
   55.0139    7.4450   -1.6854 N   0  0  0  0  0  0  0  0  0  0  0  0
   55.1744    6.7350   -2.9353 C   0  0  0  0  0  0  0  0  0  0  0  0
   55.2689    5.2224   -2.6483 C   0  0  0  0  0  0  0  0  0  0  0  0
   56.5183    4.8151   -1.8519 C   0  0  0  0  0  0  0  0  0  0  0  0
   56.6752    3.3746   -1.5988 N   0  0  0  0  0  0  0  0  0  0  0  0
   57.9721    2.7153   -1.4563 C   0  0  0  0  0  0  0  0  0  0  0  0
   57.8558    1.2543   -1.0343 C   0  0  0  0  0  0  0  0  0  0  0  0
   57.2017    1.0621    0.3378 C   0  0  0  0  0  0  0  0  0  0  0  0
   57.0869   -0.4189    0.7178 C   0  0  0  0  0  0  0  0  0  0  0  0
   58.4250   -0.9753    0.9063 N   0  0  0  0  0  0  0  0  0  0  0  0
   58.7112   -2.2173    1.6266 C   0  0  0  0  0  0  0  0  0  0  0  0
   59.2097   -1.9745    3.0580 C   0  0  0  0  0  0  0  0  0  0  0  0
   60.5507   -1.2333    3.0652 C   0  0  0  0  0  0  0  0  0  0  0  0
   60.9714   -1.0066    4.4446 N   0  0  0  0  0  0  0  0  0  0  0  0
  1  2  1  0  0  0  0
  2  3  1  0  0  0  0
  3  4  1  0  0  0  0
  4  5  1  0  0  0  0
  5  6  1  0  0  0  0
  6  7  1  0  0  0  0
  7  8  1  0  0  0  0
  8  9  1  0  0  0  0
  9 10  1  0  0  0  0
 10 11  1  0  0  0  0
 11 12  1  0  0  0  0
 12 13  1  0  0  0  0
 13 14  1  0  0  0  0
M  END
>  <CHROM.1>
-65.31629112,-177.79733670,150.16408950,173.09028564,-62.32284473,179.26941232
66.28249582,161.83669313,-100.45792014,-63.80808933,179.06591332,57.61674487
1.77111347,0.06738494,-2.34615881,0.94850679,-3.06739904

>  <Name>
ligand

>  <RI>
0

>  <Rbt.Current_Directory>
/home/itssahil/PROJECTS/Mol_Feturizer/New_Systems/rnas/4FAW

>  <Rbt.Executable>
rbdock ($Id: //depot/dev/client3/rdock/2013.1/src/exe/rbdock.cxx#4 $)

>  <Rbt.Library>
libRbt.so (2013.1, Build901 2013/11/27)

>  <Rbt.Parameter_File>
/export/apps/rDock/src/rDock_2013.1_src/data/scripts/dock_solv.prm

>  <Rbt.Receptor>
prm/pocket_docking_5.prm

>  <SCORE>
-8.8239

>  <SCORE.INTER>
0.311621

>  <SCORE.INTER.CONST>
1

>  <SCORE.INTER.POLAR>
0

>  <SCORE.INTER.ROT>
11

>  <SCORE.INTER.SOLV>
10.2677

>  <SCORE.INTER.VDW>
-14.1481

>  <SCORE.INTER.norm>
0.0222587

>  <SCORE.INTRA>
-9.13552

>  <SCORE.INTRA.DIHEDRAL>
-16.9496

>  <SCORE.INTRA.DIHEDRAL.0>
19.1003

>  <SCORE.INTRA.POLAR>
0

>  <SCORE.INTRA.POLAR.0>
0

>  <SCORE.INTRA.REPUL>
0

>  <SCORE.INTRA.REPUL.0>
0

>  <SCORE.INTRA.SOLV>
0.294318

>  <SCORE.INTRA.SOLV.lig_0>
-47.5333

>  <SCORE.INTRA.VDW>
-0.807878

>  <SCORE.INTRA.VDW.0>
-0.287413

>  <SCORE.INTRA.norm>
-0.652537

>  <SCORE.RESTR>
0

>  <SCORE.RESTR.CAVITY>
0

>  <SCORE.RESTR.norm>
0

>  <SCORE.SYSTEM>
0

>  <SCORE.SYSTEM.CONST>
0

>  <SCORE.SYSTEM.DIHEDRAL>
0

>  <SCORE.SYSTEM.SOLV>
0

>  <SCORE.SYSTEM.norm>
0

>  <SCORE.heavy>
14

>  <SCORE.norm>
-0.630279

>  <RMSD>
3.673

$$$$
ligand
 OpenBabel11021811493D
libRbt.so/2013.1/901 2013/11/27
 14 13  0  0  0  0  0  0  0  0999 V2000
   60.4615    0.1713    5.8907 N   0  0  0  0  0  0  0  0  0  0  0  0
   60.4039    1.5738    6.2399 C   0  0  0  0  0  0  0  0  0  0  0  0
   60.5997    2.4200    4.9652 C   0  0  0  0  0  0  0  0  0  0  0  0
   59.4677    2.2707    3.9369 C   0  0  0  0  0  0  0  0  0  0  0  0
   59.3650    0.9568    3.2836 N   0  0  0  0  0  0  0  0  0  0  0  0
   58.3469    0.6263    2.2880 C   0  0  0  0  0  0  0  0  0  0  0  0
   58.5338    1.3743    0.9720 C   0  0  0  0  0  0  0  0  0  0  0  0
   57.5865    0.9085   -0.1385 C   0  0  0  0  0  0  0  0  0  0  0  0
   57.8609    1.6246   -1.4662 C   0  0  0  0  0  0  0  0  0  0  0  0
   57.4645    3.0264   -1.3510 N   0  0  0  0  0  0  0  0  0  0  0  0
   56.1159    3.5300   -1.6176 C   0  0  0  0  0  0  0  0  0  0  0  0
   56.0771    5.0513   -1.8188 C   0  0  0  0  0  0  0  0  0  0  0  0
   54.6633    5.5349   -2.1576 C   0  0  0  0  0  0  0  0  0  0  0  0
   54.2600    4.9857   -3.4487 N   0  0  0  0  0  0  0  0  0  0  0  0
  1  2  1  0  0  0  0
  2  3  1  0  0  0  0
  3  4  1  0  0  0  0
  4  5  1  0  0  0  0
  5  6  1  0  0  0  0
  6  7  1  0  0  0  0
  7  8  1  0  0  0  0
  8  9  1  0  0  0  0
  9 10  1  0  0  0  0
 10 11  1  0  0  0  0
 11 12  1  0  0  0  0
 12 13  1  0  0  0  0
 13 14  1  0  0  0  0
M  END
>  <CHROM.1>
65.40212011,-67.95895692,179.53236300,68.59056027,172.61221867,-176.60775882
-69.57468747,-87.50858788,-163.22629986,177.43558795,-65.00423099,57.94336701
2.43253989,1.11271500,-0.26264048,1.02802400,-2.43193984

>  <Name>
ligand

>  <RI>
0

>  <Rbt.Current_Directory>
/home/itssahil/PROJECTS/Mol_Feturizer/New_Systems/rnas/4FAW

>  <Rbt.Executable>
rbdock ($Id: //depot/dev/client3/rdock/2013.1/src/exe/rbdock.cxx#4 $)

>  <Rbt.Library>
libRbt.so (2013.1, Build901 2013/11/27)

>  <Rbt.Parameter_File>
/export/apps/rDock/src/rDock_2013.1_src/data/scripts/dock_solv.prm

>  <Rbt.Receptor>
prm/pocket_docking_4.prm

>  <SCORE>
-6.25748

>  <SCORE.INTER>
1.68033

>  <SCORE.INTER.CONST>
1

>  <SCORE.INTER.POLAR>
0

>  <SCORE.INTER.ROT>
11

>  <SCORE.INTER.SOLV>
6.53875

>  <SCORE.INTER.VDW>
-11.9927

>  <SCORE.INTER.norm>
0.120024

>  <SCORE.INTRA>
-7.93781

>  <SCORE.INTRA.DIHEDRAL>
-17.245

>  <SCORE.INTRA.DIHEDRAL.0>
19.1003

>  <SCORE.INTRA.POLAR>
0

>  <SCORE.INTRA.POLAR.0>
0

>  <SCORE.INTRA.REPUL>
0

>  <SCORE.INTRA.REPUL.0>
0

>  <SCORE.INTRA.SOLV>
2.45329

>  <SCORE.INTRA.SOLV.lig_0>
-47.5333

>  <SCORE.INTRA.VDW>
-0.541969

>  <SCORE.INTRA.VDW.0>
-0.287413

>  <SCORE.INTRA.norm>
-0.566987

>  <SCORE.RESTR>
0

>  <SCORE.RESTR.CAVITY>
0

>  <SCORE.RESTR.norm>
0

>  <SCORE.SYSTEM>
0

>  <SCORE.SYSTEM.CONST>
0

>  <SCORE.SYSTEM.DIHEDRAL>
0

>  <SCORE.SYSTEM.SOLV>
0

>  <SCORE.SYSTEM.norm>
0

>  <SCORE.heavy>
14

>  <SCORE.norm>
-0.446963

>  <RMSD>
3.689

$$$$
ligand
 OpenBabel11021811493D
libRbt.so/2013.1/901 2013/11/27
 14 13  0  0  0  0  0  0  0  0999 V2000
   55.1120    7.0041   -0.1564 N   0  0  0  0  0  0  0  0  0  0  0  0
   54.4295    5.7649    0.1449 C   0  0  0  0  0  0  0  0  0  0  0  0
   54.0696    5.0527   -1.1752 C   0  0  0  0  0  0  0  0  0  0  0  0
   55.2812    4.4762   -1.9239 C   0  0  0  0  0  0  0  0  0  0  0  0
   56.0678    3.4717   -1.1919 N   0  0  0  0  0  0  0  0  0  0  0  0
   57.4105    3.0507   -1.5878 C   0  0  0  0  0  0  0  0  0  0  0  0
   58.2734    2.6189   -0.4066 C   0  0  0  0  0  0  0  0  0  0  0  0
   57.7922    1.3291    0.2659 C   0  0  0  0  0  0  0  0  0  0  0  0
   58.6427    0.9665    1.4890 C   0  0  0  0  0  0  0  0  0  0  0  0
   58.2050   -0.3237    2.0176 N   0  0  0  0  0  0  0  0  0  0  0  0
   58.4967   -1.6159    1.3941 C   0  0  0  0  0  0  0  0  0  0  0  0
   59.1648   -2.6054    2.3588 C   0  0  0  0  0  0  0  0  0  0  0  0
   60.5358   -2.0991    2.8189 C   0  0  0  0  0  0  0  0  0  0  0  0
   61.1561   -3.0986    3.6835 N   0  0  0  0  0  0  0  0  0  0  0  0
  1  2  1  0  0  0  0
  2  3  1  0  0  0  0
  3  4  1  0  0  0  0
  4  5  1  0  0  0  0
  5  6  1  0  0  0  0
  6  7  1  0  0  0  0
  7  8  1  0  0  0  0
  8  9  1  0  0  0  0
  9 10  1  0  0  0  0
 10 11  1  0  0  0  0
 11 12  1  0  0  0  0
 12 13  1  0  0  0  0
 13 14  1  0  0  0  0
M  END
>  <CHROM.1>
70.72148881,59.91721085,-164.72882280,150.12893408,67.57278589,-177.17587999
-175.38602436,74.51877543,125.98928630,-63.49661958,-177.43907689,57.47403256
1.71369487,0.55198091,2.78075305,1.00272266,-1.59419562

>  <Name>
ligand

>  <RI>
0

>  <Rbt.Current_Directory>
/home/itssahil/PROJECTS/Mol_Feturizer/New_Systems/rnas/4FAW

>  <Rbt.Executable>
rbdock ($Id: //depot/dev/client3/rdock/2013.1/src/exe/rbdock.cxx#4 $)

>  <Rbt.Library>
libRbt.so (2013.1, Build901 2013/11/27)

>  <Rbt.Parameter_File>
/export/apps/rDock/src/rDock_2013.1_src/data/scripts/dock_solv.prm

>  <Rbt.Receptor>
prm/pocket_docking_4.prm

>  <SCORE>
-5.72309

>  <SCORE.INTER>
2.81676

>  <SCORE.INTER.CONST>
1

>  <SCORE.INTER.POLAR>
0

>  <SCORE.INTER.ROT>
11

>  <SCORE.INTER.SOLV>
6.75693

>  <SCORE.INTER.VDW>
-11.3078

>  <SCORE.INTER.norm>
0.201197

>  <SCORE.INTRA>
-8.54626

>  <SCORE.INTRA.DIHEDRAL>
-16.1645

>  <SCORE.INTRA.DIHEDRAL.0>
19.1003

>  <SCORE.INTRA.POLAR>
0

>  <SCORE.INTRA.POLAR.0>
0

>  <SCORE.INTRA.REPUL>
0

>  <SCORE.INTRA.REPUL.0>
0

>  <SCORE.INTRA.SOLV>
0.720732

>  <SCORE.INTRA.SOLV.lig_0>
-47.5333

>  <SCORE.INTRA.VDW>
-0.824393

>  <SCORE.INTRA.VDW.0>
-0.287413

>  <SCORE.INTRA.norm>
-0.610447

>  <SCORE.RESTR>
0.00641416

>  <SCORE.RESTR.CAVITY>
0.00641416

>  <SCORE.RESTR.norm>
0.000458154

>  <SCORE.SYSTEM>
0

>  <SCORE.SYSTEM.CONST>
0

>  <SCORE.SYSTEM.DIHEDRAL>
0

>  <SCORE.SYSTEM.SOLV>
0

>  <SCORE.SYSTEM.norm>
0

>  <SCORE.heavy>
14

>  <SCORE.norm>
-0.408792

>  <RMSD>
3.704

$$$$
ligand
 OpenBabel11021811493D
libRbt.so/2013.1/901 2013/11/27
 14 13  0  0  0  0  0  0  0  0999 V2000
   61.2656   -1.4310    4.8601 N   0  0  0  0  0  0  0  0  0  0  0  0
   60.8923   -1.6061    3.4737 C   0  0  0  0  0  0  0  0  0  0  0  0
   59.5356   -2.3368    3.4045 C   0  0  0  0  0  0  0  0  0  0  0  0
   59.0012   -2.5269    1.9764 C   0  0  0  0  0  0  0  0  0  0  0  0
   58.8108   -1.2956    1.1946 N   0  0  0  0  0  0  0  0  0  0  0  0
   57.6648   -1.0641    0.3170 C   0  0  0  0  0  0  0  0  0  0  0  0
   57.7907    0.2147   -0.5046 C   0  0  0  0  0  0  0  0  0  0  0  0
   58.0002    1.4721    0.3455 C   0  0  0  0  0  0  0  0  0  0  0  0
   58.0250    2.7456   -0.5080 C   0  0  0  0  0  0  0  0  0  0  0  0
   56.7056    2.9576   -1.0996 N   0  0  0  0  0  0  0  0  0  0  0  0
   55.5725    3.5656   -0.3998 C   0  0  0  0  0  0  0  0  0  0  0  0
   54.8707    2.5912    0.5565 C   0  0  0  0  0  0  0  0  0  0  0  0
   53.6900    3.2593    1.2687 C   0  0  0  0  0  0  0  0  0  0  0  0
   52.6322    3.5329    0.3004 N   0  0  0  0  0  0  0  0  0  0  0  0
  1  2  1  0  0  0  0
  2  3  1  0  0  0  0
  3  4  1  0  0  0  0
  4  5  1  0  0  0  0
  5  6  1  0  0  0  0
  6  7  1  0  0  0  0
  7  8  1  0  0  0  0
  8  9  1  0  0  0  0
  9 10  1  0  0  0  0
 10 11  1  0  0  0  0
 11 12  1  0  0  0  0
 12 13  1  0  0  0  0
 13 14  1  0  0  0  0
M  END
>  <CHROM.1>
177.44670941,-58.01964858,-139.48195340,-173.04734721,-56.36225249,-176.05679795
66.18720719,81.05400191,-78.54525578,-179.88931121,68.48911601,57.46127590
0.71979815,1.08458539,0.68393525,-0.51627637,2.05033152

>  <Name>
ligand

>  <RI>
0

>  <Rbt.Current_Directory>
/home/itssahil/PROJECTS/Mol_Feturizer/New_Systems/rnas/4FAW

>  <Rbt.Executable>
rbdock ($Id: //depot/dev/client3/rdock/2013.1/src/exe/rbdock.cxx#4 $)

>  <Rbt.Library>
libRbt.so (2013.1, Build901 2013/11/27)

>  <Rbt.Parameter_File>
/export/apps/rDock/src/rDock_2013.1_src/data/scripts/dock_solv.prm

>  <Rbt.Receptor>
prm/pocket_docking_3.prm

>  <SCORE>
-6.58971

>  <SCORE.INTER>
2.37583

>  <SCORE.INTER.CONST>
1

>  <SCORE.INTER.POLAR>
0

>  <SCORE.INTER.ROT>
11

>  <SCORE.INTER.SOLV>
8.65863

>  <SCORE.INTER.VDW>
-12.2357

>  <SCORE.INTER.norm>
0.169702

>  <SCORE.INTRA>
-8.96554

>  <SCORE.INTRA.DIHEDRAL>
-16.9904

>  <SCORE.INTRA.DIHEDRAL.0>
19.1003

>  <SCORE.INTRA.POLAR>
0

>  <SCORE.INTRA.POLAR.0>
0

>  <SCORE.INTRA.REPUL>
0

>  <SCORE.INTRA.REPUL.0>
0

>  <SCORE.INTRA.SOLV>
0.333359

>  <SCORE.INTRA.SOLV.lig_0>
-47.5333

>  <SCORE.INTRA.VDW>
-0.637007

>  <SCORE.INTRA.VDW.0>
-0.287413

>  <SCORE.INTRA.norm>
-0.640396

>  <SCORE.RESTR>
0

>  <SCORE.RESTR.CAVITY>
0

>  <SCORE.RESTR.norm>
0

>  <SCORE.SYSTEM>
0

>  <SCORE.SYSTEM.CONST>
0

>  <SCORE.SYSTEM.DIHEDRAL>
0

>  <SCORE.SYSTEM.SOLV>
0

>  <SCORE.SYSTEM.norm>
0

>  <SCORE.heavy>
14

>  <SCORE.norm>
-0.470694

>  <RMSD>
3.715

$$$$
ligand
 OpenBabel11021811493D
libRbt.so/2013.1/901 2013/11/27
 14 13  0  0  0  0  0  0  0  0999 V2000
   61.7745   -3.1653    3.7493 N   0  0  0  0  0  0  0  0  0  0  0  0
   60.5257   -2.7776    3.1309 C   0  0  0  0  0  0  0  0  0  0  0  0
   60.5186   -1.2492    2.9224 C   0  0  0  0  0  0  0  0  0  0  0  0
   59.2203   -0.7099    2.3021 C   0  0  0  0  0  0  0  0  0  0  0  0
   58.8372   -1.2955    1.0083 N   0  0  0  0  0  0  0  0  0  0  0  0
   57.5976   -0.9659    0.3071 C   0  0  0  0  0  0  0  0  0  0  0  0
   57.7511    0.2047   -0.6585 C   0  0  0  0  0  0  0  0  0  0  0  0
   57.9914    1.5478    0.0387 C   0  0  0  0  0  0  0  0  0  0  0  0
   58.1176    2.7013   -0.9634 C   0  0  0  0  0  0  0  0  0  0  0  0
   56.8902    2.7948   -1.7510 N   0  0  0  0  0  0  0  0  0  0  0  0
   55.6889    3.5175   -1.3291 C   0  0  0  0  0  0  0  0  0  0  0  0
   55.2281    4.5591   -2.3583 C   0  0  0  0  0  0  0  0  0  0  0  0
   56.2978    5.6323   -2.5854 C   0  0  0  0  0  0  0  0  0  0  0  0
   55.8298    6.5763   -3.5959 N   0  0  0  0  0  0  0  0  0  0  0  0
  1  2  1  0  0  0  0
  2  3  1  0  0  0  0
  3  4  1  0  0  0  0
  4  5  1  0  0  0  0
  5  6  1  0  0  0  0
  6  7  1  0  0  0  0
  7  8  1  0  0  0  0
  8  9  1  0  0  0  0
  9 10  1  0  0  0  0
 10 11  1  0  0  0  0
 11 12  1  0  0  0  0
 12 13  1  0  0  0  0
 13 14  1  0  0  0  0
M  END
>  <CHROM.1>
-178.48935666,-56.72772274,176.25696340,90.63570950,-68.40231094,-179.07497273
59.41457042,84.70761337,125.12988458,-61.33915416,178.45809346,58.01907228
1.24074791,0.01558489,-1.00331403,-0.60628706,-0.29116685

>  <Name>
ligand

>  <RI>
0

>  <Rbt.Current_Directory>
/home/itssahil/PROJECTS/Mol_Feturizer/New_Systems/rnas/4FAW

>  <Rbt.Executable>
rbdock ($Id: //depot/dev/client3/rdock/2013.1/src/exe/rbdock.cxx#4 $)

>  <Rbt.Library>
libRbt.so (2013.1, Build901 2013/11/27)

>  <Rbt.Parameter_File>
/export/apps/rDock/src/rDock_2013.1_src/data/scripts/dock_solv.prm

>  <Rbt.Receptor>
prm/pocket_docking_5.prm

>  <SCORE>
-8.87626

>  <SCORE.INTER>
0.104079

>  <SCORE.INTER.CONST>
1

>  <SCORE.INTER.POLAR>
0

>  <SCORE.INTER.ROT>
11

>  <SCORE.INTER.SOLV>
10.4853

>  <SCORE.INTER.VDW>
-14.359

>  <SCORE.INTER.norm>
0.00743424

>  <SCORE.INTRA>
-8.98935

>  <SCORE.INTRA.DIHEDRAL>
-16.522

>  <SCORE.INTRA.DIHEDRAL.0>
19.1003

>  <SCORE.INTRA.POLAR>
0

>  <SCORE.INTRA.POLAR.0>
0

>  <SCORE.INTRA.REPUL>
0

>  <SCORE.INTRA.REPUL.0>
0

>  <SCORE.INTRA.SOLV>
-0.0201527

>  <SCORE.INTRA.SOLV.lig_0>
-47.5333

>  <SCORE.INTRA.VDW>
-0.718259

>  <SCORE.INTRA.VDW.0>
-0.287413

>  <SCORE.INTRA.norm>
-0.642096

>  <SCORE.RESTR>
0.00900468

>  <SCORE.RESTR.CAVITY>
0.00900468

>  <SCORE.RESTR.norm>
0.000643192

>  <SCORE.SYSTEM>
0

>  <SCORE.SYSTEM.CONST>
0

>  <SCORE.SYSTEM.DIHEDRAL>
0

>  <SCORE.SYSTEM.SOLV>
0

>  <SCORE.SYSTEM.norm>
0

>  <SCORE.heavy>
14

>  <SCORE.norm>
-0.634019

>  <RMSD>
3.747

$$$$
ligand
 OpenBabel11021811493D
libRbt.so/2013.1/901 2013/11/27
 14 13  0  0  0  0  0  0  0  0999 V2000
   61.1498   -2.5421    3.8660 N   0  0  0  0  0  0  0  0  0  0  0  0
   60.9925   -1.1125    4.0193 C   0  0  0  0  0  0  0  0  0  0  0  0
   60.1647   -0.5661    2.8379 C   0  0  0  0  0  0  0  0  0  0  0  0
   58.7456   -1.1486    2.7479 C   0  0  0  0  0  0  0  0  0  0  0  0
   57.8979   -0.6071    1.6747 N   0  0  0  0  0  0  0  0  0  0  0  0
   58.1948   -0.7653    0.2522 C   0  0  0  0  0  0  0  0  0  0  0  0
   57.6825    0.3935   -0.5971 C   0  0  0  0  0  0  0  0  0  0  0  0
   58.1454    1.7679   -0.1030 C   0  0  0  0  0  0  0  0  0  0  0  0
   57.8008    2.8826   -1.0978 C   0  0  0  0  0  0  0  0  0  0  0  0
   56.3501    3.0495   -1.1542 N   0  0  0  0  0  0  0  0  0  0  0  0
   55.6690    4.1447   -1.8471 C   0  0  0  0  0  0  0  0  0  0  0  0
   55.7311    5.4690   -1.0735 C   0  0  0  0  0  0  0  0  0  0  0  0
   54.9504    6.5741   -1.7925 C   0  0  0  0  0  0  0  0  0  0  0  0
   55.0149    7.8027   -1.0066 N   0  0  0  0  0  0  0  0  0  0  0  0
  1  2  1  0  0  0  0
  2  3  1  0  0  0  0
  3  4  1  0  0  0  0
  4  5  1  0  0  0  0
  5  6  1  0  0  0  0
  6  7  1  0  0  0  0
  7  8  1  0  0  0  0
  8  9  1  0  0  0  0
  9 10  1  0  0  0  0
 10 11  1  0  0  0  0
 11 12  1  0  0  0  0
 12 13  1  0  0  0  0
 13 14  1  0  0  0  0
M  END
>  <CHROM.1>
61.39180669,177.14299858,63.86574666,-149.86042981,53.09631797,170.95579308
67.54554341,170.79371365,-76.26375329,-177.16733485,178.80946858,57.74931628
1.81013177,0.48030116,-0.53936123,-0.98928410,0.40068263

>  <Name>
ligand

>  <RI>
0

>  <Rbt.Current_Directory>
/home/itssahil/PROJECTS/Mol_Feturizer/New_Systems/rnas/4FAW

>  <Rbt.Executable>
rbdock ($Id: //depot/dev/client3/rdock/2013.1/src/exe/rbdock.cxx#4 $)

>  <Rbt.Library>
libRbt.so (2013.1, Build901 2013/11/27)

>  <Rbt.Parameter_File>
/export/apps/rDock/src/rDock_2013.1_src/data/scripts/dock_solv.prm

>  <Rbt.Receptor>
prm/pocket_docking_5.prm

>  <SCORE>
-7.22494

>  <SCORE.INTER>
1.93247

>  <SCORE.INTER.CONST>
1

>  <SCORE.INTER.POLAR>
0

>  <SCORE.INTER.ROT>
11

>  <SCORE.INTER.SOLV>
7.16832

>  <SCORE.INTER.VDW>
-12.0345

>  <SCORE.INTER.norm>
0.138034

>  <SCORE.INTRA>
-9.15741

>  <SCORE.INTRA.DIHEDRAL>
-17.4091

>  <SCORE.INTRA.DIHEDRAL.0>
19.1003

>  <SCORE.INTRA.POLAR>
0

>  <SCORE.INTRA.POLAR.0>
0

>  <SCORE.INTRA.REPUL>
0

>  <SCORE.INTRA.REPUL.0>
0

>  <SCORE.INTRA.SOLV>
0.0190482

>  <SCORE.INTRA.SOLV.lig_0>
-47.5333

>  <SCORE.INTRA.VDW>
-0.462396

>  <SCORE.INTRA.VDW.0>
-0.287413

>  <SCORE.INTRA.norm>
-0.654101

>  <SCORE.RESTR>
0

>  <SCORE.RESTR.CAVITY>
0

>  <SCORE.RESTR.norm>
0

>  <SCORE.SYSTEM>
0

>  <SCORE.SYSTEM.CONST>
0

>  <SCORE.SYSTEM.DIHEDRAL>
0

>  <SCORE.SYSTEM.SOLV>
0

>  <SCORE.SYSTEM.norm>
0

>  <SCORE.heavy>
14

>  <SCORE.norm>
-0.516067

>  <RMSD>
3.748

$$$$
ligand
 OpenBabel11021811493D
libRbt.so/2013.1/901 2013/11/27
 14 13  0  0  0  0  0  0  0  0999 V2000
   54.9990    6.4900   -4.2774 N   0  0  0  0  0  0  0  0  0  0  0  0
   55.0264    5.5138   -3.2104 C   0  0  0  0  0  0  0  0  0  0  0  0
   56.2836    5.7449   -2.3468 C   0  0  0  0  0  0  0  0  0  0  0  0
   56.3943    4.7999   -1.1403 C   0  0  0  0  0  0  0  0  0  0  0  0
   56.5736    3.3748   -1.4572 N   0  0  0  0  0  0  0  0  0  0  0  0
   57.8724    2.7668   -1.7409 C   0  0  0  0  0  0  0  0  0  0  0  0
   57.8856    1.2575   -1.5219 C   0  0  0  0  0  0  0  0  0  0  0  0
   57.6093    0.8452   -0.0724 C   0  0  0  0  0  0  0  0  0  0  0  0
   57.7063   -0.6725    0.1222 C   0  0  0  0  0  0  0  0  0  0  0  0
   57.3812   -1.0047    1.5077 N   0  0  0  0  0  0  0  0  0  0  0  0
   58.1938   -0.6210    2.6636 C   0  0  0  0  0  0  0  0  0  0  0  0
   57.3601   -0.4153    3.9359 C   0  0  0  0  0  0  0  0  0  0  0  0
   56.3370    0.7113    3.7582 C   0  0  0  0  0  0  0  0  0  0  0  0
   55.5905    0.8881    5.0003 N   0  0  0  0  0  0  0  0  0  0  0  0
  1  2  1  0  0  0  0
  2  3  1  0  0  0  0
  3  4  1  0  0  0  0
  4  5  1  0  0  0  0
  5  6  1  0  0  0  0
  6  7  1  0  0  0  0
  7  8  1  0  0  0  0
  8  9  1  0  0  0  0
  9 10  1  0  0  0  0
 10 11  1  0  0  0  0
 11 12  1  0  0  0  0
 12 13  1  0  0  0  0
 13 14  1  0  0  0  0
M  END
>  <CHROM.1>
177.63058118,65.33642947,84.38298906,158.32493818,-62.55397676,-176.89444774
-177.75964430,-66.41508556,149.77108630,-61.36320799,-178.78108648,56.80122273
2.11978765,0.08714666,1.85000915,0.97990490,-1.06100874

>  <Name>
ligand

>  <RI>
0

>  <Rbt.Current_Directory>
/home/itssahil/PROJECTS/Mol_Feturizer/New_Systems/rnas/4FAW

>  <Rbt.Executable>
rbdock ($Id: //depot/dev/client3/rdock/2013.1/src/exe/rbdock.cxx#4 $)

>  <Rbt.Library>
libRbt.so (2013.1, Build901 2013/11/27)

>  <Rbt.Parameter_File>
/export/apps/rDock/src/rDock_2013.1_src/data/scripts/dock_solv.prm

>  <Rbt.Receptor>
prm/pocket_docking_6.prm

>  <SCORE>
-8.81714

>  <SCORE.INTER>
0.832997

>  <SCORE.INTER.CONST>
1

>  <SCORE.INTER.POLAR>
0

>  <SCORE.INTER.ROT>
11

>  <SCORE.INTER.SOLV>
8.61611

>  <SCORE.INTER.VDW>
-13.25

>  <SCORE.INTER.norm>
0.0594998

>  <SCORE.INTRA>
-9.65013

>  <SCORE.INTRA.DIHEDRAL>
-17.462

>  <SCORE.INTRA.DIHEDRAL.0>
19.1003

>  <SCORE.INTRA.POLAR>
0

>  <SCORE.INTRA.POLAR.0>
0

>  <SCORE.INTRA.REPUL>
0

>  <SCORE.INTRA.REPUL.0>
0

>  <SCORE.INTRA.SOLV>
-0.470394

>  <SCORE.INTRA.SOLV.lig_0>
-47.5333

>  <SCORE.INTRA.VDW>
-0.683937

>  <SCORE.INTRA.VDW.0>
-0.287413

>  <SCORE.INTRA.norm>
-0.689295

>  <SCORE.RESTR>
0

>  <SCORE.RESTR.CAVITY>
0

>  <SCORE.RESTR.norm>
0

>  <SCORE.SYSTEM>
0

>  <SCORE.SYSTEM.CONST>
0

>  <SCORE.SYSTEM.DIHEDRAL>
0

>  <SCORE.SYSTEM.SOLV>
0

>  <SCORE.SYSTEM.norm>
0

>  <SCORE.heavy>
14

>  <SCORE.norm>
-0.629795

>  <RMSD>
3.752

$$$$
ligand
 OpenBabel11021811493D
libRbt.so/2013.1/901 2013/11/27
 14 13  0  0  0  0  0  0  0  0999 V2000
   50.4678    2.9511   -5.5581 N   0  0  0  0  0  0  0  0  0  0  0  0
   49.5257    2.4288   -4.5928 C   0  0  0  0  0  0  0  0  0  0  0  0
   49.3367    0.9176   -4.8383 C   0  0  0  0  0  0  0  0  0  0  0  0
   50.6206    0.0916   -4.6637 C   0  0  0  0  0  0  0  0  0  0  0  0
   50.9962   -0.2229   -3.2767 N   0  0  0  0  0  0  0  0  0  0  0  0
   51.6354    0.7342   -2.3754 C   0  0  0  0  0  0  0  0  0  0  0  0
   51.4386    0.3903   -0.9025 C   0  0  0  0  0  0  0  0  0  0  0  0
   51.7945    1.5378    0.0484 C   0  0  0  0  0  0  0  0  0  0  0  0
   53.3049    1.7965    0.0974 C   0  0  0  0  0  0  0  0  0  0  0  0
   53.9735    0.6470    0.7035 N   0  0  0  0  0  0  0  0  0  0  0  0
   54.4903    0.6173    2.0730 C   0  0  0  0  0  0  0  0  0  0  0  0
   55.5044   -0.5120    2.3026 C   0  0  0  0  0  0  0  0  0  0  0  0
   56.7862   -0.2856    1.4942 C   0  0  0  0  0  0  0  0  0  0  0  0
   57.4922    0.8783    2.0216 N   0  0  0  0  0  0  0  0  0  0  0  0
  1  2  1  0  0  0  0
  2  3  1  0  0  0  0
  3  4  1  0  0  0  0
  4  5  1  0  0  0  0
  5  6  1  0  0  0  0
  6  7  1  0  0  0  0
  7  8  1  0  0  0  0
  8  9  1  0  0  0  0
  9 10  1  0  0  0  0
 10 11  1  0  0  0  0
 11 12  1  0  0  0  0
 12 13  1  0  0  0  0
 13 14  1  0  0  0  0
M  END
>  <CHROM.1>
61.85838223,79.58111527,-77.88852410,157.70127948,-165.89751147,-70.43199664
-66.44377800,-103.89556766,-162.12843303,66.44505098,67.63958614,52.66884416
0.85491002,-1.24751167,-2.74423986,0.76873056,2.76591001

>  <Name>
ligand

>  <RI>
0

>  <Rbt.Current_Directory>
/home/itssahil/PROJECTS/Mol_Feturizer/New_Systems/rnas/4FAW

>  <Rbt.Executable>
rbdock ($Id: //depot/dev/client3/rdock/2013.1/src/exe/rbdock.cxx#4 $)

>  <Rbt.Library>
libRbt.so (2013.1, Build901 2013/11/27)

>  <Rbt.Parameter_File>
/export/apps/rDock/src/rDock_2013.1_src/data/scripts/dock_solv.prm

>  <Rbt.Receptor>
prm/pocket_docking_4.prm

>  <SCORE>
-6.00414

>  <SCORE.INTER>
0.267098

>  <SCORE.INTER.CONST>
1

>  <SCORE.INTER.POLAR>
0

>  <SCORE.INTER.ROT>
11

>  <SCORE.INTER.SOLV>
9.29238

>  <SCORE.INTER.VDW>
-13.8527

>  <SCORE.INTER.norm>
0.0190784

>  <SCORE.INTRA>
-6.2717

>  <SCORE.INTRA.DIHEDRAL>
-14.2139

>  <SCORE.INTRA.DIHEDRAL.0>
19.1003

>  <SCORE.INTRA.POLAR>
0

>  <SCORE.INTRA.POLAR.0>
0

>  <SCORE.INTRA.REPUL>
0

>  <SCORE.INTRA.REPUL.0>
0

>  <SCORE.INTRA.SOLV>
2.62958

>  <SCORE.INTRA.SOLV.lig_0>
-47.5333

>  <SCORE.INTRA.VDW>
-0.47952

>  <SCORE.INTRA.VDW.0>
-0.287413

>  <SCORE.INTRA.norm>
-0.447978

>  <SCORE.RESTR>
0.000462423

>  <SCORE.RESTR.CAVITY>
0.000462423

>  <SCORE.RESTR.norm>
3.30302e-05

>  <SCORE.SYSTEM>
0

>  <SCORE.SYSTEM.CONST>
0

>  <SCORE.SYSTEM.DIHEDRAL>
0

>  <SCORE.SYSTEM.SOLV>
0

>  <SCORE.SYSTEM.norm>
0

>  <SCORE.heavy>
14

>  <SCORE.norm>
-0.428867

>  <RMSD>
3.766

$$$$
ligand
 OpenBabel11021811493D
libRbt.so/2013.1/901 2013/11/27
 14 13  0  0  0  0  0  0  0  0999 V2000
   57.9264   -0.1247    1.1913 N   0  0  0  0  0  0  0  0  0  0  0  0
   57.7607    1.2090    0.6567 C   0  0  0  0  0  0  0  0  0  0  0  0
   57.8472    1.1505   -0.8823 C   0  0  0  0  0  0  0  0  0  0  0  0
   57.6743    2.5140   -1.5694 C   0  0  0  0  0  0  0  0  0  0  0  0
   56.3677    3.1636   -1.3840 N   0  0  0  0  0  0  0  0  0  0  0  0
   55.9547    4.3685   -2.1013 C   0  0  0  0  0  0  0  0  0  0  0  0
   54.4398    4.5285   -2.1770 C   0  0  0  0  0  0  0  0  0  0  0  0
   53.7400    3.3942   -2.9328 C   0  0  0  0  0  0  0  0  0  0  0  0
   52.2234    3.6054   -3.0111 C   0  0  0  0  0  0  0  0  0  0  0  0
   51.6200    2.5072   -3.7631 N   0  0  0  0  0  0  0  0  0  0  0  0
   50.2035    2.4320   -4.1255 C   0  0  0  0  0  0  0  0  0  0  0  0
   49.8325    1.1076   -4.8072 C   0  0  0  0  0  0  0  0  0  0  0  0
   50.5672    0.9402   -6.1413 C   0  0  0  0  0  0  0  0  0  0  0  0
   50.0861   -0.2643   -6.8114 N   0  0  0  0  0  0  0  0  0  0  0  0
  1  2  1  0  0  0  0
  2  3  1  0  0  0  0
  3  4  1  0  0  0  0
  4  5  1  0  0  0  0
  5  6  1  0  0  0  0
  6  7  1  0  0  0  0
  7  8  1  0  0  0  0
  8  9  1  0  0  0  0
  9 10  1  0  0  0  0
 10 11  1  0  0  0  0
 11 12  1  0  0  0  0
 12 13  1  0  0  0  0
 13 14  1  0  0  0  0
M  END
>  <CHROM.1>
179.56955710,-63.32857322,-171.51739084,157.03169014,-61.99330161,-178.86358305
178.92526510,-175.04237204,-174.98722501,-63.37766229,-174.49246714,54.01738905
2.18119297,-2.70416610,-0.07536414,0.60668504,-3.09219037

>  <Name>
ligand

>  <RI>
0

>  <Rbt.Current_Directory>
/home/itssahil/PROJECTS/Mol_Feturizer/New_Systems/rnas/4FAW

>  <Rbt.Executable>
rbdock ($Id: //depot/dev/client3/rdock/2013.1/src/exe/rbdock.cxx#4 $)

>  <Rbt.Library>
libRbt.so (2013.1, Build901 2013/11/27)

>  <Rbt.Parameter_File>
/export/apps/rDock/src/rDock_2013.1_src/data/scripts/dock_solv.prm

>  <Rbt.Receptor>
prm/pocket_docking_5.prm

>  <SCORE>
-6.66975

>  <SCORE.INTER>
3.77575

>  <SCORE.INTER.CONST>
1

>  <SCORE.INTER.POLAR>
0

>  <SCORE.INTER.ROT>
11

>  <SCORE.INTER.SOLV>
5.81891

>  <SCORE.INTER.VDW>
-10.3558

>  <SCORE.INTER.norm>
0.269697

>  <SCORE.INTRA>
-10.4455

>  <SCORE.INTRA.DIHEDRAL>
-18.3931

>  <SCORE.INTRA.DIHEDRAL.0>
19.1003

>  <SCORE.INTRA.POLAR>
0

>  <SCORE.INTRA.POLAR.0>
0

>  <SCORE.INTRA.REPUL>
0

>  <SCORE.INTRA.REPUL.0>
0

>  <SCORE.INTRA.SOLV>
-0.517398

>  <SCORE.INTRA.SOLV.lig_0>
-47.5333

>  <SCORE.INTRA.VDW>
-0.990255

>  <SCORE.INTRA.VDW.0>
-0.287413

>  <SCORE.INTRA.norm>
-0.746107

>  <SCORE.RESTR>
0

>  <SCORE.RESTR.CAVITY>
0

>  <SCORE.RESTR.norm>
0

>  <SCORE.SYSTEM>
0

>  <SCORE.SYSTEM.CONST>
0

>  <SCORE.SYSTEM.DIHEDRAL>
0

>  <SCORE.SYSTEM.SOLV>
0

>  <SCORE.SYSTEM.norm>
0

>  <SCORE.heavy>
14

>  <SCORE.norm>
-0.47641

>  <RMSD>
3.774

$$$$
ligand
 OpenBabel11021811493D
libRbt.so/2013.1/901 2013/11/27
 14 13  0  0  0  0  0  0  0  0999 V2000
   53.4522    5.2565   -0.0000 N   0  0  0  0  0  0  0  0  0  0  0  0
   54.7266    5.5432    0.6210 C   0  0  0  0  0  0  0  0  0  0  0  0
   55.6330    4.2998    0.5111 C   0  0  0  0  0  0  0  0  0  0  0  0
   56.0878    3.9837   -0.9222 C   0  0  0  0  0  0  0  0  0  0  0  0
   56.8639    2.7455   -1.0895 N   0  0  0  0  0  0  0  0  0  0  0  0
   58.1240    2.4813   -0.3971 C   0  0  0  0  0  0  0  0  0  0  0  0
   57.9877    1.4487    0.7171 C   0  0  0  0  0  0  0  0  0  0  0  0
   57.7104    0.0303    0.2087 C   0  0  0  0  0  0  0  0  0  0  0  0
   57.4006   -0.9408    1.3540 C   0  0  0  0  0  0  0  0  0  0  0  0
   58.4619   -0.8623    2.3556 N   0  0  0  0  0  0  0  0  0  0  0  0
   59.8597   -1.2220    2.1106 C   0  0  0  0  0  0  0  0  0  0  0  0
   60.7800   -0.8729    3.2885 C   0  0  0  0  0  0  0  0  0  0  0  0
   60.4062   -1.6665    4.5447 C   0  0  0  0  0  0  0  0  0  0  0  0
   60.7380   -3.0741    4.3449 N   0  0  0  0  0  0  0  0  0  0  0  0
  1  2  1  0  0  0  0
  2  3  1  0  0  0  0
  3  4  1  0  0  0  0
  4  5  1  0  0  0  0
  5  6  1  0  0  0  0
  6  7  1  0  0  0  0
  7  8  1  0  0  0  0
  8  9  1  0  0  0  0
  9 10  1  0  0  0  0
 10 11  1  0  0  0  0
 11 12  1  0  0  0  0
 12 13  1  0  0  0  0
 13 14  1  0  0  0  0
M  END
>  <CHROM.1>
68.71389673,-175.26124349,-58.63437188,106.92654671,68.96325386,-172.60623092
-52.47069775,-63.30242923,172.76271152,63.37366953,69.38396697,57.73100757
1.22512269,1.26047267,2.69091031,0.89697238,-1.53107639

>  <Name>
ligand

>  <RI>
0

>  <Rbt.Current_Directory>
/home/itssahil/PROJECTS/Mol_Feturizer/New_Systems/rnas/4FAW

>  <Rbt.Executable>
rbdock ($Id: //depot/dev/client3/rdock/2013.1/src/exe/rbdock.cxx#4 $)

>  <Rbt.Library>
libRbt.so (2013.1, Build901 2013/11/27)

>  <Rbt.Parameter_File>
/export/apps/rDock/src/rDock_2013.1_src/data/scripts/dock_solv.prm

>  <Rbt.Receptor>
prm/pocket_docking_3.prm

>  <SCORE>
-4.53349

>  <SCORE.INTER>
2.95065

>  <SCORE.INTER.CONST>
1

>  <SCORE.INTER.POLAR>
0

>  <SCORE.INTER.ROT>
11

>  <SCORE.INTER.SOLV>
6.24977

>  <SCORE.INTER.VDW>
-11.0495

>  <SCORE.INTER.norm>
0.21076

>  <SCORE.INTRA>
-7.48414

>  <SCORE.INTRA.DIHEDRAL>
-16.5096

>  <SCORE.INTRA.DIHEDRAL.0>
19.1003

>  <SCORE.INTRA.POLAR>
0

>  <SCORE.INTRA.POLAR.0>
0

>  <SCORE.INTRA.REPUL>
0

>  <SCORE.INTRA.REPUL.0>
0

>  <SCORE.INTRA.SOLV>
1.60183

>  <SCORE.INTRA.SOLV.lig_0>
-47.5333

>  <SCORE.INTRA.VDW>
-0.0302731

>  <SCORE.INTRA.VDW.0>
-0.287413

>  <SCORE.INTRA.norm>
-0.534581

>  <SCORE.RESTR>
0

>  <SCORE.RESTR.CAVITY>
0

>  <SCORE.RESTR.norm>
0

>  <SCORE.SYSTEM>
0

>  <SCORE.SYSTEM.CONST>
0

>  <SCORE.SYSTEM.DIHEDRAL>
0

>  <SCORE.SYSTEM.SOLV>
0

>  <SCORE.SYSTEM.norm>
0

>  <SCORE.heavy>
14

>  <SCORE.norm>
-0.323821

>  <RMSD>
3.775

$$$$
ligand
 OpenBabel11021811493D
libRbt.so/2013.1/901 2013/11/27
 14 13  0  0  0  0  0  0  0  0999 V2000
   55.7539    7.4404   -3.9636 N   0  0  0  0  0  0  0  0  0  0  0  0
   55.2796    6.3903   -3.0892 C   0  0  0  0  0  0  0  0  0  0  0  0
   56.4908    5.6427   -2.4947 C   0  0  0  0  0  0  0  0  0  0  0  0
   56.1115    4.4883   -1.5542 C   0  0  0  0  0  0  0  0  0  0  0  0
   57.2364    3.7665   -0.9401 N   0  0  0  0  0  0  0  0  0  0  0  0
   58.1109    2.8554   -1.6764 C   0  0  0  0  0  0  0  0  0  0  0  0
   57.7182    1.3904   -1.5152 C   0  0  0  0  0  0  0  0  0  0  0  0
   57.9120    0.8561   -0.0924 C   0  0  0  0  0  0  0  0  0  0  0  0
   57.4871   -0.6117    0.0335 C   0  0  0  0  0  0  0  0  0  0  0  0
   57.8689   -1.1148    1.3514 N   0  0  0  0  0  0  0  0  0  0  0  0
   57.3417   -0.6029    2.6176 C   0  0  0  0  0  0  0  0  0  0  0  0
   58.3138   -0.7971    3.7896 C   0  0  0  0  0  0  0  0  0  0  0  0
   59.6273   -0.0431    3.5578 C   0  0  0  0  0  0  0  0  0  0  0  0
   60.5267   -0.2796    4.6832 N   0  0  0  0  0  0  0  0  0  0  0  0
  1  2  1  0  0  0  0
  2  3  1  0  0  0  0
  3  4  1  0  0  0  0
  4  5  1  0  0  0  0
  5  6  1  0  0  0  0
  6  7  1  0  0  0  0
  7  8  1  0  0  0  0
  8  9  1  0  0  0  0
  9 10  1  0  0  0  0
 10 11  1  0  0  0  0
 11 12  1  0  0  0  0
 12 13  1  0  0  0  0
 13 14  1  0  0  0  0
M  END
>  <CHROM.1>
-179.43163873,-178.67145734,-72.25718866,-97.65489634,-66.84630142,179.14624026
172.07115272,63.17221467,-153.13673563,61.51368604,-178.86894695,57.55550874
2.09848629,0.05042522,-2.32141508,1.11818876,3.09524223

>  <Name>
ligand

>  <RI>
0

>  <Rbt.Current_Directory>
/home/itssahil/PROJECTS/Mol_Feturizer/New_Systems/rnas/4FAW

>  <Rbt.Executable>
rbdock ($Id: //depot/dev/client3/rdock/2013.1/src/exe/rbdock.cxx#4 $)

>  <Rbt.Library>
libRbt.so (2013.1, Build901 2013/11/27)

>  <Rbt.Parameter_File>
/export/apps/rDock/src/rDock_2013.1_src/data/scripts/dock_solv.prm

>  <Rbt.Receptor>
prm/pocket_docking_6.prm

>  <SCORE>
-8.60147

>  <SCORE.INTER>
0.847962

>  <SCORE.INTER.CONST>
1

>  <SCORE.INTER.POLAR>
0

>  <SCORE.INTER.ROT>
11

>  <SCORE.INTER.SOLV>
10.0896

>  <SCORE.INTER.VDW>
-13.7312

>  <SCORE.INTER.norm>
0.0605687

>  <SCORE.INTRA>
-9.44943

>  <SCORE.INTRA.DIHEDRAL>
-17.2023

>  <SCORE.INTRA.DIHEDRAL.0>
19.1003

>  <SCORE.INTRA.POLAR>
0

>  <SCORE.INTRA.POLAR.0>
0

>  <SCORE.INTRA.REPUL>
0

>  <SCORE.INTRA.REPUL.0>
0

>  <SCORE.INTRA.SOLV>
-0.755306

>  <SCORE.INTRA.SOLV.lig_0>
-47.5333

>  <SCORE.INTRA.VDW>
-0.470603

>  <SCORE.INTRA.VDW.0>
-0.287413

>  <SCORE.INTRA.norm>
-0.674959

>  <SCORE.RESTR>
0

>  <SCORE.RESTR.CAVITY>
0

>  <SCORE.RESTR.norm>
0

>  <SCORE.SYSTEM>
0

>  <SCORE.SYSTEM.CONST>
0

>  <SCORE.SYSTEM.DIHEDRAL>
0

>  <SCORE.SYSTEM.SOLV>
0

>  <SCORE.SYSTEM.norm>
0

>  <SCORE.heavy>
14

>  <SCORE.norm>
-0.614391

>  <RMSD>
3.783

$$$$
ligand
 OpenBabel11021811493D
libRbt.so/2013.1/901 2013/11/27
 14 13  0  0  0  0  0  0  0  0999 V2000
   56.1667    0.2776    5.3833 N   0  0  0  0  0  0  0  0  0  0  0  0
   56.2140   -0.3389    4.0757 C   0  0  0  0  0  0  0  0  0  0  0  0
   54.7925   -0.3631    3.4771 C   0  0  0  0  0  0  0  0  0  0  0  0
   54.7018   -1.0628    2.1121 C   0  0  0  0  0  0  0  0  0  0  0  0
   55.5414   -0.4968    1.0452 N   0  0  0  0  0  0  0  0  0  0  0  0
   56.9592   -0.8116    0.8793 C   0  0  0  0  0  0  0  0  0  0  0  0
   57.6017   -0.0733   -0.2905 C   0  0  0  0  0  0  0  0  0  0  0  0
   57.5704    1.4516   -0.1454 C   0  0  0  0  0  0  0  0  0  0  0  0
   57.8400    2.1616   -1.4774 C   0  0  0  0  0  0  0  0  0  0  0  0
   57.8602    3.6066   -1.2603 N   0  0  0  0  0  0  0  0  0  0  0  0
   56.9307    4.5505   -1.8836 C   0  0  0  0  0  0  0  0  0  0  0  0
   55.5640    4.5893   -1.1859 C   0  0  0  0  0  0  0  0  0  0  0  0
   54.6723    3.4279   -1.6372 C   0  0  0  0  0  0  0  0  0  0  0  0
   54.2923    3.6232   -3.0332 N   0  0  0  0  0  0  0  0  0  0  0  0
  1  2  1  0  0  0  0
  2  3  1  0  0  0  0
  3  4  1  0  0  0  0
  4  5  1  0  0  0  0
  5  6  1  0  0  0  0
  6  7  1  0  0  0  0
  7  8  1  0  0  0  0
  8  9  1  0  0  0  0
  9 10  1  0  0  0  0
 10 11  1  0  0  0  0
 11 12  1  0  0  0  0
 12 13  1  0  0  0  0
 13 14  1  0  0  0  0
M  END
>  <CHROM.1>
-177.03125142,-58.69047428,82.40005168,-179.04108374,61.55415729,-163.46497199
-177.31049249,-118.34421095,79.44724078,-80.91549958,-68.58341390,56.19345646
1.46715951,0.43276021,1.62824871,-0.41304077,2.26756823

>  <Name>
ligand

>  <RI>
0

>  <Rbt.Current_Directory>
/home/itssahil/PROJECTS/Mol_Feturizer/New_Systems/rnas/4FAW

>  <Rbt.Executable>
rbdock ($Id: //depot/dev/client3/rdock/2013.1/src/exe/rbdock.cxx#4 $)

>  <Rbt.Library>
libRbt.so (2013.1, Build901 2013/11/27)

>  <Rbt.Parameter_File>
/export/apps/rDock/src/rDock_2013.1_src/data/scripts/dock_solv.prm

>  <Rbt.Receptor>
prm/pocket_docking_6.prm

>  <SCORE>
-8.24036

>  <SCORE.INTER>
-0.561577

>  <SCORE.INTER.CONST>
1

>  <SCORE.INTER.POLAR>
0

>  <SCORE.INTER.ROT>
11

>  <SCORE.INTER.SOLV>
13.4336

>  <SCORE.INTER.VDW>
-15.7856

>  <SCORE.INTER.norm>
-0.0401127

>  <SCORE.INTRA>
-7.67879

>  <SCORE.INTRA.DIHEDRAL>
-14.3259

>  <SCORE.INTRA.DIHEDRAL.0>
19.1003

>  <SCORE.INTRA.POLAR>
0

>  <SCORE.INTRA.POLAR.0>
0

>  <SCORE.INTRA.REPUL>
0

>  <SCORE.INTRA.REPUL.0>
0

>  <SCORE.INTRA.SOLV>
1.02057

>  <SCORE.INTRA.SOLV.lig_0>
-47.5333

>  <SCORE.INTRA.VDW>
-1.02613

>  <SCORE.INTRA.VDW.0>
-0.287413

>  <SCORE.INTRA.norm>
-0.548485

>  <SCORE.RESTR>
0

>  <SCORE.RESTR.CAVITY>
0

>  <SCORE.RESTR.norm>
0

>  <SCORE.SYSTEM>
0

>  <SCORE.SYSTEM.CONST>
0

>  <SCORE.SYSTEM.DIHEDRAL>
0

>  <SCORE.SYSTEM.SOLV>
0

>  <SCORE.SYSTEM.norm>
0

>  <SCORE.heavy>
14

>  <SCORE.norm>
-0.588597

>  <RMSD>
3.818

$$$$
ligand
 OpenBabel11021811493D
libRbt.so/2013.1/901 2013/11/27
 14 13  0  0  0  0  0  0  0  0999 V2000
   56.7685    7.8481   -4.0515 N   0  0  0  0  0  0  0  0  0  0  0  0
   55.9854    6.7664   -3.4958 C   0  0  0  0  0  0  0  0  0  0  0  0
   56.0010    6.8705   -1.9569 C   0  0  0  0  0  0  0  0  0  0  0  0
   55.1229    5.8252   -1.2516 C   0  0  0  0  0  0  0  0  0  0  0  0
   55.4245    4.4198   -1.5636 N   0  0  0  0  0  0  0  0  0  0  0  0
   56.5099    3.6674   -0.9369 C   0  0  0  0  0  0  0  0  0  0  0  0
   57.0510    2.5501   -1.8230 C   0  0  0  0  0  0  0  0  0  0  0  0
   58.0290    1.6155   -1.1035 C   0  0  0  0  0  0  0  0  0  0  0  0
   57.3303    0.7611   -0.0393 C   0  0  0  0  0  0  0  0  0  0  0  0
   58.2330   -0.3021    0.3971 N   0  0  0  0  0  0  0  0  0  0  0  0
   57.7960   -1.5703    0.9837 C   0  0  0  0  0  0  0  0  0  0  0  0
   58.8734   -2.2237    1.8603 C   0  0  0  0  0  0  0  0  0  0  0  0
   59.2726   -1.3143    3.0271 C   0  0  0  0  0  0  0  0  0  0  0  0
   60.2640   -1.9952    3.8546 N   0  0  0  0  0  0  0  0  0  0  0  0
  1  2  1  0  0  0  0
  2  3  1  0  0  0  0
  3  4  1  0  0  0  0
  4  5  1  0  0  0  0
  5  6  1  0  0  0  0
  6  7  1  0  0  0  0
  7  8  1  0  0  0  0
  8  9  1  0  0  0  0
  9 10  1  0  0  0  0
 10 11  1  0  0  0  0
 11 12  1  0  0  0  0
 12 13  1  0  0  0  0
 13 14  1  0  0  0  0
M  END
>  <CHROM.1>
176.15843366,56.76108427,80.92631266,-152.40349268,-170.83911054,68.82040889
167.52859904,-155.75482047,-155.98255106,60.04181574,178.13677617,57.33281541
2.35127136,-0.43570479,-2.64287351,1.21660140,-2.64472027

>  <Name>
ligand

>  <RI>
0

>  <Rbt.Current_Directory>
/home/itssahil/PROJECTS/Mol_Feturizer/New_Systems/rnas/4FAW

>  <Rbt.Executable>
rbdock ($Id: //depot/dev/client3/rdock/2013.1/src/exe/rbdock.cxx#4 $)

>  <Rbt.Library>
libRbt.so (2013.1, Build901 2013/11/27)

>  <Rbt.Parameter_File>
/export/apps/rDock/src/rDock_2013.1_src/data/scripts/dock_solv.prm

>  <Rbt.Receptor>
prm/pocket_docking_7.prm

>  <SCORE>
-6.56056

>  <SCORE.INTER>
2.34732

>  <SCORE.INTER.CONST>
1

>  <SCORE.INTER.POLAR>
0

>  <SCORE.INTER.ROT>
11

>  <SCORE.INTER.SOLV>
9.37815

>  <SCORE.INTER.VDW>
-12.4945

>  <SCORE.INTER.norm>
0.167666

>  <SCORE.INTRA>
-8.90788

>  <SCORE.INTRA.DIHEDRAL>
-16.1048

>  <SCORE.INTRA.DIHEDRAL.0>
19.1003

>  <SCORE.INTRA.POLAR>
0

>  <SCORE.INTRA.POLAR.0>
0

>  <SCORE.INTRA.REPUL>
0

>  <SCORE.INTRA.REPUL.0>
0

>  <SCORE.INTRA.SOLV>
-0.612452

>  <SCORE.INTRA.SOLV.lig_0>
-47.5333

>  <SCORE.INTRA.VDW>
-0.549245

>  <SCORE.INTRA.VDW.0>
-0.287413

>  <SCORE.INTRA.norm>
-0.636277

>  <SCORE.RESTR>
0

>  <SCORE.RESTR.CAVITY>
0

>  <SCORE.RESTR.norm>
0

>  <SCORE.SYSTEM>
0

>  <SCORE.SYSTEM.CONST>
0

>  <SCORE.SYSTEM.DIHEDRAL>
0

>  <SCORE.SYSTEM.SOLV>
0

>  <SCORE.SYSTEM.norm>
0

>  <SCORE.heavy>
14

>  <SCORE.norm>
-0.468611

>  <RMSD>
3.822

$$$$
ligand
 OpenBabel11021811493D
libRbt.so/2013.1/901 2013/11/27
 14 13  0  0  0  0  0  0  0  0999 V2000
   52.4516    2.7507   -0.7722 N   0  0  0  0  0  0  0  0  0  0  0  0
   52.8681    1.8920    0.3146 C   0  0  0  0  0  0  0  0  0  0  0  0
   53.4095    2.7627    1.4672 C   0  0  0  0  0  0  0  0  0  0  0  0
   53.9184    1.9568    2.6724 C   0  0  0  0  0  0  0  0  0  0  0  0
   55.0276    1.0297    2.4007 N   0  0  0  0  0  0  0  0  0  0  0  0
   54.8384   -0.3432    1.9356 C   0  0  0  0  0  0  0  0  0  0  0  0
   56.0284   -0.8743    1.1431 C   0  0  0  0  0  0  0  0  0  0  0  0
   57.3200   -0.9648    1.9623 C   0  0  0  0  0  0  0  0  0  0  0  0
   58.4886   -1.5126    1.1346 C   0  0  0  0  0  0  0  0  0  0  0  0
   59.6600   -1.6677    1.9946 N   0  0  0  0  0  0  0  0  0  0  0  0
   60.4057   -0.5555    2.5863 C   0  0  0  0  0  0  0  0  0  0  0  0
   61.2992   -0.9925    3.7555 C   0  0  0  0  0  0  0  0  0  0  0  0
   60.4685   -1.5447    4.9185 C   0  0  0  0  0  0  0  0  0  0  0  0
   61.3592   -1.9373    6.0065 N   0  0  0  0  0  0  0  0  0  0  0  0
  1  2  1  0  0  0  0
  2  3  1  0  0  0  0
  3  4  1  0  0  0  0
  4  5  1  0  0  0  0
  5  6  1  0  0  0  0
  6  7  1  0  0  0  0
  7  8  1  0  0  0  0
  8  9  1  0  0  0  0
  9 10  1  0  0  0  0
 10 11  1  0  0  0  0
 11 12  1  0  0  0  0
 12 13  1  0  0  0  0
 13 14  1  0  0  0  0
M  END
>  <CHROM.1>
-178.54653296,60.42682467,-86.88975106,153.70840104,63.17476088,179.55348253
-175.82971830,-68.22416029,162.64750869,-63.34776635,-179.61467385,56.96731245
-0.00007229,2.25134578,-2.92750727,-0.52990873,1.23681330

>  <Name>
ligand

>  <RI>
0

>  <Rbt.Current_Directory>
/home/itssahil/PROJECTS/Mol_Feturizer/New_Systems/rnas/4FAW

>  <Rbt.Executable>
rbdock ($Id: //depot/dev/client3/rdock/2013.1/src/exe/rbdock.cxx#4 $)

>  <Rbt.Library>
libRbt.so (2013.1, Build901 2013/11/27)

>  <Rbt.Parameter_File>
/export/apps/rDock/src/rDock_2013.1_src/data/scripts/dock_solv.prm

>  <Rbt.Receptor>
prm/pocket_docking_3.prm

>  <SCORE>
-6.59267

>  <SCORE.INTER>
3.16844

>  <SCORE.INTER.CONST>
1

>  <SCORE.INTER.POLAR>
0

>  <SCORE.INTER.ROT>
11

>  <SCORE.INTER.SOLV>
8.08727

>  <SCORE.INTER.VDW>
-11.5168

>  <SCORE.INTER.norm>
0.226317

>  <SCORE.INTRA>
-9.76111

>  <SCORE.INTRA.DIHEDRAL>
-17.6716

>  <SCORE.INTRA.DIHEDRAL.0>
19.1003

>  <SCORE.INTRA.POLAR>
0

>  <SCORE.INTRA.POLAR.0>
0

>  <SCORE.INTRA.REPUL>
0

>  <SCORE.INTRA.REPUL.0>
0

>  <SCORE.INTRA.SOLV>
-0.457061

>  <SCORE.INTRA.SOLV.lig_0>
-47.5333

>  <SCORE.INTRA.VDW>
-0.696787

>  <SCORE.INTRA.VDW.0>
-0.287413

>  <SCORE.INTRA.norm>
-0.697222

>  <SCORE.RESTR>
0

>  <SCORE.RESTR.CAVITY>
0

>  <SCORE.RESTR.norm>
0

>  <SCORE.SYSTEM>
0

>  <SCORE.SYSTEM.CONST>
0

>  <SCORE.SYSTEM.DIHEDRAL>
0

>  <SCORE.SYSTEM.SOLV>
0

>  <SCORE.SYSTEM.norm>
0

>  <SCORE.heavy>
14

>  <SCORE.norm>
-0.470905

>  <RMSD>
3.884

$$$$
ligand
 OpenBabel11021811493D
libRbt.so/2013.1/901 2013/11/27
 14 13  0  0  0  0  0  0  0  0999 V2000
   52.9234    3.6951    0.6912 N   0  0  0  0  0  0  0  0  0  0  0  0
   54.1022    4.3777    0.2049 C   0  0  0  0  0  0  0  0  0  0  0  0
   55.2726    3.3754    0.1330 C   0  0  0  0  0  0  0  0  0  0  0  0
   56.5780    3.9780   -0.4090 C   0  0  0  0  0  0  0  0  0  0  0  0
   57.6873    3.0320   -0.6047 N   0  0  0  0  0  0  0  0  0  0  0  0
   57.6380    1.9109   -1.5415 C   0  0  0  0  0  0  0  0  0  0  0  0
   57.9623    0.5717   -0.8874 C   0  0  0  0  0  0  0  0  0  0  0  0
   57.0683    0.2424    0.3125 C   0  0  0  0  0  0  0  0  0  0  0  0
   57.3673   -1.1469    0.8881 C   0  0  0  0  0  0  0  0  0  0  0  0
   58.6845   -1.1355    1.5208 N   0  0  0  0  0  0  0  0  0  0  0  0
   59.2638   -2.2669    2.2473 C   0  0  0  0  0  0  0  0  0  0  0  0
   60.1408   -1.8299    3.4289 C   0  0  0  0  0  0  0  0  0  0  0  0
   60.7009   -3.0381    4.1868 C   0  0  0  0  0  0  0  0  0  0  0  0
   61.5151   -2.5730    5.3057 N   0  0  0  0  0  0  0  0  0  0  0  0
  1  2  1  0  0  0  0
  2  3  1  0  0  0  0
  3  4  1  0  0  0  0
  4  5  1  0  0  0  0
  5  6  1  0  0  0  0
  6  7  1  0  0  0  0
  7  8  1  0  0  0  0
  8  9  1  0  0  0  0
  9 10  1  0  0  0  0
 10 11  1  0  0  0  0
 11 12  1  0  0  0  0
 12 13  1  0  0  0  0
 13 14  1  0  0  0  0
M  END
>  <CHROM.1>
178.42608255,-174.90158765,62.68300607,-126.07669293,55.78805468,176.48544275
69.05215940,176.06450953,-146.11951367,178.55445003,-179.45082865,57.63600191
0.65659316,1.10520215,2.41114006,0.65886284,-1.17475955

>  <Name>
ligand

>  <RI>
0

>  <Rbt.Current_Directory>
/home/itssahil/PROJECTS/Mol_Feturizer/New_Systems/rnas/4FAW

>  <Rbt.Executable>
rbdock ($Id: //depot/dev/client3/rdock/2013.1/src/exe/rbdock.cxx#4 $)

>  <Rbt.Library>
libRbt.so (2013.1, Build901 2013/11/27)

>  <Rbt.Parameter_File>
/export/apps/rDock/src/rDock_2013.1_src/data/scripts/dock_solv.prm

>  <Rbt.Receptor>
prm/pocket_docking_3.prm

>  <SCORE>
-6.48592

>  <SCORE.INTER>
3.10769

>  <SCORE.INTER.CONST>
1

>  <SCORE.INTER.POLAR>
0

>  <SCORE.INTER.ROT>
11

>  <SCORE.INTER.SOLV>
8.10962

>  <SCORE.INTER.VDW>
-11.5647

>  <SCORE.INTER.norm>
0.221978

>  <SCORE.INTRA>
-9.59835

>  <SCORE.INTRA.DIHEDRAL>
-16.6518

>  <SCORE.INTRA.DIHEDRAL.0>
19.1003

>  <SCORE.INTRA.POLAR>
0

>  <SCORE.INTRA.POLAR.0>
0

>  <SCORE.INTRA.REPUL>
0

>  <SCORE.INTRA.REPUL.0>
0

>  <SCORE.INTRA.SOLV>
-0.732057

>  <SCORE.INTRA.SOLV.lig_0>
-47.5333

>  <SCORE.INTRA.VDW>
-0.906405

>  <SCORE.INTRA.VDW.0>
-0.287413

>  <SCORE.INTRA.norm>
-0.685597

>  <SCORE.RESTR>
0.00474603

>  <SCORE.RESTR.CAVITY>
0.00474603

>  <SCORE.RESTR.norm>
0.000339002

>  <SCORE.SYSTEM>
0

>  <SCORE.SYSTEM.CONST>
0

>  <SCORE.SYSTEM.DIHEDRAL>
0

>  <SCORE.SYSTEM.SOLV>
0

>  <SCORE.SYSTEM.norm>
0

>  <SCORE.heavy>
14

>  <SCORE.norm>
-0.46328

>  <RMSD>
3.893

$$$$
ligand
 OpenBabel11021811493D
libRbt.so/2013.1/901 2013/11/27
 14 13  0  0  0  0  0  0  0  0999 V2000
   54.1373    6.3044   -3.6096 N   0  0  0  0  0  0  0  0  0  0  0  0
   55.4984    6.0370   -3.1997 C   0  0  0  0  0  0  0  0  0  0  0  0
   55.5189    4.7795   -2.3064 C   0  0  0  0  0  0  0  0  0  0  0  0
   56.9171    4.4008   -1.7939 C   0  0  0  0  0  0  0  0  0  0  0  0
   56.9879    3.1900   -0.9616 N   0  0  0  0  0  0  0  0  0  0  0  0
   58.2118    2.7276   -0.3096 C   0  0  0  0  0  0  0  0  0  0  0  0
   58.0266    1.4156    0.4459 C   0  0  0  0  0  0  0  0  0  0  0  0
   57.7896    0.2092   -0.4684 C   0  0  0  0  0  0  0  0  0  0  0  0
   57.6731   -1.0984    0.3237 C   0  0  0  0  0  0  0  0  0  0  0  0
   56.4319   -1.0881    1.0951 N   0  0  0  0  0  0  0  0  0  0  0  0
   56.2956   -0.5172    2.4364 C   0  0  0  0  0  0  0  0  0  0  0  0
   54.8971   -0.7267    3.0336 C   0  0  0  0  0  0  0  0  0  0  0  0
   54.7666   -0.0516    4.4028 C   0  0  0  0  0  0  0  0  0  0  0  0
   55.7103   -0.6610    5.3352 N   0  0  0  0  0  0  0  0  0  0  0  0
  1  2  1  0  0  0  0
  2  3  1  0  0  0  0
  3  4  1  0  0  0  0
  4  5  1  0  0  0  0
  5  6  1  0  0  0  0
  6  7  1  0  0  0  0
  7  8  1  0  0  0  0
  8  9  1  0  0  0  0
  9 10  1  0  0  0  0
 10 11  1  0  0  0  0
 11 12  1  0  0  0  0
 12 13  1  0  0  0  0
 13 14  1  0  0  0  0
M  END
>  <CHROM.1>
-179.40432319,-178.71193213,-175.57828951,-177.58091546,68.91646682,177.35963700
69.00320002,-87.09165247,-176.49645537,-176.89224153,-62.56701914,56.34752741
1.78002427,0.31588791,1.60938087,0.63618901,-0.80265509

>  <Name>
ligand

>  <RI>
0

>  <Rbt.Current_Directory>
/home/itssahil/PROJECTS/Mol_Feturizer/New_Systems/rnas/4FAW

>  <Rbt.Executable>
rbdock ($Id: //depot/dev/client3/rdock/2013.1/src/exe/rbdock.cxx#4 $)

>  <Rbt.Library>
libRbt.so (2013.1, Build901 2013/11/27)

>  <Rbt.Parameter_File>
/export/apps/rDock/src/rDock_2013.1_src/data/scripts/dock_solv.prm

>  <Rbt.Receptor>
prm/pocket_docking_5.prm

>  <SCORE>
-9.41814

>  <SCORE.INTER>
0.0885171

>  <SCORE.INTER.CONST>
1

>  <SCORE.INTER.POLAR>
0

>  <SCORE.INTER.ROT>
11

>  <SCORE.INTER.SOLV>
12.6043

>  <SCORE.INTER.VDW>
-15.0757

>  <SCORE.INTER.norm>
0.00632265

>  <SCORE.INTRA>
-9.50666

>  <SCORE.INTRA.DIHEDRAL>
-17.8659

>  <SCORE.INTRA.DIHEDRAL.0>
19.1003

>  <SCORE.INTRA.POLAR>
0

>  <SCORE.INTRA.POLAR.0>
0

>  <SCORE.INTRA.REPUL>
0

>  <SCORE.INTRA.REPUL.0>
0

>  <SCORE.INTRA.SOLV>
0.0156993

>  <SCORE.INTRA.SOLV.lig_0>
-47.5333

>  <SCORE.INTRA.VDW>
-0.581559

>  <SCORE.INTRA.VDW.0>
-0.287413

>  <SCORE.INTRA.norm>
-0.679047

>  <SCORE.RESTR>
0

>  <SCORE.RESTR.CAVITY>
0

>  <SCORE.RESTR.norm>
0

>  <SCORE.SYSTEM>
0

>  <SCORE.SYSTEM.CONST>
0

>  <SCORE.SYSTEM.DIHEDRAL>
0

>  <SCORE.SYSTEM.SOLV>
0

>  <SCORE.SYSTEM.norm>
0

>  <SCORE.heavy>
14

>  <SCORE.norm>
-0.672725

>  <RMSD>
3.900

$$$$
ligand
 OpenBabel11021811493D
libRbt.so/2013.1/901 2013/11/27
 14 13  0  0  0  0  0  0  0  0999 V2000
   53.5300    4.5418   -0.8353 N   0  0  0  0  0  0  0  0  0  0  0  0
   54.1230    5.1588   -2.0014 C   0  0  0  0  0  0  0  0  0  0  0  0
   55.4063    4.3915   -2.3811 C   0  0  0  0  0  0  0  0  0  0  0  0
   56.5137    4.4630   -1.3184 C   0  0  0  0  0  0  0  0  0  0  0  0
   57.7723    3.7816   -1.6581 N   0  0  0  0  0  0  0  0  0  0  0  0
   57.9254    2.3280   -1.6762 C   0  0  0  0  0  0  0  0  0  0  0  0
   57.7707    1.6942   -0.2975 C   0  0  0  0  0  0  0  0  0  0  0  0
   58.7634    2.2302    0.7391 C   0  0  0  0  0  0  0  0  0  0  0  0
   58.6859    1.4589    2.0620 C   0  0  0  0  0  0  0  0  0  0  0  0
   59.6791    1.9920    2.9921 N   0  0  0  0  0  0  0  0  0  0  0  0
   59.8979    1.4870    4.3487 C   0  0  0  0  0  0  0  0  0  0  0  0
   60.8047    2.4004    5.1853 C   0  0  0  0  0  0  0  0  0  0  0  0
   60.8942    1.9212    6.6379 C   0  0  0  0  0  0  0  0  0  0  0  0
   59.5581    1.9064    7.2262 N   0  0  0  0  0  0  0  0  0  0  0  0
  1  2  1  0  0  0  0
  2  3  1  0  0  0  0
  3  4  1  0  0  0  0
  4  5  1  0  0  0  0
  5  6  1  0  0  0  0
  6  7  1  0  0  0  0
  7  8  1  0  0  0  0
  8  9  1  0  0  0  0
  9 10  1  0  0  0  0
 10 11  1  0  0  0  0
 11 12  1  0  0  0  0
 12 13  1  0  0  0  0
 13 14  1  0  0  0  0
M  END
>  <CHROM.1>
-64.24613932,-178.07631435,-72.92523638,-65.37159042,-58.12669593,-173.42366646
178.43495829,-179.37020337,-168.90870269,174.06995633,-59.32071522,57.95188982
2.83955455,1.35856479,2.22954383,0.54294140,-1.64170193

>  <Name>
ligand

>  <RI>
0

>  <Rbt.Current_Directory>
/home/itssahil/PROJECTS/Mol_Feturizer/New_Systems/rnas/4FAW

>  <Rbt.Executable>
rbdock ($Id: //depot/dev/client3/rdock/2013.1/src/exe/rbdock.cxx#4 $)

>  <Rbt.Library>
libRbt.so (2013.1, Build901 2013/11/27)

>  <Rbt.Parameter_File>
/export/apps/rDock/src/rDock_2013.1_src/data/scripts/dock_solv.prm

>  <Rbt.Receptor>
prm/pocket_docking_6.prm

>  <SCORE>
-8.37396

>  <SCORE.INTER>
0.891904

>  <SCORE.INTER.CONST>
1

>  <SCORE.INTER.POLAR>
0

>  <SCORE.INTER.ROT>
11

>  <SCORE.INTER.SOLV>
10.9325

>  <SCORE.INTER.VDW>
-13.9829

>  <SCORE.INTER.norm>
0.0637074

>  <SCORE.INTRA>
-9.26586

>  <SCORE.INTRA.DIHEDRAL>
-18.428

>  <SCORE.INTRA.DIHEDRAL.0>
19.1003

>  <SCORE.INTRA.POLAR>
0

>  <SCORE.INTRA.POLAR.0>
0

>  <SCORE.INTRA.REPUL>
0

>  <SCORE.INTRA.REPUL.0>
0

>  <SCORE.INTRA.SOLV>
0.507334

>  <SCORE.INTRA.SOLV.lig_0>
-47.5333

>  <SCORE.INTRA.VDW>
-0.30551

>  <SCORE.INTRA.VDW.0>
-0.287413

>  <SCORE.INTRA.norm>
-0.661847

>  <SCORE.RESTR>
0

>  <SCORE.RESTR.CAVITY>
0

>  <SCORE.RESTR.norm>
0

>  <SCORE.SYSTEM>
0

>  <SCORE.SYSTEM.CONST>
0

>  <SCORE.SYSTEM.DIHEDRAL>
0

>  <SCORE.SYSTEM.SOLV>
0

>  <SCORE.SYSTEM.norm>
0

>  <SCORE.heavy>
14

>  <SCORE.norm>
-0.59814

>  <RMSD>
3.921

$$$$
ligand
 OpenBabel11021811493D
libRbt.so/2013.1/901 2013/11/27
 14 13  0  0  0  0  0  0  0  0999 V2000
   61.1889   -1.4145    4.5786 N   0  0  0  0  0  0  0  0  0  0  0  0
   60.5829   -1.3071    3.2696 C   0  0  0  0  0  0  0  0  0  0  0  0
   59.4299   -2.3262    3.1618 C   0  0  0  0  0  0  0  0  0  0  0  0
   58.7056   -2.3082    1.8068 C   0  0  0  0  0  0  0  0  0  0  0  0
   58.0779   -1.0316    1.4330 N   0  0  0  0  0  0  0  0  0  0  0  0
   57.8417   -0.6211    0.0500 C   0  0  0  0  0  0  0  0  0  0  0  0
   57.8741    0.8922   -0.1374 C   0  0  0  0  0  0  0  0  0  0  0  0
   57.8439    1.3295   -1.6056 C   0  0  0  0  0  0  0  0  0  0  0  0
   57.9395    2.8526   -1.7539 C   0  0  0  0  0  0  0  0  0  0  0  0
   56.7819    3.4747   -1.1147 N   0  0  0  0  0  0  0  0  0  0  0  0
   56.3850    4.8717   -1.3004 C   0  0  0  0  0  0  0  0  0  0  0  0
   55.4861    5.3909   -0.1696 C   0  0  0  0  0  0  0  0  0  0  0  0
   55.0870    6.8524   -0.3985 C   0  0  0  0  0  0  0  0  0  0  0  0
   54.1992    6.9367   -1.5543 N   0  0  0  0  0  0  0  0  0  0  0  0
  1  2  1  0  0  0  0
  2  3  1  0  0  0  0
  3  4  1  0  0  0  0
  4  5  1  0  0  0  0
  5  6  1  0  0  0  0
  6  7  1  0  0  0  0
  7  8  1  0  0  0  0
  8  9  1  0  0  0  0
  9 10  1  0  0  0  0
 10 11  1  0  0  0  0
 11 12  1  0  0  0  0
 12 13  1  0  0  0  0
 13 14  1  0  0  0  0
M  END
>  <CHROM.1>
-179.92273780,-59.81890401,153.79699893,-150.43584350,171.12363774,-177.50815635
-62.32912880,-166.24559096,-159.21357481,-179.82298176,68.02607245,57.67317520
1.68501424,0.44736712,-0.17149611,-1.09545969,0.89160787

>  <Name>
ligand

>  <RI>
0

>  <Rbt.Current_Directory>
/home/itssahil/PROJECTS/Mol_Feturizer/New_Systems/rnas/4FAW

>  <Rbt.Executable>
rbdock ($Id: //depot/dev/client3/rdock/2013.1/src/exe/rbdock.cxx#4 $)

>  <Rbt.Library>
libRbt.so (2013.1, Build901 2013/11/27)

>  <Rbt.Parameter_File>
/export/apps/rDock/src/rDock_2013.1_src/data/scripts/dock_solv.prm

>  <Rbt.Receptor>
prm/pocket_docking_6.prm

>  <SCORE>
-9.71487

>  <SCORE.INTER>
-0.385288

>  <SCORE.INTER.CONST>
1

>  <SCORE.INTER.POLAR>
0

>  <SCORE.INTER.ROT>
11

>  <SCORE.INTER.SOLV>
9.7312

>  <SCORE.INTER.VDW>
-14.4339

>  <SCORE.INTER.norm>
-0.0275206

>  <SCORE.INTRA>
-9.32958

>  <SCORE.INTRA.DIHEDRAL>
-16.9822

>  <SCORE.INTRA.DIHEDRAL.0>
19.1003

>  <SCORE.INTRA.POLAR>
0

>  <SCORE.INTRA.POLAR.0>
0

>  <SCORE.INTRA.REPUL>
0

>  <SCORE.INTRA.REPUL.0>
0

>  <SCORE.INTRA.SOLV>
-0.0305952

>  <SCORE.INTRA.SOLV.lig_0>
-47.5333

>  <SCORE.INTRA.VDW>
-0.823177

>  <SCORE.INTRA.VDW.0>
-0.287413

>  <SCORE.INTRA.norm>
-0.666399

>  <SCORE.RESTR>
0

>  <SCORE.RESTR.CAVITY>
0

>  <SCORE.RESTR.norm>
0

>  <SCORE.SYSTEM>
0

>  <SCORE.SYSTEM.CONST>
0

>  <SCORE.SYSTEM.DIHEDRAL>
0

>  <SCORE.SYSTEM.SOLV>
0

>  <SCORE.SYSTEM.norm>
0

>  <SCORE.heavy>
14

>  <SCORE.norm>
-0.693919

>  <RMSD>
3.926

$$$$
ligand
 OpenBabel11021811493D
libRbt.so/2013.1/901 2013/11/27
 14 13  0  0  0  0  0  0  0  0999 V2000
   54.2278    4.4255   -0.6612 N   0  0  0  0  0  0  0  0  0  0  0  0
   55.0020    3.4395    0.0602 C   0  0  0  0  0  0  0  0  0  0  0  0
   56.4941    3.8266    0.0003 C   0  0  0  0  0  0  0  0  0  0  0  0
   57.1063    3.7364   -1.4061 C   0  0  0  0  0  0  0  0  0  0  0  0
   57.0837    2.4046   -2.0303 N   0  0  0  0  0  0  0  0  0  0  0  0
   57.9144    1.2880   -1.5831 C   0  0  0  0  0  0  0  0  0  0  0  0
   57.5688    0.8131   -0.1755 C   0  0  0  0  0  0  0  0  0  0  0  0
   58.1033   -0.5857    0.1488 C   0  0  0  0  0  0  0  0  0  0  0  0
   57.7407   -1.0239    1.5727 C   0  0  0  0  0  0  0  0  0  0  0  0
   58.6109   -0.3390    2.5263 N   0  0  0  0  0  0  0  0  0  0  0  0
   59.9261   -0.8269    2.9453 C   0  0  0  0  0  0  0  0  0  0  0  0
   60.4750   -0.0826    4.1704 C   0  0  0  0  0  0  0  0  0  0  0  0
   61.7855   -0.7054    4.6626 C   0  0  0  0  0  0  0  0  0  0  0  0
   61.5199   -2.0422    5.1859 N   0  0  0  0  0  0  0  0  0  0  0  0
  1  2  1  0  0  0  0
  2  3  1  0  0  0  0
  3  4  1  0  0  0  0
  4  5  1  0  0  0  0
  5  6  1  0  0  0  0
  6  7  1  0  0  0  0
  7  8  1  0  0  0  0
  8  9  1  0  0  0  0
  9 10  1  0  0  0  0
 10 11  1  0  0  0  0
 11 12  1  0  0  0  0
 12 13  1  0  0  0  0
 13 14  1  0  0  0  0
M  END
>  <CHROM.1>
-67.08645882,-60.71388233,-70.56062798,65.10348866,162.37728436,179.76004726
-76.36244695,-87.15125281,-167.30553747,174.52552396,-66.92717698,58.11141111
1.02339293,1.10111048,2.83678022,0.92042600,-2.04512029

>  <Name>
ligand

>  <RI>
0

>  <Rbt.Current_Directory>
/home/itssahil/PROJECTS/Mol_Feturizer/New_Systems/rnas/4FAW

>  <Rbt.Executable>
rbdock ($Id: //depot/dev/client3/rdock/2013.1/src/exe/rbdock.cxx#4 $)

>  <Rbt.Library>
libRbt.so (2013.1, Build901 2013/11/27)

>  <Rbt.Parameter_File>
/export/apps/rDock/src/rDock_2013.1_src/data/scripts/dock_solv.prm

>  <Rbt.Receptor>
prm/pocket_docking_4.prm

>  <SCORE>
-7.19264

>  <SCORE.INTER>
0.387789

>  <SCORE.INTER.CONST>
1

>  <SCORE.INTER.POLAR>
0

>  <SCORE.INTER.ROT>
11

>  <SCORE.INTER.SOLV>
7.56848

>  <SCORE.INTER.VDW>
-13.1976

>  <SCORE.INTER.norm>
0.0276992

>  <SCORE.INTRA>
-7.5867

>  <SCORE.INTRA.DIHEDRAL>
-15.8225

>  <SCORE.INTRA.DIHEDRAL.0>
19.1003

>  <SCORE.INTRA.POLAR>
0

>  <SCORE.INTRA.POLAR.0>
0

>  <SCORE.INTRA.REPUL>
0

>  <SCORE.INTRA.REPUL.0>
0

>  <SCORE.INTRA.SOLV>
1.25345

>  <SCORE.INTRA.SOLV.lig_0>
-47.5333

>  <SCORE.INTRA.VDW>
-0.302163

>  <SCORE.INTRA.VDW.0>
-0.287413

>  <SCORE.INTRA.norm>
-0.541907

>  <SCORE.RESTR>
0.00626858

>  <SCORE.RESTR.CAVITY>
0.00626858

>  <SCORE.RESTR.norm>
0.000447756

>  <SCORE.SYSTEM>
0

>  <SCORE.SYSTEM.CONST>
0

>  <SCORE.SYSTEM.DIHEDRAL>
0

>  <SCORE.SYSTEM.SOLV>
0

>  <SCORE.SYSTEM.norm>
0

>  <SCORE.heavy>
14

>  <SCORE.norm>
-0.51376

>  <RMSD>
3.942

$$$$
ligand
 OpenBabel11021811493D
libRbt.so/2013.1/901 2013/11/27
 14 13  0  0  0  0  0  0  0  0999 V2000
   59.9839   -3.9804    5.9199 N   0  0  0  0  0  0  0  0  0  0  0  0
   60.1670   -3.7209    4.5087 C   0  0  0  0  0  0  0  0  0  0  0  0
   60.6387   -2.2643    4.3202 C   0  0  0  0  0  0  0  0  0  0  0  0
   60.8650   -1.8665    2.8534 C   0  0  0  0  0  0  0  0  0  0  0  0
   59.6566   -1.7818    2.0190 N   0  0  0  0  0  0  0  0  0  0  0  0
   58.8102   -0.5926    1.9402 C   0  0  0  0  0  0  0  0  0  0  0  0
   57.7057   -0.7141    0.8954 C   0  0  0  0  0  0  0  0  0  0  0  0
   56.8864    0.5682    0.7165 C   0  0  0  0  0  0  0  0  0  0  0  0
   57.6887    1.6698    0.0140 C   0  0  0  0  0  0  0  0  0  0  0  0
   56.9347    2.9209    0.0583 N   0  0  0  0  0  0  0  0  0  0  0  0
   55.5894    3.0967   -0.4920 C   0  0  0  0  0  0  0  0  0  0  0  0
   55.5999    3.6227   -1.9340 C   0  0  0  0  0  0  0  0  0  0  0  0
   56.0621    5.0823   -1.9938 C   0  0  0  0  0  0  0  0  0  0  0  0
   55.0320    5.9406   -1.4164 N   0  0  0  0  0  0  0  0  0  0  0  0
  1  2  1  0  0  0  0
  2  3  1  0  0  0  0
  3  4  1  0  0  0  0
  4  5  1  0  0  0  0
  5  6  1  0  0  0  0
  6  7  1  0  0  0  0
  7  8  1  0  0  0  0
  8  9  1  0  0  0  0
  9 10  1  0  0  0  0
 10 11  1  0  0  0  0
 11 12  1  0  0  0  0
 12 13  1  0  0  0  0
 13 14  1  0  0  0  0
M  END
>  <CHROM.1>
-179.83526406,68.28000546,85.10232367,173.98012874,-175.02132777,71.29250198
-171.29182544,-58.24717504,-93.15866172,-70.25696329,-70.30322866,57.97290408
0.56996904,1.24337562,1.08862776,-0.33320346,2.32159674

>  <Name>
ligand

>  <RI>
0

>  <Rbt.Current_Directory>
/home/itssahil/PROJECTS/Mol_Feturizer/New_Systems/rnas/4FAW

>  <Rbt.Executable>
rbdock ($Id: //depot/dev/client3/rdock/2013.1/src/exe/rbdock.cxx#4 $)

>  <Rbt.Library>
libRbt.so (2013.1, Build901 2013/11/27)

>  <Rbt.Parameter_File>
/export/apps/rDock/src/rDock_2013.1_src/data/scripts/dock_solv.prm

>  <Rbt.Receptor>
prm/pocket_docking_4.prm

>  <SCORE>
-3.53457

>  <SCORE.INTER>
4.2228

>  <SCORE.INTER.CONST>
1

>  <SCORE.INTER.POLAR>
0

>  <SCORE.INTER.ROT>
11

>  <SCORE.INTER.SOLV>
7.37417

>  <SCORE.INTER.VDW>
-10.5762

>  <SCORE.INTER.norm>
0.301629

>  <SCORE.INTRA>
-7.75738

>  <SCORE.INTRA.DIHEDRAL>
-15.991

>  <SCORE.INTRA.DIHEDRAL.0>
19.1003

>  <SCORE.INTRA.POLAR>
0

>  <SCORE.INTRA.POLAR.0>
0

>  <SCORE.INTRA.REPUL>
0

>  <SCORE.INTRA.REPUL.0>
0

>  <SCORE.INTRA.SOLV>
0.468507

>  <SCORE.INTRA.SOLV.lig_0>
-47.5333

>  <SCORE.INTRA.VDW>
0.00385519

>  <SCORE.INTRA.VDW.0>
-0.287413

>  <SCORE.INTRA.norm>
-0.554098

>  <SCORE.RESTR>
0

>  <SCORE.RESTR.CAVITY>
0

>  <SCORE.RESTR.norm>
0

>  <SCORE.SYSTEM>
0

>  <SCORE.SYSTEM.CONST>
0

>  <SCORE.SYSTEM.DIHEDRAL>
0

>  <SCORE.SYSTEM.SOLV>
0

>  <SCORE.SYSTEM.norm>
0

>  <SCORE.heavy>
14

>  <SCORE.norm>
-0.252469

>  <RMSD>
3.979

$$$$
ligand
 OpenBabel11021811493D
libRbt.so/2013.1/901 2013/11/27
 14 13  0  0  0  0  0  0  0  0999 V2000
   55.3837    7.4171    1.3580 N   0  0  0  0  0  0  0  0  0  0  0  0
   55.5135    6.2834    0.4692 C   0  0  0  0  0  0  0  0  0  0  0  0
   54.6825    6.5425   -0.8043 C   0  0  0  0  0  0  0  0  0  0  0  0
   54.7097    5.3843   -1.8138 C   0  0  0  0  0  0  0  0  0  0  0  0
   56.0144    5.1050   -2.4331 N   0  0  0  0  0  0  0  0  0  0  0  0
   57.0805    4.3563   -1.7699 C   0  0  0  0  0  0  0  0  0  0  0  0
   56.7528    2.8767   -1.5978 C   0  0  0  0  0  0  0  0  0  0  0  0
   57.8522    2.0838   -0.8835 C   0  0  0  0  0  0  0  0  0  0  0  0
   57.9952    2.4954    0.5866 C   0  0  0  0  0  0  0  0  0  0  0  0
   59.0424    1.6924    1.2144 N   0  0  0  0  0  0  0  0  0  0  0  0
   58.8479    0.3369    1.7323 C   0  0  0  0  0  0  0  0  0  0  0  0
   60.1608   -0.3279    2.1690 C   0  0  0  0  0  0  0  0  0  0  0  0
   59.9214   -1.7475    2.6936 C   0  0  0  0  0  0  0  0  0  0  0  0
   59.1423   -1.6832    3.9266 N   0  0  0  0  0  0  0  0  0  0  0  0
  1  2  1  0  0  0  0
  2  3  1  0  0  0  0
  3  4  1  0  0  0  0
  4  5  1  0  0  0  0
  5  6  1  0  0  0  0
  6  7  1  0  0  0  0
  7  8  1  0  0  0  0
  8  9  1  0  0  0  0
  9 10  1  0  0  0  0
 10 11  1  0  0  0  0
 11 12  1  0  0  0  0
 12 13  1  0  0  0  0
 13 14  1  0  0  0  0
M  END
>  <CHROM.1>
-178.37029508,-65.66479516,79.25126424,69.35394223,-179.05996775,67.68752497
179.19357818,-81.94189842,172.52146254,-179.51541350,-66.06060118,57.36422716
2.91527408,0.34596334,2.86120266,1.04762072,-1.71718992

>  <Name>
ligand

>  <RI>
0

>  <Rbt.Current_Directory>
/home/itssahil/PROJECTS/Mol_Feturizer/New_Systems/rnas/4FAW

>  <Rbt.Executable>
rbdock ($Id: //depot/dev/client3/rdock/2013.1/src/exe/rbdock.cxx#4 $)

>  <Rbt.Library>
libRbt.so (2013.1, Build901 2013/11/27)

>  <Rbt.Parameter_File>
/export/apps/rDock/src/rDock_2013.1_src/data/scripts/dock_solv.prm

>  <Rbt.Receptor>
prm/pocket_docking_8.prm

>  <SCORE>
-5.47665

>  <SCORE.INTER>
3.7367

>  <SCORE.INTER.CONST>
1

>  <SCORE.INTER.POLAR>
0

>  <SCORE.INTER.ROT>
11

>  <SCORE.INTER.SOLV>
8.72694

>  <SCORE.INTER.VDW>
-11.3512

>  <SCORE.INTER.norm>
0.266907

>  <SCORE.INTRA>
-9.21335

>  <SCORE.INTRA.DIHEDRAL>
-17.8306

>  <SCORE.INTRA.DIHEDRAL.0>
19.1003

>  <SCORE.INTRA.POLAR>
0

>  <SCORE.INTRA.POLAR.0>
0

>  <SCORE.INTRA.REPUL>
0

>  <SCORE.INTRA.REPUL.0>
0

>  <SCORE.INTRA.SOLV>
-0.232624

>  <SCORE.INTRA.SOLV.lig_0>
-47.5333

>  <SCORE.INTRA.VDW>
-0.181739

>  <SCORE.INTRA.VDW.0>
-0.287413

>  <SCORE.INTRA.norm>
-0.658097

>  <SCORE.RESTR>
0

>  <SCORE.RESTR.CAVITY>
0

>  <SCORE.RESTR.norm>
0

>  <SCORE.SYSTEM>
0

>  <SCORE.SYSTEM.CONST>
0

>  <SCORE.SYSTEM.DIHEDRAL>
0

>  <SCORE.SYSTEM.SOLV>
0

>  <SCORE.SYSTEM.norm>
0

>  <SCORE.heavy>
14

>  <SCORE.norm>
-0.391189

>  <RMSD>
3.984

$$$$
ligand
 OpenBabel11021811493D
libRbt.so/2013.1/901 2013/11/27
 14 13  0  0  0  0  0  0  0  0999 V2000
   60.4578   -2.9833    4.2474 N   0  0  0  0  0  0  0  0  0  0  0  0
   60.9585   -2.5940    2.9475 C   0  0  0  0  0  0  0  0  0  0  0  0
   60.0325   -1.5132    2.3526 C   0  0  0  0  0  0  0  0  0  0  0  0
   58.6277   -2.0228    1.9951 C   0  0  0  0  0  0  0  0  0  0  0  0
   57.7199   -1.0319    1.3969 N   0  0  0  0  0  0  0  0  0  0  0  0
   57.8043   -0.5951    0.0044 C   0  0  0  0  0  0  0  0  0  0  0  0
   57.7608    0.9217   -0.1491 C   0  0  0  0  0  0  0  0  0  0  0  0
   57.8776    1.3951   -1.6016 C   0  0  0  0  0  0  0  0  0  0  0  0
   57.9724    2.9221   -1.7029 C   0  0  0  0  0  0  0  0  0  0  0  0
   56.7339    3.5179   -1.2062 N   0  0  0  0  0  0  0  0  0  0  0  0
   56.3957    4.9380   -1.3173 C   0  0  0  0  0  0  0  0  0  0  0  0
   55.2112    5.3397   -0.4274 C   0  0  0  0  0  0  0  0  0  0  0  0
   54.8986    6.8344   -0.5531 C   0  0  0  0  0  0  0  0  0  0  0  0
   53.7964    7.1756    0.3413 N   0  0  0  0  0  0  0  0  0  0  0  0
  1  2  1  0  0  0  0
  2  3  1  0  0  0  0
  3  4  1  0  0  0  0
  4  5  1  0  0  0  0
  5  6  1  0  0  0  0
  6  7  1  0  0  0  0
  7  8  1  0  0  0  0
  8  9  1  0  0  0  0
  9 10  1  0  0  0  0
 10 11  1  0  0  0  0
 11 12  1  0  0  0  0
 12 13  1  0  0  0  0
 13 14  1  0  0  0  0
M  END
>  <CHROM.1>
-67.55608451,-178.70761974,76.81589806,-131.89762190,178.80303076,-174.23392789
-63.88617452,-171.39456956,-166.22038675,179.16390010,-178.18889310,57.58926611
1.59311999,0.45168624,0.51480835,-1.01090563,1.76880992

>  <Name>
ligand

>  <RI>
0

>  <Rbt.Current_Directory>
/home/itssahil/PROJECTS/Mol_Feturizer/New_Systems/rnas/4FAW

>  <Rbt.Executable>
rbdock ($Id: //depot/dev/client3/rdock/2013.1/src/exe/rbdock.cxx#4 $)

>  <Rbt.Library>
libRbt.so (2013.1, Build901 2013/11/27)

>  <Rbt.Parameter_File>
/export/apps/rDock/src/rDock_2013.1_src/data/scripts/dock_solv.prm

>  <Rbt.Receptor>
prm/pocket_docking_7.prm

>  <SCORE>
-10.0876

>  <SCORE.INTER>
-0.49087

>  <SCORE.INTER.CONST>
1

>  <SCORE.INTER.POLAR>
0

>  <SCORE.INTER.ROT>
11

>  <SCORE.INTER.SOLV>
9.44106

>  <SCORE.INTER.VDW>
-14.4076

>  <SCORE.INTER.norm>
-0.0350621

>  <SCORE.INTRA>
-9.59669

>  <SCORE.INTRA.DIHEDRAL>
-17.1504

>  <SCORE.INTRA.DIHEDRAL.0>
19.1003

>  <SCORE.INTRA.POLAR>
0

>  <SCORE.INTRA.POLAR.0>
0

>  <SCORE.INTRA.REPUL>
0

>  <SCORE.INTRA.REPUL.0>
0

>  <SCORE.INTRA.SOLV>
-0.45035

>  <SCORE.INTRA.SOLV.lig_0>
-47.5333

>  <SCORE.INTRA.VDW>
-0.796324

>  <SCORE.INTRA.VDW.0>
-0.287413

>  <SCORE.INTRA.norm>
-0.685478

>  <SCORE.RESTR>
0

>  <SCORE.RESTR.CAVITY>
0

>  <SCORE.RESTR.norm>
0

>  <SCORE.SYSTEM>
0

>  <SCORE.SYSTEM.CONST>
0

>  <SCORE.SYSTEM.DIHEDRAL>
0

>  <SCORE.SYSTEM.SOLV>
0

>  <SCORE.SYSTEM.norm>
0

>  <SCORE.heavy>
14

>  <SCORE.norm>
-0.72054

>  <RMSD>
4.009

$$$$
ligand
 OpenBabel11021811493D
libRbt.so/2013.1/901 2013/11/27
 14 13  0  0  0  0  0  0  0  0999 V2000
   54.9790    7.5464   -2.1825 N   0  0  0  0  0  0  0  0  0  0  0  0
   55.8989    6.5157   -2.6108 C   0  0  0  0  0  0  0  0  0  0  0  0
   56.0886    5.5003   -1.4651 C   0  0  0  0  0  0  0  0  0  0  0  0
   57.0314    4.3375   -1.8113 C   0  0  0  0  0  0  0  0  0  0  0  0
   57.2038    3.3191   -0.7641 N   0  0  0  0  0  0  0  0  0  0  0  0
   57.7362    1.9814   -1.0170 C   0  0  0  0  0  0  0  0  0  0  0  0
   57.4354    0.9966    0.1082 C   0  0  0  0  0  0  0  0  0  0  0  0
   57.9214   -0.4282   -0.1770 C   0  0  0  0  0  0  0  0  0  0  0  0
   57.5457   -1.3999    0.9479 C   0  0  0  0  0  0  0  0  0  0  0  0
   58.2977   -1.0585    2.1536 N   0  0  0  0  0  0  0  0  0  0  0  0
   59.7379   -1.2650    2.3172 C   0  0  0  0  0  0  0  0  0  0  0  0
   60.1584   -1.3898    3.7882 C   0  0  0  0  0  0  0  0  0  0  0  0
   61.6733   -1.5754    3.9232 C   0  0  0  0  0  0  0  0  0  0  0  0
   62.0161   -1.7519    5.3312 N   0  0  0  0  0  0  0  0  0  0  0  0
  1  2  1  0  0  0  0
  2  3  1  0  0  0  0
  3  4  1  0  0  0  0
  4  5  1  0  0  0  0
  5  6  1  0  0  0  0
  6  7  1  0  0  0  0
  7  8  1  0  0  0  0
  8  9  1  0  0  0  0
  9 10  1  0  0  0  0
 10 11  1  0  0  0  0
 11 12  1  0  0  0  0
 12 13  1  0  0  0  0
 13 14  1  0  0  0  0
M  END
>  <CHROM.1>
178.98492315,-177.90185777,162.21395636,-162.87403245,176.88100859,-177.45407551
-67.71296447,-70.72002125,-155.76805692,-178.80979332,-177.35440873,58.12311914
1.52325931,0.60991452,-2.28481720,0.84087553,3.07185729

>  <Name>
ligand

>  <RI>
0

>  <Rbt.Current_Directory>
/home/itssahil/PROJECTS/Mol_Feturizer/New_Systems/rnas/4FAW

>  <Rbt.Executable>
rbdock ($Id: //depot/dev/client3/rdock/2013.1/src/exe/rbdock.cxx#4 $)

>  <Rbt.Library>
libRbt.so (2013.1, Build901 2013/11/27)

>  <Rbt.Parameter_File>
/export/apps/rDock/src/rDock_2013.1_src/data/scripts/dock_solv.prm

>  <Rbt.Receptor>
prm/pocket_docking_5.prm

>  <SCORE>
-9.13765

>  <SCORE.INTER>
0.981167

>  <SCORE.INTER.CONST>
1

>  <SCORE.INTER.POLAR>
0

>  <SCORE.INTER.ROT>
11

>  <SCORE.INTER.SOLV>
10.1528

>  <SCORE.INTER.VDW>
-13.6635

>  <SCORE.INTER.norm>
0.0700834

>  <SCORE.INTRA>
-10.1188

>  <SCORE.INTRA.DIHEDRAL>
-17.7811

>  <SCORE.INTRA.DIHEDRAL.0>
19.1003

>  <SCORE.INTRA.POLAR>
0

>  <SCORE.INTRA.POLAR.0>
0

>  <SCORE.INTRA.REPUL>
0

>  <SCORE.INTRA.REPUL.0>
0

>  <SCORE.INTRA.SOLV>
-1.12104

>  <SCORE.INTRA.SOLV.lig_0>
-47.5333

>  <SCORE.INTRA.VDW>
-0.667747

>  <SCORE.INTRA.VDW.0>
-0.287413

>  <SCORE.INTRA.norm>
-0.722773

>  <SCORE.RESTR>
0

>  <SCORE.RESTR.CAVITY>
0

>  <SCORE.RESTR.norm>
0

>  <SCORE.SYSTEM>
0

>  <SCORE.SYSTEM.CONST>
0

>  <SCORE.SYSTEM.DIHEDRAL>
0

>  <SCORE.SYSTEM.SOLV>
0

>  <SCORE.SYSTEM.norm>
0

>  <SCORE.heavy>
14

>  <SCORE.norm>
-0.652689

>  <RMSD>
4.013

$$$$
ligand
 OpenBabel11021811493D
libRbt.so/2013.1/901 2013/11/27
 14 13  0  0  0  0  0  0  0  0999 V2000
   53.5145    4.2081    1.7039 N   0  0  0  0  0  0  0  0  0  0  0  0
   52.9694    2.9154    2.0558 C   0  0  0  0  0  0  0  0  0  0  0  0
   54.1259    1.9621    2.4208 C   0  0  0  0  0  0  0  0  0  0  0  0
   55.0636    1.6403    1.2468 C   0  0  0  0  0  0  0  0  0  0  0  0
   55.8286    2.7754    0.7084 N   0  0  0  0  0  0  0  0  0  0  0  0
   56.7353    2.6704   -0.4335 C   0  0  0  0  0  0  0  0  0  0  0  0
   58.0110    1.8980   -0.1138 C   0  0  0  0  0  0  0  0  0  0  0  0
   58.9333    2.6188    0.8749 C   0  0  0  0  0  0  0  0  0  0  0  0
   58.3851    2.5790    2.3062 C   0  0  0  0  0  0  0  0  0  0  0  0
   58.4648    1.2123    2.8173 N   0  0  0  0  0  0  0  0  0  0  0  0
   59.7113    0.5351    3.1793 C   0  0  0  0  0  0  0  0  0  0  0  0
   59.5521   -0.9878    3.2879 C   0  0  0  0  0  0  0  0  0  0  0  0
   60.8727   -1.6622    3.6735 C   0  0  0  0  0  0  0  0  0  0  0  0
   60.6849   -3.1095    3.7099 N   0  0  0  0  0  0  0  0  0  0  0  0
  1  2  1  0  0  0  0
  2  3  1  0  0  0  0
  3  4  1  0  0  0  0
  4  5  1  0  0  0  0
  5  6  1  0  0  0  0
  6  7  1  0  0  0  0
  7  8  1  0  0  0  0
  8  9  1  0  0  0  0
  9 10  1  0  0  0  0
 10 11  1  0  0  0  0
 11 12  1  0  0  0  0
 12 13  1  0  0  0  0
 13 14  1  0  0  0  0
M  END
>  <CHROM.1>
-65.23693825,64.78728496,-177.91978136,-71.04979092,-67.60478382,73.55805787
69.54458810,71.34854002,-163.15704022,-179.76165756,-177.66814862,57.34669038
1.37542863,1.95970528,2.50402822,0.24822240,-0.75229423

>  <Name>
ligand

>  <RI>
0

>  <Rbt.Current_Directory>
/home/itssahil/PROJECTS/Mol_Feturizer/New_Systems/rnas/4FAW

>  <Rbt.Executable>
rbdock ($Id: //depot/dev/client3/rdock/2013.1/src/exe/rbdock.cxx#4 $)

>  <Rbt.Library>
libRbt.so (2013.1, Build901 2013/11/27)

>  <Rbt.Parameter_File>
/export/apps/rDock/src/rDock_2013.1_src/data/scripts/dock_solv.prm

>  <Rbt.Receptor>
prm/pocket_docking_3.prm

>  <SCORE>
-1.55001

>  <SCORE.INTER>
5.97312

>  <SCORE.INTER.CONST>
1

>  <SCORE.INTER.POLAR>
0

>  <SCORE.INTER.ROT>
11

>  <SCORE.INTER.SOLV>
4.03878

>  <SCORE.INTER.VDW>
-8.29751

>  <SCORE.INTER.norm>
0.426652

>  <SCORE.INTRA>
-7.52313

>  <SCORE.INTRA.DIHEDRAL>
-17.1749

>  <SCORE.INTRA.DIHEDRAL.0>
19.1003

>  <SCORE.INTRA.POLAR>
0

>  <SCORE.INTRA.POLAR.0>
0

>  <SCORE.INTRA.REPUL>
0

>  <SCORE.INTRA.REPUL.0>
0

>  <SCORE.INTRA.SOLV>
3.46285

>  <SCORE.INTRA.SOLV.lig_0>
-47.5333

>  <SCORE.INTRA.VDW>
-0.667113

>  <SCORE.INTRA.VDW.0>
-0.287413

>  <SCORE.INTRA.norm>
-0.537367

>  <SCORE.RESTR>
0

>  <SCORE.RESTR.CAVITY>
0

>  <SCORE.RESTR.norm>
0

>  <SCORE.SYSTEM>
0

>  <SCORE.SYSTEM.CONST>
0

>  <SCORE.SYSTEM.DIHEDRAL>
0

>  <SCORE.SYSTEM.SOLV>
0

>  <SCORE.SYSTEM.norm>
0

>  <SCORE.heavy>
14

>  <SCORE.norm>
-0.110715

>  <RMSD>
4.015

$$$$
ligand
 OpenBabel11021811493D
libRbt.so/2013.1/901 2013/11/27
 14 13  0  0  0  0  0  0  0  0999 V2000
   53.0102    3.6370    0.9601 N   0  0  0  0  0  0  0  0  0  0  0  0
   52.1664    2.9129    1.8852 C   0  0  0  0  0  0  0  0  0  0  0  0
   52.9642    2.6192    3.1724 C   0  0  0  0  0  0  0  0  0  0  0  0
   54.1784    1.7022    2.9586 C   0  0  0  0  0  0  0  0  0  0  0  0
   55.2594    2.2541    2.1277 N   0  0  0  0  0  0  0  0  0  0  0  0
   55.8412    1.5505    0.9860 C   0  0  0  0  0  0  0  0  0  0  0  0
   56.6592    0.3287    1.3915 C   0  0  0  0  0  0  0  0  0  0  0  0
   57.2678   -0.4240    0.2038 C   0  0  0  0  0  0  0  0  0  0  0  0
   58.0816   -1.6437    0.6521 C   0  0  0  0  0  0  0  0  0  0  0  0
   59.2848   -1.1934    1.3486 N   0  0  0  0  0  0  0  0  0  0  0  0
   59.5957   -1.4990    2.7462 C   0  0  0  0  0  0  0  0  0  0  0  0
   58.9018   -0.5491    3.7323 C   0  0  0  0  0  0  0  0  0  0  0  0
   59.2171   -0.9223    5.1845 C   0  0  0  0  0  0  0  0  0  0  0  0
   58.5605    0.0242    6.0813 N   0  0  0  0  0  0  0  0  0  0  0  0
  1  2  1  0  0  0  0
  2  3  1  0  0  0  0
  3  4  1  0  0  0  0
  4  5  1  0  0  0  0
  5  6  1  0  0  0  0
  6  7  1  0  0  0  0
  7  8  1  0  0  0  0
  8  9  1  0  0  0  0
  9 10  1  0  0  0  0
 10 11  1  0  0  0  0
 11 12  1  0  0  0  0
 12 13  1  0  0  0  0
 13 14  1  0  0  0  0
M  END
>  <CHROM.1>
-63.57957761,65.61378176,-128.76556367,-69.13122988,179.63140426,179.98556280
-68.68456128,118.43957460,-82.83668256,178.38159079,178.77772945,56.49916241
0.62813492,2.38778193,-3.05149635,-0.59997627,1.40794677

>  <Name>
ligand

>  <RI>
0

>  <Rbt.Current_Directory>
/home/itssahil/PROJECTS/Mol_Feturizer/New_Systems/rnas/4FAW

>  <Rbt.Executable>
rbdock ($Id: //depot/dev/client3/rdock/2013.1/src/exe/rbdock.cxx#4 $)

>  <Rbt.Library>
libRbt.so (2013.1, Build901 2013/11/27)

>  <Rbt.Parameter_File>
/export/apps/rDock/src/rDock_2013.1_src/data/scripts/dock_solv.prm

>  <Rbt.Receptor>
prm/pocket_docking_3.prm

>  <SCORE>
-2.05228

>  <SCORE.INTER>
5.77859

>  <SCORE.INTER.CONST>
1

>  <SCORE.INTER.POLAR>
0

>  <SCORE.INTER.ROT>
11

>  <SCORE.INTER.SOLV>
6.40653

>  <SCORE.INTER.VDW>
-9.21645

>  <SCORE.INTER.norm>
0.412757

>  <SCORE.INTRA>
-7.83087

>  <SCORE.INTRA.DIHEDRAL>
-15.8537

>  <SCORE.INTRA.DIHEDRAL.0>
19.1003

>  <SCORE.INTRA.POLAR>
0

>  <SCORE.INTRA.POLAR.0>
0

>  <SCORE.INTRA.REPUL>
0

>  <SCORE.INTRA.REPUL.0>
0

>  <SCORE.INTRA.SOLV>
2.22092

>  <SCORE.INTRA.SOLV.lig_0>
-47.5333

>  <SCORE.INTRA.VDW>
-1.01448

>  <SCORE.INTRA.VDW.0>
-0.287413

>  <SCORE.INTRA.norm>
-0.559348

>  <SCORE.RESTR>
0

>  <SCORE.RESTR.CAVITY>
0

>  <SCORE.RESTR.norm>
0

>  <SCORE.SYSTEM>
0

>  <SCORE.SYSTEM.CONST>
0

>  <SCORE.SYSTEM.DIHEDRAL>
0

>  <SCORE.SYSTEM.SOLV>
0

>  <SCORE.SYSTEM.norm>
0

>  <SCORE.heavy>
14

>  <SCORE.norm>
-0.146591

>  <RMSD>
4.017

$$$$
ligand
 OpenBabel11021811493D
libRbt.so/2013.1/901 2013/11/27
 14 13  0  0  0  0  0  0  0  0999 V2000
   60.2481    0.4884    7.1530 N   0  0  0  0  0  0  0  0  0  0  0  0
   60.9652    1.5715    6.5168 C   0  0  0  0  0  0  0  0  0  0  0  0
   60.7310    1.5060    4.9935 C   0  0  0  0  0  0  0  0  0  0  0  0
   59.2734    1.7534    4.5748 C   0  0  0  0  0  0  0  0  0  0  0  0
   58.9921    1.6387    3.1357 N   0  0  0  0  0  0  0  0  0  0  0  0
   59.3790    2.6495    2.1531 C   0  0  0  0  0  0  0  0  0  0  0  0
   58.6479    2.4997    0.8229 C   0  0  0  0  0  0  0  0  0  0  0  0
   57.1322    2.6964    0.9302 C   0  0  0  0  0  0  0  0  0  0  0  0
   56.4371    1.4794    1.5519 C   0  0  0  0  0  0  0  0  0  0  0  0
   55.0224    1.7828    1.7577 N   0  0  0  0  0  0  0  0  0  0  0  0
   54.0309    1.8751    0.6845 C   0  0  0  0  0  0  0  0  0  0  0  0
   52.7074    2.4991    1.1484 C   0  0  0  0  0  0  0  0  0  0  0  0
   52.9128    3.9269    1.6650 C   0  0  0  0  0  0  0  0  0  0  0  0
   51.6357    4.4639    2.1252 N   0  0  0  0  0  0  0  0  0  0  0  0
  1  2  1  0  0  0  0
  2  3  1  0  0  0  0
  3  4  1  0  0  0  0
  4  5  1  0  0  0  0
  5  6  1  0  0  0  0
  6  7  1  0  0  0  0
  7  8  1  0  0  0  0
  8  9  1  0  0  0  0
  9 10  1  0  0  0  0
 10 11  1  0  0  0  0
 11 12  1  0  0  0  0
 12 13  1  0  0  0  0
 13 14  1  0  0  0  0
M  END
>  <CHROM.1>
65.14874679,-177.27436227,-74.73711110,-163.78856305,63.45156478,-75.78778562
174.01046796,73.00219619,-167.51318568,60.62348270,-178.55144392,57.00844986
2.20223981,2.80061129,0.51692605,-0.18810746,1.65280331

>  <Name>
ligand

>  <RI>
0

>  <Rbt.Current_Directory>
/home/itssahil/PROJECTS/Mol_Feturizer/New_Systems/rnas/4FAW

>  <Rbt.Executable>
rbdock ($Id: //depot/dev/client3/rdock/2013.1/src/exe/rbdock.cxx#4 $)

>  <Rbt.Library>
libRbt.so (2013.1, Build901 2013/11/27)

>  <Rbt.Parameter_File>
/export/apps/rDock/src/rDock_2013.1_src/data/scripts/dock_solv.prm

>  <Rbt.Receptor>
prm/pocket_docking_4.prm

>  <SCORE>
-3.42669

>  <SCORE.INTER>
5.0766

>  <SCORE.INTER.CONST>
1

>  <SCORE.INTER.POLAR>
0

>  <SCORE.INTER.ROT>
11

>  <SCORE.INTER.SOLV>
3.96502

>  <SCORE.INTER.VDW>
-8.87061

>  <SCORE.INTER.norm>
0.362614

>  <SCORE.INTRA>
-8.50329

>  <SCORE.INTRA.DIHEDRAL>
-17.1654

>  <SCORE.INTRA.DIHEDRAL.0>
19.1003

>  <SCORE.INTRA.POLAR>
0

>  <SCORE.INTRA.POLAR.0>
0

>  <SCORE.INTRA.REPUL>
0

>  <SCORE.INTRA.REPUL.0>
0

>  <SCORE.INTRA.SOLV>
0.718494

>  <SCORE.INTRA.SOLV.lig_0>
-47.5333

>  <SCORE.INTRA.VDW>
-0.279848

>  <SCORE.INTRA.VDW.0>
-0.287413

>  <SCORE.INTRA.norm>
-0.607378

>  <SCORE.RESTR>
0

>  <SCORE.RESTR.CAVITY>
0

>  <SCORE.RESTR.norm>
0

>  <SCORE.SYSTEM>
0

>  <SCORE.SYSTEM.CONST>
0

>  <SCORE.SYSTEM.DIHEDRAL>
0

>  <SCORE.SYSTEM.SOLV>
0

>  <SCORE.SYSTEM.norm>
0

>  <SCORE.heavy>
14

>  <SCORE.norm>
-0.244764

>  <RMSD>
4.034

$$$$
ligand
 OpenBabel11021811493D
libRbt.so/2013.1/901 2013/11/27
 14 13  0  0  0  0  0  0  0  0999 V2000
   61.4549   -3.9186    4.4165 N   0  0  0  0  0  0  0  0  0  0  0  0
   61.2107   -2.7483    3.6025 C   0  0  0  0  0  0  0  0  0  0  0  0
   59.7731   -2.8108    3.0466 C   0  0  0  0  0  0  0  0  0  0  0  0
   59.4349   -1.6807    2.0619 C   0  0  0  0  0  0  0  0  0  0  0  0
   58.1127   -1.7626    1.4226 N   0  0  0  0  0  0  0  0  0  0  0  0
   57.7392   -0.9939    0.2366 C   0  0  0  0  0  0  0  0  0  0  0  0
   57.8791    0.5121    0.4327 C   0  0  0  0  0  0  0  0  0  0  0  0
   57.7067    1.3178   -0.8590 C   0  0  0  0  0  0  0  0  0  0  0  0
   57.9162    2.8197   -0.6322 C   0  0  0  0  0  0  0  0  0  0  0  0
   57.5926    3.5443   -1.8593 N   0  0  0  0  0  0  0  0  0  0  0  0
   56.8309    4.7937   -1.9067 C   0  0  0  0  0  0  0  0  0  0  0  0
   55.3578    4.6085   -1.5172 C   0  0  0  0  0  0  0  0  0  0  0  0
   54.5920    5.9342   -1.5781 C   0  0  0  0  0  0  0  0  0  0  0  0
   55.0866    6.8276   -0.5347 N   0  0  0  0  0  0  0  0  0  0  0  0
  1  2  1  0  0  0  0
  2  3  1  0  0  0  0
  3  4  1  0  0  0  0
  4  5  1  0  0  0  0
  5  6  1  0  0  0  0
  6  7  1  0  0  0  0
  7  8  1  0  0  0  0
  8  9  1  0  0  0  0
  9 10  1  0  0  0  0
 10 11  1  0  0  0  0
 11 12  1  0  0  0  0
 12 13  1  0  0  0  0
 13 14  1  0  0  0  0
M  END
>  <CHROM.1>
-174.85917183,175.18667008,-164.29778558,-57.69069149,170.87097054,-177.44908917
-173.69481084,137.39684145,-68.39864907,-179.98157464,-67.30731861,57.90617743
1.17449650,0.45212870,-0.42414048,-1.07150534,0.58506413

>  <Name>
ligand

>  <RI>
0

>  <Rbt.Current_Directory>
/home/itssahil/PROJECTS/Mol_Feturizer/New_Systems/rnas/4FAW

>  <Rbt.Executable>
rbdock ($Id: //depot/dev/client3/rdock/2013.1/src/exe/rbdock.cxx#4 $)

>  <Rbt.Library>
libRbt.so (2013.1, Build901 2013/11/27)

>  <Rbt.Parameter_File>
/export/apps/rDock/src/rDock_2013.1_src/data/scripts/dock_solv.prm

>  <Rbt.Receptor>
prm/pocket_docking_5.prm

>  <SCORE>
-8.3619

>  <SCORE.INTER>
0.849719

>  <SCORE.INTER.CONST>
1

>  <SCORE.INTER.POLAR>
0

>  <SCORE.INTER.ROT>
11

>  <SCORE.INTER.SOLV>
11.9035

>  <SCORE.INTER.VDW>
-14.3347

>  <SCORE.INTER.norm>
0.0606942

>  <SCORE.INTRA>
-9.21162

>  <SCORE.INTRA.DIHEDRAL>
-17.0076

>  <SCORE.INTRA.DIHEDRAL.0>
19.1003

>  <SCORE.INTRA.POLAR>
0

>  <SCORE.INTRA.POLAR.0>
0

>  <SCORE.INTRA.REPUL>
0

>  <SCORE.INTRA.REPUL.0>
0

>  <SCORE.INTRA.SOLV>
-0.752547

>  <SCORE.INTRA.SOLV.lig_0>
-47.5333

>  <SCORE.INTRA.VDW>
-0.331525

>  <SCORE.INTRA.VDW.0>
-0.287413

>  <SCORE.INTRA.norm>
-0.657973

>  <SCORE.RESTR>
0

>  <SCORE.RESTR.CAVITY>
0

>  <SCORE.RESTR.norm>
0

>  <SCORE.SYSTEM>
0

>  <SCORE.SYSTEM.CONST>
0

>  <SCORE.SYSTEM.DIHEDRAL>
0

>  <SCORE.SYSTEM.SOLV>
0

>  <SCORE.SYSTEM.norm>
0

>  <SCORE.heavy>
14

>  <SCORE.norm>
-0.597278

>  <RMSD>
4.035

$$$$
ligand
 OpenBabel11021811493D
libRbt.so/2013.1/901 2013/11/27
 14 13  0  0  0  0  0  0  0  0999 V2000
   61.2248   -1.7509    5.0019 N   0  0  0  0  0  0  0  0  0  0  0  0
   60.0390   -1.6613    4.1785 C   0  0  0  0  0  0  0  0  0  0  0  0
   60.2363   -2.5219    2.9136 C   0  0  0  0  0  0  0  0  0  0  0  0
   59.0180   -2.5443    1.9776 C   0  0  0  0  0  0  0  0  0  0  0  0
   58.5996   -1.2409    1.4395 N   0  0  0  0  0  0  0  0  0  0  0  0
   57.2510   -0.9644    0.9476 C   0  0  0  0  0  0  0  0  0  0  0  0
   57.1344    0.3888    0.2537 C   0  0  0  0  0  0  0  0  0  0  0  0
   57.9779    0.4997   -1.0205 C   0  0  0  0  0  0  0  0  0  0  0  0
   57.6582    1.7729   -1.8127 C   0  0  0  0  0  0  0  0  0  0  0  0
   57.8533    2.9391   -0.9539 N   0  0  0  0  0  0  0  0  0  0  0  0
   56.8467    3.9776   -0.7266 C   0  0  0  0  0  0  0  0  0  0  0  0
   56.6809    4.9195   -1.9273 C   0  0  0  0  0  0  0  0  0  0  0  0
   55.6786    6.0386   -1.6263 C   0  0  0  0  0  0  0  0  0  0  0  0
   55.5423    6.8955   -2.8003 N   0  0  0  0  0  0  0  0  0  0  0  0
  1  2  1  0  0  0  0
  2  3  1  0  0  0  0
  3  4  1  0  0  0  0
  4  5  1  0  0  0  0
  5  6  1  0  0  0  0
  6  7  1  0  0  0  0
  7  8  1  0  0  0  0
  8  9  1  0  0  0  0
  9 10  1  0  0  0  0
 10 11  1  0  0  0  0
 11 12  1  0  0  0  0
 12 13  1  0  0  0  0
 13 14  1  0  0  0  0
M  END
>  <CHROM.1>
178.06124601,60.29214864,-157.48943122,-171.34029821,63.89341033,170.41360923
56.58652620,-126.68454685,-74.44263280,-176.81665393,-179.27184297,57.98135947
1.19608881,0.41738844,-0.72887552,-1.04680515,0.14916728

>  <Name>
ligand

>  <RI>
0

>  <Rbt.Current_Directory>
/home/itssahil/PROJECTS/Mol_Feturizer/New_Systems/rnas/4FAW

>  <Rbt.Executable>
rbdock ($Id: //depot/dev/client3/rdock/2013.1/src/exe/rbdock.cxx#4 $)

>  <Rbt.Library>
libRbt.so (2013.1, Build901 2013/11/27)

>  <Rbt.Parameter_File>
/export/apps/rDock/src/rDock_2013.1_src/data/scripts/dock_solv.prm

>  <Rbt.Receptor>
prm/pocket_docking_7.prm

>  <SCORE>
-8.62963

>  <SCORE.INTER>
0.680424

>  <SCORE.INTER.CONST>
1

>  <SCORE.INTER.POLAR>
0

>  <SCORE.INTER.ROT>
11

>  <SCORE.INTER.SOLV>
10.8985

>  <SCORE.INTER.VDW>
-14.1126

>  <SCORE.INTER.norm>
0.0486017

>  <SCORE.INTRA>
-9.31006

>  <SCORE.INTRA.DIHEDRAL>
-16.8085

>  <SCORE.INTRA.DIHEDRAL.0>
19.1003

>  <SCORE.INTRA.POLAR>
0

>  <SCORE.INTRA.POLAR.0>
0

>  <SCORE.INTRA.REPUL>
0

>  <SCORE.INTRA.REPUL.0>
0

>  <SCORE.INTRA.SOLV>
-0.400498

>  <SCORE.INTRA.SOLV.lig_0>
-47.5333

>  <SCORE.INTRA.VDW>
-0.705564

>  <SCORE.INTRA.VDW.0>
-0.287413

>  <SCORE.INTRA.norm>
-0.665004

>  <SCORE.RESTR>
0

>  <SCORE.RESTR.CAVITY>
0

>  <SCORE.RESTR.norm>
0

>  <SCORE.SYSTEM>
0

>  <SCORE.SYSTEM.CONST>
0

>  <SCORE.SYSTEM.DIHEDRAL>
0

>  <SCORE.SYSTEM.SOLV>
0

>  <SCORE.SYSTEM.norm>
0

>  <SCORE.heavy>
14

>  <SCORE.norm>
-0.616402

>  <RMSD>
4.052

$$$$
ligand
 OpenBabel11021811493D
libRbt.so/2013.1/901 2013/11/27
 14 13  0  0  0  0  0  0  0  0999 V2000
   59.4126    0.0106    4.8971 N   0  0  0  0  0  0  0  0  0  0  0  0
   60.5819   -0.8270    5.0493 C   0  0  0  0  0  0  0  0  0  0  0  0
   61.2535   -1.0115    3.6730 C   0  0  0  0  0  0  0  0  0  0  0  0
   60.4283   -1.8480    2.6829 C   0  0  0  0  0  0  0  0  0  0  0  0
   59.1574   -1.2515    2.2440 N   0  0  0  0  0  0  0  0  0  0  0  0
   58.3311   -1.8059    1.1732 C   0  0  0  0  0  0  0  0  0  0  0  0
   57.0180   -1.0540    0.9822 C   0  0  0  0  0  0  0  0  0  0  0  0
   57.2030    0.4341    0.6682 C   0  0  0  0  0  0  0  0  0  0  0  0
   57.7836    0.6582   -0.7331 C   0  0  0  0  0  0  0  0  0  0  0  0
   58.0185    2.0861   -0.9371 N   0  0  0  0  0  0  0  0  0  0  0  0
   56.9603    3.0821   -1.1145 C   0  0  0  0  0  0  0  0  0  0  0  0
   56.5218    3.7273    0.2075 C   0  0  0  0  0  0  0  0  0  0  0  0
   55.4669    4.8143   -0.0233 C   0  0  0  0  0  0  0  0  0  0  0  0
   54.2406    4.2005   -0.5240 N   0  0  0  0  0  0  0  0  0  0  0  0
  1  2  1  0  0  0  0
  2  3  1  0  0  0  0
  3  4  1  0  0  0  0
  4  5  1  0  0  0  0
  5  6  1  0  0  0  0
  6  7  1  0  0  0  0
  7  8  1  0  0  0  0
  8  9  1  0  0  0  0
  9 10  1  0  0  0  0
 10 11  1  0  0  0  0
 11 12  1  0  0  0  0
 12 13  1  0  0  0  0
 13 14  1  0  0  0  0
M  END
>  <CHROM.1>
-68.27185977,65.93884257,171.24123709,175.91507712,58.28457084,70.05134799
-176.26391869,-71.19545656,91.89576945,177.04823290,66.27758775,58.02710207
0.80090452,1.30320307,-0.11191071,-0.97748226,0.72958995

>  <Name>
ligand

>  <RI>
0

>  <Rbt.Current_Directory>
/home/itssahil/PROJECTS/Mol_Feturizer/New_Systems/rnas/4FAW

>  <Rbt.Executable>
rbdock ($Id: //depot/dev/client3/rdock/2013.1/src/exe/rbdock.cxx#4 $)

>  <Rbt.Library>
libRbt.so (2013.1, Build901 2013/11/27)

>  <Rbt.Parameter_File>
/export/apps/rDock/src/rDock_2013.1_src/data/scripts/dock_solv.prm

>  <Rbt.Receptor>
prm/pocket_docking_3.prm

>  <SCORE>
-6.00114

>  <SCORE.INTER>
1.64779

>  <SCORE.INTER.CONST>
1

>  <SCORE.INTER.POLAR>
0

>  <SCORE.INTER.ROT>
11

>  <SCORE.INTER.SOLV>
8.36028

>  <SCORE.INTER.VDW>
-12.6216

>  <SCORE.INTER.norm>
0.117699

>  <SCORE.INTRA>
-7.66192

>  <SCORE.INTRA.DIHEDRAL>
-17.2193

>  <SCORE.INTRA.DIHEDRAL.0>
19.1003

>  <SCORE.INTRA.POLAR>
0

>  <SCORE.INTRA.POLAR.0>
0

>  <SCORE.INTRA.REPUL>
0

>  <SCORE.INTRA.REPUL.0>
0

>  <SCORE.INTRA.SOLV>
2.59914

>  <SCORE.INTRA.SOLV.lig_0>
-47.5333

>  <SCORE.INTRA.VDW>
-0.351829

>  <SCORE.INTRA.VDW.0>
-0.287413

>  <SCORE.INTRA.norm>
-0.54728

>  <SCORE.RESTR>
0.0129885

>  <SCORE.RESTR.CAVITY>
0.0129885

>  <SCORE.RESTR.norm>
0.000927753

>  <SCORE.SYSTEM>
0

>  <SCORE.SYSTEM.CONST>
0

>  <SCORE.SYSTEM.DIHEDRAL>
0

>  <SCORE.SYSTEM.SOLV>
0

>  <SCORE.SYSTEM.norm>
0

>  <SCORE.heavy>
14

>  <SCORE.norm>
-0.428653

>  <RMSD>
4.080

$$$$
ligand
 OpenBabel11021811493D
libRbt.so/2013.1/901 2013/11/27
 14 13  0  0  0  0  0  0  0  0999 V2000
   60.9452   -2.5652    4.1488 N   0  0  0  0  0  0  0  0  0  0  0  0
   60.7738   -3.2167    2.8688 C   0  0  0  0  0  0  0  0  0  0  0  0
   59.3616   -2.9082    2.3303 C   0  0  0  0  0  0  0  0  0  0  0  0
   59.1193   -1.4208    2.0301 C   0  0  0  0  0  0  0  0  0  0  0  0
   57.8018   -1.0873    1.4673 N   0  0  0  0  0  0  0  0  0  0  0  0
   57.6001   -0.6441    0.0890 C   0  0  0  0  0  0  0  0  0  0  0  0
   57.8319    0.8519   -0.0969 C   0  0  0  0  0  0  0  0  0  0  0  0
   57.7888    1.3023   -1.5608 C   0  0  0  0  0  0  0  0  0  0  0  0
   58.0566    2.8047   -1.7082 C   0  0  0  0  0  0  0  0  0  0  0  0
   57.0099    3.5532   -1.0155 N   0  0  0  0  0  0  0  0  0  0  0  0
   56.5505    4.8877   -1.4050 C   0  0  0  0  0  0  0  0  0  0  0  0
   55.8623    5.6393   -0.2571 C   0  0  0  0  0  0  0  0  0  0  0  0
   55.4322    7.0455   -0.6877 C   0  0  0  0  0  0  0  0  0  0  0  0
   54.4184    6.9430   -1.7331 N   0  0  0  0  0  0  0  0  0  0  0  0
  1  2  1  0  0  0  0
  2  3  1  0  0  0  0
  3  4  1  0  0  0  0
  4  5  1  0  0  0  0
  5  6  1  0  0  0  0
  6  7  1  0  0  0  0
  7  8  1  0  0  0  0
  8  9  1  0  0  0  0
  9 10  1  0  0  0  0
 10 11  1  0  0  0  0
 11 12  1  0  0  0  0
 12 13  1  0  0  0  0
 13 14  1  0  0  0  0
M  END
>  <CHROM.1>
64.08102419,177.82254606,-110.17105208,-83.74410582,173.10150161,-178.73348199
-62.31743082,-150.39882007,-158.43983473,178.31358307,64.38648213,57.75383287
1.51315424,0.31911565,-0.06431166,-1.14815253,1.06773936

>  <Name>
ligand

>  <RI>
0

>  <Rbt.Current_Directory>
/home/itssahil/PROJECTS/Mol_Feturizer/New_Systems/rnas/4FAW

>  <Rbt.Executable>
rbdock ($Id: //depot/dev/client3/rdock/2013.1/src/exe/rbdock.cxx#4 $)

>  <Rbt.Library>
libRbt.so (2013.1, Build901 2013/11/27)

>  <Rbt.Parameter_File>
/export/apps/rDock/src/rDock_2013.1_src/data/scripts/dock_solv.prm

>  <Rbt.Receptor>
prm/pocket_docking_6.prm

>  <SCORE>
-9.6643

>  <SCORE.INTER>
-1.22764

>  <SCORE.INTER.CONST>
1

>  <SCORE.INTER.POLAR>
0

>  <SCORE.INTER.ROT>
11

>  <SCORE.INTER.SOLV>
10.0259

>  <SCORE.INTER.VDW>
-15.0937

>  <SCORE.INTER.norm>
-0.0876886

>  <SCORE.INTRA>
-8.43666

>  <SCORE.INTRA.DIHEDRAL>
-16.2712

>  <SCORE.INTRA.DIHEDRAL.0>
19.1003

>  <SCORE.INTRA.POLAR>
0

>  <SCORE.INTRA.POLAR.0>
0

>  <SCORE.INTRA.REPUL>
0

>  <SCORE.INTRA.REPUL.0>
0

>  <SCORE.INTRA.SOLV>
0.401858

>  <SCORE.INTRA.SOLV.lig_0>
-47.5333

>  <SCORE.INTRA.VDW>
-0.501997

>  <SCORE.INTRA.VDW.0>
-0.287413

>  <SCORE.INTRA.norm>
-0.602619

>  <SCORE.RESTR>
0

>  <SCORE.RESTR.CAVITY>
0

>  <SCORE.RESTR.norm>
0

>  <SCORE.SYSTEM>
0

>  <SCORE.SYSTEM.CONST>
0

>  <SCORE.SYSTEM.DIHEDRAL>
0

>  <SCORE.SYSTEM.SOLV>
0

>  <SCORE.SYSTEM.norm>
0

>  <SCORE.heavy>
14

>  <SCORE.norm>
-0.690307

>  <RMSD>
4.095

$$$$
ligand
 OpenBabel11021811493D
libRbt.so/2013.1/901 2013/11/27
 14 13  0  0  0  0  0  0  0  0999 V2000
   59.9626    2.1533    4.0691 N   0  0  0  0  0  0  0  0  0  0  0  0
   59.5701    3.3314    3.3275 C   0  0  0  0  0  0  0  0  0  0  0  0
   58.3408    2.9948    2.4585 C   0  0  0  0  0  0  0  0  0  0  0  0
   58.6451    2.0491    1.2863 C   0  0  0  0  0  0  0  0  0  0  0  0
   59.1044    0.7008    1.6537 N   0  0  0  0  0  0  0  0  0  0  0  0
   58.4900   -0.5272    1.1523 C   0  0  0  0  0  0  0  0  0  0  0  0
   57.5454   -1.1762    2.1587 C   0  0  0  0  0  0  0  0  0  0  0  0
   56.3034   -0.3334    2.4664 C   0  0  0  0  0  0  0  0  0  0  0  0
   55.3310   -0.2886    1.2818 C   0  0  0  0  0  0  0  0  0  0  0  0
   54.2496    0.6486    1.5784 N   0  0  0  0  0  0  0  0  0  0  0  0
   53.9059    1.8053    0.7494 C   0  0  0  0  0  0  0  0  0  0  0  0
   52.5836    2.4646    1.1656 C   0  0  0  0  0  0  0  0  0  0  0  0
   52.6692    3.0455    2.5808 C   0  0  0  0  0  0  0  0  0  0  0  0
   51.3965    3.6727    2.9247 N   0  0  0  0  0  0  0  0  0  0  0  0
  1  2  1  0  0  0  0
  2  3  1  0  0  0  0
  3  4  1  0  0  0  0
  4  5  1  0  0  0  0
  5  6  1  0  0  0  0
  6  7  1  0  0  0  0
  7  8  1  0  0  0  0
  8  9  1  0  0  0  0
  9 10  1  0  0  0  0
 10 11  1  0  0  0  0
 11 12  1  0  0  0  0
 12 13  1  0  0  0  0
 13 14  1  0  0  0  0
M  END
>  <CHROM.1>
-69.88822237,63.55631355,127.31393702,-100.90285389,65.69809848,70.77830500
-173.53050283,122.85306820,169.93352267,63.84184288,179.38195507,56.29272481
1.46707039,2.06073771,-0.12952688,-0.13724906,0.37351996

>  <Name>
ligand

>  <RI>
0

>  <Rbt.Current_Directory>
/home/itssahil/PROJECTS/Mol_Feturizer/New_Systems/rnas/4FAW

>  <Rbt.Executable>
rbdock ($Id: //depot/dev/client3/rdock/2013.1/src/exe/rbdock.cxx#4 $)

>  <Rbt.Library>
libRbt.so (2013.1, Build901 2013/11/27)

>  <Rbt.Parameter_File>
/export/apps/rDock/src/rDock_2013.1_src/data/scripts/dock_solv.prm

>  <Rbt.Receptor>
prm/pocket_docking_4.prm

>  <SCORE>
-4.09177

>  <SCORE.INTER>
3.2643

>  <SCORE.INTER.CONST>
1

>  <SCORE.INTER.POLAR>
0

>  <SCORE.INTER.ROT>
11

>  <SCORE.INTER.SOLV>
8.97393

>  <SCORE.INTER.VDW>
-11.7484

>  <SCORE.INTER.norm>
0.233164

>  <SCORE.INTRA>
-7.35607

>  <SCORE.INTRA.DIHEDRAL>
-14.525

>  <SCORE.INTRA.DIHEDRAL.0>
19.1003

>  <SCORE.INTRA.POLAR>
0

>  <SCORE.INTRA.POLAR.0>
0

>  <SCORE.INTRA.REPUL>
0

>  <SCORE.INTRA.REPUL.0>
0

>  <SCORE.INTRA.SOLV>
2.32648

>  <SCORE.INTRA.SOLV.lig_0>
-47.5333

>  <SCORE.INTRA.VDW>
-1.2568

>  <SCORE.INTRA.VDW.0>
-0.287413

>  <SCORE.INTRA.norm>
-0.525433

>  <SCORE.RESTR>
0

>  <SCORE.RESTR.CAVITY>
0

>  <SCORE.RESTR.norm>
0

>  <SCORE.SYSTEM>
0

>  <SCORE.SYSTEM.CONST>
0

>  <SCORE.SYSTEM.DIHEDRAL>
0

>  <SCORE.SYSTEM.SOLV>
0

>  <SCORE.SYSTEM.norm>
0

>  <SCORE.heavy>
14

>  <SCORE.norm>
-0.292269

>  <RMSD>
4.138

$$$$
ligand
 OpenBabel11021811493D
libRbt.so/2013.1/901 2013/11/27
 14 13  0  0  0  0  0  0  0  0999 V2000
   55.0237    7.1983    0.5786 N   0  0  0  0  0  0  0  0  0  0  0  0
   55.8535    6.3507   -0.2491 C   0  0  0  0  0  0  0  0  0  0  0  0
   55.1202    5.0172   -0.5011 C   0  0  0  0  0  0  0  0  0  0  0  0
   55.8888    4.0440   -1.4084 C   0  0  0  0  0  0  0  0  0  0  0  0
   57.2302    3.6589   -0.9439 N   0  0  0  0  0  0  0  0  0  0  0  0
   58.1072    2.7451   -1.6737 C   0  0  0  0  0  0  0  0  0  0  0  0
   57.7344    1.2787   -1.4812 C   0  0  0  0  0  0  0  0  0  0  0  0
   57.8669    0.7969   -0.0328 C   0  0  0  0  0  0  0  0  0  0  0  0
   57.4289   -0.6635    0.1297 C   0  0  0  0  0  0  0  0  0  0  0  0
   58.5077   -1.4257    0.7549 N   0  0  0  0  0  0  0  0  0  0  0  0
   58.6591   -1.6142    2.1988 C   0  0  0  0  0  0  0  0  0  0  0  0
   59.7869   -2.5920    2.5569 C   0  0  0  0  0  0  0  0  0  0  0  0
   59.9162   -2.7657    4.0737 C   0  0  0  0  0  0  0  0  0  0  0  0
   60.3549   -1.5072    4.6697 N   0  0  0  0  0  0  0  0  0  0  0  0
  1  2  1  0  0  0  0
  2  3  1  0  0  0  0
  3  4  1  0  0  0  0
  4  5  1  0  0  0  0
  5  6  1  0  0  0  0
  6  7  1  0  0  0  0
  7  8  1  0  0  0  0
  8  9  1  0  0  0  0
  9 10  1  0  0  0  0
 10 11  1  0  0  0  0
 11 12  1  0  0  0  0
 12 13  1  0  0  0  0
 13 14  1  0  0  0  0
M  END
>  <CHROM.1>
178.26503495,58.02044988,-179.97550580,-78.88204686,-63.19496636,177.65234028
125.51398206,90.75885770,173.31094494,-179.96476611,-66.21154037,57.67700365
1.46562376,0.61917067,3.08327588,1.15038689,-1.94756006

>  <Name>
ligand

>  <RI>
0

>  <Rbt.Current_Directory>
/home/itssahil/PROJECTS/Mol_Feturizer/New_Systems/rnas/4FAW

>  <Rbt.Executable>
rbdock ($Id: //depot/dev/client3/rdock/2013.1/src/exe/rbdock.cxx#4 $)

>  <Rbt.Library>
libRbt.so (2013.1, Build901 2013/11/27)

>  <Rbt.Parameter_File>
/export/apps/rDock/src/rDock_2013.1_src/data/scripts/dock_solv.prm

>  <Rbt.Receptor>
prm/pocket_docking_5.prm

>  <SCORE>
-6.75476

>  <SCORE.INTER>
0.202714

>  <SCORE.INTER.CONST>
1

>  <SCORE.INTER.POLAR>
0

>  <SCORE.INTER.ROT>
11

>  <SCORE.INTER.SOLV>
10.5024

>  <SCORE.INTER.VDW>
-14.299

>  <SCORE.INTER.norm>
0.0144796

>  <SCORE.INTRA>
-6.95747

>  <SCORE.INTRA.DIHEDRAL>
-12.5317

>  <SCORE.INTRA.DIHEDRAL.0>
19.1003

>  <SCORE.INTRA.POLAR>
0

>  <SCORE.INTRA.POLAR.0>
0

>  <SCORE.INTRA.REPUL>
0

>  <SCORE.INTRA.REPUL.0>
0

>  <SCORE.INTRA.SOLV>
0.0270279

>  <SCORE.INTRA.SOLV.lig_0>
-47.5333

>  <SCORE.INTRA.VDW>
-0.705145

>  <SCORE.INTRA.VDW.0>
-0.287413

>  <SCORE.INTRA.norm>
-0.496962

>  <SCORE.RESTR>
0

>  <SCORE.RESTR.CAVITY>
0

>  <SCORE.RESTR.norm>
0

>  <SCORE.SYSTEM>
0

>  <SCORE.SYSTEM.CONST>
0

>  <SCORE.SYSTEM.DIHEDRAL>
0

>  <SCORE.SYSTEM.SOLV>
0

>  <SCORE.SYSTEM.norm>
0

>  <SCORE.heavy>
14

>  <SCORE.norm>
-0.482483

>  <RMSD>
4.138

$$$$
ligand
 OpenBabel11021811493D
libRbt.so/2013.1/901 2013/11/27
 14 13  0  0  0  0  0  0  0  0999 V2000
   57.6264    4.4006    3.9660 N   0  0  0  0  0  0  0  0  0  0  0  0
   57.7772    3.2295    3.1305 C   0  0  0  0  0  0  0  0  0  0  0  0
   59.2721    3.0291    2.8070 C   0  0  0  0  0  0  0  0  0  0  0  0
   59.5582    1.8214    1.9012 C   0  0  0  0  0  0  0  0  0  0  0  0
   59.1397    0.5130    2.4270 N   0  0  0  0  0  0  0  0  0  0  0  0
   59.2163   -0.7289    1.6596 C   0  0  0  0  0  0  0  0  0  0  0  0
   58.2249   -0.7771    0.5016 C   0  0  0  0  0  0  0  0  0  0  0  0
   56.7804   -1.0377    0.9409 C   0  0  0  0  0  0  0  0  0  0  0  0
   56.1674    0.1755    1.6503 C   0  0  0  0  0  0  0  0  0  0  0  0
   56.0140    1.2693    0.6934 N   0  0  0  0  0  0  0  0  0  0  0  0
   55.0713    2.3787    0.8483 C   0  0  0  0  0  0  0  0  0  0  0  0
   54.8419    3.1521   -0.4576 C   0  0  0  0  0  0  0  0  0  0  0  0
   56.1277    3.8332   -0.9378 C   0  0  0  0  0  0  0  0  0  0  0  0
   55.8562    4.5661   -2.1709 N   0  0  0  0  0  0  0  0  0  0  0  0
  1  2  1  0  0  0  0
  2  3  1  0  0  0  0
  3  4  1  0  0  0  0
  4  5  1  0  0  0  0
  5  6  1  0  0  0  0
  6  7  1  0  0  0  0
  7  8  1  0  0  0  0
  8  9  1  0  0  0  0
  9 10  1  0  0  0  0
 10 11  1  0  0  0  0
 11 12  1  0  0  0  0
 12 13  1  0  0  0  0
 13 14  1  0  0  0  0
M  END
>  <CHROM.1>
-179.06303420,-59.94073301,174.16616451,-68.99530087,-75.42460716,71.70501542
67.10534755,157.44408745,-163.94187873,-63.83621983,-179.37312784,57.26243657
1.84428728,1.21139940,-0.48127923,-0.82896696,0.24599799

>  <Name>
ligand

>  <RI>
0

>  <Rbt.Current_Directory>
/home/itssahil/PROJECTS/Mol_Feturizer/New_Systems/rnas/4FAW

>  <Rbt.Executable>
rbdock ($Id: //depot/dev/client3/rdock/2013.1/src/exe/rbdock.cxx#4 $)

>  <Rbt.Library>
libRbt.so (2013.1, Build901 2013/11/27)

>  <Rbt.Parameter_File>
/export/apps/rDock/src/rDock_2013.1_src/data/scripts/dock_solv.prm

>  <Rbt.Receptor>
prm/pocket_docking_5.prm

>  <SCORE>
-6.22088

>  <SCORE.INTER>
2.86948

>  <SCORE.INTER.CONST>
1

>  <SCORE.INTER.POLAR>
0

>  <SCORE.INTER.ROT>
11

>  <SCORE.INTER.SOLV>
8.43657

>  <SCORE.INTER.VDW>
-11.8325

>  <SCORE.INTER.norm>
0.204963

>  <SCORE.INTRA>
-9.09036

>  <SCORE.INTRA.DIHEDRAL>
-16.777

>  <SCORE.INTRA.DIHEDRAL.0>
19.1003

>  <SCORE.INTRA.POLAR>
0

>  <SCORE.INTRA.POLAR.0>
0

>  <SCORE.INTRA.REPUL>
0

>  <SCORE.INTRA.REPUL.0>
0

>  <SCORE.INTRA.SOLV>
1.86115

>  <SCORE.INTRA.SOLV.lig_0>
-47.5333

>  <SCORE.INTRA.VDW>
-1.63242

>  <SCORE.INTRA.VDW.0>
-0.287413

>  <SCORE.INTRA.norm>
-0.649311

>  <SCORE.RESTR>
0

>  <SCORE.RESTR.CAVITY>
0

>  <SCORE.RESTR.norm>
0

>  <SCORE.SYSTEM>
0

>  <SCORE.SYSTEM.CONST>
0

>  <SCORE.SYSTEM.DIHEDRAL>
0

>  <SCORE.SYSTEM.SOLV>
0

>  <SCORE.SYSTEM.norm>
0

>  <SCORE.heavy>
14

>  <SCORE.norm>
-0.444348

>  <RMSD>
4.163

$$$$
ligand
 OpenBabel11021811493D
libRbt.so/2013.1/901 2013/11/27
 14 13  0  0  0  0  0  0  0  0999 V2000
   56.8487    1.7407    0.6498 N   0  0  0  0  0  0  0  0  0  0  0  0
   57.6687    1.8796   -0.5336 C   0  0  0  0  0  0  0  0  0  0  0  0
   57.4116    3.2626   -1.1666 C   0  0  0  0  0  0  0  0  0  0  0  0
   56.0091    3.4199   -1.7743 C   0  0  0  0  0  0  0  0  0  0  0  0
   54.8976    3.4813   -0.8128 N   0  0  0  0  0  0  0  0  0  0  0  0
   53.5054    3.7032   -1.1995 C   0  0  0  0  0  0  0  0  0  0  0  0
   52.8051    2.4308   -1.6649 C   0  0  0  0  0  0  0  0  0  0  0  0
   52.3853    1.5065   -0.5174 C   0  0  0  0  0  0  0  0  0  0  0  0
   52.1013    0.0800   -1.0025 C   0  0  0  0  0  0  0  0  0  0  0  0
   51.1700    0.1279   -2.1278 N   0  0  0  0  0  0  0  0  0  0  0  0
   51.4350   -0.4496   -3.4468 C   0  0  0  0  0  0  0  0  0  0  0  0
   50.1962   -0.4577   -4.3532 C   0  0  0  0  0  0  0  0  0  0  0  0
   49.8040    0.9615   -4.7773 C   0  0  0  0  0  0  0  0  0  0  0  0
   50.8095    1.4879   -5.6956 N   0  0  0  0  0  0  0  0  0  0  0  0
  1  2  1  0  0  0  0
  2  3  1  0  0  0  0
  3  4  1  0  0  0  0
  4  5  1  0  0  0  0
  5  6  1  0  0  0  0
  6  7  1  0  0  0  0
  7  8  1  0  0  0  0
  8  9  1  0  0  0  0
  9 10  1  0  0  0  0
 10 11  1  0  0  0  0
 11 12  1  0  0  0  0
 12 13  1  0  0  0  0
 13 14  1  0  0  0  0
M  END
>  <CHROM.1>
-68.46147112,69.97361791,176.47289119,82.21663091,77.28980683,-161.94506513
-51.36709860,123.64919806,170.32402513,69.25372603,69.50840653,53.36051565
1.65530346,-2.03019027,0.19162626,0.58176941,2.20750253

>  <Name>
ligand

>  <RI>
0

>  <Rbt.Current_Directory>
/home/itssahil/PROJECTS/Mol_Feturizer/New_Systems/rnas/4FAW

>  <Rbt.Executable>
rbdock ($Id: //depot/dev/client3/rdock/2013.1/src/exe/rbdock.cxx#4 $)

>  <Rbt.Library>
libRbt.so (2013.1, Build901 2013/11/27)

>  <Rbt.Parameter_File>
/export/apps/rDock/src/rDock_2013.1_src/data/scripts/dock_solv.prm

>  <Rbt.Receptor>
prm/pocket_docking_6.prm

>  <SCORE>
-6.77925

>  <SCORE.INTER>
-0.79905

>  <SCORE.INTER.CONST>
1

>  <SCORE.INTER.POLAR>
0

>  <SCORE.INTER.ROT>
11

>  <SCORE.INTER.SOLV>
7.10826

>  <SCORE.INTER.VDW>
-13.8355

>  <SCORE.INTER.norm>
-0.057075

>  <SCORE.INTRA>
-5.9802

>  <SCORE.INTRA.DIHEDRAL>
-13.5749

>  <SCORE.INTRA.DIHEDRAL.0>
19.1003

>  <SCORE.INTRA.POLAR>
0

>  <SCORE.INTRA.POLAR.0>
0

>  <SCORE.INTRA.REPUL>
0

>  <SCORE.INTRA.REPUL.0>
0

>  <SCORE.INTRA.SOLV>
3.52794

>  <SCORE.INTRA.SOLV.lig_0>
-47.5333

>  <SCORE.INTRA.VDW>
-0.956721

>  <SCORE.INTRA.VDW.0>
-0.287413

>  <SCORE.INTRA.norm>
-0.427157

>  <SCORE.RESTR>
0

>  <SCORE.RESTR.CAVITY>
0

>  <SCORE.RESTR.norm>
0

>  <SCORE.SYSTEM>
0

>  <SCORE.SYSTEM.CONST>
0

>  <SCORE.SYSTEM.DIHEDRAL>
0

>  <SCORE.SYSTEM.SOLV>
0

>  <SCORE.SYSTEM.norm>
0

>  <SCORE.heavy>
14

>  <SCORE.norm>
-0.484232

>  <RMSD>
4.192

$$$$
ligand
 OpenBabel11021811493D
libRbt.so/2013.1/901 2013/11/27
 14 13  0  0  0  0  0  0  0  0999 V2000
   54.9585    6.5137    0.9180 N   0  0  0  0  0  0  0  0  0  0  0  0
   55.0781    5.2729    0.1843 C   0  0  0  0  0  0  0  0  0  0  0  0
   56.0990    5.4577   -0.9572 C   0  0  0  0  0  0  0  0  0  0  0  0
   56.2265    4.2387   -1.8839 C   0  0  0  0  0  0  0  0  0  0  0  0
   56.6308    2.9814   -1.2364 N   0  0  0  0  0  0  0  0  0  0  0  0
   57.9345    2.7788   -0.6069 C   0  0  0  0  0  0  0  0  0  0  0  0
   57.9976    1.5130    0.2415 C   0  0  0  0  0  0  0  0  0  0  0  0
   57.7785    0.2256   -0.5598 C   0  0  0  0  0  0  0  0  0  0  0  0
   57.5443   -0.9856    0.3507 C   0  0  0  0  0  0  0  0  0  0  0  0
   58.7411   -1.2256    1.1543 N   0  0  0  0  0  0  0  0  0  0  0  0
   59.0315   -2.4790    1.8530 C   0  0  0  0  0  0  0  0  0  0  0  0
   60.2422   -2.3716    2.7905 C   0  0  0  0  0  0  0  0  0  0  0  0
   60.5350   -3.7075    3.4813 C   0  0  0  0  0  0  0  0  0  0  0  0
   61.5440   -3.5063    4.5171 N   0  0  0  0  0  0  0  0  0  0  0  0
  1  2  1  0  0  0  0
  2  3  1  0  0  0  0
  3  4  1  0  0  0  0
  4  5  1  0  0  0  0
  5  6  1  0  0  0  0
  6  7  1  0  0  0  0
  7  8  1  0  0  0  0
  8  9  1  0  0  0  0
  9 10  1  0  0  0  0
 10 11  1  0  0  0  0
 11 12  1  0  0  0  0
 12 13  1  0  0  0  0
 13 14  1  0  0  0  0
M  END
>  <CHROM.1>
-175.15902128,-59.04463843,-65.02661002,167.75696158,62.21172577,-167.55536153
-63.45317442,-162.47277016,-171.03231889,-178.78650823,-170.79430688,57.88150214
1.05037503,0.73163836,-3.05559558,1.09960713,-2.08450361

>  <Name>
ligand

>  <RI>
0

>  <Rbt.Current_Directory>
/home/itssahil/PROJECTS/Mol_Feturizer/New_Systems/rnas/4FAW

>  <Rbt.Executable>
rbdock ($Id: //depot/dev/client3/rdock/2013.1/src/exe/rbdock.cxx#4 $)

>  <Rbt.Library>
libRbt.so (2013.1, Build901 2013/11/27)

>  <Rbt.Parameter_File>
/export/apps/rDock/src/rDock_2013.1_src/data/scripts/dock_solv.prm

>  <Rbt.Receptor>
prm/pocket_docking_4.prm

>  <SCORE>
-9.02412

>  <SCORE.INTER>
0.696975

>  <SCORE.INTER.CONST>
1

>  <SCORE.INTER.POLAR>
0

>  <SCORE.INTER.ROT>
11

>  <SCORE.INTER.SOLV>
8.9808

>  <SCORE.INTER.VDW>
-13.4623

>  <SCORE.INTER.norm>
0.0497839

>  <SCORE.INTRA>
-9.72925

>  <SCORE.INTRA.DIHEDRAL>
-17.5581

>  <SCORE.INTRA.DIHEDRAL.0>
19.1003

>  <SCORE.INTRA.POLAR>
0

>  <SCORE.INTRA.POLAR.0>
0

>  <SCORE.INTRA.REPUL>
0

>  <SCORE.INTRA.REPUL.0>
0

>  <SCORE.INTRA.SOLV>
-0.380161

>  <SCORE.INTRA.SOLV.lig_0>
-47.5333

>  <SCORE.INTRA.VDW>
-0.760117

>  <SCORE.INTRA.VDW.0>
-0.287413

>  <SCORE.INTRA.norm>
-0.694946

>  <SCORE.RESTR>
0.00814989

>  <SCORE.RESTR.CAVITY>
0.00814989

>  <SCORE.RESTR.norm>
0.000582135

>  <SCORE.SYSTEM>
0

>  <SCORE.SYSTEM.CONST>
0

>  <SCORE.SYSTEM.DIHEDRAL>
0

>  <SCORE.SYSTEM.SOLV>
0

>  <SCORE.SYSTEM.norm>
0

>  <SCORE.heavy>
14

>  <SCORE.norm>
-0.64458

>  <RMSD>
4.197

$$$$
ligand
 OpenBabel11021811493D
libRbt.so/2013.1/901 2013/11/27
 14 13  0  0  0  0  0  0  0  0999 V2000
   60.3332    1.6313    5.7280 N   0  0  0  0  0  0  0  0  0  0  0  0
   60.5208    0.4715    4.8843 C   0  0  0  0  0  0  0  0  0  0  0  0
   59.3791   -0.5325    5.1449 C   0  0  0  0  0  0  0  0  0  0  0  0
   59.4750   -1.8177    4.3082 C   0  0  0  0  0  0  0  0  0  0  0  0
   59.4515   -1.6352    2.8488 N   0  0  0  0  0  0  0  0  0  0  0  0
   58.3980   -0.9091    2.1418 C   0  0  0  0  0  0  0  0  0  0  0  0
   58.4722   -1.0743    0.6273 C   0  0  0  0  0  0  0  0  0  0  0  0
   57.5208   -0.1490   -0.1383 C   0  0  0  0  0  0  0  0  0  0  0  0
   57.9265    1.3242   -0.0125 C   0  0  0  0  0  0  0  0  0  0  0  0
   57.0580    2.1394   -0.8592 N   0  0  0  0  0  0  0  0  0  0  0  0
   56.5283    3.4511   -0.4819 C   0  0  0  0  0  0  0  0  0  0  0  0
   55.5290    4.0069   -1.5060 C   0  0  0  0  0  0  0  0  0  0  0  0
   54.9127    5.3256   -1.0275 C   0  0  0  0  0  0  0  0  0  0  0  0
   55.9504    6.3506   -0.9647 N   0  0  0  0  0  0  0  0  0  0  0  0
  1  2  1  0  0  0  0
  2  3  1  0  0  0  0
  3  4  1  0  0  0  0
  4  5  1  0  0  0  0
  5  6  1  0  0  0  0
  6  7  1  0  0  0  0
  7  8  1  0  0  0  0
  8  9  1  0  0  0  0
  9 10  1  0  0  0  0
 10 11  1  0  0  0  0
 11 12  1  0  0  0  0
 12 13  1  0  0  0  0
 13 14  1  0  0  0  0
M  END
>  <CHROM.1>
-179.61431137,-59.82730638,-54.28127754,-169.74633691,-170.82010569,67.65815001
174.87365125,140.33091739,-173.99377906,175.51265815,65.92346734,57.96100559
1.32701776,1.47800731,-0.28413953,-1.07018883,0.44355846

>  <Name>
ligand

>  <RI>
0

>  <Rbt.Current_Directory>
/home/itssahil/PROJECTS/Mol_Feturizer/New_Systems/rnas/4FAW

>  <Rbt.Executable>
rbdock ($Id: //depot/dev/client3/rdock/2013.1/src/exe/rbdock.cxx#4 $)

>  <Rbt.Library>
libRbt.so (2013.1, Build901 2013/11/27)

>  <Rbt.Parameter_File>
/export/apps/rDock/src/rDock_2013.1_src/data/scripts/dock_solv.prm

>  <Rbt.Receptor>
prm/pocket_docking_4.prm

>  <SCORE>
-3.97656

>  <SCORE.INTER>
4.97247

>  <SCORE.INTER.CONST>
1

>  <SCORE.INTER.POLAR>
0

>  <SCORE.INTER.ROT>
11

>  <SCORE.INTER.SOLV>
9.64679

>  <SCORE.INTER.VDW>
-10.8339

>  <SCORE.INTER.norm>
0.355177

>  <SCORE.INTRA>
-8.94904

>  <SCORE.INTRA.DIHEDRAL>
-17.2064

>  <SCORE.INTRA.DIHEDRAL.0>
19.1003

>  <SCORE.INTRA.POLAR>
0

>  <SCORE.INTRA.POLAR.0>
0

>  <SCORE.INTRA.REPUL>
0

>  <SCORE.INTRA.REPUL.0>
0

>  <SCORE.INTRA.SOLV>
-0.241937

>  <SCORE.INTRA.SOLV.lig_0>
-47.5333

>  <SCORE.INTRA.VDW>
-0.224888

>  <SCORE.INTRA.VDW.0>
-0.287413

>  <SCORE.INTRA.norm>
-0.639217

>  <SCORE.RESTR>
0

>  <SCORE.RESTR.CAVITY>
0

>  <SCORE.RESTR.norm>
0

>  <SCORE.SYSTEM>
0

>  <SCORE.SYSTEM.CONST>
0

>  <SCORE.SYSTEM.DIHEDRAL>
0

>  <SCORE.SYSTEM.SOLV>
0

>  <SCORE.SYSTEM.norm>
0

>  <SCORE.heavy>
14

>  <SCORE.norm>
-0.28404

>  <RMSD>
4.201

$$$$
ligand
 OpenBabel11021811493D
libRbt.so/2013.1/901 2013/11/27
 14 13  0  0  0  0  0  0  0  0999 V2000
   57.0678    2.1146   -1.4475 N   0  0  0  0  0  0  0  0  0  0  0  0
   57.0820    3.4966   -1.0206 C   0  0  0  0  0  0  0  0  0  0  0  0
   55.8942    3.7430   -0.0677 C   0  0  0  0  0  0  0  0  0  0  0  0
   55.9532    2.9206    1.2289 C   0  0  0  0  0  0  0  0  0  0  0  0
   55.9318    1.4593    1.0621 N   0  0  0  0  0  0  0  0  0  0  0  0
   56.0749    0.5168    2.1703 C   0  0  0  0  0  0  0  0  0  0  0  0
   56.0592   -0.9404    1.7205 C   0  0  0  0  0  0  0  0  0  0  0  0
   57.0801   -1.2546    0.6220 C   0  0  0  0  0  0  0  0  0  0  0  0
   58.5183   -0.9834    1.0791 C   0  0  0  0  0  0  0  0  0  0  0  0
   58.8865   -1.9459    2.1153 N   0  0  0  0  0  0  0  0  0  0  0  0
   60.1456   -1.9178    2.8617 C   0  0  0  0  0  0  0  0  0  0  0  0
   60.3183   -0.6373    3.6905 C   0  0  0  0  0  0  0  0  0  0  0  0
   61.5812   -0.6971    4.5560 C   0  0  0  0  0  0  0  0  0  0  0  0
   61.4391   -1.7592    5.5475 N   0  0  0  0  0  0  0  0  0  0  0  0
  1  2  1  0  0  0  0
  2  3  1  0  0  0  0
  3  4  1  0  0  0  0
  4  5  1  0  0  0  0
  5  6  1  0  0  0  0
  6  7  1  0  0  0  0
  7  8  1  0  0  0  0
  8  9  1  0  0  0  0
  9 10  1  0  0  0  0
 10 11  1  0  0  0  0
 11 12  1  0  0  0  0
 12 13  1  0  0  0  0
 13 14  1  0  0  0  0
M  END
>  <CHROM.1>
62.78267915,-61.35328678,175.54278325,-178.28354481,53.38793434,60.62116170
67.86115968,-174.66861998,61.92950092,174.78951890,-64.92384659,58.00216681
0.29406703,1.72268404,-2.42168850,0.63395013,2.94146388

>  <Name>
ligand

>  <RI>
0

>  <Rbt.Current_Directory>
/home/itssahil/PROJECTS/Mol_Feturizer/New_Systems/rnas/4FAW

>  <Rbt.Executable>
rbdock ($Id: //depot/dev/client3/rdock/2013.1/src/exe/rbdock.cxx#4 $)

>  <Rbt.Library>
libRbt.so (2013.1, Build901 2013/11/27)

>  <Rbt.Parameter_File>
/export/apps/rDock/src/rDock_2013.1_src/data/scripts/dock_solv.prm

>  <Rbt.Receptor>
prm/pocket_docking_3.prm

>  <SCORE>
-3.96164

>  <SCORE.INTER>
3.14791

>  <SCORE.INTER.CONST>
1

>  <SCORE.INTER.POLAR>
0

>  <SCORE.INTER.ROT>
11

>  <SCORE.INTER.SOLV>
9.94014

>  <SCORE.INTER.VDW>
-12.1481

>  <SCORE.INTER.norm>
0.224851

>  <SCORE.INTRA>
-7.11277

>  <SCORE.INTRA.DIHEDRAL>
-18.43

>  <SCORE.INTRA.DIHEDRAL.0>
19.1003

>  <SCORE.INTRA.POLAR>
0

>  <SCORE.INTRA.POLAR.0>
0

>  <SCORE.INTRA.REPUL>
0

>  <SCORE.INTRA.REPUL.0>
0

>  <SCORE.INTRA.SOLV>
4.53884

>  <SCORE.INTRA.SOLV.lig_0>
-47.5333

>  <SCORE.INTRA.VDW>
-0.167194

>  <SCORE.INTRA.VDW.0>
-0.287413

>  <SCORE.INTRA.norm>
-0.508055

>  <SCORE.RESTR>
0.00322604

>  <SCORE.RESTR.CAVITY>
0.00322604

>  <SCORE.RESTR.norm>
0.000230431

>  <SCORE.SYSTEM>
0

>  <SCORE.SYSTEM.CONST>
0

>  <SCORE.SYSTEM.DIHEDRAL>
0

>  <SCORE.SYSTEM.SOLV>
0

>  <SCORE.SYSTEM.norm>
0

>  <SCORE.heavy>
14

>  <SCORE.norm>
-0.282974

>  <RMSD>
4.241

$$$$
ligand
 OpenBabel11021811493D
libRbt.so/2013.1/901 2013/11/27
 14 13  0  0  0  0  0  0  0  0999 V2000
   59.9448    1.1558    6.2588 N   0  0  0  0  0  0  0  0  0  0  0  0
   60.8146    2.0155    5.4865 C   0  0  0  0  0  0  0  0  0  0  0  0
   60.0262    2.5887    4.2909 C   0  0  0  0  0  0  0  0  0  0  0  0
   59.5311    1.5228    3.3011 C   0  0  0  0  0  0  0  0  0  0  0  0
   58.8441    2.0306    2.1036 N   0  0  0  0  0  0  0  0  0  0  0  0
   58.1059    1.1788    1.1728 C   0  0  0  0  0  0  0  0  0  0  0  0
   57.9993    1.7760   -0.2266 C   0  0  0  0  0  0  0  0  0  0  0  0
   57.2654    3.1204   -0.2658 C   0  0  0  0  0  0  0  0  0  0  0  0
   57.2986    3.7530   -1.6621 C   0  0  0  0  0  0  0  0  0  0  0  0
   56.5547    5.0107   -1.6414 N   0  0  0  0  0  0  0  0  0  0  0  0
   56.4799    5.9469   -2.7646 C   0  0  0  0  0  0  0  0  0  0  0  0
   55.4482    7.0617   -2.5431 C   0  0  0  0  0  0  0  0  0  0  0  0
   55.8083    7.9239   -1.3288 C   0  0  0  0  0  0  0  0  0  0  0  0
   54.7732    8.9336   -1.1276 N   0  0  0  0  0  0  0  0  0  0  0  0
  1  2  1  0  0  0  0
  2  3  1  0  0  0  0
  3  4  1  0  0  0  0
  4  5  1  0  0  0  0
  5  6  1  0  0  0  0
  6  7  1  0  0  0  0
  7  8  1  0  0  0  0
  8  9  1  0  0  0  0
  9 10  1  0  0  0  0
 10 11  1  0  0  0  0
 11 12  1  0  0  0  0
 12 13  1  0  0  0  0
 13 14  1  0  0  0  0
M  END
>  <CHROM.1>
-62.76981754,-176.46924950,-169.01745239,-155.61008849,-60.92038212,174.40038307
178.53215032,174.06958492,170.52945293,62.07182205,-177.75675392,57.77826351
3.85828349,0.78931216,0.02695785,-1.11300865,0.72552357

>  <Name>
ligand

>  <RI>
0

>  <Rbt.Current_Directory>
/home/itssahil/PROJECTS/Mol_Feturizer/New_Systems/rnas/4FAW

>  <Rbt.Executable>
rbdock ($Id: //depot/dev/client3/rdock/2013.1/src/exe/rbdock.cxx#4 $)

>  <Rbt.Library>
libRbt.so (2013.1, Build901 2013/11/27)

>  <Rbt.Parameter_File>
/export/apps/rDock/src/rDock_2013.1_src/data/scripts/dock_solv.prm

>  <Rbt.Receptor>
prm/pocket_docking_7.prm

>  <SCORE>
-7.57305

>  <SCORE.INTER>
2.32202

>  <SCORE.INTER.CONST>
1

>  <SCORE.INTER.POLAR>
0

>  <SCORE.INTER.ROT>
11

>  <SCORE.INTER.SOLV>
8.00072

>  <SCORE.INTER.VDW>
-12.0522

>  <SCORE.INTER.norm>
0.165859

>  <SCORE.INTRA>
-9.89507

>  <SCORE.INTRA.DIHEDRAL>
-18.2234

>  <SCORE.INTRA.DIHEDRAL.0>
19.1003

>  <SCORE.INTRA.POLAR>
0

>  <SCORE.INTRA.POLAR.0>
0

>  <SCORE.INTRA.REPUL>
0

>  <SCORE.INTRA.REPUL.0>
0

>  <SCORE.INTRA.SOLV>
-0.00954661

>  <SCORE.INTRA.SOLV.lig_0>
-47.5333

>  <SCORE.INTRA.VDW>
-0.778593

>  <SCORE.INTRA.VDW.0>
-0.287413

>  <SCORE.INTRA.norm>
-0.706791

>  <SCORE.RESTR>
0

>  <SCORE.RESTR.CAVITY>
0

>  <SCORE.RESTR.norm>
0

>  <SCORE.SYSTEM>
0

>  <SCORE.SYSTEM.CONST>
0

>  <SCORE.SYSTEM.DIHEDRAL>
0

>  <SCORE.SYSTEM.SOLV>
0

>  <SCORE.SYSTEM.norm>
0

>  <SCORE.heavy>
14

>  <SCORE.norm>
-0.540932

>  <RMSD>
4.245

$$$$
ligand
 OpenBabel11021811493D
libRbt.so/2013.1/901 2013/11/27
 14 13  0  0  0  0  0  0  0  0999 V2000
   62.4520   -2.3227    5.4093 N   0  0  0  0  0  0  0  0  0  0  0  0
   62.3700   -1.0530    4.7213 C   0  0  0  0  0  0  0  0  0  0  0  0
   60.9888   -0.9335    4.0450 C   0  0  0  0  0  0  0  0  0  0  0  0
   60.7681   -1.9299    2.8962 C   0  0  0  0  0  0  0  0  0  0  0  0
   59.4800   -1.8227    2.1940 N   0  0  0  0  0  0  0  0  0  0  0  0
   59.0197   -0.6041    1.5307 C   0  0  0  0  0  0  0  0  0  0  0  0
   57.6596   -0.7668    0.8600 C   0  0  0  0  0  0  0  0  0  0  0  0
   57.1319    0.5223    0.2217 C   0  0  0  0  0  0  0  0  0  0  0  0
   57.9426    0.9246   -1.0160 C   0  0  0  0  0  0  0  0  0  0  0  0
   57.2821    2.0440   -1.6842 N   0  0  0  0  0  0  0  0  0  0  0  0
   57.3109    3.4274   -1.2059 C   0  0  0  0  0  0  0  0  0  0  0  0
   56.1612    4.2757   -1.7670 C   0  0  0  0  0  0  0  0  0  0  0  0
   56.1853    5.6977   -1.1970 C   0  0  0  0  0  0  0  0  0  0  0  0
   55.0870    6.4687   -1.7720 N   0  0  0  0  0  0  0  0  0  0  0  0
  1  2  1  0  0  0  0
  2  3  1  0  0  0  0
  3  4  1  0  0  0  0
  4  5  1  0  0  0  0
  5  6  1  0  0  0  0
  6  7  1  0  0  0  0
  7  8  1  0  0  0  0
  8  9  1  0  0  0  0
  9 10  1  0  0  0  0
 10 11  1  0  0  0  0
 11 12  1  0  0  0  0
 12 13  1  0  0  0  0
 13 14  1  0  0  0  0
M  END
>  <CHROM.1>
-66.92907785,-178.12169342,58.05127434,179.11239596,177.06324859,69.69845120
172.07296139,75.66423247,-158.96706813,177.42293980,179.25508780,58.55993100
0.99479079,0.94540286,-0.62014404,-0.87297144,0.09534030

>  <Name>
ligand

>  <RI>
0

>  <Rbt.Current_Directory>
/home/itssahil/PROJECTS/Mol_Feturizer/New_Systems/rnas/4FAW

>  <Rbt.Executable>
rbdock ($Id: //depot/dev/client3/rdock/2013.1/src/exe/rbdock.cxx#4 $)

>  <Rbt.Library>
libRbt.so (2013.1, Build901 2013/11/27)

>  <Rbt.Parameter_File>
/export/apps/rDock/src/rDock_2013.1_src/data/scripts/dock_solv.prm

>  <Rbt.Receptor>
prm/pocket_docking_8.prm

>  <SCORE>
-8.39966

>  <SCORE.INTER>
0.863925

>  <SCORE.INTER.CONST>
1

>  <SCORE.INTER.POLAR>
0

>  <SCORE.INTER.ROT>
11

>  <SCORE.INTER.SOLV>
10.3849

>  <SCORE.INTER.VDW>
-13.819

>  <SCORE.INTER.norm>
0.0617089

>  <SCORE.INTRA>
-9.26359

>  <SCORE.INTRA.DIHEDRAL>
-17.7041

>  <SCORE.INTRA.DIHEDRAL.0>
19.1003

>  <SCORE.INTRA.POLAR>
0

>  <SCORE.INTRA.POLAR.0>
0

>  <SCORE.INTRA.REPUL>
0

>  <SCORE.INTRA.REPUL.0>
0

>  <SCORE.INTRA.SOLV>
-0.693584

>  <SCORE.INTRA.SOLV.lig_0>
-47.5333

>  <SCORE.INTRA.VDW>
-0.0647641

>  <SCORE.INTRA.VDW.0>
-0.287413

>  <SCORE.INTRA.norm>
-0.661685

>  <SCORE.RESTR>
0

>  <SCORE.RESTR.CAVITY>
0

>  <SCORE.RESTR.norm>
0

>  <SCORE.SYSTEM>
0

>  <SCORE.SYSTEM.CONST>
0

>  <SCORE.SYSTEM.DIHEDRAL>
0

>  <SCORE.SYSTEM.SOLV>
0

>  <SCORE.SYSTEM.norm>
0

>  <SCORE.heavy>
14

>  <SCORE.norm>
-0.599976

>  <RMSD>
4.247

$$$$
ligand
 OpenBabel11021811493D
libRbt.so/2013.1/901 2013/11/27
 14 13  0  0  0  0  0  0  0  0999 V2000
   61.6690   -0.4341    6.0075 N   0  0  0  0  0  0  0  0  0  0  0  0
   62.2144   -0.8313    4.7281 C   0  0  0  0  0  0  0  0  0  0  0  0
   61.0559   -1.1903    3.7749 C   0  0  0  0  0  0  0  0  0  0  0  0
   60.1863    0.0100    3.3695 C   0  0  0  0  0  0  0  0  0  0  0  0
   58.9651   -0.3098    2.6147 N   0  0  0  0  0  0  0  0  0  0  0  0
   58.9618   -1.0725    1.3676 C   0  0  0  0  0  0  0  0  0  0  0  0
   57.6038   -1.0756    0.6732 C   0  0  0  0  0  0  0  0  0  0  0  0
   57.1599    0.3081    0.1875 C   0  0  0  0  0  0  0  0  0  0  0  0
   57.9729    0.7804   -1.0236 C   0  0  0  0  0  0  0  0  0  0  0  0
   57.3401    1.9653   -1.5991 N   0  0  0  0  0  0  0  0  0  0  0  0
   57.1826    3.2419   -0.8999 C   0  0  0  0  0  0  0  0  0  0  0  0
   56.3686    4.2651   -1.7040 C   0  0  0  0  0  0  0  0  0  0  0  0
   56.1218    5.5432   -0.8958 C   0  0  0  0  0  0  0  0  0  0  0  0
   55.2849    5.2319    0.2591 N   0  0  0  0  0  0  0  0  0  0  0  0
  1  2  1  0  0  0  0
  2  3  1  0  0  0  0
  3  4  1  0  0  0  0
  4  5  1  0  0  0  0
  5  6  1  0  0  0  0
  6  7  1  0  0  0  0
  7  8  1  0  0  0  0
  8  9  1  0  0  0  0
  9 10  1  0  0  0  0
 10 11  1  0  0  0  0
 11 12  1  0  0  0  0
 12 13  1  0  0  0  0
 13 14  1  0  0  0  0
M  END
>  <CHROM.1>
67.70952525,-171.89042372,-55.75022466,-170.82117976,64.96536627,71.93891525
168.89667895,63.02998661,-174.77501752,175.14039675,-64.81743662,58.43484258
1.17356206,1.20399809,-0.27864389,-0.96221453,0.40644170

>  <Name>
ligand

>  <RI>
0

>  <Rbt.Current_Directory>
/home/itssahil/PROJECTS/Mol_Feturizer/New_Systems/rnas/4FAW

>  <Rbt.Executable>
rbdock ($Id: //depot/dev/client3/rdock/2013.1/src/exe/rbdock.cxx#4 $)

>  <Rbt.Library>
libRbt.so (2013.1, Build901 2013/11/27)

>  <Rbt.Parameter_File>
/export/apps/rDock/src/rDock_2013.1_src/data/scripts/dock_solv.prm

>  <Rbt.Receptor>
prm/pocket_docking_5.prm

>  <SCORE>
-7.09414

>  <SCORE.INTER>
0.894591

>  <SCORE.INTER.CONST>
1

>  <SCORE.INTER.POLAR>
0

>  <SCORE.INTER.ROT>
11

>  <SCORE.INTER.SOLV>
10.6406

>  <SCORE.INTER.VDW>
-13.8838

>  <SCORE.INTER.norm>
0.0638994

>  <SCORE.INTRA>
-7.98873

>  <SCORE.INTRA.DIHEDRAL>
-17.2197

>  <SCORE.INTRA.DIHEDRAL.0>
19.1003

>  <SCORE.INTRA.POLAR>
0

>  <SCORE.INTRA.POLAR.0>
0

>  <SCORE.INTRA.REPUL>
0

>  <SCORE.INTRA.REPUL.0>
0

>  <SCORE.INTRA.SOLV>
0.665494

>  <SCORE.INTRA.SOLV.lig_0>
-47.5333

>  <SCORE.INTRA.VDW>
0.288387

>  <SCORE.INTRA.VDW.0>
-0.287413

>  <SCORE.INTRA.norm>
-0.570624

>  <SCORE.RESTR>
0

>  <SCORE.RESTR.CAVITY>
0

>  <SCORE.RESTR.norm>
0

>  <SCORE.SYSTEM>
0

>  <SCORE.SYSTEM.CONST>
0

>  <SCORE.SYSTEM.DIHEDRAL>
0

>  <SCORE.SYSTEM.SOLV>
0

>  <SCORE.SYSTEM.norm>
0

>  <SCORE.heavy>
14

>  <SCORE.norm>
-0.506724

>  <RMSD>
4.282

$$$$
ligand
 OpenBabel11021811493D
libRbt.so/2013.1/901 2013/11/27
 14 13  0  0  0  0  0  0  0  0999 V2000
   54.8631   -0.0889    5.2567 N   0  0  0  0  0  0  0  0  0  0  0  0
   55.3532    0.1421    3.9156 C   0  0  0  0  0  0  0  0  0  0  0  0
   54.7915   -0.9466    2.9782 C   0  0  0  0  0  0  0  0  0  0  0  0
   55.2821   -0.8341    1.5264 C   0  0  0  0  0  0  0  0  0  0  0  0
   56.7341   -0.9623    1.3292 N   0  0  0  0  0  0  0  0  0  0  0  0
   57.4164   -0.6011    0.0878 C   0  0  0  0  0  0  0  0  0  0  0  0
   57.5320    0.9064   -0.1130 C   0  0  0  0  0  0  0  0  0  0  0  0
   57.9114    1.3077   -1.5421 C   0  0  0  0  0  0  0  0  0  0  0  0
   58.0887    2.8239   -1.6857 C   0  0  0  0  0  0  0  0  0  0  0  0
   56.8009    3.4834   -1.4803 N   0  0  0  0  0  0  0  0  0  0  0  0
   56.5673    4.9176   -1.6596 C   0  0  0  0  0  0  0  0  0  0  0  0
   55.4137    5.2168   -2.6271 C   0  0  0  0  0  0  0  0  0  0  0  0
   55.1815    6.7244   -2.7715 C   0  0  0  0  0  0  0  0  0  0  0  0
   56.3434    7.3343   -3.4112 N   0  0  0  0  0  0  0  0  0  0  0  0
  1  2  1  0  0  0  0
  2  3  1  0  0  0  0
  3  4  1  0  0  0  0
  4  5  1  0  0  0  0
  5  6  1  0  0  0  0
  6  7  1  0  0  0  0
  7  8  1  0  0  0  0
  8  9  1  0  0  0  0
  9 10  1  0  0  0  0
 10 11  1  0  0  0  0
 11 12  1  0  0  0  0
 12 13  1  0  0  0  0
 13 14  1  0  0  0  0
M  END
>  <CHROM.1>
-178.07283987,61.43235272,-166.28256327,74.09507759,-165.30908540,-177.03942359
-66.03595075,-174.31267233,125.57749957,178.99233215,65.68072976,56.30572108
2.10154936,-0.01421914,1.68157715,-0.84888971,2.49934060

>  <Name>
ligand

>  <RI>
0

>  <Rbt.Current_Directory>
/home/itssahil/PROJECTS/Mol_Feturizer/New_Systems/rnas/4FAW

>  <Rbt.Executable>
rbdock ($Id: //depot/dev/client3/rdock/2013.1/src/exe/rbdock.cxx#4 $)

>  <Rbt.Library>
libRbt.so (2013.1, Build901 2013/11/27)

>  <Rbt.Parameter_File>
/export/apps/rDock/src/rDock_2013.1_src/data/scripts/dock_solv.prm

>  <Rbt.Receptor>
prm/pocket_docking_7.prm

>  <SCORE>
-10.9206

>  <SCORE.INTER>
-1.93609

>  <SCORE.INTER.CONST>
1

>  <SCORE.INTER.POLAR>
0

>  <SCORE.INTER.ROT>
11

>  <SCORE.INTER.SOLV>
13.0765

>  <SCORE.INTER.VDW>
-16.5829

>  <SCORE.INTER.norm>
-0.138292

>  <SCORE.INTRA>
-8.98451

>  <SCORE.INTRA.DIHEDRAL>
-16.4977

>  <SCORE.INTRA.DIHEDRAL.0>
19.1003

>  <SCORE.INTRA.POLAR>
0

>  <SCORE.INTRA.POLAR.0>
0

>  <SCORE.INTRA.REPUL>
0

>  <SCORE.INTRA.REPUL.0>
0

>  <SCORE.INTRA.SOLV>
-0.0265489

>  <SCORE.INTRA.SOLV.lig_0>
-47.5333

>  <SCORE.INTRA.VDW>
-0.722378

>  <SCORE.INTRA.VDW.0>
-0.287413

>  <SCORE.INTRA.norm>
-0.641751

>  <SCORE.RESTR>
0

>  <SCORE.RESTR.CAVITY>
0

>  <SCORE.RESTR.norm>
0

>  <SCORE.SYSTEM>
0

>  <SCORE.SYSTEM.CONST>
0

>  <SCORE.SYSTEM.DIHEDRAL>
0

>  <SCORE.SYSTEM.SOLV>
0

>  <SCORE.SYSTEM.norm>
0

>  <SCORE.heavy>
14

>  <SCORE.norm>
-0.780043

>  <RMSD>
4.284

$$$$
ligand
 OpenBabel11021811493D
libRbt.so/2013.1/901 2013/11/27
 14 13  0  0  0  0  0  0  0  0999 V2000
   55.8131    6.8205   -2.7388 N   0  0  0  0  0  0  0  0  0  0  0  0
   56.5980    5.6416   -2.4452 C   0  0  0  0  0  0  0  0  0  0  0  0
   55.6836    4.5695   -1.8175 C   0  0  0  0  0  0  0  0  0  0  0  0
   56.3996    3.2482   -1.4975 C   0  0  0  0  0  0  0  0  0  0  0  0
   57.4435    3.3194   -0.4637 N   0  0  0  0  0  0  0  0  0  0  0  0
   58.1747    2.1533    0.0287 C   0  0  0  0  0  0  0  0  0  0  0  0
   59.1464    2.4899    1.1552 C   0  0  0  0  0  0  0  0  0  0  0  0
   58.4560    2.9353    2.4484 C   0  0  0  0  0  0  0  0  0  0  0  0
   59.4638    3.2337    3.5648 C   0  0  0  0  0  0  0  0  0  0  0  0
   60.2521    2.0340    3.8386 N   0  0  0  0  0  0  0  0  0  0  0  0
   59.6927    0.7652    4.3085 C   0  0  0  0  0  0  0  0  0  0  0  0
   60.6483   -0.4187    4.1050 C   0  0  0  0  0  0  0  0  0  0  0  0
   61.8958   -0.2885    4.9851 C   0  0  0  0  0  0  0  0  0  0  0  0
   61.5171   -0.4376    6.3871 N   0  0  0  0  0  0  0  0  0  0  0  0
  1  2  1  0  0  0  0
  2  3  1  0  0  0  0
  3  4  1  0  0  0  0
  4  5  1  0  0  0  0
  5  6  1  0  0  0  0
  6  7  1  0  0  0  0
  7  8  1  0  0  0  0
  8  9  1  0  0  0  0
  9 10  1  0  0  0  0
 10 11  1  0  0  0  0
 11 12  1  0  0  0  0
 12 13  1  0  0  0  0
 13 14  1  0  0  0  0
M  END
>  <CHROM.1>
178.31787386,65.17893651,176.24365388,-176.73321370,66.98072400,178.70923098
-59.20865773,-61.33089157,162.44049605,66.50551941,67.85043858,58.65600380
2.57598060,1.56125159,-2.89427038,1.04879769,-2.82329063

>  <Name>
ligand

>  <RI>
0

>  <Rbt.Current_Directory>
/home/itssahil/PROJECTS/Mol_Feturizer/New_Systems/rnas/4FAW

>  <Rbt.Executable>
rbdock ($Id: //depot/dev/client3/rdock/2013.1/src/exe/rbdock.cxx#4 $)

>  <Rbt.Library>
libRbt.so (2013.1, Build901 2013/11/27)

>  <Rbt.Parameter_File>
/export/apps/rDock/src/rDock_2013.1_src/data/scripts/dock_solv.prm

>  <Rbt.Receptor>
prm/pocket_docking_6.prm

>  <SCORE>
-6.52664

>  <SCORE.INTER>
2.38212

>  <SCORE.INTER.CONST>
1

>  <SCORE.INTER.POLAR>
0

>  <SCORE.INTER.ROT>
11

>  <SCORE.INTER.SOLV>
9.54475

>  <SCORE.INTER.VDW>
-12.5268

>  <SCORE.INTER.norm>
0.170151

>  <SCORE.INTRA>
-8.90876

>  <SCORE.INTRA.DIHEDRAL>
-18.1506

>  <SCORE.INTRA.DIHEDRAL.0>
19.1003

>  <SCORE.INTRA.POLAR>
0

>  <SCORE.INTRA.POLAR.0>
0

>  <SCORE.INTRA.REPUL>
0

>  <SCORE.INTRA.REPUL.0>
0

>  <SCORE.INTRA.SOLV>
1.16102

>  <SCORE.INTRA.SOLV.lig_0>
-47.5333

>  <SCORE.INTRA.VDW>
-0.413956

>  <SCORE.INTRA.VDW.0>
-0.287413

>  <SCORE.INTRA.norm>
-0.63634

>  <SCORE.RESTR>
0

>  <SCORE.RESTR.CAVITY>
0

>  <SCORE.RESTR.norm>
0

>  <SCORE.SYSTEM>
0

>  <SCORE.SYSTEM.CONST>
0

>  <SCORE.SYSTEM.DIHEDRAL>
0

>  <SCORE.SYSTEM.SOLV>
0

>  <SCORE.SYSTEM.norm>
0

>  <SCORE.heavy>
14

>  <SCORE.norm>
-0.466189

>  <RMSD>
4.286

$$$$
ligand
 OpenBabel11021811493D
libRbt.so/2013.1/901 2013/11/27
 14 13  0  0  0  0  0  0  0  0999 V2000
   61.5827   -1.5505    5.3609 N   0  0  0  0  0  0  0  0  0  0  0  0
   60.8423   -0.6415    4.5138 C   0  0  0  0  0  0  0  0  0  0  0  0
   60.4135   -1.3829    3.2308 C   0  0  0  0  0  0  0  0  0  0  0  0
   59.5582   -0.5352    2.2764 C   0  0  0  0  0  0  0  0  0  0  0  0
   59.0829   -1.2189    1.0639 N   0  0  0  0  0  0  0  0  0  0  0  0
   57.6868   -1.2197    0.6307 C   0  0  0  0  0  0  0  0  0  0  0  0
   57.2058    0.1505    0.1642 C   0  0  0  0  0  0  0  0  0  0  0  0
   57.9541    0.6781   -1.0642 C   0  0  0  0  0  0  0  0  0  0  0  0
   57.4078    2.0319   -1.5328 C   0  0  0  0  0  0  0  0  0  0  0  0
   57.3510    2.9501   -0.3973 N   0  0  0  0  0  0  0  0  0  0  0  0
   56.3466    4.0026   -0.2331 C   0  0  0  0  0  0  0  0  0  0  0  0
   55.7427    4.0348    1.1777 C   0  0  0  0  0  0  0  0  0  0  0  0
   55.0050    2.7312    1.5004 C   0  0  0  0  0  0  0  0  0  0  0  0
   54.3709    2.8451    2.8104 N   0  0  0  0  0  0  0  0  0  0  0  0
  1  2  1  0  0  0  0
  2  3  1  0  0  0  0
  3  4  1  0  0  0  0
  4  5  1  0  0  0  0
  5  6  1  0  0  0  0
  6  7  1  0  0  0  0
  7  8  1  0  0  0  0
  8  9  1  0  0  0  0
  9 10  1  0  0  0  0
 10 11  1  0  0  0  0
 11 12  1  0  0  0  0
 12 13  1  0  0  0  0
 13 14  1  0  0  0  0
M  END
>  <CHROM.1>
177.25966250,-177.72237206,129.25871298,68.57674050,62.76752107,177.89441812
51.05351548,-147.68198925,133.49639384,-62.25664819,-176.07074800,57.89637087
0.91975716,1.39266268,0.40569686,-0.79390301,1.45130669

>  <Name>
ligand

>  <RI>
0

>  <Rbt.Current_Directory>
/home/itssahil/PROJECTS/Mol_Feturizer/New_Systems/rnas/4FAW

>  <Rbt.Executable>
rbdock ($Id: //depot/dev/client3/rdock/2013.1/src/exe/rbdock.cxx#4 $)

>  <Rbt.Library>
libRbt.so (2013.1, Build901 2013/11/27)

>  <Rbt.Parameter_File>
/export/apps/rDock/src/rDock_2013.1_src/data/scripts/dock_solv.prm

>  <Rbt.Receptor>
prm/pocket_docking_3.prm

>  <SCORE>
-5.96201

>  <SCORE.INTER>
2.87336

>  <SCORE.INTER.CONST>
1

>  <SCORE.INTER.POLAR>
0

>  <SCORE.INTER.ROT>
11

>  <SCORE.INTER.SOLV>
8.42079

>  <SCORE.INTER.VDW>
-11.8247

>  <SCORE.INTER.norm>
0.20524

>  <SCORE.INTRA>
-8.83537

>  <SCORE.INTRA.DIHEDRAL>
-15.7108

>  <SCORE.INTRA.DIHEDRAL.0>
19.1003

>  <SCORE.INTRA.POLAR>
0

>  <SCORE.INTRA.POLAR.0>
0

>  <SCORE.INTRA.REPUL>
0

>  <SCORE.INTRA.REPUL.0>
0

>  <SCORE.INTRA.SOLV>
-0.305163

>  <SCORE.INTRA.SOLV.lig_0>
-47.5333

>  <SCORE.INTRA.VDW>
-0.8274

>  <SCORE.INTRA.VDW.0>
-0.287413

>  <SCORE.INTRA.norm>
-0.631098

>  <SCORE.RESTR>
0

>  <SCORE.RESTR.CAVITY>
0

>  <SCORE.RESTR.norm>
0

>  <SCORE.SYSTEM>
0

>  <SCORE.SYSTEM.CONST>
0

>  <SCORE.SYSTEM.DIHEDRAL>
0

>  <SCORE.SYSTEM.SOLV>
0

>  <SCORE.SYSTEM.norm>
0

>  <SCORE.heavy>
14

>  <SCORE.norm>
-0.425858

>  <RMSD>
4.299

$$$$
ligand
 OpenBabel11021811493D
libRbt.so/2013.1/901 2013/11/27
 14 13  0  0  0  0  0  0  0  0999 V2000
   58.7000    2.5909    7.4384 N   0  0  0  0  0  0  0  0  0  0  0  0
   58.6353    2.0565    6.0958 C   0  0  0  0  0  0  0  0  0  0  0  0
   60.0677    1.9017    5.5445 C   0  0  0  0  0  0  0  0  0  0  0  0
   60.1324    1.2792    4.1411 C   0  0  0  0  0  0  0  0  0  0  0  0
   59.5102    2.0634    3.0633 N   0  0  0  0  0  0  0  0  0  0  0  0
   58.9690    1.4710    1.8414 C   0  0  0  0  0  0  0  0  0  0  0  0
   58.6811    2.5021    0.7549 C   0  0  0  0  0  0  0  0  0  0  0  0
   57.9739    1.9187   -0.4727 C   0  0  0  0  0  0  0  0  0  0  0  0
   57.8343    2.9492   -1.5995 C   0  0  0  0  0  0  0  0  0  0  0  0
   57.0196    4.0691   -1.1329 N   0  0  0  0  0  0  0  0  0  0  0  0
   56.5098    5.1375   -1.9944 C   0  0  0  0  0  0  0  0  0  0  0  0
   55.8265    6.2634   -1.2061 C   0  0  0  0  0  0  0  0  0  0  0  0
   54.6310    5.7390   -0.4040 C   0  0  0  0  0  0  0  0  0  0  0  0
   54.0285    6.8394    0.3427 N   0  0  0  0  0  0  0  0  0  0  0  0
  1  2  1  0  0  0  0
  2  3  1  0  0  0  0
  3  4  1  0  0  0  0
  4  5  1  0  0  0  0
  5  6  1  0  0  0  0
  6  7  1  0  0  0  0
  7  8  1  0  0  0  0
  8  9  1  0  0  0  0
  9 10  1  0  0  0  0
 10 11  1  0  0  0  0
 11 12  1  0  0  0  0
 12 13  1  0  0  0  0
 13 14  1  0  0  0  0
M  END
>  <CHROM.1>
177.35432873,63.94828159,-153.49521525,-166.56007095,-173.74139803,-174.00365540
-61.71722133,-170.37957083,-173.22973407,-60.09362997,179.13538413,57.75156703
3.34128613,1.60055640,0.87899980,-0.80849439,1.51566561

>  <Name>
ligand

>  <RI>
0

>  <Rbt.Current_Directory>
/home/itssahil/PROJECTS/Mol_Feturizer/New_Systems/rnas/4FAW

>  <Rbt.Executable>
rbdock ($Id: //depot/dev/client3/rdock/2013.1/src/exe/rbdock.cxx#4 $)

>  <Rbt.Library>
libRbt.so (2013.1, Build901 2013/11/27)

>  <Rbt.Parameter_File>
/export/apps/rDock/src/rDock_2013.1_src/data/scripts/dock_solv.prm

>  <Rbt.Receptor>
prm/pocket_docking_5.prm

>  <SCORE>
-7.5085

>  <SCORE.INTER>
2.56155

>  <SCORE.INTER.CONST>
1

>  <SCORE.INTER.POLAR>
0

>  <SCORE.INTER.ROT>
11

>  <SCORE.INTER.SOLV>
8.73504

>  <SCORE.INTER.VDW>
-12.1373

>  <SCORE.INTER.norm>
0.182968

>  <SCORE.INTRA>
-10.0701

>  <SCORE.INTRA.DIHEDRAL>
-17.9595

>  <SCORE.INTRA.DIHEDRAL.0>
19.1003

>  <SCORE.INTRA.POLAR>
0

>  <SCORE.INTRA.POLAR.0>
0

>  <SCORE.INTRA.REPUL>
0

>  <SCORE.INTRA.REPUL.0>
0

>  <SCORE.INTRA.SOLV>
-0.406758

>  <SCORE.INTRA.SOLV.lig_0>
-47.5333

>  <SCORE.INTRA.VDW>
-0.886933

>  <SCORE.INTRA.VDW.0>
-0.287413

>  <SCORE.INTRA.norm>
-0.71929

>  <SCORE.RESTR>
0

>  <SCORE.RESTR.CAVITY>
0

>  <SCORE.RESTR.norm>
0

>  <SCORE.SYSTEM>
0

>  <SCORE.SYSTEM.CONST>
0

>  <SCORE.SYSTEM.DIHEDRAL>
0

>  <SCORE.SYSTEM.SOLV>
0

>  <SCORE.SYSTEM.norm>
0

>  <SCORE.heavy>
14

>  <SCORE.norm>
-0.536322

>  <RMSD>
4.313

$$$$
ligand
 OpenBabel11021811493D
libRbt.so/2013.1/901 2013/11/27
 14 13  0  0  0  0  0  0  0  0999 V2000
   58.5483    2.7440    6.3441 N   0  0  0  0  0  0  0  0  0  0  0  0
   57.8011    2.2970    5.1891 C   0  0  0  0  0  0  0  0  0  0  0  0
   57.8412    3.3946    4.1060 C   0  0  0  0  0  0  0  0  0  0  0  0
   59.2185    3.5724    3.4482 C   0  0  0  0  0  0  0  0  0  0  0  0
   59.7757    2.3776    2.7959 N   0  0  0  0  0  0  0  0  0  0  0  0
   59.0800    1.6281    1.7512 C   0  0  0  0  0  0  0  0  0  0  0  0
   58.6418    2.5022    0.5806 C   0  0  0  0  0  0  0  0  0  0  0  0
   57.8888    1.7342   -0.5105 C   0  0  0  0  0  0  0  0  0  0  0  0
   57.4404    2.6517   -1.6542 C   0  0  0  0  0  0  0  0  0  0  0  0
   56.4961    3.6410   -1.1393 N   0  0  0  0  0  0  0  0  0  0  0  0
   55.7516    4.5870   -1.9725 C   0  0  0  0  0  0  0  0  0  0  0  0
   56.6343    5.7119   -2.5307 C   0  0  0  0  0  0  0  0  0  0  0  0
   55.8197    6.6928   -3.3804 C   0  0  0  0  0  0  0  0  0  0  0  0
   56.7089    7.7122   -3.9294 N   0  0  0  0  0  0  0  0  0  0  0  0
  1  2  1  0  0  0  0
  2  3  1  0  0  0  0
  3  4  1  0  0  0  0
  4  5  1  0  0  0  0
  5  6  1  0  0  0  0
  6  7  1  0  0  0  0
  7  8  1  0  0  0  0
  8  9  1  0  0  0  0
  9 10  1  0  0  0  0
 10 11  1  0  0  0  0
 11 12  1  0  0  0  0
 12 13  1  0  0  0  0
 13 14  1  0  0  0  0
M  END
>  <CHROM.1>
70.38179280,58.18826984,55.87344369,54.02049133,-178.95585249,178.80895052
-63.01379597,-173.10916995,-72.93464750,-179.19980573,-177.84828928,57.68894143
3.66027535,0.64971240,0.72541162,-1.19853839,1.18002375

>  <Name>
ligand

>  <RI>
0

>  <Rbt.Current_Directory>
/home/itssahil/PROJECTS/Mol_Feturizer/New_Systems/rnas/4FAW

>  <Rbt.Executable>
rbdock ($Id: //depot/dev/client3/rdock/2013.1/src/exe/rbdock.cxx#4 $)

>  <Rbt.Library>
libRbt.so (2013.1, Build901 2013/11/27)

>  <Rbt.Parameter_File>
/export/apps/rDock/src/rDock_2013.1_src/data/scripts/dock_solv.prm

>  <Rbt.Receptor>
prm/pocket_docking_8.prm

>  <SCORE>
-7.65021

>  <SCORE.INTER>
1.31396

>  <SCORE.INTER.CONST>
1

>  <SCORE.INTER.POLAR>
0

>  <SCORE.INTER.ROT>
11

>  <SCORE.INTER.SOLV>
8.36702

>  <SCORE.INTER.VDW>
-12.8464

>  <SCORE.INTER.norm>
0.0938542

>  <SCORE.INTRA>
-8.96417

>  <SCORE.INTRA.DIHEDRAL>
-18.4116

>  <SCORE.INTRA.DIHEDRAL.0>
19.1003

>  <SCORE.INTRA.POLAR>
0

>  <SCORE.INTRA.POLAR.0>
0

>  <SCORE.INTRA.REPUL>
0

>  <SCORE.INTRA.REPUL.0>
0

>  <SCORE.INTRA.SOLV>
0.513219

>  <SCORE.INTRA.SOLV.lig_0>
-47.5333

>  <SCORE.INTRA.VDW>
-0.0149666

>  <SCORE.INTRA.VDW.0>
-0.287413

>  <SCORE.INTRA.norm>
-0.640298

>  <SCORE.RESTR>
0

>  <SCORE.RESTR.CAVITY>
0

>  <SCORE.RESTR.norm>
0

>  <SCORE.SYSTEM>
0

>  <SCORE.SYSTEM.CONST>
0

>  <SCORE.SYSTEM.DIHEDRAL>
0

>  <SCORE.SYSTEM.SOLV>
0

>  <SCORE.SYSTEM.norm>
0

>  <SCORE.heavy>
14

>  <SCORE.norm>
-0.546444

>  <RMSD>
4.333

$$$$
ligand
 OpenBabel11021811493D
libRbt.so/2013.1/901 2013/11/27
 14 13  0  0  0  0  0  0  0  0999 V2000
   54.6411    4.8647   -0.0558 N   0  0  0  0  0  0  0  0  0  0  0  0
   54.7964    4.9583   -1.4908 C   0  0  0  0  0  0  0  0  0  0  0  0
   55.6984    3.8055   -1.9773 C   0  0  0  0  0  0  0  0  0  0  0  0
   57.1348    3.8653   -1.4349 C   0  0  0  0  0  0  0  0  0  0  0  0
   58.0532    2.8326   -1.9386 N   0  0  0  0  0  0  0  0  0  0  0  0
   57.8539    1.4001   -1.7260 C   0  0  0  0  0  0  0  0  0  0  0  0
   57.7877    1.0190   -0.2507 C   0  0  0  0  0  0  0  0  0  0  0  0
   57.8582   -0.4914   -0.0032 C   0  0  0  0  0  0  0  0  0  0  0  0
   57.8302   -0.8311    1.4917 C   0  0  0  0  0  0  0  0  0  0  0  0
   58.1852   -2.2367    1.6753 N   0  0  0  0  0  0  0  0  0  0  0  0
   59.4602   -2.7039    2.2227 C   0  0  0  0  0  0  0  0  0  0  0  0
   59.7704   -4.1604    1.8504 C   0  0  0  0  0  0  0  0  0  0  0  0
   61.1291   -4.6021    2.4038 C   0  0  0  0  0  0  0  0  0  0  0  0
   61.0905   -4.5731    3.8629 N   0  0  0  0  0  0  0  0  0  0  0  0
  1  2  1  0  0  0  0
  2  3  1  0  0  0  0
  3  4  1  0  0  0  0
  4  5  1  0  0  0  0
  5  6  1  0  0  0  0
  6  7  1  0  0  0  0
  7  8  1  0  0  0  0
  8  9  1  0  0  0  0
  9 10  1  0  0  0  0
 10 11  1  0  0  0  0
 11 12  1  0  0  0  0
 12 13  1  0  0  0  0
 13 14  1  0  0  0  0
M  END
>  <CHROM.1>
-63.86664079,-176.36636640,-61.73862846,-58.60456122,-168.56730343,178.32268063
-167.96817901,107.34654609,-159.46934973,178.30508751,63.79978536,57.94921672
0.22476411,0.33046063,2.17599463,0.70530103,-0.88111389

>  <Name>
ligand

>  <RI>
0

>  <Rbt.Current_Directory>
/home/itssahil/PROJECTS/Mol_Feturizer/New_Systems/rnas/4FAW

>  <Rbt.Executable>
rbdock ($Id: //depot/dev/client3/rdock/2013.1/src/exe/rbdock.cxx#4 $)

>  <Rbt.Library>
libRbt.so (2013.1, Build901 2013/11/27)

>  <Rbt.Parameter_File>
/export/apps/rDock/src/rDock_2013.1_src/data/scripts/dock_solv.prm

>  <Rbt.Receptor>
prm/pocket_docking_5.prm

>  <SCORE>
-9.58469

>  <SCORE.INTER>
-1.13189

>  <SCORE.INTER.CONST>
1

>  <SCORE.INTER.POLAR>
0

>  <SCORE.INTER.ROT>
11

>  <SCORE.INTER.SOLV>
14.4617

>  <SCORE.INTER.VDW>
-16.5085

>  <SCORE.INTER.norm>
-0.0808493

>  <SCORE.INTRA>
-8.4528

>  <SCORE.INTRA.DIHEDRAL>
-16.5156

>  <SCORE.INTRA.DIHEDRAL.0>
19.1003

>  <SCORE.INTRA.POLAR>
0

>  <SCORE.INTRA.POLAR.0>
0

>  <SCORE.INTRA.REPUL>
0

>  <SCORE.INTRA.REPUL.0>
0

>  <SCORE.INTRA.SOLV>
-0.0120062

>  <SCORE.INTRA.SOLV.lig_0>
-47.5333

>  <SCORE.INTRA.VDW>
-0.188985

>  <SCORE.INTRA.VDW.0>
-0.287413

>  <SCORE.INTRA.norm>
-0.603771

>  <SCORE.RESTR>
0

>  <SCORE.RESTR.CAVITY>
0

>  <SCORE.RESTR.norm>
0

>  <SCORE.SYSTEM>
0

>  <SCORE.SYSTEM.CONST>
0

>  <SCORE.SYSTEM.DIHEDRAL>
0

>  <SCORE.SYSTEM.SOLV>
0

>  <SCORE.SYSTEM.norm>
0

>  <SCORE.heavy>
14

>  <SCORE.norm>
-0.684621

>  <RMSD>
4.339

$$$$
ligand
 OpenBabel11021811493D
libRbt.so/2013.1/901 2013/11/27
 14 13  0  0  0  0  0  0  0  0999 V2000
   61.5710   -4.5513    3.4576 N   0  0  0  0  0  0  0  0  0  0  0  0
   61.6238   -3.1601    3.0652 C   0  0  0  0  0  0  0  0  0  0  0  0
   60.1865   -2.6092    2.9640 C   0  0  0  0  0  0  0  0  0  0  0  0
   60.1102   -1.1456    2.5023 C   0  0  0  0  0  0  0  0  0  0  0  0
   58.7565   -0.5854    2.3703 N   0  0  0  0  0  0  0  0  0  0  0  0
   57.7419   -1.1268    1.4679 C   0  0  0  0  0  0  0  0  0  0  0  0
   57.9276   -0.6772    0.0224 C   0  0  0  0  0  0  0  0  0  0  0  0
   57.6086    0.8040   -0.2054 C   0  0  0  0  0  0  0  0  0  0  0  0
   57.9095    1.2424   -1.6435 C   0  0  0  0  0  0  0  0  0  0  0  0
   57.1261    2.4348   -1.9599 N   0  0  0  0  0  0  0  0  0  0  0  0
   57.2519    3.7167   -1.2639 C   0  0  0  0  0  0  0  0  0  0  0  0
   55.9943    4.5881   -1.3886 C   0  0  0  0  0  0  0  0  0  0  0  0
   56.1103    5.8618   -0.5449 C   0  0  0  0  0  0  0  0  0  0  0  0
   54.8734    6.6296   -0.6543 N   0  0  0  0  0  0  0  0  0  0  0  0
  1  2  1  0  0  0  0
  2  3  1  0  0  0  0
  3  4  1  0  0  0  0
  4  5  1  0  0  0  0
  5  6  1  0  0  0  0
  6  7  1  0  0  0  0
  7  8  1  0  0  0  0
  8  9  1  0  0  0  0
  9 10  1  0  0  0  0
 10 11  1  0  0  0  0
 11 12  1  0  0  0  0
 12 13  1  0  0  0  0
 13 14  1  0  0  0  0
M  END
>  <CHROM.1>
-177.88650601,179.03172036,-60.12053286,-80.14597819,-70.70808791,175.62361238
157.54320137,61.95098212,-157.15347813,174.77866585,-177.79135912,58.19944552
0.81577488,0.58486548,-0.07240928,-1.09309376,1.01485576

>  <Name>
ligand

>  <RI>
0

>  <Rbt.Current_Directory>
/home/itssahil/PROJECTS/Mol_Feturizer/New_Systems/rnas/4FAW

>  <Rbt.Executable>
rbdock ($Id: //depot/dev/client3/rdock/2013.1/src/exe/rbdock.cxx#4 $)

>  <Rbt.Library>
libRbt.so (2013.1, Build901 2013/11/27)

>  <Rbt.Parameter_File>
/export/apps/rDock/src/rDock_2013.1_src/data/scripts/dock_solv.prm

>  <Rbt.Receptor>
prm/pocket_docking_5.prm

>  <SCORE>
-9.47013

>  <SCORE.INTER>
-0.593954

>  <SCORE.INTER.CONST>
1

>  <SCORE.INTER.POLAR>
0

>  <SCORE.INTER.ROT>
11

>  <SCORE.INTER.SOLV>
10.0512

>  <SCORE.INTER.VDW>
-14.6797

>  <SCORE.INTER.norm>
-0.0424253

>  <SCORE.INTRA>
-8.87617

>  <SCORE.INTRA.DIHEDRAL>
-16.0708

>  <SCORE.INTRA.DIHEDRAL.0>
19.1003

>  <SCORE.INTRA.POLAR>
0

>  <SCORE.INTRA.POLAR.0>
0

>  <SCORE.INTRA.REPUL>
0

>  <SCORE.INTRA.REPUL.0>
0

>  <SCORE.INTRA.SOLV>
-1.14968

>  <SCORE.INTRA.SOLV.lig_0>
-47.5333

>  <SCORE.INTRA.VDW>
-0.265939

>  <SCORE.INTRA.VDW.0>
-0.287413

>  <SCORE.INTRA.norm>
-0.634012

>  <SCORE.RESTR>
0

>  <SCORE.RESTR.CAVITY>
0

>  <SCORE.RESTR.norm>
0

>  <SCORE.SYSTEM>
0

>  <SCORE.SYSTEM.CONST>
0

>  <SCORE.SYSTEM.DIHEDRAL>
0

>  <SCORE.SYSTEM.SOLV>
0

>  <SCORE.SYSTEM.norm>
0

>  <SCORE.heavy>
14

>  <SCORE.norm>
-0.676438

>  <RMSD>
4.339

$$$$
ligand
 OpenBabel11021811493D
libRbt.so/2013.1/901 2013/11/27
 14 13  0  0  0  0  0  0  0  0999 V2000
   55.4208    4.7099   -1.9137 N   0  0  0  0  0  0  0  0  0  0  0  0
   56.1862    3.4956   -1.7352 C   0  0  0  0  0  0  0  0  0  0  0  0
   57.0152    3.6072   -0.4391 C   0  0  0  0  0  0  0  0  0  0  0  0
   57.8846    2.3746   -0.1462 C   0  0  0  0  0  0  0  0  0  0  0  0
   57.1670    1.0949   -0.0417 N   0  0  0  0  0  0  0  0  0  0  0  0
   56.1637    0.8118    0.9832 C   0  0  0  0  0  0  0  0  0  0  0  0
   56.1764   -0.6415    1.4457 C   0  0  0  0  0  0  0  0  0  0  0  0
   57.4700   -1.0471    2.1595 C   0  0  0  0  0  0  0  0  0  0  0  0
   58.6420   -1.1997    1.1827 C   0  0  0  0  0  0  0  0  0  0  0  0
   59.8601   -1.5017    1.9317 N   0  0  0  0  0  0  0  0  0  0  0  0
   60.0809   -2.7337    2.6912 C   0  0  0  0  0  0  0  0  0  0  0  0
   60.2517   -2.4832    4.1960 C   0  0  0  0  0  0  0  0  0  0  0  0
   60.5709   -3.7804    4.9463 C   0  0  0  0  0  0  0  0  0  0  0  0
   60.7279   -3.4912    6.3686 N   0  0  0  0  0  0  0  0  0  0  0  0
  1  2  1  0  0  0  0
  2  3  1  0  0  0  0
  3  4  1  0  0  0  0
  4  5  1  0  0  0  0
  5  6  1  0  0  0  0
  6  7  1  0  0  0  0
  7  8  1  0  0  0  0
  8  9  1  0  0  0  0
  9 10  1  0  0  0  0
 10 11  1  0  0  0  0
 11 12  1  0  0  0  0
 12 13  1  0  0  0  0
 13 14  1  0  0  0  0
M  END
>  <CHROM.1>
-179.51281756,-57.47281127,-63.02920275,-145.26584983,64.84873592,-73.43231075
176.38896648,65.82161989,-116.73697239,-176.30530955,179.83298958,58.11546169
-0.05614096,1.54490247,-2.01571923,0.12192640,2.48604286

>  <Name>
ligand

>  <RI>
0

>  <Rbt.Current_Directory>
/home/itssahil/PROJECTS/Mol_Feturizer/New_Systems/rnas/4FAW

>  <Rbt.Executable>
rbdock ($Id: //depot/dev/client3/rdock/2013.1/src/exe/rbdock.cxx#4 $)

>  <Rbt.Library>
libRbt.so (2013.1, Build901 2013/11/27)

>  <Rbt.Parameter_File>
/export/apps/rDock/src/rDock_2013.1_src/data/scripts/dock_solv.prm

>  <Rbt.Receptor>
prm/pocket_docking_4.prm

>  <SCORE>
-5.80278

>  <SCORE.INTER>
2.61505

>  <SCORE.INTER.CONST>
1

>  <SCORE.INTER.POLAR>
0

>  <SCORE.INTER.ROT>
11

>  <SCORE.INTER.SOLV>
8.67292

>  <SCORE.INTER.VDW>
-12.0809

>  <SCORE.INTER.norm>
0.18679

>  <SCORE.INTRA>
-8.43675

>  <SCORE.INTRA.DIHEDRAL>
-16.1863

>  <SCORE.INTRA.DIHEDRAL.0>
19.1003

>  <SCORE.INTRA.POLAR>
0

>  <SCORE.INTRA.POLAR.0>
0

>  <SCORE.INTRA.REPUL>
0

>  <SCORE.INTRA.REPUL.0>
0

>  <SCORE.INTRA.SOLV>
-0.108527

>  <SCORE.INTRA.SOLV.lig_0>
-47.5333

>  <SCORE.INTRA.VDW>
-0.289349

>  <SCORE.INTRA.VDW.0>
-0.287413

>  <SCORE.INTRA.norm>
-0.602625

>  <SCORE.RESTR>
0.0189085

>  <SCORE.RESTR.CAVITY>
0.0189085

>  <SCORE.RESTR.norm>
0.0013506

>  <SCORE.SYSTEM>
0

>  <SCORE.SYSTEM.CONST>
0

>  <SCORE.SYSTEM.DIHEDRAL>
0

>  <SCORE.SYSTEM.SOLV>
0

>  <SCORE.SYSTEM.norm>
0

>  <SCORE.heavy>
14

>  <SCORE.norm>
-0.414484

>  <RMSD>
4.348

$$$$
ligand
 OpenBabel11021811493D
libRbt.so/2013.1/901 2013/11/27
 14 13  0  0  0  0  0  0  0  0999 V2000
   55.5142    7.4790   -2.3479 N   0  0  0  0  0  0  0  0  0  0  0  0
   55.5950    6.2752   -1.5502 C   0  0  0  0  0  0  0  0  0  0  0  0
   56.6347    5.3232   -2.1765 C   0  0  0  0  0  0  0  0  0  0  0  0
   56.8074    3.9997   -1.4153 C   0  0  0  0  0  0  0  0  0  0  0  0
   57.8306    3.0851   -1.9448 N   0  0  0  0  0  0  0  0  0  0  0  0
   57.7789    1.6332   -1.7829 C   0  0  0  0  0  0  0  0  0  0  0  0
   57.8687    1.1914   -0.3258 C   0  0  0  0  0  0  0  0  0  0  0  0
   57.8776   -0.3300   -0.1453 C   0  0  0  0  0  0  0  0  0  0  0  0
   58.2253   -0.7365    1.2916 C   0  0  0  0  0  0  0  0  0  0  0  0
   58.4700   -2.1764    1.3415 N   0  0  0  0  0  0  0  0  0  0  0  0
   59.1370   -2.8650    2.4481 C   0  0  0  0  0  0  0  0  0  0  0  0
   60.5915   -2.4136    2.6403 C   0  0  0  0  0  0  0  0  0  0  0  0
   61.2693   -3.1808    3.7803 C   0  0  0  0  0  0  0  0  0  0  0  0
   61.4033   -4.5856    3.4062 N   0  0  0  0  0  0  0  0  0  0  0  0
  1  2  1  0  0  0  0
  2  3  1  0  0  0  0
  3  4  1  0  0  0  0
  4  5  1  0  0  0  0
  5  6  1  0  0  0  0
  6  7  1  0  0  0  0
  7  8  1  0  0  0  0
  8  9  1  0  0  0  0
  9 10  1  0  0  0  0
 10 11  1  0  0  0  0
 11 12  1  0  0  0  0
 12 13  1  0  0  0  0
 13 14  1  0  0  0  0
M  END
>  <CHROM.1>
-179.82270881,-177.49218268,-152.55361416,-63.73325794,-177.46864497,169.51789473
-169.20136345,164.26011814,-62.90043992,-178.45379778,66.57020913,58.21452108
0.90705725,0.22999670,-2.40717164,1.03787977,-2.88427539

>  <Name>
ligand

>  <RI>
0

>  <Rbt.Current_Directory>
/home/itssahil/PROJECTS/Mol_Feturizer/New_Systems/rnas/4FAW

>  <Rbt.Executable>
rbdock ($Id: //depot/dev/client3/rdock/2013.1/src/exe/rbdock.cxx#4 $)

>  <Rbt.Library>
libRbt.so (2013.1, Build901 2013/11/27)

>  <Rbt.Parameter_File>
/export/apps/rDock/src/rDock_2013.1_src/data/scripts/dock_solv.prm

>  <Rbt.Receptor>
prm/pocket_docking_6.prm

>  <SCORE>
-9.78808

>  <SCORE.INTER>
-0.534207

>  <SCORE.INTER.CONST>
1

>  <SCORE.INTER.POLAR>
0

>  <SCORE.INTER.ROT>
11

>  <SCORE.INTER.SOLV>
14.414

>  <SCORE.INTER.VDW>
-16.0941

>  <SCORE.INTER.norm>
-0.0381577

>  <SCORE.INTRA>
-9.25387

>  <SCORE.INTRA.DIHEDRAL>
-17.2717

>  <SCORE.INTRA.DIHEDRAL.0>
19.1003

>  <SCORE.INTRA.POLAR>
0

>  <SCORE.INTRA.POLAR.0>
0

>  <SCORE.INTRA.REPUL>
0

>  <SCORE.INTRA.REPUL.0>
0

>  <SCORE.INTRA.SOLV>
-0.727911

>  <SCORE.INTRA.SOLV.lig_0>
-47.5333

>  <SCORE.INTRA.VDW>
-0.254074

>  <SCORE.INTRA.VDW.0>
-0.287413

>  <SCORE.INTRA.norm>
-0.660991

>  <SCORE.RESTR>
0

>  <SCORE.RESTR.CAVITY>
0

>  <SCORE.RESTR.norm>
0

>  <SCORE.SYSTEM>
0

>  <SCORE.SYSTEM.CONST>
0

>  <SCORE.SYSTEM.DIHEDRAL>
0

>  <SCORE.SYSTEM.SOLV>
0

>  <SCORE.SYSTEM.norm>
0

>  <SCORE.heavy>
14

>  <SCORE.norm>
-0.699149

>  <RMSD>
4.383

$$$$
ligand
 OpenBabel11021811493D
libRbt.so/2013.1/901 2013/11/27
 14 13  0  0  0  0  0  0  0  0999 V2000
   61.1217   -0.4294    5.2175 N   0  0  0  0  0  0  0  0  0  0  0  0
   60.6873   -0.9102    3.9243 C   0  0  0  0  0  0  0  0  0  0  0  0
   60.9875   -2.4197    3.8199 C   0  0  0  0  0  0  0  0  0  0  0  0
   60.4683   -3.0715    2.5290 C   0  0  0  0  0  0  0  0  0  0  0  0
   59.0139   -3.0070    2.3189 N   0  0  0  0  0  0  0  0  0  0  0  0
   58.3929   -2.3976    1.1442 C   0  0  0  0  0  0  0  0  0  0  0  0
   58.3938   -0.8731    1.1916 C   0  0  0  0  0  0  0  0  0  0  0  0
   57.8655   -0.2190   -0.0892 C   0  0  0  0  0  0  0  0  0  0  0  0
   57.8772    1.3116   -0.0001 C   0  0  0  0  0  0  0  0  0  0  0  0
   57.6595    1.8756   -1.3306 N   0  0  0  0  0  0  0  0  0  0  0  0
   57.6587    3.3081   -1.6326 C   0  0  0  0  0  0  0  0  0  0  0  0
   56.3074    3.9768   -1.3442 C   0  0  0  0  0  0  0  0  0  0  0  0
   56.3253    5.4611   -1.7242 C   0  0  0  0  0  0  0  0  0  0  0  0
   55.0126    6.0439   -1.4626 N   0  0  0  0  0  0  0  0  0  0  0  0
  1  2  1  0  0  0  0
  2  3  1  0  0  0  0
  3  4  1  0  0  0  0
  4  5  1  0  0  0  0
  5  6  1  0  0  0  0
  6  7  1  0  0  0  0
  7  8  1  0  0  0  0
  8  9  1  0  0  0  0
  9 10  1  0  0  0  0
 10 11  1  0  0  0  0
 11 12  1  0  0  0  0
 12 13  1  0  0  0  0
 13 14  1  0  0  0  0
M  END
>  <CHROM.1>
175.40659513,-60.69545376,122.32463533,-76.60428671,174.61605402,179.77464805
167.20564939,-177.61546035,-83.10322575,-177.70305598,178.64627008,58.41233918
0.61761525,0.89717517,-0.65683176,-0.99036553,0.19602473

>  <Name>
ligand

>  <RI>
0

>  <Rbt.Current_Directory>
/home/itssahil/PROJECTS/Mol_Feturizer/New_Systems/rnas/4FAW

>  <Rbt.Executable>
rbdock ($Id: //depot/dev/client3/rdock/2013.1/src/exe/rbdock.cxx#4 $)

>  <Rbt.Library>
libRbt.so (2013.1, Build901 2013/11/27)

>  <Rbt.Parameter_File>
/export/apps/rDock/src/rDock_2013.1_src/data/scripts/dock_solv.prm

>  <Rbt.Receptor>
prm/pocket_docking_5.prm

>  <SCORE>
-9.88782

>  <SCORE.INTER>
-0.0145473

>  <SCORE.INTER.CONST>
1

>  <SCORE.INTER.POLAR>
0

>  <SCORE.INTER.ROT>
11

>  <SCORE.INTER.SOLV>
12.6953

>  <SCORE.INTER.VDW>
-15.1748

>  <SCORE.INTER.norm>
-0.00103909

>  <SCORE.INTRA>
-9.87328

>  <SCORE.INTRA.DIHEDRAL>
-16.4855

>  <SCORE.INTRA.DIHEDRAL.0>
19.1003

>  <SCORE.INTRA.POLAR>
0

>  <SCORE.INTRA.POLAR.0>
0

>  <SCORE.INTRA.REPUL>
0

>  <SCORE.INTRA.REPUL.0>
0

>  <SCORE.INTRA.SOLV>
-1.17483

>  <SCORE.INTRA.SOLV.lig_0>
-47.5333

>  <SCORE.INTRA.VDW>
-1.04313

>  <SCORE.INTRA.VDW.0>
-0.287413

>  <SCORE.INTRA.norm>
-0.705234

>  <SCORE.RESTR>
0

>  <SCORE.RESTR.CAVITY>
0

>  <SCORE.RESTR.norm>
0

>  <SCORE.SYSTEM>
0

>  <SCORE.SYSTEM.CONST>
0

>  <SCORE.SYSTEM.DIHEDRAL>
0

>  <SCORE.SYSTEM.SOLV>
0

>  <SCORE.SYSTEM.norm>
0

>  <SCORE.heavy>
14

>  <SCORE.norm>
-0.706273

>  <RMSD>
4.412

$$$$
ligand
 OpenBabel11021811493D
libRbt.so/2013.1/901 2013/11/27
 14 13  0  0  0  0  0  0  0  0999 V2000
   54.6120    4.8102   -1.2137 N   0  0  0  0  0  0  0  0  0  0  0  0
   55.3890    3.6026   -1.3875 C   0  0  0  0  0  0  0  0  0  0  0  0
   56.8860    3.9377   -1.2259 C   0  0  0  0  0  0  0  0  0  0  0  0
   57.8189    2.7301   -1.4059 C   0  0  0  0  0  0  0  0  0  0  0  0
   57.6467    1.6375   -0.4362 N   0  0  0  0  0  0  0  0  0  0  0  0
   57.7944    0.2236   -0.7767 C   0  0  0  0  0  0  0  0  0  0  0  0
   57.6971   -0.6958    0.4364 C   0  0  0  0  0  0  0  0  0  0  0  0
   58.7823   -0.4417    1.4877 C   0  0  0  0  0  0  0  0  0  0  0  0
   58.7060   -1.4429    2.6464 C   0  0  0  0  0  0  0  0  0  0  0  0
   59.7252   -1.1118    3.6400 N   0  0  0  0  0  0  0  0  0  0  0  0
   61.1444   -1.4486    3.5142 C   0  0  0  0  0  0  0  0  0  0  0  0
   62.0189   -0.7438    4.5604 C   0  0  0  0  0  0  0  0  0  0  0  0
   61.5997   -1.1202    5.9852 C   0  0  0  0  0  0  0  0  0  0  0  0
   60.2847   -0.5532    6.2690 N   0  0  0  0  0  0  0  0  0  0  0  0
  1  2  1  0  0  0  0
  2  3  1  0  0  0  0
  3  4  1  0  0  0  0
  4  5  1  0  0  0  0
  5  6  1  0  0  0  0
  6  7  1  0  0  0  0
  7  8  1  0  0  0  0
  8  9  1  0  0  0  0
  9 10  1  0  0  0  0
 10 11  1  0  0  0  0
 11 12  1  0  0  0  0
 12 13  1  0  0  0  0
 13 14  1  0  0  0  0
M  END
>  <CHROM.1>
-179.33807551,-62.26746829,144.15813745,174.44013741,-61.26231374,-176.31109231
-177.51179448,-78.86647605,168.68340860,59.89620272,-68.38774705,58.57915357
0.67003439,1.57789726,3.09260568,1.01080206,-2.45161611

>  <Name>
ligand

>  <RI>
0

>  <Rbt.Current_Directory>
/home/itssahil/PROJECTS/Mol_Feturizer/New_Systems/rnas/4FAW

>  <Rbt.Executable>
rbdock ($Id: //depot/dev/client3/rdock/2013.1/src/exe/rbdock.cxx#4 $)

>  <Rbt.Library>
libRbt.so (2013.1, Build901 2013/11/27)

>  <Rbt.Parameter_File>
/export/apps/rDock/src/rDock_2013.1_src/data/scripts/dock_solv.prm

>  <Rbt.Receptor>
prm/pocket_docking_4.prm

>  <SCORE>
-8.32912

>  <SCORE.INTER>
-0.0157181

>  <SCORE.INTER.CONST>
1

>  <SCORE.INTER.POLAR>
0

>  <SCORE.INTER.ROT>
11

>  <SCORE.INTER.SOLV>
7.23618

>  <SCORE.INTER.VDW>
-13.3559

>  <SCORE.INTER.norm>
-0.00112272

>  <SCORE.INTRA>
-8.33254

>  <SCORE.INTRA.DIHEDRAL>
-17.553

>  <SCORE.INTRA.DIHEDRAL.0>
19.1003

>  <SCORE.INTRA.POLAR>
0

>  <SCORE.INTRA.POLAR.0>
0

>  <SCORE.INTRA.REPUL>
0

>  <SCORE.INTRA.REPUL.0>
0

>  <SCORE.INTRA.SOLV>
2.28969

>  <SCORE.INTRA.SOLV.lig_0>
-47.5333

>  <SCORE.INTRA.VDW>
-0.700858

>  <SCORE.INTRA.VDW.0>
-0.287413

>  <SCORE.INTRA.norm>
-0.595181

>  <SCORE.RESTR>
0.0191316

>  <SCORE.RESTR.CAVITY>
0.0191316

>  <SCORE.RESTR.norm>
0.00136654

>  <SCORE.SYSTEM>
0

>  <SCORE.SYSTEM.CONST>
0

>  <SCORE.SYSTEM.DIHEDRAL>
0

>  <SCORE.SYSTEM.SOLV>
0

>  <SCORE.SYSTEM.norm>
0

>  <SCORE.heavy>
14

>  <SCORE.norm>
-0.594937

>  <RMSD>
4.417

$$$$
ligand
 OpenBabel11021811493D
libRbt.so/2013.1/901 2013/11/27
 14 13  0  0  0  0  0  0  0  0999 V2000
   59.3451    0.0421    3.3648 N   0  0  0  0  0  0  0  0  0  0  0  0
   59.8425   -0.6597    2.2020 C   0  0  0  0  0  0  0  0  0  0  0  0
   58.8584   -1.7894    1.8348 C   0  0  0  0  0  0  0  0  0  0  0  0
   57.5071   -1.2907    1.2998 C   0  0  0  0  0  0  0  0  0  0  0  0
   57.5502   -0.5828    0.0112 N   0  0  0  0  0  0  0  0  0  0  0  0
   57.6832    0.8679   -0.1103 C   0  0  0  0  0  0  0  0  0  0  0  0
   57.8689    1.3318   -1.5514 C   0  0  0  0  0  0  0  0  0  0  0  0
   58.0043    2.8512   -1.6943 C   0  0  0  0  0  0  0  0  0  0  0  0
   56.6961    3.5788   -1.3623 C   0  0  0  0  0  0  0  0  0  0  0  0
   56.8429    5.0009   -1.6652 N   0  0  0  0  0  0  0  0  0  0  0  0
   55.8063    6.0082   -1.4324 C   0  0  0  0  0  0  0  0  0  0  0  0
   55.9437    6.7003   -0.0692 C   0  0  0  0  0  0  0  0  0  0  0  0
   55.7984    5.7007    1.0829 C   0  0  0  0  0  0  0  0  0  0  0  0
   55.8654    6.4143    2.3547 N   0  0  0  0  0  0  0  0  0  0  0  0
  1  2  1  0  0  0  0
  2  3  1  0  0  0  0
  3  4  1  0  0  0  0
  4  5  1  0  0  0  0
  5  6  1  0  0  0  0
  6  7  1  0  0  0  0
  7  8  1  0  0  0  0
  8  9  1  0  0  0  0
  9 10  1  0  0  0  0
 10 11  1  0  0  0  0
 11 12  1  0  0  0  0
 12 13  1  0  0  0  0
 13 14  1  0  0  0  0
M  END
>  <CHROM.1>
68.75101804,65.62006039,-92.30894686,173.15824624,179.77974790,-68.28235856
-173.48964629,-177.97586714,93.33760753,-61.91964094,-177.02849932,57.40087855
2.44085477,0.30435793,0.01288443,-1.21503421,1.32624022

>  <Name>
ligand

>  <RI>
0

>  <Rbt.Current_Directory>
/home/itssahil/PROJECTS/Mol_Feturizer/New_Systems/rnas/4FAW

>  <Rbt.Executable>
rbdock ($Id: //depot/dev/client3/rdock/2013.1/src/exe/rbdock.cxx#4 $)

>  <Rbt.Library>
libRbt.so (2013.1, Build901 2013/11/27)

>  <Rbt.Parameter_File>
/export/apps/rDock/src/rDock_2013.1_src/data/scripts/dock_solv.prm

>  <Rbt.Receptor>
prm/pocket_docking_5.prm

>  <SCORE>
-9.39494

>  <SCORE.INTER>
-0.960199

>  <SCORE.INTER.CONST>
1

>  <SCORE.INTER.POLAR>
0

>  <SCORE.INTER.ROT>
11

>  <SCORE.INTER.SOLV>
12.486

>  <SCORE.INTER.VDW>
-15.7355

>  <SCORE.INTER.norm>
-0.0685857

>  <SCORE.INTRA>
-8.43474

>  <SCORE.INTRA.DIHEDRAL>
-16.7893

>  <SCORE.INTRA.DIHEDRAL.0>
19.1003

>  <SCORE.INTRA.POLAR>
0

>  <SCORE.INTRA.POLAR.0>
0

>  <SCORE.INTRA.REPUL>
0

>  <SCORE.INTRA.REPUL.0>
0

>  <SCORE.INTRA.SOLV>
1.08895

>  <SCORE.INTRA.SOLV.lig_0>
-47.5333

>  <SCORE.INTRA.VDW>
-0.584538

>  <SCORE.INTRA.VDW.0>
-0.287413

>  <SCORE.INTRA.norm>
-0.602481

>  <SCORE.RESTR>
0

>  <SCORE.RESTR.CAVITY>
0

>  <SCORE.RESTR.norm>
0

>  <SCORE.SYSTEM>
0

>  <SCORE.SYSTEM.CONST>
0

>  <SCORE.SYSTEM.DIHEDRAL>
0

>  <SCORE.SYSTEM.SOLV>
0

>  <SCORE.SYSTEM.norm>
0

>  <SCORE.heavy>
14

>  <SCORE.norm>
-0.671067

>  <RMSD>
4.439

$$$$
ligand
 OpenBabel11021811493D
libRbt.so/2013.1/901 2013/11/27
 14 13  0  0  0  0  0  0  0  0999 V2000
   54.9980    5.8573   -0.7039 N   0  0  0  0  0  0  0  0  0  0  0  0
   55.9751    4.8594   -0.3275 C   0  0  0  0  0  0  0  0  0  0  0  0
   56.6161    4.2742   -1.6027 C   0  0  0  0  0  0  0  0  0  0  0  0
   57.6210    3.1433   -1.3336 C   0  0  0  0  0  0  0  0  0  0  0  0
   57.0897    1.9700   -0.6232 N   0  0  0  0  0  0  0  0  0  0  0  0
   57.9026    0.8133   -0.2516 C   0  0  0  0  0  0  0  0  0  0  0  0
   57.0878   -0.3109    0.3797 C   0  0  0  0  0  0  0  0  0  0  0  0
   57.9181   -1.5516    0.7245 C   0  0  0  0  0  0  0  0  0  0  0  0
   58.9373   -1.2710    1.8351 C   0  0  0  0  0  0  0  0  0  0  0  0
   59.7383   -2.4703    2.0713 N   0  0  0  0  0  0  0  0  0  0  0  0
   59.8005   -3.1864    3.3467 C   0  0  0  0  0  0  0  0  0  0  0  0
   60.8800   -2.6341    4.2879 C   0  0  0  0  0  0  0  0  0  0  0  0
   60.5451   -1.2121    4.7499 C   0  0  0  0  0  0  0  0  0  0  0  0
   61.5555   -0.7618    5.7026 N   0  0  0  0  0  0  0  0  0  0  0  0
  1  2  1  0  0  0  0
  2  3  1  0  0  0  0
  3  4  1  0  0  0  0
  4  5  1  0  0  0  0
  5  6  1  0  0  0  0
  6  7  1  0  0  0  0
  7  8  1  0  0  0  0
  8  9  1  0  0  0  0
  9 10  1  0  0  0  0
 10 11  1  0  0  0  0
 11 12  1  0  0  0  0
 12 13  1  0  0  0  0
 13 14  1  0  0  0  0
M  END
>  <CHROM.1>
-176.83444024,59.00386996,-178.45924637,-175.54479427,177.75436995,66.38127456
-177.27305687,-119.43937965,-87.72458612,66.49662263,176.62048847,58.33321279
0.53683102,1.30382606,-2.62158183,1.00873085,-2.82458611

>  <Name>
ligand

>  <RI>
0

>  <Rbt.Current_Directory>
/home/itssahil/PROJECTS/Mol_Feturizer/New_Systems/rnas/4FAW

>  <Rbt.Executable>
rbdock ($Id: //depot/dev/client3/rdock/2013.1/src/exe/rbdock.cxx#4 $)

>  <Rbt.Library>
libRbt.so (2013.1, Build901 2013/11/27)

>  <Rbt.Parameter_File>
/export/apps/rDock/src/rDock_2013.1_src/data/scripts/dock_solv.prm

>  <Rbt.Receptor>
prm/pocket_docking_5.prm

>  <SCORE>
-7.92186

>  <SCORE.INTER>
1.2439

>  <SCORE.INTER.CONST>
1

>  <SCORE.INTER.POLAR>
0

>  <SCORE.INTER.ROT>
11

>  <SCORE.INTER.SOLV>
10.6478

>  <SCORE.INTER.VDW>
-13.6533

>  <SCORE.INTER.norm>
0.0888498

>  <SCORE.INTRA>
-9.16576

>  <SCORE.INTRA.DIHEDRAL>
-16.8945

>  <SCORE.INTRA.DIHEDRAL.0>
19.1003

>  <SCORE.INTRA.POLAR>
0

>  <SCORE.INTRA.POLAR.0>
0

>  <SCORE.INTRA.REPUL>
0

>  <SCORE.INTRA.REPUL.0>
0

>  <SCORE.INTRA.SOLV>
-0.675336

>  <SCORE.INTRA.SOLV.lig_0>
-47.5333

>  <SCORE.INTRA.VDW>
-0.380831

>  <SCORE.INTRA.VDW.0>
-0.287413

>  <SCORE.INTRA.norm>
-0.654697

>  <SCORE.RESTR>
0

>  <SCORE.RESTR.CAVITY>
0

>  <SCORE.RESTR.norm>
0

>  <SCORE.SYSTEM>
0

>  <SCORE.SYSTEM.CONST>
0

>  <SCORE.SYSTEM.DIHEDRAL>
0

>  <SCORE.SYSTEM.SOLV>
0

>  <SCORE.SYSTEM.norm>
0

>  <SCORE.heavy>
14

>  <SCORE.norm>
-0.565847

>  <RMSD>
4.444

$$$$
ligand
 OpenBabel11021811493D
libRbt.so/2013.1/901 2013/11/27
 14 13  0  0  0  0  0  0  0  0999 V2000
   60.2253   -4.3340    6.0933 N   0  0  0  0  0  0  0  0  0  0  0  0
   59.7733   -3.4431    5.0472 C   0  0  0  0  0  0  0  0  0  0  0  0
   60.6087   -3.6934    3.7748 C   0  0  0  0  0  0  0  0  0  0  0  0
   60.2956   -2.7266    2.6223 C   0  0  0  0  0  0  0  0  0  0  0  0
   58.9753   -2.8854    1.9938 N   0  0  0  0  0  0  0  0  0  0  0  0
   58.3969   -1.9110    1.0703 C   0  0  0  0  0  0  0  0  0  0  0  0
   57.3955   -0.9753    1.7398 C   0  0  0  0  0  0  0  0  0  0  0  0
   57.0286    0.2429    0.8862 C   0  0  0  0  0  0  0  0  0  0  0  0
   58.2034    1.2171    0.7395 C   0  0  0  0  0  0  0  0  0  0  0  0
   57.7651    2.3952   -0.0059 N   0  0  0  0  0  0  0  0  0  0  0  0
   57.5308    2.4208   -1.4509 C   0  0  0  0  0  0  0  0  0  0  0  0
   56.2841    3.2283   -1.8379 C   0  0  0  0  0  0  0  0  0  0  0  0
   56.4814    4.7242   -1.5716 C   0  0  0  0  0  0  0  0  0  0  0  0
   55.2845    5.4515   -1.9833 N   0  0  0  0  0  0  0  0  0  0  0  0
  1  2  1  0  0  0  0
  2  3  1  0  0  0  0
  3  4  1  0  0  0  0
  4  5  1  0  0  0  0
  5  6  1  0  0  0  0
  6  7  1  0  0  0  0
  7  8  1  0  0  0  0
  8  9  1  0  0  0  0
  9 10  1  0  0  0  0
 10 11  1  0  0  0  0
 11 12  1  0  0  0  0
 12 13  1  0  0  0  0
 13 14  1  0  0  0  0
M  END
>  <CHROM.1>
-175.41472715,-69.13039128,167.80304364,-98.93309540,166.53192501,-68.92268830
-176.22739263,-74.77008773,139.36716186,68.32689382,178.68787999,58.16065390
-0.02069288,1.22256419,0.40402909,-1.17708580,1.35561503

>  <Name>
ligand

>  <RI>
0

>  <Rbt.Current_Directory>
/home/itssahil/PROJECTS/Mol_Feturizer/New_Systems/rnas/4FAW

>  <Rbt.Executable>
rbdock ($Id: //depot/dev/client3/rdock/2013.1/src/exe/rbdock.cxx#4 $)

>  <Rbt.Library>
libRbt.so (2013.1, Build901 2013/11/27)

>  <Rbt.Parameter_File>
/export/apps/rDock/src/rDock_2013.1_src/data/scripts/dock_solv.prm

>  <Rbt.Receptor>
prm/pocket_docking_5.prm

>  <SCORE>
-7.59226

>  <SCORE.INTER>
0.958533

>  <SCORE.INTER.CONST>
1

>  <SCORE.INTER.POLAR>
0

>  <SCORE.INTER.ROT>
11

>  <SCORE.INTER.SOLV>
11.4184

>  <SCORE.INTER.VDW>
-14.1005

>  <SCORE.INTER.norm>
0.0684666

>  <SCORE.INTRA>
-8.55079

>  <SCORE.INTRA.DIHEDRAL>
-15.3307

>  <SCORE.INTRA.DIHEDRAL.0>
19.1003

>  <SCORE.INTRA.POLAR>
0

>  <SCORE.INTRA.POLAR.0>
0

>  <SCORE.INTRA.REPUL>
0

>  <SCORE.INTRA.REPUL.0>
0

>  <SCORE.INTRA.SOLV>
-0.721664

>  <SCORE.INTRA.SOLV.lig_0>
-47.5333

>  <SCORE.INTRA.VDW>
-0.524621

>  <SCORE.INTRA.VDW.0>
-0.287413

>  <SCORE.INTRA.norm>
-0.610771

>  <SCORE.RESTR>
0

>  <SCORE.RESTR.CAVITY>
0

>  <SCORE.RESTR.norm>
0

>  <SCORE.SYSTEM>
0

>  <SCORE.SYSTEM.CONST>
0

>  <SCORE.SYSTEM.DIHEDRAL>
0

>  <SCORE.SYSTEM.SOLV>
0

>  <SCORE.SYSTEM.norm>
0

>  <SCORE.heavy>
14

>  <SCORE.norm>
-0.542304

>  <RMSD>
4.445

$$$$
ligand
 OpenBabel11021811493D
libRbt.so/2013.1/901 2013/11/27
 14 13  0  0  0  0  0  0  0  0999 V2000
   53.7115    3.4832   -6.5160 N   0  0  0  0  0  0  0  0  0  0  0  0
   53.9892    2.0752   -6.6961 C   0  0  0  0  0  0  0  0  0  0  0  0
   52.6846    1.3487   -7.0833 C   0  0  0  0  0  0  0  0  0  0  0  0
   51.6360    1.3083   -5.9609 C   0  0  0  0  0  0  0  0  0  0  0  0
   52.0239    0.5720   -4.7481 N   0  0  0  0  0  0  0  0  0  0  0  0
   51.4377    0.8166   -3.4315 C   0  0  0  0  0  0  0  0  0  0  0  0
   51.8349   -0.2316   -2.3971 C   0  0  0  0  0  0  0  0  0  0  0  0
   51.2695    0.0406   -0.9994 C   0  0  0  0  0  0  0  0  0  0  0  0
   51.9223    1.2629   -0.3431 C   0  0  0  0  0  0  0  0  0  0  0  0
   53.2901    0.9291    0.0487 N   0  0  0  0  0  0  0  0  0  0  0  0
   53.9845    1.5041    1.2022 C   0  0  0  0  0  0  0  0  0  0  0  0
   55.1380    0.6236    1.7027 C   0  0  0  0  0  0  0  0  0  0  0  0
   55.7706    1.1996    2.9738 C   0  0  0  0  0  0  0  0  0  0  0  0
   56.8906    0.3569    3.3821 N   0  0  0  0  0  0  0  0  0  0  0  0
  1  2  1  0  0  0  0
  2  3  1  0  0  0  0
  3  4  1  0  0  0  0
  4  5  1  0  0  0  0
  5  6  1  0  0  0  0
  6  7  1  0  0  0  0
  7  8  1  0  0  0  0
  8  9  1  0  0  0  0
  9 10  1  0  0  0  0
 10 11  1  0  0  0  0
 11 12  1  0  0  0  0
 12 13  1  0  0  0  0
 13 14  1  0  0  0  0
M  END
>  <CHROM.1>
-67.57762118,-63.18157750,156.22356071,170.16664550,177.86718963,-69.54453307
-72.32482951,-148.70709672,157.50068679,-175.54764016,-177.93312172,53.25565550
1.09199829,-2.06189416,-1.88608476,0.37366971,1.79272865

>  <Name>
ligand

>  <RI>
0

>  <Rbt.Current_Directory>
/home/itssahil/PROJECTS/Mol_Feturizer/New_Systems/rnas/4FAW

>  <Rbt.Executable>
rbdock ($Id: //depot/dev/client3/rdock/2013.1/src/exe/rbdock.cxx#4 $)

>  <Rbt.Library>
libRbt.so (2013.1, Build901 2013/11/27)

>  <Rbt.Parameter_File>
/export/apps/rDock/src/rDock_2013.1_src/data/scripts/dock_solv.prm

>  <Rbt.Receptor>
prm/pocket_docking_8.prm

>  <SCORE>
-6.53751

>  <SCORE.INTER>
1.90874

>  <SCORE.INTER.CONST>
1

>  <SCORE.INTER.POLAR>
0

>  <SCORE.INTER.ROT>
11

>  <SCORE.INTER.SOLV>
7.83361

>  <SCORE.INTER.VDW>
-12.272

>  <SCORE.INTER.norm>
0.136339

>  <SCORE.INTRA>
-8.44625

>  <SCORE.INTRA.DIHEDRAL>
-16.3138

>  <SCORE.INTRA.DIHEDRAL.0>
19.1003

>  <SCORE.INTRA.POLAR>
0

>  <SCORE.INTRA.POLAR.0>
0

>  <SCORE.INTRA.REPUL>
0

>  <SCORE.INTRA.REPUL.0>
0

>  <SCORE.INTRA.SOLV>
0.701671

>  <SCORE.INTRA.SOLV.lig_0>
-47.5333

>  <SCORE.INTRA.VDW>
-0.640188

>  <SCORE.INTRA.VDW.0>
-0.287413

>  <SCORE.INTRA.norm>
-0.603304

>  <SCORE.RESTR>
0

>  <SCORE.RESTR.CAVITY>
0

>  <SCORE.RESTR.norm>
0

>  <SCORE.SYSTEM>
0

>  <SCORE.SYSTEM.CONST>
0

>  <SCORE.SYSTEM.DIHEDRAL>
0

>  <SCORE.SYSTEM.SOLV>
0

>  <SCORE.SYSTEM.norm>
0

>  <SCORE.heavy>
14

>  <SCORE.norm>
-0.466965

>  <RMSD>
4.452

$$$$
ligand
 OpenBabel11021811493D
libRbt.so/2013.1/901 2013/11/27
 14 13  0  0  0  0  0  0  0  0999 V2000
   59.2676   -3.5212    6.5702 N   0  0  0  0  0  0  0  0  0  0  0  0
   59.4908   -2.8054    5.3333 C   0  0  0  0  0  0  0  0  0  0  0  0
   60.6998   -3.4248    4.6025 C   0  0  0  0  0  0  0  0  0  0  0  0
   61.0602   -2.7211    3.2849 C   0  0  0  0  0  0  0  0  0  0  0  0
   60.0372   -2.7751    2.2293 N   0  0  0  0  0  0  0  0  0  0  0  0
   58.8869   -1.8750    2.1715 C   0  0  0  0  0  0  0  0  0  0  0  0
   58.1555   -1.9262    0.8340 C   0  0  0  0  0  0  0  0  0  0  0  0
   56.9429   -0.9925    0.7616 C   0  0  0  0  0  0  0  0  0  0  0  0
   57.3496    0.4844    0.8275 C   0  0  0  0  0  0  0  0  0  0  0  0
   56.1492    1.3177    0.8225 N   0  0  0  0  0  0  0  0  0  0  0  0
   55.1789    1.3784    1.9173 C   0  0  0  0  0  0  0  0  0  0  0  0
   54.0129    2.3337    1.6275 C   0  0  0  0  0  0  0  0  0  0  0  0
   53.2060    1.8777    0.4074 C   0  0  0  0  0  0  0  0  0  0  0  0
   52.1066    2.8103    0.1776 N   0  0  0  0  0  0  0  0  0  0  0  0
  1  2  1  0  0  0  0
  2  3  1  0  0  0  0
  3  4  1  0  0  0  0
  4  5  1  0  0  0  0
  5  6  1  0  0  0  0
  6  7  1  0  0  0  0
  7  8  1  0  0  0  0
  8  9  1  0  0  0  0
  9 10  1  0  0  0  0
 10 11  1  0  0  0  0
 11 12  1  0  0  0  0
 12 13  1  0  0  0  0
 13 14  1  0  0  0  0
M  END
>  <CHROM.1>
-178.45890510,-63.48528003,81.60368930,167.17110616,179.71439650,65.85895548
-177.14766989,68.03938214,-179.60310216,62.17595245,179.64375263,57.32475470
-0.70286825,2.25470516,0.54427348,-0.59418543,1.78287794

>  <Name>
ligand

>  <RI>
0

>  <Rbt.Current_Directory>
/home/itssahil/PROJECTS/Mol_Feturizer/New_Systems/rnas/4FAW

>  <Rbt.Executable>
rbdock ($Id: //depot/dev/client3/rdock/2013.1/src/exe/rbdock.cxx#4 $)

>  <Rbt.Library>
libRbt.so (2013.1, Build901 2013/11/27)

>  <Rbt.Parameter_File>
/export/apps/rDock/src/rDock_2013.1_src/data/scripts/dock_solv.prm

>  <Rbt.Receptor>
prm/pocket_docking_4.prm

>  <SCORE>
-4.88783

>  <SCORE.INTER>
4.67773

>  <SCORE.INTER.CONST>
1

>  <SCORE.INTER.POLAR>
0

>  <SCORE.INTER.ROT>
11

>  <SCORE.INTER.SOLV>
9.33415

>  <SCORE.INTER.VDW>
-10.9262

>  <SCORE.INTER.norm>
0.334124

>  <SCORE.INTRA>
-9.56556

>  <SCORE.INTRA.DIHEDRAL>
-18.3258

>  <SCORE.INTRA.DIHEDRAL.0>
19.1003

>  <SCORE.INTRA.POLAR>
0

>  <SCORE.INTRA.POLAR.0>
0

>  <SCORE.INTRA.REPUL>
0

>  <SCORE.INTRA.REPUL.0>
0

>  <SCORE.INTRA.SOLV>
-0.623457

>  <SCORE.INTRA.SOLV.lig_0>
-47.5333

>  <SCORE.INTRA.VDW>
-0.0909501

>  <SCORE.INTRA.VDW.0>
-0.287413

>  <SCORE.INTRA.norm>
-0.683254

>  <SCORE.RESTR>
0

>  <SCORE.RESTR.CAVITY>
0

>  <SCORE.RESTR.norm>
0

>  <SCORE.SYSTEM>
0

>  <SCORE.SYSTEM.CONST>
0

>  <SCORE.SYSTEM.DIHEDRAL>
0

>  <SCORE.SYSTEM.SOLV>
0

>  <SCORE.SYSTEM.norm>
0

>  <SCORE.heavy>
14

>  <SCORE.norm>
-0.349131

>  <RMSD>
4.479

$$$$
ligand
 OpenBabel11021811493D
libRbt.so/2013.1/901 2013/11/27
 14 13  0  0  0  0  0  0  0  0999 V2000
   55.4535    7.4276    1.4157 N   0  0  0  0  0  0  0  0  0  0  0  0
   55.1976    6.7492    0.1641 C   0  0  0  0  0  0  0  0  0  0  0  0
   55.7819    7.5861   -0.9925 C   0  0  0  0  0  0  0  0  0  0  0  0
   55.5304    6.9874   -2.3851 C   0  0  0  0  0  0  0  0  0  0  0  0
   56.1251    5.6647   -2.6306 N   0  0  0  0  0  0  0  0  0  0  0  0
   55.4629    4.4055   -2.2948 C   0  0  0  0  0  0  0  0  0  0  0  0
   56.1356    3.6658   -1.1430 C   0  0  0  0  0  0  0  0  0  0  0  0
   57.5800    3.2505   -1.4408 C   0  0  0  0  0  0  0  0  0  0  0  0
   58.2187    2.5057   -0.2626 C   0  0  0  0  0  0  0  0  0  0  0  0
   57.5472    1.2204   -0.0812 N   0  0  0  0  0  0  0  0  0  0  0  0
   57.9650    0.1961    0.8778 C   0  0  0  0  0  0  0  0  0  0  0  0
   57.0555   -1.0403    0.8627 C   0  0  0  0  0  0  0  0  0  0  0  0
   55.6356   -0.6961    1.3242 C   0  0  0  0  0  0  0  0  0  0  0  0
   55.6671   -0.2898    2.7261 N   0  0  0  0  0  0  0  0  0  0  0  0
  1  2  1  0  0  0  0
  2  3  1  0  0  0  0
  3  4  1  0  0  0  0
  4  5  1  0  0  0  0
  5  6  1  0  0  0  0
  6  7  1  0  0  0  0
  7  8  1  0  0  0  0
  8  9  1  0  0  0  0
  9 10  1  0  0  0  0
 10 11  1  0  0  0  0
 11 12  1  0  0  0  0
 12 13  1  0  0  0  0
 13 14  1  0  0  0  0
M  END
>  <CHROM.1>
-178.07483631,-61.98207031,86.99565191,-110.77635025,-62.06415364,-179.76270065
66.90516504,174.64345709,178.99692926,-64.74842229,-65.26170308,56.38265584
3.40229558,-0.27596770,1.93839708,1.11982271,-0.65110496

>  <Name>
ligand

>  <RI>
0

>  <Rbt.Current_Directory>
/home/itssahil/PROJECTS/Mol_Feturizer/New_Systems/rnas/4FAW

>  <Rbt.Executable>
rbdock ($Id: //depot/dev/client3/rdock/2013.1/src/exe/rbdock.cxx#4 $)

>  <Rbt.Library>
libRbt.so (2013.1, Build901 2013/11/27)

>  <Rbt.Parameter_File>
/export/apps/rDock/src/rDock_2013.1_src/data/scripts/dock_solv.prm

>  <Rbt.Receptor>
prm/pocket_docking_7.prm

>  <SCORE>
-6.77497

>  <SCORE.INTER>
2.11179

>  <SCORE.INTER.CONST>
1

>  <SCORE.INTER.POLAR>
0

>  <SCORE.INTER.ROT>
11

>  <SCORE.INTER.SOLV>
9.48441

>  <SCORE.INTER.VDW>
-12.6869

>  <SCORE.INTER.norm>
0.150842

>  <SCORE.INTRA>
-8.88677

>  <SCORE.INTRA.DIHEDRAL>
-17.0261

>  <SCORE.INTRA.DIHEDRAL.0>
19.1003

>  <SCORE.INTRA.POLAR>
0

>  <SCORE.INTRA.POLAR.0>
0

>  <SCORE.INTRA.REPUL>
0

>  <SCORE.INTRA.REPUL.0>
0

>  <SCORE.INTRA.SOLV>
1.35011

>  <SCORE.INTRA.SOLV.lig_0>
-47.5333

>  <SCORE.INTRA.VDW>
-1.04878

>  <SCORE.INTRA.VDW.0>
-0.287413

>  <SCORE.INTRA.norm>
-0.634769

>  <SCORE.RESTR>
0

>  <SCORE.RESTR.CAVITY>
0

>  <SCORE.RESTR.norm>
0

>  <SCORE.SYSTEM>
0

>  <SCORE.SYSTEM.CONST>
0

>  <SCORE.SYSTEM.DIHEDRAL>
0

>  <SCORE.SYSTEM.SOLV>
0

>  <SCORE.SYSTEM.norm>
0

>  <SCORE.heavy>
14

>  <SCORE.norm>
-0.483927

>  <RMSD>
4.489

$$$$
ligand
 OpenBabel11021811493D
libRbt.so/2013.1/901 2013/11/27
 14 13  0  0  0  0  0  0  0  0999 V2000
   52.8094    2.0232   -8.7466 N   0  0  0  0  0  0  0  0  0  0  0  0
   51.9387    1.1882   -7.9487 C   0  0  0  0  0  0  0  0  0  0  0  0
   52.4519    1.1683   -6.4942 C   0  0  0  0  0  0  0  0  0  0  0  0
   51.5895    0.3282   -5.5394 C   0  0  0  0  0  0  0  0  0  0  0  0
   52.0159    0.3188   -4.1317 N   0  0  0  0  0  0  0  0  0  0  0  0
   51.2820   -0.3663   -3.0692 C   0  0  0  0  0  0  0  0  0  0  0  0
   51.7700    0.0035   -1.6723 C   0  0  0  0  0  0  0  0  0  0  0  0
   51.6734    1.5015   -1.3651 C   0  0  0  0  0  0  0  0  0  0  0  0
   52.1379    1.8275    0.0592 C   0  0  0  0  0  0  0  0  0  0  0  0
   53.5475    1.4695    0.2025 N   0  0  0  0  0  0  0  0  0  0  0  0
   54.2068    1.1976    1.4811 C   0  0  0  0  0  0  0  0  0  0  0  0
   54.7704   -0.2274    1.5695 C   0  0  0  0  0  0  0  0  0  0  0  0
   55.2886   -0.5377    2.9777 C   0  0  0  0  0  0  0  0  0  0  0  0
   56.3868    0.3685    3.3002 N   0  0  0  0  0  0  0  0  0  0  0  0
  1  2  1  0  0  0  0
  2  3  1  0  0  0  0
  3  4  1  0  0  0  0
  4  5  1  0  0  0  0
  5  6  1  0  0  0  0
  6  7  1  0  0  0  0
  7  8  1  0  0  0  0
  8  9  1  0  0  0  0
  9 10  1  0  0  0  0
 10 11  1  0  0  0  0
 11 12  1  0  0  0  0
 12 13  1  0  0  0  0
 13 14  1  0  0  0  0
M  END
>  <CHROM.1>
179.00025213,-177.96570835,176.76480028,-168.49329861,58.73540515,178.48993040
62.43184360,-157.88638560,118.93424549,-172.59182671,-62.28151408,52.99033851
0.73297565,-2.09824822,-1.86093634,0.05814883,1.66701212

>  <Name>
ligand

>  <RI>
0

>  <Rbt.Current_Directory>
/home/itssahil/PROJECTS/Mol_Feturizer/New_Systems/rnas/4FAW

>  <Rbt.Executable>
rbdock ($Id: //depot/dev/client3/rdock/2013.1/src/exe/rbdock.cxx#4 $)

>  <Rbt.Library>
libRbt.so (2013.1, Build901 2013/11/27)

>  <Rbt.Parameter_File>
/export/apps/rDock/src/rDock_2013.1_src/data/scripts/dock_solv.prm

>  <Rbt.Receptor>
prm/pocket_docking_7.prm

>  <SCORE>
-8.93169

>  <SCORE.INTER>
0.322847

>  <SCORE.INTER.CONST>
1

>  <SCORE.INTER.POLAR>
0

>  <SCORE.INTER.ROT>
11

>  <SCORE.INTER.SOLV>
9.75652

>  <SCORE.INTER.VDW>
-13.9703

>  <SCORE.INTER.norm>
0.0230605

>  <SCORE.INTRA>
-9.25454

>  <SCORE.INTRA.DIHEDRAL>
-17.1457

>  <SCORE.INTRA.DIHEDRAL.0>
19.1003

>  <SCORE.INTRA.POLAR>
0

>  <SCORE.INTRA.POLAR.0>
0

>  <SCORE.INTRA.REPUL>
0

>  <SCORE.INTRA.REPUL.0>
0

>  <SCORE.INTRA.SOLV>
0.0959789

>  <SCORE.INTRA.SOLV.lig_0>
-47.5333

>  <SCORE.INTRA.VDW>
-0.729666

>  <SCORE.INTRA.VDW.0>
-0.287413

>  <SCORE.INTRA.norm>
-0.661039

>  <SCORE.RESTR>
0

>  <SCORE.RESTR.CAVITY>
0

>  <SCORE.RESTR.norm>
0

>  <SCORE.SYSTEM>
0

>  <SCORE.SYSTEM.CONST>
0

>  <SCORE.SYSTEM.DIHEDRAL>
0

>  <SCORE.SYSTEM.SOLV>
0

>  <SCORE.SYSTEM.norm>
0

>  <SCORE.heavy>
14

>  <SCORE.norm>
-0.637978

>  <RMSD>
4.508

$$$$
ligand
 OpenBabel11021811493D
libRbt.so/2013.1/901 2013/11/27
 14 13  0  0  0  0  0  0  0  0999 V2000
   55.9098    5.1185   -2.3014 N   0  0  0  0  0  0  0  0  0  0  0  0
   56.2636    4.2483   -1.2015 C   0  0  0  0  0  0  0  0  0  0  0  0
   57.5505    3.4775   -1.5613 C   0  0  0  0  0  0  0  0  0  0  0  0
   58.0049    2.4831   -0.4817 C   0  0  0  0  0  0  0  0  0  0  0  0
   57.0426    1.4242   -0.1404 N   0  0  0  0  0  0  0  0  0  0  0  0
   57.2993    0.3905    0.8608 C   0  0  0  0  0  0  0  0  0  0  0  0
   58.0789   -0.7973    0.3061 C   0  0  0  0  0  0  0  0  0  0  0  0
   58.5703   -1.7670    1.3858 C   0  0  0  0  0  0  0  0  0  0  0  0
   59.7569   -1.1981    2.1726 C   0  0  0  0  0  0  0  0  0  0  0  0
   59.2864   -0.1322    3.0547 N   0  0  0  0  0  0  0  0  0  0  0  0
   59.7013    1.2683    2.9553 C   0  0  0  0  0  0  0  0  0  0  0  0
   59.7513    1.9730    4.3181 C   0  0  0  0  0  0  0  0  0  0  0  0
   60.8361    1.3729    5.2186 C   0  0  0  0  0  0  0  0  0  0  0  0
   60.7767    2.0032    6.5341 N   0  0  0  0  0  0  0  0  0  0  0  0
  1  2  1  0  0  0  0
  2  3  1  0  0  0  0
  3  4  1  0  0  0  0
  4  5  1  0  0  0  0
  5  6  1  0  0  0  0
  6  7  1  0  0  0  0
  7  8  1  0  0  0  0
  8  9  1  0  0  0  0
  9 10  1  0  0  0  0
 10 11  1  0  0  0  0
 11 12  1  0  0  0  0
 12 13  1  0  0  0  0
 13 14  1  0  0  0  0
M  END
>  <CHROM.1>
-178.22189927,59.53489594,179.98076181,-84.41342822,169.76051497,-74.27539303
72.45092824,-116.90252910,-147.45431371,65.51496470,-175.66771525,58.48784917
1.41864074,1.50845339,-2.90882847,1.06548911,-2.96886433

>  <Name>
ligand

>  <RI>
0

>  <Rbt.Current_Directory>
/home/itssahil/PROJECTS/Mol_Feturizer/New_Systems/rnas/4FAW

>  <Rbt.Executable>
rbdock ($Id: //depot/dev/client3/rdock/2013.1/src/exe/rbdock.cxx#4 $)

>  <Rbt.Library>
libRbt.so (2013.1, Build901 2013/11/27)

>  <Rbt.Parameter_File>
/export/apps/rDock/src/rDock_2013.1_src/data/scripts/dock_solv.prm

>  <Rbt.Receptor>
prm/pocket_docking_7.prm

>  <SCORE>
-8.60056

>  <SCORE.INTER>
-0.588267

>  <SCORE.INTER.CONST>
1

>  <SCORE.INTER.POLAR>
0

>  <SCORE.INTER.ROT>
11

>  <SCORE.INTER.SOLV>
12.5875

>  <SCORE.INTER.VDW>
-15.5213

>  <SCORE.INTER.norm>
-0.0420191

>  <SCORE.INTRA>
-8.0123

>  <SCORE.INTRA.DIHEDRAL>
-14.8347

>  <SCORE.INTRA.DIHEDRAL.0>
19.1003

>  <SCORE.INTRA.POLAR>
0

>  <SCORE.INTRA.POLAR.0>
0

>  <SCORE.INTRA.REPUL>
0

>  <SCORE.INTRA.REPUL.0>
0

>  <SCORE.INTRA.SOLV>
0.516881

>  <SCORE.INTRA.SOLV.lig_0>
-47.5333

>  <SCORE.INTRA.VDW>
-0.853387

>  <SCORE.INTRA.VDW.0>
-0.287413

>  <SCORE.INTRA.norm>
-0.572307

>  <SCORE.RESTR>
0

>  <SCORE.RESTR.CAVITY>
0

>  <SCORE.RESTR.norm>
0

>  <SCORE.SYSTEM>
0

>  <SCORE.SYSTEM.CONST>
0

>  <SCORE.SYSTEM.DIHEDRAL>
0

>  <SCORE.SYSTEM.SOLV>
0

>  <SCORE.SYSTEM.norm>
0

>  <SCORE.heavy>
14

>  <SCORE.norm>
-0.614326

>  <RMSD>
4.532

$$$$
ligand
 OpenBabel11021811493D
libRbt.so/2013.1/901 2013/11/27
 14 13  0  0  0  0  0  0  0  0999 V2000
   52.1387    3.1953    0.5414 N   0  0  0  0  0  0  0  0  0  0  0  0
   53.5362    3.2024    0.9143 C   0  0  0  0  0  0  0  0  0  0  0  0
   53.9290    1.8016    1.4273 C   0  0  0  0  0  0  0  0  0  0  0  0
   55.3963    1.6874    1.8688 C   0  0  0  0  0  0  0  0  0  0  0  0
   55.8214    0.3611    2.3419 N   0  0  0  0  0  0  0  0  0  0  0  0
   55.8964   -0.8184    1.4817 C   0  0  0  0  0  0  0  0  0  0  0  0
   57.0351   -0.7476    0.4694 C   0  0  0  0  0  0  0  0  0  0  0  0
   58.4263   -0.7296    1.1109 C   0  0  0  0  0  0  0  0  0  0  0  0
   58.7737   -2.0705    1.7684 C   0  0  0  0  0  0  0  0  0  0  0  0
   60.0965   -1.9800    2.3829 N   0  0  0  0  0  0  0  0  0  0  0  0
   60.7952   -3.1017    3.0129 C   0  0  0  0  0  0  0  0  0  0  0  0
   60.3037   -3.3841    4.4394 C   0  0  0  0  0  0  0  0  0  0  0  0
   60.5432   -2.1841    5.3615 C   0  0  0  0  0  0  0  0  0  0  0  0
   60.0699   -2.5036    6.7051 N   0  0  0  0  0  0  0  0  0  0  0  0
  1  2  1  0  0  0  0
  2  3  1  0  0  0  0
  3  4  1  0  0  0  0
  4  5  1  0  0  0  0
  5  6  1  0  0  0  0
  6  7  1  0  0  0  0
  7  8  1  0  0  0  0
  8  9  1  0  0  0  0
  9 10  1  0  0  0  0
 10 11  1  0  0  0  0
 11 12  1  0  0  0  0
 12 13  1  0  0  0  0
 13 14  1  0  0  0  0
M  END
>  <CHROM.1>
-179.44687239,-178.89688392,66.34542713,70.48576928,64.27040557,68.86277211
-178.86909727,-175.14150164,-80.16187571,-61.59002320,-179.57675340,57.34024765
-0.51952652,2.41590033,2.82583185,0.67401101,-1.67289120

>  <Name>
ligand

>  <RI>
0

>  <Rbt.Current_Directory>
/home/itssahil/PROJECTS/Mol_Feturizer/New_Systems/rnas/4FAW

>  <Rbt.Executable>
rbdock ($Id: //depot/dev/client3/rdock/2013.1/src/exe/rbdock.cxx#4 $)

>  <Rbt.Library>
libRbt.so (2013.1, Build901 2013/11/27)

>  <Rbt.Parameter_File>
/export/apps/rDock/src/rDock_2013.1_src/data/scripts/dock_solv.prm

>  <Rbt.Receptor>
prm/pocket_docking_4.prm

>  <SCORE>
-5.63929

>  <SCORE.INTER>
3.88126

>  <SCORE.INTER.CONST>
1

>  <SCORE.INTER.POLAR>
0

>  <SCORE.INTER.ROT>
11

>  <SCORE.INTER.SOLV>
6.65445

>  <SCORE.INTER.VDW>
-10.564

>  <SCORE.INTER.norm>
0.277233

>  <SCORE.INTRA>
-9.52055

>  <SCORE.INTRA.DIHEDRAL>
-18.2425

>  <SCORE.INTRA.DIHEDRAL.0>
19.1003

>  <SCORE.INTRA.POLAR>
0

>  <SCORE.INTRA.POLAR.0>
0

>  <SCORE.INTRA.REPUL>
0

>  <SCORE.INTRA.REPUL.0>
0

>  <SCORE.INTRA.SOLV>
-0.448822

>  <SCORE.INTRA.SOLV.lig_0>
-47.5333

>  <SCORE.INTRA.VDW>
-0.17491

>  <SCORE.INTRA.VDW.0>
-0.287413

>  <SCORE.INTRA.norm>
-0.680039

>  <SCORE.RESTR>
0

>  <SCORE.RESTR.CAVITY>
0

>  <SCORE.RESTR.norm>
0

>  <SCORE.SYSTEM>
0

>  <SCORE.SYSTEM.CONST>
0

>  <SCORE.SYSTEM.DIHEDRAL>
0

>  <SCORE.SYSTEM.SOLV>
0

>  <SCORE.SYSTEM.norm>
0

>  <SCORE.heavy>
14

>  <SCORE.norm>
-0.402807

>  <RMSD>
4.536

$$$$
ligand
 OpenBabel11021811493D
libRbt.so/2013.1/901 2013/11/27
 14 13  0  0  0  0  0  0  0  0999 V2000
   55.9008    0.1161    2.3595 N   0  0  0  0  0  0  0  0  0  0  0  0
   54.6575    0.8474    2.2514 C   0  0  0  0  0  0  0  0  0  0  0  0
   54.7438    1.8158    1.0537 C   0  0  0  0  0  0  0  0  0  0  0  0
   53.5400    2.7624    0.9285 C   0  0  0  0  0  0  0  0  0  0  0  0
   52.2302    2.1144    0.7608 N   0  0  0  0  0  0  0  0  0  0  0  0
   51.6552    1.7783   -0.5405 C   0  0  0  0  0  0  0  0  0  0  0  0
   52.0823    0.4036   -1.0448 C   0  0  0  0  0  0  0  0  0  0  0  0
   51.4529    0.0200   -2.3880 C   0  0  0  0  0  0  0  0  0  0  0  0
   51.9272    0.9312   -3.5263 C   0  0  0  0  0  0  0  0  0  0  0  0
   51.1495    0.6463   -4.7303 N   0  0  0  0  0  0  0  0  0  0  0  0
   49.7160    0.9085   -4.8714 C   0  0  0  0  0  0  0  0  0  0  0  0
   49.4122    2.3598   -5.2684 C   0  0  0  0  0  0  0  0  0  0  0  0
   49.8267    3.3399   -4.1659 C   0  0  0  0  0  0  0  0  0  0  0  0
   49.4746    4.6984   -4.5681 N   0  0  0  0  0  0  0  0  0  0  0  0
  1  2  1  0  0  0  0
  2  3  1  0  0  0  0
  3  4  1  0  0  0  0
  4  5  1  0  0  0  0
  5  6  1  0  0  0  0
  6  7  1  0  0  0  0
  7  8  1  0  0  0  0
  8  9  1  0  0  0  0
  9 10  1  0  0  0  0
 10 11  1  0  0  0  0
 11 12  1  0  0  0  0
 12 13  1  0  0  0  0
 13 14  1  0  0  0  0
M  END
>  <CHROM.1>
-173.57082096,-59.72439487,-89.86527055,87.68151350,178.23065507,65.38951110
-171.68234705,66.35132450,83.55320052,-65.09204620,-177.96314677,51.98341253
1.62433197,-1.69647840,-0.27609720,0.92465685,-2.62019119

>  <Name>
ligand

>  <RI>
0

>  <Rbt.Current_Directory>
/home/itssahil/PROJECTS/Mol_Feturizer/New_Systems/rnas/4FAW

>  <Rbt.Executable>
rbdock ($Id: //depot/dev/client3/rdock/2013.1/src/exe/rbdock.cxx#4 $)

>  <Rbt.Library>
libRbt.so (2013.1, Build901 2013/11/27)

>  <Rbt.Parameter_File>
/export/apps/rDock/src/rDock_2013.1_src/data/scripts/dock_solv.prm

>  <Rbt.Receptor>
prm/pocket_docking_4.prm

>  <SCORE>
-7.034

>  <SCORE.INTER>
1.90204

>  <SCORE.INTER.CONST>
1

>  <SCORE.INTER.POLAR>
0

>  <SCORE.INTER.ROT>
11

>  <SCORE.INTER.SOLV>
7.23167

>  <SCORE.INTER.VDW>
-12.0759

>  <SCORE.INTER.norm>
0.13586

>  <SCORE.INTRA>
-8.94585

>  <SCORE.INTRA.DIHEDRAL>
-16.8842

>  <SCORE.INTRA.DIHEDRAL.0>
19.1003

>  <SCORE.INTRA.POLAR>
0

>  <SCORE.INTRA.POLAR.0>
0

>  <SCORE.INTRA.REPUL>
0

>  <SCORE.INTRA.REPUL.0>
0

>  <SCORE.INTRA.SOLV>
-0.552339

>  <SCORE.INTRA.SOLV.lig_0>
-47.5333

>  <SCORE.INTRA.VDW>
-0.2276

>  <SCORE.INTRA.VDW.0>
-0.287413

>  <SCORE.INTRA.norm>
-0.638989

>  <SCORE.RESTR>
0.00981319

>  <SCORE.RESTR.CAVITY>
0.00981319

>  <SCORE.RESTR.norm>
0.000700942

>  <SCORE.SYSTEM>
0

>  <SCORE.SYSTEM.CONST>
0

>  <SCORE.SYSTEM.DIHEDRAL>
0

>  <SCORE.SYSTEM.SOLV>
0

>  <SCORE.SYSTEM.norm>
0

>  <SCORE.heavy>
14

>  <SCORE.norm>
-0.502428

>  <RMSD>
4.550

$$$$
ligand
 OpenBabel11021811493D
libRbt.so/2013.1/901 2013/11/27
 14 13  0  0  0  0  0  0  0  0999 V2000
   55.0169    5.6990   -1.4839 N   0  0  0  0  0  0  0  0  0  0  0  0
   56.0172    4.8023   -2.0199 C   0  0  0  0  0  0  0  0  0  0  0  0
   56.5866    3.9389   -0.8754 C   0  0  0  0  0  0  0  0  0  0  0  0
   57.6396    2.9162   -1.3296 C   0  0  0  0  0  0  0  0  0  0  0  0
   58.1000    1.9710   -0.3008 N   0  0  0  0  0  0  0  0  0  0  0  0
   58.8295    2.3750    0.8999 C   0  0  0  0  0  0  0  0  0  0  0  0
   58.6315    1.4164    2.0696 C   0  0  0  0  0  0  0  0  0  0  0  0
   59.0703   -0.0200    1.7668 C   0  0  0  0  0  0  0  0  0  0  0  0
   58.8199   -0.9597    2.9522 C   0  0  0  0  0  0  0  0  0  0  0  0
   59.3300   -2.2909    2.6307 N   0  0  0  0  0  0  0  0  0  0  0  0
   60.7310   -2.6948    2.7630 C   0  0  0  0  0  0  0  0  0  0  0  0
   61.2139   -2.7017    4.2200 C   0  0  0  0  0  0  0  0  0  0  0  0
   60.3910   -3.6686    5.0776 C   0  0  0  0  0  0  0  0  0  0  0  0
   60.8307   -3.5784    6.4668 N   0  0  0  0  0  0  0  0  0  0  0  0
  1  2  1  0  0  0  0
  2  3  1  0  0  0  0
  3  4  1  0  0  0  0
  4  5  1  0  0  0  0
  5  6  1  0  0  0  0
  6  7  1  0  0  0  0
  7  8  1  0  0  0  0
  8  9  1  0  0  0  0
  9 10  1  0  0  0  0
 10 11  1  0  0  0  0
 11 12  1  0  0  0  0
 12 13  1  0  0  0  0
 13 14  1  0  0  0  0
M  END
>  <CHROM.1>
178.53761080,-173.43499553,-64.27283828,153.00427661,58.92329213,-178.42567792
-176.67716518,82.27369589,65.57437509,59.84741803,-176.47748010,58.65786029
0.51465422,1.63112000,2.30946395,0.93232426,-1.30325606

>  <Name>
ligand

>  <RI>
0

>  <Rbt.Current_Directory>
/home/itssahil/PROJECTS/Mol_Feturizer/New_Systems/rnas/4FAW

>  <Rbt.Executable>
rbdock ($Id: //depot/dev/client3/rdock/2013.1/src/exe/rbdock.cxx#4 $)

>  <Rbt.Library>
libRbt.so (2013.1, Build901 2013/11/27)

>  <Rbt.Parameter_File>
/export/apps/rDock/src/rDock_2013.1_src/data/scripts/dock_solv.prm

>  <Rbt.Receptor>
prm/pocket_docking_4.prm

>  <SCORE>
-6.99932

>  <SCORE.INTER>
2.62728

>  <SCORE.INTER.CONST>
1

>  <SCORE.INTER.POLAR>
0

>  <SCORE.INTER.ROT>
11

>  <SCORE.INTER.SOLV>
7.44491

>  <SCORE.INTER.VDW>
-11.6634

>  <SCORE.INTER.norm>
0.187663

>  <SCORE.INTRA>
-9.6266

>  <SCORE.INTRA.DIHEDRAL>
-17.9173

>  <SCORE.INTRA.DIHEDRAL.0>
19.1003

>  <SCORE.INTRA.POLAR>
0

>  <SCORE.INTRA.POLAR.0>
0

>  <SCORE.INTRA.REPUL>
0

>  <SCORE.INTRA.REPUL.0>
0

>  <SCORE.INTRA.SOLV>
-0.672173

>  <SCORE.INTRA.SOLV.lig_0>
-47.5333

>  <SCORE.INTRA.VDW>
-0.33188

>  <SCORE.INTRA.VDW.0>
-0.287413

>  <SCORE.INTRA.norm>
-0.687614

>  <SCORE.RESTR>
0

>  <SCORE.RESTR.CAVITY>
0

>  <SCORE.RESTR.norm>
0

>  <SCORE.SYSTEM>
0

>  <SCORE.SYSTEM.CONST>
0

>  <SCORE.SYSTEM.DIHEDRAL>
0

>  <SCORE.SYSTEM.SOLV>
0

>  <SCORE.SYSTEM.norm>
0

>  <SCORE.heavy>
14

>  <SCORE.norm>
-0.499951

>  <RMSD>
4.576

$$$$
ligand
 OpenBabel11021811493D
libRbt.so/2013.1/901 2013/11/27
 14 13  0  0  0  0  0  0  0  0999 V2000
   55.2895    7.8249    1.3377 N   0  0  0  0  0  0  0  0  0  0  0  0
   55.8722    7.1727    0.1856 C   0  0  0  0  0  0  0  0  0  0  0  0
   54.9036    7.2968   -1.0085 C   0  0  0  0  0  0  0  0  0  0  0  0
   55.4090    6.6247   -2.2946 C   0  0  0  0  0  0  0  0  0  0  0  0
   55.6149    5.1702   -2.2188 N   0  0  0  0  0  0  0  0  0  0  0  0
   56.7870    4.5506   -1.6029 C   0  0  0  0  0  0  0  0  0  0  0  0
   56.7532    3.0266   -1.6550 C   0  0  0  0  0  0  0  0  0  0  0  0
   57.9431    2.3622   -0.9549 C   0  0  0  0  0  0  0  0  0  0  0  0
   57.9224    2.5958    0.5603 C   0  0  0  0  0  0  0  0  0  0  0  0
   59.1787    2.1253    1.1399 N   0  0  0  0  0  0  0  0  0  0  0  0
   59.4699    2.0984    2.5744 C   0  0  0  0  0  0  0  0  0  0  0  0
   59.5907    3.5019    3.1842 C   0  0  0  0  0  0  0  0  0  0  0  0
   58.2141    4.1415    3.3931 C   0  0  0  0  0  0  0  0  0  0  0  0
   57.4917    3.4086    4.4286 N   0  0  0  0  0  0  0  0  0  0  0  0
  1  2  1  0  0  0  0
  2  3  1  0  0  0  0
  3  4  1  0  0  0  0
  4  5  1  0  0  0  0
  5  6  1  0  0  0  0
  6  7  1  0  0  0  0
  7  8  1  0  0  0  0
  8  9  1  0  0  0  0
  9 10  1  0  0  0  0
 10 11  1  0  0  0  0
 11 12  1  0  0  0  0
 12 13  1  0  0  0  0
 13 14  1  0  0  0  0
M  END
>  <CHROM.1>
-179.37164168,62.15846598,-78.90390997,179.89952732,-177.27885508,66.70523607
-171.14538996,-175.24281855,-67.68520106,76.90180411,67.41391204,57.17440338
4.42134998,0.50465996,2.82815329,0.97956543,-2.00826950

>  <Name>
ligand

>  <RI>
0

>  <Rbt.Current_Directory>
/home/itssahil/PROJECTS/Mol_Feturizer/New_Systems/rnas/4FAW

>  <Rbt.Executable>
rbdock ($Id: //depot/dev/client3/rdock/2013.1/src/exe/rbdock.cxx#4 $)

>  <Rbt.Library>
libRbt.so (2013.1, Build901 2013/11/27)

>  <Rbt.Parameter_File>
/export/apps/rDock/src/rDock_2013.1_src/data/scripts/dock_solv.prm

>  <Rbt.Receptor>
prm/pocket_docking_7.prm

>  <SCORE>
-6.88215

>  <SCORE.INTER>
1.2383

>  <SCORE.INTER.CONST>
1

>  <SCORE.INTER.POLAR>
0

>  <SCORE.INTER.ROT>
11

>  <SCORE.INTER.SOLV>
7.11429

>  <SCORE.INTER.VDW>
-12.4792

>  <SCORE.INTER.norm>
0.0884501

>  <SCORE.INTRA>
-8.12045

>  <SCORE.INTRA.DIHEDRAL>
-17.0207

>  <SCORE.INTRA.DIHEDRAL.0>
19.1003

>  <SCORE.INTRA.POLAR>
0

>  <SCORE.INTRA.POLAR.0>
0

>  <SCORE.INTRA.REPUL>
0

>  <SCORE.INTRA.REPUL.0>
0

>  <SCORE.INTRA.SOLV>
1.06671

>  <SCORE.INTRA.SOLV.lig_0>
-47.5333

>  <SCORE.INTRA.VDW>
-0.14346

>  <SCORE.INTRA.VDW.0>
-0.287413

>  <SCORE.INTRA.norm>
-0.580032

>  <SCORE.RESTR>
0

>  <SCORE.RESTR.CAVITY>
0

>  <SCORE.RESTR.norm>
0

>  <SCORE.SYSTEM>
0

>  <SCORE.SYSTEM.CONST>
0

>  <SCORE.SYSTEM.DIHEDRAL>
0

>  <SCORE.SYSTEM.SOLV>
0

>  <SCORE.SYSTEM.norm>
0

>  <SCORE.heavy>
14

>  <SCORE.norm>
-0.491582

>  <RMSD>
4.589

$$$$
ligand
 OpenBabel11021811493D
libRbt.so/2013.1/901 2013/11/27
 14 13  0  0  0  0  0  0  0  0999 V2000
   55.6450    4.8658   -1.9880 N   0  0  0  0  0  0  0  0  0  0  0  0
   56.2683    4.0609   -0.9604 C   0  0  0  0  0  0  0  0  0  0  0  0
   57.2544    3.0750   -1.6200 C   0  0  0  0  0  0  0  0  0  0  0  0
   57.9135    2.0980   -0.6339 C   0  0  0  0  0  0  0  0  0  0  0  0
   56.9956    1.2200    0.1078 N   0  0  0  0  0  0  0  0  0  0  0  0
   57.4388    0.2303    1.0881 C   0  0  0  0  0  0  0  0  0  0  0  0
   57.9952   -1.0370    0.4472 C   0  0  0  0  0  0  0  0  0  0  0  0
   58.4626   -2.0842    1.4633 C   0  0  0  0  0  0  0  0  0  0  0  0
   59.7886   -1.6913    2.1253 C   0  0  0  0  0  0  0  0  0  0  0  0
   59.5857   -0.4985    2.9449 N   0  0  0  0  0  0  0  0  0  0  0  0
   60.4311   -0.1193    4.0785 C   0  0  0  0  0  0  0  0  0  0  0  0
   60.0725    1.2575    4.6547 C   0  0  0  0  0  0  0  0  0  0  0  0
   60.8630    1.5518    5.9338 C   0  0  0  0  0  0  0  0  0  0  0  0
   60.4802    0.5975    6.9702 N   0  0  0  0  0  0  0  0  0  0  0  0
  1  2  1  0  0  0  0
  2  3  1  0  0  0  0
  3  4  1  0  0  0  0
  4  5  1  0  0  0  0
  5  6  1  0  0  0  0
  6  7  1  0  0  0  0
  7  8  1  0  0  0  0
  8  9  1  0  0  0  0
  9 10  1  0  0  0  0
 10 11  1  0  0  0  0
 11 12  1  0  0  0  0
 12 13  1  0  0  0  0
 13 14  1  0  0  0  0
M  END
>  <CHROM.1>
-176.17869311,60.11556904,-179.90448728,-77.95069382,-179.94370034,-74.35956224
66.23871545,156.33382862,173.74775118,173.41783804,-64.38634828,58.51403273
0.96594550,1.75786067,-3.01458082,1.07352791,-2.82835265

>  <Name>
ligand

>  <RI>
0

>  <Rbt.Current_Directory>
/home/itssahil/PROJECTS/Mol_Feturizer/New_Systems/rnas/4FAW

>  <Rbt.Executable>
rbdock ($Id: //depot/dev/client3/rdock/2013.1/src/exe/rbdock.cxx#4 $)

>  <Rbt.Library>
libRbt.so (2013.1, Build901 2013/11/27)

>  <Rbt.Parameter_File>
/export/apps/rDock/src/rDock_2013.1_src/data/scripts/dock_solv.prm

>  <Rbt.Receptor>
prm/pocket_docking_4.prm

>  <SCORE>
-9.02289

>  <SCORE.INTER>
-0.484247

>  <SCORE.INTER.CONST>
1

>  <SCORE.INTER.POLAR>
0

>  <SCORE.INTER.ROT>
11

>  <SCORE.INTER.SOLV>
9.21213

>  <SCORE.INTER.VDW>
-14.3269

>  <SCORE.INTER.norm>
-0.0345891

>  <SCORE.INTRA>
-8.53864

>  <SCORE.INTRA.DIHEDRAL>
-17.157

>  <SCORE.INTRA.DIHEDRAL.0>
19.1003

>  <SCORE.INTRA.POLAR>
0

>  <SCORE.INTRA.POLAR.0>
0

>  <SCORE.INTRA.REPUL>
0

>  <SCORE.INTRA.REPUL.0>
0

>  <SCORE.INTRA.SOLV>
0.763691

>  <SCORE.INTRA.SOLV.lig_0>
-47.5333

>  <SCORE.INTRA.VDW>
-0.342001

>  <SCORE.INTRA.VDW.0>
-0.287413

>  <SCORE.INTRA.norm>
-0.609903

>  <SCORE.RESTR>
0

>  <SCORE.RESTR.CAVITY>
0

>  <SCORE.RESTR.norm>
0

>  <SCORE.SYSTEM>
0

>  <SCORE.SYSTEM.CONST>
0

>  <SCORE.SYSTEM.DIHEDRAL>
0

>  <SCORE.SYSTEM.SOLV>
0

>  <SCORE.SYSTEM.norm>
0

>  <SCORE.heavy>
14

>  <SCORE.norm>
-0.644492

>  <RMSD>
4.603

$$$$
ligand
 OpenBabel11021811493D
libRbt.so/2013.1/901 2013/11/27
 14 13  0  0  0  0  0  0  0  0999 V2000
   54.9199    6.3352    0.0812 N   0  0  0  0  0  0  0  0  0  0  0  0
   55.0643    4.9047    0.2388 C   0  0  0  0  0  0  0  0  0  0  0  0
   55.6231    4.6054    1.6451 C   0  0  0  0  0  0  0  0  0  0  0  0
   55.8259    3.1093    1.9307 C   0  0  0  0  0  0  0  0  0  0  0  0
   54.6061    2.2874    1.9372 N   0  0  0  0  0  0  0  0  0  0  0  0
   53.9910    1.7438    0.7276 C   0  0  0  0  0  0  0  0  0  0  0  0
   52.5499    2.2035    0.5324 C   0  0  0  0  0  0  0  0  0  0  0  0
   51.9150    1.6975   -0.7670 C   0  0  0  0  0  0  0  0  0  0  0  0
   51.7622    0.1719   -0.7761 C   0  0  0  0  0  0  0  0  0  0  0  0
   51.1170   -0.2424   -2.0202 N   0  0  0  0  0  0  0  0  0  0  0  0
   51.8156   -0.4267   -3.2936 C   0  0  0  0  0  0  0  0  0  0  0  0
   51.0898    0.2360   -4.4726 C   0  0  0  0  0  0  0  0  0  0  0  0
   51.0314    1.7583   -4.3093 C   0  0  0  0  0  0  0  0  0  0  0  0
   50.3907    2.3470   -5.4817 N   0  0  0  0  0  0  0  0  0  0  0  0
  1  2  1  0  0  0  0
  2  3  1  0  0  0  0
  3  4  1  0  0  0  0
  4  5  1  0  0  0  0
  5  6  1  0  0  0  0
  6  7  1  0  0  0  0
  7  8  1  0  0  0  0
  8  9  1  0  0  0  0
  9 10  1  0  0  0  0
 10 11  1  0  0  0  0
 11 12  1  0  0  0  0
 12 13  1  0  0  0  0
 13 14  1  0  0  0  0
M  END
>  <CHROM.1>
-179.79751612,-63.67037759,83.25071013,-121.27965368,177.14264191,65.28469163
178.33590540,82.28998145,-133.24813006,63.88676049,177.31870870,52.97880674
2.19487095,-1.00182053,-0.06843445,-0.97699756,-0.66350770

>  <Name>
ligand

>  <RI>
0

>  <Rbt.Current_Directory>
/home/itssahil/PROJECTS/Mol_Feturizer/New_Systems/rnas/4FAW

>  <Rbt.Executable>
rbdock ($Id: //depot/dev/client3/rdock/2013.1/src/exe/rbdock.cxx#4 $)

>  <Rbt.Library>
libRbt.so (2013.1, Build901 2013/11/27)

>  <Rbt.Parameter_File>
/export/apps/rDock/src/rDock_2013.1_src/data/scripts/dock_solv.prm

>  <Rbt.Receptor>
prm/pocket_docking_6.prm

>  <SCORE>
-5.53286

>  <SCORE.INTER>
3.40229

>  <SCORE.INTER.CONST>
1

>  <SCORE.INTER.POLAR>
0

>  <SCORE.INTER.ROT>
11

>  <SCORE.INTER.SOLV>
5.98277

>  <SCORE.INTER.VDW>
-10.6594

>  <SCORE.INTER.norm>
0.243021

>  <SCORE.INTRA>
-8.93516

>  <SCORE.INTRA.DIHEDRAL>
-15.7909

>  <SCORE.INTRA.DIHEDRAL.0>
19.1003

>  <SCORE.INTRA.POLAR>
0

>  <SCORE.INTRA.POLAR.0>
0

>  <SCORE.INTRA.REPUL>
0

>  <SCORE.INTRA.REPUL.0>
0

>  <SCORE.INTRA.SOLV>
-0.662937

>  <SCORE.INTRA.SOLV.lig_0>
-47.5333

>  <SCORE.INTRA.VDW>
-0.708242

>  <SCORE.INTRA.VDW.0>
-0.287413

>  <SCORE.INTRA.norm>
-0.638226

>  <SCORE.RESTR>
0

>  <SCORE.RESTR.CAVITY>
0

>  <SCORE.RESTR.norm>
0

>  <SCORE.SYSTEM>
0

>  <SCORE.SYSTEM.CONST>
0

>  <SCORE.SYSTEM.DIHEDRAL>
0

>  <SCORE.SYSTEM.SOLV>
0

>  <SCORE.SYSTEM.norm>
0

>  <SCORE.heavy>
14

>  <SCORE.norm>
-0.395205

>  <RMSD>
4.616

$$$$
ligand
 OpenBabel11021811493D
libRbt.so/2013.1/901 2013/11/27
 14 13  0  0  0  0  0  0  0  0999 V2000
   49.9475    3.8133   -4.1673 N   0  0  0  0  0  0  0  0  0  0  0  0
   50.0636    3.9387   -5.6036 C   0  0  0  0  0  0  0  0  0  0  0  0
   49.4256    2.7033   -6.2715 C   0  0  0  0  0  0  0  0  0  0  0  0
   50.2362    1.4099   -6.0950 C   0  0  0  0  0  0  0  0  0  0  0  0
   50.3858    0.9315   -4.7121 N   0  0  0  0  0  0  0  0  0  0  0  0
   51.2479   -0.1862   -4.3321 C   0  0  0  0  0  0  0  0  0  0  0  0
   51.3891   -0.3445   -2.8217 C   0  0  0  0  0  0  0  0  0  0  0  0
   51.9856    0.8851   -2.1290 C   0  0  0  0  0  0  0  0  0  0  0  0
   52.1345    0.6776   -0.6171 C   0  0  0  0  0  0  0  0  0  0  0  0
   52.7821    1.8483   -0.0293 N   0  0  0  0  0  0  0  0  0  0  0  0
   53.4831    1.8486    1.2560 C   0  0  0  0  0  0  0  0  0  0  0  0
   54.7933    1.0498    1.2201 C   0  0  0  0  0  0  0  0  0  0  0  0
   55.4657    1.0157    2.5965 C   0  0  0  0  0  0  0  0  0  0  0  0
   56.7770    0.3848    2.4796 N   0  0  0  0  0  0  0  0  0  0  0  0
  1  2  1  0  0  0  0
  2  3  1  0  0  0  0
  3  4  1  0  0  0  0
  4  5  1  0  0  0  0
  5  6  1  0  0  0  0
  6  7  1  0  0  0  0
  7  8  1  0  0  0  0
  8  9  1  0  0  0  0
  9 10  1  0  0  0  0
 10 11  1  0  0  0  0
 11 12  1  0  0  0  0
 12 13  1  0  0  0  0
 13 14  1  0  0  0  0
M  END
>  <CHROM.1>
-71.23652779,63.61679815,-172.59073207,171.22946035,-59.87430284,-178.97943850
176.53436490,-158.65528960,69.39577870,-177.29986262,-173.37110943,52.15107293
1.42671273,-2.08779217,3.03864995,0.96800405,-2.84348747

>  <Name>
ligand

>  <RI>
0

>  <Rbt.Current_Directory>
/home/itssahil/PROJECTS/Mol_Feturizer/New_Systems/rnas/4FAW

>  <Rbt.Executable>
rbdock ($Id: //depot/dev/client3/rdock/2013.1/src/exe/rbdock.cxx#4 $)

>  <Rbt.Library>
libRbt.so (2013.1, Build901 2013/11/27)

>  <Rbt.Parameter_File>
/export/apps/rDock/src/rDock_2013.1_src/data/scripts/dock_solv.prm

>  <Rbt.Receptor>
prm/pocket_docking_5.prm

>  <SCORE>
-6.48177

>  <SCORE.INTER>
2.41603

>  <SCORE.INTER.CONST>
1

>  <SCORE.INTER.POLAR>
0

>  <SCORE.INTER.ROT>
11

>  <SCORE.INTER.SOLV>
5.41231

>  <SCORE.INTER.VDW>
-11.1267

>  <SCORE.INTER.norm>
0.172574

>  <SCORE.INTRA>
-8.8978

>  <SCORE.INTRA.DIHEDRAL>
-17.8299

>  <SCORE.INTRA.DIHEDRAL.0>
19.1003

>  <SCORE.INTRA.POLAR>
0

>  <SCORE.INTRA.POLAR.0>
0

>  <SCORE.INTRA.REPUL>
0

>  <SCORE.INTRA.REPUL.0>
0

>  <SCORE.INTRA.SOLV>
2.03463

>  <SCORE.INTRA.SOLV.lig_0>
-47.5333

>  <SCORE.INTRA.VDW>
-1.00019

>  <SCORE.INTRA.VDW.0>
-0.287413

>  <SCORE.INTRA.norm>
-0.635557

>  <SCORE.RESTR>
0

>  <SCORE.RESTR.CAVITY>
0

>  <SCORE.RESTR.norm>
0

>  <SCORE.SYSTEM>
0

>  <SCORE.SYSTEM.CONST>
0

>  <SCORE.SYSTEM.DIHEDRAL>
0

>  <SCORE.SYSTEM.SOLV>
0

>  <SCORE.SYSTEM.norm>
0

>  <SCORE.heavy>
14

>  <SCORE.norm>
-0.462984

>  <RMSD>
4.634

$$$$
ligand
 OpenBabel11021811493D
libRbt.so/2013.1/901 2013/11/27
 14 13  0  0  0  0  0  0  0  0999 V2000
   60.7100   -3.5810    6.0544 N   0  0  0  0  0  0  0  0  0  0  0  0
   60.8381   -3.8673    4.6424 C   0  0  0  0  0  0  0  0  0  0  0  0
   59.7387   -3.1080    3.8715 C   0  0  0  0  0  0  0  0  0  0  0  0
   59.7223   -3.3960    2.3623 C   0  0  0  0  0  0  0  0  0  0  0  0
   58.6541   -2.7362    1.5959 N   0  0  0  0  0  0  0  0  0  0  0  0
   58.4878   -1.2857    1.5247 C   0  0  0  0  0  0  0  0  0  0  0  0
   58.0043   -0.8065    0.1598 C   0  0  0  0  0  0  0  0  0  0  0  0
   57.9500    0.7191    0.0289 C   0  0  0  0  0  0  0  0  0  0  0  0
   57.8016    1.1661   -1.4302 C   0  0  0  0  0  0  0  0  0  0  0  0
   57.8642    2.6245   -1.4984 N   0  0  0  0  0  0  0  0  0  0  0  0
   56.7104    3.5112   -1.3367 C   0  0  0  0  0  0  0  0  0  0  0  0
   56.3422    3.7472    0.1347 C   0  0  0  0  0  0  0  0  0  0  0  0
   55.1091    4.6472    0.2653 C   0  0  0  0  0  0  0  0  0  0  0  0
   54.7968    4.8388    1.6785 N   0  0  0  0  0  0  0  0  0  0  0  0
  1  2  1  0  0  0  0
  2  3  1  0  0  0  0
  3  4  1  0  0  0  0
  4  5  1  0  0  0  0
  5  6  1  0  0  0  0
  6  7  1  0  0  0  0
  7  8  1  0  0  0  0
  8  9  1  0  0  0  0
  9 10  1  0  0  0  0
 10 11  1  0  0  0  0
 11 12  1  0  0  0  0
 12 13  1  0  0  0  0
 13 14  1  0  0  0  0
M  END
>  <CHROM.1>
-176.73336843,177.54947911,59.75125806,144.08589984,-174.62637201,165.86067257
-175.48155595,-87.08522493,80.84098563,-178.44141508,179.83912928,58.05214072
0.17663744,1.28922773,0.55969684,-1.04193596,1.66233748

>  <Name>
ligand

>  <RI>
0

>  <Rbt.Current_Directory>
/home/itssahil/PROJECTS/Mol_Feturizer/New_Systems/rnas/4FAW

>  <Rbt.Executable>
rbdock ($Id: //depot/dev/client3/rdock/2013.1/src/exe/rbdock.cxx#4 $)

>  <Rbt.Library>
libRbt.so (2013.1, Build901 2013/11/27)

>  <Rbt.Parameter_File>
/export/apps/rDock/src/rDock_2013.1_src/data/scripts/dock_solv.prm

>  <Rbt.Receptor>
prm/pocket_docking_4.prm

>  <SCORE>
-8.49134

>  <SCORE.INTER>
1.0264

>  <SCORE.INTER.CONST>
1

>  <SCORE.INTER.POLAR>
0

>  <SCORE.INTER.ROT>
11

>  <SCORE.INTER.SOLV>
11.2474

>  <SCORE.INTER.VDW>
-13.9982

>  <SCORE.INTER.norm>
0.0733141

>  <SCORE.INTRA>
-9.51774

>  <SCORE.INTRA.DIHEDRAL>
-16.4269

>  <SCORE.INTRA.DIHEDRAL.0>
19.1003

>  <SCORE.INTRA.POLAR>
0

>  <SCORE.INTRA.POLAR.0>
0

>  <SCORE.INTRA.REPUL>
0

>  <SCORE.INTRA.REPUL.0>
0

>  <SCORE.INTRA.SOLV>
-1.5063

>  <SCORE.INTRA.SOLV.lig_0>
-47.5333

>  <SCORE.INTRA.VDW>
-0.551153

>  <SCORE.INTRA.VDW.0>
-0.287413

>  <SCORE.INTRA.norm>
-0.679838

>  <SCORE.RESTR>
0

>  <SCORE.RESTR.CAVITY>
0

>  <SCORE.RESTR.norm>
0

>  <SCORE.SYSTEM>
0

>  <SCORE.SYSTEM.CONST>
0

>  <SCORE.SYSTEM.DIHEDRAL>
0

>  <SCORE.SYSTEM.SOLV>
0

>  <SCORE.SYSTEM.norm>
0

>  <SCORE.heavy>
14

>  <SCORE.norm>
-0.606524

>  <RMSD>
4.640

$$$$
ligand
 OpenBabel11021811493D
libRbt.so/2013.1/901 2013/11/27
 14 13  0  0  0  0  0  0  0  0999 V2000
   60.5400   -0.9837    6.9300 N   0  0  0  0  0  0  0  0  0  0  0  0
   61.7316   -0.6716    6.1717 C   0  0  0  0  0  0  0  0  0  0  0  0
   61.3871    0.3855    5.1024 C   0  0  0  0  0  0  0  0  0  0  0  0
   60.9521    1.7406    5.6817 C   0  0  0  0  0  0  0  0  0  0  0  0
   60.7139    2.8100    4.7002 N   0  0  0  0  0  0  0  0  0  0  0  0
   59.4673    2.9567    3.9510 C   0  0  0  0  0  0  0  0  0  0  0  0
   59.4838    2.2213    2.6148 C   0  0  0  0  0  0  0  0  0  0  0  0
   58.2907    2.5577    1.7145 C   0  0  0  0  0  0  0  0  0  0  0  0
   58.3055    1.7467    0.4133 C   0  0  0  0  0  0  0  0  0  0  0  0
   57.2873    2.2701   -0.4949 N   0  0  0  0  0  0  0  0  0  0  0  0
   57.4738    3.4311   -1.3670 C   0  0  0  0  0  0  0  0  0  0  0  0
   56.2580    4.3680   -1.3798 C   0  0  0  0  0  0  0  0  0  0  0  0
   56.4778    5.5571   -2.3208 C   0  0  0  0  0  0  0  0  0  0  0  0
   55.2946    6.4121   -2.3054 N   0  0  0  0  0  0  0  0  0  0  0  0
  1  2  1  0  0  0  0
  2  3  1  0  0  0  0
  3  4  1  0  0  0  0
  4  5  1  0  0  0  0
  5  6  1  0  0  0  0
  6  7  1  0  0  0  0
  7  8  1  0  0  0  0
  8  9  1  0  0  0  0
  9 10  1  0  0  0  0
 10 11  1  0  0  0  0
 11 12  1  0  0  0  0
 12 13  1  0  0  0  0
 13 14  1  0  0  0  0
M  END
>  <CHROM.1>
64.36598777,175.46870532,82.02157502,-91.17762818,-170.07903470,-177.09761951
-170.32459212,82.61404577,-137.03121380,-178.97845750,179.63333425,58.83325432
2.48577471,2.10079929,0.27521790,1.05989174,-2.93545559

>  <Name>
ligand

>  <RI>
0

>  <Rbt.Current_Directory>
/home/itssahil/PROJECTS/Mol_Feturizer/New_Systems/rnas/4FAW

>  <Rbt.Executable>
rbdock ($Id: //depot/dev/client3/rdock/2013.1/src/exe/rbdock.cxx#4 $)

>  <Rbt.Library>
libRbt.so (2013.1, Build901 2013/11/27)

>  <Rbt.Parameter_File>
/export/apps/rDock/src/rDock_2013.1_src/data/scripts/dock_solv.prm

>  <Rbt.Receptor>
prm/pocket_docking_5.prm

>  <SCORE>
-8.94616

>  <SCORE.INTER>
0.218815

>  <SCORE.INTER.CONST>
1

>  <SCORE.INTER.POLAR>
0

>  <SCORE.INTER.ROT>
11

>  <SCORE.INTER.SOLV>
8.69069

>  <SCORE.INTER.VDW>
-13.6844

>  <SCORE.INTER.norm>
0.0156296

>  <SCORE.INTRA>
-9.16497

>  <SCORE.INTRA.DIHEDRAL>
-15.8567

>  <SCORE.INTRA.DIHEDRAL.0>
19.1003

>  <SCORE.INTRA.POLAR>
0

>  <SCORE.INTRA.POLAR.0>
0

>  <SCORE.INTRA.REPUL>
0

>  <SCORE.INTRA.REPUL.0>
0

>  <SCORE.INTRA.SOLV>
-0.82887

>  <SCORE.INTRA.SOLV.lig_0>
-47.5333

>  <SCORE.INTRA.VDW>
-0.822204

>  <SCORE.INTRA.VDW.0>
-0.287413

>  <SCORE.INTRA.norm>
-0.654641

>  <SCORE.RESTR>
0

>  <SCORE.RESTR.CAVITY>
0

>  <SCORE.RESTR.norm>
0

>  <SCORE.SYSTEM>
0

>  <SCORE.SYSTEM.CONST>
0

>  <SCORE.SYSTEM.DIHEDRAL>
0

>  <SCORE.SYSTEM.SOLV>
0

>  <SCORE.SYSTEM.norm>
0

>  <SCORE.heavy>
14

>  <SCORE.norm>
-0.639011

>  <RMSD>
4.642

$$$$
ligand
 OpenBabel11021811493D
libRbt.so/2013.1/901 2013/11/27
 14 13  0  0  0  0  0  0  0  0999 V2000
   57.4242    0.2654    2.9327 N   0  0  0  0  0  0  0  0  0  0  0  0
   56.3196   -0.5237    2.4332 C   0  0  0  0  0  0  0  0  0  0  0  0
   55.4140    0.3703    1.5614 C   0  0  0  0  0  0  0  0  0  0  0  0
   54.1852   -0.3543    0.9904 C   0  0  0  0  0  0  0  0  0  0  0  0
   53.3045    0.4553    0.1345 N   0  0  0  0  0  0  0  0  0  0  0  0
   52.0378   -0.0298   -0.4105 C   0  0  0  0  0  0  0  0  0  0  0  0
   51.5205    0.8206   -1.5661 C   0  0  0  0  0  0  0  0  0  0  0  0
   52.1489    0.4666   -2.9179 C   0  0  0  0  0  0  0  0  0  0  0  0
   51.6454    1.3789   -4.0426 C   0  0  0  0  0  0  0  0  0  0  0  0
   52.2499    0.9665   -5.3076 N   0  0  0  0  0  0  0  0  0  0  0  0
   52.2307    1.7661   -6.5339 C   0  0  0  0  0  0  0  0  0  0  0  0
   52.9171    1.0638   -7.7137 C   0  0  0  0  0  0  0  0  0  0  0  0
   52.1765   -0.2177   -8.1096 C   0  0  0  0  0  0  0  0  0  0  0  0
   50.8741    0.1292   -8.6706 N   0  0  0  0  0  0  0  0  0  0  0  0
  1  2  1  0  0  0  0
  2  3  1  0  0  0  0
  3  4  1  0  0  0  0
  4  5  1  0  0  0  0
  5  6  1  0  0  0  0
  6  7  1  0  0  0  0
  7  8  1  0  0  0  0
  8  9  1  0  0  0  0
  9 10  1  0  0  0  0
 10 11  1  0  0  0  0
 11 12  1  0  0  0  0
 12 13  1  0  0  0  0
 13 14  1  0  0  0  0
M  END
>  <CHROM.1>
-178.99126671,-179.05478932,-175.02661168,-163.31191292,82.74223212,-177.72763272
-178.36810694,-166.40447681,-178.68332605,64.03383880,67.68781945,53.17477383
0.46837441,-2.65855628,-1.19668414,0.07617036,-1.52735926

>  <Name>
ligand

>  <RI>
0

>  <Rbt.Current_Directory>
/home/itssahil/PROJECTS/Mol_Feturizer/New_Systems/rnas/4FAW

>  <Rbt.Executable>
rbdock ($Id: //depot/dev/client3/rdock/2013.1/src/exe/rbdock.cxx#4 $)

>  <Rbt.Library>
libRbt.so (2013.1, Build901 2013/11/27)

>  <Rbt.Parameter_File>
/export/apps/rDock/src/rDock_2013.1_src/data/scripts/dock_solv.prm

>  <Rbt.Receptor>
prm/pocket_docking_6.prm

>  <SCORE>
-5.58945

>  <SCORE.INTER>
3.45765

>  <SCORE.INTER.CONST>
1

>  <SCORE.INTER.POLAR>
0

>  <SCORE.INTER.ROT>
11

>  <SCORE.INTER.SOLV>
8.96577

>  <SCORE.INTER.VDW>
-11.6168

>  <SCORE.INTER.norm>
0.246975

>  <SCORE.INTRA>
-9.0471

>  <SCORE.INTRA.DIHEDRAL>
-16.661

>  <SCORE.INTRA.DIHEDRAL.0>
19.1003

>  <SCORE.INTRA.POLAR>
0

>  <SCORE.INTRA.POLAR.0>
0

>  <SCORE.INTRA.REPUL>
0

>  <SCORE.INTRA.REPUL.0>
0

>  <SCORE.INTRA.SOLV>
0.425428

>  <SCORE.INTRA.SOLV.lig_0>
-47.5333

>  <SCORE.INTRA.VDW>
-0.929297

>  <SCORE.INTRA.VDW.0>
-0.287413

>  <SCORE.INTRA.norm>
-0.646222

>  <SCORE.RESTR>
0

>  <SCORE.RESTR.CAVITY>
0

>  <SCORE.RESTR.norm>
0

>  <SCORE.SYSTEM>
0

>  <SCORE.SYSTEM.CONST>
0

>  <SCORE.SYSTEM.DIHEDRAL>
0

>  <SCORE.SYSTEM.SOLV>
0

>  <SCORE.SYSTEM.norm>
0

>  <SCORE.heavy>
14

>  <SCORE.norm>
-0.399246

>  <RMSD>
4.644

$$$$
ligand
 OpenBabel11021811493D
libRbt.so/2013.1/901 2013/11/27
 14 13  0  0  0  0  0  0  0  0999 V2000
   48.4525   -1.5293   -6.4269 N   0  0  0  0  0  0  0  0  0  0  0  0
   48.9458   -1.8432   -5.1039 C   0  0  0  0  0  0  0  0  0  0  0  0
   49.9057   -0.7264   -4.6448 C   0  0  0  0  0  0  0  0  0  0  0  0
   50.5080   -0.9554   -3.2498 C   0  0  0  0  0  0  0  0  0  0  0  0
   51.3065    0.1542   -2.7069 N   0  0  0  0  0  0  0  0  0  0  0  0
   51.9693    0.1119   -1.4046 C   0  0  0  0  0  0  0  0  0  0  0  0
   51.5588    1.2599   -0.4883 C   0  0  0  0  0  0  0  0  0  0  0  0
   51.8896    2.6449   -1.0539 C   0  0  0  0  0  0  0  0  0  0  0  0
   53.4012    2.8935   -1.1187 C   0  0  0  0  0  0  0  0  0  0  0  0
   53.9389    2.9625    0.2384 N   0  0  0  0  0  0  0  0  0  0  0  0
   55.3343    3.2656    0.5616 C   0  0  0  0  0  0  0  0  0  0  0  0
   55.5796    3.4048    2.0704 C   0  0  0  0  0  0  0  0  0  0  0  0
   57.0347    3.7810    2.3683 C   0  0  0  0  0  0  0  0  0  0  0  0
   57.2445    3.7986    3.8129 N   0  0  0  0  0  0  0  0  0  0  0  0
  1  2  1  0  0  0  0
  2  3  1  0  0  0  0
  3  4  1  0  0  0  0
  4  5  1  0  0  0  0
  5  6  1  0  0  0  0
  6  7  1  0  0  0  0
  7  8  1  0  0  0  0
  8  9  1  0  0  0  0
  9 10  1  0  0  0  0
 10 11  1  0  0  0  0
 11 12  1  0  0  0  0
 12 13  1  0  0  0  0
 13 14  1  0  0  0  0
M  END
>  <CHROM.1>
-179.48179630,-173.28405101,-179.23471185,-123.84706122,-60.59853743,-67.95202690
-66.77771206,-176.29848816,174.37661799,-177.54366567,-175.58021560,52.64776654
1.37306159,-1.22469831,2.87115795,0.87139043,2.88880757

>  <Name>
ligand

>  <RI>
0

>  <Rbt.Current_Directory>
/home/itssahil/PROJECTS/Mol_Feturizer/New_Systems/rnas/4FAW

>  <Rbt.Executable>
rbdock ($Id: //depot/dev/client3/rdock/2013.1/src/exe/rbdock.cxx#4 $)

>  <Rbt.Library>
libRbt.so (2013.1, Build901 2013/11/27)

>  <Rbt.Parameter_File>
/export/apps/rDock/src/rDock_2013.1_src/data/scripts/dock_solv.prm

>  <Rbt.Receptor>
prm/pocket_docking_8.prm

>  <SCORE>
-6.11817

>  <SCORE.INTER>
3.15979

>  <SCORE.INTER.CONST>
1

>  <SCORE.INTER.POLAR>
0

>  <SCORE.INTER.ROT>
11

>  <SCORE.INTER.SOLV>
7.67791

>  <SCORE.INTER.VDW>
-11.3861

>  <SCORE.INTER.norm>
0.225699

>  <SCORE.INTRA>
-9.27795

>  <SCORE.INTRA.DIHEDRAL>
-17.1739

>  <SCORE.INTRA.DIHEDRAL.0>
19.1003

>  <SCORE.INTRA.POLAR>
0

>  <SCORE.INTRA.POLAR.0>
0

>  <SCORE.INTRA.REPUL>
0

>  <SCORE.INTRA.REPUL.0>
0

>  <SCORE.INTRA.SOLV>
-0.284367

>  <SCORE.INTRA.SOLV.lig_0>
-47.5333

>  <SCORE.INTRA.VDW>
-0.548829

>  <SCORE.INTRA.VDW.0>
-0.287413

>  <SCORE.INTRA.norm>
-0.662711

>  <SCORE.RESTR>
0

>  <SCORE.RESTR.CAVITY>
0

>  <SCORE.RESTR.norm>
0

>  <SCORE.SYSTEM>
0

>  <SCORE.SYSTEM.CONST>
0

>  <SCORE.SYSTEM.DIHEDRAL>
0

>  <SCORE.SYSTEM.SOLV>
0

>  <SCORE.SYSTEM.norm>
0

>  <SCORE.heavy>
14

>  <SCORE.norm>
-0.437012

>  <RMSD>
4.657

$$$$
ligand
 OpenBabel11021811493D
libRbt.so/2013.1/901 2013/11/27
 14 13  0  0  0  0  0  0  0  0999 V2000
   55.1271    4.7602   -0.1584 N   0  0  0  0  0  0  0  0  0  0  0  0
   56.2617    3.8641   -0.1187 C   0  0  0  0  0  0  0  0  0  0  0  0
   56.8262    3.7006   -1.5450 C   0  0  0  0  0  0  0  0  0  0  0  0
   58.0456    2.7696   -1.6308 C   0  0  0  0  0  0  0  0  0  0  0  0
   57.7988    1.3585   -1.2971 N   0  0  0  0  0  0  0  0  0  0  0  0
   57.6344    0.8677    0.0700 C   0  0  0  0  0  0  0  0  0  0  0  0
   57.8824   -0.6316    0.2000 C   0  0  0  0  0  0  0  0  0  0  0  0
   57.7982   -1.1449    1.6411 C   0  0  0  0  0  0  0  0  0  0  0  0
   58.9121   -0.5680    2.5229 C   0  0  0  0  0  0  0  0  0  0  0  0
   58.6572    0.8517    2.7577 N   0  0  0  0  0  0  0  0  0  0  0  0
   59.6465    1.7946    3.2828 C   0  0  0  0  0  0  0  0  0  0  0  0
   59.2368    3.2604    3.0834 C   0  0  0  0  0  0  0  0  0  0  0  0
   57.9257    3.5786    3.8097 C   0  0  0  0  0  0  0  0  0  0  0  0
   57.5500    4.9644    3.5461 N   0  0  0  0  0  0  0  0  0  0  0  0
  1  2  1  0  0  0  0
  2  3  1  0  0  0  0
  3  4  1  0  0  0  0
  4  5  1  0  0  0  0
  5  6  1  0  0  0  0
  6  7  1  0  0  0  0
  7  8  1  0  0  0  0
  8  9  1  0  0  0  0
  9 10  1  0  0  0  0
 10 11  1  0  0  0  0
 11 12  1  0  0  0  0
 12 13  1  0  0  0  0
 13 14  1  0  0  0  0
M  END
>  <CHROM.1>
179.77485843,65.10131385,-76.20063322,-159.61164131,176.44861896,-65.45444413
70.71235311,-165.12420267,164.90844014,60.98988073,-177.69459144,57.80754415
2.10149228,1.15453034,-3.05724537,1.12290496,-2.44515622

>  <Name>
ligand

>  <RI>
0

>  <Rbt.Current_Directory>
/home/itssahil/PROJECTS/Mol_Feturizer/New_Systems/rnas/4FAW

>  <Rbt.Executable>
rbdock ($Id: //depot/dev/client3/rdock/2013.1/src/exe/rbdock.cxx#4 $)

>  <Rbt.Library>
libRbt.so (2013.1, Build901 2013/11/27)

>  <Rbt.Parameter_File>
/export/apps/rDock/src/rDock_2013.1_src/data/scripts/dock_solv.prm

>  <Rbt.Receptor>
prm/pocket_docking_7.prm

>  <SCORE>
-9.99717

>  <SCORE.INTER>
-0.941038

>  <SCORE.INTER.CONST>
1

>  <SCORE.INTER.POLAR>
0

>  <SCORE.INTER.ROT>
11

>  <SCORE.INTER.SOLV>
10.067

>  <SCORE.INTER.VDW>
-14.9164

>  <SCORE.INTER.norm>
-0.067217

>  <SCORE.INTRA>
-9.05613

>  <SCORE.INTRA.DIHEDRAL>
-17.5194

>  <SCORE.INTRA.DIHEDRAL.0>
19.1003

>  <SCORE.INTRA.POLAR>
0

>  <SCORE.INTRA.POLAR.0>
0

>  <SCORE.INTRA.REPUL>
0

>  <SCORE.INTRA.REPUL.0>
0

>  <SCORE.INTRA.SOLV>
0.928064

>  <SCORE.INTRA.SOLV.lig_0>
-47.5333

>  <SCORE.INTRA.VDW>
-0.760442

>  <SCORE.INTRA.VDW.0>
-0.287413

>  <SCORE.INTRA.norm>
-0.646867

>  <SCORE.RESTR>
0

>  <SCORE.RESTR.CAVITY>
0

>  <SCORE.RESTR.norm>
0

>  <SCORE.SYSTEM>
0

>  <SCORE.SYSTEM.CONST>
0

>  <SCORE.SYSTEM.DIHEDRAL>
0

>  <SCORE.SYSTEM.SOLV>
0

>  <SCORE.SYSTEM.norm>
0

>  <SCORE.heavy>
14

>  <SCORE.norm>
-0.714084

>  <RMSD>
4.667

$$$$
ligand
 OpenBabel11021811493D
libRbt.so/2013.1/901 2013/11/27
 14 13  0  0  0  0  0  0  0  0999 V2000
   55.0252    5.0252   -1.0406 N   0  0  0  0  0  0  0  0  0  0  0  0
   55.7392    3.7802   -0.8609 C   0  0  0  0  0  0  0  0  0  0  0  0
   57.0752    3.8488   -1.6290 C   0  0  0  0  0  0  0  0  0  0  0  0
   57.9068    2.5591   -1.5513 C   0  0  0  0  0  0  0  0  0  0  0  0
   58.4530    2.2281   -0.2262 N   0  0  0  0  0  0  0  0  0  0  0  0
   57.6461    1.6982    0.8715 C   0  0  0  0  0  0  0  0  0  0  0  0
   58.4172    1.5949    2.1834 C   0  0  0  0  0  0  0  0  0  0  0  0
   59.1704    2.8764    2.5550 C   0  0  0  0  0  0  0  0  0  0  0  0
   59.5553    2.9073    4.0388 C   0  0  0  0  0  0  0  0  0  0  0  0
   60.3826    1.7432    4.3487 N   0  0  0  0  0  0  0  0  0  0  0  0
   61.0904    1.5438    5.6147 C   0  0  0  0  0  0  0  0  0  0  0  0
   61.3758    0.0650    5.9111 C   0  0  0  0  0  0  0  0  0  0  0  0
   60.0878   -0.6998    6.2332 C   0  0  0  0  0  0  0  0  0  0  0  0
   59.5643   -0.2469    7.5186 N   0  0  0  0  0  0  0  0  0  0  0  0
  1  2  1  0  0  0  0
  2  3  1  0  0  0  0
  3  4  1  0  0  0  0
  4  5  1  0  0  0  0
  5  6  1  0  0  0  0
  6  7  1  0  0  0  0
  7  8  1  0  0  0  0
  8  9  1  0  0  0  0
  9 10  1  0  0  0  0
 10 11  1  0  0  0  0
 11 12  1  0  0  0  0
 12 13  1  0  0  0  0
 13 14  1  0  0  0  0
M  END
>  <CHROM.1>
-178.08831616,-67.57313994,74.74184617,-173.22575577,49.36305309,161.97877608
58.21700348,170.78695305,155.96249655,-69.65659550,-68.86550430,58.67794180
2.06591816,2.42612081,2.13455629,0.59846133,-1.49188578

>  <Name>
ligand

>  <RI>
0

>  <Rbt.Current_Directory>
/home/itssahil/PROJECTS/Mol_Feturizer/New_Systems/rnas/4FAW

>  <Rbt.Executable>
rbdock ($Id: //depot/dev/client3/rdock/2013.1/src/exe/rbdock.cxx#4 $)

>  <Rbt.Library>
libRbt.so (2013.1, Build901 2013/11/27)

>  <Rbt.Parameter_File>
/export/apps/rDock/src/rDock_2013.1_src/data/scripts/dock_solv.prm

>  <Rbt.Receptor>
prm/pocket_docking_4.prm

>  <SCORE>
-6.66753

>  <SCORE.INTER>
1.26368

>  <SCORE.INTER.CONST>
1

>  <SCORE.INTER.POLAR>
0

>  <SCORE.INTER.ROT>
11

>  <SCORE.INTER.SOLV>
6.97301

>  <SCORE.INTER.VDW>
-12.4152

>  <SCORE.INTER.norm>
0.0902629

>  <SCORE.INTRA>
-7.93121

>  <SCORE.INTRA.DIHEDRAL>
-15.8501

>  <SCORE.INTRA.DIHEDRAL.0>
19.1003

>  <SCORE.INTRA.POLAR>
0

>  <SCORE.INTRA.POLAR.0>
0

>  <SCORE.INTRA.REPUL>
0

>  <SCORE.INTRA.REPUL.0>
0

>  <SCORE.INTRA.SOLV>
1.19414

>  <SCORE.INTRA.SOLV.lig_0>
-47.5333

>  <SCORE.INTRA.VDW>
-0.603213

>  <SCORE.INTRA.VDW.0>
-0.287413

>  <SCORE.INTRA.norm>
-0.566515

>  <SCORE.RESTR>
0

>  <SCORE.RESTR.CAVITY>
0

>  <SCORE.RESTR.norm>
0

>  <SCORE.SYSTEM>
0

>  <SCORE.SYSTEM.CONST>
0

>  <SCORE.SYSTEM.DIHEDRAL>
0

>  <SCORE.SYSTEM.SOLV>
0

>  <SCORE.SYSTEM.norm>
0

>  <SCORE.heavy>
14

>  <SCORE.norm>
-0.476252

>  <RMSD>
4.678

$$$$
ligand
 OpenBabel11021811493D
libRbt.so/2013.1/901 2013/11/27
 14 13  0  0  0  0  0  0  0  0999 V2000
   61.1954   -1.0961    6.0586 N   0  0  0  0  0  0  0  0  0  0  0  0
   62.0955   -1.5100    5.0047 C   0  0  0  0  0  0  0  0  0  0  0  0
   61.3303   -1.5283    3.6654 C   0  0  0  0  0  0  0  0  0  0  0  0
   60.1481   -2.5094    3.6353 C   0  0  0  0  0  0  0  0  0  0  0  0
   59.3374   -2.4980    2.4081 N   0  0  0  0  0  0  0  0  0  0  0  0
   58.5339   -1.3541    1.9804 C   0  0  0  0  0  0  0  0  0  0  0  0
   58.0850   -1.4504    0.5259 C   0  0  0  0  0  0  0  0  0  0  0  0
   57.1985   -0.2835    0.0788 C   0  0  0  0  0  0  0  0  0  0  0  0
   57.9888    1.0246   -0.0444 C   0  0  0  0  0  0  0  0  0  0  0  0
   57.2417    1.9649   -0.8771 N   0  0  0  0  0  0  0  0  0  0  0  0
   56.9843    3.3617   -0.5219 C   0  0  0  0  0  0  0  0  0  0  0  0
   56.0014    3.5074    0.6480 C   0  0  0  0  0  0  0  0  0  0  0  0
   55.6153    4.9726    0.8752 C   0  0  0  0  0  0  0  0  0  0  0  0
   54.7452    5.0687    2.0435 N   0  0  0  0  0  0  0  0  0  0  0  0
  1  2  1  0  0  0  0
  2  3  1  0  0  0  0
  3  4  1  0  0  0  0
  4  5  1  0  0  0  0
  5  6  1  0  0  0  0
  6  7  1  0  0  0  0
  7  8  1  0  0  0  0
  8  9  1  0  0  0  0
  9 10  1  0  0  0  0
 10 11  1  0  0  0  0
 11 12  1  0  0  0  0
 12 13  1  0  0  0  0
 13 14  1  0  0  0  0
M  END
>  <CHROM.1>
-61.28898667,176.24539974,-65.43030790,165.11334640,177.85872797,70.81708001
161.17208848,131.58681348,-69.57411430,-172.65189454,-176.64811560,58.32157751
0.54773008,1.81977554,-0.17530648,-0.93731968,0.77593918

>  <Name>
ligand

>  <RI>
0

>  <Rbt.Current_Directory>
/home/itssahil/PROJECTS/Mol_Feturizer/New_Systems/rnas/4FAW

>  <Rbt.Executable>
rbdock ($Id: //depot/dev/client3/rdock/2013.1/src/exe/rbdock.cxx#4 $)

>  <Rbt.Library>
libRbt.so (2013.1, Build901 2013/11/27)

>  <Rbt.Parameter_File>
/export/apps/rDock/src/rDock_2013.1_src/data/scripts/dock_solv.prm

>  <Rbt.Receptor>
prm/pocket_docking_3.prm

>  <SCORE>
-5.35602

>  <SCORE.INTER>
3.02172

>  <SCORE.INTER.CONST>
1

>  <SCORE.INTER.POLAR>
0

>  <SCORE.INTER.ROT>
11

>  <SCORE.INTER.SOLV>
8.76336

>  <SCORE.INTER.VDW>
-11.84

>  <SCORE.INTER.norm>
0.215837

>  <SCORE.INTRA>
-8.39991

>  <SCORE.INTRA.DIHEDRAL>
-15.7015

>  <SCORE.INTRA.DIHEDRAL.0>
19.1003

>  <SCORE.INTRA.POLAR>
0

>  <SCORE.INTRA.POLAR.0>
0

>  <SCORE.INTRA.REPUL>
0

>  <SCORE.INTRA.REPUL.0>
0

>  <SCORE.INTRA.SOLV>
-0.582456

>  <SCORE.INTRA.SOLV.lig_0>
-47.5333

>  <SCORE.INTRA.VDW>
-0.257933

>  <SCORE.INTRA.VDW.0>
-0.287413

>  <SCORE.INTRA.norm>
-0.599994

>  <SCORE.RESTR>
0.022168

>  <SCORE.RESTR.CAVITY>
0.022168

>  <SCORE.RESTR.norm>
0.00158343

>  <SCORE.SYSTEM>
0

>  <SCORE.SYSTEM.CONST>
0

>  <SCORE.SYSTEM.DIHEDRAL>
0

>  <SCORE.SYSTEM.SOLV>
0

>  <SCORE.SYSTEM.norm>
0

>  <SCORE.heavy>
14

>  <SCORE.norm>
-0.382573

>  <RMSD>
4.710

$$$$
ligand
 OpenBabel11021811493D
libRbt.so/2013.1/901 2013/11/27
 14 13  0  0  0  0  0  0  0  0999 V2000
   54.4734    5.1586    0.2528 N   0  0  0  0  0  0  0  0  0  0  0  0
   55.5972    4.9399   -0.6312 C   0  0  0  0  0  0  0  0  0  0  0  0
   56.3326    3.6529   -0.2042 C   0  0  0  0  0  0  0  0  0  0  0  0
   57.5419    3.3035   -1.0854 C   0  0  0  0  0  0  0  0  0  0  0  0
   58.2651    2.0751   -0.7226 N   0  0  0  0  0  0  0  0  0  0  0  0
   57.8423    0.7370   -1.1324 C   0  0  0  0  0  0  0  0  0  0  0  0
   57.4935   -0.1659    0.0463 C   0  0  0  0  0  0  0  0  0  0  0  0
   58.6955   -0.5115    0.9314 C   0  0  0  0  0  0  0  0  0  0  0  0
   58.3422   -1.5526    2.0001 C   0  0  0  0  0  0  0  0  0  0  0  0
   59.5624   -1.9810    2.6806 N   0  0  0  0  0  0  0  0  0  0  0  0
   59.5922   -2.6630    3.9757 C   0  0  0  0  0  0  0  0  0  0  0  0
   60.8875   -3.4549    4.2023 C   0  0  0  0  0  0  0  0  0  0  0  0
   62.1115   -2.5333    4.2155 C   0  0  0  0  0  0  0  0  0  0  0  0
   63.3053   -3.3179    4.5166 N   0  0  0  0  0  0  0  0  0  0  0  0
  1  2  1  0  0  0  0
  2  3  1  0  0  0  0
  3  4  1  0  0  0  0
  4  5  1  0  0  0  0
  5  6  1  0  0  0  0
  6  7  1  0  0  0  0
  7  8  1  0  0  0  0
  8  9  1  0  0  0  0
  9 10  1  0  0  0  0
 10 11  1  0  0  0  0
 11 12  1  0  0  0  0
 12 13  1  0  0  0  0
 13 14  1  0  0  0  0
M  END
>  <CHROM.1>
179.25029150,-179.37980533,82.37255960,-117.67568279,-66.28575068,-173.03023637
171.89720930,162.19485914,158.07361841,62.36323384,176.47764620,58.57434878
0.26325232,1.36025617,2.58781926,0.88693426,-1.48263641

>  <Name>
ligand

>  <RI>
0

>  <Rbt.Current_Directory>
/home/itssahil/PROJECTS/Mol_Feturizer/New_Systems/rnas/4FAW

>  <Rbt.Executable>
rbdock ($Id: //depot/dev/client3/rdock/2013.1/src/exe/rbdock.cxx#4 $)

>  <Rbt.Library>
libRbt.so (2013.1, Build901 2013/11/27)

>  <Rbt.Parameter_File>
/export/apps/rDock/src/rDock_2013.1_src/data/scripts/dock_solv.prm

>  <Rbt.Receptor>
prm/pocket_docking_5.prm

>  <SCORE>
-6.48517

>  <SCORE.INTER>
3.02413

>  <SCORE.INTER.CONST>
1

>  <SCORE.INTER.POLAR>
0

>  <SCORE.INTER.ROT>
11

>  <SCORE.INTER.SOLV>
9.72137

>  <SCORE.INTER.VDW>
-12.1577

>  <SCORE.INTER.norm>
0.216009

>  <SCORE.INTRA>
-9.5093

>  <SCORE.INTRA.DIHEDRAL>
-16.276

>  <SCORE.INTRA.DIHEDRAL.0>
19.1003

>  <SCORE.INTRA.POLAR>
0

>  <SCORE.INTRA.POLAR.0>
0

>  <SCORE.INTRA.REPUL>
0

>  <SCORE.INTRA.REPUL.0>
0

>  <SCORE.INTRA.SOLV>
-0.822807

>  <SCORE.INTRA.SOLV.lig_0>
-47.5333

>  <SCORE.INTRA.VDW>
-0.959896

>  <SCORE.INTRA.VDW.0>
-0.287413

>  <SCORE.INTRA.norm>
-0.679236

>  <SCORE.RESTR>
0

>  <SCORE.RESTR.CAVITY>
0

>  <SCORE.RESTR.norm>
0

>  <SCORE.SYSTEM>
0

>  <SCORE.SYSTEM.CONST>
0

>  <SCORE.SYSTEM.DIHEDRAL>
0

>  <SCORE.SYSTEM.SOLV>
0

>  <SCORE.SYSTEM.norm>
0

>  <SCORE.heavy>
14

>  <SCORE.norm>
-0.463227

>  <RMSD>
4.737

$$$$
ligand
 OpenBabel11021811493D
libRbt.so/2013.1/901 2013/11/27
 14 13  0  0  0  0  0  0  0  0999 V2000
   55.3833    6.3496   -2.5811 N   0  0  0  0  0  0  0  0  0  0  0  0
   56.5744    5.5502   -2.3955 C   0  0  0  0  0  0  0  0  0  0  0  0
   56.2038    4.2615   -1.6329 C   0  0  0  0  0  0  0  0  0  0  0  0
   57.4017    3.3468   -1.3339 C   0  0  0  0  0  0  0  0  0  0  0  0
   57.0896    2.0905   -0.6354 N   0  0  0  0  0  0  0  0  0  0  0  0
   58.0186    1.4166    0.2701 C   0  0  0  0  0  0  0  0  0  0  0  0
   57.7409   -0.0769    0.4072 C   0  0  0  0  0  0  0  0  0  0  0  0
   58.7076   -0.7964    1.3533 C   0  0  0  0  0  0  0  0  0  0  0  0
   58.4666   -2.3104    1.3793 C   0  0  0  0  0  0  0  0  0  0  0  0
   59.5221   -2.9553    2.1576 N   0  0  0  0  0  0  0  0  0  0  0  0
   60.0136   -4.3137    1.9200 C   0  0  0  0  0  0  0  0  0  0  0  0
   61.2963   -4.6284    2.7023 C   0  0  0  0  0  0  0  0  0  0  0  0
   61.0262   -4.7148    4.2080 C   0  0  0  0  0  0  0  0  0  0  0  0
   60.6780   -3.3906    4.7145 N   0  0  0  0  0  0  0  0  0  0  0  0
  1  2  1  0  0  0  0
  2  3  1  0  0  0  0
  3  4  1  0  0  0  0
  4  5  1  0  0  0  0
  5  6  1  0  0  0  0
  6  7  1  0  0  0  0
  7  8  1  0  0  0  0
  8  9  1  0  0  0  0
  9 10  1  0  0  0  0
 10 11  1  0  0  0  0
 11 12  1  0  0  0  0
 12 13  1  0  0  0  0
 13 14  1  0  0  0  0
M  END
>  <CHROM.1>
-178.11473330,-178.62193921,-150.00153647,-156.13753355,179.98453878,-175.49541438
172.70678429,-149.91622991,168.91797489,68.96181099,-67.95505424,58.43745330
-0.01246863,0.75233054,-2.53658934,1.09544552,-2.75627733

>  <Name>
ligand

>  <RI>
0

>  <Rbt.Current_Directory>
/home/itssahil/PROJECTS/Mol_Feturizer/New_Systems/rnas/4FAW

>  <Rbt.Executable>
rbdock ($Id: //depot/dev/client3/rdock/2013.1/src/exe/rbdock.cxx#4 $)

>  <Rbt.Library>
libRbt.so (2013.1, Build901 2013/11/27)

>  <Rbt.Parameter_File>
/export/apps/rDock/src/rDock_2013.1_src/data/scripts/dock_solv.prm

>  <Rbt.Receptor>
prm/pocket_docking_6.prm

>  <SCORE>
-9.07276

>  <SCORE.INTER>
-0.559598

>  <SCORE.INTER.CONST>
1

>  <SCORE.INTER.POLAR>
0

>  <SCORE.INTER.ROT>
11

>  <SCORE.INTER.SOLV>
11.8996

>  <SCORE.INTER.VDW>
-15.2729

>  <SCORE.INTER.norm>
-0.0399713

>  <SCORE.INTRA>
-8.51316

>  <SCORE.INTRA.DIHEDRAL>
-16.5506

>  <SCORE.INTRA.DIHEDRAL.0>
19.1003

>  <SCORE.INTRA.POLAR>
0

>  <SCORE.INTRA.POLAR.0>
0

>  <SCORE.INTRA.REPUL>
0

>  <SCORE.INTRA.REPUL.0>
0

>  <SCORE.INTRA.SOLV>
1.4371

>  <SCORE.INTRA.SOLV.lig_0>
-47.5333

>  <SCORE.INTRA.VDW>
-0.956405

>  <SCORE.INTRA.VDW.0>
-0.287413

>  <SCORE.INTRA.norm>
-0.608083

>  <SCORE.RESTR>
0

>  <SCORE.RESTR.CAVITY>
0

>  <SCORE.RESTR.norm>
0

>  <SCORE.SYSTEM>
0

>  <SCORE.SYSTEM.CONST>
0

>  <SCORE.SYSTEM.DIHEDRAL>
0

>  <SCORE.SYSTEM.SOLV>
0

>  <SCORE.SYSTEM.norm>
0

>  <SCORE.heavy>
14

>  <SCORE.norm>
-0.648054

>  <RMSD>
4.741

$$$$
ligand
 OpenBabel11021811493D
libRbt.so/2013.1/901 2013/11/27
 14 13  0  0  0  0  0  0  0  0999 V2000
   58.6623    2.5461    6.2796 N   0  0  0  0  0  0  0  0  0  0  0  0
   59.8589    2.4503    7.0864 C   0  0  0  0  0  0  0  0  0  0  0  0
   61.0895    2.3840    6.1587 C   0  0  0  0  0  0  0  0  0  0  0  0
   61.1733    1.0966    5.3240 C   0  0  0  0  0  0  0  0  0  0  0  0
   60.0478    0.8520    4.4092 N   0  0  0  0  0  0  0  0  0  0  0  0
   60.0591   -0.1762    3.3702 C   0  0  0  0  0  0  0  0  0  0  0  0
   58.9843    0.0356    2.3090 C   0  0  0  0  0  0  0  0  0  0  0  0
   59.0859    1.3867    1.5937 C   0  0  0  0  0  0  0  0  0  0  0  0
   58.0158    1.5438    0.5069 C   0  0  0  0  0  0  0  0  0  0  0  0
   58.2903    2.7496   -0.2718 N   0  0  0  0  0  0  0  0  0  0  0  0
   57.4744    3.2129   -1.3957 C   0  0  0  0  0  0  0  0  0  0  0  0
   56.6433    4.4577   -1.0553 C   0  0  0  0  0  0  0  0  0  0  0  0
   55.8301    4.9350   -2.2630 C   0  0  0  0  0  0  0  0  0  0  0  0
   55.0317    6.0960   -1.8811 N   0  0  0  0  0  0  0  0  0  0  0  0
  1  2  1  0  0  0  0
  2  3  1  0  0  0  0
  3  4  1  0  0  0  0
  4  5  1  0  0  0  0
  5  6  1  0  0  0  0
  6  7  1  0  0  0  0
  7  8  1  0  0  0  0
  8  9  1  0  0  0  0
  9 10  1  0  0  0  0
 10 11  1  0  0  0  0
 11 12  1  0  0  0  0
 12 13  1  0  0  0  0
 13 14  1  0  0  0  0
M  END
>  <CHROM.1>
-67.14072401,60.41555849,168.52088056,-162.81145873,58.17033995,178.27015869
-171.29692387,179.88733856,107.59735530,178.56250252,178.51488976,58.58927855
2.39760217,2.15506828,0.56833806,-1.00948121,1.04051883

>  <Name>
ligand

>  <RI>
0

>  <Rbt.Current_Directory>
/home/itssahil/PROJECTS/Mol_Feturizer/New_Systems/rnas/4FAW

>  <Rbt.Executable>
rbdock ($Id: //depot/dev/client3/rdock/2013.1/src/exe/rbdock.cxx#4 $)

>  <Rbt.Library>
libRbt.so (2013.1, Build901 2013/11/27)

>  <Rbt.Parameter_File>
/export/apps/rDock/src/rDock_2013.1_src/data/scripts/dock_solv.prm

>  <Rbt.Receptor>
prm/pocket_docking_5.prm

>  <SCORE>
-8.47484

>  <SCORE.INTER>
0.303803

>  <SCORE.INTER.CONST>
1

>  <SCORE.INTER.POLAR>
0

>  <SCORE.INTER.ROT>
11

>  <SCORE.INTER.SOLV>
8.85797

>  <SCORE.INTER.VDW>
-13.6835

>  <SCORE.INTER.norm>
0.0217002

>  <SCORE.INTRA>
-8.77864

>  <SCORE.INTRA.DIHEDRAL>
-17.176

>  <SCORE.INTRA.DIHEDRAL.0>
19.1003

>  <SCORE.INTRA.POLAR>
0

>  <SCORE.INTRA.POLAR.0>
0

>  <SCORE.INTRA.REPUL>
0

>  <SCORE.INTRA.REPUL.0>
0

>  <SCORE.INTRA.SOLV>
1.68973

>  <SCORE.INTRA.SOLV.lig_0>
-47.5333

>  <SCORE.INTRA.VDW>
-1.03553

>  <SCORE.INTRA.VDW.0>
-0.287413

>  <SCORE.INTRA.norm>
-0.627046

>  <SCORE.RESTR>
0

>  <SCORE.RESTR.CAVITY>
0

>  <SCORE.RESTR.norm>
0

>  <SCORE.SYSTEM>
0

>  <SCORE.SYSTEM.CONST>
0

>  <SCORE.SYSTEM.DIHEDRAL>
0

>  <SCORE.SYSTEM.SOLV>
0

>  <SCORE.SYSTEM.norm>
0

>  <SCORE.heavy>
14

>  <SCORE.norm>
-0.605346

>  <RMSD>
4.764

$$$$
ligand
 OpenBabel11021811493D
libRbt.so/2013.1/901 2013/11/27
 14 13  0  0  0  0  0  0  0  0999 V2000
   61.9266   -4.5552    4.7226 N   0  0  0  0  0  0  0  0  0  0  0  0
   62.0541   -4.9719    3.3433 C   0  0  0  0  0  0  0  0  0  0  0  0
   60.7495   -4.6364    2.5918 C   0  0  0  0  0  0  0  0  0  0  0  0
   60.4093   -3.1381    2.5701 C   0  0  0  0  0  0  0  0  0  0  0  0
   59.1531   -2.7762    1.8958 N   0  0  0  0  0  0  0  0  0  0  0  0
   58.8461   -1.4253    1.4292 C   0  0  0  0  0  0  0  0  0  0  0  0
   57.4435   -1.3006    0.8430 C   0  0  0  0  0  0  0  0  0  0  0  0
   57.1212    0.1014    0.3157 C   0  0  0  0  0  0  0  0  0  0  0  0
   57.8774    0.4161   -0.9804 C   0  0  0  0  0  0  0  0  0  0  0  0
   57.4480    1.7177   -1.4875 N   0  0  0  0  0  0  0  0  0  0  0  0
   57.8901    3.0041   -0.9460 C   0  0  0  0  0  0  0  0  0  0  0  0
   56.7219    3.9362   -0.5957 C   0  0  0  0  0  0  0  0  0  0  0  0
   55.9467    4.3567   -1.8487 C   0  0  0  0  0  0  0  0  0  0  0  0
   54.9806    5.3926   -1.4955 N   0  0  0  0  0  0  0  0  0  0  0  0
  1  2  1  0  0  0  0
  2  3  1  0  0  0  0
  3  4  1  0  0  0  0
  4  5  1  0  0  0  0
  5  6  1  0  0  0  0
  6  7  1  0  0  0  0
  7  8  1  0  0  0  0
  8  9  1  0  0  0  0
  9 10  1  0  0  0  0
 10 11  1  0  0  0  0
 11 12  1  0  0  0  0
 12 13  1  0  0  0  0
 13 14  1  0  0  0  0
M  END
>  <CHROM.1>
60.90201657,-178.36209637,-161.50754687,-176.38797728,-178.46587288,72.02961681
175.50457457,77.33509916,-127.79720528,-65.50170385,-171.50664159,58.46918122
-0.27713618,0.73976615,-0.90678402,-0.73393982,-0.03189668

>  <Name>
ligand

>  <RI>
0

>  <Rbt.Current_Directory>
/home/itssahil/PROJECTS/Mol_Feturizer/New_Systems/rnas/4FAW

>  <Rbt.Executable>
rbdock ($Id: //depot/dev/client3/rdock/2013.1/src/exe/rbdock.cxx#4 $)

>  <Rbt.Library>
libRbt.so (2013.1, Build901 2013/11/27)

>  <Rbt.Parameter_File>
/export/apps/rDock/src/rDock_2013.1_src/data/scripts/dock_solv.prm

>  <Rbt.Receptor>
prm/pocket_docking_6.prm

>  <SCORE>
-8.91546

>  <SCORE.INTER>
-0.212213

>  <SCORE.INTER.CONST>
1

>  <SCORE.INTER.POLAR>
0

>  <SCORE.INTER.ROT>
11

>  <SCORE.INTER.SOLV>
12.5596

>  <SCORE.INTER.VDW>
-15.2613

>  <SCORE.INTER.norm>
-0.0151581

>  <SCORE.INTRA>
-8.70324

>  <SCORE.INTRA.DIHEDRAL>
-16.3807

>  <SCORE.INTRA.DIHEDRAL.0>
19.1003

>  <SCORE.INTRA.POLAR>
0

>  <SCORE.INTRA.POLAR.0>
0

>  <SCORE.INTRA.REPUL>
0

>  <SCORE.INTRA.REPUL.0>
0

>  <SCORE.INTRA.SOLV>
-0.272677

>  <SCORE.INTRA.SOLV.lig_0>
-47.5333

>  <SCORE.INTRA.VDW>
-0.376536

>  <SCORE.INTRA.VDW.0>
-0.287413

>  <SCORE.INTRA.norm>
-0.62166

>  <SCORE.RESTR>
0

>  <SCORE.RESTR.CAVITY>
0

>  <SCORE.RESTR.norm>
0

>  <SCORE.SYSTEM>
0

>  <SCORE.SYSTEM.CONST>
0

>  <SCORE.SYSTEM.DIHEDRAL>
0

>  <SCORE.SYSTEM.SOLV>
0

>  <SCORE.SYSTEM.norm>
0

>  <SCORE.heavy>
14

>  <SCORE.norm>
-0.636818

>  <RMSD>
4.767

$$$$
ligand
 OpenBabel11021811493D
libRbt.so/2013.1/901 2013/11/27
 14 13  0  0  0  0  0  0  0  0999 V2000
   48.2799   -2.1762   -6.3574 N   0  0  0  0  0  0  0  0  0  0  0  0
   49.5173   -1.4278   -6.3873 C   0  0  0  0  0  0  0  0  0  0  0  0
   49.7896   -0.8461   -4.9848 C   0  0  0  0  0  0  0  0  0  0  0  0
   51.0459    0.0354   -4.9079 C   0  0  0  0  0  0  0  0  0  0  0  0
   51.3883    0.5473   -3.5721 N   0  0  0  0  0  0  0  0  0  0  0  0
   51.8010   -0.3072   -2.4602 C   0  0  0  0  0  0  0  0  0  0  0  0
   51.4220    0.2624   -1.0970 C   0  0  0  0  0  0  0  0  0  0  0  0
   52.1715    1.5502   -0.7401 C   0  0  0  0  0  0  0  0  0  0  0  0
   51.6822    2.1527    0.5822 C   0  0  0  0  0  0  0  0  0  0  0  0
   52.7204    3.0222    1.1314 N   0  0  0  0  0  0  0  0  0  0  0  0
   53.7367    2.5924    2.0937 C   0  0  0  0  0  0  0  0  0  0  0  0
   54.7944    1.6706    1.4710 C   0  0  0  0  0  0  0  0  0  0  0  0
   55.7617    1.1331    2.5308 C   0  0  0  0  0  0  0  0  0  0  0  0
   56.8059    0.3475    1.8796 N   0  0  0  0  0  0  0  0  0  0  0  0
  1  2  1  0  0  0  0
  2  3  1  0  0  0  0
  3  4  1  0  0  0  0
  4  5  1  0  0  0  0
  5  6  1  0  0  0  0
  6  7  1  0  0  0  0
  7  8  1  0  0  0  0
  8  9  1  0  0  0  0
  9 10  1  0  0  0  0
 10 11  1  0  0  0  0
 11 12  1  0  0  0  0
 12 13  1  0  0  0  0
 13 14  1  0  0  0  0
M  END
>  <CHROM.1>
-176.96677879,-176.55602316,65.81827588,-150.50407707,-66.75541708,175.35181624
157.99325281,-93.13997442,71.62181143,-174.53740714,-175.69897722,52.20831945
0.61125778,-1.48691146,-2.22634429,-0.47519662,0.86799222

>  <Name>
ligand

>  <RI>
0

>  <Rbt.Current_Directory>
/home/itssahil/PROJECTS/Mol_Feturizer/New_Systems/rnas/4FAW

>  <Rbt.Executable>
rbdock ($Id: //depot/dev/client3/rdock/2013.1/src/exe/rbdock.cxx#4 $)

>  <Rbt.Library>
libRbt.so (2013.1, Build901 2013/11/27)

>  <Rbt.Parameter_File>
/export/apps/rDock/src/rDock_2013.1_src/data/scripts/dock_solv.prm

>  <Rbt.Receptor>
prm/pocket_docking_7.prm

>  <SCORE>
-7.36608

>  <SCORE.INTER>
1.62113

>  <SCORE.INTER.CONST>
1

>  <SCORE.INTER.POLAR>
0

>  <SCORE.INTER.ROT>
11

>  <SCORE.INTER.SOLV>
6.8465

>  <SCORE.INTER.VDW>
-12.1347

>  <SCORE.INTER.norm>
0.115795

>  <SCORE.INTRA>
-8.98721

>  <SCORE.INTRA.DIHEDRAL>
-15.522

>  <SCORE.INTRA.DIHEDRAL.0>
19.1003

>  <SCORE.INTRA.POLAR>
0

>  <SCORE.INTRA.POLAR.0>
0

>  <SCORE.INTRA.REPUL>
0

>  <SCORE.INTRA.REPUL.0>
0

>  <SCORE.INTRA.SOLV>
-1.13057

>  <SCORE.INTRA.SOLV.lig_0>
-47.5333

>  <SCORE.INTRA.VDW>
-0.660926

>  <SCORE.INTRA.VDW.0>
-0.287413

>  <SCORE.INTRA.norm>
-0.641943

>  <SCORE.RESTR>
0

>  <SCORE.RESTR.CAVITY>
0

>  <SCORE.RESTR.norm>
0

>  <SCORE.SYSTEM>
0

>  <SCORE.SYSTEM.CONST>
0

>  <SCORE.SYSTEM.DIHEDRAL>
0

>  <SCORE.SYSTEM.SOLV>
0

>  <SCORE.SYSTEM.norm>
0

>  <SCORE.heavy>
14

>  <SCORE.norm>
-0.526149

>  <RMSD>
4.808

$$$$
ligand
 OpenBabel11021811493D
libRbt.so/2013.1/901 2013/11/27
 14 13  0  0  0  0  0  0  0  0999 V2000
   59.2476    1.7481    6.4224 N   0  0  0  0  0  0  0  0  0  0  0  0
   60.2416    2.1490    5.4511 C   0  0  0  0  0  0  0  0  0  0  0  0
   61.3450    1.0731    5.3844 C   0  0  0  0  0  0  0  0  0  0  0  0
   60.8434   -0.3085    4.9366 C   0  0  0  0  0  0  0  0  0  0  0  0
   60.2323   -0.3657    3.5998 N   0  0  0  0  0  0  0  0  0  0  0  0
   59.7908   -1.6063    2.9651 C   0  0  0  0  0  0  0  0  0  0  0  0
   59.1266   -1.3805    1.6108 C   0  0  0  0  0  0  0  0  0  0  0  0
   57.7923   -0.6324    1.6988 C   0  0  0  0  0  0  0  0  0  0  0  0
   57.1647   -0.4117    0.3174 C   0  0  0  0  0  0  0  0  0  0  0  0
   57.9966    0.5126   -0.4502 N   0  0  0  0  0  0  0  0  0  0  0  0
   57.9079    1.9715   -0.3656 C   0  0  0  0  0  0  0  0  0  0  0  0
   56.9485    2.5710   -1.4031 C   0  0  0  0  0  0  0  0  0  0  0  0
   56.8146    4.0876   -1.2306 C   0  0  0  0  0  0  0  0  0  0  0  0
   55.7966    4.5914   -2.1478 N   0  0  0  0  0  0  0  0  0  0  0  0
  1  2  1  0  0  0  0
  2  3  1  0  0  0  0
  3  4  1  0  0  0  0
  4  5  1  0  0  0  0
  5  6  1  0  0  0  0
  6  7  1  0  0  0  0
  7  8  1  0  0  0  0
  8  9  1  0  0  0  0
  9 10  1  0  0  0  0
 10 11  1  0  0  0  0
 11 12  1  0  0  0  0
 12 13  1  0  0  0  0
 13 14  1  0  0  0  0
M  END
>  <CHROM.1>
61.58873287,60.30038094,175.23449629,177.02013672,-66.74019823,179.37136627
-67.03316016,-84.76145084,-92.01735817,176.52215650,-174.43070204,58.66074481
0.99968490,1.91352023,-0.02306765,-1.08365793,0.35132207

>  <Name>
ligand

>  <RI>
0

>  <Rbt.Current_Directory>
/home/itssahil/PROJECTS/Mol_Feturizer/New_Systems/rnas/4FAW

>  <Rbt.Executable>
rbdock ($Id: //depot/dev/client3/rdock/2013.1/src/exe/rbdock.cxx#4 $)

>  <Rbt.Library>
libRbt.so (2013.1, Build901 2013/11/27)

>  <Rbt.Parameter_File>
/export/apps/rDock/src/rDock_2013.1_src/data/scripts/dock_solv.prm

>  <Rbt.Receptor>
prm/pocket_docking_4.prm

>  <SCORE>
-9.06365

>  <SCORE.INTER>
-0.0473645

>  <SCORE.INTER.CONST>
1

>  <SCORE.INTER.POLAR>
0

>  <SCORE.INTER.ROT>
11

>  <SCORE.INTER.SOLV>
10.3876

>  <SCORE.INTER.VDW>
-14.4275

>  <SCORE.INTER.norm>
-0.00338318

>  <SCORE.INTRA>
-9.02009

>  <SCORE.INTRA.DIHEDRAL>
-17.4449

>  <SCORE.INTRA.DIHEDRAL.0>
19.1003

>  <SCORE.INTRA.POLAR>
0

>  <SCORE.INTRA.POLAR.0>
0

>  <SCORE.INTRA.REPUL>
0

>  <SCORE.INTRA.REPUL.0>
0

>  <SCORE.INTRA.SOLV>
0.989357

>  <SCORE.INTRA.SOLV.lig_0>
-47.5333

>  <SCORE.INTRA.VDW>
-0.792328

>  <SCORE.INTRA.VDW.0>
-0.287413

>  <SCORE.INTRA.norm>
-0.644292

>  <SCORE.RESTR>
0.00380267

>  <SCORE.RESTR.CAVITY>
0.00380267

>  <SCORE.RESTR.norm>
0.000271619

>  <SCORE.SYSTEM>
0

>  <SCORE.SYSTEM.CONST>
0

>  <SCORE.SYSTEM.DIHEDRAL>
0

>  <SCORE.SYSTEM.SOLV>
0

>  <SCORE.SYSTEM.norm>
0

>  <SCORE.heavy>
14

>  <SCORE.norm>
-0.647404

>  <RMSD>
4.854

$$$$
ligand
 OpenBabel11021811493D
libRbt.so/2013.1/901 2013/11/27
 14 13  0  0  0  0  0  0  0  0999 V2000
   60.7690   -0.6852    6.1600 N   0  0  0  0  0  0  0  0  0  0  0  0
   61.4645   -0.1429    5.0136 C   0  0  0  0  0  0  0  0  0  0  0  0
   62.2004   -1.2847    4.2828 C   0  0  0  0  0  0  0  0  0  0  0  0
   61.2650   -2.3395    3.6715 C   0  0  0  0  0  0  0  0  0  0  0  0
   60.3542   -1.8567    2.6222 N   0  0  0  0  0  0  0  0  0  0  0  0
   59.0290   -2.4236    2.3783 C   0  0  0  0  0  0  0  0  0  0  0  0
   58.0267   -1.3971    1.8607 C   0  0  0  0  0  0  0  0  0  0  0  0
   58.3193   -0.9187    0.4348 C   0  0  0  0  0  0  0  0  0  0  0  0
   57.4535    0.2846    0.0431 C   0  0  0  0  0  0  0  0  0  0  0  0
   57.7130    0.6339   -1.3520 N   0  0  0  0  0  0  0  0  0  0  0  0
   57.9537    1.9954   -1.8336 C   0  0  0  0  0  0  0  0  0  0  0  0
   56.7670    2.9354   -1.5799 C   0  0  0  0  0  0  0  0  0  0  0  0
   56.6852    3.3481   -0.1066 C   0  0  0  0  0  0  0  0  0  0  0  0
   55.5742    4.2777    0.0750 N   0  0  0  0  0  0  0  0  0  0  0  0
  1  2  1  0  0  0  0
  2  3  1  0  0  0  0
  3  4  1  0  0  0  0
  4  5  1  0  0  0  0
  5  6  1  0  0  0  0
  6  7  1  0  0  0  0
  7  8  1  0  0  0  0
  8  9  1  0  0  0  0
  9 10  1  0  0  0  0
 10 11  1  0  0  0  0
 11 12  1  0  0  0  0
 12 13  1  0  0  0  0
 13 14  1  0  0  0  0
M  END
>  <CHROM.1>
64.79278000,62.70130775,-149.10155125,148.46565470,69.47060524,-169.70705491
-176.15506686,-133.30307592,-61.03738724,75.39847599,177.93545112,58.82685637
0.17316752,1.54771716,-0.06947778,-0.99825984,0.57278154

>  <Name>
ligand

>  <RI>
0

>  <Rbt.Current_Directory>
/home/itssahil/PROJECTS/Mol_Feturizer/New_Systems/rnas/4FAW

>  <Rbt.Executable>
rbdock ($Id: //depot/dev/client3/rdock/2013.1/src/exe/rbdock.cxx#4 $)

>  <Rbt.Library>
libRbt.so (2013.1, Build901 2013/11/27)

>  <Rbt.Parameter_File>
/export/apps/rDock/src/rDock_2013.1_src/data/scripts/dock_solv.prm

>  <Rbt.Receptor>
prm/pocket_docking_5.prm

>  <SCORE>
-8.46641

>  <SCORE.INTER>
-1.07412

>  <SCORE.INTER.CONST>
1

>  <SCORE.INTER.POLAR>
0

>  <SCORE.INTER.ROT>
11

>  <SCORE.INTER.SOLV>
11.2

>  <SCORE.INTER.VDW>
-15.3827

>  <SCORE.INTER.norm>
-0.0767227

>  <SCORE.INTRA>
-7.3923

>  <SCORE.INTRA.DIHEDRAL>
-14.9613

>  <SCORE.INTRA.DIHEDRAL.0>
19.1003

>  <SCORE.INTRA.POLAR>
0

>  <SCORE.INTRA.POLAR.0>
0

>  <SCORE.INTRA.REPUL>
0

>  <SCORE.INTRA.REPUL.0>
0

>  <SCORE.INTRA.SOLV>
1.13116

>  <SCORE.INTRA.SOLV.lig_0>
-47.5333

>  <SCORE.INTRA.VDW>
-0.477241

>  <SCORE.INTRA.VDW.0>
-0.287413

>  <SCORE.INTRA.norm>
-0.528021

>  <SCORE.RESTR>
0

>  <SCORE.RESTR.CAVITY>
0

>  <SCORE.RESTR.norm>
0

>  <SCORE.SYSTEM>
0

>  <SCORE.SYSTEM.CONST>
0

>  <SCORE.SYSTEM.DIHEDRAL>
0

>  <SCORE.SYSTEM.SOLV>
0

>  <SCORE.SYSTEM.norm>
0

>  <SCORE.heavy>
14

>  <SCORE.norm>
-0.604744

>  <RMSD>
4.854

$$$$
ligand
 OpenBabel11021811493D
libRbt.so/2013.1/901 2013/11/27
 14 13  0  0  0  0  0  0  0  0999 V2000
   63.3547   -3.0528    5.4494 N   0  0  0  0  0  0  0  0  0  0  0  0
   62.9621   -1.7323    5.8902 C   0  0  0  0  0  0  0  0  0  0  0  0
   62.0436   -1.0971    4.8261 C   0  0  0  0  0  0  0  0  0  0  0  0
   60.7052   -1.8287    4.6399 C   0  0  0  0  0  0  0  0  0  0  0  0
   59.8040   -1.2663    3.6225 N   0  0  0  0  0  0  0  0  0  0  0  0
   60.1424   -1.1771    2.2032 C   0  0  0  0  0  0  0  0  0  0  0  0
   58.9432   -0.8384    1.3237 C   0  0  0  0  0  0  0  0  0  0  0  0
   58.2989    0.5110    1.6577 C   0  0  0  0  0  0  0  0  0  0  0  0
   57.1918    0.8812    0.6637 C   0  0  0  0  0  0  0  0  0  0  0  0
   57.7962    1.3514   -0.5810 N   0  0  0  0  0  0  0  0  0  0  0  0
   57.7833    2.7437   -1.0334 C   0  0  0  0  0  0  0  0  0  0  0  0
   56.4106    3.1868   -1.5584 C   0  0  0  0  0  0  0  0  0  0  0  0
   56.3657    4.6990   -1.8006 C   0  0  0  0  0  0  0  0  0  0  0  0
   56.3331    5.3943   -0.5173 N   0  0  0  0  0  0  0  0  0  0  0  0
  1  2  1  0  0  0  0
  2  3  1  0  0  0  0
  3  4  1  0  0  0  0
  4  5  1  0  0  0  0
  5  6  1  0  0  0  0
  6  7  1  0  0  0  0
  7  8  1  0  0  0  0
  8  9  1  0  0  0  0
  9 10  1  0  0  0  0
 10 11  1  0  0  0  0
 11 12  1  0  0  0  0
 12 13  1  0  0  0  0
 13 14  1  0  0  0  0
M  END
>  <CHROM.1>
64.76034347,-179.28287822,61.84666474,167.67772031,60.75043219,174.14272203
-76.75202179,-108.66437946,-74.34368157,170.43020212,-72.48367357,59.15240574
0.55530995,1.77029490,-0.59383713,-0.85512725,0.02146916

>  <Name>
ligand

>  <RI>
0

>  <Rbt.Current_Directory>
/home/itssahil/PROJECTS/Mol_Feturizer/New_Systems/rnas/4FAW

>  <Rbt.Executable>
rbdock ($Id: //depot/dev/client3/rdock/2013.1/src/exe/rbdock.cxx#4 $)

>  <Rbt.Library>
libRbt.so (2013.1, Build901 2013/11/27)

>  <Rbt.Parameter_File>
/export/apps/rDock/src/rDock_2013.1_src/data/scripts/dock_solv.prm

>  <Rbt.Receptor>
prm/pocket_docking_6.prm

>  <SCORE>
-6.02995

>  <SCORE.INTER>
1.87569

>  <SCORE.INTER.CONST>
1

>  <SCORE.INTER.POLAR>
0

>  <SCORE.INTER.ROT>
11

>  <SCORE.INTER.SOLV>
11.0018

>  <SCORE.INTER.VDW>
-13.3501

>  <SCORE.INTER.norm>
0.133978

>  <SCORE.INTRA>
-7.90564

>  <SCORE.INTRA.DIHEDRAL>
-15.5824

>  <SCORE.INTRA.DIHEDRAL.0>
19.1003

>  <SCORE.INTRA.POLAR>
0

>  <SCORE.INTRA.POLAR.0>
0

>  <SCORE.INTRA.REPUL>
0

>  <SCORE.INTRA.REPUL.0>
0

>  <SCORE.INTRA.SOLV>
0.674556

>  <SCORE.INTRA.SOLV.lig_0>
-47.5333

>  <SCORE.INTRA.VDW>
-0.451716

>  <SCORE.INTRA.VDW.0>
-0.287413

>  <SCORE.INTRA.norm>
-0.564689

>  <SCORE.RESTR>
0

>  <SCORE.RESTR.CAVITY>
0

>  <SCORE.RESTR.norm>
0

>  <SCORE.SYSTEM>
0

>  <SCORE.SYSTEM.CONST>
0

>  <SCORE.SYSTEM.DIHEDRAL>
0

>  <SCORE.SYSTEM.SOLV>
0

>  <SCORE.SYSTEM.norm>
0

>  <SCORE.heavy>
14

>  <SCORE.norm>
-0.430711

>  <RMSD>
4.896

$$$$
ligand
 OpenBabel11021811493D
libRbt.so/2013.1/901 2013/11/27
 14 13  0  0  0  0  0  0  0  0999 V2000
   55.7466    3.7635   -2.0044 N   0  0  0  0  0  0  0  0  0  0  0  0
   56.5802    3.4428   -0.8667 C   0  0  0  0  0  0  0  0  0  0  0  0
   57.9858    3.0493   -1.3657 C   0  0  0  0  0  0  0  0  0  0  0  0
   58.0218    1.7311   -2.1544 C   0  0  0  0  0  0  0  0  0  0  0  0
   57.6227    0.5276   -1.4089 N   0  0  0  0  0  0  0  0  0  0  0  0
   57.9864    0.2826   -0.0144 C   0  0  0  0  0  0  0  0  0  0  0  0
   57.4281   -1.0297    0.5264 C   0  0  0  0  0  0  0  0  0  0  0  0
   57.8255   -1.3135    1.9787 C   0  0  0  0  0  0  0  0  0  0  0  0
   59.3258   -1.5967    2.1194 C   0  0  0  0  0  0  0  0  0  0  0  0
   59.6525   -1.7849    3.5313 N   0  0  0  0  0  0  0  0  0  0  0  0
   60.9312   -2.3007    4.0235 C   0  0  0  0  0  0  0  0  0  0  0  0
   60.8530   -3.7710    4.4575 C   0  0  0  0  0  0  0  0  0  0  0  0
   59.9147   -3.9516    5.6553 C   0  0  0  0  0  0  0  0  0  0  0  0
   60.4571   -3.2378    6.8074 N   0  0  0  0  0  0  0  0  0  0  0  0
  1  2  1  0  0  0  0
  2  3  1  0  0  0  0
  3  4  1  0  0  0  0
  4  5  1  0  0  0  0
  5  6  1  0  0  0  0
  6  7  1  0  0  0  0
  7  8  1  0  0  0  0
  8  9  1  0  0  0  0
  9 10  1  0  0  0  0
 10 11  1  0  0  0  0
 11 12  1  0  0  0  0
 12 13  1  0  0  0  0
 13 14  1  0  0  0  0
M  END
>  <CHROM.1>
-67.31475863,-62.53774882,-39.23655587,179.12431346,178.81525644,-68.09646306
176.87026876,168.75147579,-102.59160961,-64.29083703,-63.97838315,58.59518726
-0.44218089,1.52026200,2.74423773,1.18009872,-1.99967447

>  <Name>
ligand

>  <RI>
0

>  <Rbt.Current_Directory>
/home/itssahil/PROJECTS/Mol_Feturizer/New_Systems/rnas/4FAW

>  <Rbt.Executable>
rbdock ($Id: //depot/dev/client3/rdock/2013.1/src/exe/rbdock.cxx#4 $)

>  <Rbt.Library>
libRbt.so (2013.1, Build901 2013/11/27)

>  <Rbt.Parameter_File>
/export/apps/rDock/src/rDock_2013.1_src/data/scripts/dock_solv.prm

>  <Rbt.Receptor>
prm/pocket_docking_7.prm

>  <SCORE>
-8.18506

>  <SCORE.INTER>
-0.869337

>  <SCORE.INTER.CONST>
1

>  <SCORE.INTER.POLAR>
0

>  <SCORE.INTER.ROT>
11

>  <SCORE.INTER.SOLV>
11.0726

>  <SCORE.INTER.VDW>
-15.2038

>  <SCORE.INTER.norm>
-0.0620955

>  <SCORE.INTRA>
-7.31572

>  <SCORE.INTRA.DIHEDRAL>
-17.0436

>  <SCORE.INTRA.DIHEDRAL.0>
19.1003

>  <SCORE.INTRA.POLAR>
0

>  <SCORE.INTRA.POLAR.0>
0

>  <SCORE.INTRA.REPUL>
0

>  <SCORE.INTRA.REPUL.0>
0

>  <SCORE.INTRA.SOLV>
2.10578

>  <SCORE.INTRA.SOLV.lig_0>
-47.5333

>  <SCORE.INTRA.VDW>
0.153183

>  <SCORE.INTRA.VDW.0>
-0.287413

>  <SCORE.INTRA.norm>
-0.522552

>  <SCORE.RESTR>
0

>  <SCORE.RESTR.CAVITY>
0

>  <SCORE.RESTR.norm>
0

>  <SCORE.SYSTEM>
0

>  <SCORE.SYSTEM.CONST>
0

>  <SCORE.SYSTEM.DIHEDRAL>
0

>  <SCORE.SYSTEM.SOLV>
0

>  <SCORE.SYSTEM.norm>
0

>  <SCORE.heavy>
14

>  <SCORE.norm>
-0.584647

>  <RMSD>
4.951

$$$$
ligand
 OpenBabel11021811493D
libRbt.so/2013.1/901 2013/11/27
 14 13  0  0  0  0  0  0  0  0999 V2000
   55.4853   -0.2481    7.1996 N   0  0  0  0  0  0  0  0  0  0  0  0
   56.2865   -0.9454    6.2177 C   0  0  0  0  0  0  0  0  0  0  0  0
   57.7775   -0.6507    6.4813 C   0  0  0  0  0  0  0  0  0  0  0  0
   58.7338   -1.3420    5.4970 C   0  0  0  0  0  0  0  0  0  0  0  0
   58.5957   -0.9485    4.0865 N   0  0  0  0  0  0  0  0  0  0  0  0
   59.4259   -1.4887    3.0114 C   0  0  0  0  0  0  0  0  0  0  0  0
   59.2162   -0.7756    1.6795 C   0  0  0  0  0  0  0  0  0  0  0  0
   57.7760   -0.8521    1.1626 C   0  0  0  0  0  0  0  0  0  0  0  0
   57.6383   -0.2609   -0.2455 C   0  0  0  0  0  0  0  0  0  0  0  0
   57.9357    1.1692   -0.2012 N   0  0  0  0  0  0  0  0  0  0  0  0
   58.0000    2.0382   -1.3777 C   0  0  0  0  0  0  0  0  0  0  0  0
   56.7234    2.8670   -1.5764 C   0  0  0  0  0  0  0  0  0  0  0  0
   56.5212    3.8661   -0.4325 C   0  0  0  0  0  0  0  0  0  0  0  0
   55.2859    4.6121   -0.6535 N   0  0  0  0  0  0  0  0  0  0  0  0
  1  2  1  0  0  0  0
  2  3  1  0  0  0  0
  3  4  1  0  0  0  0
  4  5  1  0  0  0  0
  5  6  1  0  0  0  0
  6  7  1  0  0  0  0
  7  8  1  0  0  0  0
  8  9  1  0  0  0  0
  9 10  1  0  0  0  0
 10 11  1  0  0  0  0
 11 12  1  0  0  0  0
 12 13  1  0  0  0  0
 13 14  1  0  0  0  0
M  END
>  <CHROM.1>
179.93853907,62.45426111,179.37373916,-171.83899622,-59.80678614,-173.69883419
-64.64477136,175.26129486,100.28969085,65.16321994,-179.00630780,57.52895738
0.50263266,2.20332500,1.45468021,-0.81022003,1.99140506

>  <Name>
ligand

>  <RI>
0

>  <Rbt.Current_Directory>
/home/itssahil/PROJECTS/Mol_Feturizer/New_Systems/rnas/4FAW

>  <Rbt.Executable>
rbdock ($Id: //depot/dev/client3/rdock/2013.1/src/exe/rbdock.cxx#4 $)

>  <Rbt.Library>
libRbt.so (2013.1, Build901 2013/11/27)

>  <Rbt.Parameter_File>
/export/apps/rDock/src/rDock_2013.1_src/data/scripts/dock_solv.prm

>  <Rbt.Receptor>
prm/pocket_docking_6.prm

>  <SCORE>
-6.96321

>  <SCORE.INTER>
2.86275

>  <SCORE.INTER.CONST>
1

>  <SCORE.INTER.POLAR>
0

>  <SCORE.INTER.ROT>
11

>  <SCORE.INTER.SOLV>
7.36112

>  <SCORE.INTER.VDW>
-11.4785

>  <SCORE.INTER.norm>
0.204482

>  <SCORE.INTRA>
-9.82596

>  <SCORE.INTRA.DIHEDRAL>
-17.7467

>  <SCORE.INTRA.DIHEDRAL.0>
19.1003

>  <SCORE.INTRA.POLAR>
0

>  <SCORE.INTRA.POLAR.0>
0

>  <SCORE.INTRA.REPUL>
0

>  <SCORE.INTRA.REPUL.0>
0

>  <SCORE.INTRA.SOLV>
-0.106337

>  <SCORE.INTRA.SOLV.lig_0>
-47.5333

>  <SCORE.INTRA.VDW>
-0.899444

>  <SCORE.INTRA.VDW.0>
-0.287413

>  <SCORE.INTRA.norm>
-0.701854

>  <SCORE.RESTR>
0

>  <SCORE.RESTR.CAVITY>
0

>  <SCORE.RESTR.norm>
0

>  <SCORE.SYSTEM>
0

>  <SCORE.SYSTEM.CONST>
0

>  <SCORE.SYSTEM.DIHEDRAL>
0

>  <SCORE.SYSTEM.SOLV>
0

>  <SCORE.SYSTEM.norm>
0

>  <SCORE.heavy>
14

>  <SCORE.norm>
-0.497372

>  <RMSD>
4.966

$$$$
ligand
 OpenBabel11021811493D
libRbt.so/2013.1/901 2013/11/27
 14 13  0  0  0  0  0  0  0  0999 V2000
   60.9338   -3.1841    5.7159 N   0  0  0  0  0  0  0  0  0  0  0  0
   59.9068   -2.8607    4.7499 C   0  0  0  0  0  0  0  0  0  0  0  0
   60.3259   -3.4013    3.3673 C   0  0  0  0  0  0  0  0  0  0  0  0
   59.3756   -3.0034    2.2273 C   0  0  0  0  0  0  0  0  0  0  0  0
   59.2472   -1.5601    1.9748 N   0  0  0  0  0  0  0  0  0  0  0  0
   58.5739   -1.0009    0.8039 C   0  0  0  0  0  0  0  0  0  0  0  0
   57.0579   -1.1601    0.8543 C   0  0  0  0  0  0  0  0  0  0  0  0
   56.4165   -0.5380    2.0989 C   0  0  0  0  0  0  0  0  0  0  0  0
   54.8860   -0.6199    2.0590 C   0  0  0  0  0  0  0  0  0  0  0  0
   54.3375   -0.0241    3.2754 N   0  0  0  0  0  0  0  0  0  0  0  0
   54.3434    1.4100    3.5703 C   0  0  0  0  0  0  0  0  0  0  0  0
   53.4216    2.2128    2.6419 C   0  0  0  0  0  0  0  0  0  0  0  0
   53.5388    3.7182    2.9024 C   0  0  0  0  0  0  0  0  0  0  0  0
   54.8823    4.1676    2.5500 N   0  0  0  0  0  0  0  0  0  0  0  0
  1  2  1  0  0  0  0
  2  3  1  0  0  0  0
  3  4  1  0  0  0  0
  4  5  1  0  0  0  0
  5  6  1  0  0  0  0
  6  7  1  0  0  0  0
  7  8  1  0  0  0  0
  8  9  1  0  0  0  0
  9 10  1  0  0  0  0
 10 11  1  0  0  0  0
 11 12  1  0  0  0  0
 12 13  1  0  0  0  0
 13 14  1  0  0  0  0
M  END
>  <CHROM.1>
-174.51043818,61.65398993,169.44595628,71.92915903,56.99193878,175.45481307
179.43696633,71.34414136,68.04278373,-175.36389868,65.31474275,56.94605553
-0.41754455,2.77056058,-0.01723494,-0.73687165,1.39207582

>  <Name>
ligand

>  <RI>
0

>  <Rbt.Current_Directory>
/home/itssahil/PROJECTS/Mol_Feturizer/New_Systems/rnas/4FAW

>  <Rbt.Executable>
rbdock ($Id: //depot/dev/client3/rdock/2013.1/src/exe/rbdock.cxx#4 $)

>  <Rbt.Library>
libRbt.so (2013.1, Build901 2013/11/27)

>  <Rbt.Parameter_File>
/export/apps/rDock/src/rDock_2013.1_src/data/scripts/dock_solv.prm

>  <Rbt.Receptor>
prm/pocket_docking_4.prm

>  <SCORE>
-6.60446

>  <SCORE.INTER>
2.86137

>  <SCORE.INTER.CONST>
1

>  <SCORE.INTER.POLAR>
0

>  <SCORE.INTER.ROT>
11

>  <SCORE.INTER.SOLV>
10.0972

>  <SCORE.INTER.VDW>
-12.3915

>  <SCORE.INTER.norm>
0.204384

>  <SCORE.INTRA>
-9.46583

>  <SCORE.INTRA.DIHEDRAL>
-18.3103

>  <SCORE.INTRA.DIHEDRAL.0>
19.1003

>  <SCORE.INTRA.POLAR>
0

>  <SCORE.INTRA.POLAR.0>
0

>  <SCORE.INTRA.REPUL>
0

>  <SCORE.INTRA.REPUL.0>
0

>  <SCORE.INTRA.SOLV>
0.0114944

>  <SCORE.INTRA.SOLV.lig_0>
-47.5333

>  <SCORE.INTRA.VDW>
-0.316443

>  <SCORE.INTRA.VDW.0>
-0.287413

>  <SCORE.INTRA.norm>
-0.676131

>  <SCORE.RESTR>
0

>  <SCORE.RESTR.CAVITY>
0

>  <SCORE.RESTR.norm>
0

>  <SCORE.SYSTEM>
0

>  <SCORE.SYSTEM.CONST>
0

>  <SCORE.SYSTEM.DIHEDRAL>
0

>  <SCORE.SYSTEM.SOLV>
0

>  <SCORE.SYSTEM.norm>
0

>  <SCORE.heavy>
14

>  <SCORE.norm>
-0.471747

>  <RMSD>
4.988

$$$$
ligand
 OpenBabel11021811493D
libRbt.so/2013.1/901 2013/11/27
 14 13  0  0  0  0  0  0  0  0999 V2000
   56.9195    0.2130    1.7082 N   0  0  0  0  0  0  0  0  0  0  0  0
   55.7709   -0.5494    2.1461 C   0  0  0  0  0  0  0  0  0  0  0  0
   54.5673   -0.2135    1.2417 C   0  0  0  0  0  0  0  0  0  0  0  0
   54.1102    1.2510    1.3293 C   0  0  0  0  0  0  0  0  0  0  0  0
   52.8645    1.5767    0.6182 N   0  0  0  0  0  0  0  0  0  0  0  0
   52.8270    2.1548   -0.7239 C   0  0  0  0  0  0  0  0  0  0  0  0
   51.7747    1.5122   -1.6216 C   0  0  0  0  0  0  0  0  0  0  0  0
   51.9868    0.0103   -1.8378 C   0  0  0  0  0  0  0  0  0  0  0  0
   50.9950   -0.5703   -2.8527 C   0  0  0  0  0  0  0  0  0  0  0  0
   51.1767    0.0942   -4.1416 N   0  0  0  0  0  0  0  0  0  0  0  0
   50.8241   -0.4958   -5.4342 C   0  0  0  0  0  0  0  0  0  0  0  0
   49.3381   -0.8670   -5.5341 C   0  0  0  0  0  0  0  0  0  0  0  0
   49.0285   -1.5869   -6.8507 C   0  0  0  0  0  0  0  0  0  0  0  0
   47.5991   -1.8758   -6.9204 N   0  0  0  0  0  0  0  0  0  0  0  0
  1  2  1  0  0  0  0
  2  3  1  0  0  0  0
  3  4  1  0  0  0  0
  4  5  1  0  0  0  0
  5  6  1  0  0  0  0
  6  7  1  0  0  0  0
  7  8  1  0  0  0  0
  8  9  1  0  0  0  0
  9 10  1  0  0  0  0
 10 11  1  0  0  0  0
 11 12  1  0  0  0  0
 12 13  1  0  0  0  0
 13 14  1  0  0  0  0
M  END
>  <CHROM.1>
-63.75746073,-172.51776795,-96.99633720,136.82340210,-60.24849919,-174.33070122
60.68368909,155.04818533,58.91936070,-175.24355722,-177.98531812,52.12730670
0.04669675,-2.06234162,-0.62259589,0.72374601,-2.53822196

>  <Name>
ligand

>  <RI>
0

>  <Rbt.Current_Directory>
/home/itssahil/PROJECTS/Mol_Feturizer/New_Systems/rnas/4FAW

>  <Rbt.Executable>
rbdock ($Id: //depot/dev/client3/rdock/2013.1/src/exe/rbdock.cxx#4 $)

>  <Rbt.Library>
libRbt.so (2013.1, Build901 2013/11/27)

>  <Rbt.Parameter_File>
/export/apps/rDock/src/rDock_2013.1_src/data/scripts/dock_solv.prm

>  <Rbt.Receptor>
prm/pocket_docking_7.prm

>  <SCORE>
-7.94537

>  <SCORE.INTER>
0.744907

>  <SCORE.INTER.CONST>
1

>  <SCORE.INTER.POLAR>
0

>  <SCORE.INTER.ROT>
11

>  <SCORE.INTER.SOLV>
9.63293

>  <SCORE.INTER.VDW>
-13.6477

>  <SCORE.INTER.norm>
0.0532076

>  <SCORE.INTRA>
-8.69028

>  <SCORE.INTRA.DIHEDRAL>
-16.3606

>  <SCORE.INTRA.DIHEDRAL.0>
19.1003

>  <SCORE.INTRA.POLAR>
0

>  <SCORE.INTRA.POLAR.0>
0

>  <SCORE.INTRA.REPUL>
0

>  <SCORE.INTRA.REPUL.0>
0

>  <SCORE.INTRA.SOLV>
0.0114842

>  <SCORE.INTRA.SOLV.lig_0>
-47.5333

>  <SCORE.INTRA.VDW>
-0.515696

>  <SCORE.INTRA.VDW.0>
-0.287413

>  <SCORE.INTRA.norm>
-0.620734

>  <SCORE.RESTR>
0

>  <SCORE.RESTR.CAVITY>
0

>  <SCORE.RESTR.norm>
0

>  <SCORE.SYSTEM>
0

>  <SCORE.SYSTEM.CONST>
0

>  <SCORE.SYSTEM.DIHEDRAL>
0

>  <SCORE.SYSTEM.SOLV>
0

>  <SCORE.SYSTEM.norm>
0

>  <SCORE.heavy>
14

>  <SCORE.norm>
-0.567526

>  <RMSD>
4.989

$$$$
ligand
 OpenBabel11021811493D
libRbt.so/2013.1/901 2013/11/27
 14 13  0  0  0  0  0  0  0  0999 V2000
   61.6801    0.1199    7.3740 N   0  0  0  0  0  0  0  0  0  0  0  0
   61.0702   -0.0848    6.0786 C   0  0  0  0  0  0  0  0  0  0  0  0
   62.0703   -0.8158    5.1594 C   0  0  0  0  0  0  0  0  0  0  0  0
   61.5102   -1.1495    3.7680 C   0  0  0  0  0  0  0  0  0  0  0  0
   60.3294   -2.0263    3.7462 N   0  0  0  0  0  0  0  0  0  0  0  0
   59.5882   -2.3544    2.5297 C   0  0  0  0  0  0  0  0  0  0  0  0
   58.8219   -1.1657    1.9587 C   0  0  0  0  0  0  0  0  0  0  0  0
   58.0366   -1.4963    0.6853 C   0  0  0  0  0  0  0  0  0  0  0  0
   57.2579   -0.2848    0.1592 C   0  0  0  0  0  0  0  0  0  0  0  0
   58.1982    0.7688   -0.2170 N   0  0  0  0  0  0  0  0  0  0  0  0
   57.8963    2.2008   -0.1771 C   0  0  0  0  0  0  0  0  0  0  0  0
   57.0475    2.6640   -1.3692 C   0  0  0  0  0  0  0  0  0  0  0  0
   56.7443    4.1639   -1.2909 C   0  0  0  0  0  0  0  0  0  0  0  0
   55.7961    4.5219   -2.3416 N   0  0  0  0  0  0  0  0  0  0  0  0
  1  2  1  0  0  0  0
  2  3  1  0  0  0  0
  3  4  1  0  0  0  0
  4  5  1  0  0  0  0
  5  6  1  0  0  0  0
  6  7  1  0  0  0  0
  7  8  1  0  0  0  0
  8  9  1  0  0  0  0
  9 10  1  0  0  0  0
 10 11  1  0  0  0  0
 11 12  1  0  0  0  0
 12 13  1  0  0  0  0
 13 14  1  0  0  0  0
M  END
>  <CHROM.1>
177.30317139,-60.42111856,174.30757998,-69.20783891,-179.81888574,178.83026046
63.10966111,-151.04758633,-78.02099070,179.67263007,-172.63547147,59.00336363
0.36136120,1.86154850,-0.34517897,-1.00654051,0.13143745

>  <Name>
ligand

>  <RI>
0

>  <Rbt.Current_Directory>
/home/itssahil/PROJECTS/Mol_Feturizer/New_Systems/rnas/4FAW

>  <Rbt.Executable>
rbdock ($Id: //depot/dev/client3/rdock/2013.1/src/exe/rbdock.cxx#4 $)

>  <Rbt.Library>
libRbt.so (2013.1, Build901 2013/11/27)

>  <Rbt.Parameter_File>
/export/apps/rDock/src/rDock_2013.1_src/data/scripts/dock_solv.prm

>  <Rbt.Receptor>
prm/pocket_docking_6.prm

>  <SCORE>
-10.1297

>  <SCORE.INTER>
-0.169402

>  <SCORE.INTER.CONST>
1

>  <SCORE.INTER.POLAR>
0

>  <SCORE.INTER.ROT>
11

>  <SCORE.INTER.SOLV>
12.8734

>  <SCORE.INTER.VDW>
-15.3374

>  <SCORE.INTER.norm>
-0.0121001

>  <SCORE.INTRA>
-9.96025

>  <SCORE.INTRA.DIHEDRAL>
-17.9169

>  <SCORE.INTRA.DIHEDRAL.0>
19.1003

>  <SCORE.INTRA.POLAR>
0

>  <SCORE.INTRA.POLAR.0>
0

>  <SCORE.INTRA.REPUL>
0

>  <SCORE.INTRA.REPUL.0>
0

>  <SCORE.INTRA.SOLV>
-0.765006

>  <SCORE.INTRA.SOLV.lig_0>
-47.5333

>  <SCORE.INTRA.VDW>
-0.619279

>  <SCORE.INTRA.VDW.0>
-0.287413

>  <SCORE.INTRA.norm>
-0.711447

>  <SCORE.RESTR>
0

>  <SCORE.RESTR.CAVITY>
0

>  <SCORE.RESTR.norm>
0

>  <SCORE.SYSTEM>
0

>  <SCORE.SYSTEM.CONST>
0

>  <SCORE.SYSTEM.DIHEDRAL>
0

>  <SCORE.SYSTEM.SOLV>
0

>  <SCORE.SYSTEM.norm>
0

>  <SCORE.heavy>
14

>  <SCORE.norm>
-0.723547

>  <RMSD>
5.009

$$$$
ligand
 OpenBabel11021811493D
libRbt.so/2013.1/901 2013/11/27
 14 13  0  0  0  0  0  0  0  0999 V2000
   59.9993   -2.7776    4.5964 N   0  0  0  0  0  0  0  0  0  0  0  0
   59.8979   -1.7117    3.6239 C   0  0  0  0  0  0  0  0  0  0  0  0
   61.2052   -0.8930    3.6339 C   0  0  0  0  0  0  0  0  0  0  0  0
   61.5193   -0.2352    4.9866 C   0  0  0  0  0  0  0  0  0  0  0  0
   60.5192    0.7239    5.4800 N   0  0  0  0  0  0  0  0  0  0  0  0
   60.5895    2.1633    5.2346 C   0  0  0  0  0  0  0  0  0  0  0  0
   59.4861    2.6657    4.3092 C   0  0  0  0  0  0  0  0  0  0  0  0
   59.6205    2.1668    2.8668 C   0  0  0  0  0  0  0  0  0  0  0  0
   58.5530    2.7718    1.9473 C   0  0  0  0  0  0  0  0  0  0  0  0
   58.8152    2.3652    0.5683 N   0  0  0  0  0  0  0  0  0  0  0  0
   57.8457    1.6860   -0.2931 C   0  0  0  0  0  0  0  0  0  0  0  0
   57.3618    2.5655   -1.4544 C   0  0  0  0  0  0  0  0  0  0  0  0
   56.6007    3.7943   -0.9461 C   0  0  0  0  0  0  0  0  0  0  0  0
   56.0144    4.5038   -2.0793 N   0  0  0  0  0  0  0  0  0  0  0  0
  1  2  1  0  0  0  0
  2  3  1  0  0  0  0
  3  4  1  0  0  0  0
  4  5  1  0  0  0  0
  5  6  1  0  0  0  0
  6  7  1  0  0  0  0
  7  8  1  0  0  0  0
  8  9  1  0  0  0  0
  9 10  1  0  0  0  0
 10 11  1  0  0  0  0
 11 12  1  0  0  0  0
 12 13  1  0  0  0  0
 13 14  1  0  0  0  0
M  END
>  <CHROM.1>
-60.60767587,-60.52134233,-93.26503628,111.95489950,-68.05712642,-175.93549836
174.36396068,124.74894255,111.49213317,-63.71166373,-172.72562141,59.14497591
1.41356782,2.31965499,0.28077786,1.06682053,-2.86862183

>  <Name>
ligand

>  <RI>
0

>  <Rbt.Current_Directory>
/home/itssahil/PROJECTS/Mol_Feturizer/New_Systems/rnas/4FAW

>  <Rbt.Executable>
rbdock ($Id: //depot/dev/client3/rdock/2013.1/src/exe/rbdock.cxx#4 $)

>  <Rbt.Library>
libRbt.so (2013.1, Build901 2013/11/27)

>  <Rbt.Parameter_File>
/export/apps/rDock/src/rDock_2013.1_src/data/scripts/dock_solv.prm

>  <Rbt.Receptor>
prm/pocket_docking_4.prm

>  <SCORE>
-7.16646

>  <SCORE.INTER>
0.835561

>  <SCORE.INTER.CONST>
1

>  <SCORE.INTER.POLAR>
0

>  <SCORE.INTER.ROT>
11

>  <SCORE.INTER.SOLV>
9.58094

>  <SCORE.INTER.VDW>
-13.5699

>  <SCORE.INTER.norm>
0.0596829

>  <SCORE.INTRA>
-8.00202

>  <SCORE.INTRA.DIHEDRAL>
-14.2452

>  <SCORE.INTRA.DIHEDRAL.0>
19.1003

>  <SCORE.INTRA.POLAR>
0

>  <SCORE.INTRA.POLAR.0>
0

>  <SCORE.INTRA.REPUL>
0

>  <SCORE.INTRA.REPUL.0>
0

>  <SCORE.INTRA.SOLV>
0.921084

>  <SCORE.INTRA.SOLV.lig_0>
-47.5333

>  <SCORE.INTRA.VDW>
-1.33995

>  <SCORE.INTRA.VDW.0>
-0.287413

>  <SCORE.INTRA.norm>
-0.571573

>  <SCORE.RESTR>
0

>  <SCORE.RESTR.CAVITY>
0

>  <SCORE.RESTR.norm>
0

>  <SCORE.SYSTEM>
0

>  <SCORE.SYSTEM.CONST>
0

>  <SCORE.SYSTEM.DIHEDRAL>
0

>  <SCORE.SYSTEM.SOLV>
0

>  <SCORE.SYSTEM.norm>
0

>  <SCORE.heavy>
14

>  <SCORE.norm>
-0.51189

>  <RMSD>
5.045

$$$$
ligand
 OpenBabel11021811493D
libRbt.so/2013.1/901 2013/11/27
 14 13  0  0  0  0  0  0  0  0999 V2000
   56.5840    3.3723    0.2793 N   0  0  0  0  0  0  0  0  0  0  0  0
   56.7479    3.5734   -1.1437 C   0  0  0  0  0  0  0  0  0  0  0  0
   58.0143    2.8301   -1.6161 C   0  0  0  0  0  0  0  0  0  0  0  0
   57.8984    1.2991   -1.5558 C   0  0  0  0  0  0  0  0  0  0  0  0
   57.6850    0.7251   -0.2184 N   0  0  0  0  0  0  0  0  0  0  0  0
   57.9310   -0.6785    0.1078 C   0  0  0  0  0  0  0  0  0  0  0  0
   57.3006   -1.1035    1.4300 C   0  0  0  0  0  0  0  0  0  0  0  0
   57.8759   -0.3721    2.6472 C   0  0  0  0  0  0  0  0  0  0  0  0
   59.3097   -0.8161    2.9601 C   0  0  0  0  0  0  0  0  0  0  0  0
   59.7851   -0.1137    4.1501 N   0  0  0  0  0  0  0  0  0  0  0  0
   61.1571   -0.1786    4.6569 C   0  0  0  0  0  0  0  0  0  0  0  0
   61.3379    0.5711    5.9842 C   0  0  0  0  0  0  0  0  0  0  0  0
   61.0984    2.0749    5.8144 C   0  0  0  0  0  0  0  0  0  0  0  0
   59.6631    2.3318    5.7438 N   0  0  0  0  0  0  0  0  0  0  0  0
  1  2  1  0  0  0  0
  2  3  1  0  0  0  0
  3  4  1  0  0  0  0
  4  5  1  0  0  0  0
  5  6  1  0  0  0  0
  6  7  1  0  0  0  0
  7  8  1  0  0  0  0
  8  9  1  0  0  0  0
  9 10  1  0  0  0  0
 10 11  1  0  0  0  0
 11 12  1  0  0  0  0
 12 13  1  0  0  0  0
 13 14  1  0  0  0  0
M  END
>  <CHROM.1>
68.33720419,-61.98166508,-161.66208524,-164.96847293,-63.62117956,-70.81512101
-178.34587993,-173.07005323,-175.44376634,-64.45454137,77.31902386,58.74215104
0.96511937,2.08839670,-2.97275212,1.08267800,-3.13707373

>  <Name>
ligand

>  <RI>
0

>  <Rbt.Current_Directory>
/home/itssahil/PROJECTS/Mol_Feturizer/New_Systems/rnas/4FAW

>  <Rbt.Executable>
rbdock ($Id: //depot/dev/client3/rdock/2013.1/src/exe/rbdock.cxx#4 $)

>  <Rbt.Library>
libRbt.so (2013.1, Build901 2013/11/27)

>  <Rbt.Parameter_File>
/export/apps/rDock/src/rDock_2013.1_src/data/scripts/dock_solv.prm

>  <Rbt.Receptor>
prm/pocket_docking_7.prm

>  <SCORE>
-9.10572

>  <SCORE.INTER>
-2.30547

>  <SCORE.INTER.CONST>
1

>  <SCORE.INTER.POLAR>
0

>  <SCORE.INTER.ROT>
11

>  <SCORE.INTER.SOLV>
10.563

>  <SCORE.INTER.VDW>
-15.9913

>  <SCORE.INTER.norm>
-0.164677

>  <SCORE.INTRA>
-6.80025

>  <SCORE.INTRA.DIHEDRAL>
-16.6669

>  <SCORE.INTRA.DIHEDRAL.0>
19.1003

>  <SCORE.INTRA.POLAR>
0

>  <SCORE.INTRA.POLAR.0>
0

>  <SCORE.INTRA.REPUL>
0

>  <SCORE.INTRA.REPUL.0>
0

>  <SCORE.INTRA.SOLV>
4.80194

>  <SCORE.INTRA.SOLV.lig_0>
-47.5333

>  <SCORE.INTRA.VDW>
-0.867795

>  <SCORE.INTRA.VDW.0>
-0.287413

>  <SCORE.INTRA.norm>
-0.485732

>  <SCORE.RESTR>
0

>  <SCORE.RESTR.CAVITY>
0

>  <SCORE.RESTR.norm>
0

>  <SCORE.SYSTEM>
0

>  <SCORE.SYSTEM.CONST>
0

>  <SCORE.SYSTEM.DIHEDRAL>
0

>  <SCORE.SYSTEM.SOLV>
0

>  <SCORE.SYSTEM.norm>
0

>  <SCORE.heavy>
14

>  <SCORE.norm>
-0.650409

>  <RMSD>
5.047

$$$$
ligand
 OpenBabel11021811493D
libRbt.so/2013.1/901 2013/11/27
 14 13  0  0  0  0  0  0  0  0999 V2000
   60.1197    2.1932    5.9576 N   0  0  0  0  0  0  0  0  0  0  0  0
   61.0806    1.1579    5.6461 C   0  0  0  0  0  0  0  0  0  0  0  0
   60.5131    0.2631    4.5251 C   0  0  0  0  0  0  0  0  0  0  0  0
   61.4153   -0.9254    4.1581 C   0  0  0  0  0  0  0  0  0  0  0  0
   60.9684   -1.7408    3.0184 N   0  0  0  0  0  0  0  0  0  0  0  0
   59.7231   -2.5064    3.0109 C   0  0  0  0  0  0  0  0  0  0  0  0
   58.8597   -2.2298    1.7844 C   0  0  0  0  0  0  0  0  0  0  0  0
   58.4385   -0.7629    1.6486 C   0  0  0  0  0  0  0  0  0  0  0  0
   57.6019   -0.5194    0.3870 C   0  0  0  0  0  0  0  0  0  0  0  0
   57.1977    0.8841    0.3378 N   0  0  0  0  0  0  0  0  0  0  0  0
   58.0740    1.9842   -0.0689 C   0  0  0  0  0  0  0  0  0  0  0  0
   57.8442    2.4229   -1.5218 C   0  0  0  0  0  0  0  0  0  0  0  0
   56.4598    3.0539   -1.7033 C   0  0  0  0  0  0  0  0  0  0  0  0
   56.4206    4.3418   -1.0168 N   0  0  0  0  0  0  0  0  0  0  0  0
  1  2  1  0  0  0  0
  2  3  1  0  0  0  0
  3  4  1  0  0  0  0
  4  5  1  0  0  0  0
  5  6  1  0  0  0  0
  6  7  1  0  0  0  0
  7  8  1  0  0  0  0
  8  9  1  0  0  0  0
  9 10  1  0  0  0  0
 10 11  1  0  0  0  0
 11 12  1  0  0  0  0
 12 13  1  0  0  0  0
 13 14  1  0  0  0  0
M  END
>  <CHROM.1>
-176.83398135,-175.08644009,-63.49711248,128.57735564,-59.84523834,178.59960534
178.22583738,77.68269677,99.72308100,66.64625827,69.32316965,58.90840966
0.54367732,1.86872826,-0.19955361,-1.03017291,0.28010828

>  <Name>
ligand

>  <RI>
0

>  <Rbt.Current_Directory>
/home/itssahil/PROJECTS/Mol_Feturizer/New_Systems/rnas/4FAW

>  <Rbt.Executable>
rbdock ($Id: //depot/dev/client3/rdock/2013.1/src/exe/rbdock.cxx#4 $)

>  <Rbt.Library>
libRbt.so (2013.1, Build901 2013/11/27)

>  <Rbt.Parameter_File>
/export/apps/rDock/src/rDock_2013.1_src/data/scripts/dock_solv.prm

>  <Rbt.Receptor>
prm/pocket_docking_6.prm

>  <SCORE>
-9.12326

>  <SCORE.INTER>
-0.569304

>  <SCORE.INTER.CONST>
1

>  <SCORE.INTER.POLAR>
0

>  <SCORE.INTER.ROT>
11

>  <SCORE.INTER.SOLV>
12.6009

>  <SCORE.INTER.VDW>
-15.5132

>  <SCORE.INTER.norm>
-0.0406645

>  <SCORE.INTRA>
-8.55395

>  <SCORE.INTRA.DIHEDRAL>
-16.1813

>  <SCORE.INTRA.DIHEDRAL.0>
19.1003

>  <SCORE.INTRA.POLAR>
0

>  <SCORE.INTRA.POLAR.0>
0

>  <SCORE.INTRA.REPUL>
0

>  <SCORE.INTRA.REPUL.0>
0

>  <SCORE.INTRA.SOLV>
0.466244

>  <SCORE.INTRA.SOLV.lig_0>
-47.5333

>  <SCORE.INTRA.VDW>
-0.696399

>  <SCORE.INTRA.VDW.0>
-0.287413

>  <SCORE.INTRA.norm>
-0.610997

>  <SCORE.RESTR>
0

>  <SCORE.RESTR.CAVITY>
0

>  <SCORE.RESTR.norm>
0

>  <SCORE.SYSTEM>
0

>  <SCORE.SYSTEM.CONST>
0

>  <SCORE.SYSTEM.DIHEDRAL>
0

>  <SCORE.SYSTEM.SOLV>
0

>  <SCORE.SYSTEM.norm>
0

>  <SCORE.heavy>
14

>  <SCORE.norm>
-0.651661

>  <RMSD>
5.075

$$$$
ligand
 OpenBabel11021811493D
libRbt.so/2013.1/901 2013/11/27
 14 13  0  0  0  0  0  0  0  0999 V2000
   55.6982    4.1294   -0.8033 N   0  0  0  0  0  0  0  0  0  0  0  0
   56.2891    3.0983   -1.6280 C   0  0  0  0  0  0  0  0  0  0  0  0
   57.8214    3.1279   -1.4527 C   0  0  0  0  0  0  0  0  0  0  0  0
   58.2996    2.6768   -0.0639 C   0  0  0  0  0  0  0  0  0  0  0  0
   58.1951    1.2359    0.2126 N   0  0  0  0  0  0  0  0  0  0  0  0
   57.5839    0.6869    1.4217 C   0  0  0  0  0  0  0  0  0  0  0  0
   58.4235    0.9195    2.6736 C   0  0  0  0  0  0  0  0  0  0  0  0
   58.4984    2.3899    3.0977 C   0  0  0  0  0  0  0  0  0  0  0  0
   59.0656    2.5520    4.5129 C   0  0  0  0  0  0  0  0  0  0  0  0
   60.4480    2.0789    4.5374 N   0  0  0  0  0  0  0  0  0  0  0  0
   61.2164    1.8302    5.7586 C   0  0  0  0  0  0  0  0  0  0  0  0
   60.8710    0.4871    6.4165 C   0  0  0  0  0  0  0  0  0  0  0  0
   61.7096    0.2493    7.6766 C   0  0  0  0  0  0  0  0  0  0  0  0
   61.3319   -1.0271    8.2761 N   0  0  0  0  0  0  0  0  0  0  0  0
  1  2  1  0  0  0  0
  2  3  1  0  0  0  0
  3  4  1  0  0  0  0
  4  5  1  0  0  0  0
  5  6  1  0  0  0  0
  6  7  1  0  0  0  0
  7  8  1  0  0  0  0
  8  9  1  0  0  0  0
  9 10  1  0  0  0  0
 10 11  1  0  0  0  0
 11 12  1  0  0  0  0
 12 13  1  0  0  0  0
 13 14  1  0  0  0  0
M  END
>  <CHROM.1>
68.82716336,72.68408742,-130.47694824,-70.91332128,68.52518322,166.85820426
63.96087780,-167.17238153,79.24639969,179.03025961,179.14728558,58.96084999
1.74540880,2.90249935,-2.82876852,1.07321091,3.09970206

>  <Name>
ligand

>  <RI>
0

>  <Rbt.Current_Directory>
/home/itssahil/PROJECTS/Mol_Feturizer/New_Systems/rnas/4FAW

>  <Rbt.Executable>
rbdock ($Id: //depot/dev/client3/rdock/2013.1/src/exe/rbdock.cxx#4 $)

>  <Rbt.Library>
libRbt.so (2013.1, Build901 2013/11/27)

>  <Rbt.Parameter_File>
/export/apps/rDock/src/rDock_2013.1_src/data/scripts/dock_solv.prm

>  <Rbt.Receptor>
prm/pocket_docking_6.prm

>  <SCORE>
-6.51675

>  <SCORE.INTER>
1.41237

>  <SCORE.INTER.CONST>
1

>  <SCORE.INTER.POLAR>
0

>  <SCORE.INTER.ROT>
11

>  <SCORE.INTER.SOLV>
7.982

>  <SCORE.INTER.VDW>
-12.6524

>  <SCORE.INTER.norm>
0.100884

>  <SCORE.INTRA>
-7.92912

>  <SCORE.INTRA.DIHEDRAL>
-15.5746

>  <SCORE.INTRA.DIHEDRAL.0>
19.1003

>  <SCORE.INTRA.POLAR>
0

>  <SCORE.INTRA.POLAR.0>
0

>  <SCORE.INTRA.REPUL>
0

>  <SCORE.INTRA.REPUL.0>
0

>  <SCORE.INTRA.SOLV>
0.698366

>  <SCORE.INTRA.SOLV.lig_0>
-47.5333

>  <SCORE.INTRA.VDW>
-0.491007

>  <SCORE.INTRA.VDW.0>
-0.287413

>  <SCORE.INTRA.norm>
-0.566366

>  <SCORE.RESTR>
0

>  <SCORE.RESTR.CAVITY>
0

>  <SCORE.RESTR.norm>
0

>  <SCORE.SYSTEM>
0

>  <SCORE.SYSTEM.CONST>
0

>  <SCORE.SYSTEM.DIHEDRAL>
0

>  <SCORE.SYSTEM.SOLV>
0

>  <SCORE.SYSTEM.norm>
0

>  <SCORE.heavy>
14

>  <SCORE.norm>
-0.465482

>  <RMSD>
5.111

$$$$
ligand
 OpenBabel11021811493D
libRbt.so/2013.1/901 2013/11/27
 14 13  0  0  0  0  0  0  0  0999 V2000
   58.8809    2.6431    4.9123 N   0  0  0  0  0  0  0  0  0  0  0  0
   59.2107    1.2554    4.6722 C   0  0  0  0  0  0  0  0  0  0  0  0
   60.6895    1.0169    5.0407 C   0  0  0  0  0  0  0  0  0  0  0  0
   61.1576   -0.4324    4.8372 C   0  0  0  0  0  0  0  0  0  0  0  0
   61.2414   -0.8884    3.4412 N   0  0  0  0  0  0  0  0  0  0  0  0
   60.1758   -1.6278    2.7668 C   0  0  0  0  0  0  0  0  0  0  0  0
   59.3146   -0.7468    1.8677 C   0  0  0  0  0  0  0  0  0  0  0  0
   58.2549   -1.5241    1.0801 C   0  0  0  0  0  0  0  0  0  0  0  0
   57.3753   -0.5984    0.2314 C   0  0  0  0  0  0  0  0  0  0  0  0
   58.2013    0.0656   -0.7749 N   0  0  0  0  0  0  0  0  0  0  0  0
   57.7963    1.2566   -1.5238 C   0  0  0  0  0  0  0  0  0  0  0  0
   57.4429    2.4410   -0.6135 C   0  0  0  0  0  0  0  0  0  0  0  0
   56.8693    3.6126   -1.4173 C   0  0  0  0  0  0  0  0  0  0  0  0
   56.3636    4.6285   -0.4988 N   0  0  0  0  0  0  0  0  0  0  0  0
  1  2  1  0  0  0  0
  2  3  1  0  0  0  0
  3  4  1  0  0  0  0
  4  5  1  0  0  0  0
  5  6  1  0  0  0  0
  6  7  1  0  0  0  0
  7  8  1  0  0  0  0
  8  9  1  0  0  0  0
  9 10  1  0  0  0  0
 10 11  1  0  0  0  0
 11 12  1  0  0  0  0
 12 13  1  0  0  0  0
 13 14  1  0  0  0  0
M  END
>  <CHROM.1>
179.55432573,68.53414861,-95.76526657,99.89926958,176.01675986,177.76241646
63.39944737,-163.38369560,57.60277572,-173.36332675,171.50123079,58.78390153
0.79267044,1.71578915,0.16424778,-1.04911805,0.64286067

>  <Name>
ligand

>  <RI>
0

>  <Rbt.Current_Directory>
/home/itssahil/PROJECTS/Mol_Feturizer/New_Systems/rnas/4FAW

>  <Rbt.Executable>
rbdock ($Id: //depot/dev/client3/rdock/2013.1/src/exe/rbdock.cxx#4 $)

>  <Rbt.Library>
libRbt.so (2013.1, Build901 2013/11/27)

>  <Rbt.Parameter_File>
/export/apps/rDock/src/rDock_2013.1_src/data/scripts/dock_solv.prm

>  <Rbt.Receptor>
prm/pocket_docking_4.prm

>  <SCORE>
-9.13277

>  <SCORE.INTER>
0.249344

>  <SCORE.INTER.CONST>
1

>  <SCORE.INTER.POLAR>
0

>  <SCORE.INTER.ROT>
11

>  <SCORE.INTER.SOLV>
14.2126

>  <SCORE.INTER.VDW>
-15.5046

>  <SCORE.INTER.norm>
0.0178103

>  <SCORE.INTRA>
-9.38212

>  <SCORE.INTRA.DIHEDRAL>
-16.377

>  <SCORE.INTRA.DIHEDRAL.0>
19.1003

>  <SCORE.INTRA.POLAR>
0

>  <SCORE.INTRA.POLAR.0>
0

>  <SCORE.INTRA.REPUL>
0

>  <SCORE.INTRA.REPUL.0>
0

>  <SCORE.INTRA.SOLV>
-0.690931

>  <SCORE.INTRA.SOLV.lig_0>
-47.5333

>  <SCORE.INTRA.VDW>
-0.848168

>  <SCORE.INTRA.VDW.0>
-0.287413

>  <SCORE.INTRA.norm>
-0.670151

>  <SCORE.RESTR>
0

>  <SCORE.RESTR.CAVITY>
0

>  <SCORE.RESTR.norm>
0

>  <SCORE.SYSTEM>
0

>  <SCORE.SYSTEM.CONST>
0

>  <SCORE.SYSTEM.DIHEDRAL>
0

>  <SCORE.SYSTEM.SOLV>
0

>  <SCORE.SYSTEM.norm>
0

>  <SCORE.heavy>
14

>  <SCORE.norm>
-0.652341

>  <RMSD>
5.121

$$$$
ligand
 OpenBabel11021811493D
libRbt.so/2013.1/901 2013/11/27
 14 13  0  0  0  0  0  0  0  0999 V2000
   59.6218    2.3338    7.1558 N   0  0  0  0  0  0  0  0  0  0  0  0
   60.8283    2.1546    6.3783 C   0  0  0  0  0  0  0  0  0  0  0  0
   61.2854    0.6853    6.4870 C   0  0  0  0  0  0  0  0  0  0  0  0
   60.3101   -0.3202    5.8554 C   0  0  0  0  0  0  0  0  0  0  0  0
   60.1090   -0.1922    4.4040 N   0  0  0  0  0  0  0  0  0  0  0  0
   58.9179   -0.6745    3.7072 C   0  0  0  0  0  0  0  0  0  0  0  0
   58.9683   -0.4336    2.2019 C   0  0  0  0  0  0  0  0  0  0  0  0
   57.7141   -0.9101    1.4619 C   0  0  0  0  0  0  0  0  0  0  0  0
   57.8196   -0.6864   -0.0513 C   0  0  0  0  0  0  0  0  0  0  0  0
   57.8552    0.7483   -0.3271 N   0  0  0  0  0  0  0  0  0  0  0  0
   57.8902    1.3327   -1.6690 C   0  0  0  0  0  0  0  0  0  0  0  0
   57.8016    2.8651   -1.6539 C   0  0  0  0  0  0  0  0  0  0  0  0
   56.4411    3.3417   -1.1345 C   0  0  0  0  0  0  0  0  0  0  0  0
   56.3563    4.7937   -1.2603 N   0  0  0  0  0  0  0  0  0  0  0  0
  1  2  1  0  0  0  0
  2  3  1  0  0  0  0
  3  4  1  0  0  0  0
  4  5  1  0  0  0  0
  5  6  1  0  0  0  0
  6  7  1  0  0  0  0
  7  8  1  0  0  0  0
  8  9  1  0  0  0  0
  9 10  1  0  0  0  0
 10 11  1  0  0  0  0
 11 12  1  0  0  0  0
 12 13  1  0  0  0  0
 13 14  1  0  0  0  0
M  END
>  <CHROM.1>
65.33005995,63.28638718,-156.57274877,-179.25853570,-178.89262640,-178.40781651
-65.82077449,-177.01131592,175.07487996,-65.96973368,-174.54081961,58.70858584
1.07380291,2.25386119,0.07348085,-1.16543941,0.29466168

>  <Name>
ligand

>  <RI>
0

>  <Rbt.Current_Directory>
/home/itssahil/PROJECTS/Mol_Feturizer/New_Systems/rnas/4FAW

>  <Rbt.Executable>
rbdock ($Id: //depot/dev/client3/rdock/2013.1/src/exe/rbdock.cxx#4 $)

>  <Rbt.Library>
libRbt.so (2013.1, Build901 2013/11/27)

>  <Rbt.Parameter_File>
/export/apps/rDock/src/rDock_2013.1_src/data/scripts/dock_solv.prm

>  <Rbt.Receptor>
prm/pocket_docking_5.prm

>  <SCORE>
-10.1382

>  <SCORE.INTER>
-0.562341

>  <SCORE.INTER.CONST>
1

>  <SCORE.INTER.POLAR>
0

>  <SCORE.INTER.ROT>
11

>  <SCORE.INTER.SOLV>
13.3741

>  <SCORE.INTER.VDW>
-15.7663

>  <SCORE.INTER.norm>
-0.0401672

>  <SCORE.INTRA>
-9.57585

>  <SCORE.INTRA.DIHEDRAL>
-18.1394

>  <SCORE.INTRA.DIHEDRAL.0>
19.1003

>  <SCORE.INTRA.POLAR>
0

>  <SCORE.INTRA.POLAR.0>
0

>  <SCORE.INTRA.REPUL>
0

>  <SCORE.INTRA.REPUL.0>
0

>  <SCORE.INTRA.SOLV>
0.854861

>  <SCORE.INTRA.SOLV.lig_0>
-47.5333

>  <SCORE.INTRA.VDW>
-0.93357

>  <SCORE.INTRA.VDW.0>
-0.287413

>  <SCORE.INTRA.norm>
-0.683989

>  <SCORE.RESTR>
0

>  <SCORE.RESTR.CAVITY>
0

>  <SCORE.RESTR.norm>
0

>  <SCORE.SYSTEM>
0

>  <SCORE.SYSTEM.CONST>
0

>  <SCORE.SYSTEM.DIHEDRAL>
0

>  <SCORE.SYSTEM.SOLV>
0

>  <SCORE.SYSTEM.norm>
0

>  <SCORE.heavy>
14

>  <SCORE.norm>
-0.724156

>  <RMSD>
5.133

$$$$
ligand
 OpenBabel11021811493D
libRbt.so/2013.1/901 2013/11/27
 14 13  0  0  0  0  0  0  0  0999 V2000
   55.2546    5.0106   -1.0784 N   0  0  0  0  0  0  0  0  0  0  0  0
   56.4083    4.2773   -1.5511 C   0  0  0  0  0  0  0  0  0  0  0  0
   56.7439    3.1593   -0.5428 C   0  0  0  0  0  0  0  0  0  0  0  0
   57.9349    2.2815   -0.9576 C   0  0  0  0  0  0  0  0  0  0  0  0
   58.2475    1.1597   -0.0590 N   0  0  0  0  0  0  0  0  0  0  0  0
   57.5372   -0.1177   -0.0831 C   0  0  0  0  0  0  0  0  0  0  0  0
   58.2794   -1.2275    0.6544 C   0  0  0  0  0  0  0  0  0  0  0  0
   58.5379   -0.9159    2.1321 C   0  0  0  0  0  0  0  0  0  0  0  0
   59.1214   -2.1205    2.8801 C   0  0  0  0  0  0  0  0  0  0  0  0
   60.4180   -2.4674    2.3021 N   0  0  0  0  0  0  0  0  0  0  0  0
   61.0666   -3.7719    2.4470 C   0  0  0  0  0  0  0  0  0  0  0  0
   61.3656   -4.1293    3.9095 C   0  0  0  0  0  0  0  0  0  0  0  0
   62.3742   -3.1560    4.5284 C   0  0  0  0  0  0  0  0  0  0  0  0
   62.6832   -3.5799    5.8907 N   0  0  0  0  0  0  0  0  0  0  0  0
  1  2  1  0  0  0  0
  2  3  1  0  0  0  0
  3  4  1  0  0  0  0
  4  5  1  0  0  0  0
  5  6  1  0  0  0  0
  6  7  1  0  0  0  0
  7  8  1  0  0  0  0
  8  9  1  0  0  0  0
  9 10  1  0  0  0  0
 10 11  1  0  0  0  0
 11 12  1  0  0  0  0
 12 13  1  0  0  0  0
 13 14  1  0  0  0  0
M  END
>  <CHROM.1>
178.38991444,-177.00659828,81.27111683,164.07373454,59.15268388,172.67528210
62.47432527,-159.63803055,-61.02784028,-63.99874918,-176.81244659,58.99797983
-0.40000869,1.46218219,-2.57038104,0.92446502,-2.88124369

>  <Name>
ligand

>  <RI>
0

>  <Rbt.Current_Directory>
/home/itssahil/PROJECTS/Mol_Feturizer/New_Systems/rnas/4FAW

>  <Rbt.Executable>
rbdock ($Id: //depot/dev/client3/rdock/2013.1/src/exe/rbdock.cxx#4 $)

>  <Rbt.Library>
libRbt.so (2013.1, Build901 2013/11/27)

>  <Rbt.Parameter_File>
/export/apps/rDock/src/rDock_2013.1_src/data/scripts/dock_solv.prm

>  <Rbt.Receptor>
prm/pocket_docking_5.prm

>  <SCORE>
-9.31539

>  <SCORE.INTER>
0.271899

>  <SCORE.INTER.CONST>
1

>  <SCORE.INTER.POLAR>
0

>  <SCORE.INTER.ROT>
11

>  <SCORE.INTER.SOLV>
8.70401

>  <SCORE.INTER.VDW>
-13.6534

>  <SCORE.INTER.norm>
0.0194214

>  <SCORE.INTRA>
-9.58729

>  <SCORE.INTRA.DIHEDRAL>
-17.8671

>  <SCORE.INTRA.DIHEDRAL.0>
19.1003

>  <SCORE.INTRA.POLAR>
0

>  <SCORE.INTRA.POLAR.0>
0

>  <SCORE.INTRA.REPUL>
0

>  <SCORE.INTRA.REPUL.0>
0

>  <SCORE.INTRA.SOLV>
-0.38457

>  <SCORE.INTRA.SOLV.lig_0>
-47.5333

>  <SCORE.INTRA.VDW>
-0.46144

>  <SCORE.INTRA.VDW.0>
-0.287413

>  <SCORE.INTRA.norm>
-0.684806

>  <SCORE.RESTR>
0

>  <SCORE.RESTR.CAVITY>
0

>  <SCORE.RESTR.norm>
0

>  <SCORE.SYSTEM>
0

>  <SCORE.SYSTEM.CONST>
0

>  <SCORE.SYSTEM.DIHEDRAL>
0

>  <SCORE.SYSTEM.SOLV>
0

>  <SCORE.SYSTEM.norm>
0

>  <SCORE.heavy>
14

>  <SCORE.norm>
-0.665385

>  <RMSD>
5.136

$$$$
ligand
 OpenBabel11021811493D
libRbt.so/2013.1/901 2013/11/27
 14 13  0  0  0  0  0  0  0  0999 V2000
   56.8564    7.3537    3.5630 N   0  0  0  0  0  0  0  0  0  0  0  0
   56.2897    6.6784    2.4163 C   0  0  0  0  0  0  0  0  0  0  0  0
   56.5004    7.5506    1.1615 C   0  0  0  0  0  0  0  0  0  0  0  0
   55.8814    6.9647   -0.1170 C   0  0  0  0  0  0  0  0  0  0  0  0
   56.3921    5.6489   -0.5311 N   0  0  0  0  0  0  0  0  0  0  0  0
   55.9606    4.9600   -1.7461 C   0  0  0  0  0  0  0  0  0  0  0  0
   56.2043    3.4552   -1.6976 C   0  0  0  0  0  0  0  0  0  0  0  0
   57.6878    3.0750   -1.6498 C   0  0  0  0  0  0  0  0  0  0  0  0
   57.8892    1.5627   -1.4975 C   0  0  0  0  0  0  0  0  0  0  0  0
   57.4081    1.1402   -0.1838 N   0  0  0  0  0  0  0  0  0  0  0  0
   58.2277    1.1141    1.0290 C   0  0  0  0  0  0  0  0  0  0  0  0
   58.6584    2.5145    1.4871 C   0  0  0  0  0  0  0  0  0  0  0  0
   59.4775    2.4527    2.7805 C   0  0  0  0  0  0  0  0  0  0  0  0
   58.6415    1.9339    3.8590 N   0  0  0  0  0  0  0  0  0  0  0  0
  1  2  1  0  0  0  0
  2  3  1  0  0  0  0
  3  4  1  0  0  0  0
  4  5  1  0  0  0  0
  5  6  1  0  0  0  0
  6  7  1  0  0  0  0
  7  8  1  0  0  0  0
  8  9  1  0  0  0  0
  9 10  1  0  0  0  0
 10 11  1  0  0  0  0
 11 12  1  0  0  0  0
 12 13  1  0  0  0  0
 13 14  1  0  0  0  0
M  END
>  <CHROM.1>
-177.37638192,-60.40706642,-177.55731903,-158.36335706,-65.36128425,175.77884422
-66.89849665,-88.97674875,66.15756486,178.27441547,-63.96229985,57.29106484
4.02890203,0.63340435,-2.39610836,1.09288481,-2.26218166

>  <Name>
ligand

>  <RI>
0

>  <Rbt.Current_Directory>
/home/itssahil/PROJECTS/Mol_Feturizer/New_Systems/rnas/4FAW

>  <Rbt.Executable>
rbdock ($Id: //depot/dev/client3/rdock/2013.1/src/exe/rbdock.cxx#4 $)

>  <Rbt.Library>
libRbt.so (2013.1, Build901 2013/11/27)

>  <Rbt.Parameter_File>
/export/apps/rDock/src/rDock_2013.1_src/data/scripts/dock_solv.prm

>  <Rbt.Receptor>
prm/pocket_docking_7.prm

>  <SCORE>
-7.69661

>  <SCORE.INTER>
1.64226

>  <SCORE.INTER.CONST>
1

>  <SCORE.INTER.POLAR>
0

>  <SCORE.INTER.ROT>
11

>  <SCORE.INTER.SOLV>
8.66092

>  <SCORE.INTER.VDW>
-12.7255

>  <SCORE.INTER.norm>
0.117304

>  <SCORE.INTRA>
-9.33886

>  <SCORE.INTRA.DIHEDRAL>
-17.6934

>  <SCORE.INTRA.DIHEDRAL.0>
19.1003

>  <SCORE.INTRA.POLAR>
0

>  <SCORE.INTRA.POLAR.0>
0

>  <SCORE.INTRA.REPUL>
0

>  <SCORE.INTRA.REPUL.0>
0

>  <SCORE.INTRA.SOLV>
0.483686

>  <SCORE.INTRA.SOLV.lig_0>
-47.5333

>  <SCORE.INTRA.VDW>
-0.733988

>  <SCORE.INTRA.VDW.0>
-0.287413

>  <SCORE.INTRA.norm>
-0.667062

>  <SCORE.RESTR>
0

>  <SCORE.RESTR.CAVITY>
0

>  <SCORE.RESTR.norm>
0

>  <SCORE.SYSTEM>
0

>  <SCORE.SYSTEM.CONST>
0

>  <SCORE.SYSTEM.DIHEDRAL>
0

>  <SCORE.SYSTEM.SOLV>
0

>  <SCORE.SYSTEM.norm>
0

>  <SCORE.heavy>
14

>  <SCORE.norm>
-0.549758

>  <RMSD>
5.173

$$$$
ligand
 OpenBabel11021811493D
libRbt.so/2013.1/901 2013/11/27
 14 13  0  0  0  0  0  0  0  0999 V2000
   56.3085    5.0435   -0.6469 N   0  0  0  0  0  0  0  0  0  0  0  0
   56.7121    4.0104   -1.5754 C   0  0  0  0  0  0  0  0  0  0  0  0
   57.3508    2.8468   -0.7896 C   0  0  0  0  0  0  0  0  0  0  0  0
   57.7077    1.6296   -1.6568 C   0  0  0  0  0  0  0  0  0  0  0  0
   58.1826    0.4423   -0.9299 N   0  0  0  0  0  0  0  0  0  0  0  0
   57.3526   -0.3226   -0.0010 C   0  0  0  0  0  0  0  0  0  0  0  0
   58.1375   -1.3790    0.7699 C   0  0  0  0  0  0  0  0  0  0  0  0
   59.1755   -0.7919    1.7318 C   0  0  0  0  0  0  0  0  0  0  0  0
   59.9283   -1.8835    2.5015 C   0  0  0  0  0  0  0  0  0  0  0  0
   60.8474   -1.2598    3.4513 N   0  0  0  0  0  0  0  0  0  0  0  0
   61.7009   -1.9980    4.3839 C   0  0  0  0  0  0  0  0  0  0  0  0
   62.4867   -1.0777    5.3283 C   0  0  0  0  0  0  0  0  0  0  0  0
   61.5567   -0.3602    6.3122 C   0  0  0  0  0  0  0  0  0  0  0  0
   60.9461   -1.3411    7.2046 N   0  0  0  0  0  0  0  0  0  0  0  0
  1  2  1  0  0  0  0
  2  3  1  0  0  0  0
  3  4  1  0  0  0  0
  4  5  1  0  0  0  0
  5  6  1  0  0  0  0
  6  7  1  0  0  0  0
  7  8  1  0  0  0  0
  8  9  1  0  0  0  0
  9 10  1  0  0  0  0
 10 11  1  0  0  0  0
 11 12  1  0  0  0  0
 12 13  1  0  0  0  0
 13 14  1  0  0  0  0
M  END
>  <CHROM.1>
174.81476833,-173.58906554,65.00782172,-171.64433133,65.99395402,179.17585498
-176.90069722,178.10488763,-175.90660336,67.91504545,65.65758923,59.17099708
0.25400856,1.86295746,-3.01939499,1.04956929,-2.71325079

>  <Name>
ligand

>  <RI>
0

>  <Rbt.Current_Directory>
/home/itssahil/PROJECTS/Mol_Feturizer/New_Systems/rnas/4FAW

>  <Rbt.Executable>
rbdock ($Id: //depot/dev/client3/rdock/2013.1/src/exe/rbdock.cxx#4 $)

>  <Rbt.Library>
libRbt.so (2013.1, Build901 2013/11/27)

>  <Rbt.Parameter_File>
/export/apps/rDock/src/rDock_2013.1_src/data/scripts/dock_solv.prm

>  <Rbt.Receptor>
prm/pocket_docking_6.prm

>  <SCORE>
-10.1648

>  <SCORE.INTER>
-0.588523

>  <SCORE.INTER.CONST>
1

>  <SCORE.INTER.POLAR>
0

>  <SCORE.INTER.ROT>
11

>  <SCORE.INTER.SOLV>
13.144

>  <SCORE.INTER.VDW>
-15.707

>  <SCORE.INTER.norm>
-0.0420373

>  <SCORE.INTRA>
-9.57631

>  <SCORE.INTRA.DIHEDRAL>
-18.2237

>  <SCORE.INTRA.DIHEDRAL.0>
19.1003

>  <SCORE.INTRA.POLAR>
0

>  <SCORE.INTRA.POLAR.0>
0

>  <SCORE.INTRA.REPUL>
0

>  <SCORE.INTRA.REPUL.0>
0

>  <SCORE.INTRA.SOLV>
0.501951

>  <SCORE.INTRA.SOLV.lig_0>
-47.5333

>  <SCORE.INTRA.VDW>
-0.715431

>  <SCORE.INTRA.VDW.0>
-0.287413

>  <SCORE.INTRA.norm>
-0.684022

>  <SCORE.RESTR>
0

>  <SCORE.RESTR.CAVITY>
0

>  <SCORE.RESTR.norm>
0

>  <SCORE.SYSTEM>
0

>  <SCORE.SYSTEM.CONST>
0

>  <SCORE.SYSTEM.DIHEDRAL>
0

>  <SCORE.SYSTEM.SOLV>
0

>  <SCORE.SYSTEM.norm>
0

>  <SCORE.heavy>
14

>  <SCORE.norm>
-0.726059

>  <RMSD>
5.180

$$$$
ligand
 OpenBabel11021811493D
libRbt.so/2013.1/901 2013/11/27
 14 13  0  0  0  0  0  0  0  0999 V2000
   60.9040    2.0537    6.0684 N   0  0  0  0  0  0  0  0  0  0  0  0
   60.4574    1.1433    5.0369 C   0  0  0  0  0  0  0  0  0  0  0  0
   60.2032   -0.2434    5.6628 C   0  0  0  0  0  0  0  0  0  0  0  0
   59.5574   -1.2533    4.7015 C   0  0  0  0  0  0  0  0  0  0  0  0
   60.3498   -1.6027    3.5125 N   0  0  0  0  0  0  0  0  0  0  0  0
   59.9485   -2.6219    2.5444 C   0  0  0  0  0  0  0  0  0  0  0  0
   58.6847   -2.2502    1.7756 C   0  0  0  0  0  0  0  0  0  0  0  0
   58.7673   -0.8868    1.0815 C   0  0  0  0  0  0  0  0  0  0  0  0
   57.4948   -0.5676    0.2880 C   0  0  0  0  0  0  0  0  0  0  0  0
   57.5460    0.8187   -0.1715 N   0  0  0  0  0  0  0  0  0  0  0  0
   57.8387    1.2246   -1.5474 C   0  0  0  0  0  0  0  0  0  0  0  0
   58.0668    2.7361   -1.6869 C   0  0  0  0  0  0  0  0  0  0  0  0
   56.8170    3.5293   -1.2916 C   0  0  0  0  0  0  0  0  0  0  0  0
   56.6156    3.4289    0.1508 N   0  0  0  0  0  0  0  0  0  0  0  0
  1  2  1  0  0  0  0
  2  3  1  0  0  0  0
  3  4  1  0  0  0  0
  4  5  1  0  0  0  0
  5  6  1  0  0  0  0
  6  7  1  0  0  0  0
  7  8  1  0  0  0  0
  8  9  1  0  0  0  0
  9 10  1  0  0  0  0
 10 11  1  0  0  0  0
 11 12  1  0  0  0  0
 12 13  1  0  0  0  0
 13 14  1  0  0  0  0
M  END
>  <CHROM.1>
172.78410007,62.48427227,174.93739450,65.87722043,54.31322968,178.38485844
171.15041254,104.19442038,-169.94559153,-61.93158539,70.08515838,58.80364206
0.39317019,1.86586303,-0.16471672,-1.13445177,0.25310610

>  <Name>
ligand

>  <RI>
0

>  <Rbt.Current_Directory>
/home/itssahil/PROJECTS/Mol_Feturizer/New_Systems/rnas/4FAW

>  <Rbt.Executable>
rbdock ($Id: //depot/dev/client3/rdock/2013.1/src/exe/rbdock.cxx#4 $)

>  <Rbt.Library>
libRbt.so (2013.1, Build901 2013/11/27)

>  <Rbt.Parameter_File>
/export/apps/rDock/src/rDock_2013.1_src/data/scripts/dock_solv.prm

>  <Rbt.Receptor>
prm/pocket_docking_5.prm

>  <SCORE>
-8.12112

>  <SCORE.INTER>
-0.100383

>  <SCORE.INTER.CONST>
1

>  <SCORE.INTER.POLAR>
0

>  <SCORE.INTER.ROT>
11

>  <SCORE.INTER.SOLV>
13.3685

>  <SCORE.INTER.VDW>
-15.4564

>  <SCORE.INTER.norm>
-0.00717019

>  <SCORE.INTRA>
-8.02074

>  <SCORE.INTRA.DIHEDRAL>
-16.9325

>  <SCORE.INTRA.DIHEDRAL.0>
19.1003

>  <SCORE.INTRA.POLAR>
0

>  <SCORE.INTRA.POLAR.0>
0

>  <SCORE.INTRA.REPUL>
0

>  <SCORE.INTRA.REPUL.0>
0

>  <SCORE.INTRA.SOLV>
2.23581

>  <SCORE.INTRA.SOLV.lig_0>
-47.5333

>  <SCORE.INTRA.VDW>
-0.672391

>  <SCORE.INTRA.VDW.0>
-0.287413

>  <SCORE.INTRA.norm>
-0.57291

>  <SCORE.RESTR>
0

>  <SCORE.RESTR.CAVITY>
0

>  <SCORE.RESTR.norm>
0

>  <SCORE.SYSTEM>
0

>  <SCORE.SYSTEM.CONST>
0

>  <SCORE.SYSTEM.DIHEDRAL>
0

>  <SCORE.SYSTEM.SOLV>
0

>  <SCORE.SYSTEM.norm>
0

>  <SCORE.heavy>
14

>  <SCORE.norm>
-0.58008

>  <RMSD>
5.184

$$$$
ligand
 OpenBabel11021811493D
libRbt.so/2013.1/901 2013/11/27
 14 13  0  0  0  0  0  0  0  0999 V2000
   62.1552   -1.4293    7.0359 N   0  0  0  0  0  0  0  0  0  0  0  0
   61.1205   -0.5122    6.6112 C   0  0  0  0  0  0  0  0  0  0  0  0
   61.4682    0.0269    5.2083 C   0  0  0  0  0  0  0  0  0  0  0  0
   61.4926   -1.0512    4.1137 C   0  0  0  0  0  0  0  0  0  0  0  0
   60.2300   -1.7748    3.8993 N   0  0  0  0  0  0  0  0  0  0  0  0
   60.0005   -2.6859    2.7793 C   0  0  0  0  0  0  0  0  0  0  0  0
   58.8191   -2.2738    1.9070 C   0  0  0  0  0  0  0  0  0  0  0  0
   58.9473   -0.8611    1.3278 C   0  0  0  0  0  0  0  0  0  0  0  0
   57.8077   -0.5325    0.3561 C   0  0  0  0  0  0  0  0  0  0  0  0
   57.9622    0.8387   -0.1251 N   0  0  0  0  0  0  0  0  0  0  0  0
   57.8782    1.2370   -1.5314 C   0  0  0  0  0  0  0  0  0  0  0  0
   57.7720    2.7574   -1.7145 C   0  0  0  0  0  0  0  0  0  0  0  0
   56.4563    3.2988   -1.1459 C   0  0  0  0  0  0  0  0  0  0  0  0
   56.3723    4.7337   -1.4016 N   0  0  0  0  0  0  0  0  0  0  0  0
  1  2  1  0  0  0  0
  2  3  1  0  0  0  0
  3  4  1  0  0  0  0
  4  5  1  0  0  0  0
  5  6  1  0  0  0  0
  6  7  1  0  0  0  0
  7  8  1  0  0  0  0
  8  9  1  0  0  0  0
  9 10  1  0  0  0  0
 10 11  1  0  0  0  0
 11 12  1  0  0  0  0
 12 13  1  0  0  0  0
 13 14  1  0  0  0  0
M  END
>  <CHROM.1>
63.89249212,60.12844188,170.49768885,-121.34452879,57.35199561,174.73774416
178.12202599,132.17072588,167.42035050,-65.72581833,-177.23786411,59.17730192
0.12636556,1.95128043,-0.31397787,-1.05369761,0.18172912

>  <Name>
ligand

>  <RI>
0

>  <Rbt.Current_Directory>
/home/itssahil/PROJECTS/Mol_Feturizer/New_Systems/rnas/4FAW

>  <Rbt.Executable>
rbdock ($Id: //depot/dev/client3/rdock/2013.1/src/exe/rbdock.cxx#4 $)

>  <Rbt.Library>
libRbt.so (2013.1, Build901 2013/11/27)

>  <Rbt.Parameter_File>
/export/apps/rDock/src/rDock_2013.1_src/data/scripts/dock_solv.prm

>  <Rbt.Receptor>
prm/pocket_docking_6.prm

>  <SCORE>
-9.87029

>  <SCORE.INTER>
-1.22702

>  <SCORE.INTER.CONST>
1

>  <SCORE.INTER.POLAR>
0

>  <SCORE.INTER.ROT>
11

>  <SCORE.INTER.SOLV>
12.2644

>  <SCORE.INTER.VDW>
-15.8395

>  <SCORE.INTER.norm>
-0.0876442

>  <SCORE.INTRA>
-8.64327

>  <SCORE.INTRA.DIHEDRAL>
-16.257

>  <SCORE.INTRA.DIHEDRAL.0>
19.1003

>  <SCORE.INTRA.POLAR>
0

>  <SCORE.INTRA.POLAR.0>
0

>  <SCORE.INTRA.REPUL>
0

>  <SCORE.INTRA.REPUL.0>
0

>  <SCORE.INTRA.SOLV>
0.884284

>  <SCORE.INTRA.SOLV.lig_0>
-47.5333

>  <SCORE.INTRA.VDW>
-0.95693

>  <SCORE.INTRA.VDW.0>
-0.287413

>  <SCORE.INTRA.norm>
-0.617377

>  <SCORE.RESTR>
0

>  <SCORE.RESTR.CAVITY>
0

>  <SCORE.RESTR.norm>
0

>  <SCORE.SYSTEM>
0

>  <SCORE.SYSTEM.CONST>
0

>  <SCORE.SYSTEM.DIHEDRAL>
0

>  <SCORE.SYSTEM.SOLV>
0

>  <SCORE.SYSTEM.norm>
0

>  <SCORE.heavy>
14

>  <SCORE.norm>
-0.705021

>  <RMSD>
5.223

$$$$
ligand
 OpenBabel11021811493D
libRbt.so/2013.1/901 2013/11/27
 14 13  0  0  0  0  0  0  0  0999 V2000
   56.7678    3.7119    0.7440 N   0  0  0  0  0  0  0  0  0  0  0  0
   55.9153    3.0534   -0.2213 C   0  0  0  0  0  0  0  0  0  0  0  0
   56.6769    2.9144   -1.5556 C   0  0  0  0  0  0  0  0  0  0  0  0
   57.9074    1.9973   -1.4793 C   0  0  0  0  0  0  0  0  0  0  0  0
   57.6586    0.6305   -0.9961 N   0  0  0  0  0  0  0  0  0  0  0  0
   57.6266    0.2666    0.4193 C   0  0  0  0  0  0  0  0  0  0  0  0
   58.5890   -0.8643    0.7669 C   0  0  0  0  0  0  0  0  0  0  0  0
   59.0115   -0.8798    2.2396 C   0  0  0  0  0  0  0  0  0  0  0  0
   60.0910   -1.9327    2.5171 C   0  0  0  0  0  0  0  0  0  0  0  0
   60.6086   -1.7498    3.8715 N   0  0  0  0  0  0  0  0  0  0  0  0
   61.9474   -2.1512    4.3072 C   0  0  0  0  0  0  0  0  0  0  0  0
   62.5181   -1.2352    5.3988 C   0  0  0  0  0  0  0  0  0  0  0  0
   61.7599   -1.4000    6.7201 C   0  0  0  0  0  0  0  0  0  0  0  0
   60.4231   -0.8290    6.5858 N   0  0  0  0  0  0  0  0  0  0  0  0
  1  2  1  0  0  0  0
  2  3  1  0  0  0  0
  3  4  1  0  0  0  0
  4  5  1  0  0  0  0
  5  6  1  0  0  0  0
  6  7  1  0  0  0  0
  7  8  1  0  0  0  0
  8  9  1  0  0  0  0
  9 10  1  0  0  0  0
 10 11  1  0  0  0  0
 11 12  1  0  0  0  0
 12 13  1  0  0  0  0
 13 14  1  0  0  0  0
M  END
>  <CHROM.1>
64.89575214,55.93287234,-85.27387882,-125.08915615,156.01895930,-173.85138946
170.61019428,-153.86889944,148.19041383,68.96012932,-70.46925023,59.10732960
0.10929782,2.09396622,2.77468279,0.96449047,-2.13776173

>  <Name>
ligand

>  <RI>
0

>  <Rbt.Current_Directory>
/home/itssahil/PROJECTS/Mol_Feturizer/New_Systems/rnas/4FAW

>  <Rbt.Executable>
rbdock ($Id: //depot/dev/client3/rdock/2013.1/src/exe/rbdock.cxx#4 $)

>  <Rbt.Library>
libRbt.so (2013.1, Build901 2013/11/27)

>  <Rbt.Parameter_File>
/export/apps/rDock/src/rDock_2013.1_src/data/scripts/dock_solv.prm

>  <Rbt.Receptor>
prm/pocket_docking_6.prm

>  <SCORE>
-4.08756

>  <SCORE.INTER>
1.37523

>  <SCORE.INTER.CONST>
1

>  <SCORE.INTER.POLAR>
0

>  <SCORE.INTER.ROT>
11

>  <SCORE.INTER.SOLV>
8.94212

>  <SCORE.INTER.VDW>
-12.9972

>  <SCORE.INTER.norm>
0.0982306

>  <SCORE.INTRA>
-5.46279

>  <SCORE.INTRA.DIHEDRAL>
-13.0887

>  <SCORE.INTRA.DIHEDRAL.0>
19.1003

>  <SCORE.INTRA.POLAR>
0

>  <SCORE.INTRA.POLAR.0>
0

>  <SCORE.INTRA.REPUL>
0

>  <SCORE.INTRA.REPUL.0>
0

>  <SCORE.INTRA.SOLV>
4.02839

>  <SCORE.INTRA.SOLV.lig_0>
-47.5333

>  <SCORE.INTRA.VDW>
-0.932652

>  <SCORE.INTRA.VDW.0>
-0.287413

>  <SCORE.INTRA.norm>
-0.390199

>  <SCORE.RESTR>
0

>  <SCORE.RESTR.CAVITY>
0

>  <SCORE.RESTR.norm>
0

>  <SCORE.SYSTEM>
0

>  <SCORE.SYSTEM.CONST>
0

>  <SCORE.SYSTEM.DIHEDRAL>
0

>  <SCORE.SYSTEM.SOLV>
0

>  <SCORE.SYSTEM.norm>
0

>  <SCORE.heavy>
14

>  <SCORE.norm>
-0.291968

>  <RMSD>
5.224

$$$$
ligand
 OpenBabel11021811493D
libRbt.so/2013.1/901 2013/11/27
 14 13  0  0  0  0  0  0  0  0999 V2000
   59.7049    2.4146    7.0785 N   0  0  0  0  0  0  0  0  0  0  0  0
   60.1712    1.1094    6.6647 C   0  0  0  0  0  0  0  0  0  0  0  0
   60.9994    1.2556    5.3716 C   0  0  0  0  0  0  0  0  0  0  0  0
   61.4660   -0.0812    4.7747 C   0  0  0  0  0  0  0  0  0  0  0  0
   60.3999   -0.9834    4.3130 N   0  0  0  0  0  0  0  0  0  0  0  0
   60.1796   -1.3222    2.9082 C   0  0  0  0  0  0  0  0  0  0  0  0
   58.9457   -0.6475    2.3178 C   0  0  0  0  0  0  0  0  0  0  0  0
   58.5594   -1.1782    0.9334 C   0  0  0  0  0  0  0  0  0  0  0  0
   57.3003   -0.4952    0.3865 C   0  0  0  0  0  0  0  0  0  0  0  0
   57.6292    0.8680   -0.0250 N   0  0  0  0  0  0  0  0  0  0  0  0
   57.8427    1.2853   -1.4120 C   0  0  0  0  0  0  0  0  0  0  0  0
   58.0187    2.8032   -1.5570 C   0  0  0  0  0  0  0  0  0  0  0  0
   56.7489    3.5555   -1.1453 C   0  0  0  0  0  0  0  0  0  0  0  0
   56.5585    3.4314    0.2968 N   0  0  0  0  0  0  0  0  0  0  0  0
  1  2  1  0  0  0  0
  2  3  1  0  0  0  0
  3  4  1  0  0  0  0
  4  5  1  0  0  0  0
  5  6  1  0  0  0  0
  6  7  1  0  0  0  0
  7  8  1  0  0  0  0
  8  9  1  0  0  0  0
  9 10  1  0  0  0  0
 10 11  1  0  0  0  0
 11 12  1  0  0  0  0
 12 13  1  0  0  0  0
 13 14  1  0  0  0  0
M  END
>  <CHROM.1>
-175.77614232,63.96802156,112.61291574,-106.67568934,-169.80529957,178.88909129
73.41823482,101.70274788,173.58894230,-63.92769804,69.08989958,58.89473243
0.85800966,2.20726381,0.38504222,-1.08404342,0.64830580

>  <Name>
ligand

>  <RI>
0

>  <Rbt.Current_Directory>
/home/itssahil/PROJECTS/Mol_Feturizer/New_Systems/rnas/4FAW

>  <Rbt.Executable>
rbdock ($Id: //depot/dev/client3/rdock/2013.1/src/exe/rbdock.cxx#4 $)

>  <Rbt.Library>
libRbt.so (2013.1, Build901 2013/11/27)

>  <Rbt.Parameter_File>
/export/apps/rDock/src/rDock_2013.1_src/data/scripts/dock_solv.prm

>  <Rbt.Receptor>
prm/pocket_docking_6.prm

>  <SCORE>
-8.91778

>  <SCORE.INTER>
-1.78948

>  <SCORE.INTER.CONST>
1

>  <SCORE.INTER.POLAR>
0

>  <SCORE.INTER.ROT>
11

>  <SCORE.INTER.SOLV>
11.6207

>  <SCORE.INTER.VDW>
-15.9999

>  <SCORE.INTER.norm>
-0.12782

>  <SCORE.INTRA>
-7.1283

>  <SCORE.INTRA.DIHEDRAL>
-14.372

>  <SCORE.INTRA.DIHEDRAL.0>
19.1003

>  <SCORE.INTRA.POLAR>
0

>  <SCORE.INTRA.POLAR.0>
0

>  <SCORE.INTRA.REPUL>
0

>  <SCORE.INTRA.REPUL.0>
0

>  <SCORE.INTRA.SOLV>
2.1972

>  <SCORE.INTRA.SOLV.lig_0>
-47.5333

>  <SCORE.INTRA.VDW>
-1.04088

>  <SCORE.INTRA.VDW.0>
-0.287413

>  <SCORE.INTRA.norm>
-0.509164

>  <SCORE.RESTR>
0

>  <SCORE.RESTR.CAVITY>
0

>  <SCORE.RESTR.norm>
0

>  <SCORE.SYSTEM>
0

>  <SCORE.SYSTEM.CONST>
0

>  <SCORE.SYSTEM.DIHEDRAL>
0

>  <SCORE.SYSTEM.SOLV>
0

>  <SCORE.SYSTEM.norm>
0

>  <SCORE.heavy>
14

>  <SCORE.norm>
-0.636984

>  <RMSD>
5.226

$$$$
ligand
 OpenBabel11021811493D
libRbt.so/2013.1/901 2013/11/27
 14 13  0  0  0  0  0  0  0  0999 V2000
   50.0088    1.8114   -4.7964 N   0  0  0  0  0  0  0  0  0  0  0  0
   49.2920    0.5684   -4.9790 C   0  0  0  0  0  0  0  0  0  0  0  0
   50.2617   -0.6108   -4.7581 C   0  0  0  0  0  0  0  0  0  0  0  0
   50.7037   -0.7901   -3.2974 C   0  0  0  0  0  0  0  0  0  0  0  0
   51.3628    0.3713   -2.6805 N   0  0  0  0  0  0  0  0  0  0  0  0
   51.8361    0.3921   -1.2976 C   0  0  0  0  0  0  0  0  0  0  0  0
   52.4784    1.7190   -0.9065 C   0  0  0  0  0  0  0  0  0  0  0  0
   53.1473    1.6943    0.4718 C   0  0  0  0  0  0  0  0  0  0  0  0
   53.8577    3.0153    0.7899 C   0  0  0  0  0  0  0  0  0  0  0  0
   54.9260    3.2368   -0.1824 N   0  0  0  0  0  0  0  0  0  0  0  0
   55.9277    4.3000   -0.0839 C   0  0  0  0  0  0  0  0  0  0  0  0
   56.6353    4.5770   -1.4176 C   0  0  0  0  0  0  0  0  0  0  0  0
   55.6757    5.1888   -2.4435 C   0  0  0  0  0  0  0  0  0  0  0  0
   55.2270    6.4943   -1.9687 N   0  0  0  0  0  0  0  0  0  0  0  0
  1  2  1  0  0  0  0
  2  3  1  0  0  0  0
  3  4  1  0  0  0  0
  4  5  1  0  0  0  0
  5  6  1  0  0  0  0
  6  7  1  0  0  0  0
  7  8  1  0  0  0  0
  8  9  1  0  0  0  0
  9 10  1  0  0  0  0
 10 11  1  0  0  0  0
 11 12  1  0  0  0  0
 12 13  1  0  0  0  0
 13 14  1  0  0  0  0
M  END
>  <CHROM.1>
70.00172522,-57.77051371,179.24835705,-179.81024714,-172.17518368,176.32982213
-62.34862067,-171.32636473,-162.00760529,67.71891273,64.07053103,52.95290712
2.28312817,-1.96766978,-3.10508827,0.80137132,2.12949071

>  <Name>
ligand

>  <RI>
0

>  <Rbt.Current_Directory>
/home/itssahil/PROJECTS/Mol_Feturizer/New_Systems/rnas/4FAW

>  <Rbt.Executable>
rbdock ($Id: //depot/dev/client3/rdock/2013.1/src/exe/rbdock.cxx#4 $)

>  <Rbt.Library>
libRbt.so (2013.1, Build901 2013/11/27)

>  <Rbt.Parameter_File>
/export/apps/rDock/src/rDock_2013.1_src/data/scripts/dock_solv.prm

>  <Rbt.Receptor>
prm/pocket_docking_6.prm

>  <SCORE>
-6.58895

>  <SCORE.INTER>
1.44229

>  <SCORE.INTER.CONST>
1

>  <SCORE.INTER.POLAR>
0

>  <SCORE.INTER.ROT>
11

>  <SCORE.INTER.SOLV>
7.39483

>  <SCORE.INTER.VDW>
-12.4368

>  <SCORE.INTER.norm>
0.103021

>  <SCORE.INTRA>
-8.03124

>  <SCORE.INTRA.DIHEDRAL>
-17.8128

>  <SCORE.INTRA.DIHEDRAL.0>
19.1003

>  <SCORE.INTRA.POLAR>
0

>  <SCORE.INTRA.POLAR.0>
0

>  <SCORE.INTRA.REPUL>
0

>  <SCORE.INTRA.REPUL.0>
0

>  <SCORE.INTRA.SOLV>
3.51939

>  <SCORE.INTRA.SOLV.lig_0>
-47.5333

>  <SCORE.INTRA.VDW>
-0.884538

>  <SCORE.INTRA.VDW.0>
-0.287413

>  <SCORE.INTRA.norm>
-0.57366

>  <SCORE.RESTR>
0

>  <SCORE.RESTR.CAVITY>
0

>  <SCORE.RESTR.norm>
0

>  <SCORE.SYSTEM>
0

>  <SCORE.SYSTEM.CONST>
0

>  <SCORE.SYSTEM.DIHEDRAL>
0

>  <SCORE.SYSTEM.SOLV>
0

>  <SCORE.SYSTEM.norm>
0

>  <SCORE.heavy>
14

>  <SCORE.norm>
-0.470639

>  <RMSD>
5.241

$$$$
ligand
 OpenBabel11021811493D
libRbt.so/2013.1/901 2013/11/27
 14 13  0  0  0  0  0  0  0  0999 V2000
   55.8131    4.3864   -2.3041 N   0  0  0  0  0  0  0  0  0  0  0  0
   56.9028    4.0979   -1.3977 C   0  0  0  0  0  0  0  0  0  0  0  0
   57.0406    2.5692   -1.2441 C   0  0  0  0  0  0  0  0  0  0  0  0
   58.0601    2.1384   -0.1783 C   0  0  0  0  0  0  0  0  0  0  0  0
   58.2475    0.6881   -0.0204 N   0  0  0  0  0  0  0  0  0  0  0  0
   57.2058   -0.2133    0.4689 C   0  0  0  0  0  0  0  0  0  0  0  0
   57.7214   -1.6186    0.7614 C   0  0  0  0  0  0  0  0  0  0  0  0
   58.8653   -1.6528    1.7801 C   0  0  0  0  0  0  0  0  0  0  0  0
   59.3364   -3.0833    2.0677 C   0  0  0  0  0  0  0  0  0  0  0  0
   60.5291   -3.0397    2.9111 N   0  0  0  0  0  0  0  0  0  0  0  0
   60.8967   -4.0746    3.8793 C   0  0  0  0  0  0  0  0  0  0  0  0
   60.1817   -3.9098    5.2276 C   0  0  0  0  0  0  0  0  0  0  0  0
   60.5206   -2.5655    5.8799 C   0  0  0  0  0  0  0  0  0  0  0  0
   59.8751   -2.4849    7.1869 N   0  0  0  0  0  0  0  0  0  0  0  0
  1  2  1  0  0  0  0
  2  3  1  0  0  0  0
  3  4  1  0  0  0  0
  4  5  1  0  0  0  0
  5  6  1  0  0  0  0
  6  7  1  0  0  0  0
  7  8  1  0  0  0  0
  8  9  1  0  0  0  0
  9 10  1  0  0  0  0
 10 11  1  0  0  0  0
 11 12  1  0  0  0  0
 12 13  1  0  0  0  0
 13 14  1  0  0  0  0
M  END
>  <CHROM.1>
-173.25748850,-178.59189044,-65.69926430,-170.29403434,57.54353987,178.86536610
172.99433665,149.91656950,-83.24601469,-60.32032618,-177.07023517,58.65689174
-0.62609508,1.78694798,3.04330735,1.20180413,-2.24566884

>  <Name>
ligand

>  <RI>
0

>  <Rbt.Current_Directory>
/home/itssahil/PROJECTS/Mol_Feturizer/New_Systems/rnas/4FAW

>  <Rbt.Executable>
rbdock ($Id: //depot/dev/client3/rdock/2013.1/src/exe/rbdock.cxx#4 $)

>  <Rbt.Library>
libRbt.so (2013.1, Build901 2013/11/27)

>  <Rbt.Parameter_File>
/export/apps/rDock/src/rDock_2013.1_src/data/scripts/dock_solv.prm

>  <Rbt.Receptor>
prm/pocket_docking_4.prm

>  <SCORE>
-8.77154

>  <SCORE.INTER>
1.04465

>  <SCORE.INTER.CONST>
1

>  <SCORE.INTER.POLAR>
0

>  <SCORE.INTER.ROT>
11

>  <SCORE.INTER.SOLV>
10.5878

>  <SCORE.INTER.VDW>
-13.7662

>  <SCORE.INTER.norm>
0.0746182

>  <SCORE.INTRA>
-9.8162

>  <SCORE.INTRA.DIHEDRAL>
-17.5808

>  <SCORE.INTRA.DIHEDRAL.0>
19.1003

>  <SCORE.INTRA.POLAR>
0

>  <SCORE.INTRA.POLAR.0>
0

>  <SCORE.INTRA.REPUL>
0

>  <SCORE.INTRA.REPUL.0>
0

>  <SCORE.INTRA.SOLV>
-0.717615

>  <SCORE.INTRA.SOLV.lig_0>
-47.5333

>  <SCORE.INTRA.VDW>
-0.666972

>  <SCORE.INTRA.VDW.0>
-0.287413

>  <SCORE.INTRA.norm>
-0.701157

>  <SCORE.RESTR>
0

>  <SCORE.RESTR.CAVITY>
0

>  <SCORE.RESTR.norm>
0

>  <SCORE.SYSTEM>
0

>  <SCORE.SYSTEM.CONST>
0

>  <SCORE.SYSTEM.DIHEDRAL>
0

>  <SCORE.SYSTEM.SOLV>
0

>  <SCORE.SYSTEM.norm>
0

>  <SCORE.heavy>
14

>  <SCORE.norm>
-0.626539

>  <RMSD>
5.253

$$$$
ligand
 OpenBabel11021811493D
libRbt.so/2013.1/901 2013/11/27
 14 13  0  0  0  0  0  0  0  0999 V2000
   57.3814    3.2796    2.2528 N   0  0  0  0  0  0  0  0  0  0  0  0
   55.9363    3.3393    2.2722 C   0  0  0  0  0  0  0  0  0  0  0  0
   55.3783    2.4298    1.1582 C   0  0  0  0  0  0  0  0  0  0  0  0
   53.8437    2.4005    1.0865 C   0  0  0  0  0  0  0  0  0  0  0  0
   53.2678    1.5494    0.0341 N   0  0  0  0  0  0  0  0  0  0  0  0
   51.8313    1.4143   -0.2006 C   0  0  0  0  0  0  0  0  0  0  0  0
   51.4909    0.3167   -1.2035 C   0  0  0  0  0  0  0  0  0  0  0  0
   51.9911    0.6055   -2.6226 C   0  0  0  0  0  0  0  0  0  0  0  0
   51.5747   -0.4885   -3.6128 C   0  0  0  0  0  0  0  0  0  0  0  0
   50.1274   -0.4390   -3.8084 N   0  0  0  0  0  0  0  0  0  0  0  0
   49.3480   -1.4746   -4.4892 C   0  0  0  0  0  0  0  0  0  0  0  0
   49.7591   -1.6616   -5.9562 C   0  0  0  0  0  0  0  0  0  0  0  0
   49.5567   -0.3745   -6.7624 C   0  0  0  0  0  0  0  0  0  0  0  0
   49.9738   -0.5973   -8.1436 N   0  0  0  0  0  0  0  0  0  0  0  0
  1  2  1  0  0  0  0
  2  3  1  0  0  0  0
  3  4  1  0  0  0  0
  4  5  1  0  0  0  0
  5  6  1  0  0  0  0
  6  7  1  0  0  0  0
  7  8  1  0  0  0  0
  8  9  1  0  0  0  0
  9 10  1  0  0  0  0
 10 11  1  0  0  0  0
 11 12  1  0  0  0  0
 12 13  1  0  0  0  0
 13 14  1  0  0  0  0
M  END
>  <CHROM.1>
179.50146141,179.75944542,-178.92816193,-171.25190152,-65.74717767,-177.39975738
68.73776900,-168.40964375,-61.65758148,-60.61702422,179.39168898,52.24699198
0.73559338,-2.14240369,-0.90269551,-0.46849559,-1.67534230

>  <Name>
ligand

>  <RI>
0

>  <Rbt.Current_Directory>
/home/itssahil/PROJECTS/Mol_Feturizer/New_Systems/rnas/4FAW

>  <Rbt.Executable>
rbdock ($Id: //depot/dev/client3/rdock/2013.1/src/exe/rbdock.cxx#4 $)

>  <Rbt.Library>
libRbt.so (2013.1, Build901 2013/11/27)

>  <Rbt.Parameter_File>
/export/apps/rDock/src/rDock_2013.1_src/data/scripts/dock_solv.prm

>  <Rbt.Receptor>
prm/pocket_docking_6.prm

>  <SCORE>
-8.01547

>  <SCORE.INTER>
2.02189

>  <SCORE.INTER.CONST>
1

>  <SCORE.INTER.POLAR>
0

>  <SCORE.INTER.ROT>
11

>  <SCORE.INTER.SOLV>
7.33558

>  <SCORE.INTER.VDW>
-12.0306

>  <SCORE.INTER.norm>
0.14442

>  <SCORE.INTRA>
-10.0374

>  <SCORE.INTRA.DIHEDRAL>
-18.488

>  <SCORE.INTRA.DIHEDRAL.0>
19.1003

>  <SCORE.INTRA.POLAR>
0

>  <SCORE.INTRA.POLAR.0>
0

>  <SCORE.INTRA.REPUL>
0

>  <SCORE.INTRA.REPUL.0>
0

>  <SCORE.INTRA.SOLV>
-0.377788

>  <SCORE.INTRA.SOLV.lig_0>
-47.5333

>  <SCORE.INTRA.VDW>
-0.604483

>  <SCORE.INTRA.VDW.0>
-0.287413

>  <SCORE.INTRA.norm>
-0.716954

>  <SCORE.RESTR>
0

>  <SCORE.RESTR.CAVITY>
0

>  <SCORE.RESTR.norm>
0

>  <SCORE.SYSTEM>
0

>  <SCORE.SYSTEM.CONST>
0

>  <SCORE.SYSTEM.DIHEDRAL>
0

>  <SCORE.SYSTEM.SOLV>
0

>  <SCORE.SYSTEM.norm>
0

>  <SCORE.heavy>
14

>  <SCORE.norm>
-0.572533

>  <RMSD>
5.258

$$$$
ligand
 OpenBabel11021811493D
libRbt.so/2013.1/901 2013/11/27
 14 13  0  0  0  0  0  0  0  0999 V2000
   56.1803    6.1053    4.5381 N   0  0  0  0  0  0  0  0  0  0  0  0
   55.8061    5.6303    3.2241 C   0  0  0  0  0  0  0  0  0  0  0  0
   56.8155    4.5563    2.7691 C   0  0  0  0  0  0  0  0  0  0  0  0
   56.4940    3.9377    1.3998 C   0  0  0  0  0  0  0  0  0  0  0  0
   57.4295    2.9055    0.9276 N   0  0  0  0  0  0  0  0  0  0  0  0
   57.3471    2.2824   -0.3922 C   0  0  0  0  0  0  0  0  0  0  0  0
   57.8072    0.8283   -0.3956 C   0  0  0  0  0  0  0  0  0  0  0  0
   56.9881   -0.0767    0.5304 C   0  0  0  0  0  0  0  0  0  0  0  0
   57.5689   -1.4934    0.6110 C   0  0  0  0  0  0  0  0  0  0  0  0
   58.8345   -1.4569    1.3406 N   0  0  0  0  0  0  0  0  0  0  0  0
   59.2511   -2.4561    2.3263 C   0  0  0  0  0  0  0  0  0  0  0  0
   60.6901   -2.2450    2.8170 C   0  0  0  0  0  0  0  0  0  0  0  0
   60.8433   -0.9031    3.5406 C   0  0  0  0  0  0  0  0  0  0  0  0
   60.1428   -0.9601    4.8202 N   0  0  0  0  0  0  0  0  0  0  0  0
  1  2  1  0  0  0  0
  2  3  1  0  0  0  0
  3  4  1  0  0  0  0
  4  5  1  0  0  0  0
  5  6  1  0  0  0  0
  6  7  1  0  0  0  0
  7  8  1  0  0  0  0
  8  9  1  0  0  0  0
  9 10  1  0  0  0  0
 10 11  1  0  0  0  0
 11 12  1  0  0  0  0
 12 13  1  0  0  0  0
 13 14  1  0  0  0  0
M  END
>  <CHROM.1>
178.00134608,-179.85244135,-174.98670238,-147.30291104,60.08648371,-174.08298609
69.92539318,138.90504107,173.70039837,62.73968193,70.29077316,58.01412256
1.18941214,2.00369505,-2.46394461,0.97397873,-2.30011638

>  <Name>
ligand

>  <RI>
0

>  <Rbt.Current_Directory>
/home/itssahil/PROJECTS/Mol_Feturizer/New_Systems/rnas/4FAW

>  <Rbt.Executable>
rbdock ($Id: //depot/dev/client3/rdock/2013.1/src/exe/rbdock.cxx#4 $)

>  <Rbt.Library>
libRbt.so (2013.1, Build901 2013/11/27)

>  <Rbt.Parameter_File>
/export/apps/rDock/src/rDock_2013.1_src/data/scripts/dock_solv.prm

>  <Rbt.Receptor>
prm/pocket_docking_6.prm

>  <SCORE>
-6.37977

>  <SCORE.INTER>
2.34016

>  <SCORE.INTER.CONST>
1

>  <SCORE.INTER.POLAR>
0

>  <SCORE.INTER.ROT>
11

>  <SCORE.INTER.SOLV>
7.41068

>  <SCORE.INTER.VDW>
-11.8435

>  <SCORE.INTER.norm>
0.167155

>  <SCORE.INTRA>
-8.71993

>  <SCORE.INTRA.DIHEDRAL>
-16.489

>  <SCORE.INTRA.DIHEDRAL.0>
19.1003

>  <SCORE.INTRA.POLAR>
0

>  <SCORE.INTRA.POLAR.0>
0

>  <SCORE.INTRA.REPUL>
0

>  <SCORE.INTRA.REPUL.0>
0

>  <SCORE.INTRA.SOLV>
0.897922

>  <SCORE.INTRA.SOLV.lig_0>
-47.5333

>  <SCORE.INTRA.VDW>
-0.924388

>  <SCORE.INTRA.VDW.0>
-0.287413

>  <SCORE.INTRA.norm>
-0.622852

>  <SCORE.RESTR>
0

>  <SCORE.RESTR.CAVITY>
0

>  <SCORE.RESTR.norm>
0

>  <SCORE.SYSTEM>
0

>  <SCORE.SYSTEM.CONST>
0

>  <SCORE.SYSTEM.DIHEDRAL>
0

>  <SCORE.SYSTEM.SOLV>
0

>  <SCORE.SYSTEM.norm>
0

>  <SCORE.heavy>
14

>  <SCORE.norm>
-0.455698

>  <RMSD>
5.269

$$$$
ligand
 OpenBabel11021811493D
libRbt.so/2013.1/901 2013/11/27
 14 13  0  0  0  0  0  0  0  0999 V2000
   57.3320    6.1146    4.7879 N   0  0  0  0  0  0  0  0  0  0  0  0
   57.5382    5.0851    3.7930 C   0  0  0  0  0  0  0  0  0  0  0  0
   56.4149    5.1690    2.7392 C   0  0  0  0  0  0  0  0  0  0  0  0
   56.4628    4.0517    1.6855 C   0  0  0  0  0  0  0  0  0  0  0  0
   55.4316    4.1142    0.6384 N   0  0  0  0  0  0  0  0  0  0  0  0
   55.3095    3.1302   -0.4357 C   0  0  0  0  0  0  0  0  0  0  0  0
   56.2702    3.3865   -1.5923 C   0  0  0  0  0  0  0  0  0  0  0  0
   57.7149    2.9733   -1.2931 C   0  0  0  0  0  0  0  0  0  0  0  0
   57.9071    1.4543   -1.3749 C   0  0  0  0  0  0  0  0  0  0  0  0
   57.3291    0.8286   -0.1875 N   0  0  0  0  0  0  0  0  0  0  0  0
   57.3777   -0.6063    0.0990 C   0  0  0  0  0  0  0  0  0  0  0  0
   58.5453   -0.9909    1.0183 C   0  0  0  0  0  0  0  0  0  0  0  0
   58.3889   -0.3707    2.4106 C   0  0  0  0  0  0  0  0  0  0  0  0
   59.4854   -0.8162    3.2653 N   0  0  0  0  0  0  0  0  0  0  0  0
  1  2  1  0  0  0  0
  2  3  1  0  0  0  0
  3  4  1  0  0  0  0
  4  5  1  0  0  0  0
  5  6  1  0  0  0  0
  6  7  1  0  0  0  0
  7  8  1  0  0  0  0
  8  9  1  0  0  0  0
  9 10  1  0  0  0  0
 10 11  1  0  0  0  0
 11 12  1  0  0  0  0
 12 13  1  0  0  0  0
 13 14  1  0  0  0  0
M  END
>  <CHROM.1>
-175.44474194,-178.36604752,-179.18261851,-81.66598482,76.45549264,76.56939052
-75.22992628,-177.38235004,95.55894259,64.89781792,177.27783197,57.25048209
2.39445645,1.11057120,-2.12648836,1.09049387,-2.25078097

>  <Name>
ligand

>  <RI>
0

>  <Rbt.Current_Directory>
/home/itssahil/PROJECTS/Mol_Feturizer/New_Systems/rnas/4FAW

>  <Rbt.Executable>
rbdock ($Id: //depot/dev/client3/rdock/2013.1/src/exe/rbdock.cxx#4 $)

>  <Rbt.Library>
libRbt.so (2013.1, Build901 2013/11/27)

>  <Rbt.Parameter_File>
/export/apps/rDock/src/rDock_2013.1_src/data/scripts/dock_solv.prm

>  <Rbt.Receptor>
prm/pocket_docking_8.prm

>  <SCORE>
-6.47107

>  <SCORE.INTER>
1.68804

>  <SCORE.INTER.CONST>
1

>  <SCORE.INTER.POLAR>
0

>  <SCORE.INTER.ROT>
11

>  <SCORE.INTER.SOLV>
9.47697

>  <SCORE.INTER.VDW>
-12.967

>  <SCORE.INTER.norm>
0.120574

>  <SCORE.INTRA>
-8.15911

>  <SCORE.INTRA.DIHEDRAL>
-14.8933

>  <SCORE.INTRA.DIHEDRAL.0>
19.1003

>  <SCORE.INTRA.POLAR>
0

>  <SCORE.INTRA.POLAR.0>
0

>  <SCORE.INTRA.REPUL>
0

>  <SCORE.INTRA.REPUL.0>
0

>  <SCORE.INTRA.SOLV>
0.642269

>  <SCORE.INTRA.SOLV.lig_0>
-47.5333

>  <SCORE.INTRA.VDW>
-1.03361

>  <SCORE.INTRA.VDW.0>
-0.287413

>  <SCORE.INTRA.norm>
-0.582794

>  <SCORE.RESTR>
0

>  <SCORE.RESTR.CAVITY>
0

>  <SCORE.RESTR.norm>
0

>  <SCORE.SYSTEM>
0

>  <SCORE.SYSTEM.CONST>
0

>  <SCORE.SYSTEM.DIHEDRAL>
0

>  <SCORE.SYSTEM.SOLV>
0

>  <SCORE.SYSTEM.norm>
0

>  <SCORE.heavy>
14

>  <SCORE.norm>
-0.46222

>  <RMSD>
5.274

$$$$
ligand
 OpenBabel11021811493D
libRbt.so/2013.1/901 2013/11/27
 14 13  0  0  0  0  0  0  0  0999 V2000
   59.4421    2.1791    6.4439 N   0  0  0  0  0  0  0  0  0  0  0  0
   60.3358    2.1661    5.3067 C   0  0  0  0  0  0  0  0  0  0  0  0
   61.3427    1.0088    5.4689 C   0  0  0  0  0  0  0  0  0  0  0  0
   60.7001   -0.3866    5.4382 C   0  0  0  0  0  0  0  0  0  0  0  0
   59.9506   -0.7198    4.2172 N   0  0  0  0  0  0  0  0  0  0  0  0
   60.5044   -0.5975    2.8699 C   0  0  0  0  0  0  0  0  0  0  0  0
   59.4337   -0.4201    1.7982 C   0  0  0  0  0  0  0  0  0  0  0  0
   58.5853   -1.6744    1.5649 C   0  0  0  0  0  0  0  0  0  0  0  0
   57.5539   -1.4714    0.4487 C   0  0  0  0  0  0  0  0  0  0  0  0
   56.5901   -0.4527    0.8597 N   0  0  0  0  0  0  0  0  0  0  0  0
   55.4197   -0.7116    1.7003 C   0  0  0  0  0  0  0  0  0  0  0  0
   54.7614    0.5751    2.2174 C   0  0  0  0  0  0  0  0  0  0  0  0
   54.1947    1.4146    1.0678 C   0  0  0  0  0  0  0  0  0  0  0  0
   53.5477    2.6054    1.6108 N   0  0  0  0  0  0  0  0  0  0  0  0
  1  2  1  0  0  0  0
  2  3  1  0  0  0  0
  3  4  1  0  0  0  0
  4  5  1  0  0  0  0
  5  6  1  0  0  0  0
  6  7  1  0  0  0  0
  7  8  1  0  0  0  0
  8  9  1  0  0  0  0
  9 10  1  0  0  0  0
 10 11  1  0  0  0  0
 11 12  1  0  0  0  0
 12 13  1  0  0  0  0
 13 14  1  0  0  0  0
M  END
>  <CHROM.1>
64.80933760,58.74571984,52.47257019,-155.58718076,-69.54249235,-178.04299995
-64.79530661,-83.29297890,167.61538980,64.18335651,178.41186087,58.02613855
0.25080054,2.92932196,0.42135330,-0.43310341,0.80976653

>  <Name>
ligand

>  <RI>
0

>  <Rbt.Current_Directory>
/home/itssahil/PROJECTS/Mol_Feturizer/New_Systems/rnas/4FAW

>  <Rbt.Executable>
rbdock ($Id: //depot/dev/client3/rdock/2013.1/src/exe/rbdock.cxx#4 $)

>  <Rbt.Library>
libRbt.so (2013.1, Build901 2013/11/27)

>  <Rbt.Parameter_File>
/export/apps/rDock/src/rDock_2013.1_src/data/scripts/dock_solv.prm

>  <Rbt.Receptor>
prm/pocket_docking_7.prm

>  <SCORE>
-8.76331

>  <SCORE.INTER>
-0.134169

>  <SCORE.INTER.CONST>
1

>  <SCORE.INTER.POLAR>
0

>  <SCORE.INTER.ROT>
11

>  <SCORE.INTER.SOLV>
9.60117

>  <SCORE.INTER.VDW>
-14.2232

>  <SCORE.INTER.norm>
-0.00958349

>  <SCORE.INTRA>
-8.62914

>  <SCORE.INTRA.DIHEDRAL>
-17.5035

>  <SCORE.INTRA.DIHEDRAL.0>
19.1003

>  <SCORE.INTRA.POLAR>
0

>  <SCORE.INTRA.POLAR.0>
0

>  <SCORE.INTRA.REPUL>
0

>  <SCORE.INTRA.REPUL.0>
0

>  <SCORE.INTRA.SOLV>
1.28721

>  <SCORE.INTRA.SOLV.lig_0>
-47.5333

>  <SCORE.INTRA.VDW>
-0.520992

>  <SCORE.INTRA.VDW.0>
-0.287413

>  <SCORE.INTRA.norm>
-0.616367

>  <SCORE.RESTR>
0

>  <SCORE.RESTR.CAVITY>
0

>  <SCORE.RESTR.norm>
0

>  <SCORE.SYSTEM>
0

>  <SCORE.SYSTEM.CONST>
0

>  <SCORE.SYSTEM.DIHEDRAL>
0

>  <SCORE.SYSTEM.SOLV>
0

>  <SCORE.SYSTEM.norm>
0

>  <SCORE.heavy>
14

>  <SCORE.norm>
-0.62595

>  <RMSD>
5.299

$$$$
ligand
 OpenBabel11021811493D
libRbt.so/2013.1/901 2013/11/27
 14 13  0  0  0  0  0  0  0  0999 V2000
   55.4787    4.6460   -2.5090 N   0  0  0  0  0  0  0  0  0  0  0  0
   55.9005    3.4493   -1.8147 C   0  0  0  0  0  0  0  0  0  0  0  0
   57.2623    3.7111   -1.1390 C   0  0  0  0  0  0  0  0  0  0  0  0
   57.7877    2.5262   -0.3138 C   0  0  0  0  0  0  0  0  0  0  0  0
   58.9713    2.7983    0.5160 N   0  0  0  0  0  0  0  0  0  0  0  0
   59.1210    2.3250    1.8909 C   0  0  0  0  0  0  0  0  0  0  0  0
   59.7184    0.9244    1.9785 C   0  0  0  0  0  0  0  0  0  0  0  0
   59.7596    0.3627    3.4034 C   0  0  0  0  0  0  0  0  0  0  0  0
   60.4784   -0.9901    3.4677 C   0  0  0  0  0  0  0  0  0  0  0  0
   59.8602   -1.9123    2.5175 N   0  0  0  0  0  0  0  0  0  0  0  0
   59.8478   -3.3688    2.6659 C   0  0  0  0  0  0  0  0  0  0  0  0
   61.2573   -3.9750    2.7102 C   0  0  0  0  0  0  0  0  0  0  0  0
   61.2061   -5.5022    2.8237 C   0  0  0  0  0  0  0  0  0  0  0  0
   62.5606   -6.0212    2.9894 N   0  0  0  0  0  0  0  0  0  0  0  0
  1  2  1  0  0  0  0
  2  3  1  0  0  0  0
  3  4  1  0  0  0  0
  4  5  1  0  0  0  0
  5  6  1  0  0  0  0
  6  7  1  0  0  0  0
  7  8  1  0  0  0  0
  8  9  1  0  0  0  0
  9 10  1  0  0  0  0
 10 11  1  0  0  0  0
 11 12  1  0  0  0  0
 12 13  1  0  0  0  0
 13 14  1  0  0  0  0
M  END
>  <CHROM.1>
177.42638064,-170.79727855,137.05031268,87.10177532,-174.57781917,-174.90162204
-54.42305515,-152.56597774,-60.23372302,-178.29685887,-174.68504802,59.22928352
-0.07330575,1.37067266,2.46326154,-0.96900043,0.32114123

>  <Name>
ligand

>  <RI>
0

>  <Rbt.Current_Directory>
/home/itssahil/PROJECTS/Mol_Feturizer/New_Systems/rnas/4FAW

>  <Rbt.Executable>
rbdock ($Id: //depot/dev/client3/rdock/2013.1/src/exe/rbdock.cxx#4 $)

>  <Rbt.Library>
libRbt.so (2013.1, Build901 2013/11/27)

>  <Rbt.Parameter_File>
/export/apps/rDock/src/rDock_2013.1_src/data/scripts/dock_solv.prm

>  <Rbt.Receptor>
prm/pocket_docking_6.prm

>  <SCORE>
-7.4572

>  <SCORE.INTER>
1.49495

>  <SCORE.INTER.CONST>
1

>  <SCORE.INTER.POLAR>
0

>  <SCORE.INTER.ROT>
11

>  <SCORE.INTER.SOLV>
13.2853

>  <SCORE.INTER.VDW>
-14.3651

>  <SCORE.INTER.norm>
0.106782

>  <SCORE.INTRA>
-8.95215

>  <SCORE.INTRA.DIHEDRAL>
-16.3029

>  <SCORE.INTRA.DIHEDRAL.0>
19.1003

>  <SCORE.INTRA.POLAR>
0

>  <SCORE.INTRA.POLAR.0>
0

>  <SCORE.INTRA.REPUL>
0

>  <SCORE.INTRA.REPUL.0>
0

>  <SCORE.INTRA.SOLV>
-1.03081

>  <SCORE.INTRA.SOLV.lig_0>
-47.5333

>  <SCORE.INTRA.VDW>
-0.28532

>  <SCORE.INTRA.VDW.0>
-0.287413

>  <SCORE.INTRA.norm>
-0.639439

>  <SCORE.RESTR>
0

>  <SCORE.RESTR.CAVITY>
0

>  <SCORE.RESTR.norm>
0

>  <SCORE.SYSTEM>
0

>  <SCORE.SYSTEM.CONST>
0

>  <SCORE.SYSTEM.DIHEDRAL>
0

>  <SCORE.SYSTEM.SOLV>
0

>  <SCORE.SYSTEM.norm>
0

>  <SCORE.heavy>
14

>  <SCORE.norm>
-0.532657

>  <RMSD>
5.311

$$$$
ligand
 OpenBabel11021811493D
libRbt.so/2013.1/901 2013/11/27
 14 13  0  0  0  0  0  0  0  0999 V2000
   60.7822   -0.8179    6.7054 N   0  0  0  0  0  0  0  0  0  0  0  0
   61.2524   -0.1214    5.5281 C   0  0  0  0  0  0  0  0  0  0  0  0
   62.4495   -0.8896    4.9313 C   0  0  0  0  0  0  0  0  0  0  0  0
   62.0835   -2.2669    4.3568 C   0  0  0  0  0  0  0  0  0  0  0  0
   61.2222   -2.2552    3.1645 N   0  0  0  0  0  0  0  0  0  0  0  0
   59.7928   -1.9513    3.2026 C   0  0  0  0  0  0  0  0  0  0  0  0
   59.2289   -1.5611    1.8402 C   0  0  0  0  0  0  0  0  0  0  0  0
   57.7219   -1.2851    1.8560 C   0  0  0  0  0  0  0  0  0  0  0  0
   57.1811   -0.9664    0.4572 C   0  0  0  0  0  0  0  0  0  0  0  0
   57.7915    0.2697   -0.0277 N   0  0  0  0  0  0  0  0  0  0  0  0
   57.5647    1.5912    0.5602 C   0  0  0  0  0  0  0  0  0  0  0  0
   58.2455    2.7187   -0.2281 C   0  0  0  0  0  0  0  0  0  0  0  0
   57.6210    2.8862   -1.6172 C   0  0  0  0  0  0  0  0  0  0  0  0
   56.2701    3.4222   -1.4794 N   0  0  0  0  0  0  0  0  0  0  0  0
  1  2  1  0  0  0  0
  2  3  1  0  0  0  0
  3  4  1  0  0  0  0
  4  5  1  0  0  0  0
  5  6  1  0  0  0  0
  6  7  1  0  0  0  0
  7  8  1  0  0  0  0
  8  9  1  0  0  0  0
  9 10  1  0  0  0  0
 10 11  1  0  0  0  0
 11 12  1  0  0  0  0
 12 13  1  0  0  0  0
 13 14  1  0  0  0  0
M  END
>  <CHROM.1>
66.97791198,66.98091242,-74.21441608,161.27911375,178.07253318,-177.09585386
-63.80443084,-66.41283445,-175.25229381,66.36572132,69.30925580,59.22919209
-0.08774031,2.08928529,-0.54524720,-0.90457478,-0.09920606

>  <Name>
ligand

>  <RI>
0

>  <Rbt.Current_Directory>
/home/itssahil/PROJECTS/Mol_Feturizer/New_Systems/rnas/4FAW

>  <Rbt.Executable>
rbdock ($Id: //depot/dev/client3/rdock/2013.1/src/exe/rbdock.cxx#4 $)

>  <Rbt.Library>
libRbt.so (2013.1, Build901 2013/11/27)

>  <Rbt.Parameter_File>
/export/apps/rDock/src/rDock_2013.1_src/data/scripts/dock_solv.prm

>  <Rbt.Receptor>
prm/pocket_docking_7.prm

>  <SCORE>
-7.70809

>  <SCORE.INTER>
0.197154

>  <SCORE.INTER.CONST>
1

>  <SCORE.INTER.POLAR>
0

>  <SCORE.INTER.ROT>
11

>  <SCORE.INTER.SOLV>
11.2778

>  <SCORE.INTER.VDW>
-14.5612

>  <SCORE.INTER.norm>
0.0140824

>  <SCORE.INTRA>
-7.90525

>  <SCORE.INTRA.DIHEDRAL>
-17.6821

>  <SCORE.INTRA.DIHEDRAL.0>
19.1003

>  <SCORE.INTRA.POLAR>
0

>  <SCORE.INTRA.POLAR.0>
0

>  <SCORE.INTRA.REPUL>
0

>  <SCORE.INTRA.REPUL.0>
0

>  <SCORE.INTRA.SOLV>
2.6456

>  <SCORE.INTRA.SOLV.lig_0>
-47.5333

>  <SCORE.INTRA.VDW>
-0.387011

>  <SCORE.INTRA.VDW.0>
-0.287413

>  <SCORE.INTRA.norm>
-0.56466

>  <SCORE.RESTR>
0

>  <SCORE.RESTR.CAVITY>
0

>  <SCORE.RESTR.norm>
0

>  <SCORE.SYSTEM>
0

>  <SCORE.SYSTEM.CONST>
0

>  <SCORE.SYSTEM.DIHEDRAL>
0

>  <SCORE.SYSTEM.SOLV>
0

>  <SCORE.SYSTEM.norm>
0

>  <SCORE.heavy>
14

>  <SCORE.norm>
-0.550578

>  <RMSD>
5.339

$$$$
ligand
 OpenBabel11021811493D
libRbt.so/2013.1/901 2013/11/27
 14 13  0  0  0  0  0  0  0  0999 V2000
   59.4583   -5.0901    7.2394 N   0  0  0  0  0  0  0  0  0  0  0  0
   59.3464   -3.8882    6.4426 C   0  0  0  0  0  0  0  0  0  0  0  0
   60.5863   -3.7682    5.5328 C   0  0  0  0  0  0  0  0  0  0  0  0
   60.6322   -2.4727    4.7078 C   0  0  0  0  0  0  0  0  0  0  0  0
   59.5488   -2.2985    3.7282 N   0  0  0  0  0  0  0  0  0  0  0  0
   59.5135   -2.9754    2.4330 C   0  0  0  0  0  0  0  0  0  0  0  0
   58.4911   -2.3752    1.4735 C   0  0  0  0  0  0  0  0  0  0  0  0
   58.7369   -0.8953    1.1618 C   0  0  0  0  0  0  0  0  0  0  0  0
   57.7567   -0.3583    0.1122 C   0  0  0  0  0  0  0  0  0  0  0  0
   58.0794    1.0363   -0.1826 N   0  0  0  0  0  0  0  0  0  0  0  0
   57.2879    1.9017   -1.0590 C   0  0  0  0  0  0  0  0  0  0  0  0
   57.7300    3.3706   -1.0027 C   0  0  0  0  0  0  0  0  0  0  0  0
   56.7374    4.2819   -1.7321 C   0  0  0  0  0  0  0  0  0  0  0  0
   55.4644    4.2816   -1.0176 N   0  0  0  0  0  0  0  0  0  0  0  0
  1  2  1  0  0  0  0
  2  3  1  0  0  0  0
  3  4  1  0  0  0  0
  4  5  1  0  0  0  0
  5  6  1  0  0  0  0
  6  7  1  0  0  0  0
  7  8  1  0  0  0  0
  8  9  1  0  0  0  0
  9 10  1  0  0  0  0
 10 11  1  0  0  0  0
 11 12  1  0  0  0  0
 12 13  1  0  0  0  0
 13 14  1  0  0  0  0
M  END
>  <CHROM.1>
-175.79832128,-63.51519292,-77.97627686,-165.66978329,59.52375352,175.53634341
-177.55888010,-174.90348054,170.58654069,-170.03326593,66.19068274,58.52652845
-0.66075789,1.98818213,0.77710871,-1.14858688,1.62765561

>  <Name>
ligand

>  <RI>
0

>  <Rbt.Current_Directory>
/home/itssahil/PROJECTS/Mol_Feturizer/New_Systems/rnas/4FAW

>  <Rbt.Executable>
rbdock ($Id: //depot/dev/client3/rdock/2013.1/src/exe/rbdock.cxx#4 $)

>  <Rbt.Library>
libRbt.so (2013.1, Build901 2013/11/27)

>  <Rbt.Parameter_File>
/export/apps/rDock/src/rDock_2013.1_src/data/scripts/dock_solv.prm

>  <Rbt.Receptor>
prm/pocket_docking_6.prm

>  <SCORE>
-8.47598

>  <SCORE.INTER>
1.2271

>  <SCORE.INTER.CONST>
1

>  <SCORE.INTER.POLAR>
0

>  <SCORE.INTER.ROT>
11

>  <SCORE.INTER.SOLV>
11.5863

>  <SCORE.INTER.VDW>
-13.9774

>  <SCORE.INTER.norm>
0.0876497

>  <SCORE.INTRA>
-9.70307

>  <SCORE.INTRA.DIHEDRAL>
-17.869

>  <SCORE.INTRA.DIHEDRAL.0>
19.1003

>  <SCORE.INTRA.POLAR>
0

>  <SCORE.INTRA.POLAR.0>
0

>  <SCORE.INTRA.REPUL>
0

>  <SCORE.INTRA.REPUL.0>
0

>  <SCORE.INTRA.SOLV>
0.0233838

>  <SCORE.INTRA.SOLV.lig_0>
-47.5333

>  <SCORE.INTRA.VDW>
-0.78025

>  <SCORE.INTRA.VDW.0>
-0.287413

>  <SCORE.INTRA.norm>
-0.693076

>  <SCORE.RESTR>
0

>  <SCORE.RESTR.CAVITY>
0

>  <SCORE.RESTR.norm>
0

>  <SCORE.SYSTEM>
0

>  <SCORE.SYSTEM.CONST>
0

>  <SCORE.SYSTEM.DIHEDRAL>
0

>  <SCORE.SYSTEM.SOLV>
0

>  <SCORE.SYSTEM.norm>
0

>  <SCORE.heavy>
14

>  <SCORE.norm>
-0.605427

>  <RMSD>
5.342

$$$$
ligand
 OpenBabel11021811493D
libRbt.so/2013.1/901 2013/11/27
 14 13  0  0  0  0  0  0  0  0999 V2000
   48.3645   -1.2973   -5.5110 N   0  0  0  0  0  0  0  0  0  0  0  0
   49.2052   -1.1552   -4.3426 C   0  0  0  0  0  0  0  0  0  0  0  0
   50.5435   -0.5109   -4.7588 C   0  0  0  0  0  0  0  0  0  0  0  0
   51.5807   -0.4398   -3.6273 C   0  0  0  0  0  0  0  0  0  0  0  0
   51.2095    0.3877   -2.4693 N   0  0  0  0  0  0  0  0  0  0  0  0
   51.6722    0.1267   -1.1074 C   0  0  0  0  0  0  0  0  0  0  0  0
   51.8199    1.3953   -0.2737 C   0  0  0  0  0  0  0  0  0  0  0  0
   52.8425    2.3860   -0.8398 C   0  0  0  0  0  0  0  0  0  0  0  0
   52.9788    3.6359    0.0377 C   0  0  0  0  0  0  0  0  0  0  0  0
   54.0194    4.5022   -0.5122 N   0  0  0  0  0  0  0  0  0  0  0  0
   54.4854    5.7389    0.1178 C   0  0  0  0  0  0  0  0  0  0  0  0
   55.4101    5.4850    1.3164 C   0  0  0  0  0  0  0  0  0  0  0  0
   55.8365    6.7976    1.9819 C   0  0  0  0  0  0  0  0  0  0  0  0
   56.6914    6.5041    3.1283 N   0  0  0  0  0  0  0  0  0  0  0  0
  1  2  1  0  0  0  0
  2  3  1  0  0  0  0
  3  4  1  0  0  0  0
  4  5  1  0  0  0  0
  5  6  1  0  0  0  0
  6  7  1  0  0  0  0
  7  8  1  0  0  0  0
  8  9  1  0  0  0  0
  9 10  1  0  0  0  0
 10 11  1  0  0  0  0
 11 12  1  0  0  0  0
 12 13  1  0  0  0  0
 13 14  1  0  0  0  0
M  END
>  <CHROM.1>
-174.01934008,-63.01452189,150.16648638,149.03044142,-61.28036140,-179.05753736
176.79091544,-175.55806141,76.11932161,-177.90315979,178.91826714,52.61855452
2.39682810,-1.20423536,-3.05965835,1.00840127,2.18543911

>  <Name>
ligand

>  <RI>
0

>  <Rbt.Current_Directory>
/home/itssahil/PROJECTS/Mol_Feturizer/New_Systems/rnas/4FAW

>  <Rbt.Executable>
rbdock ($Id: //depot/dev/client3/rdock/2013.1/src/exe/rbdock.cxx#4 $)

>  <Rbt.Library>
libRbt.so (2013.1, Build901 2013/11/27)

>  <Rbt.Parameter_File>
/export/apps/rDock/src/rDock_2013.1_src/data/scripts/dock_solv.prm

>  <Rbt.Receptor>
prm/pocket_docking_7.prm

>  <SCORE>
-7.371

>  <SCORE.INTER>
2.67436

>  <SCORE.INTER.CONST>
1

>  <SCORE.INTER.POLAR>
0

>  <SCORE.INTER.ROT>
11

>  <SCORE.INTER.SOLV>
8.67646

>  <SCORE.INTER.VDW>
-12.0426

>  <SCORE.INTER.norm>
0.191026

>  <SCORE.INTRA>
-10.0454

>  <SCORE.INTRA.DIHEDRAL>
-17.4193

>  <SCORE.INTRA.DIHEDRAL.0>
19.1003

>  <SCORE.INTRA.POLAR>
0

>  <SCORE.INTRA.POLAR.0>
0

>  <SCORE.INTRA.REPUL>
0

>  <SCORE.INTRA.REPUL.0>
0

>  <SCORE.INTRA.SOLV>
-0.823977

>  <SCORE.INTRA.SOLV.lig_0>
-47.5333

>  <SCORE.INTRA.VDW>
-0.923731

>  <SCORE.INTRA.VDW.0>
-0.287413

>  <SCORE.INTRA.norm>
-0.717526

>  <SCORE.RESTR>
0

>  <SCORE.RESTR.CAVITY>
0

>  <SCORE.RESTR.norm>
0

>  <SCORE.SYSTEM>
0

>  <SCORE.SYSTEM.CONST>
0

>  <SCORE.SYSTEM.DIHEDRAL>
0

>  <SCORE.SYSTEM.SOLV>
0

>  <SCORE.SYSTEM.norm>
0

>  <SCORE.heavy>
14

>  <SCORE.norm>
-0.5265

>  <RMSD>
5.376

$$$$
ligand
 OpenBabel11021811493D
libRbt.so/2013.1/901 2013/11/27
 14 13  0  0  0  0  0  0  0  0999 V2000
   54.7656    4.5391    1.5139 N   0  0  0  0  0  0  0  0  0  0  0  0
   55.1988    3.6598    0.4503 C   0  0  0  0  0  0  0  0  0  0  0  0
   54.3818    2.3528    0.5114 C   0  0  0  0  0  0  0  0  0  0  0  0
   52.8982    2.5268    0.1513 C   0  0  0  0  0  0  0  0  0  0  0  0
   52.0850    1.3014    0.1764 N   0  0  0  0  0  0  0  0  0  0  0  0
   52.1871    0.2425   -0.8262 C   0  0  0  0  0  0  0  0  0  0  0  0
   51.4377    0.5661   -2.1146 C   0  0  0  0  0  0  0  0  0  0  0  0
   51.5966   -0.5019   -3.2017 C   0  0  0  0  0  0  0  0  0  0  0  0
   50.5257   -0.3766   -4.2917 C   0  0  0  0  0  0  0  0  0  0  0  0
   50.5508    0.9771   -4.8417 N   0  0  0  0  0  0  0  0  0  0  0  0
   49.3602    1.7344   -5.2318 C   0  0  0  0  0  0  0  0  0  0  0  0
   49.6987    3.0840   -5.8802 C   0  0  0  0  0  0  0  0  0  0  0  0
   50.4273    4.0087   -4.8996 C   0  0  0  0  0  0  0  0  0  0  0  0
   49.5119    4.4001   -3.8317 N   0  0  0  0  0  0  0  0  0  0  0  0
  1  2  1  0  0  0  0
  2  3  1  0  0  0  0
  3  4  1  0  0  0  0
  4  5  1  0  0  0  0
  5  6  1  0  0  0  0
  6  7  1  0  0  0  0
  7  8  1  0  0  0  0
  8  9  1  0  0  0  0
  9 10  1  0  0  0  0
 10 11  1  0  0  0  0
 11 12  1  0  0  0  0
 12 13  1  0  0  0  0
 13 14  1  0  0  0  0
M  END
>  <CHROM.1>
68.34028451,179.09916023,-72.17355557,-79.78201902,176.97577808,162.67691614
55.05054502,-141.90837061,-175.44748940,-63.20777296,-67.74307720,51.75897074
2.03641947,-2.30852352,0.06583050,-0.93937778,-0.09365142

>  <Name>
ligand

>  <RI>
0

>  <Rbt.Current_Directory>
/home/itssahil/PROJECTS/Mol_Feturizer/New_Systems/rnas/4FAW

>  <Rbt.Executable>
rbdock ($Id: //depot/dev/client3/rdock/2013.1/src/exe/rbdock.cxx#4 $)

>  <Rbt.Library>
libRbt.so (2013.1, Build901 2013/11/27)

>  <Rbt.Parameter_File>
/export/apps/rDock/src/rDock_2013.1_src/data/scripts/dock_solv.prm

>  <Rbt.Receptor>
prm/pocket_docking_7.prm

>  <SCORE>
-4.94641

>  <SCORE.INTER>
2.93169

>  <SCORE.INTER.CONST>
1

>  <SCORE.INTER.POLAR>
0

>  <SCORE.INTER.ROT>
11

>  <SCORE.INTER.SOLV>
6.09319

>  <SCORE.INTER.VDW>
-11.0099

>  <SCORE.INTER.norm>
0.209406

>  <SCORE.INTRA>
-7.8781

>  <SCORE.INTRA.DIHEDRAL>
-15.9987

>  <SCORE.INTRA.DIHEDRAL.0>
19.1003

>  <SCORE.INTRA.POLAR>
0

>  <SCORE.INTRA.POLAR.0>
0

>  <SCORE.INTRA.REPUL>
0

>  <SCORE.INTRA.REPUL.0>
0

>  <SCORE.INTRA.SOLV>
1.30368

>  <SCORE.INTRA.SOLV.lig_0>
-47.5333

>  <SCORE.INTRA.VDW>
-0.530615

>  <SCORE.INTRA.VDW.0>
-0.287413

>  <SCORE.INTRA.norm>
-0.562721

>  <SCORE.RESTR>
0

>  <SCORE.RESTR.CAVITY>
0

>  <SCORE.RESTR.norm>
0

>  <SCORE.SYSTEM>
0

>  <SCORE.SYSTEM.CONST>
0

>  <SCORE.SYSTEM.DIHEDRAL>
0

>  <SCORE.SYSTEM.SOLV>
0

>  <SCORE.SYSTEM.norm>
0

>  <SCORE.heavy>
14

>  <SCORE.norm>
-0.353315

>  <RMSD>
5.404

$$$$
ligand
 OpenBabel11021811493D
libRbt.so/2013.1/901 2013/11/27
 14 13  0  0  0  0  0  0  0  0999 V2000
   63.0199   -5.2583    3.4651 N   0  0  0  0  0  0  0  0  0  0  0  0
   61.8176   -5.7353    2.8178 C   0  0  0  0  0  0  0  0  0  0  0  0
   60.9922   -4.5262    2.3315 C   0  0  0  0  0  0  0  0  0  0  0  0
   60.4947   -3.6142    3.4637 C   0  0  0  0  0  0  0  0  0  0  0  0
   59.6855   -2.4589    3.0467 N   0  0  0  0  0  0  0  0  0  0  0  0
   60.2342   -1.2966    2.3503 C   0  0  0  0  0  0  0  0  0  0  0  0
   59.1588   -0.4059    1.7366 C   0  0  0  0  0  0  0  0  0  0  0  0
   58.2529   -1.1359    0.7396 C   0  0  0  0  0  0  0  0  0  0  0  0
   57.3541   -0.1664   -0.0371 C   0  0  0  0  0  0  0  0  0  0  0  0
   58.1736    0.6267   -0.9509 N   0  0  0  0  0  0  0  0  0  0  0  0
   57.6908    1.7888   -1.6992 C   0  0  0  0  0  0  0  0  0  0  0  0
   57.3023    2.9631   -0.7903 C   0  0  0  0  0  0  0  0  0  0  0  0
   56.7392    4.1353   -1.6006 C   0  0  0  0  0  0  0  0  0  0  0  0
   56.2520    5.1653   -0.6879 N   0  0  0  0  0  0  0  0  0  0  0  0
  1  2  1  0  0  0  0
  2  3  1  0  0  0  0
  3  4  1  0  0  0  0
  4  5  1  0  0  0  0
  5  6  1  0  0  0  0
  6  7  1  0  0  0  0
  7  8  1  0  0  0  0
  8  9  1  0  0  0  0
  9 10  1  0  0  0  0
 10 11  1  0  0  0  0
 11 12  1  0  0  0  0
 12 13  1  0  0  0  0
 13 14  1  0  0  0  0
M  END
>  <CHROM.1>
-63.19912044,-179.11092506,-71.21882042,166.08495102,-57.94664124,-169.85933547
69.42198956,-170.16861081,65.40065581,-177.26651293,173.92196224,59.08332999
-0.70857932,1.01316035,-0.19216338,-1.08929074,0.86843699

>  <Name>
ligand

>  <RI>
0

>  <Rbt.Current_Directory>
/home/itssahil/PROJECTS/Mol_Feturizer/New_Systems/rnas/4FAW

>  <Rbt.Executable>
rbdock ($Id: //depot/dev/client3/rdock/2013.1/src/exe/rbdock.cxx#4 $)

>  <Rbt.Library>
libRbt.so (2013.1, Build901 2013/11/27)

>  <Rbt.Parameter_File>
/export/apps/rDock/src/rDock_2013.1_src/data/scripts/dock_solv.prm

>  <Rbt.Receptor>
prm/pocket_docking_7.prm

>  <SCORE>
-10.8073

>  <SCORE.INTER>
-1.42897

>  <SCORE.INTER.CONST>
1

>  <SCORE.INTER.POLAR>
0

>  <SCORE.INTER.ROT>
11

>  <SCORE.INTER.SOLV>
15.0257

>  <SCORE.INTER.VDW>
-16.8946

>  <SCORE.INTER.norm>
-0.102069

>  <SCORE.INTRA>
-9.37834

>  <SCORE.INTRA.DIHEDRAL>
-17.7711

>  <SCORE.INTRA.DIHEDRAL.0>
19.1003

>  <SCORE.INTRA.POLAR>
0

>  <SCORE.INTRA.POLAR.0>
0

>  <SCORE.INTRA.REPUL>
0

>  <SCORE.INTRA.REPUL.0>
0

>  <SCORE.INTRA.SOLV>
0.0115666

>  <SCORE.INTRA.SOLV.lig_0>
-47.5333

>  <SCORE.INTRA.VDW>
-0.498591

>  <SCORE.INTRA.VDW.0>
-0.287413

>  <SCORE.INTRA.norm>
-0.669881

>  <SCORE.RESTR>
0

>  <SCORE.RESTR.CAVITY>
0

>  <SCORE.RESTR.norm>
0

>  <SCORE.SYSTEM>
0

>  <SCORE.SYSTEM.CONST>
0

>  <SCORE.SYSTEM.DIHEDRAL>
0

>  <SCORE.SYSTEM.SOLV>
0

>  <SCORE.SYSTEM.norm>
0

>  <SCORE.heavy>
14

>  <SCORE.norm>
-0.77195

>  <RMSD>
5.463

$$$$
ligand
 OpenBabel11021811493D
libRbt.so/2013.1/901 2013/11/27
 14 13  0  0  0  0  0  0  0  0999 V2000
   62.2447   -2.1348    7.4901 N   0  0  0  0  0  0  0  0  0  0  0  0
   61.8444   -2.7686    6.2532 C   0  0  0  0  0  0  0  0  0  0  0  0
   60.3179   -2.6255    6.0834 C   0  0  0  0  0  0  0  0  0  0  0  0
   59.7571   -3.3456    4.8473 C   0  0  0  0  0  0  0  0  0  0  0  0
   60.2917   -2.9026    3.5505 N   0  0  0  0  0  0  0  0  0  0  0  0
   59.5267   -2.9397    2.3054 C   0  0  0  0  0  0  0  0  0  0  0  0
   58.7664   -1.6458    2.0330 C   0  0  0  0  0  0  0  0  0  0  0  0
   58.0166   -1.6443    0.6969 C   0  0  0  0  0  0  0  0  0  0  0  0
   57.2852   -0.3196    0.4495 C   0  0  0  0  0  0  0  0  0  0  0  0
   58.2614    0.7653    0.3735 N   0  0  0  0  0  0  0  0  0  0  0  0
   57.9229    2.1674    0.1227 C   0  0  0  0  0  0  0  0  0  0  0  0
   57.6338    2.4549   -1.3572 C   0  0  0  0  0  0  0  0  0  0  0  0
   57.1847    3.9045   -1.5682 C   0  0  0  0  0  0  0  0  0  0  0  0
   55.9170    4.1241   -0.8782 N   0  0  0  0  0  0  0  0  0  0  0  0
  1  2  1  0  0  0  0
  2  3  1  0  0  0  0
  3  4  1  0  0  0  0
  4  5  1  0  0  0  0
  5  6  1  0  0  0  0
  6  7  1  0  0  0  0
  7  8  1  0  0  0  0
  8  9  1  0  0  0  0
  9 10  1  0  0  0  0
 10 11  1  0  0  0  0
 11 12  1  0  0  0  0
 12 13  1  0  0  0  0
 13 14  1  0  0  0  0
M  END
>  <CHROM.1>
-176.05701666,-59.98104352,-149.66016625,91.14374295,177.09908537,-179.04416570
62.41968945,178.87797459,-78.15600534,175.85491292,-63.99211009,58.92635564
-0.49376638,2.17136209,-0.61027150,-1.04628891,0.02107028

>  <Name>
ligand

>  <RI>
0

>  <Rbt.Current_Directory>
/home/itssahil/PROJECTS/Mol_Feturizer/New_Systems/rnas/4FAW

>  <Rbt.Executable>
rbdock ($Id: //depot/dev/client3/rdock/2013.1/src/exe/rbdock.cxx#4 $)

>  <Rbt.Library>
libRbt.so (2013.1, Build901 2013/11/27)

>  <Rbt.Parameter_File>
/export/apps/rDock/src/rDock_2013.1_src/data/scripts/dock_solv.prm

>  <Rbt.Receptor>
prm/pocket_docking_5.prm

>  <SCORE>
-8.58246

>  <SCORE.INTER>
0.658558

>  <SCORE.INTER.CONST>
1

>  <SCORE.INTER.POLAR>
0

>  <SCORE.INTER.ROT>
11

>  <SCORE.INTER.SOLV>
10.5108

>  <SCORE.INTER.VDW>
-13.9979

>  <SCORE.INTER.norm>
0.0470399

>  <SCORE.INTRA>
-9.24101

>  <SCORE.INTRA.DIHEDRAL>
-17.3602

>  <SCORE.INTRA.DIHEDRAL.0>
19.1003

>  <SCORE.INTRA.POLAR>
0

>  <SCORE.INTRA.POLAR.0>
0

>  <SCORE.INTRA.REPUL>
0

>  <SCORE.INTRA.REPUL.0>
0

>  <SCORE.INTRA.SOLV>
0.0691281

>  <SCORE.INTRA.SOLV.lig_0>
-47.5333

>  <SCORE.INTRA.VDW>
-0.595458

>  <SCORE.INTRA.VDW.0>
-0.287413

>  <SCORE.INTRA.norm>
-0.660072

>  <SCORE.RESTR>
0

>  <SCORE.RESTR.CAVITY>
0

>  <SCORE.RESTR.norm>
0

>  <SCORE.SYSTEM>
0

>  <SCORE.SYSTEM.CONST>
0

>  <SCORE.SYSTEM.DIHEDRAL>
0

>  <SCORE.SYSTEM.SOLV>
0

>  <SCORE.SYSTEM.norm>
0

>  <SCORE.heavy>
14

>  <SCORE.norm>
-0.613033

>  <RMSD>
5.465

$$$$
ligand
 OpenBabel11021811493D
libRbt.so/2013.1/901 2013/11/27
 14 13  0  0  0  0  0  0  0  0999 V2000
   53.3912    3.9303    6.5683 N   0  0  0  0  0  0  0  0  0  0  0  0
   53.5954    2.5021    6.4651 C   0  0  0  0  0  0  0  0  0  0  0  0
   54.3137    2.1895    5.1363 C   0  0  0  0  0  0  0  0  0  0  0  0
   54.5660    0.6922    4.9004 C   0  0  0  0  0  0  0  0  0  0  0  0
   55.2509    0.3481    3.6450 N   0  0  0  0  0  0  0  0  0  0  0  0
   54.8483   -0.7610    2.7820 C   0  0  0  0  0  0  0  0  0  0  0  0
   55.5214   -0.7275    1.4137 C   0  0  0  0  0  0  0  0  0  0  0  0
   57.0387   -0.9322    1.4711 C   0  0  0  0  0  0  0  0  0  0  0  0
   57.6998   -0.7182    0.1043 C   0  0  0  0  0  0  0  0  0  0  0  0
   57.5780    0.6872   -0.2775 N   0  0  0  0  0  0  0  0  0  0  0  0
   57.8973    1.2150   -1.6053 C   0  0  0  0  0  0  0  0  0  0  0  0
   57.7992    2.7452   -1.6774 C   0  0  0  0  0  0  0  0  0  0  0  0
   56.3612    3.2247   -1.4535 C   0  0  0  0  0  0  0  0  0  0  0  0
   56.3097    4.6780   -1.5821 N   0  0  0  0  0  0  0  0  0  0  0  0
  1  2  1  0  0  0  0
  2  3  1  0  0  0  0
  3  4  1  0  0  0  0
  4  5  1  0  0  0  0
  5  6  1  0  0  0  0
  6  7  1  0  0  0  0
  7  8  1  0  0  0  0
  8  9  1  0  0  0  0
  9 10  1  0  0  0  0
 10 11  1  0  0  0  0
 11 12  1  0  0  0  0
 12 13  1  0  0  0  0
 13 14  1  0  0  0  0
M  END
>  <CHROM.1>
-178.99938472,-179.91916081,-136.48640943,167.86763362,65.45786825,-172.85092856
66.76885299,-169.62556050,-174.62817364,-64.74414377,-177.84238678,55.86945849
1.36196150,1.84921905,2.79309639,-1.08440662,2.71867476

>  <Name>
ligand

>  <RI>
0

>  <Rbt.Current_Directory>
/home/itssahil/PROJECTS/Mol_Feturizer/New_Systems/rnas/4FAW

>  <Rbt.Executable>
rbdock ($Id: //depot/dev/client3/rdock/2013.1/src/exe/rbdock.cxx#4 $)

>  <Rbt.Library>
libRbt.so (2013.1, Build901 2013/11/27)

>  <Rbt.Parameter_File>
/export/apps/rDock/src/rDock_2013.1_src/data/scripts/dock_solv.prm

>  <Rbt.Receptor>
prm/pocket_docking_6.prm

>  <SCORE>
-10.3948

>  <SCORE.INTER>
-0.552665

>  <SCORE.INTER.CONST>
1

>  <SCORE.INTER.POLAR>
0

>  <SCORE.INTER.ROT>
11

>  <SCORE.INTER.SOLV>
11.8081

>  <SCORE.INTER.VDW>
-15.2378

>  <SCORE.INTER.norm>
-0.0394761

>  <SCORE.INTRA>
-9.84212

>  <SCORE.INTRA.DIHEDRAL>
-17.2819

>  <SCORE.INTRA.DIHEDRAL.0>
19.1003

>  <SCORE.INTRA.POLAR>
0

>  <SCORE.INTRA.POLAR.0>
0

>  <SCORE.INTRA.REPUL>
0

>  <SCORE.INTRA.REPUL.0>
0

>  <SCORE.INTRA.SOLV>
-0.401212

>  <SCORE.INTRA.SOLV.lig_0>
-47.5333

>  <SCORE.INTRA.VDW>
-1.00057

>  <SCORE.INTRA.VDW.0>
-0.287413

>  <SCORE.INTRA.norm>
-0.703008

>  <SCORE.RESTR>
0

>  <SCORE.RESTR.CAVITY>
0

>  <SCORE.RESTR.norm>
0

>  <SCORE.SYSTEM>
0

>  <SCORE.SYSTEM.CONST>
0

>  <SCORE.SYSTEM.DIHEDRAL>
0

>  <SCORE.SYSTEM.SOLV>
0

>  <SCORE.SYSTEM.norm>
0

>  <SCORE.heavy>
14

>  <SCORE.norm>
-0.742484

>  <RMSD>
5.483

$$$$
ligand
 OpenBabel11021811493D
libRbt.so/2013.1/901 2013/11/27
 14 13  0  0  0  0  0  0  0  0999 V2000
   54.8279    3.0298    1.5373 N   0  0  0  0  0  0  0  0  0  0  0  0
   53.8291    1.9888    1.6411 C   0  0  0  0  0  0  0  0  0  0  0  0
   54.4478    0.6489    1.1925 C   0  0  0  0  0  0  0  0  0  0  0  0
   55.5960    0.1603    2.0891 C   0  0  0  0  0  0  0  0  0  0  0  0
   56.2092   -1.1200    1.7037 N   0  0  0  0  0  0  0  0  0  0  0  0
   57.2396   -1.2455    0.6744 C   0  0  0  0  0  0  0  0  0  0  0  0
   58.5799   -0.6520    1.0960 C   0  0  0  0  0  0  0  0  0  0  0  0
   59.1501   -1.2718    2.3759 C   0  0  0  0  0  0  0  0  0  0  0  0
   60.5142   -0.6767    2.7448 C   0  0  0  0  0  0  0  0  0  0  0  0
   60.9612   -1.2421    4.0161 N   0  0  0  0  0  0  0  0  0  0  0  0
   62.2498   -0.9478    4.6455 C   0  0  0  0  0  0  0  0  0  0  0  0
   62.2769   -1.2987    6.1396 C   0  0  0  0  0  0  0  0  0  0  0  0
   61.3314   -0.3994    6.9427 C   0  0  0  0  0  0  0  0  0  0  0  0
   61.3261   -0.8264    8.3387 N   0  0  0  0  0  0  0  0  0  0  0  0
  1  2  1  0  0  0  0
  2  3  1  0  0  0  0
  3  4  1  0  0  0  0
  4  5  1  0  0  0  0
  5  6  1  0  0  0  0
  6  7  1  0  0  0  0
  7  8  1  0  0  0  0
  8  9  1  0  0  0  0
  9 10  1  0  0  0  0
 10 11  1  0  0  0  0
 11 12  1  0  0  0  0
 12 13  1  0  0  0  0
 13 14  1  0  0  0  0
M  END
>  <CHROM.1>
64.01963073,179.55818343,82.51704526,70.08401130,57.90985011,178.42876364
176.27313043,177.10334171,161.56937752,-66.54562358,176.34816070,58.46713368
-0.27527123,3.22382464,2.69723265,0.49905813,-1.97488881

>  <Name>
ligand

>  <RI>
0

>  <Rbt.Current_Directory>
/home/itssahil/PROJECTS/Mol_Feturizer/New_Systems/rnas/4FAW

>  <Rbt.Executable>
rbdock ($Id: //depot/dev/client3/rdock/2013.1/src/exe/rbdock.cxx#4 $)

>  <Rbt.Library>
libRbt.so (2013.1, Build901 2013/11/27)

>  <Rbt.Parameter_File>
/export/apps/rDock/src/rDock_2013.1_src/data/scripts/dock_solv.prm

>  <Rbt.Receptor>
prm/pocket_docking_7.prm

>  <SCORE>
-7.95335

>  <SCORE.INTER>
1.73486

>  <SCORE.INTER.CONST>
1

>  <SCORE.INTER.POLAR>
0

>  <SCORE.INTER.ROT>
11

>  <SCORE.INTER.SOLV>
9.40053

>  <SCORE.INTER.VDW>
-12.9103

>  <SCORE.INTER.norm>
0.123918

>  <SCORE.INTRA>
-9.6882

>  <SCORE.INTRA.DIHEDRAL>
-18.0308

>  <SCORE.INTRA.DIHEDRAL.0>
19.1003

>  <SCORE.INTRA.POLAR>
0

>  <SCORE.INTRA.POLAR.0>
0

>  <SCORE.INTRA.REPUL>
0

>  <SCORE.INTRA.REPUL.0>
0

>  <SCORE.INTRA.SOLV>
-0.0403621

>  <SCORE.INTRA.SOLV.lig_0>
-47.5333

>  <SCORE.INTRA.VDW>
-0.652631

>  <SCORE.INTRA.VDW.0>
-0.287413

>  <SCORE.INTRA.norm>
-0.692015

>  <SCORE.RESTR>
0

>  <SCORE.RESTR.CAVITY>
0

>  <SCORE.RESTR.norm>
0

>  <SCORE.SYSTEM>
0

>  <SCORE.SYSTEM.CONST>
0

>  <SCORE.SYSTEM.DIHEDRAL>
0

>  <SCORE.SYSTEM.SOLV>
0

>  <SCORE.SYSTEM.norm>
0

>  <SCORE.heavy>
14

>  <SCORE.norm>
-0.568096

>  <RMSD>
5.500

$$$$
ligand
 OpenBabel11021811493D
libRbt.so/2013.1/901 2013/11/27
 14 13  0  0  0  0  0  0  0  0999 V2000
   48.4636   -1.9509   -7.0170 N   0  0  0  0  0  0  0  0  0  0  0  0
   48.4949   -2.3370   -5.6234 C   0  0  0  0  0  0  0  0  0  0  0  0
   48.2617   -1.0883   -4.7482 C   0  0  0  0  0  0  0  0  0  0  0  0
   49.3526   -0.0153   -4.8884 C   0  0  0  0  0  0  0  0  0  0  0  0
   50.7181   -0.4416   -4.5464 N   0  0  0  0  0  0  0  0  0  0  0  0
   51.1852   -0.6349   -3.1747 C   0  0  0  0  0  0  0  0  0  0  0  0
   51.5244    0.6743   -2.4695 C   0  0  0  0  0  0  0  0  0  0  0  0
   52.0325    0.4856   -1.0364 C   0  0  0  0  0  0  0  0  0  0  0  0
   52.3721    1.8221   -0.3662 C   0  0  0  0  0  0  0  0  0  0  0  0
   53.1129    1.5702    0.8681 N   0  0  0  0  0  0  0  0  0  0  0  0
   53.6862    2.6157    1.7176 C   0  0  0  0  0  0  0  0  0  0  0  0
   53.9748    2.1314    3.1453 C   0  0  0  0  0  0  0  0  0  0  0  0
   54.5054    3.2682    4.0251 C   0  0  0  0  0  0  0  0  0  0  0  0
   54.7976    2.7521    5.3591 N   0  0  0  0  0  0  0  0  0  0  0  0
  1  2  1  0  0  0  0
  2  3  1  0  0  0  0
  3  4  1  0  0  0  0
  4  5  1  0  0  0  0
  5  6  1  0  0  0  0
  6  7  1  0  0  0  0
  7  8  1  0  0  0  0
  8  9  1  0  0  0  0
  9 10  1  0  0  0  0
 10 11  1  0  0  0  0
 11 12  1  0  0  0  0
 12 13  1  0  0  0  0
 13 14  1  0  0  0  0
M  END
>  <CHROM.1>
-63.01012891,-59.30253409,-75.16939538,-78.61808181,-179.25884031,179.57364394
-167.84781610,175.28850322,160.33800206,-177.06767037,-178.51368253,51.60579224
0.63232368,-1.33964071,-2.33550864,0.82996528,1.77119861

>  <Name>
ligand

>  <RI>
0

>  <Rbt.Current_Directory>
/home/itssahil/PROJECTS/Mol_Feturizer/New_Systems/rnas/4FAW

>  <Rbt.Executable>
rbdock ($Id: //depot/dev/client3/rdock/2013.1/src/exe/rbdock.cxx#4 $)

>  <Rbt.Library>
libRbt.so (2013.1, Build901 2013/11/27)

>  <Rbt.Parameter_File>
/export/apps/rDock/src/rDock_2013.1_src/data/scripts/dock_solv.prm

>  <Rbt.Receptor>
prm/pocket_docking_7.prm

>  <SCORE>
-9.81085

>  <SCORE.INTER>
-0.342354

>  <SCORE.INTER.CONST>
1

>  <SCORE.INTER.POLAR>
0

>  <SCORE.INTER.ROT>
11

>  <SCORE.INTER.SOLV>
6.94697

>  <SCORE.INTER.VDW>
-13.4772

>  <SCORE.INTER.norm>
-0.0244538

>  <SCORE.INTRA>
-9.4685

>  <SCORE.INTRA.DIHEDRAL>
-17.7288

>  <SCORE.INTRA.DIHEDRAL.0>
19.1003

>  <SCORE.INTRA.POLAR>
0

>  <SCORE.INTRA.POLAR.0>
0

>  <SCORE.INTRA.REPUL>
0

>  <SCORE.INTRA.REPUL.0>
0

>  <SCORE.INTRA.SOLV>
0.247953

>  <SCORE.INTRA.SOLV.lig_0>
-47.5333

>  <SCORE.INTRA.VDW>
-0.728096

>  <SCORE.INTRA.VDW.0>
-0.287413

>  <SCORE.INTRA.norm>
-0.676321

>  <SCORE.RESTR>
0

>  <SCORE.RESTR.CAVITY>
0

>  <SCORE.RESTR.norm>
0

>  <SCORE.SYSTEM>
0

>  <SCORE.SYSTEM.CONST>
0

>  <SCORE.SYSTEM.DIHEDRAL>
0

>  <SCORE.SYSTEM.SOLV>
0

>  <SCORE.SYSTEM.norm>
0

>  <SCORE.heavy>
14

>  <SCORE.norm>
-0.700775

>  <RMSD>
5.521

$$$$
ligand
 OpenBabel11021811493D
libRbt.so/2013.1/901 2013/11/27
 14 13  0  0  0  0  0  0  0  0999 V2000
   56.3818    4.2208    0.2709 N   0  0  0  0  0  0  0  0  0  0  0  0
   56.5575    2.8328   -0.0960 C   0  0  0  0  0  0  0  0  0  0  0  0
   57.6013    2.7378   -1.2277 C   0  0  0  0  0  0  0  0  0  0  0  0
   57.7725    1.3228   -1.8018 C   0  0  0  0  0  0  0  0  0  0  0  0
   58.2650    0.3051   -0.8609 N   0  0  0  0  0  0  0  0  0  0  0  0
   57.4137   -0.3737    0.1145 C   0  0  0  0  0  0  0  0  0  0  0  0
   58.1810   -1.3515    0.9985 C   0  0  0  0  0  0  0  0  0  0  0  0
   59.3277   -0.7022    1.7801 C   0  0  0  0  0  0  0  0  0  0  0  0
   60.1934   -1.7422    2.5011 C   0  0  0  0  0  0  0  0  0  0  0  0
   59.4245   -2.3408    3.5901 N   0  0  0  0  0  0  0  0  0  0  0  0
   59.9224   -3.3989    4.4710 C   0  0  0  0  0  0  0  0  0  0  0  0
   59.1066   -3.5301    5.7646 C   0  0  0  0  0  0  0  0  0  0  0  0
   59.5826   -4.7172    6.6083 C   0  0  0  0  0  0  0  0  0  0  0  0
   60.9320   -4.4528    7.0986 N   0  0  0  0  0  0  0  0  0  0  0  0
  1  2  1  0  0  0  0
  2  3  1  0  0  0  0
  3  4  1  0  0  0  0
  4  5  1  0  0  0  0
  5  6  1  0  0  0  0
  6  7  1  0  0  0  0
  7  8  1  0  0  0  0
  8  9  1  0  0  0  0
  9 10  1  0  0  0  0
 10 11  1  0  0  0  0
 11 12  1  0  0  0  0
 12 13  1  0  0  0  0
 13 14  1  0  0  0  0
M  END
>  <CHROM.1>
-174.20903485,-62.72245677,80.21802301,-178.17652393,57.82416243,-172.04323405
-69.14304761,178.33391002,162.07857996,175.38489849,66.88143774,58.61865749
-0.79938145,2.08633111,2.25068988,1.08770906,-1.43237727

>  <Name>
ligand

>  <RI>
0

>  <Rbt.Current_Directory>
/home/itssahil/PROJECTS/Mol_Feturizer/New_Systems/rnas/4FAW

>  <Rbt.Executable>
rbdock ($Id: //depot/dev/client3/rdock/2013.1/src/exe/rbdock.cxx#4 $)

>  <Rbt.Library>
libRbt.so (2013.1, Build901 2013/11/27)

>  <Rbt.Parameter_File>
/export/apps/rDock/src/rDock_2013.1_src/data/scripts/dock_solv.prm

>  <Rbt.Receptor>
prm/pocket_docking_6.prm

>  <SCORE>
-9.14271

>  <SCORE.INTER>
0.198871

>  <SCORE.INTER.CONST>
1

>  <SCORE.INTER.POLAR>
0

>  <SCORE.INTER.ROT>
11

>  <SCORE.INTER.SOLV>
12.4634

>  <SCORE.INTER.VDW>
-14.9552

>  <SCORE.INTER.norm>
0.0142051

>  <SCORE.INTRA>
-9.34158

>  <SCORE.INTRA.DIHEDRAL>
-17.5428

>  <SCORE.INTRA.DIHEDRAL.0>
19.1003

>  <SCORE.INTRA.POLAR>
0

>  <SCORE.INTRA.POLAR.0>
0

>  <SCORE.INTRA.REPUL>
0

>  <SCORE.INTRA.REPUL.0>
0

>  <SCORE.INTRA.SOLV>
0.319893

>  <SCORE.INTRA.SOLV.lig_0>
-47.5333

>  <SCORE.INTRA.VDW>
-0.730121

>  <SCORE.INTRA.VDW.0>
-0.287413

>  <SCORE.INTRA.norm>
-0.667256

>  <SCORE.RESTR>
0

>  <SCORE.RESTR.CAVITY>
0

>  <SCORE.RESTR.norm>
0

>  <SCORE.SYSTEM>
0

>  <SCORE.SYSTEM.CONST>
0

>  <SCORE.SYSTEM.DIHEDRAL>
0

>  <SCORE.SYSTEM.SOLV>
0

>  <SCORE.SYSTEM.norm>
0

>  <SCORE.heavy>
14

>  <SCORE.norm>
-0.65305

>  <RMSD>
5.523

$$$$
ligand
 OpenBabel11021811493D
libRbt.so/2013.1/901 2013/11/27
 14 13  0  0  0  0  0  0  0  0999 V2000
   57.4159    2.4159    1.3336 N   0  0  0  0  0  0  0  0  0  0  0  0
   56.0848    2.4849    0.7719 C   0  0  0  0  0  0  0  0  0  0  0  0
   55.0498    2.3421    1.9068 C   0  0  0  0  0  0  0  0  0  0  0  0
   53.5899    2.4001    1.4311 C   0  0  0  0  0  0  0  0  0  0  0  0
   53.1794    1.3441    0.4931 N   0  0  0  0  0  0  0  0  0  0  0  0
   52.4512    1.6031   -0.7477 C   0  0  0  0  0  0  0  0  0  0  0  0
   51.9914    0.3281   -1.4473 C   0  0  0  0  0  0  0  0  0  0  0  0
   51.3560    0.5760   -2.8192 C   0  0  0  0  0  0  0  0  0  0  0  0
   50.8564   -0.7221   -3.4645 C   0  0  0  0  0  0  0  0  0  0  0  0
   49.9267   -0.3990   -4.5448 N   0  0  0  0  0  0  0  0  0  0  0  0
   48.5322   -0.8419   -4.5971 C   0  0  0  0  0  0  0  0  0  0  0  0
   48.3596   -2.1810   -5.3273 C   0  0  0  0  0  0  0  0  0  0  0  0
   48.5840   -2.0289   -6.8353 C   0  0  0  0  0  0  0  0  0  0  0  0
   49.9714   -1.6478   -7.0825 N   0  0  0  0  0  0  0  0  0  0  0  0
  1  2  1  0  0  0  0
  2  3  1  0  0  0  0
  3  4  1  0  0  0  0
  4  5  1  0  0  0  0
  5  6  1  0  0  0  0
  6  7  1  0  0  0  0
  7  8  1  0  0  0  0
  8  9  1  0  0  0  0
  9 10  1  0  0  0  0
 10 11  1  0  0  0  0
 11 12  1  0  0  0  0
 12 13  1  0  0  0  0
 13 14  1  0  0  0  0
M  END
>  <CHROM.1>
-179.99914965,61.51631398,-132.00820229,-172.61442878,-173.99253598,-177.69364803
163.19287694,-120.43349566,-90.82332854,-71.23427344,64.70749000,51.95319451
0.40524562,-2.20911451,-0.89782878,-0.14672629,-1.95367610

>  <Name>
ligand

>  <RI>
0

>  <Rbt.Current_Directory>
/home/itssahil/PROJECTS/Mol_Feturizer/New_Systems/rnas/4FAW

>  <Rbt.Executable>
rbdock ($Id: //depot/dev/client3/rdock/2013.1/src/exe/rbdock.cxx#4 $)

>  <Rbt.Library>
libRbt.so (2013.1, Build901 2013/11/27)

>  <Rbt.Parameter_File>
/export/apps/rDock/src/rDock_2013.1_src/data/scripts/dock_solv.prm

>  <Rbt.Receptor>
prm/pocket_docking_7.prm

>  <SCORE>
-6.58312

>  <SCORE.INTER>
0.599816

>  <SCORE.INTER.CONST>
1

>  <SCORE.INTER.POLAR>
0

>  <SCORE.INTER.ROT>
11

>  <SCORE.INTER.SOLV>
7.31762

>  <SCORE.INTER.VDW>
-12.9727

>  <SCORE.INTER.norm>
0.042844

>  <SCORE.INTRA>
-7.18294

>  <SCORE.INTRA.DIHEDRAL>
-14.4299

>  <SCORE.INTRA.DIHEDRAL.0>
19.1003

>  <SCORE.INTRA.POLAR>
0

>  <SCORE.INTRA.POLAR.0>
0

>  <SCORE.INTRA.REPUL>
0

>  <SCORE.INTRA.REPUL.0>
0

>  <SCORE.INTRA.SOLV>
2.00251

>  <SCORE.INTRA.SOLV.lig_0>
-47.5333

>  <SCORE.INTRA.VDW>
-0.969256

>  <SCORE.INTRA.VDW.0>
-0.287413

>  <SCORE.INTRA.norm>
-0.513067

>  <SCORE.RESTR>
0

>  <SCORE.RESTR.CAVITY>
0

>  <SCORE.RESTR.norm>
0

>  <SCORE.SYSTEM>
0

>  <SCORE.SYSTEM.CONST>
0

>  <SCORE.SYSTEM.DIHEDRAL>
0

>  <SCORE.SYSTEM.SOLV>
0

>  <SCORE.SYSTEM.norm>
0

>  <SCORE.heavy>
14

>  <SCORE.norm>
-0.470223

>  <RMSD>
5.559

$$$$
ligand
 OpenBabel11021811493D
libRbt.so/2013.1/901 2013/11/27
 14 13  0  0  0  0  0  0  0  0999 V2000
   61.0606   -0.5994    8.4845 N   0  0  0  0  0  0  0  0  0  0  0  0
   62.3660   -0.6060    7.8616 C   0  0  0  0  0  0  0  0  0  0  0  0
   62.2727   -1.3274    6.5013 C   0  0  0  0  0  0  0  0  0  0  0  0
   61.4019   -0.5981    5.4665 C   0  0  0  0  0  0  0  0  0  0  0  0
   61.2177   -1.2909    4.1821 N   0  0  0  0  0  0  0  0  0  0  0  0
   60.6443   -0.6569    2.9964 C   0  0  0  0  0  0  0  0  0  0  0  0
   59.3731   -1.3438    2.5078 C   0  0  0  0  0  0  0  0  0  0  0  0
   58.7526   -0.6805    1.2740 C   0  0  0  0  0  0  0  0  0  0  0  0
   57.4226   -1.3328    0.8783 C   0  0  0  0  0  0  0  0  0  0  0  0
   56.4406   -1.1110    1.9376 N   0  0  0  0  0  0  0  0  0  0  0  0
   55.7694    0.1653    2.1902 C   0  0  0  0  0  0  0  0  0  0  0  0
   54.5814    0.4100    1.2495 C   0  0  0  0  0  0  0  0  0  0  0  0
   53.9676    1.7961    1.4723 C   0  0  0  0  0  0  0  0  0  0  0  0
   52.8736    1.9989    0.5271 N   0  0  0  0  0  0  0  0  0  0  0  0
  1  2  1  0  0  0  0
  2  3  1  0  0  0  0
  3  4  1  0  0  0  0
  4  5  1  0  0  0  0
  5  6  1  0  0  0  0
  6  7  1  0  0  0  0
  7  8  1  0  0  0  0
  8  9  1  0  0  0  0
  9 10  1  0  0  0  0
 10 11  1  0  0  0  0
 11 12  1  0  0  0  0
 12 13  1  0  0  0  0
 13 14  1  0  0  0  0
M  END
>  <CHROM.1>
65.60402208,-176.40399580,-168.01012761,-119.68772793,179.38261080,-175.65218053
64.96699694,74.72890075,80.95575745,-175.82435392,178.11714288,58.43908462
-0.36980289,3.39477814,0.53779522,-0.42950247,1.25494475

>  <Name>
ligand

>  <RI>
0

>  <Rbt.Current_Directory>
/home/itssahil/PROJECTS/Mol_Feturizer/New_Systems/rnas/4FAW

>  <Rbt.Executable>
rbdock ($Id: //depot/dev/client3/rdock/2013.1/src/exe/rbdock.cxx#4 $)

>  <Rbt.Library>
libRbt.so (2013.1, Build901 2013/11/27)

>  <Rbt.Parameter_File>
/export/apps/rDock/src/rDock_2013.1_src/data/scripts/dock_solv.prm

>  <Rbt.Receptor>
prm/pocket_docking_8.prm

>  <SCORE>
-7.74562

>  <SCORE.INTER>
1.4065

>  <SCORE.INTER.CONST>
1

>  <SCORE.INTER.POLAR>
0

>  <SCORE.INTER.ROT>
11

>  <SCORE.INTER.SOLV>
10.1962

>  <SCORE.INTER.VDW>
-13.3944

>  <SCORE.INTER.norm>
0.100464

>  <SCORE.INTRA>
-9.15212

>  <SCORE.INTRA.DIHEDRAL>
-16.8708

>  <SCORE.INTRA.DIHEDRAL.0>
19.1003

>  <SCORE.INTRA.POLAR>
0

>  <SCORE.INTRA.POLAR.0>
0

>  <SCORE.INTRA.REPUL>
0

>  <SCORE.INTRA.REPUL.0>
0

>  <SCORE.INTRA.SOLV>
-0.36899

>  <SCORE.INTRA.SOLV.lig_0>
-47.5333

>  <SCORE.INTRA.VDW>
-0.532212

>  <SCORE.INTRA.VDW.0>
-0.287413

>  <SCORE.INTRA.norm>
-0.653723

>  <SCORE.RESTR>
0

>  <SCORE.RESTR.CAVITY>
0

>  <SCORE.RESTR.norm>
0

>  <SCORE.SYSTEM>
0

>  <SCORE.SYSTEM.CONST>
0

>  <SCORE.SYSTEM.DIHEDRAL>
0

>  <SCORE.SYSTEM.SOLV>
0

>  <SCORE.SYSTEM.norm>
0

>  <SCORE.heavy>
14

>  <SCORE.norm>
-0.553259

>  <RMSD>
5.568

$$$$
ligand
 OpenBabel11021811493D
libRbt.so/2013.1/901 2013/11/27
 14 13  0  0  0  0  0  0  0  0999 V2000
   56.4118    4.6740   -1.2365 N   0  0  0  0  0  0  0  0  0  0  0  0
   56.4574    3.2443   -1.0221 C   0  0  0  0  0  0  0  0  0  0  0  0
   57.7704    2.6872   -1.6097 C   0  0  0  0  0  0  0  0  0  0  0  0
   57.9097    1.1616   -1.4906 C   0  0  0  0  0  0  0  0  0  0  0  0
   57.9664    0.6286   -0.1208 N   0  0  0  0  0  0  0  0  0  0  0  0
   58.0334   -0.7983    0.1894 C   0  0  0  0  0  0  0  0  0  0  0  0
   58.4246   -1.0768    1.6371 C   0  0  0  0  0  0  0  0  0  0  0  0
   59.8223   -0.5673    2.0039 C   0  0  0  0  0  0  0  0  0  0  0  0
   60.1757   -0.8609    3.4667 C   0  0  0  0  0  0  0  0  0  0  0  0
   60.3379   -2.3022    3.6456 N   0  0  0  0  0  0  0  0  0  0  0  0
   60.0609   -3.0180    4.8923 C   0  0  0  0  0  0  0  0  0  0  0  0
   60.6356   -4.4414    4.9022 C   0  0  0  0  0  0  0  0  0  0  0  0
   60.2177   -5.2046    6.1634 C   0  0  0  0  0  0  0  0  0  0  0  0
   60.7953   -4.5550    7.3363 N   0  0  0  0  0  0  0  0  0  0  0  0
  1  2  1  0  0  0  0
  2  3  1  0  0  0  0
  3  4  1  0  0  0  0
  4  5  1  0  0  0  0
  5  6  1  0  0  0  0
  6  7  1  0  0  0  0
  7  8  1  0  0  0  0
  8  9  1  0  0  0  0
  9 10  1  0  0  0  0
 10 11  1  0  0  0  0
 11 12  1  0  0  0  0
 12 13  1  0  0  0  0
 13 14  1  0  0  0  0
M  END
>  <CHROM.1>
-177.75055972,-63.42985029,176.97538863,165.86788850,-62.54575592,179.76751865
68.42886884,-150.17170478,-165.95677625,-174.73156957,-64.33391060,58.92994857
-0.74505556,2.05393663,-3.13148976,1.24054957,-2.37087195

>  <Name>
ligand

>  <RI>
0

>  <Rbt.Current_Directory>
/home/itssahil/PROJECTS/Mol_Feturizer/New_Systems/rnas/4FAW

>  <Rbt.Executable>
rbdock ($Id: //depot/dev/client3/rdock/2013.1/src/exe/rbdock.cxx#4 $)

>  <Rbt.Library>
libRbt.so (2013.1, Build901 2013/11/27)

>  <Rbt.Parameter_File>
/export/apps/rDock/src/rDock_2013.1_src/data/scripts/dock_solv.prm

>  <Rbt.Receptor>
prm/pocket_docking_7.prm

>  <SCORE>
-9.87798

>  <SCORE.INTER>
-0.343292

>  <SCORE.INTER.CONST>
1

>  <SCORE.INTER.POLAR>
0

>  <SCORE.INTER.ROT>
11

>  <SCORE.INTER.SOLV>
11.5134

>  <SCORE.INTER.VDW>
-15

>  <SCORE.INTER.norm>
-0.0245209

>  <SCORE.INTRA>
-9.53469

>  <SCORE.INTRA.DIHEDRAL>
-17.6585

>  <SCORE.INTRA.DIHEDRAL.0>
19.1003

>  <SCORE.INTRA.POLAR>
0

>  <SCORE.INTRA.POLAR.0>
0

>  <SCORE.INTRA.REPUL>
0

>  <SCORE.INTRA.REPUL.0>
0

>  <SCORE.INTRA.SOLV>
0.312492

>  <SCORE.INTRA.SOLV.lig_0>
-47.5333

>  <SCORE.INTRA.VDW>
-0.861679

>  <SCORE.INTRA.VDW.0>
-0.287413

>  <SCORE.INTRA.norm>
-0.681049

>  <SCORE.RESTR>
0

>  <SCORE.RESTR.CAVITY>
0

>  <SCORE.RESTR.norm>
0

>  <SCORE.SYSTEM>
0

>  <SCORE.SYSTEM.CONST>
0

>  <SCORE.SYSTEM.DIHEDRAL>
0

>  <SCORE.SYSTEM.SOLV>
0

>  <SCORE.SYSTEM.norm>
0

>  <SCORE.heavy>
14

>  <SCORE.norm>
-0.70557

>  <RMSD>
5.576

$$$$
ligand
 OpenBabel11021811493D
libRbt.so/2013.1/901 2013/11/27
 14 13  0  0  0  0  0  0  0  0999 V2000
   55.4989    4.5857   -1.6785 N   0  0  0  0  0  0  0  0  0  0  0  0
   55.2006    3.7023   -0.5727 C   0  0  0  0  0  0  0  0  0  0  0  0
   53.8331    3.0317   -0.8168 C   0  0  0  0  0  0  0  0  0  0  0  0
   53.4041    2.0650    0.2979 C   0  0  0  0  0  0  0  0  0  0  0  0
   52.1155    1.3853    0.0954 N   0  0  0  0  0  0  0  0  0  0  0  0
   51.9303    0.2588   -0.8177 C   0  0  0  0  0  0  0  0  0  0  0  0
   51.7853    0.6884   -2.2739 C   0  0  0  0  0  0  0  0  0  0  0  0
   51.4897   -0.4721   -3.2296 C   0  0  0  0  0  0  0  0  0  0  0  0
   51.3345    0.0021   -4.6794 C   0  0  0  0  0  0  0  0  0  0  0  0
   50.1415    0.8390   -4.7898 N   0  0  0  0  0  0  0  0  0  0  0  0
   50.1031    2.2702   -4.4838 C   0  0  0  0  0  0  0  0  0  0  0  0
   48.6824    2.7825   -4.2089 C   0  0  0  0  0  0  0  0  0  0  0  0
   48.6892    4.2605   -3.8050 C   0  0  0  0  0  0  0  0  0  0  0  0
   49.1378    5.0693   -4.9346 N   0  0  0  0  0  0  0  0  0  0  0  0
  1  2  1  0  0  0  0
  2  3  1  0  0  0  0
  3  4  1  0  0  0  0
  4  5  1  0  0  0  0
  5  6  1  0  0  0  0
  6  7  1  0  0  0  0
  7  8  1  0  0  0  0
  8  9  1  0  0  0  0
  9 10  1  0  0  0  0
 10 11  1  0  0  0  0
 11 12  1  0  0  0  0
 12 13  1  0  0  0  0
 13 14  1  0  0  0  0
M  END
>  <CHROM.1>
-179.96109058,-179.01271238,76.59864171,-80.09331792,-175.83109699,179.31602138
-66.17324610,84.11023923,-159.85896272,176.34999242,65.85609280,51.66753770
2.17601546,-2.56399252,-0.04474393,-0.69903201,-0.11657659

>  <Name>
ligand

>  <RI>
0

>  <Rbt.Current_Directory>
/home/itssahil/PROJECTS/Mol_Feturizer/New_Systems/rnas/4FAW

>  <Rbt.Executable>
rbdock ($Id: //depot/dev/client3/rdock/2013.1/src/exe/rbdock.cxx#4 $)

>  <Rbt.Library>
libRbt.so (2013.1, Build901 2013/11/27)

>  <Rbt.Parameter_File>
/export/apps/rDock/src/rDock_2013.1_src/data/scripts/dock_solv.prm

>  <Rbt.Receptor>
prm/pocket_docking_5.prm

>  <SCORE>
-9.04731

>  <SCORE.INTER>
0.286661

>  <SCORE.INTER.CONST>
1

>  <SCORE.INTER.POLAR>
0

>  <SCORE.INTER.ROT>
11

>  <SCORE.INTER.SOLV>
8.11352

>  <SCORE.INTER.VDW>
-13.4467

>  <SCORE.INTER.norm>
0.0204758

>  <SCORE.INTRA>
-9.33397

>  <SCORE.INTRA.DIHEDRAL>
-17.4703

>  <SCORE.INTRA.DIHEDRAL.0>
19.1003

>  <SCORE.INTRA.POLAR>
0

>  <SCORE.INTRA.POLAR.0>
0

>  <SCORE.INTRA.REPUL>
0

>  <SCORE.INTRA.REPUL.0>
0

>  <SCORE.INTRA.SOLV>
-0.358628

>  <SCORE.INTRA.SOLV.lig_0>
-47.5333

>  <SCORE.INTRA.VDW>
-0.419502

>  <SCORE.INTRA.VDW.0>
-0.287413

>  <SCORE.INTRA.norm>
-0.666712

>  <SCORE.RESTR>
0

>  <SCORE.RESTR.CAVITY>
0

>  <SCORE.RESTR.norm>
0

>  <SCORE.SYSTEM>
0

>  <SCORE.SYSTEM.CONST>
0

>  <SCORE.SYSTEM.DIHEDRAL>
0

>  <SCORE.SYSTEM.SOLV>
0

>  <SCORE.SYSTEM.norm>
0

>  <SCORE.heavy>
14

>  <SCORE.norm>
-0.646236

>  <RMSD>
5.629

$$$$
ligand
 OpenBabel11021811493D
libRbt.so/2013.1/901 2013/11/27
 14 13  0  0  0  0  0  0  0  0999 V2000
   58.8502    2.4449    6.8949 N   0  0  0  0  0  0  0  0  0  0  0  0
   58.9433    2.1641    5.4791 C   0  0  0  0  0  0  0  0  0  0  0  0
   60.4168    2.2790    5.0373 C   0  0  0  0  0  0  0  0  0  0  0  0
   61.3381    1.2153    5.6543 C   0  0  0  0  0  0  0  0  0  0  0  0
   60.9578   -0.1836    5.4057 N   0  0  0  0  0  0  0  0  0  0  0  0
   60.9862   -0.8065    4.0835 C   0  0  0  0  0  0  0  0  0  0  0  0
   59.6799   -0.6354    3.3149 C   0  0  0  0  0  0  0  0  0  0  0  0
   59.6819   -1.3162    1.9423 C   0  0  0  0  0  0  0  0  0  0  0  0
   58.3912   -1.0407    1.1620 C   0  0  0  0  0  0  0  0  0  0  0  0
   58.3043    0.3862    0.8584 N   0  0  0  0  0  0  0  0  0  0  0  0
   57.6280    0.9433   -0.3145 C   0  0  0  0  0  0  0  0  0  0  0  0
   57.7176    2.4742   -0.3824 C   0  0  0  0  0  0  0  0  0  0  0  0
   56.9077    3.0304   -1.5582 C   0  0  0  0  0  0  0  0  0  0  0  0
   56.9205    4.4894   -1.5080 N   0  0  0  0  0  0  0  0  0  0  0  0
  1  2  1  0  0  0  0
  2  3  1  0  0  0  0
  3  4  1  0  0  0  0
  4  5  1  0  0  0  0
  5  6  1  0  0  0  0
  6  7  1  0  0  0  0
  7  8  1  0  0  0  0
  8  9  1  0  0  0  0
  9 10  1  0  0  0  0
 10 11  1  0  0  0  0
 11 12  1  0  0  0  0
 12 13  1  0  0  0  0
 13 14  1  0  0  0  0
M  END
>  <CHROM.1>
65.86316334,57.13989599,66.63340660,-88.76408938,-178.42460467,-176.05434576
64.83028103,150.55648849,-179.11010375,-175.50527595,174.74593487,59.05180207
1.10288553,2.57623893,0.44409338,-1.09075943,0.74077522

>  <Name>
ligand

>  <RI>
0

>  <Rbt.Current_Directory>
/home/itssahil/PROJECTS/Mol_Feturizer/New_Systems/rnas/4FAW

>  <Rbt.Executable>
rbdock ($Id: //depot/dev/client3/rdock/2013.1/src/exe/rbdock.cxx#4 $)

>  <Rbt.Library>
libRbt.so (2013.1, Build901 2013/11/27)

>  <Rbt.Parameter_File>
/export/apps/rDock/src/rDock_2013.1_src/data/scripts/dock_solv.prm

>  <Rbt.Receptor>
prm/pocket_docking_5.prm

>  <SCORE>
-8.23594

>  <SCORE.INTER>
1.04324

>  <SCORE.INTER.CONST>
1

>  <SCORE.INTER.POLAR>
0

>  <SCORE.INTER.ROT>
11

>  <SCORE.INTER.SOLV>
12.293

>  <SCORE.INTER.VDW>
-14.3355

>  <SCORE.INTER.norm>
0.0745169

>  <SCORE.INTRA>
-9.27918

>  <SCORE.INTRA.DIHEDRAL>
-17.4181

>  <SCORE.INTRA.DIHEDRAL.0>
19.1003

>  <SCORE.INTRA.POLAR>
0

>  <SCORE.INTRA.POLAR.0>
0

>  <SCORE.INTRA.REPUL>
0

>  <SCORE.INTRA.REPUL.0>
0

>  <SCORE.INTRA.SOLV>
0.635109

>  <SCORE.INTRA.SOLV.lig_0>
-47.5333

>  <SCORE.INTRA.VDW>
-0.887694

>  <SCORE.INTRA.VDW.0>
-0.287413

>  <SCORE.INTRA.norm>
-0.662799

>  <SCORE.RESTR>
0

>  <SCORE.RESTR.CAVITY>
0

>  <SCORE.RESTR.norm>
0

>  <SCORE.SYSTEM>
0

>  <SCORE.SYSTEM.CONST>
0

>  <SCORE.SYSTEM.DIHEDRAL>
0

>  <SCORE.SYSTEM.SOLV>
0

>  <SCORE.SYSTEM.norm>
0

>  <SCORE.heavy>
14

>  <SCORE.norm>
-0.588282

>  <RMSD>
5.649

$$$$
ligand
 OpenBabel11021811493D
libRbt.so/2013.1/901 2013/11/27
 14 13  0  0  0  0  0  0  0  0999 V2000
   59.4716   -4.1805    7.5630 N   0  0  0  0  0  0  0  0  0  0  0  0
   59.9234   -3.7309    6.2646 C   0  0  0  0  0  0  0  0  0  0  0  0
   60.6386   -4.8948    5.5480 C   0  0  0  0  0  0  0  0  0  0  0  0
   61.2257   -4.5183    4.1788 C   0  0  0  0  0  0  0  0  0  0  0  0
   60.2605   -4.0382    3.1782 N   0  0  0  0  0  0  0  0  0  0  0  0
   59.9235   -2.6280    2.9913 C   0  0  0  0  0  0  0  0  0  0  0  0
   58.9655   -2.3922    1.8282 C   0  0  0  0  0  0  0  0  0  0  0  0
   58.7626   -0.9115    1.4908 C   0  0  0  0  0  0  0  0  0  0  0  0
   57.9781   -0.7211    0.1873 C   0  0  0  0  0  0  0  0  0  0  0  0
   58.0063    0.6897   -0.1929 N   0  0  0  0  0  0  0  0  0  0  0  0
   57.9162    1.1779   -1.5702 C   0  0  0  0  0  0  0  0  0  0  0  0
   57.8236    2.7078   -1.6550 C   0  0  0  0  0  0  0  0  0  0  0  0
   56.5188    3.2242   -1.0399 C   0  0  0  0  0  0  0  0  0  0  0  0
   56.4094    4.6614   -1.2721 N   0  0  0  0  0  0  0  0  0  0  0  0
  1  2  1  0  0  0  0
  2  3  1  0  0  0  0
  3  4  1  0  0  0  0
  4  5  1  0  0  0  0
  5  6  1  0  0  0  0
  6  7  1  0  0  0  0
  7  8  1  0  0  0  0
  8  9  1  0  0  0  0
  9 10  1  0  0  0  0
 10 11  1  0  0  0  0
 11 12  1  0  0  0  0
 12 13  1  0  0  0  0
 13 14  1  0  0  0  0
M  END
>  <CHROM.1>
-177.21350033,-59.99326722,91.62866540,176.21363138,-171.60371530,170.90066103
-170.81774003,151.72809711,173.96110385,-65.58978061,-173.92095225,58.84470261
-1.11119753,1.96415448,0.92137793,-1.04564172,1.79739435

>  <Name>
ligand

>  <RI>
0

>  <Rbt.Current_Directory>
/home/itssahil/PROJECTS/Mol_Feturizer/New_Systems/rnas/4FAW

>  <Rbt.Executable>
rbdock ($Id: //depot/dev/client3/rdock/2013.1/src/exe/rbdock.cxx#4 $)

>  <Rbt.Library>
libRbt.so (2013.1, Build901 2013/11/27)

>  <Rbt.Parameter_File>
/export/apps/rDock/src/rDock_2013.1_src/data/scripts/dock_solv.prm

>  <Rbt.Receptor>
prm/pocket_docking_8.prm

>  <SCORE>
-11.0192

>  <SCORE.INTER>
-1.25584

>  <SCORE.INTER.CONST>
1

>  <SCORE.INTER.POLAR>
0

>  <SCORE.INTER.ROT>
11

>  <SCORE.INTER.SOLV>
12.8184

>  <SCORE.INTER.VDW>
-16.0434

>  <SCORE.INTER.norm>
-0.0897027

>  <SCORE.INTRA>
-9.76339

>  <SCORE.INTRA.DIHEDRAL>
-16.6605

>  <SCORE.INTRA.DIHEDRAL.0>
19.1003

>  <SCORE.INTRA.POLAR>
0

>  <SCORE.INTRA.POLAR.0>
0

>  <SCORE.INTRA.REPUL>
0

>  <SCORE.INTRA.REPUL.0>
0

>  <SCORE.INTRA.SOLV>
-0.858264

>  <SCORE.INTRA.SOLV.lig_0>
-47.5333

>  <SCORE.INTRA.VDW>
-1.00401

>  <SCORE.INTRA.VDW.0>
-0.287413

>  <SCORE.INTRA.norm>
-0.697385

>  <SCORE.RESTR>
0

>  <SCORE.RESTR.CAVITY>
0

>  <SCORE.RESTR.norm>
0

>  <SCORE.SYSTEM>
0

>  <SCORE.SYSTEM.CONST>
0

>  <SCORE.SYSTEM.DIHEDRAL>
0

>  <SCORE.SYSTEM.SOLV>
0

>  <SCORE.SYSTEM.norm>
0

>  <SCORE.heavy>
14

>  <SCORE.norm>
-0.787087

>  <RMSD>
5.746

$$$$
ligand
 OpenBabel11021811493D
libRbt.so/2013.1/901 2013/11/27
 14 13  0  0  0  0  0  0  0  0999 V2000
   52.9811    2.4627   -9.4941 N   0  0  0  0  0  0  0  0  0  0  0  0
   52.2907    1.3447   -8.8894 C   0  0  0  0  0  0  0  0  0  0  0  0
   52.5504    1.3534   -7.3689 C   0  0  0  0  0  0  0  0  0  0  0  0
   51.7906    0.2616   -6.5996 C   0  0  0  0  0  0  0  0  0  0  0  0
   51.9494    0.2800   -5.1374 N   0  0  0  0  0  0  0  0  0  0  0  0
   51.1032   -0.4842   -4.2226 C   0  0  0  0  0  0  0  0  0  0  0  0
   51.5971   -0.4463   -2.7801 C   0  0  0  0  0  0  0  0  0  0  0  0
   51.6170    0.9612   -2.1750 C   0  0  0  0  0  0  0  0  0  0  0  0
   51.9844    0.9420   -0.6866 C   0  0  0  0  0  0  0  0  0  0  0  0
   51.9364    2.3038   -0.1586 N   0  0  0  0  0  0  0  0  0  0  0  0
   51.9511    2.6404    1.2662 C   0  0  0  0  0  0  0  0  0  0  0  0
   53.3319    2.4495    1.9090 C   0  0  0  0  0  0  0  0  0  0  0  0
   53.2886    2.7166    3.4171 C   0  0  0  0  0  0  0  0  0  0  0  0
   54.6169    2.5050    3.9848 N   0  0  0  0  0  0  0  0  0  0  0  0
  1  2  1  0  0  0  0
  2  3  1  0  0  0  0
  3  4  1  0  0  0  0
  4  5  1  0  0  0  0
  5  6  1  0  0  0  0
  6  7  1  0  0  0  0
  7  8  1  0  0  0  0
  8  9  1  0  0  0  0
  9 10  1  0  0  0  0
 10 11  1  0  0  0  0
 11 12  1  0  0  0  0
 12 13  1  0  0  0  0
 13 14  1  0  0  0  0
M  END
>  <CHROM.1>
176.18912446,-176.70052031,166.78281538,171.87888043,61.88698211,174.31708621
-177.86069051,166.58917097,73.68000597,-176.05602060,179.22424475,52.35614046
1.37767701,-2.63820684,-1.72488832,0.94436184,1.57232825

>  <Name>
ligand

>  <RI>
0

>  <Rbt.Current_Directory>
/home/itssahil/PROJECTS/Mol_Feturizer/New_Systems/rnas/4FAW

>  <Rbt.Executable>
rbdock ($Id: //depot/dev/client3/rdock/2013.1/src/exe/rbdock.cxx#4 $)

>  <Rbt.Library>
libRbt.so (2013.1, Build901 2013/11/27)

>  <Rbt.Parameter_File>
/export/apps/rDock/src/rDock_2013.1_src/data/scripts/dock_solv.prm

>  <Rbt.Receptor>
prm/pocket_docking_6.prm

>  <SCORE>
-8.06807

>  <SCORE.INTER>
2.41868

>  <SCORE.INTER.CONST>
1

>  <SCORE.INTER.POLAR>
0

>  <SCORE.INTER.ROT>
11

>  <SCORE.INTER.SOLV>
7.50899

>  <SCORE.INTER.VDW>
-11.8239

>  <SCORE.INTER.norm>
0.172763

>  <SCORE.INTRA>
-10.4867

>  <SCORE.INTRA.DIHEDRAL>
-18.2975

>  <SCORE.INTRA.DIHEDRAL.0>
19.1003

>  <SCORE.INTRA.POLAR>
0

>  <SCORE.INTRA.POLAR.0>
0

>  <SCORE.INTRA.REPUL>
0

>  <SCORE.INTRA.REPUL.0>
0

>  <SCORE.INTRA.SOLV>
-1.13139

>  <SCORE.INTRA.SOLV.lig_0>
-47.5333

>  <SCORE.INTRA.VDW>
-0.77231

>  <SCORE.INTRA.VDW.0>
-0.287413

>  <SCORE.INTRA.norm>
-0.749053

>  <SCORE.RESTR>
0

>  <SCORE.RESTR.CAVITY>
0

>  <SCORE.RESTR.norm>
0

>  <SCORE.SYSTEM>
0

>  <SCORE.SYSTEM.CONST>
0

>  <SCORE.SYSTEM.DIHEDRAL>
0

>  <SCORE.SYSTEM.SOLV>
0

>  <SCORE.SYSTEM.norm>
0

>  <SCORE.heavy>
14

>  <SCORE.norm>
-0.576291

>  <RMSD>
5.773

$$$$
ligand
 OpenBabel11021811493D
libRbt.so/2013.1/901 2013/11/27
 14 13  0  0  0  0  0  0  0  0999 V2000
   54.7264    3.8492   -6.7148 N   0  0  0  0  0  0  0  0  0  0  0  0
   54.2421    2.5153   -6.4350 C   0  0  0  0  0  0  0  0  0  0  0  0
   53.0447    2.2089   -7.3579 C   0  0  0  0  0  0  0  0  0  0  0  0
   52.3652    0.8607   -7.0719 C   0  0  0  0  0  0  0  0  0  0  0  0
   51.7885    0.7066   -5.7275 N   0  0  0  0  0  0  0  0  0  0  0  0
   51.2494   -0.5533   -5.2186 C   0  0  0  0  0  0  0  0  0  0  0  0
   50.7627   -0.4551   -3.7765 C   0  0  0  0  0  0  0  0  0  0  0  0
   51.8605   -0.0585   -2.7840 C   0  0  0  0  0  0  0  0  0  0  0  0
   51.3367    0.0103   -1.3446 C   0  0  0  0  0  0  0  0  0  0  0  0
   52.4251    0.4027   -0.4517 N   0  0  0  0  0  0  0  0  0  0  0  0
   52.6058    1.7504    0.0908 C   0  0  0  0  0  0  0  0  0  0  0  0
   53.8395    1.8674    0.9966 C   0  0  0  0  0  0  0  0  0  0  0  0
   53.9706    3.2765    1.5841 C   0  0  0  0  0  0  0  0  0  0  0  0
   55.1750    3.3484    2.4060 N   0  0  0  0  0  0  0  0  0  0  0  0
  1  2  1  0  0  0  0
  2  3  1  0  0  0  0
  3  4  1  0  0  0  0
  4  5  1  0  0  0  0
  5  6  1  0  0  0  0
  6  7  1  0  0  0  0
  7  8  1  0  0  0  0
  8  9  1  0  0  0  0
  9 10  1  0  0  0  0
 10 11  1  0  0  0  0
 11 12  1  0  0  0  0
 12 13  1  0  0  0  0
 13 14  1  0  0  0  0
M  END
>  <CHROM.1>
-175.05774067,61.02113753,-172.29669314,177.73336532,-60.23829185,-179.20450195
-179.54021045,101.84573192,-179.82246101,-178.05368938,-178.44661987,52.81343395
1.40898872,-2.98621157,-1.75434237,0.83008245,1.60615100

>  <Name>
ligand

>  <RI>
0

>  <Rbt.Current_Directory>
/home/itssahil/PROJECTS/Mol_Feturizer/New_Systems/rnas/4FAW

>  <Rbt.Executable>
rbdock ($Id: //depot/dev/client3/rdock/2013.1/src/exe/rbdock.cxx#4 $)

>  <Rbt.Library>
libRbt.so (2013.1, Build901 2013/11/27)

>  <Rbt.Parameter_File>
/export/apps/rDock/src/rDock_2013.1_src/data/scripts/dock_solv.prm

>  <Rbt.Receptor>
prm/pocket_docking_7.prm

>  <SCORE>
-8.6161

>  <SCORE.INTER>
1.76892

>  <SCORE.INTER.CONST>
1

>  <SCORE.INTER.POLAR>
0

>  <SCORE.INTER.ROT>
11

>  <SCORE.INTER.SOLV>
9.74626

>  <SCORE.INTER.VDW>
-13.0028

>  <SCORE.INTER.norm>
0.126351

>  <SCORE.INTRA>
-10.385

>  <SCORE.INTRA.DIHEDRAL>
-17.9762

>  <SCORE.INTRA.DIHEDRAL.0>
19.1003

>  <SCORE.INTRA.POLAR>
0

>  <SCORE.INTRA.POLAR.0>
0

>  <SCORE.INTRA.REPUL>
0

>  <SCORE.INTRA.REPUL.0>
0

>  <SCORE.INTRA.SOLV>
-0.820939

>  <SCORE.INTRA.SOLV.lig_0>
-47.5333

>  <SCORE.INTRA.VDW>
-0.986424

>  <SCORE.INTRA.VDW.0>
-0.287413

>  <SCORE.INTRA.norm>
-0.741787

>  <SCORE.RESTR>
0

>  <SCORE.RESTR.CAVITY>
0

>  <SCORE.RESTR.norm>
0

>  <SCORE.SYSTEM>
0

>  <SCORE.SYSTEM.CONST>
0

>  <SCORE.SYSTEM.DIHEDRAL>
0

>  <SCORE.SYSTEM.SOLV>
0

>  <SCORE.SYSTEM.norm>
0

>  <SCORE.heavy>
14

>  <SCORE.norm>
-0.615436

>  <RMSD>
5.795

$$$$
ligand
 OpenBabel11021811493D
libRbt.so/2013.1/901 2013/11/27
 14 13  0  0  0  0  0  0  0  0999 V2000
   56.8087    3.3086   -1.6813 N   0  0  0  0  0  0  0  0  0  0  0  0
   57.7350    2.3665   -1.0926 C   0  0  0  0  0  0  0  0  0  0  0  0
   57.6217    2.4401    0.4441 C   0  0  0  0  0  0  0  0  0  0  0  0
   58.5507    1.4665    1.1858 C   0  0  0  0  0  0  0  0  0  0  0  0
   58.3090    0.0368    0.9385 N   0  0  0  0  0  0  0  0  0  0  0  0
   57.2870   -0.7427    1.6349 C   0  0  0  0  0  0  0  0  0  0  0  0
   55.8763   -0.4696    1.1235 C   0  0  0  0  0  0  0  0  0  0  0  0
   54.7799   -1.1317    1.9644 C   0  0  0  0  0  0  0  0  0  0  0  0
   54.6694   -0.5067    3.3601 C   0  0  0  0  0  0  0  0  0  0  0  0
   54.2896    0.8987    3.2325 N   0  0  0  0  0  0  0  0  0  0  0  0
   54.3360    1.8714    4.3257 C   0  0  0  0  0  0  0  0  0  0  0  0
   54.0454    3.3049    3.8603 C   0  0  0  0  0  0  0  0  0  0  0  0
   54.1697    4.3041    5.0152 C   0  0  0  0  0  0  0  0  0  0  0  0
   53.8239    5.6402    4.5390 N   0  0  0  0  0  0  0  0  0  0  0  0
  1  2  1  0  0  0  0
  2  3  1  0  0  0  0
  3  4  1  0  0  0  0
  4  5  1  0  0  0  0
  5  6  1  0  0  0  0
  6  7  1  0  0  0  0
  7  8  1  0  0  0  0
  8  9  1  0  0  0  0
  9 10  1  0  0  0  0
 10 11  1  0  0  0  0
 11 12  1  0  0  0  0
 12 13  1  0  0  0  0
 13 14  1  0  0  0  0
M  END
>  <CHROM.1>
179.27803755,-62.59168832,-82.67651636,76.25259275,-172.18988714,68.17637529
62.65894944,-167.92374096,172.94913221,-177.21049785,-177.35328383,55.87876528
1.62729364,2.06083412,-0.37903216,0.89396164,-0.06270301

>  <Name>
ligand

>  <RI>
0

>  <Rbt.Current_Directory>
/home/itssahil/PROJECTS/Mol_Feturizer/New_Systems/rnas/4FAW

>  <Rbt.Executable>
rbdock ($Id: //depot/dev/client3/rdock/2013.1/src/exe/rbdock.cxx#4 $)

>  <Rbt.Library>
libRbt.so (2013.1, Build901 2013/11/27)

>  <Rbt.Parameter_File>
/export/apps/rDock/src/rDock_2013.1_src/data/scripts/dock_solv.prm

>  <Rbt.Receptor>
prm/pocket_docking_5.prm

>  <SCORE>
-6.72299

>  <SCORE.INTER>
3.14411

>  <SCORE.INTER.CONST>
1

>  <SCORE.INTER.POLAR>
0

>  <SCORE.INTER.ROT>
11

>  <SCORE.INTER.SOLV>
11.1483

>  <SCORE.INTER.VDW>
-12.5533

>  <SCORE.INTER.norm>
0.224579

>  <SCORE.INTRA>
-9.8671

>  <SCORE.INTRA.DIHEDRAL>
-17.7503

>  <SCORE.INTRA.DIHEDRAL.0>
19.1003

>  <SCORE.INTRA.POLAR>
0

>  <SCORE.INTRA.POLAR.0>
0

>  <SCORE.INTRA.REPUL>
0

>  <SCORE.INTRA.REPUL.0>
0

>  <SCORE.INTRA.SOLV>
-0.425614

>  <SCORE.INTRA.SOLV.lig_0>
-47.5333

>  <SCORE.INTRA.VDW>
-0.779147

>  <SCORE.INTRA.VDW.0>
-0.287413

>  <SCORE.INTRA.norm>
-0.704793

>  <SCORE.RESTR>
0

>  <SCORE.RESTR.CAVITY>
0

>  <SCORE.RESTR.norm>
0

>  <SCORE.SYSTEM>
0

>  <SCORE.SYSTEM.CONST>
0

>  <SCORE.SYSTEM.DIHEDRAL>
0

>  <SCORE.SYSTEM.SOLV>
0

>  <SCORE.SYSTEM.norm>
0

>  <SCORE.heavy>
14

>  <SCORE.norm>
-0.480213

>  <RMSD>
5.829

$$$$
ligand
 OpenBabel11021811493D
libRbt.so/2013.1/901 2013/11/27
 14 13  0  0  0  0  0  0  0  0999 V2000
   53.7702    2.3044    1.7856 N   0  0  0  0  0  0  0  0  0  0  0  0
   55.0624    1.9757    1.2250 C   0  0  0  0  0  0  0  0  0  0  0  0
   55.4029    0.5104    1.5665 C   0  0  0  0  0  0  0  0  0  0  0  0
   56.7938    0.0652    1.0888 C   0  0  0  0  0  0  0  0  0  0  0  0
   57.1872   -1.3050    1.4510 N   0  0  0  0  0  0  0  0  0  0  0  0
   58.5754   -1.7596    1.5070 C   0  0  0  0  0  0  0  0  0  0  0  0
   59.2467   -1.4646    2.8444 C   0  0  0  0  0  0  0  0  0  0  0  0
   60.6882   -1.9761    2.9335 C   0  0  0  0  0  0  0  0  0  0  0  0
   61.3428   -1.6204    4.2736 C   0  0  0  0  0  0  0  0  0  0  0  0
   61.4692   -0.1684    4.3802 N   0  0  0  0  0  0  0  0  0  0  0  0
   61.2252    0.5962    5.6047 C   0  0  0  0  0  0  0  0  0  0  0  0
   60.5534    1.9503    5.3376 C   0  0  0  0  0  0  0  0  0  0  0  0
   59.1858    1.7742    4.6695 C   0  0  0  0  0  0  0  0  0  0  0  0
   58.6140    3.0866    4.3832 N   0  0  0  0  0  0  0  0  0  0  0  0
  1  2  1  0  0  0  0
  2  3  1  0  0  0  0
  3  4  1  0  0  0  0
  4  5  1  0  0  0  0
  5  6  1  0  0  0  0
  6  7  1  0  0  0  0
  7  8  1  0  0  0  0
  8  9  1  0  0  0  0
  9 10  1  0  0  0  0
 10 11  1  0  0  0  0
 11 12  1  0  0  0  0
 12 13  1  0  0  0  0
 13 14  1  0  0  0  0
M  END
>  <CHROM.1>
-176.77839647,177.10587196,-158.33175848,85.28772530,178.13295396,178.12707737
-64.96020599,139.72805448,-142.92546395,60.87082394,-177.53768200,58.50868223
0.28320642,3.07506730,3.06829070,0.52381959,-2.58852927

>  <Name>
ligand

>  <RI>
0

>  <Rbt.Current_Directory>
/home/itssahil/PROJECTS/Mol_Feturizer/New_Systems/rnas/4FAW

>  <Rbt.Executable>
rbdock ($Id: //depot/dev/client3/rdock/2013.1/src/exe/rbdock.cxx#4 $)

>  <Rbt.Library>
libRbt.so (2013.1, Build901 2013/11/27)

>  <Rbt.Parameter_File>
/export/apps/rDock/src/rDock_2013.1_src/data/scripts/dock_solv.prm

>  <Rbt.Receptor>
prm/pocket_docking_4.prm

>  <SCORE>
-6.42842

>  <SCORE.INTER>
3.4712

>  <SCORE.INTER.CONST>
1

>  <SCORE.INTER.POLAR>
0

>  <SCORE.INTER.ROT>
11

>  <SCORE.INTER.SOLV>
10.0035

>  <SCORE.INTER.VDW>
-11.9537

>  <SCORE.INTER.norm>
0.247943

>  <SCORE.INTRA>
-9.89961

>  <SCORE.INTRA.DIHEDRAL>
-16.3588

>  <SCORE.INTRA.DIHEDRAL.0>
19.1003

>  <SCORE.INTRA.POLAR>
0

>  <SCORE.INTRA.POLAR.0>
0

>  <SCORE.INTRA.REPUL>
0

>  <SCORE.INTRA.REPUL.0>
0

>  <SCORE.INTRA.SOLV>
-0.693186

>  <SCORE.INTRA.SOLV.lig_0>
-47.5333

>  <SCORE.INTRA.VDW>
-1.37361

>  <SCORE.INTRA.VDW.0>
-0.287413

>  <SCORE.INTRA.norm>
-0.707115

>  <SCORE.RESTR>
0

>  <SCORE.RESTR.CAVITY>
0

>  <SCORE.RESTR.norm>
0

>  <SCORE.SYSTEM>
0

>  <SCORE.SYSTEM.CONST>
0

>  <SCORE.SYSTEM.DIHEDRAL>
0

>  <SCORE.SYSTEM.SOLV>
0

>  <SCORE.SYSTEM.norm>
0

>  <SCORE.heavy>
14

>  <SCORE.norm>
-0.459173

>  <RMSD>
5.871

$$$$
ligand
 OpenBabel11021811493D
libRbt.so/2013.1/901 2013/11/27
 14 13  0  0  0  0  0  0  0  0999 V2000
   47.7634   -1.1940   -5.7971 N   0  0  0  0  0  0  0  0  0  0  0  0
   48.4982   -0.5808   -4.7127 C   0  0  0  0  0  0  0  0  0  0  0  0
   49.9451   -1.1156   -4.7172 C   0  0  0  0  0  0  0  0  0  0  0  0
   50.8048   -0.5998   -3.5527 C   0  0  0  0  0  0  0  0  0  0  0  0
   51.0666    0.8476   -3.5420 N   0  0  0  0  0  0  0  0  0  0  0  0
   52.3488    1.4401   -3.9187 C   0  0  0  0  0  0  0  0  0  0  0  0
   52.3673    1.9615   -5.3519 C   0  0  0  0  0  0  0  0  0  0  0  0
   53.7482    2.4387   -5.8135 C   0  0  0  0  0  0  0  0  0  0  0  0
   54.2187    3.6743   -5.0372 C   0  0  0  0  0  0  0  0  0  0  0  0
   54.5995    3.2790   -3.6828 N   0  0  0  0  0  0  0  0  0  0  0  0
   55.0185    4.2118   -2.6351 C   0  0  0  0  0  0  0  0  0  0  0  0
   55.6499    3.5060   -1.4269 C   0  0  0  0  0  0  0  0  0  0  0  0
   56.0091    4.5038   -0.3210 C   0  0  0  0  0  0  0  0  0  0  0  0
   56.5695    3.7831    0.8182 N   0  0  0  0  0  0  0  0  0  0  0  0
  1  2  1  0  0  0  0
  2  3  1  0  0  0  0
  3  4  1  0  0  0  0
  4  5  1  0  0  0  0
  5  6  1  0  0  0  0
  6  7  1  0  0  0  0
  7  8  1  0  0  0  0
  8  9  1  0  0  0  0
  9 10  1  0  0  0  0
 10 11  1  0  0  0  0
 11 12  1  0  0  0  0
 12 13  1  0  0  0  0
 13 14  1  0  0  0  0
M  END
>  <CHROM.1>
-176.44465904,-64.73214304,-104.72795980,98.64392767,-173.39068896,-65.90879221
73.19925847,-176.03015884,-167.30168043,-177.03167448,178.40750462,52.75779682
1.86833514,-3.54953347,2.83615195,-0.68118556,-1.36281160

>  <Name>
ligand

>  <RI>
0

>  <Rbt.Current_Directory>
/home/itssahil/PROJECTS/Mol_Feturizer/New_Systems/rnas/4FAW

>  <Rbt.Executable>
rbdock ($Id: //depot/dev/client3/rdock/2013.1/src/exe/rbdock.cxx#4 $)

>  <Rbt.Library>
libRbt.so (2013.1, Build901 2013/11/27)

>  <Rbt.Parameter_File>
/export/apps/rDock/src/rDock_2013.1_src/data/scripts/dock_solv.prm

>  <Rbt.Receptor>
prm/pocket_docking_6.prm

>  <SCORE>
-5.76499

>  <SCORE.INTER>
2.82042

>  <SCORE.INTER.CONST>
1

>  <SCORE.INTER.POLAR>
0

>  <SCORE.INTER.ROT>
11

>  <SCORE.INTER.SOLV>
10.7054

>  <SCORE.INTER.VDW>
-12.6215

>  <SCORE.INTER.norm>
0.201459

>  <SCORE.INTRA>
-8.58542

>  <SCORE.INTRA.DIHEDRAL>
-15.962

>  <SCORE.INTRA.DIHEDRAL.0>
19.1003

>  <SCORE.INTRA.POLAR>
0

>  <SCORE.INTRA.POLAR.0>
0

>  <SCORE.INTRA.REPUL>
0

>  <SCORE.INTRA.REPUL.0>
0

>  <SCORE.INTRA.SOLV>
-0.155922

>  <SCORE.INTRA.SOLV.lig_0>
-47.5333

>  <SCORE.INTRA.VDW>
-0.526457

>  <SCORE.INTRA.VDW.0>
-0.287413

>  <SCORE.INTRA.norm>
-0.613244

>  <SCORE.RESTR>
0

>  <SCORE.RESTR.CAVITY>
0

>  <SCORE.RESTR.norm>
0

>  <SCORE.SYSTEM>
0

>  <SCORE.SYSTEM.CONST>
0

>  <SCORE.SYSTEM.DIHEDRAL>
0

>  <SCORE.SYSTEM.SOLV>
0

>  <SCORE.SYSTEM.norm>
0

>  <SCORE.heavy>
14

>  <SCORE.norm>
-0.411785

>  <RMSD>
5.937

$$$$
ligand
 OpenBabel11021811493D
libRbt.so/2013.1/901 2013/11/27
 14 13  0  0  0  0  0  0  0  0999 V2000
   61.7195   -4.1402    3.4849 N   0  0  0  0  0  0  0  0  0  0  0  0
   60.4819   -3.6695    2.9025 C   0  0  0  0  0  0  0  0  0  0  0  0
   60.4560   -2.1279    2.9495 C   0  0  0  0  0  0  0  0  0  0  0  0
   59.1172   -1.5126    2.5135 C   0  0  0  0  0  0  0  0  0  0  0  0
   58.7268   -1.7529    1.1158 N   0  0  0  0  0  0  0  0  0  0  0  0
   57.3847   -1.4973    0.5958 C   0  0  0  0  0  0  0  0  0  0  0  0
   57.0690   -0.0110    0.4633 C   0  0  0  0  0  0  0  0  0  0  0  0
   57.8475    0.6841   -0.6584 C   0  0  0  0  0  0  0  0  0  0  0  0
   57.6887    2.2083   -0.6095 C   0  0  0  0  0  0  0  0  0  0  0  0
   58.0894    2.6946    0.7091 N   0  0  0  0  0  0  0  0  0  0  0  0
   59.4438    2.5874    1.2546 C   0  0  0  0  0  0  0  0  0  0  0  0
   59.4692    2.5829    2.7894 C   0  0  0  0  0  0  0  0  0  0  0  0
   58.9828    3.9188    3.3608 C   0  0  0  0  0  0  0  0  0  0  0  0
   57.5533    4.0642    3.1029 N   0  0  0  0  0  0  0  0  0  0  0  0
  1  2  1  0  0  0  0
  2  3  1  0  0  0  0
  3  4  1  0  0  0  0
  4  5  1  0  0  0  0
  5  6  1  0  0  0  0
  6  7  1  0  0  0  0
  7  8  1  0  0  0  0
  8  9  1  0  0  0  0
  9 10  1  0  0  0  0
 10 11  1  0  0  0  0
 11 12  1  0  0  0  0
 12 13  1  0  0  0  0
 13 14  1  0  0  0  0
M  END
>  <CHROM.1>
-173.01645609,-63.68616113,166.75598467,71.89752685,70.35739746,-170.26779723
55.56942956,63.77117776,-154.53543005,-65.17668042,69.02905523,58.85922065
0.28782438,1.71228704,-1.00996322,-0.92560586,0.28806677

>  <Name>
ligand

>  <RI>
0

>  <Rbt.Current_Directory>
/home/itssahil/PROJECTS/Mol_Feturizer/New_Systems/rnas/4FAW

>  <Rbt.Executable>
rbdock ($Id: //depot/dev/client3/rdock/2013.1/src/exe/rbdock.cxx#4 $)

>  <Rbt.Library>
libRbt.so (2013.1, Build901 2013/11/27)

>  <Rbt.Parameter_File>
/export/apps/rDock/src/rDock_2013.1_src/data/scripts/dock_solv.prm

>  <Rbt.Receptor>
prm/pocket_docking_5.prm

>  <SCORE>
-9.81959

>  <SCORE.INTER>
-1.93487

>  <SCORE.INTER.CONST>
1

>  <SCORE.INTER.POLAR>
0

>  <SCORE.INTER.ROT>
11

>  <SCORE.INTER.SOLV>
11.3261

>  <SCORE.INTER.VDW>
-15.9986

>  <SCORE.INTER.norm>
-0.138205

>  <SCORE.INTRA>
-7.88471

>  <SCORE.INTRA.DIHEDRAL>
-16.8826

>  <SCORE.INTRA.DIHEDRAL.0>
19.1003

>  <SCORE.INTRA.POLAR>
0

>  <SCORE.INTRA.POLAR.0>
0

>  <SCORE.INTRA.REPUL>
0

>  <SCORE.INTRA.REPUL.0>
0

>  <SCORE.INTRA.SOLV>
2.6559

>  <SCORE.INTRA.SOLV.lig_0>
-47.5333

>  <SCORE.INTRA.VDW>
-0.771352

>  <SCORE.INTRA.VDW.0>
-0.287413

>  <SCORE.INTRA.norm>
-0.563194

>  <SCORE.RESTR>
0

>  <SCORE.RESTR.CAVITY>
0

>  <SCORE.RESTR.norm>
0

>  <SCORE.SYSTEM>
0

>  <SCORE.SYSTEM.CONST>
0

>  <SCORE.SYSTEM.DIHEDRAL>
0

>  <SCORE.SYSTEM.SOLV>
0

>  <SCORE.SYSTEM.norm>
0

>  <SCORE.heavy>
14

>  <SCORE.norm>
-0.701399

>  <RMSD>
5.965

$$$$
ligand
 OpenBabel11021811493D
libRbt.so/2013.1/901 2013/11/27
 14 13  0  0  0  0  0  0  0  0999 V2000
   48.8432   -3.0047   -7.2115 N   0  0  0  0  0  0  0  0  0  0  0  0
   48.6378   -3.2625   -5.8031 C   0  0  0  0  0  0  0  0  0  0  0  0
   48.5475   -1.9184   -5.0516 C   0  0  0  0  0  0  0  0  0  0  0  0
   49.8390   -1.0875   -5.1013 C   0  0  0  0  0  0  0  0  0  0  0  0
   49.7931    0.2097   -4.4094 N   0  0  0  0  0  0  0  0  0  0  0  0
   50.9728    1.0373   -4.1638 C   0  0  0  0  0  0  0  0  0  0  0  0
   51.9476    0.4084   -3.1737 C   0  0  0  0  0  0  0  0  0  0  0  0
   51.2777   -0.1048   -1.8948 C   0  0  0  0  0  0  0  0  0  0  0  0
   52.1858    0.0480   -0.6689 C   0  0  0  0  0  0  0  0  0  0  0  0
   52.1093    1.4224   -0.1782 N   0  0  0  0  0  0  0  0  0  0  0  0
   53.1620    2.4244   -0.3548 C   0  0  0  0  0  0  0  0  0  0  0  0
   54.3125    2.2628    0.6484 C   0  0  0  0  0  0  0  0  0  0  0  0
   55.4002    3.3191    0.4271 C   0  0  0  0  0  0  0  0  0  0  0  0
   56.5294    3.0440    1.3106 N   0  0  0  0  0  0  0  0  0  0  0  0
  1  2  1  0  0  0  0
  2  3  1  0  0  0  0
  3  4  1  0  0  0  0
  4  5  1  0  0  0  0
  5  6  1  0  0  0  0
  6  7  1  0  0  0  0
  7  8  1  0  0  0  0
  8  9  1  0  0  0  0
  9 10  1  0  0  0  0
 10 11  1  0  0  0  0
 11 12  1  0  0  0  0
 12 13  1  0  0  0  0
 13 14  1  0  0  0  0
M  END
>  <CHROM.1>
-63.87598104,179.36612196,169.83156669,-67.39438346,-48.47173983,-146.25676414
81.05502336,-105.67830839,-79.52756830,179.51962820,-174.33727903,51.68263363
0.34269253,-2.54461593,-2.65567495,0.84341756,1.88868542

>  <Name>
ligand

>  <RI>
0

>  <Rbt.Current_Directory>
/home/itssahil/PROJECTS/Mol_Feturizer/New_Systems/rnas/4FAW

>  <Rbt.Executable>
rbdock ($Id: //depot/dev/client3/rdock/2013.1/src/exe/rbdock.cxx#4 $)

>  <Rbt.Library>
libRbt.so (2013.1, Build901 2013/11/27)

>  <Rbt.Parameter_File>
/export/apps/rDock/src/rDock_2013.1_src/data/scripts/dock_solv.prm

>  <Rbt.Receptor>
prm/pocket_docking_8.prm

>  <SCORE>
-6.54701

>  <SCORE.INTER>
-0.108676

>  <SCORE.INTER.CONST>
1

>  <SCORE.INTER.POLAR>
0

>  <SCORE.INTER.ROT>
11

>  <SCORE.INTER.SOLV>
6.76864

>  <SCORE.INTER.VDW>
-13.262

>  <SCORE.INTER.norm>
-0.00776256

>  <SCORE.INTRA>
-6.43833

>  <SCORE.INTRA.DIHEDRAL>
-11.8094

>  <SCORE.INTRA.DIHEDRAL.0>
19.1003

>  <SCORE.INTRA.POLAR>
0

>  <SCORE.INTRA.POLAR.0>
0

>  <SCORE.INTRA.REPUL>
0

>  <SCORE.INTRA.REPUL.0>
0

>  <SCORE.INTRA.SOLV>
0.0845208

>  <SCORE.INTRA.SOLV.lig_0>
-47.5333

>  <SCORE.INTRA.VDW>
-0.575899

>  <SCORE.INTRA.VDW.0>
-0.287413

>  <SCORE.INTRA.norm>
-0.459881

>  <SCORE.RESTR>
0

>  <SCORE.RESTR.CAVITY>
0

>  <SCORE.RESTR.norm>
0

>  <SCORE.SYSTEM>
0

>  <SCORE.SYSTEM.CONST>
0

>  <SCORE.SYSTEM.DIHEDRAL>
0

>  <SCORE.SYSTEM.SOLV>
0

>  <SCORE.SYSTEM.norm>
0

>  <SCORE.heavy>
14

>  <SCORE.norm>
-0.467643

>  <RMSD>
5.971

$$$$
ligand
 OpenBabel11021811493D
libRbt.so/2013.1/901 2013/11/27
 14 13  0  0  0  0  0  0  0  0999 V2000
   50.9888    3.6750    4.5629 N   0  0  0  0  0  0  0  0  0  0  0  0
   52.2245    3.8944    3.8438 C   0  0  0  0  0  0  0  0  0  0  0  0
   52.3550    2.8357    2.7294 C   0  0  0  0  0  0  0  0  0  0  0  0
   51.2446    2.9050    1.6696 C   0  0  0  0  0  0  0  0  0  0  0  0
   51.3740    1.9668    0.5441 N   0  0  0  0  0  0  0  0  0  0  0  0
   52.4974    1.9760   -0.3911 C   0  0  0  0  0  0  0  0  0  0  0  0
   52.1184    1.4844   -1.7843 C   0  0  0  0  0  0  0  0  0  0  0  0
   51.6789    0.0171   -1.8188 C   0  0  0  0  0  0  0  0  0  0  0  0
   51.4299   -0.4751   -3.2494 C   0  0  0  0  0  0  0  0  0  0  0  0
   50.3271    0.2827   -3.8369 N   0  0  0  0  0  0  0  0  0  0  0  0
   50.0697    0.3905   -5.2741 C   0  0  0  0  0  0  0  0  0  0  0  0
   50.8006    1.5741   -5.9230 C   0  0  0  0  0  0  0  0  0  0  0  0
   50.5024    1.6611   -7.4234 C   0  0  0  0  0  0  0  0  0  0  0  0
   51.0455    0.4837   -8.0943 N   0  0  0  0  0  0  0  0  0  0  0  0
  1  2  1  0  0  0  0
  2  3  1  0  0  0  0
  3  4  1  0  0  0  0
  4  5  1  0  0  0  0
  5  6  1  0  0  0  0
  6  7  1  0  0  0  0
  7  8  1  0  0  0  0
  8  9  1  0  0  0  0
  9 10  1  0  0  0  0
 10 11  1  0  0  0  0
 11 12  1  0  0  0  0
 12 13  1  0  0  0  0
 13 14  1  0  0  0  0
M  END
>  <CHROM.1>
62.35940145,176.45839060,-61.78248085,-150.32951235,-64.05784558,-174.78487724
-63.12846620,160.50234855,-89.32907314,-179.66908171,-64.96177647,51.33277831
1.61939008,-1.74613579,1.03073991,-1.36195039,0.78603141

>  <Name>
ligand

>  <RI>
0

>  <Rbt.Current_Directory>
/home/itssahil/PROJECTS/Mol_Feturizer/New_Systems/rnas/4FAW

>  <Rbt.Executable>
rbdock ($Id: //depot/dev/client3/rdock/2013.1/src/exe/rbdock.cxx#4 $)

>  <Rbt.Library>
libRbt.so (2013.1, Build901 2013/11/27)

>  <Rbt.Parameter_File>
/export/apps/rDock/src/rDock_2013.1_src/data/scripts/dock_solv.prm

>  <Rbt.Receptor>
prm/pocket_docking_5.prm

>  <SCORE>
-5.52458

>  <SCORE.INTER>
3.13599

>  <SCORE.INTER.CONST>
1

>  <SCORE.INTER.POLAR>
0

>  <SCORE.INTER.ROT>
11

>  <SCORE.INTER.SOLV>
6.4757

>  <SCORE.INTER.VDW>
-11.0012

>  <SCORE.INTER.norm>
0.223999

>  <SCORE.INTRA>
-8.66057

>  <SCORE.INTRA.DIHEDRAL>
-17.2689

>  <SCORE.INTRA.DIHEDRAL.0>
19.1003

>  <SCORE.INTRA.POLAR>
0

>  <SCORE.INTRA.POLAR.0>
0

>  <SCORE.INTRA.REPUL>
0

>  <SCORE.INTRA.REPUL.0>
0

>  <SCORE.INTRA.SOLV>
0.765167

>  <SCORE.INTRA.SOLV.lig_0>
-47.5333

>  <SCORE.INTRA.VDW>
-0.408684

>  <SCORE.INTRA.VDW.0>
-0.287413

>  <SCORE.INTRA.norm>
-0.618612

>  <SCORE.RESTR>
0

>  <SCORE.RESTR.CAVITY>
0

>  <SCORE.RESTR.norm>
0

>  <SCORE.SYSTEM>
0

>  <SCORE.SYSTEM.CONST>
0

>  <SCORE.SYSTEM.DIHEDRAL>
0

>  <SCORE.SYSTEM.SOLV>
0

>  <SCORE.SYSTEM.norm>
0

>  <SCORE.heavy>
14

>  <SCORE.norm>
-0.394613

>  <RMSD>
5.993

$$$$
ligand
 OpenBabel11021811493D
libRbt.so/2013.1/901 2013/11/27
 14 13  0  0  0  0  0  0  0  0999 V2000
   52.6097    6.2540    2.9631 N   0  0  0  0  0  0  0  0  0  0  0  0
   52.3758    5.1144    3.8226 C   0  0  0  0  0  0  0  0  0  0  0  0
   52.8247    3.8313    3.0934 C   0  0  0  0  0  0  0  0  0  0  0  0
   51.9815    3.4897    1.8551 C   0  0  0  0  0  0  0  0  0  0  0  0
   52.3772    2.2750    1.1261 N   0  0  0  0  0  0  0  0  0  0  0  0
   51.7088    1.8060   -0.0865 C   0  0  0  0  0  0  0  0  0  0  0  0
   52.1630    0.4157   -0.5188 C   0  0  0  0  0  0  0  0  0  0  0  0
   51.5117   -0.0659   -1.8194 C   0  0  0  0  0  0  0  0  0  0  0  0
   51.9247    0.7920   -3.0212 C   0  0  0  0  0  0  0  0  0  0  0  0
   51.3809    0.2054   -4.2443 N   0  0  0  0  0  0  0  0  0  0  0  0
   51.7573    0.6166   -5.5980 C   0  0  0  0  0  0  0  0  0  0  0  0
   51.4517   -0.4558   -6.6529 C   0  0  0  0  0  0  0  0  0  0  0  0
   51.9496   -0.0346   -8.0394 C   0  0  0  0  0  0  0  0  0  0  0  0
   51.1751    1.1122   -8.5045 N   0  0  0  0  0  0  0  0  0  0  0  0
  1  2  1  0  0  0  0
  2  3  1  0  0  0  0
  3  4  1  0  0  0  0
  4  5  1  0  0  0  0
  5  6  1  0  0  0  0
  6  7  1  0  0  0  0
  7  8  1  0  0  0  0
  8  9  1  0  0  0  0
  9 10  1  0  0  0  0
 10 11  1  0  0  0  0
 11 12  1  0  0  0  0
 12 13  1  0  0  0  0
 13 14  1  0  0  0  0
M  END
>  <CHROM.1>
-66.23693379,179.83342225,-178.86804868,-170.85741384,-177.70751303,65.08347326
174.40039006,-168.99213273,159.12446778,-175.88514271,-66.84378645,51.94228188
1.81087780,-1.83020361,-0.49579556,-1.47513979,-0.90143082

>  <Name>
ligand

>  <RI>
0

>  <Rbt.Current_Directory>
/home/itssahil/PROJECTS/Mol_Feturizer/New_Systems/rnas/4FAW

>  <Rbt.Executable>
rbdock ($Id: //depot/dev/client3/rdock/2013.1/src/exe/rbdock.cxx#4 $)

>  <Rbt.Library>
libRbt.so (2013.1, Build901 2013/11/27)

>  <Rbt.Parameter_File>
/export/apps/rDock/src/rDock_2013.1_src/data/scripts/dock_solv.prm

>  <Rbt.Receptor>
prm/pocket_docking_5.prm

>  <SCORE>
-6.15654

>  <SCORE.INTER>
3.0457

>  <SCORE.INTER.CONST>
1

>  <SCORE.INTER.POLAR>
0

>  <SCORE.INTER.ROT>
11

>  <SCORE.INTER.SOLV>
6.06893

>  <SCORE.INTER.VDW>
-10.9258

>  <SCORE.INTER.norm>
0.21755

>  <SCORE.INTRA>
-9.20224

>  <SCORE.INTRA.DIHEDRAL>
-17.9803

>  <SCORE.INTRA.DIHEDRAL.0>
19.1003

>  <SCORE.INTRA.POLAR>
0

>  <SCORE.INTRA.POLAR.0>
0

>  <SCORE.INTRA.REPUL>
0

>  <SCORE.INTRA.REPUL.0>
0

>  <SCORE.INTRA.SOLV>
0.0903742

>  <SCORE.INTRA.SOLV.lig_0>
-47.5333

>  <SCORE.INTRA.VDW>
-0.257286

>  <SCORE.INTRA.VDW.0>
-0.287413

>  <SCORE.INTRA.norm>
-0.657303

>  <SCORE.RESTR>
0

>  <SCORE.RESTR.CAVITY>
0

>  <SCORE.RESTR.norm>
0

>  <SCORE.SYSTEM>
0

>  <SCORE.SYSTEM.CONST>
0

>  <SCORE.SYSTEM.DIHEDRAL>
0

>  <SCORE.SYSTEM.SOLV>
0

>  <SCORE.SYSTEM.norm>
0

>  <SCORE.heavy>
14

>  <SCORE.norm>
-0.439753

>  <RMSD>
6.053

$$$$
ligand
 OpenBabel11021811493D
libRbt.so/2013.1/901 2013/11/27
 14 13  0  0  0  0  0  0  0  0999 V2000
   55.9206    5.6362   -2.2059 N   0  0  0  0  0  0  0  0  0  0  0  0
   55.4870    4.4237   -1.5471 C   0  0  0  0  0  0  0  0  0  0  0  0
   54.4112    4.7755   -0.4991 C   0  0  0  0  0  0  0  0  0  0  0  0
   53.8510    3.5584    0.2532 C   0  0  0  0  0  0  0  0  0  0  0  0
   53.1887    2.5412   -0.5776 N   0  0  0  0  0  0  0  0  0  0  0  0
   52.2338    1.5661   -0.0538 C   0  0  0  0  0  0  0  0  0  0  0  0
   52.0019    0.3911   -0.9982 C   0  0  0  0  0  0  0  0  0  0  0  0
   51.5968    0.8127   -2.4144 C   0  0  0  0  0  0  0  0  0  0  0  0
   51.4430   -0.3914   -3.3510 C   0  0  0  0  0  0  0  0  0  0  0  0
   51.0628    0.0763   -4.6823 N   0  0  0  0  0  0  0  0  0  0  0  0
   51.3865   -0.6208   -5.9284 C   0  0  0  0  0  0  0  0  0  0  0  0
   51.5598    0.3343   -7.1175 C   0  0  0  0  0  0  0  0  0  0  0  0
   51.8888   -0.4289   -8.4048 C   0  0  0  0  0  0  0  0  0  0  0  0
   52.0308    0.5183   -9.5066 N   0  0  0  0  0  0  0  0  0  0  0  0
  1  2  1  0  0  0  0
  2  3  1  0  0  0  0
  3  4  1  0  0  0  0
  4  5  1  0  0  0  0
  5  6  1  0  0  0  0
  6  7  1  0  0  0  0
  7  8  1  0  0  0  0
  8  9  1  0  0  0  0
  9 10  1  0  0  0  0
 10 11  1  0  0  0  0
 11 12  1  0  0  0  0
 12 13  1  0  0  0  0
 13 14  1  0  0  0  0
M  END
>  <CHROM.1>
178.92978214,-60.56240825,-159.19124937,-163.34041334,-53.73261203,177.07814569
-179.75304043,151.57400621,-149.66332802,-179.64971523,179.44348741,52.71864255
1.65640554,-3.35918454,-1.03992764,-0.88920803,-1.66911452

>  <Name>
ligand

>  <RI>
0

>  <Rbt.Current_Directory>
/home/itssahil/PROJECTS/Mol_Feturizer/New_Systems/rnas/4FAW

>  <Rbt.Executable>
rbdock ($Id: //depot/dev/client3/rdock/2013.1/src/exe/rbdock.cxx#4 $)

>  <Rbt.Library>
libRbt.so (2013.1, Build901 2013/11/27)

>  <Rbt.Parameter_File>
/export/apps/rDock/src/rDock_2013.1_src/data/scripts/dock_solv.prm

>  <Rbt.Receptor>
prm/pocket_docking_6.prm

>  <SCORE>
-7.87268

>  <SCORE.INTER>
2.06536

>  <SCORE.INTER.CONST>
1

>  <SCORE.INTER.POLAR>
0

>  <SCORE.INTER.ROT>
11

>  <SCORE.INTER.SOLV>
7.35965

>  <SCORE.INTER.VDW>
-12.0096

>  <SCORE.INTER.norm>
0.147525

>  <SCORE.INTRA>
-9.93804

>  <SCORE.INTRA.DIHEDRAL>
-17.2123

>  <SCORE.INTRA.DIHEDRAL.0>
19.1003

>  <SCORE.INTRA.POLAR>
0

>  <SCORE.INTRA.POLAR.0>
0

>  <SCORE.INTRA.REPUL>
0

>  <SCORE.INTRA.REPUL.0>
0

>  <SCORE.INTRA.SOLV>
-0.781958

>  <SCORE.INTRA.SOLV.lig_0>
-47.5333

>  <SCORE.INTRA.VDW>
-0.940907

>  <SCORE.INTRA.VDW.0>
-0.287413

>  <SCORE.INTRA.norm>
-0.70986

>  <SCORE.RESTR>
0

>  <SCORE.RESTR.CAVITY>
0

>  <SCORE.RESTR.norm>
0

>  <SCORE.SYSTEM>
0

>  <SCORE.SYSTEM.CONST>
0

>  <SCORE.SYSTEM.DIHEDRAL>
0

>  <SCORE.SYSTEM.SOLV>
0

>  <SCORE.SYSTEM.norm>
0

>  <SCORE.heavy>
14

>  <SCORE.norm>
-0.562335

>  <RMSD>
6.073

$$$$
ligand
 OpenBabel11021811493D
libRbt.so/2013.1/901 2013/11/27
 14 13  0  0  0  0  0  0  0  0999 V2000
   58.2342    3.6377    3.1230 N   0  0  0  0  0  0  0  0  0  0  0  0
   59.1344    2.5514    2.8041 C   0  0  0  0  0  0  0  0  0  0  0  0
   59.5099    2.6289    1.3099 C   0  0  0  0  0  0  0  0  0  0  0  0
   58.3131    2.4841    0.3572 C   0  0  0  0  0  0  0  0  0  0  0  0
   57.5331    1.2444    0.4925 N   0  0  0  0  0  0  0  0  0  0  0  0
   57.8791   -0.0060   -0.1811 C   0  0  0  0  0  0  0  0  0  0  0  0
   57.4094   -1.2428    0.5779 C   0  0  0  0  0  0  0  0  0  0  0  0
   57.9364   -1.3179    2.0146 C   0  0  0  0  0  0  0  0  0  0  0  0
   59.4611   -1.4726    2.0605 C   0  0  0  0  0  0  0  0  0  0  0  0
   59.8867   -1.6656    3.4452 N   0  0  0  0  0  0  0  0  0  0  0  0
   61.2261   -2.0991    3.8469 C   0  0  0  0  0  0  0  0  0  0  0  0
   62.0915   -0.9468    4.3756 C   0  0  0  0  0  0  0  0  0  0  0  0
   61.5186   -0.3666    5.6729 C   0  0  0  0  0  0  0  0  0  0  0  0
   61.6120   -1.3658    6.7331 N   0  0  0  0  0  0  0  0  0  0  0  0
  1  2  1  0  0  0  0
  2  3  1  0  0  0  0
  3  4  1  0  0  0  0
  4  5  1  0  0  0  0
  5  6  1  0  0  0  0
  6  7  1  0  0  0  0
  7  8  1  0  0  0  0
  8  9  1  0  0  0  0
  9 10  1  0  0  0  0
 10 11  1  0  0  0  0
 11 12  1  0  0  0  0
 12 13  1  0  0  0  0
 13 14  1  0  0  0  0
M  END
>  <CHROM.1>
-61.62859925,-57.88105744,-85.49487557,151.85493653,-56.49379571,-64.94102060
-174.66529190,167.78904216,103.07773869,64.92589133,66.61054740,59.41043990
0.14723822,2.61625540,-2.76005703,0.93872453,-3.03053761

>  <Name>
ligand

>  <RI>
0

>  <Rbt.Current_Directory>
/home/itssahil/PROJECTS/Mol_Feturizer/New_Systems/rnas/4FAW

>  <Rbt.Executable>
rbdock ($Id: //depot/dev/client3/rdock/2013.1/src/exe/rbdock.cxx#4 $)

>  <Rbt.Library>
libRbt.so (2013.1, Build901 2013/11/27)

>  <Rbt.Parameter_File>
/export/apps/rDock/src/rDock_2013.1_src/data/scripts/dock_solv.prm

>  <Rbt.Receptor>
prm/pocket_docking_6.prm

>  <SCORE>
-8.74405

>  <SCORE.INTER>
-1.02372

>  <SCORE.INTER.CONST>
1

>  <SCORE.INTER.POLAR>
0

>  <SCORE.INTER.ROT>
11

>  <SCORE.INTER.SOLV>
9.01228

>  <SCORE.INTER.VDW>
-14.6199

>  <SCORE.INTER.norm>
-0.0731226

>  <SCORE.INTRA>
-7.72033

>  <SCORE.INTRA.DIHEDRAL>
-16.4636

>  <SCORE.INTRA.DIHEDRAL.0>
19.1003

>  <SCORE.INTRA.POLAR>
0

>  <SCORE.INTRA.POLAR.0>
0

>  <SCORE.INTRA.REPUL>
0

>  <SCORE.INTRA.REPUL.0>
0

>  <SCORE.INTRA.SOLV>
2.84862

>  <SCORE.INTRA.SOLV.lig_0>
-47.5333

>  <SCORE.INTRA.VDW>
-0.912851

>  <SCORE.INTRA.VDW.0>
-0.287413

>  <SCORE.INTRA.norm>
-0.551452

>  <SCORE.RESTR>
0

>  <SCORE.RESTR.CAVITY>
0

>  <SCORE.RESTR.norm>
0

>  <SCORE.SYSTEM>
0

>  <SCORE.SYSTEM.CONST>
0

>  <SCORE.SYSTEM.DIHEDRAL>
0

>  <SCORE.SYSTEM.SOLV>
0

>  <SCORE.SYSTEM.norm>
0

>  <SCORE.heavy>
14

>  <SCORE.norm>
-0.624575

>  <RMSD>
6.121

$$$$
ligand
 OpenBabel11021811493D
libRbt.so/2013.1/901 2013/11/27
 14 13  0  0  0  0  0  0  0  0999 V2000
   53.5914    2.9419   -8.3038 N   0  0  0  0  0  0  0  0  0  0  0  0
   54.2789    2.4989   -7.1108 C   0  0  0  0  0  0  0  0  0  0  0  0
   53.2502    2.3056   -5.9776 C   0  0  0  0  0  0  0  0  0  0  0  0
   52.2084    1.2121   -6.2602 C   0  0  0  0  0  0  0  0  0  0  0  0
   51.1173    1.0984   -5.2803 N   0  0  0  0  0  0  0  0  0  0  0  0
   50.7177   -0.1624   -4.6578 C   0  0  0  0  0  0  0  0  0  0  0  0
   51.5192   -0.4883   -3.4017 C   0  0  0  0  0  0  0  0  0  0  0  0
   51.4679    0.6132   -2.3380 C   0  0  0  0  0  0  0  0  0  0  0  0
   52.0189    0.1360   -0.9891 C   0  0  0  0  0  0  0  0  0  0  0  0
   51.8151    1.1795    0.0135 N   0  0  0  0  0  0  0  0  0  0  0  0
   52.6460    2.3781    0.1417 C   0  0  0  0  0  0  0  0  0  0  0  0
   52.2534    3.2494    1.3430 C   0  0  0  0  0  0  0  0  0  0  0  0
   53.1272    4.5048    1.4328 C   0  0  0  0  0  0  0  0  0  0  0  0
   52.8602    5.3640    0.2832 N   0  0  0  0  0  0  0  0  0  0  0  0
  1  2  1  0  0  0  0
  2  3  1  0  0  0  0
  3  4  1  0  0  0  0
  4  5  1  0  0  0  0
  5  6  1  0  0  0  0
  6  7  1  0  0  0  0
  7  8  1  0  0  0  0
  8  9  1  0  0  0  0
  9 10  1  0  0  0  0
 10 11  1  0  0  0  0
 11 12  1  0  0  0  0
 12 13  1  0  0  0  0
 13 14  1  0  0  0  0
M  END
>  <CHROM.1>
63.22994792,-173.20201250,-129.79198902,86.92063634,55.95595229,167.61931941
-174.14080237,-78.05425000,-176.15562894,-179.05984090,66.04199025,52.34798693
1.91622021,-2.93592523,-1.49544429,1.06949044,1.30632257

>  <Name>
ligand

>  <RI>
0

>  <Rbt.Current_Directory>
/home/itssahil/PROJECTS/Mol_Feturizer/New_Systems/rnas/4FAW

>  <Rbt.Executable>
rbdock ($Id: //depot/dev/client3/rdock/2013.1/src/exe/rbdock.cxx#4 $)

>  <Rbt.Library>
libRbt.so (2013.1, Build901 2013/11/27)

>  <Rbt.Parameter_File>
/export/apps/rDock/src/rDock_2013.1_src/data/scripts/dock_solv.prm

>  <Rbt.Receptor>
prm/pocket_docking_5.prm

>  <SCORE>
-6.44077

>  <SCORE.INTER>
1.92481

>  <SCORE.INTER.CONST>
1

>  <SCORE.INTER.POLAR>
0

>  <SCORE.INTER.ROT>
11

>  <SCORE.INTER.SOLV>
6.204

>  <SCORE.INTER.VDW>
-11.7181

>  <SCORE.INTER.norm>
0.137486

>  <SCORE.INTRA>
-8.36558

>  <SCORE.INTRA.DIHEDRAL>
-16.049

>  <SCORE.INTRA.DIHEDRAL.0>
19.1003

>  <SCORE.INTRA.POLAR>
0

>  <SCORE.INTRA.POLAR.0>
0

>  <SCORE.INTRA.REPUL>
0

>  <SCORE.INTRA.REPUL.0>
0

>  <SCORE.INTRA.SOLV>
0.431201

>  <SCORE.INTRA.SOLV.lig_0>
-47.5333

>  <SCORE.INTRA.VDW>
-0.556658

>  <SCORE.INTRA.VDW.0>
-0.287413

>  <SCORE.INTRA.norm>
-0.597541

>  <SCORE.RESTR>
0

>  <SCORE.RESTR.CAVITY>
0

>  <SCORE.RESTR.norm>
0

>  <SCORE.SYSTEM>
0

>  <SCORE.SYSTEM.CONST>
0

>  <SCORE.SYSTEM.DIHEDRAL>
0

>  <SCORE.SYSTEM.SOLV>
0

>  <SCORE.SYSTEM.norm>
0

>  <SCORE.heavy>
14

>  <SCORE.norm>
-0.460055

>  <RMSD>
6.194

$$$$
ligand
 OpenBabel11021811493D
libRbt.so/2013.1/901 2013/11/27
 14 13  0  0  0  0  0  0  0  0999 V2000
   55.4679    1.5131    4.4550 N   0  0  0  0  0  0  0  0  0  0  0  0
   54.3682    0.6737    4.0330 C   0  0  0  0  0  0  0  0  0  0  0  0
   54.9239   -0.5220    3.2324 C   0  0  0  0  0  0  0  0  0  0  0  0
   55.6044   -0.1272    1.9125 C   0  0  0  0  0  0  0  0  0  0  0  0
   56.2293   -1.2260    1.1603 N   0  0  0  0  0  0  0  0  0  0  0  0
   57.3856   -1.0504    0.2834 C   0  0  0  0  0  0  0  0  0  0  0  0
   58.6382   -0.6027    1.0297 C   0  0  0  0  0  0  0  0  0  0  0  0
   59.1557   -1.6362    2.0354 C   0  0  0  0  0  0  0  0  0  0  0  0
   60.4582   -1.1839    2.7060 C   0  0  0  0  0  0  0  0  0  0  0  0
   60.8695   -2.1843    3.6887 N   0  0  0  0  0  0  0  0  0  0  0  0
   62.1698   -2.1983    4.3613 C   0  0  0  0  0  0  0  0  0  0  0  0
   62.4043   -0.9550    5.2304 C   0  0  0  0  0  0  0  0  0  0  0  0
   61.4269   -0.9040    6.4093 C   0  0  0  0  0  0  0  0  0  0  0  0
   61.6778   -2.0364    7.2958 N   0  0  0  0  0  0  0  0  0  0  0  0
  1  2  1  0  0  0  0
  2  3  1  0  0  0  0
  3  4  1  0  0  0  0
  4  5  1  0  0  0  0
  5  6  1  0  0  0  0
  6  7  1  0  0  0  0
  7  8  1  0  0  0  0
  8  9  1  0  0  0  0
  9 10  1  0  0  0  0
 10 11  1  0  0  0  0
 11 12  1  0  0  0  0
 12 13  1  0  0  0  0
 13 14  1  0  0  0  0
M  END
>  <CHROM.1>
-64.75607475,176.01612412,-150.94806332,63.91641328,64.39675381,176.75107992
177.76232394,169.55985417,62.56236496,65.55615586,64.40808059,58.62716333
-0.88848938,3.41636371,2.77442121,0.33170246,-1.78823589

>  <Name>
ligand

>  <RI>
0

>  <Rbt.Current_Directory>
/home/itssahil/PROJECTS/Mol_Feturizer/New_Systems/rnas/4FAW

>  <Rbt.Executable>
rbdock ($Id: //depot/dev/client3/rdock/2013.1/src/exe/rbdock.cxx#4 $)

>  <Rbt.Library>
libRbt.so (2013.1, Build901 2013/11/27)

>  <Rbt.Parameter_File>
/export/apps/rDock/src/rDock_2013.1_src/data/scripts/dock_solv.prm

>  <Rbt.Receptor>
prm/pocket_docking_7.prm

>  <SCORE>
-7.45574

>  <SCORE.INTER>
1.20728

>  <SCORE.INTER.CONST>
1

>  <SCORE.INTER.POLAR>
0

>  <SCORE.INTER.ROT>
11

>  <SCORE.INTER.SOLV>
9.98075

>  <SCORE.INTER.VDW>
-13.4554

>  <SCORE.INTER.norm>
0.0862339

>  <SCORE.INTRA>
-8.66301

>  <SCORE.INTRA.DIHEDRAL>
-17.9547

>  <SCORE.INTRA.DIHEDRAL.0>
19.1003

>  <SCORE.INTRA.POLAR>
0

>  <SCORE.INTRA.POLAR.0>
0

>  <SCORE.INTRA.REPUL>
0

>  <SCORE.INTRA.REPUL.0>
0

>  <SCORE.INTRA.SOLV>
1.31024

>  <SCORE.INTRA.SOLV.lig_0>
-47.5333

>  <SCORE.INTRA.VDW>
-0.340799

>  <SCORE.INTRA.VDW.0>
-0.287413

>  <SCORE.INTRA.norm>
-0.618787

>  <SCORE.RESTR>
0

>  <SCORE.RESTR.CAVITY>
0

>  <SCORE.RESTR.norm>
0

>  <SCORE.SYSTEM>
0

>  <SCORE.SYSTEM.CONST>
0

>  <SCORE.SYSTEM.DIHEDRAL>
0

>  <SCORE.SYSTEM.SOLV>
0

>  <SCORE.SYSTEM.norm>
0

>  <SCORE.heavy>
14

>  <SCORE.norm>
-0.532553

>  <RMSD>
6.207

$$$$
ligand
 OpenBabel11021811493D
libRbt.so/2013.1/901 2013/11/27
 14 13  0  0  0  0  0  0  0  0999 V2000
   49.6883    5.8686   -5.9435 N   0  0  0  0  0  0  0  0  0  0  0  0
   49.9859    4.4791   -5.6734 C   0  0  0  0  0  0  0  0  0  0  0  0
   48.9638    3.9325   -4.6555 C   0  0  0  0  0  0  0  0  0  0  0  0
   49.2217    2.4782   -4.2317 C   0  0  0  0  0  0  0  0  0  0  0  0
   49.1691    1.4782   -5.3091 N   0  0  0  0  0  0  0  0  0  0  0  0
   49.3534    0.0445   -5.0911 C   0  0  0  0  0  0  0  0  0  0  0  0
   50.8160   -0.3845   -5.1460 C   0  0  0  0  0  0  0  0  0  0  0  0
   51.6703    0.2020   -4.0174 C   0  0  0  0  0  0  0  0  0  0  0  0
   51.3008   -0.3873   -2.6509 C   0  0  0  0  0  0  0  0  0  0  0  0
   52.0072    0.3442   -1.6014 N   0  0  0  0  0  0  0  0  0  0  0  0
   51.6955    1.7157   -1.1947 C   0  0  0  0  0  0  0  0  0  0  0  0
   52.1282    2.0228    0.2457 C   0  0  0  0  0  0  0  0  0  0  0  0
   53.6540    2.0142    0.3854 C   0  0  0  0  0  0  0  0  0  0  0  0
   54.0163    2.3459    1.7602 N   0  0  0  0  0  0  0  0  0  0  0  0
  1  2  1  0  0  0  0
  2  3  1  0  0  0  0
  3  4  1  0  0  0  0
  4  5  1  0  0  0  0
  5  6  1  0  0  0  0
  6  7  1  0  0  0  0
  7  8  1  0  0  0  0
  8  9  1  0  0  0  0
  9 10  1  0  0  0  0
 10 11  1  0  0  0  0
 11 12  1  0  0  0  0
 12 13  1  0  0  0  0
 13 14  1  0  0  0  0
M  END
>  <CHROM.1>
-176.99013276,-61.25914837,-178.32645274,-87.51895502,65.32118376,68.93988775
-171.88595622,71.38361999,155.35265132,67.12120076,178.48506529,50.97634157
1.86789373,-3.08036471,-3.05135054,1.02480136,-3.00177338

>  <Name>
ligand

>  <RI>
0

>  <Rbt.Current_Directory>
/home/itssahil/PROJECTS/Mol_Feturizer/New_Systems/rnas/4FAW

>  <Rbt.Executable>
rbdock ($Id: //depot/dev/client3/rdock/2013.1/src/exe/rbdock.cxx#4 $)

>  <Rbt.Library>
libRbt.so (2013.1, Build901 2013/11/27)

>  <Rbt.Parameter_File>
/export/apps/rDock/src/rDock_2013.1_src/data/scripts/dock_solv.prm

>  <Rbt.Receptor>
prm/pocket_docking_5.prm

>  <SCORE>
-8.08416

>  <SCORE.INTER>
1.16951

>  <SCORE.INTER.CONST>
1

>  <SCORE.INTER.POLAR>
0

>  <SCORE.INTER.ROT>
11

>  <SCORE.INTER.SOLV>
9.40088

>  <SCORE.INTER.VDW>
-13.2873

>  <SCORE.INTER.norm>
0.0835364

>  <SCORE.INTRA>
-9.25367

>  <SCORE.INTRA.DIHEDRAL>
-17.1188

>  <SCORE.INTRA.DIHEDRAL.0>
19.1003

>  <SCORE.INTRA.POLAR>
0

>  <SCORE.INTRA.POLAR.0>
0

>  <SCORE.INTRA.REPUL>
0

>  <SCORE.INTRA.REPUL.0>
0

>  <SCORE.INTRA.SOLV>
-0.0862825

>  <SCORE.INTRA.SOLV.lig_0>
-47.5333

>  <SCORE.INTRA.VDW>
-0.651139

>  <SCORE.INTRA.VDW.0>
-0.287413

>  <SCORE.INTRA.norm>
-0.660976

>  <SCORE.RESTR>
0

>  <SCORE.RESTR.CAVITY>
0

>  <SCORE.RESTR.norm>
0

>  <SCORE.SYSTEM>
0

>  <SCORE.SYSTEM.CONST>
0

>  <SCORE.SYSTEM.DIHEDRAL>
0

>  <SCORE.SYSTEM.SOLV>
0

>  <SCORE.SYSTEM.norm>
0

>  <SCORE.heavy>
14

>  <SCORE.norm>
-0.57744

>  <RMSD>
6.215

$$$$
ligand
 OpenBabel11021811493D
libRbt.so/2013.1/901 2013/11/27
 14 13  0  0  0  0  0  0  0  0999 V2000
   55.2674    0.5684    5.0513 N   0  0  0  0  0  0  0  0  0  0  0  0
   55.3245   -0.4352    4.0112 C   0  0  0  0  0  0  0  0  0  0  0  0
   54.8089    0.1752    2.6917 C   0  0  0  0  0  0  0  0  0  0  0  0
   54.8517   -0.7915    1.4981 C   0  0  0  0  0  0  0  0  0  0  0  0
   56.1889   -1.2542    1.0963 N   0  0  0  0  0  0  0  0  0  0  0  0
   57.1598   -0.4129    0.3987 C   0  0  0  0  0  0  0  0  0  0  0  0
   58.3509   -0.0277    1.2700 C   0  0  0  0  0  0  0  0  0  0  0  0
   59.1717   -1.2281    1.7528 C   0  0  0  0  0  0  0  0  0  0  0  0
   60.3304   -0.8037    2.6628 C   0  0  0  0  0  0  0  0  0  0  0  0
   61.0352   -1.9934    3.1356 N   0  0  0  0  0  0  0  0  0  0  0  0
   61.3627   -2.2592    4.5376 C   0  0  0  0  0  0  0  0  0  0  0  0
   62.5591   -1.4367    5.0361 C   0  0  0  0  0  0  0  0  0  0  0  0
   62.8436   -1.7043    6.5176 C   0  0  0  0  0  0  0  0  0  0  0  0
   63.1701   -3.1154    6.7010 N   0  0  0  0  0  0  0  0  0  0  0  0
  1  2  1  0  0  0  0
  2  3  1  0  0  0  0
  3  4  1  0  0  0  0
  4  5  1  0  0  0  0
  5  6  1  0  0  0  0
  6  7  1  0  0  0  0
  7  8  1  0  0  0  0
  8  9  1  0  0  0  0
  9 10  1  0  0  0  0
 10 11  1  0  0  0  0
 11 12  1  0  0  0  0
 12 13  1  0  0  0  0
 13 14  1  0  0  0  0
M  END
>  <CHROM.1>
178.66884265,-63.14948003,-73.44398106,109.66921416,61.50650268,-178.07437866
177.49979378,-129.97057794,-76.71635991,178.07342219,61.13945850,58.74456579
-1.05117071,3.31120677,2.70940258,0.25894500,-1.57629756

>  <Name>
ligand

>  <RI>
0

>  <Rbt.Current_Directory>
/home/itssahil/PROJECTS/Mol_Feturizer/New_Systems/rnas/4FAW

>  <Rbt.Executable>
rbdock ($Id: //depot/dev/client3/rdock/2013.1/src/exe/rbdock.cxx#4 $)

>  <Rbt.Library>
libRbt.so (2013.1, Build901 2013/11/27)

>  <Rbt.Parameter_File>
/export/apps/rDock/src/rDock_2013.1_src/data/scripts/dock_solv.prm

>  <Rbt.Receptor>
prm/pocket_docking_6.prm

>  <SCORE>
-8.10849

>  <SCORE.INTER>
0.940004

>  <SCORE.INTER.CONST>
1

>  <SCORE.INTER.POLAR>
0

>  <SCORE.INTER.ROT>
11

>  <SCORE.INTER.SOLV>
12.1339

>  <SCORE.INTER.VDW>
-14.3513

>  <SCORE.INTER.norm>
0.0671431

>  <SCORE.INTRA>
-9.04849

>  <SCORE.INTRA.DIHEDRAL>
-16.397

>  <SCORE.INTRA.DIHEDRAL.0>
19.1003

>  <SCORE.INTRA.POLAR>
0

>  <SCORE.INTRA.POLAR.0>
0

>  <SCORE.INTRA.REPUL>
0

>  <SCORE.INTRA.REPUL.0>
0

>  <SCORE.INTRA.SOLV>
0.0185086

>  <SCORE.INTRA.SOLV.lig_0>
-47.5333

>  <SCORE.INTRA.VDW>
-0.859269

>  <SCORE.INTRA.VDW.0>
-0.287413

>  <SCORE.INTRA.norm>
-0.646321

>  <SCORE.RESTR>
0

>  <SCORE.RESTR.CAVITY>
0

>  <SCORE.RESTR.norm>
0

>  <SCORE.SYSTEM>
0

>  <SCORE.SYSTEM.CONST>
0

>  <SCORE.SYSTEM.DIHEDRAL>
0

>  <SCORE.SYSTEM.SOLV>
0

>  <SCORE.SYSTEM.norm>
0

>  <SCORE.heavy>
14

>  <SCORE.norm>
-0.579178

>  <RMSD>
6.255

$$$$
ligand
 OpenBabel11021811493D
libRbt.so/2013.1/901 2013/11/27
 14 13  0  0  0  0  0  0  0  0999 V2000
   52.3082    0.8161   -9.0840 N   0  0  0  0  0  0  0  0  0  0  0  0
   52.4720   -0.4259   -8.3611 C   0  0  0  0  0  0  0  0  0  0  0  0
   51.4830   -0.4554   -7.1776 C   0  0  0  0  0  0  0  0  0  0  0  0
   51.7791    0.5894   -6.0905 C   0  0  0  0  0  0  0  0  0  0  0  0
   50.8699    0.5860   -4.9342 N   0  0  0  0  0  0  0  0  0  0  0  0
   50.7816   -0.5166   -3.9785 C   0  0  0  0  0  0  0  0  0  0  0  0
   51.7472   -0.3698   -2.8070 C   0  0  0  0  0  0  0  0  0  0  0  0
   51.5027    0.8859   -1.9638 C   0  0  0  0  0  0  0  0  0  0  0  0
   52.3336    0.8840   -0.6752 C   0  0  0  0  0  0  0  0  0  0  0  0
   51.9816    2.0521    0.1294 N   0  0  0  0  0  0  0  0  0  0  0  0
   52.6448    2.4263    1.3798 C   0  0  0  0  0  0  0  0  0  0  0  0
   51.6610    2.9104    2.4541 C   0  0  0  0  0  0  0  0  0  0  0  0
   52.3825    3.2436    3.7641 C   0  0  0  0  0  0  0  0  0  0  0  0
   51.4082    3.6995    4.7512 N   0  0  0  0  0  0  0  0  0  0  0  0
  1  2  1  0  0  0  0
  2  3  1  0  0  0  0
  3  4  1  0  0  0  0
  4  5  1  0  0  0  0
  5  6  1  0  0  0  0
  6  7  1  0  0  0  0
  7  8  1  0  0  0  0
  8  9  1  0  0  0  0
  9 10  1  0  0  0  0
 10 11  1  0  0  0  0
 11 12  1  0  0  0  0
 12 13  1  0  0  0  0
 13 14  1  0  0  0  0
M  END
>  <CHROM.1>
-66.70764347,-179.27653956,66.18826491,89.68717584,61.26017324,170.71218094
-175.74881523,-175.36581624,-138.83879279,177.88809592,179.93344055,51.81115588
1.16586002,-2.32810621,-1.59719921,1.09394098,1.31828887

>  <Name>
ligand

>  <RI>
0

>  <Rbt.Current_Directory>
/home/itssahil/PROJECTS/Mol_Feturizer/New_Systems/rnas/4FAW

>  <Rbt.Executable>
rbdock ($Id: //depot/dev/client3/rdock/2013.1/src/exe/rbdock.cxx#4 $)

>  <Rbt.Library>
libRbt.so (2013.1, Build901 2013/11/27)

>  <Rbt.Parameter_File>
/export/apps/rDock/src/rDock_2013.1_src/data/scripts/dock_solv.prm

>  <Rbt.Receptor>
prm/pocket_docking_6.prm

>  <SCORE>
-8.06737

>  <SCORE.INTER>
1.30835

>  <SCORE.INTER.CONST>
1

>  <SCORE.INTER.POLAR>
0

>  <SCORE.INTER.ROT>
11

>  <SCORE.INTER.SOLV>
7.04528

>  <SCORE.INTER.VDW>
-12.4095

>  <SCORE.INTER.norm>
0.0934538

>  <SCORE.INTRA>
-9.37572

>  <SCORE.INTRA.DIHEDRAL>
-16.9141

>  <SCORE.INTRA.DIHEDRAL.0>
19.1003

>  <SCORE.INTRA.POLAR>
0

>  <SCORE.INTRA.POLAR.0>
0

>  <SCORE.INTRA.REPUL>
0

>  <SCORE.INTRA.REPUL.0>
0

>  <SCORE.INTRA.SOLV>
-0.47091

>  <SCORE.INTRA.SOLV.lig_0>
-47.5333

>  <SCORE.INTRA.VDW>
-0.68319

>  <SCORE.INTRA.VDW.0>
-0.287413

>  <SCORE.INTRA.norm>
-0.669694

>  <SCORE.RESTR>
0

>  <SCORE.RESTR.CAVITY>
0

>  <SCORE.RESTR.norm>
0

>  <SCORE.SYSTEM>
0

>  <SCORE.SYSTEM.CONST>
0

>  <SCORE.SYSTEM.DIHEDRAL>
0

>  <SCORE.SYSTEM.SOLV>
0

>  <SCORE.SYSTEM.norm>
0

>  <SCORE.heavy>
14

>  <SCORE.norm>
-0.57624

>  <RMSD>
6.255

$$$$
ligand
 OpenBabel11021811493D
libRbt.so/2013.1/901 2013/11/27
 14 13  0  0  0  0  0  0  0  0999 V2000
   53.2300    3.5786    3.9662 N   0  0  0  0  0  0  0  0  0  0  0  0
   52.7544    2.5831    3.0309 C   0  0  0  0  0  0  0  0  0  0  0  0
   52.1865    3.2920    1.7841 C   0  0  0  0  0  0  0  0  0  0  0  0
   51.5957    2.3353    0.7370 C   0  0  0  0  0  0  0  0  0  0  0  0
   52.5193    1.3245    0.1995 N   0  0  0  0  0  0  0  0  0  0  0  0
   52.1113    0.2644   -0.7207 C   0  0  0  0  0  0  0  0  0  0  0  0
   51.7853    0.7801   -2.1186 C   0  0  0  0  0  0  0  0  0  0  0  0
   51.4134   -0.3273   -3.1100 C   0  0  0  0  0  0  0  0  0  0  0  0
   51.1013    0.2298   -4.5039 C   0  0  0  0  0  0  0  0  0  0  0  0
   50.7740   -0.8738   -5.4041 N   0  0  0  0  0  0  0  0  0  0  0  0
   50.5652   -0.7318   -6.8462 C   0  0  0  0  0  0  0  0  0  0  0  0
   51.8465   -0.3466   -7.5985 C   0  0  0  0  0  0  0  0  0  0  0  0
   51.5536   -0.0020   -9.0625 C   0  0  0  0  0  0  0  0  0  0  0  0
   50.7412    1.2095   -9.1216 N   0  0  0  0  0  0  0  0  0  0  0  0
  1  2  1  0  0  0  0
  2  3  1  0  0  0  0
  3  4  1  0  0  0  0
  4  5  1  0  0  0  0
  5  6  1  0  0  0  0
  6  7  1  0  0  0  0
  7  8  1  0  0  0  0
  8  9  1  0  0  0  0
  9 10  1  0  0  0  0
 10 11  1  0  0  0  0
 11 12  1  0  0  0  0
 12 13  1  0  0  0  0
 13 14  1  0  0  0  0
M  END
>  <CHROM.1>
-177.65964210,-58.60797993,174.87624637,71.11868960,177.55268818,-179.66074790
179.19150484,-173.04817846,67.24623640,-171.46943403,65.97738703,51.72693589
0.95098953,-2.76924766,-0.74252702,-1.38245917,-1.01627842

>  <Name>
ligand

>  <RI>
0

>  <Rbt.Current_Directory>
/home/itssahil/PROJECTS/Mol_Feturizer/New_Systems/rnas/4FAW

>  <Rbt.Executable>
rbdock ($Id: //depot/dev/client3/rdock/2013.1/src/exe/rbdock.cxx#4 $)

>  <Rbt.Library>
libRbt.so (2013.1, Build901 2013/11/27)

>  <Rbt.Parameter_File>
/export/apps/rDock/src/rDock_2013.1_src/data/scripts/dock_solv.prm

>  <Rbt.Receptor>
prm/pocket_docking_6.prm

>  <SCORE>
-8.84068

>  <SCORE.INTER>
1.00984

>  <SCORE.INTER.CONST>
1

>  <SCORE.INTER.POLAR>
0

>  <SCORE.INTER.ROT>
11

>  <SCORE.INTER.SOLV>
6.81175

>  <SCORE.INTER.VDW>
-12.5307

>  <SCORE.INTER.norm>
0.0721314

>  <SCORE.INTRA>
-9.86153

>  <SCORE.INTRA.DIHEDRAL>
-18.4396

>  <SCORE.INTRA.DIHEDRAL.0>
19.1003

>  <SCORE.INTRA.POLAR>
0

>  <SCORE.INTRA.POLAR.0>
0

>  <SCORE.INTRA.REPUL>
0

>  <SCORE.INTRA.REPUL.0>
0

>  <SCORE.INTRA.SOLV>
-0.342043

>  <SCORE.INTRA.SOLV.lig_0>
-47.5333

>  <SCORE.INTRA.VDW>
-0.47071

>  <SCORE.INTRA.VDW.0>
-0.287413

>  <SCORE.INTRA.norm>
-0.704395

>  <SCORE.RESTR>
0.0110061

>  <SCORE.RESTR.CAVITY>
0.0110061

>  <SCORE.RESTR.norm>
0.000786152

>  <SCORE.SYSTEM>
0

>  <SCORE.SYSTEM.CONST>
0

>  <SCORE.SYSTEM.DIHEDRAL>
0

>  <SCORE.SYSTEM.SOLV>
0

>  <SCORE.SYSTEM.norm>
0

>  <SCORE.heavy>
14

>  <SCORE.norm>
-0.631477

>  <RMSD>
6.264

$$$$
ligand
 OpenBabel11021811493D
libRbt.so/2013.1/901 2013/11/27
 14 13  0  0  0  0  0  0  0  0999 V2000
   56.2661    5.3754   -2.5812 N   0  0  0  0  0  0  0  0  0  0  0  0
   55.2257    4.7721   -1.7776 C   0  0  0  0  0  0  0  0  0  0  0  0
   54.2667    3.9894   -2.6981 C   0  0  0  0  0  0  0  0  0  0  0  0
   53.0246    3.4378   -1.9811 C   0  0  0  0  0  0  0  0  0  0  0  0
   53.2847    2.4844   -0.8916 N   0  0  0  0  0  0  0  0  0  0  0  0
   52.2459    1.6664   -0.2681 C   0  0  0  0  0  0  0  0  0  0  0  0
   51.9560    0.3815   -1.0371 C   0  0  0  0  0  0  0  0  0  0  0  0
   51.5256    0.6188   -2.4883 C   0  0  0  0  0  0  0  0  0  0  0  0
   51.0340   -0.6688   -3.1601 C   0  0  0  0  0  0  0  0  0  0  0  0
   50.6317   -0.3748   -4.5339 N   0  0  0  0  0  0  0  0  0  0  0  0
   51.5604   -0.2386   -5.6574 C   0  0  0  0  0  0  0  0  0  0  0  0
   50.8750   -0.4069   -7.0206 C   0  0  0  0  0  0  0  0  0  0  0  0
   51.8781   -0.2748   -8.1712 C   0  0  0  0  0  0  0  0  0  0  0  0
   52.3949    1.0901   -8.2090 N   0  0  0  0  0  0  0  0  0  0  0  0
  1  2  1  0  0  0  0
  2  3  1  0  0  0  0
  3  4  1  0  0  0  0
  4  5  1  0  0  0  0
  5  6  1  0  0  0  0
  6  7  1  0  0  0  0
  7  8  1  0  0  0  0
  8  9  1  0  0  0  0
  9 10  1  0  0  0  0
 10 11  1  0  0  0  0
 11 12  1  0  0  0  0
 12 13  1  0  0  0  0
 13 14  1  0  0  0  0
M  END
>  <CHROM.1>
-173.23707222,-60.91339005,-167.94701992,84.19784481,-57.91718775,-171.05975503
179.63435239,80.19172799,160.43556990,-179.33038330,-65.89145206,52.58329801
1.56062164,-3.60519258,-0.87832420,-0.86685251,-1.67464773

>  <Name>
ligand

>  <RI>
0

>  <Rbt.Current_Directory>
/home/itssahil/PROJECTS/Mol_Feturizer/New_Systems/rnas/4FAW

>  <Rbt.Executable>
rbdock ($Id: //depot/dev/client3/rdock/2013.1/src/exe/rbdock.cxx#4 $)

>  <Rbt.Library>
libRbt.so (2013.1, Build901 2013/11/27)

>  <Rbt.Parameter_File>
/export/apps/rDock/src/rDock_2013.1_src/data/scripts/dock_solv.prm

>  <Rbt.Receptor>
prm/pocket_docking_6.prm

>  <SCORE>
-7.15837

>  <SCORE.INTER>
1.98617

>  <SCORE.INTER.CONST>
1

>  <SCORE.INTER.POLAR>
0

>  <SCORE.INTER.ROT>
11

>  <SCORE.INTER.SOLV>
9.05505

>  <SCORE.INTER.VDW>
-12.6276

>  <SCORE.INTER.norm>
0.141869

>  <SCORE.INTRA>
-9.14454

>  <SCORE.INTRA.DIHEDRAL>
-17.3183

>  <SCORE.INTRA.DIHEDRAL.0>
19.1003

>  <SCORE.INTRA.POLAR>
0

>  <SCORE.INTRA.POLAR.0>
0

>  <SCORE.INTRA.REPUL>
0

>  <SCORE.INTRA.REPUL.0>
0

>  <SCORE.INTRA.SOLV>
-0.0505016

>  <SCORE.INTRA.SOLV.lig_0>
-47.5333

>  <SCORE.INTRA.VDW>
-0.460118

>  <SCORE.INTRA.VDW.0>
-0.287413

>  <SCORE.INTRA.norm>
-0.653181

>  <SCORE.RESTR>
0

>  <SCORE.RESTR.CAVITY>
0

>  <SCORE.RESTR.norm>
0

>  <SCORE.SYSTEM>
0

>  <SCORE.SYSTEM.CONST>
0

>  <SCORE.SYSTEM.DIHEDRAL>
0

>  <SCORE.SYSTEM.SOLV>
0

>  <SCORE.SYSTEM.norm>
0

>  <SCORE.heavy>
14

>  <SCORE.norm>
-0.511312

>  <RMSD>
6.264

$$$$
ligand
 OpenBabel11021811493D
libRbt.so/2013.1/901 2013/11/27
 14 13  0  0  0  0  0  0  0  0999 V2000
   54.1044    7.5459    2.0876 N   0  0  0  0  0  0  0  0  0  0  0  0
   53.2029    6.4505    1.8057 C   0  0  0  0  0  0  0  0  0  0  0  0
   53.6740    5.1984    2.5738 C   0  0  0  0  0  0  0  0  0  0  0  0
   52.8008    3.9562    2.3379 C   0  0  0  0  0  0  0  0  0  0  0  0
   52.7324    3.4756    0.9494 N   0  0  0  0  0  0  0  0  0  0  0  0
   52.1129    2.2096    0.5617 C   0  0  0  0  0  0  0  0  0  0  0  0
   52.2282    1.9213   -0.9316 C   0  0  0  0  0  0  0  0  0  0  0  0
   51.6320    0.5714   -1.3438 C   0  0  0  0  0  0  0  0  0  0  0  0
   51.7445    0.3301   -2.8538 C   0  0  0  0  0  0  0  0  0  0  0  0
   51.1258   -0.9513   -3.1866 N   0  0  0  0  0  0  0  0  0  0  0  0
   49.7851   -1.1003   -3.7556 C   0  0  0  0  0  0  0  0  0  0  0  0
   49.7902   -1.1387   -5.2902 C   0  0  0  0  0  0  0  0  0  0  0  0
   48.3997   -1.4628   -5.8462 C   0  0  0  0  0  0  0  0  0  0  0  0
   48.4643   -1.5300   -7.3032 N   0  0  0  0  0  0  0  0  0  0  0  0
  1  2  1  0  0  0  0
  2  3  1  0  0  0  0
  3  4  1  0  0  0  0
  4  5  1  0  0  0  0
  5  6  1  0  0  0  0
  6  7  1  0  0  0  0
  7  8  1  0  0  0  0
  8  9  1  0  0  0  0
  9 10  1  0  0  0  0
 10 11  1  0  0  0  0
 11 12  1  0  0  0  0
 12 13  1  0  0  0  0
 13 14  1  0  0  0  0
M  END
>  <CHROM.1>
-179.22214739,61.23126645,171.02249732,-177.57819032,177.72199804,178.97105313
-178.38028186,100.68074065,92.17470070,173.17582337,-178.21452150,51.55692345
1.81957653,-1.44232812,0.55449178,-1.11931146,-0.14066833

>  <Name>
ligand

>  <RI>
0

>  <Rbt.Current_Directory>
/home/itssahil/PROJECTS/Mol_Feturizer/New_Systems/rnas/4FAW

>  <Rbt.Executable>
rbdock ($Id: //depot/dev/client3/rdock/2013.1/src/exe/rbdock.cxx#4 $)

>  <Rbt.Library>
libRbt.so (2013.1, Build901 2013/11/27)

>  <Rbt.Parameter_File>
/export/apps/rDock/src/rDock_2013.1_src/data/scripts/dock_solv.prm

>  <Rbt.Receptor>
prm/pocket_docking_6.prm

>  <SCORE>
-7.03164

>  <SCORE.INTER>
3.08072

>  <SCORE.INTER.CONST>
1

>  <SCORE.INTER.POLAR>
0

>  <SCORE.INTER.ROT>
11

>  <SCORE.INTER.SOLV>
7.13662

>  <SCORE.INTER.VDW>
-11.2584

>  <SCORE.INTER.norm>
0.220051

>  <SCORE.INTRA>
-10.1124

>  <SCORE.INTRA.DIHEDRAL>
-17.2156

>  <SCORE.INTRA.DIHEDRAL.0>
19.1003

>  <SCORE.INTRA.POLAR>
0

>  <SCORE.INTRA.POLAR.0>
0

>  <SCORE.INTRA.REPUL>
0

>  <SCORE.INTRA.REPUL.0>
0

>  <SCORE.INTRA.SOLV>
-1.19452

>  <SCORE.INTRA.SOLV.lig_0>
-47.5333

>  <SCORE.INTRA.VDW>
-0.90731

>  <SCORE.INTRA.VDW.0>
-0.287413

>  <SCORE.INTRA.norm>
-0.722311

>  <SCORE.RESTR>
0

>  <SCORE.RESTR.CAVITY>
0

>  <SCORE.RESTR.norm>
0

>  <SCORE.SYSTEM>
0

>  <SCORE.SYSTEM.CONST>
0

>  <SCORE.SYSTEM.DIHEDRAL>
0

>  <SCORE.SYSTEM.SOLV>
0

>  <SCORE.SYSTEM.norm>
0

>  <SCORE.heavy>
14

>  <SCORE.norm>
-0.50226

>  <RMSD>
6.279

$$$$
ligand
 OpenBabel11021811493D
libRbt.so/2013.1/901 2013/11/27
 14 13  0  0  0  0  0  0  0  0999 V2000
   62.0735   -2.1388    7.9829 N   0  0  0  0  0  0  0  0  0  0  0  0
   61.8435   -2.3372    6.5687 C   0  0  0  0  0  0  0  0  0  0  0  0
   62.3318   -1.0932    5.7984 C   0  0  0  0  0  0  0  0  0  0  0  0
   62.0971   -1.1663    4.2816 C   0  0  0  0  0  0  0  0  0  0  0  0
   60.6919   -1.2449    3.8540 N   0  0  0  0  0  0  0  0  0  0  0  0
   60.2782   -1.3981    2.4603 C   0  0  0  0  0  0  0  0  0  0  0  0
   58.8716   -0.8720    2.1938 C   0  0  0  0  0  0  0  0  0  0  0  0
   58.4217   -1.0333    0.7381 C   0  0  0  0  0  0  0  0  0  0  0  0
   57.0099   -0.4812    0.5081 C   0  0  0  0  0  0  0  0  0  0  0  0
   56.0486   -1.2795    1.2659 N   0  0  0  0  0  0  0  0  0  0  0  0
   54.7006   -0.8333    1.6226 C   0  0  0  0  0  0  0  0  0  0  0  0
   54.6839    0.0913    2.8477 C   0  0  0  0  0  0  0  0  0  0  0  0
   55.1396   -0.6458    4.1113 C   0  0  0  0  0  0  0  0  0  0  0  0
   55.1942    0.2939    5.2272 N   0  0  0  0  0  0  0  0  0  0  0  0
  1  2  1  0  0  0  0
  2  3  1  0  0  0  0
  3  4  1  0  0  0  0
  4  5  1  0  0  0  0
  5  6  1  0  0  0  0
  6  7  1  0  0  0  0
  7  8  1  0  0  0  0
  8  9  1  0  0  0  0
  9 10  1  0  0  0  0
 10 11  1  0  0  0  0
 11 12  1  0  0  0  0
 12 13  1  0  0  0  0
 13 14  1  0  0  0  0
M  END
>  <CHROM.1>
-178.09653849,62.70403461,-176.35760488,-155.36951857,-179.68409492,-179.45648076
-65.24867749,160.53074454,-80.34319549,-65.09860932,176.17691873,58.52756935
-1.00985532,3.53247289,0.52751044,-0.17864567,1.57189019

>  <Name>
ligand

>  <RI>
0

>  <Rbt.Current_Directory>
/home/itssahil/PROJECTS/Mol_Feturizer/New_Systems/rnas/4FAW

>  <Rbt.Executable>
rbdock ($Id: //depot/dev/client3/rdock/2013.1/src/exe/rbdock.cxx#4 $)

>  <Rbt.Library>
libRbt.so (2013.1, Build901 2013/11/27)

>  <Rbt.Parameter_File>
/export/apps/rDock/src/rDock_2013.1_src/data/scripts/dock_solv.prm

>  <Rbt.Receptor>
prm/pocket_docking_7.prm

>  <SCORE>
-9.65069

>  <SCORE.INTER>
0.545593

>  <SCORE.INTER.CONST>
1

>  <SCORE.INTER.POLAR>
0

>  <SCORE.INTER.ROT>
11

>  <SCORE.INTER.SOLV>
12.5354

>  <SCORE.INTER.VDW>
-14.7481

>  <SCORE.INTER.norm>
0.0389709

>  <SCORE.INTRA>
-10.1963

>  <SCORE.INTRA.DIHEDRAL>
-17.7615

>  <SCORE.INTRA.DIHEDRAL.0>
19.1003

>  <SCORE.INTRA.POLAR>
0

>  <SCORE.INTRA.POLAR.0>
0

>  <SCORE.INTRA.REPUL>
0

>  <SCORE.INTRA.REPUL.0>
0

>  <SCORE.INTRA.SOLV>
-0.442443

>  <SCORE.INTRA.SOLV.lig_0>
-47.5333

>  <SCORE.INTRA.VDW>
-1.09432

>  <SCORE.INTRA.VDW.0>
-0.287413

>  <SCORE.INTRA.norm>
-0.728306

>  <SCORE.RESTR>
0

>  <SCORE.RESTR.CAVITY>
0

>  <SCORE.RESTR.norm>
0

>  <SCORE.SYSTEM>
0

>  <SCORE.SYSTEM.CONST>
0

>  <SCORE.SYSTEM.DIHEDRAL>
0

>  <SCORE.SYSTEM.SOLV>
0

>  <SCORE.SYSTEM.norm>
0

>  <SCORE.heavy>
14

>  <SCORE.norm>
-0.689335

>  <RMSD>
6.297

$$$$
ligand
 OpenBabel11021811493D
libRbt.so/2013.1/901 2013/11/27
 14 13  0  0  0  0  0  0  0  0999 V2000
   47.9763   -2.9497   -8.4199 N   0  0  0  0  0  0  0  0  0  0  0  0
   48.7991   -2.3474   -7.3941 C   0  0  0  0  0  0  0  0  0  0  0  0
   47.9441   -2.1186   -6.1307 C   0  0  0  0  0  0  0  0  0  0  0  0
   48.6798   -1.3745   -5.0054 C   0  0  0  0  0  0  0  0  0  0  0  0
   49.1803   -0.0337   -5.3447 N   0  0  0  0  0  0  0  0  0  0  0  0
   50.0276    0.7614   -4.4576 C   0  0  0  0  0  0  0  0  0  0  0  0
   51.3528    0.0812   -4.1300 C   0  0  0  0  0  0  0  0  0  0  0  0
   52.2821    0.9344   -3.2604 C   0  0  0  0  0  0  0  0  0  0  0  0
   51.7744    1.0501   -1.8183 C   0  0  0  0  0  0  0  0  0  0  0  0
   52.6924    1.8861   -1.0476 N   0  0  0  0  0  0  0  0  0  0  0  0
   53.1047    1.6107    0.3299 C   0  0  0  0  0  0  0  0  0  0  0  0
   54.3155    2.4465    0.7677 C   0  0  0  0  0  0  0  0  0  0  0  0
   54.7195    2.1322    2.2119 C   0  0  0  0  0  0  0  0  0  0  0  0
   55.9250    2.8823    2.5517 N   0  0  0  0  0  0  0  0  0  0  0  0
  1  2  1  0  0  0  0
  2  3  1  0  0  0  0
  3  4  1  0  0  0  0
  4  5  1  0  0  0  0
  5  6  1  0  0  0  0
  6  7  1  0  0  0  0
  7  8  1  0  0  0  0
  8  9  1  0  0  0  0
  9 10  1  0  0  0  0
 10 11  1  0  0  0  0
 11 12  1  0  0  0  0
 12 13  1  0  0  0  0
 13 14  1  0  0  0  0
M  END
>  <CHROM.1>
-175.20378753,59.36326350,-173.01818478,60.55118972,176.98233836,71.50797599
-179.32206590,-139.33392494,166.12622896,-179.96048535,176.24032577,51.34094308
0.35432795,-2.93905584,-2.46045383,0.78351411,1.80772837

>  <Name>
ligand

>  <RI>
0

>  <Rbt.Current_Directory>
/home/itssahil/PROJECTS/Mol_Feturizer/New_Systems/rnas/4FAW

>  <Rbt.Executable>
rbdock ($Id: //depot/dev/client3/rdock/2013.1/src/exe/rbdock.cxx#4 $)

>  <Rbt.Library>
libRbt.so (2013.1, Build901 2013/11/27)

>  <Rbt.Parameter_File>
/export/apps/rDock/src/rDock_2013.1_src/data/scripts/dock_solv.prm

>  <Rbt.Receptor>
prm/pocket_docking_8.prm

>  <SCORE>
-7.90283

>  <SCORE.INTER>
1.57855

>  <SCORE.INTER.CONST>
1

>  <SCORE.INTER.POLAR>
0

>  <SCORE.INTER.ROT>
11

>  <SCORE.INTER.SOLV>
4.68285

>  <SCORE.INTER.VDW>
-11.4419

>  <SCORE.INTER.norm>
0.112753

>  <SCORE.INTRA>
-9.48138

>  <SCORE.INTRA.DIHEDRAL>
-17.2746

>  <SCORE.INTRA.DIHEDRAL.0>
19.1003

>  <SCORE.INTRA.POLAR>
0

>  <SCORE.INTRA.POLAR.0>
0

>  <SCORE.INTRA.REPUL>
0

>  <SCORE.INTRA.REPUL.0>
0

>  <SCORE.INTRA.SOLV>
-1.03318

>  <SCORE.INTRA.SOLV.lig_0>
-47.5333

>  <SCORE.INTRA.VDW>
-0.327491

>  <SCORE.INTRA.VDW.0>
-0.287413

>  <SCORE.INTRA.norm>
-0.677241

>  <SCORE.RESTR>
0

>  <SCORE.RESTR.CAVITY>
0

>  <SCORE.RESTR.norm>
0

>  <SCORE.SYSTEM>
0

>  <SCORE.SYSTEM.CONST>
0

>  <SCORE.SYSTEM.DIHEDRAL>
0

>  <SCORE.SYSTEM.SOLV>
0

>  <SCORE.SYSTEM.norm>
0

>  <SCORE.heavy>
14

>  <SCORE.norm>
-0.564488

>  <RMSD>
6.300

$$$$
ligand
 OpenBabel11021811493D
libRbt.so/2013.1/901 2013/11/27
 14 13  0  0  0  0  0  0  0  0999 V2000
   53.6397    3.3981   -6.4609 N   0  0  0  0  0  0  0  0  0  0  0  0
   53.2300    2.6222   -7.6108 C   0  0  0  0  0  0  0  0  0  0  0  0
   52.9233    1.1784   -7.1624 C   0  0  0  0  0  0  0  0  0  0  0  0
   51.7637    1.0691   -6.1602 C   0  0  0  0  0  0  0  0  0  0  0  0
   51.4146   -0.2937   -5.7308 N   0  0  0  0  0  0  0  0  0  0  0  0
   50.3399   -0.5935   -4.7863 C   0  0  0  0  0  0  0  0  0  0  0  0
   50.8295   -0.7287   -3.3481 C   0  0  0  0  0  0  0  0  0  0  0  0
   51.5414    0.5219   -2.8221 C   0  0  0  0  0  0  0  0  0  0  0  0
   51.8534    0.4188   -1.3244 C   0  0  0  0  0  0  0  0  0  0  0  0
   52.5415    1.6322   -0.8887 N   0  0  0  0  0  0  0  0  0  0  0  0
   52.7783    1.9925    0.5104 C   0  0  0  0  0  0  0  0  0  0  0  0
   51.5306    2.5645    1.1976 C   0  0  0  0  0  0  0  0  0  0  0  0
   51.8140    2.9284    2.6588 C   0  0  0  0  0  0  0  0  0  0  0  0
   50.6026    3.4711    3.2665 N   0  0  0  0  0  0  0  0  0  0  0  0
  1  2  1  0  0  0  0
  2  3  1  0  0  0  0
  3  4  1  0  0  0  0
  4  5  1  0  0  0  0
  5  6  1  0  0  0  0
  6  7  1  0  0  0  0
  7  8  1  0  0  0  0
  8  9  1  0  0  0  0
  9 10  1  0  0  0  0
 10 11  1  0  0  0  0
 11 12  1  0  0  0  0
 12 13  1  0  0  0  0
 13 14  1  0  0  0  0
M  END
>  <CHROM.1>
62.43970766,178.53821255,-179.87953649,-94.84775885,58.23514043,172.47208031
179.43877200,168.47117592,-77.91041717,179.92506099,179.78653873,51.91441534
1.44127382,-2.76164321,-1.39713375,1.01150181,1.26792650

>  <Name>
ligand

>  <RI>
0

>  <Rbt.Current_Directory>
/home/itssahil/PROJECTS/Mol_Feturizer/New_Systems/rnas/4FAW

>  <Rbt.Executable>
rbdock ($Id: //depot/dev/client3/rdock/2013.1/src/exe/rbdock.cxx#4 $)

>  <Rbt.Library>
libRbt.so (2013.1, Build901 2013/11/27)

>  <Rbt.Parameter_File>
/export/apps/rDock/src/rDock_2013.1_src/data/scripts/dock_solv.prm

>  <Rbt.Receptor>
prm/pocket_docking_8.prm

>  <SCORE>
-8.80183

>  <SCORE.INTER>
0.943724

>  <SCORE.INTER.CONST>
1

>  <SCORE.INTER.POLAR>
0

>  <SCORE.INTER.ROT>
11

>  <SCORE.INTER.SOLV>
7.29064

>  <SCORE.INTER.VDW>
-12.7344

>  <SCORE.INTER.norm>
0.0674088

>  <SCORE.INTRA>
-9.74555

>  <SCORE.INTRA.DIHEDRAL>
-17.7202

>  <SCORE.INTRA.DIHEDRAL.0>
19.1003

>  <SCORE.INTRA.POLAR>
0

>  <SCORE.INTRA.POLAR.0>
0

>  <SCORE.INTRA.REPUL>
0

>  <SCORE.INTRA.REPUL.0>
0

>  <SCORE.INTRA.SOLV>
-0.38727

>  <SCORE.INTRA.SOLV.lig_0>
-47.5333

>  <SCORE.INTRA.VDW>
-0.691824

>  <SCORE.INTRA.VDW.0>
-0.287413

>  <SCORE.INTRA.norm>
-0.696111

>  <SCORE.RESTR>
0

>  <SCORE.RESTR.CAVITY>
0

>  <SCORE.RESTR.norm>
0

>  <SCORE.SYSTEM>
0

>  <SCORE.SYSTEM.CONST>
0

>  <SCORE.SYSTEM.DIHEDRAL>
0

>  <SCORE.SYSTEM.SOLV>
0

>  <SCORE.SYSTEM.norm>
0

>  <SCORE.heavy>
14

>  <SCORE.norm>
-0.628702

>  <RMSD>
6.358

$$$$
ligand
 OpenBabel11021811493D
libRbt.so/2013.1/901 2013/11/27
 14 13  0  0  0  0  0  0  0  0999 V2000
   55.3868    3.2874    5.2726 N   0  0  0  0  0  0  0  0  0  0  0  0
   56.4331    4.0140    5.9580 C   0  0  0  0  0  0  0  0  0  0  0  0
   56.9341    5.1552    5.0491 C   0  0  0  0  0  0  0  0  0  0  0  0
   57.5566    4.6742    3.7291 C   0  0  0  0  0  0  0  0  0  0  0  0
   58.7214    3.7850    3.8568 N   0  0  0  0  0  0  0  0  0  0  0  0
   59.7084    3.5882    2.7967 C   0  0  0  0  0  0  0  0  0  0  0  0
   59.5283    2.2701    2.0506 C   0  0  0  0  0  0  0  0  0  0  0  0
   58.1306    2.0915    1.4490 C   0  0  0  0  0  0  0  0  0  0  0  0
   57.9980    0.7684    0.6857 C   0  0  0  0  0  0  0  0  0  0  0  0
   58.2042   -0.3457    1.6087 N   0  0  0  0  0  0  0  0  0  0  0  0
   59.5029   -0.9628    1.8845 C   0  0  0  0  0  0  0  0  0  0  0  0
   59.3788   -2.3326    2.5660 C   0  0  0  0  0  0  0  0  0  0  0  0
   60.7553   -2.9364    2.8631 C   0  0  0  0  0  0  0  0  0  0  0  0
   60.5856   -4.2421    3.4936 N   0  0  0  0  0  0  0  0  0  0  0  0
  1  2  1  0  0  0  0
  2  3  1  0  0  0  0
  3  4  1  0  0  0  0
  4  5  1  0  0  0  0
  5  6  1  0  0  0  0
  6  7  1  0  0  0  0
  7  8  1  0  0  0  0
  8  9  1  0  0  0  0
  9 10  1  0  0  0  0
 10 11  1  0  0  0  0
 11 12  1  0  0  0  0
 12 13  1  0  0  0  0
 13 14  1  0  0  0  0
M  END
>  <CHROM.1>
-62.09084368,-59.45522063,-158.50980976,-102.80974103,55.94001546,178.90940122
61.89490479,-90.43506532,-163.78066457,-178.93407231,-179.28366214,58.48753788
1.34419420,3.09005903,2.46605990,1.07718069,-0.53895245

>  <Name>
ligand

>  <RI>
0

>  <Rbt.Current_Directory>
/home/itssahil/PROJECTS/Mol_Feturizer/New_Systems/rnas/4FAW

>  <Rbt.Executable>
rbdock ($Id: //depot/dev/client3/rdock/2013.1/src/exe/rbdock.cxx#4 $)

>  <Rbt.Library>
libRbt.so (2013.1, Build901 2013/11/27)

>  <Rbt.Parameter_File>
/export/apps/rDock/src/rDock_2013.1_src/data/scripts/dock_solv.prm

>  <Rbt.Receptor>
prm/pocket_docking_6.prm

>  <SCORE>
-5.92595

>  <SCORE.INTER>
2.51766

>  <SCORE.INTER.CONST>
1

>  <SCORE.INTER.POLAR>
0

>  <SCORE.INTER.ROT>
11

>  <SCORE.INTER.SOLV>
7.97706

>  <SCORE.INTER.VDW>
-11.9139

>  <SCORE.INTER.norm>
0.179833

>  <SCORE.INTRA>
-8.44361

>  <SCORE.INTRA.DIHEDRAL>
-16.8641

>  <SCORE.INTRA.DIHEDRAL.0>
19.1003

>  <SCORE.INTRA.POLAR>
0

>  <SCORE.INTRA.POLAR.0>
0

>  <SCORE.INTRA.REPUL>
0

>  <SCORE.INTRA.REPUL.0>
0

>  <SCORE.INTRA.SOLV>
1.07744

>  <SCORE.INTRA.SOLV.lig_0>
-47.5333

>  <SCORE.INTRA.VDW>
-0.55029

>  <SCORE.INTRA.VDW.0>
-0.287413

>  <SCORE.INTRA.norm>
-0.603115

>  <SCORE.RESTR>
0

>  <SCORE.RESTR.CAVITY>
0

>  <SCORE.RESTR.norm>
0

>  <SCORE.SYSTEM>
0

>  <SCORE.SYSTEM.CONST>
0

>  <SCORE.SYSTEM.DIHEDRAL>
0

>  <SCORE.SYSTEM.SOLV>
0

>  <SCORE.SYSTEM.norm>
0

>  <SCORE.heavy>
14

>  <SCORE.norm>
-0.423282

>  <RMSD>
6.366

$$$$
ligand
 OpenBabel11021811493D
libRbt.so/2013.1/901 2013/11/27
 14 13  0  0  0  0  0  0  0  0999 V2000
   56.8637    2.6971   -1.3667 N   0  0  0  0  0  0  0  0  0  0  0  0
   57.7453    1.7212   -0.7646 C   0  0  0  0  0  0  0  0  0  0  0  0
   57.3553    1.5342    0.7161 C   0  0  0  0  0  0  0  0  0  0  0  0
   58.2701    0.5685    1.4853 C   0  0  0  0  0  0  0  0  0  0  0  0
   58.2996   -0.8165    0.9909 N   0  0  0  0  0  0  0  0  0  0  0  0
   58.6895   -1.9604    1.8133 C   0  0  0  0  0  0  0  0  0  0  0  0
   60.1109   -1.8492    2.3553 C   0  0  0  0  0  0  0  0  0  0  0  0
   60.6047   -3.1231    3.0486 C   0  0  0  0  0  0  0  0  0  0  0  0
   62.0506   -2.9865    3.5404 C   0  0  0  0  0  0  0  0  0  0  0  0
   62.0773   -2.1503    4.7386 N   0  0  0  0  0  0  0  0  0  0  0  0
   62.1945   -0.6910    4.7273 C   0  0  0  0  0  0  0  0  0  0  0  0
   60.9718    0.0095    5.3361 C   0  0  0  0  0  0  0  0  0  0  0  0
   61.1480    1.5314    5.3493 C   0  0  0  0  0  0  0  0  0  0  0  0
   59.9542    2.1523    5.9157 N   0  0  0  0  0  0  0  0  0  0  0  0
  1  2  1  0  0  0  0
  2  3  1  0  0  0  0
  3  4  1  0  0  0  0
  4  5  1  0  0  0  0
  5  6  1  0  0  0  0
  6  7  1  0  0  0  0
  7  8  1  0  0  0  0
  8  9  1  0  0  0  0
  9 10  1  0  0  0  0
 10 11  1  0  0  0  0
 11 12  1  0  0  0  0
 12 13  1  0  0  0  0
 13 14  1  0  0  0  0
M  END
>  <CHROM.1>
-177.07456024,-61.66725220,-157.19738757,-59.77852094,-171.73505526,178.22577302
75.22639857,-88.12511552,117.60936112,178.15750902,179.09136198,59.73843021
-0.24049151,2.70617799,3.12020580,0.93830297,-2.61449217

>  <Name>
ligand

>  <RI>
0

>  <Rbt.Current_Directory>
/home/itssahil/PROJECTS/Mol_Feturizer/New_Systems/rnas/4FAW

>  <Rbt.Executable>
rbdock ($Id: //depot/dev/client3/rdock/2013.1/src/exe/rbdock.cxx#4 $)

>  <Rbt.Library>
libRbt.so (2013.1, Build901 2013/11/27)

>  <Rbt.Parameter_File>
/export/apps/rDock/src/rDock_2013.1_src/data/scripts/dock_solv.prm

>  <Rbt.Receptor>
prm/pocket_docking_8.prm

>  <SCORE>
-7.91415

>  <SCORE.INTER>
1.35284

>  <SCORE.INTER.CONST>
1

>  <SCORE.INTER.POLAR>
0

>  <SCORE.INTER.ROT>
11

>  <SCORE.INTER.SOLV>
10.6711

>  <SCORE.INTER.VDW>
-13.5885

>  <SCORE.INTER.norm>
0.0966312

>  <SCORE.INTRA>
-9.26699

>  <SCORE.INTRA.DIHEDRAL>
-15.8265

>  <SCORE.INTRA.DIHEDRAL.0>
19.1003

>  <SCORE.INTRA.POLAR>
0

>  <SCORE.INTRA.POLAR.0>
0

>  <SCORE.INTRA.REPUL>
0

>  <SCORE.INTRA.REPUL.0>
0

>  <SCORE.INTRA.SOLV>
-0.862406

>  <SCORE.INTRA.SOLV.lig_0>
-47.5333

>  <SCORE.INTRA.VDW>
-0.922522

>  <SCORE.INTRA.VDW.0>
-0.287413

>  <SCORE.INTRA.norm>
-0.661928

>  <SCORE.RESTR>
0

>  <SCORE.RESTR.CAVITY>
0

>  <SCORE.RESTR.norm>
0

>  <SCORE.SYSTEM>
0

>  <SCORE.SYSTEM.CONST>
0

>  <SCORE.SYSTEM.DIHEDRAL>
0

>  <SCORE.SYSTEM.SOLV>
0

>  <SCORE.SYSTEM.norm>
0

>  <SCORE.heavy>
14

>  <SCORE.norm>
-0.565297

>  <RMSD>
6.388

$$$$
ligand
 OpenBabel11021811493D
libRbt.so/2013.1/901 2013/11/27
 14 13  0  0  0  0  0  0  0  0999 V2000
   60.9672   -0.6716    8.5040 N   0  0  0  0  0  0  0  0  0  0  0  0
   62.2906   -0.5849    7.9267 C   0  0  0  0  0  0  0  0  0  0  0  0
   62.2290   -1.0360    6.4528 C   0  0  0  0  0  0  0  0  0  0  0  0
   61.3819   -0.1211    5.5549 C   0  0  0  0  0  0  0  0  0  0  0  0
   61.1949   -0.5782    4.1694 N   0  0  0  0  0  0  0  0  0  0  0  0
   59.8854   -0.7295    3.5376 C   0  0  0  0  0  0  0  0  0  0  0  0
   59.9740   -1.0420    2.0474 C   0  0  0  0  0  0  0  0  0  0  0  0
   58.6089   -1.2300    1.3776 C   0  0  0  0  0  0  0  0  0  0  0  0
   57.7992    0.0717    1.3473 C   0  0  0  0  0  0  0  0  0  0  0  0
   56.4637   -0.2012    0.8204 N   0  0  0  0  0  0  0  0  0  0  0  0
   55.4134   -0.9102    1.5536 C   0  0  0  0  0  0  0  0  0  0  0  0
   54.8447   -0.0909    2.7205 C   0  0  0  0  0  0  0  0  0  0  0  0
   55.8405   -0.0055    3.8818 C   0  0  0  0  0  0  0  0  0  0  0  0
   55.2617    0.7927    4.9585 N   0  0  0  0  0  0  0  0  0  0  0  0
  1  2  1  0  0  0  0
  2  3  1  0  0  0  0
  3  4  1  0  0  0  0
  4  5  1  0  0  0  0
  5  6  1  0  0  0  0
  6  7  1  0  0  0  0
  7  8  1  0  0  0  0
  8  9  1  0  0  0  0
  9 10  1  0  0  0  0
 10 11  1  0  0  0  0
 11 12  1  0  0  0  0
 12 13  1  0  0  0  0
 13 14  1  0  0  0  0
M  END
>  <CHROM.1>
64.74238522,-174.68007402,126.30032662,172.52611889,178.88397786,66.73521062
-174.41330498,72.85333008,70.43153492,-72.68550804,179.41187631,58.72546043
-0.45273291,3.91775006,0.68493499,-0.17214128,1.44404344

>  <Name>
ligand

>  <RI>
0

>  <Rbt.Current_Directory>
/home/itssahil/PROJECTS/Mol_Feturizer/New_Systems/rnas/4FAW

>  <Rbt.Executable>
rbdock ($Id: //depot/dev/client3/rdock/2013.1/src/exe/rbdock.cxx#4 $)

>  <Rbt.Library>
libRbt.so (2013.1, Build901 2013/11/27)

>  <Rbt.Parameter_File>
/export/apps/rDock/src/rDock_2013.1_src/data/scripts/dock_solv.prm

>  <Rbt.Receptor>
prm/pocket_docking_7.prm

>  <SCORE>
-8.29278

>  <SCORE.INTER>
0.100248

>  <SCORE.INTER.CONST>
1

>  <SCORE.INTER.POLAR>
0

>  <SCORE.INTER.ROT>
11

>  <SCORE.INTER.SOLV>
9.72238

>  <SCORE.INTER.VDW>
-14.1073

>  <SCORE.INTER.norm>
0.00716058

>  <SCORE.INTRA>
-8.39303

>  <SCORE.INTRA.DIHEDRAL>
-16.5798

>  <SCORE.INTRA.DIHEDRAL.0>
19.1003

>  <SCORE.INTRA.POLAR>
0

>  <SCORE.INTRA.POLAR.0>
0

>  <SCORE.INTRA.REPUL>
0

>  <SCORE.INTRA.REPUL.0>
0

>  <SCORE.INTRA.SOLV>
-0.0695489

>  <SCORE.INTRA.SOLV.lig_0>
-47.5333

>  <SCORE.INTRA.VDW>
-0.0683422

>  <SCORE.INTRA.VDW.0>
-0.287413

>  <SCORE.INTRA.norm>
-0.599502

>  <SCORE.RESTR>
0

>  <SCORE.RESTR.CAVITY>
0

>  <SCORE.RESTR.norm>
0

>  <SCORE.SYSTEM>
0

>  <SCORE.SYSTEM.CONST>
0

>  <SCORE.SYSTEM.DIHEDRAL>
0

>  <SCORE.SYSTEM.SOLV>
0

>  <SCORE.SYSTEM.norm>
0

>  <SCORE.heavy>
14

>  <SCORE.norm>
-0.592341

>  <RMSD>
6.393

$$$$
ligand
 OpenBabel11021811493D
libRbt.so/2013.1/901 2013/11/27
 14 13  0  0  0  0  0  0  0  0999 V2000
   53.5364    3.4865   -6.3722 N   0  0  0  0  0  0  0  0  0  0  0  0
   54.2452    3.0846   -5.1771 C   0  0  0  0  0  0  0  0  0  0  0  0
   53.4606    3.5653   -3.9390 C   0  0  0  0  0  0  0  0  0  0  0  0
   54.1439    3.2394   -2.6019 C   0  0  0  0  0  0  0  0  0  0  0  0
   53.4287    3.6777   -1.3936 N   0  0  0  0  0  0  0  0  0  0  0  0
   53.5516    3.0153   -0.0963 C   0  0  0  0  0  0  0  0  0  0  0  0
   53.0764    1.5661   -0.1185 C   0  0  0  0  0  0  0  0  0  0  0  0
   51.5986    1.4107   -0.4919 C   0  0  0  0  0  0  0  0  0  0  0  0
   51.2651   -0.0185   -0.9360 C   0  0  0  0  0  0  0  0  0  0  0  0
   51.9863   -0.3226   -2.1701 N   0  0  0  0  0  0  0  0  0  0  0  0
   51.8494    0.4329   -3.4166 C   0  0  0  0  0  0  0  0  0  0  0  0
   51.2175   -0.3916   -4.5466 C   0  0  0  0  0  0  0  0  0  0  0  0
   49.7384   -0.6798   -4.2692 C   0  0  0  0  0  0  0  0  0  0  0  0
   49.1243   -1.2527   -5.4633 N   0  0  0  0  0  0  0  0  0  0  0  0
  1  2  1  0  0  0  0
  2  3  1  0  0  0  0
  3  4  1  0  0  0  0
  4  5  1  0  0  0  0
  5  6  1  0  0  0  0
  6  7  1  0  0  0  0
  7  8  1  0  0  0  0
  8  9  1  0  0  0  0
  9 10  1  0  0  0  0
 10 11  1  0  0  0  0
 11 12  1  0  0  0  0
 12 13  1  0  0  0  0
 13 14  1  0  0  0  0
M  END
>  <CHROM.1>
-177.92917461,-179.89200577,152.45229429,-61.98992196,-61.04503228,161.90003857
-64.73998626,-58.95019141,-114.13907281,69.34191073,170.04317479,52.30169802
1.48669539,-2.92764338,-0.36315185,-0.86386263,-1.49252166

>  <Name>
ligand

>  <RI>
0

>  <Rbt.Current_Directory>
/home/itssahil/PROJECTS/Mol_Feturizer/New_Systems/rnas/4FAW

>  <Rbt.Executable>
rbdock ($Id: //depot/dev/client3/rdock/2013.1/src/exe/rbdock.cxx#4 $)

>  <Rbt.Library>
libRbt.so (2013.1, Build901 2013/11/27)

>  <Rbt.Parameter_File>
/export/apps/rDock/src/rDock_2013.1_src/data/scripts/dock_solv.prm

>  <Rbt.Receptor>
prm/pocket_docking_5.prm

>  <SCORE>
-6.81752

>  <SCORE.INTER>
1.7207

>  <SCORE.INTER.CONST>
1

>  <SCORE.INTER.POLAR>
0

>  <SCORE.INTER.ROT>
11

>  <SCORE.INTER.SOLV>
8.94258

>  <SCORE.INTER.VDW>
-12.7671

>  <SCORE.INTER.norm>
0.122907

>  <SCORE.INTRA>
-8.53822

>  <SCORE.INTRA.DIHEDRAL>
-15.3314

>  <SCORE.INTRA.DIHEDRAL.0>
19.1003

>  <SCORE.INTRA.POLAR>
0

>  <SCORE.INTRA.POLAR.0>
0

>  <SCORE.INTRA.REPUL>
0

>  <SCORE.INTRA.REPUL.0>
0

>  <SCORE.INTRA.SOLV>
0.290421

>  <SCORE.INTRA.SOLV.lig_0>
-47.5333

>  <SCORE.INTRA.VDW>
-1.01772

>  <SCORE.INTRA.VDW.0>
-0.287413

>  <SCORE.INTRA.norm>
-0.609873

>  <SCORE.RESTR>
0

>  <SCORE.RESTR.CAVITY>
0

>  <SCORE.RESTR.norm>
0

>  <SCORE.SYSTEM>
0

>  <SCORE.SYSTEM.CONST>
0

>  <SCORE.SYSTEM.DIHEDRAL>
0

>  <SCORE.SYSTEM.SOLV>
0

>  <SCORE.SYSTEM.norm>
0

>  <SCORE.heavy>
14

>  <SCORE.norm>
-0.486966

>  <RMSD>
6.399

$$$$
ligand
 OpenBabel11021811493D
libRbt.so/2013.1/901 2013/11/27
 14 13  0  0  0  0  0  0  0  0999 V2000
   61.3500   -1.2055    7.9765 N   0  0  0  0  0  0  0  0  0  0  0  0
   62.5727   -1.3300    7.2138 C   0  0  0  0  0  0  0  0  0  0  0  0
   62.2580   -1.1232    5.7179 C   0  0  0  0  0  0  0  0  0  0  0  0
   61.3574   -2.2115    5.1133 C   0  0  0  0  0  0  0  0  0  0  0  0
   61.0256   -2.0502    3.6894 N   0  0  0  0  0  0  0  0  0  0  0  0
   60.3451   -0.8761    3.1458 C   0  0  0  0  0  0  0  0  0  0  0  0
   59.4632   -1.2002    1.9444 C   0  0  0  0  0  0  0  0  0  0  0  0
   58.7299    0.0186    1.3749 C   0  0  0  0  0  0  0  0  0  0  0  0
   57.8002   -0.3596    0.2158 C   0  0  0  0  0  0  0  0  0  0  0  0
   56.7306   -1.2215    0.7146 N   0  0  0  0  0  0  0  0  0  0  0  0
   55.5949   -0.7545    1.5118 C   0  0  0  0  0  0  0  0  0  0  0  0
   55.9734   -0.4537    2.9687 C   0  0  0  0  0  0  0  0  0  0  0  0
   54.7571    0.0061    3.7791 C   0  0  0  0  0  0  0  0  0  0  0  0
   55.1692    0.2943    5.1497 N   0  0  0  0  0  0  0  0  0  0  0  0
  1  2  1  0  0  0  0
  2  3  1  0  0  0  0
  3  4  1  0  0  0  0
  4  5  1  0  0  0  0
  5  6  1  0  0  0  0
  6  7  1  0  0  0  0
  7  8  1  0  0  0  0
  8  9  1  0  0  0  0
  9 10  1  0  0  0  0
 10 11  1  0  0  0  0
 11 12  1  0  0  0  0
 12 13  1  0  0  0  0
 13 14  1  0  0  0  0
M  END
>  <CHROM.1>
-65.36490471,179.68982195,-58.61362915,-148.43134073,179.27623709,-177.08380230
64.98268495,74.55477664,-75.40740214,-178.90524667,-179.33951880,58.79490016
-0.89042965,3.60794130,0.61943891,-0.21629729,1.51923250

>  <Name>
ligand

>  <RI>
0

>  <Rbt.Current_Directory>
/home/itssahil/PROJECTS/Mol_Feturizer/New_Systems/rnas/4FAW

>  <Rbt.Executable>
rbdock ($Id: //depot/dev/client3/rdock/2013.1/src/exe/rbdock.cxx#4 $)

>  <Rbt.Library>
libRbt.so (2013.1, Build901 2013/11/27)

>  <Rbt.Parameter_File>
/export/apps/rDock/src/rDock_2013.1_src/data/scripts/dock_solv.prm

>  <Rbt.Receptor>
prm/pocket_docking_8.prm

>  <SCORE>
-8.10834

>  <SCORE.INTER>
1.18017

>  <SCORE.INTER.CONST>
1

>  <SCORE.INTER.POLAR>
0

>  <SCORE.INTER.ROT>
11

>  <SCORE.INTER.SOLV>
10.6541

>  <SCORE.INTER.VDW>
-13.6979

>  <SCORE.INTER.norm>
0.0842981

>  <SCORE.INTRA>
-9.28851

>  <SCORE.INTRA.DIHEDRAL>
-17.853

>  <SCORE.INTRA.DIHEDRAL.0>
19.1003

>  <SCORE.INTRA.POLAR>
0

>  <SCORE.INTRA.POLAR.0>
0

>  <SCORE.INTRA.REPUL>
0

>  <SCORE.INTRA.REPUL.0>
0

>  <SCORE.INTRA.SOLV>
-0.40366

>  <SCORE.INTRA.SOLV.lig_0>
-47.5333

>  <SCORE.INTRA.VDW>
-0.160191

>  <SCORE.INTRA.VDW.0>
-0.287413

>  <SCORE.INTRA.norm>
-0.663465

>  <SCORE.RESTR>
0

>  <SCORE.RESTR.CAVITY>
0

>  <SCORE.RESTR.norm>
0

>  <SCORE.SYSTEM>
0

>  <SCORE.SYSTEM.CONST>
0

>  <SCORE.SYSTEM.DIHEDRAL>
0

>  <SCORE.SYSTEM.SOLV>
0

>  <SCORE.SYSTEM.norm>
0

>  <SCORE.heavy>
14

>  <SCORE.norm>
-0.579167

>  <RMSD>
6.404

$$$$
ligand
 OpenBabel11021811493D
libRbt.so/2013.1/901 2013/11/27
 14 13  0  0  0  0  0  0  0  0999 V2000
   57.8802    1.6384   -2.1998 N   0  0  0  0  0  0  0  0  0  0  0  0
   57.8887    2.7306   -1.2516 C   0  0  0  0  0  0  0  0  0  0  0  0
   57.2103    2.2702    0.0550 C   0  0  0  0  0  0  0  0  0  0  0  0
   58.0084    1.2130    0.8337 C   0  0  0  0  0  0  0  0  0  0  0  0
   59.2413    1.6886    1.4797 N   0  0  0  0  0  0  0  0  0  0  0  0
   59.2634    2.3899    2.7621 C   0  0  0  0  0  0  0  0  0  0  0  0
   60.0007    1.6183    3.8518 C   0  0  0  0  0  0  0  0  0  0  0  0
   60.0726    2.3626    5.1891 C   0  0  0  0  0  0  0  0  0  0  0  0
   61.0421    1.6916    6.1692 C   0  0  0  0  0  0  0  0  0  0  0  0
   60.5133    0.3850    6.5549 N   0  0  0  0  0  0  0  0  0  0  0  0
   60.7977   -0.2804    7.8277 C   0  0  0  0  0  0  0  0  0  0  0  0
   62.2965   -0.5271    8.0490 C   0  0  0  0  0  0  0  0  0  0  0  0
   62.8627   -1.5002    7.0097 C   0  0  0  0  0  0  0  0  0  0  0  0
   62.2591   -2.8160    7.1987 N   0  0  0  0  0  0  0  0  0  0  0  0
  1  2  1  0  0  0  0
  2  3  1  0  0  0  0
  3  4  1  0  0  0  0
  4  5  1  0  0  0  0
  5  6  1  0  0  0  0
  6  7  1  0  0  0  0
  7  8  1  0  0  0  0
  8  9  1  0  0  0  0
  9 10  1  0  0  0  0
 10 11  1  0  0  0  0
 11 12  1  0  0  0  0
 12 13  1  0  0  0  0
 13 14  1  0  0  0  0
M  END
>  <CHROM.1>
68.44584791,70.83560043,80.91363657,116.23178226,178.05715888,-168.91017571
-66.75850941,-152.47712620,-59.04412066,-64.38294504,-65.71104660,59.95263151
0.91916415,3.82374912,-2.72601043,-1.09195233,0.81074027

>  <Name>
ligand

>  <RI>
0

>  <Rbt.Current_Directory>
/home/itssahil/PROJECTS/Mol_Feturizer/New_Systems/rnas/4FAW

>  <Rbt.Executable>
rbdock ($Id: //depot/dev/client3/rdock/2013.1/src/exe/rbdock.cxx#4 $)

>  <Rbt.Library>
libRbt.so (2013.1, Build901 2013/11/27)

>  <Rbt.Parameter_File>
/export/apps/rDock/src/rDock_2013.1_src/data/scripts/dock_solv.prm

>  <Rbt.Receptor>
prm/pocket_docking_8.prm

>  <SCORE>
-7.06245

>  <SCORE.INTER>
0.078756

>  <SCORE.INTER.CONST>
1

>  <SCORE.INTER.POLAR>
0

>  <SCORE.INTER.ROT>
11

>  <SCORE.INTER.SOLV>
11.8312

>  <SCORE.INTER.VDW>
-14.8246

>  <SCORE.INTER.norm>
0.00562543

>  <SCORE.INTRA>
-7.1412

>  <SCORE.INTRA.DIHEDRAL>
-15.4841

>  <SCORE.INTRA.DIHEDRAL.0>
19.1003

>  <SCORE.INTRA.POLAR>
0

>  <SCORE.INTRA.POLAR.0>
0

>  <SCORE.INTRA.REPUL>
0

>  <SCORE.INTRA.REPUL.0>
0

>  <SCORE.INTRA.SOLV>
1.97522

>  <SCORE.INTRA.SOLV.lig_0>
-47.5333

>  <SCORE.INTRA.VDW>
-0.386784

>  <SCORE.INTRA.VDW.0>
-0.287413

>  <SCORE.INTRA.norm>
-0.510086

>  <SCORE.RESTR>
0

>  <SCORE.RESTR.CAVITY>
0

>  <SCORE.RESTR.norm>
0

>  <SCORE.SYSTEM>
0

>  <SCORE.SYSTEM.CONST>
0

>  <SCORE.SYSTEM.DIHEDRAL>
0

>  <SCORE.SYSTEM.SOLV>
0

>  <SCORE.SYSTEM.norm>
0

>  <SCORE.heavy>
14

>  <SCORE.norm>
-0.50446

>  <RMSD>
6.404

$$$$
ligand
 OpenBabel11021811493D
libRbt.so/2013.1/901 2013/11/27
 14 13  0  0  0  0  0  0  0  0999 V2000
   52.8052    3.6283    3.5358 N   0  0  0  0  0  0  0  0  0  0  0  0
   52.2122    2.7192    2.5798 C   0  0  0  0  0  0  0  0  0  0  0  0
   52.2812    3.3495    1.1736 C   0  0  0  0  0  0  0  0  0  0  0  0
   51.6873    2.4676    0.0644 C   0  0  0  0  0  0  0  0  0  0  0  0
   52.3931    1.2036   -0.1958 N   0  0  0  0  0  0  0  0  0  0  0  0
   51.8504    0.1308   -1.0273 C   0  0  0  0  0  0  0  0  0  0  0  0
   51.6518    0.5450   -2.4817 C   0  0  0  0  0  0  0  0  0  0  0  0
   51.0322   -0.5523   -3.3532 C   0  0  0  0  0  0  0  0  0  0  0  0
   50.6986   -0.0478   -4.7621 C   0  0  0  0  0  0  0  0  0  0  0  0
   51.9299    0.3640   -5.4330 N   0  0  0  0  0  0  0  0  0  0  0  0
   52.0176    0.7384   -6.8456 C   0  0  0  0  0  0  0  0  0  0  0  0
   52.0297   -0.4762   -7.7841 C   0  0  0  0  0  0  0  0  0  0  0  0
   52.2916   -0.0594   -9.2351 C   0  0  0  0  0  0  0  0  0  0  0  0
   51.1588    0.7188   -9.7275 N   0  0  0  0  0  0  0  0  0  0  0  0
  1  2  1  0  0  0  0
  2  3  1  0  0  0  0
  3  4  1  0  0  0  0
  4  5  1  0  0  0  0
  5  6  1  0  0  0  0
  6  7  1  0  0  0  0
  7  8  1  0  0  0  0
  8  9  1  0  0  0  0
  9 10  1  0  0  0  0
 10 11  1  0  0  0  0
 11 12  1  0  0  0  0
 12 13  1  0  0  0  0
 13 14  1  0  0  0  0
M  END
>  <CHROM.1>
179.58470385,-65.18357872,168.35141649,63.36902573,-177.74332729,173.36678606
62.37454569,171.90744707,-78.22676531,-173.13529611,-67.02786312,51.85988250
1.05193481,-3.10661262,-1.38297355,-1.26113991,-1.64522650

>  <Name>
ligand

>  <RI>
0

>  <Rbt.Current_Directory>
/home/itssahil/PROJECTS/Mol_Feturizer/New_Systems/rnas/4FAW

>  <Rbt.Executable>
rbdock ($Id: //depot/dev/client3/rdock/2013.1/src/exe/rbdock.cxx#4 $)

>  <Rbt.Library>
libRbt.so (2013.1, Build901 2013/11/27)

>  <Rbt.Parameter_File>
/export/apps/rDock/src/rDock_2013.1_src/data/scripts/dock_solv.prm

>  <Rbt.Receptor>
prm/pocket_docking_7.prm

>  <SCORE>
-9.38026

>  <SCORE.INTER>
0.0335515

>  <SCORE.INTER.CONST>
1

>  <SCORE.INTER.POLAR>
0

>  <SCORE.INTER.ROT>
11

>  <SCORE.INTER.SOLV>
7.11078

>  <SCORE.INTER.VDW>
-13.2812

>  <SCORE.INTER.norm>
0.00239653

>  <SCORE.INTRA>
-9.41381

>  <SCORE.INTRA.DIHEDRAL>
-17.9906

>  <SCORE.INTRA.DIHEDRAL.0>
19.1003

>  <SCORE.INTRA.POLAR>
0

>  <SCORE.INTRA.POLAR.0>
0

>  <SCORE.INTRA.REPUL>
0

>  <SCORE.INTRA.REPUL.0>
0

>  <SCORE.INTRA.SOLV>
-0.0840169

>  <SCORE.INTRA.SOLV.lig_0>
-47.5333

>  <SCORE.INTRA.VDW>
-0.376513

>  <SCORE.INTRA.VDW.0>
-0.287413

>  <SCORE.INTRA.norm>
-0.672415

>  <SCORE.RESTR>
0

>  <SCORE.RESTR.CAVITY>
0

>  <SCORE.RESTR.norm>
0

>  <SCORE.SYSTEM>
0

>  <SCORE.SYSTEM.CONST>
0

>  <SCORE.SYSTEM.DIHEDRAL>
0

>  <SCORE.SYSTEM.SOLV>
0

>  <SCORE.SYSTEM.norm>
0

>  <SCORE.heavy>
14

>  <SCORE.norm>
-0.670018

>  <RMSD>
6.409

$$$$
ligand
 OpenBabel11021811493D
libRbt.so/2013.1/901 2013/11/27
 14 13  0  0  0  0  0  0  0  0999 V2000
   61.4791   -2.1990    4.5616 N   0  0  0  0  0  0  0  0  0  0  0  0
   60.9070   -2.0825    3.2382 C   0  0  0  0  0  0  0  0  0  0  0  0
   59.6153   -2.9229    3.1708 C   0  0  0  0  0  0  0  0  0  0  0  0
   58.9621   -2.9530    1.7802 C   0  0  0  0  0  0  0  0  0  0  0  0
   58.6262   -1.6430    1.2018 N   0  0  0  0  0  0  0  0  0  0  0  0
   57.3127   -1.3156    0.6501 C   0  0  0  0  0  0  0  0  0  0  0  0
   57.0513    0.1855    0.5814 C   0  0  0  0  0  0  0  0  0  0  0  0
   57.8580    0.8996   -0.5080 C   0  0  0  0  0  0  0  0  0  0  0  0
   57.8622    2.4208   -0.3164 C   0  0  0  0  0  0  0  0  0  0  0  0
   58.5563    2.7501    0.9269 N   0  0  0  0  0  0  0  0  0  0  0  0
   57.8870    3.0603    2.1915 C   0  0  0  0  0  0  0  0  0  0  0  0
   58.8720    3.2869    3.3468 C   0  0  0  0  0  0  0  0  0  0  0  0
   59.6222    1.9993    3.7031 C   0  0  0  0  0  0  0  0  0  0  0  0
   60.4453    2.2300    4.8865 N   0  0  0  0  0  0  0  0  0  0  0  0
  1  2  1  0  0  0  0
  2  3  1  0  0  0  0
  3  4  1  0  0  0  0
  4  5  1  0  0  0  0
  5  6  1  0  0  0  0
  6  7  1  0  0  0  0
  7  8  1  0  0  0  0
  8  9  1  0  0  0  0
  9 10  1  0  0  0  0
 10 11  1  0  0  0  0
 11 12  1  0  0  0  0
 12 13  1  0  0  0  0
 13 14  1  0  0  0  0
M  END
>  <CHROM.1>
-176.19070056,-56.53113774,-129.62031790,159.24601636,72.25014063,-164.91354102
64.68179852,-99.58953029,176.64551068,-66.46108011,-174.43895599,58.93227861
0.26546209,2.10070286,-0.93369732,-0.95317202,0.19591907

>  <Name>
ligand

>  <RI>
0

>  <Rbt.Current_Directory>
/home/itssahil/PROJECTS/Mol_Feturizer/New_Systems/rnas/4FAW

>  <Rbt.Executable>
rbdock ($Id: //depot/dev/client3/rdock/2013.1/src/exe/rbdock.cxx#4 $)

>  <Rbt.Library>
libRbt.so (2013.1, Build901 2013/11/27)

>  <Rbt.Parameter_File>
/export/apps/rDock/src/rDock_2013.1_src/data/scripts/dock_solv.prm

>  <Rbt.Receptor>
prm/pocket_docking_6.prm

>  <SCORE>
-7.30443

>  <SCORE.INTER>
1.49974

>  <SCORE.INTER.CONST>
1

>  <SCORE.INTER.POLAR>
0

>  <SCORE.INTER.ROT>
11

>  <SCORE.INTER.SOLV>
13.1573

>  <SCORE.INTER.VDW>
-14.3193

>  <SCORE.INTER.norm>
0.107124

>  <SCORE.INTRA>
-8.80417

>  <SCORE.INTRA.DIHEDRAL>
-14.8463

>  <SCORE.INTRA.DIHEDRAL.0>
19.1003

>  <SCORE.INTRA.POLAR>
0

>  <SCORE.INTRA.POLAR.0>
0

>  <SCORE.INTRA.REPUL>
0

>  <SCORE.INTRA.REPUL.0>
0

>  <SCORE.INTRA.SOLV>
0.0599384

>  <SCORE.INTRA.SOLV.lig_0>
-47.5333

>  <SCORE.INTRA.VDW>
-1.41101

>  <SCORE.INTRA.VDW.0>
-0.287413

>  <SCORE.INTRA.norm>
-0.628869

>  <SCORE.RESTR>
0

>  <SCORE.RESTR.CAVITY>
0

>  <SCORE.RESTR.norm>
0

>  <SCORE.SYSTEM>
0

>  <SCORE.SYSTEM.CONST>
0

>  <SCORE.SYSTEM.DIHEDRAL>
0

>  <SCORE.SYSTEM.SOLV>
0

>  <SCORE.SYSTEM.norm>
0

>  <SCORE.heavy>
14

>  <SCORE.norm>
-0.521745

>  <RMSD>
6.418

$$$$
ligand
 OpenBabel11021811493D
libRbt.so/2013.1/901 2013/11/27
 14 13  0  0  0  0  0  0  0  0999 V2000
   50.6418    2.2080   -6.5784 N   0  0  0  0  0  0  0  0  0  0  0  0
   50.5419    1.5835   -5.2776 C   0  0  0  0  0  0  0  0  0  0  0  0
   51.4686    0.3510   -5.2367 C   0  0  0  0  0  0  0  0  0  0  0  0
   51.4481   -0.4011   -3.8970 C   0  0  0  0  0  0  0  0  0  0  0  0
   51.8789    0.3717   -2.7219 N   0  0  0  0  0  0  0  0  0  0  0  0
   51.6401   -0.0523   -1.3435 C   0  0  0  0  0  0  0  0  0  0  0  0
   52.2331    0.9037   -0.3136 C   0  0  0  0  0  0  0  0  0  0  0  0
   51.6393    2.3148   -0.3729 C   0  0  0  0  0  0  0  0  0  0  0  0
   52.1066    3.1851    0.7998 C   0  0  0  0  0  0  0  0  0  0  0  0
   51.6073    2.6195    2.0514 N   0  0  0  0  0  0  0  0  0  0  0  0
   50.2025    2.6326    2.4635 C   0  0  0  0  0  0  0  0  0  0  0  0
   50.0186    2.3538    3.9617 C   0  0  0  0  0  0  0  0  0  0  0  0
   48.5391    2.3844    4.3590 C   0  0  0  0  0  0  0  0  0  0  0  0
   48.4216    2.2061    5.8032 N   0  0  0  0  0  0  0  0  0  0  0  0
  1  2  1  0  0  0  0
  2  3  1  0  0  0  0
  3  4  1  0  0  0  0
  4  5  1  0  0  0  0
  5  6  1  0  0  0  0
  6  7  1  0  0  0  0
  7  8  1  0  0  0  0
  8  9  1  0  0  0  0
  9 10  1  0  0  0  0
 10 11  1  0  0  0  0
 11 12  1  0  0  0  0
 12 13  1  0  0  0  0
 13 14  1  0  0  0  0
M  END
>  <CHROM.1>
-179.96487513,-60.93847254,165.31793044,177.87408066,61.90556650,171.69173254
-64.15482253,-70.53064720,-163.20213191,179.62240026,-176.13342619,50.88492258
1.61853585,-0.45026407,1.37182399,0.47942777,-1.64742165

>  <Name>
ligand

>  <RI>
0

>  <Rbt.Current_Directory>
/home/itssahil/PROJECTS/Mol_Feturizer/New_Systems/rnas/4FAW

>  <Rbt.Executable>
rbdock ($Id: //depot/dev/client3/rdock/2013.1/src/exe/rbdock.cxx#4 $)

>  <Rbt.Library>
libRbt.so (2013.1, Build901 2013/11/27)

>  <Rbt.Parameter_File>
/export/apps/rDock/src/rDock_2013.1_src/data/scripts/dock_solv.prm

>  <Rbt.Receptor>
prm/pocket_docking_8.prm

>  <SCORE>
-9.48852

>  <SCORE.INTER>
0.524302

>  <SCORE.INTER.CONST>
1

>  <SCORE.INTER.POLAR>
0

>  <SCORE.INTER.ROT>
11

>  <SCORE.INTER.SOLV>
9.09722

>  <SCORE.INTER.VDW>
-13.6162

>  <SCORE.INTER.norm>
0.0374501

>  <SCORE.INTRA>
-10.0128

>  <SCORE.INTRA.DIHEDRAL>
-18.1974

>  <SCORE.INTRA.DIHEDRAL.0>
19.1003

>  <SCORE.INTRA.POLAR>
0

>  <SCORE.INTRA.POLAR.0>
0

>  <SCORE.INTRA.REPUL>
0

>  <SCORE.INTRA.REPUL.0>
0

>  <SCORE.INTRA.SOLV>
-0.402449

>  <SCORE.INTRA.SOLV.lig_0>
-47.5333

>  <SCORE.INTRA.VDW>
-0.712872

>  <SCORE.INTRA.VDW.0>
-0.287413

>  <SCORE.INTRA.norm>
-0.715201

>  <SCORE.RESTR>
0

>  <SCORE.RESTR.CAVITY>
0

>  <SCORE.RESTR.norm>
0

>  <SCORE.SYSTEM>
0

>  <SCORE.SYSTEM.CONST>
0

>  <SCORE.SYSTEM.DIHEDRAL>
0

>  <SCORE.SYSTEM.SOLV>
0

>  <SCORE.SYSTEM.norm>
0

>  <SCORE.heavy>
14

>  <SCORE.norm>
-0.677751

>  <RMSD>
6.447

$$$$
ligand
 OpenBabel11021811493D
libRbt.so/2013.1/901 2013/11/27
 14 13  0  0  0  0  0  0  0  0999 V2000
   55.2457    0.4753    5.1614 N   0  0  0  0  0  0  0  0  0  0  0  0
   55.1797   -0.5131    4.1074 C   0  0  0  0  0  0  0  0  0  0  0  0
   54.6783    0.1611    2.8137 C   0  0  0  0  0  0  0  0  0  0  0  0
   54.6928   -0.7600    1.5839 C   0  0  0  0  0  0  0  0  0  0  0  0
   56.0108   -1.2799    1.1886 N   0  0  0  0  0  0  0  0  0  0  0  0
   57.0954   -0.4373    0.6880 C   0  0  0  0  0  0  0  0  0  0  0  0
   58.4727   -1.0670    0.8689 C   0  0  0  0  0  0  0  0  0  0  0  0
   58.8162   -1.3826    2.3284 C   0  0  0  0  0  0  0  0  0  0  0  0
   60.2562   -1.8856    2.4843 C   0  0  0  0  0  0  0  0  0  0  0  0
   60.4892   -2.2625    3.8769 N   0  0  0  0  0  0  0  0  0  0  0  0
   59.9920   -3.4925    4.4960 C   0  0  0  0  0  0  0  0  0  0  0  0
   60.2707   -3.5551    6.0042 C   0  0  0  0  0  0  0  0  0  0  0  0
   59.7363   -4.8531    6.6184 C   0  0  0  0  0  0  0  0  0  0  0  0
   60.0236   -4.8657    8.0497 N   0  0  0  0  0  0  0  0  0  0  0  0
  1  2  1  0  0  0  0
  2  3  1  0  0  0  0
  3  4  1  0  0  0  0
  4  5  1  0  0  0  0
  5  6  1  0  0  0  0
  6  7  1  0  0  0  0
  7  8  1  0  0  0  0
  8  9  1  0  0  0  0
  9 10  1  0  0  0  0
 10 11  1  0  0  0  0
 11 12  1  0  0  0  0
 12 13  1  0  0  0  0
 13 14  1  0  0  0  0
M  END
>  <CHROM.1>
174.47821584,-61.12926240,-65.98121720,157.19019318,-58.91658922,-174.43164124
-175.79814691,76.04989297,-174.25100600,179.94202964,-179.96578846,57.92568277
-1.83694027,3.59029504,2.34067822,0.43207830,-1.22697961

>  <Name>
ligand

>  <RI>
0

>  <Rbt.Current_Directory>
/home/itssahil/PROJECTS/Mol_Feturizer/New_Systems/rnas/4FAW

>  <Rbt.Executable>
rbdock ($Id: //depot/dev/client3/rdock/2013.1/src/exe/rbdock.cxx#4 $)

>  <Rbt.Library>
libRbt.so (2013.1, Build901 2013/11/27)

>  <Rbt.Parameter_File>
/export/apps/rDock/src/rDock_2013.1_src/data/scripts/dock_solv.prm

>  <Rbt.Receptor>
prm/pocket_docking_7.prm

>  <SCORE>
-9.8927

>  <SCORE.INTER>
0.475733

>  <SCORE.INTER.CONST>
1

>  <SCORE.INTER.POLAR>
0

>  <SCORE.INTER.ROT>
11

>  <SCORE.INTER.SOLV>
11.0322

>  <SCORE.INTER.VDW>
-14.2936

>  <SCORE.INTER.norm>
0.0339809

>  <SCORE.INTRA>
-10.3684

>  <SCORE.INTRA.DIHEDRAL>
-18.1456

>  <SCORE.INTRA.DIHEDRAL.0>
19.1003

>  <SCORE.INTRA.POLAR>
0

>  <SCORE.INTRA.POLAR.0>
0

>  <SCORE.INTRA.REPUL>
0

>  <SCORE.INTRA.REPUL.0>
0

>  <SCORE.INTRA.SOLV>
-0.813893

>  <SCORE.INTRA.SOLV.lig_0>
-47.5333

>  <SCORE.INTRA.VDW>
-0.888701

>  <SCORE.INTRA.VDW.0>
-0.287413

>  <SCORE.INTRA.norm>
-0.740602

>  <SCORE.RESTR>
0

>  <SCORE.RESTR.CAVITY>
0

>  <SCORE.RESTR.norm>
0

>  <SCORE.SYSTEM>
0

>  <SCORE.SYSTEM.CONST>
0

>  <SCORE.SYSTEM.DIHEDRAL>
0

>  <SCORE.SYSTEM.SOLV>
0

>  <SCORE.SYSTEM.norm>
0

>  <SCORE.heavy>
14

>  <SCORE.norm>
-0.706621

>  <RMSD>
6.474

$$$$
ligand
 OpenBabel11021811493D
libRbt.so/2013.1/901 2013/11/27
 14 13  0  0  0  0  0  0  0  0999 V2000
   55.3107   -0.2250    1.0818 N   0  0  0  0  0  0  0  0  0  0  0  0
   56.5740   -0.9270    1.1414 C   0  0  0  0  0  0  0  0  0  0  0  0
   57.5437   -0.3096    0.1127 C   0  0  0  0  0  0  0  0  0  0  0  0
   57.8322    1.1818    0.3439 C   0  0  0  0  0  0  0  0  0  0  0  0
   58.3873    1.5303    1.6607 N   0  0  0  0  0  0  0  0  0  0  0  0
   59.1116    2.7711    1.9301 C   0  0  0  0  0  0  0  0  0  0  0  0
   59.4055    2.9810    3.4120 C   0  0  0  0  0  0  0  0  0  0  0  0
   60.1395    1.8051    4.0646 C   0  0  0  0  0  0  0  0  0  0  0  0
   60.5965    2.1328    5.4910 C   0  0  0  0  0  0  0  0  0  0  0  0
   61.4483    1.0536    5.9863 N   0  0  0  0  0  0  0  0  0  0  0  0
   61.3861    0.5060    7.3427 C   0  0  0  0  0  0  0  0  0  0  0  0
   62.2666   -0.7383    7.5237 C   0  0  0  0  0  0  0  0  0  0  0  0
   62.0924   -1.3489    8.9181 C   0  0  0  0  0  0  0  0  0  0  0  0
   62.8016   -2.6234    8.9808 N   0  0  0  0  0  0  0  0  0  0  0  0
  1  2  1  0  0  0  0
  2  3  1  0  0  0  0
  3  4  1  0  0  0  0
  4  5  1  0  0  0  0
  5  6  1  0  0  0  0
  6  7  1  0  0  0  0
  7  8  1  0  0  0  0
  8  9  1  0  0  0  0
  9 10  1  0  0  0  0
 10 11  1  0  0  0  0
 11 12  1  0  0  0  0
 12 13  1  0  0  0  0
 13 14  1  0  0  0  0
M  END
>  <CHROM.1>
59.83640009,57.51617311,159.79317150,171.70032228,54.27122431,171.69089702
-172.00844585,-138.39949792,172.42372678,-175.48875719,172.26811829,59.63548481
0.55665242,4.14200794,2.61850981,-0.87208166,-0.44319505

>  <Name>
ligand

>  <RI>
0

>  <Rbt.Current_Directory>
/home/itssahil/PROJECTS/Mol_Feturizer/New_Systems/rnas/4FAW

>  <Rbt.Executable>
rbdock ($Id: //depot/dev/client3/rdock/2013.1/src/exe/rbdock.cxx#4 $)

>  <Rbt.Library>
libRbt.so (2013.1, Build901 2013/11/27)

>  <Rbt.Parameter_File>
/export/apps/rDock/src/rDock_2013.1_src/data/scripts/dock_solv.prm

>  <Rbt.Receptor>
prm/pocket_docking_8.prm

>  <SCORE>
-9.70307

>  <SCORE.INTER>
-0.865981

>  <SCORE.INTER.CONST>
1

>  <SCORE.INTER.POLAR>
0

>  <SCORE.INTER.ROT>
11

>  <SCORE.INTER.SOLV>
13.8081

>  <SCORE.INTER.VDW>
-16.1134

>  <SCORE.INTER.norm>
-0.0618558

>  <SCORE.INTRA>
-8.83709

>  <SCORE.INTRA.DIHEDRAL>
-16.7803

>  <SCORE.INTRA.DIHEDRAL.0>
19.1003

>  <SCORE.INTRA.POLAR>
0

>  <SCORE.INTRA.POLAR.0>
0

>  <SCORE.INTRA.REPUL>
0

>  <SCORE.INTRA.REPUL.0>
0

>  <SCORE.INTRA.SOLV>
0.734511

>  <SCORE.INTRA.SOLV.lig_0>
-47.5333

>  <SCORE.INTRA.VDW>
-0.814189

>  <SCORE.INTRA.VDW.0>
-0.287413

>  <SCORE.INTRA.norm>
-0.631221

>  <SCORE.RESTR>
0

>  <SCORE.RESTR.CAVITY>
0

>  <SCORE.RESTR.norm>
0

>  <SCORE.SYSTEM>
0

>  <SCORE.SYSTEM.CONST>
0

>  <SCORE.SYSTEM.DIHEDRAL>
0

>  <SCORE.SYSTEM.SOLV>
0

>  <SCORE.SYSTEM.norm>
0

>  <SCORE.heavy>
14

>  <SCORE.norm>
-0.693077

>  <RMSD>
6.477

$$$$
ligand
 OpenBabel11021811493D
libRbt.so/2013.1/901 2013/11/27
 14 13  0  0  0  0  0  0  0  0999 V2000
   51.1875    3.5720    2.9672 N   0  0  0  0  0  0  0  0  0  0  0  0
   51.6317    3.7136    1.5979 C   0  0  0  0  0  0  0  0  0  0  0  0
   51.4387    2.3711    0.8631 C   0  0  0  0  0  0  0  0  0  0  0  0
   51.8057    2.4174   -0.6282 C   0  0  0  0  0  0  0  0  0  0  0  0
   51.5923    1.1709   -1.3794 N   0  0  0  0  0  0  0  0  0  0  0  0
   52.0015    0.9850   -2.7704 C   0  0  0  0  0  0  0  0  0  0  0  0
   51.8076   -0.4452   -3.2637 C   0  0  0  0  0  0  0  0  0  0  0  0
   50.3543   -0.7819   -3.6133 C   0  0  0  0  0  0  0  0  0  0  0  0
   49.9553   -0.2438   -4.9925 C   0  0  0  0  0  0  0  0  0  0  0  0
   49.9640    1.2173   -4.9630 N   0  0  0  0  0  0  0  0  0  0  0  0
   48.8555    2.0423   -4.4794 C   0  0  0  0  0  0  0  0  0  0  0  0
   49.2931    3.4627   -4.0960 C   0  0  0  0  0  0  0  0  0  0  0  0
   48.1336    4.2614   -3.4917 C   0  0  0  0  0  0  0  0  0  0  0  0
   48.5859    5.6152   -3.1849 N   0  0  0  0  0  0  0  0  0  0  0  0
  1  2  1  0  0  0  0
  2  3  1  0  0  0  0
  3  4  1  0  0  0  0
  4  5  1  0  0  0  0
  5  6  1  0  0  0  0
  6  7  1  0  0  0  0
  7  8  1  0  0  0  0
  8  9  1  0  0  0  0
  9 10  1  0  0  0  0
 10 11  1  0  0  0  0
 11 12  1  0  0  0  0
 12 13  1  0  0  0  0
 13 14  1  0  0  0  0
M  END
>  <CHROM.1>
176.84309993,-177.93823237,-173.91140674,173.51590909,77.86722887,79.46740759
-66.11167126,-83.38797050,159.60737015,-175.50666391,-178.14790137,50.47195928
2.09668876,-2.24556354,1.12961809,-0.93948000,0.86826698

>  <Name>
ligand

>  <RI>
0

>  <Rbt.Current_Directory>
/home/itssahil/PROJECTS/Mol_Feturizer/New_Systems/rnas/4FAW

>  <Rbt.Executable>
rbdock ($Id: //depot/dev/client3/rdock/2013.1/src/exe/rbdock.cxx#4 $)

>  <Rbt.Library>
libRbt.so (2013.1, Build901 2013/11/27)

>  <Rbt.Parameter_File>
/export/apps/rDock/src/rDock_2013.1_src/data/scripts/dock_solv.prm

>  <Rbt.Receptor>
prm/pocket_docking_5.prm

>  <SCORE>
-7.93088

>  <SCORE.INTER>
0.767874

>  <SCORE.INTER.CONST>
1

>  <SCORE.INTER.POLAR>
0

>  <SCORE.INTER.ROT>
11

>  <SCORE.INTER.SOLV>
8.77784

>  <SCORE.INTER.VDW>
-13.3474

>  <SCORE.INTER.norm>
0.0548481

>  <SCORE.INTRA>
-8.69876

>  <SCORE.INTRA.DIHEDRAL>
-15.467

>  <SCORE.INTRA.DIHEDRAL.0>
19.1003

>  <SCORE.INTRA.POLAR>
0

>  <SCORE.INTRA.POLAR.0>
0

>  <SCORE.INTRA.REPUL>
0

>  <SCORE.INTRA.REPUL.0>
0

>  <SCORE.INTRA.SOLV>
0.398764

>  <SCORE.INTRA.SOLV.lig_0>
-47.5333

>  <SCORE.INTRA.VDW>
-1.16465

>  <SCORE.INTRA.VDW.0>
-0.287413

>  <SCORE.INTRA.norm>
-0.62134

>  <SCORE.RESTR>
0

>  <SCORE.RESTR.CAVITY>
0

>  <SCORE.RESTR.norm>
0

>  <SCORE.SYSTEM>
0

>  <SCORE.SYSTEM.CONST>
0

>  <SCORE.SYSTEM.DIHEDRAL>
0

>  <SCORE.SYSTEM.SOLV>
0

>  <SCORE.SYSTEM.norm>
0

>  <SCORE.heavy>
14

>  <SCORE.norm>
-0.566492

>  <RMSD>
6.515

$$$$
ligand
 OpenBabel11021811493D
libRbt.so/2013.1/901 2013/11/27
 14 13  0  0  0  0  0  0  0  0999 V2000
   59.8577   -5.1286    7.9922 N   0  0  0  0  0  0  0  0  0  0  0  0
   60.4563   -5.0677    6.6768 C   0  0  0  0  0  0  0  0  0  0  0  0
   59.7799   -3.9432    5.8659 C   0  0  0  0  0  0  0  0  0  0  0  0
   60.3907   -3.7241    4.4731 C   0  0  0  0  0  0  0  0  0  0  0  0
   59.7966   -2.6395    3.6766 N   0  0  0  0  0  0  0  0  0  0  0  0
   60.4715   -2.0029    2.5469 C   0  0  0  0  0  0  0  0  0  0  0  0
   59.5838   -1.0100    1.8037 C   0  0  0  0  0  0  0  0  0  0  0  0
   58.3664   -1.6565    1.1348 C   0  0  0  0  0  0  0  0  0  0  0  0
   57.6171   -0.6717    0.2296 C   0  0  0  0  0  0  0  0  0  0  0  0
   57.1087    0.4362    1.0358 N   0  0  0  0  0  0  0  0  0  0  0  0
   57.1023    1.8364    0.6083 C   0  0  0  0  0  0  0  0  0  0  0  0
   58.5024    2.4657    0.6083 C   0  0  0  0  0  0  0  0  0  0  0  0
   59.1071    2.4847    2.0160 C   0  0  0  0  0  0  0  0  0  0  0  0
   58.2626    3.2880    2.8952 N   0  0  0  0  0  0  0  0  0  0  0  0
  1  2  1  0  0  0  0
  2  3  1  0  0  0  0
  3  4  1  0  0  0  0
  4  5  1  0  0  0  0
  5  6  1  0  0  0  0
  6  7  1  0  0  0  0
  7  8  1  0  0  0  0
  8  9  1  0  0  0  0
  9 10  1  0  0  0  0
 10 11  1  0  0  0  0
 11 12  1  0  0  0  0
 12 13  1  0  0  0  0
 13 14  1  0  0  0  0
M  END
>  <CHROM.1>
176.52015353,-178.62400706,160.11316711,174.00883745,-63.96729152,-171.50418439
-62.15649342,140.62773404,-72.71085544,-62.22581286,-61.19494148,59.02890283
-1.09526184,2.96841561,-0.42942190,-1.28495741,0.43598786

>  <Name>
ligand

>  <RI>
0

>  <Rbt.Current_Directory>
/home/itssahil/PROJECTS/Mol_Feturizer/New_Systems/rnas/4FAW

>  <Rbt.Executable>
rbdock ($Id: //depot/dev/client3/rdock/2013.1/src/exe/rbdock.cxx#4 $)

>  <Rbt.Library>
libRbt.so (2013.1, Build901 2013/11/27)

>  <Rbt.Parameter_File>
/export/apps/rDock/src/rDock_2013.1_src/data/scripts/dock_solv.prm

>  <Rbt.Receptor>
prm/pocket_docking_8.prm

>  <SCORE>
-8.41023

>  <SCORE.INTER>
0.548762

>  <SCORE.INTER.CONST>
1

>  <SCORE.INTER.POLAR>
0

>  <SCORE.INTER.ROT>
11

>  <SCORE.INTER.SOLV>
8.96488

>  <SCORE.INTER.VDW>
-13.5558

>  <SCORE.INTER.norm>
0.0391973

>  <SCORE.INTRA>
-8.959

>  <SCORE.INTRA.DIHEDRAL>
-17.3116

>  <SCORE.INTRA.DIHEDRAL.0>
19.1003

>  <SCORE.INTRA.POLAR>
0

>  <SCORE.INTRA.POLAR.0>
0

>  <SCORE.INTRA.REPUL>
0

>  <SCORE.INTRA.REPUL.0>
0

>  <SCORE.INTRA.SOLV>
1.15917

>  <SCORE.INTRA.SOLV.lig_0>
-47.5333

>  <SCORE.INTRA.VDW>
-0.882763

>  <SCORE.INTRA.VDW.0>
-0.287413

>  <SCORE.INTRA.norm>
-0.639928

>  <SCORE.RESTR>
0

>  <SCORE.RESTR.CAVITY>
0

>  <SCORE.RESTR.norm>
0

>  <SCORE.SYSTEM>
0

>  <SCORE.SYSTEM.CONST>
0

>  <SCORE.SYSTEM.DIHEDRAL>
0

>  <SCORE.SYSTEM.SOLV>
0

>  <SCORE.SYSTEM.norm>
0

>  <SCORE.heavy>
14

>  <SCORE.norm>
-0.600731

>  <RMSD>
6.529

$$$$
ligand
 OpenBabel11021811493D
libRbt.so/2013.1/901 2013/11/27
 14 13  0  0  0  0  0  0  0  0999 V2000
   47.9214   -1.7586   -8.0699 N   0  0  0  0  0  0  0  0  0  0  0  0
   47.3088   -2.4246   -6.9415 C   0  0  0  0  0  0  0  0  0  0  0  0
   48.2268   -2.2797   -5.7103 C   0  0  0  0  0  0  0  0  0  0  0  0
   48.3863   -0.8331   -5.2174 C   0  0  0  0  0  0  0  0  0  0  0  0
   49.3631   -0.6286   -4.1369 N   0  0  0  0  0  0  0  0  0  0  0  0
   50.8087   -0.5892   -4.3505 C   0  0  0  0  0  0  0  0  0  0  0  0
   51.6015   -0.4854   -3.0516 C   0  0  0  0  0  0  0  0  0  0  0  0
   51.4309    0.8577   -2.3343 C   0  0  0  0  0  0  0  0  0  0  0  0
   52.0708    0.8507   -0.9410 C   0  0  0  0  0  0  0  0  0  0  0  0
   51.7957    2.1224   -0.2757 N   0  0  0  0  0  0  0  0  0  0  0  0
   52.2705    2.4759    1.0634 C   0  0  0  0  0  0  0  0  0  0  0  0
   53.7917    2.6720    1.1235 C   0  0  0  0  0  0  0  0  0  0  0  0
   54.2384    3.8527    0.2551 C   0  0  0  0  0  0  0  0  0  0  0  0
   55.6873    4.0037    0.3511 N   0  0  0  0  0  0  0  0  0  0  0  0
  1  2  1  0  0  0  0
  2  3  1  0  0  0  0
  3  4  1  0  0  0  0
  4  5  1  0  0  0  0
  5  6  1  0  0  0  0
  6  7  1  0  0  0  0
  7  8  1  0  0  0  0
  8  9  1  0  0  0  0
  9 10  1  0  0  0  0
 10 11  1  0  0  0  0
 11 12  1  0  0  0  0
 12 13  1  0  0  0  0
 13 14  1  0  0  0  0
M  END
>  <CHROM.1>
65.34864149,-173.75169262,77.70244137,-175.01439210,-68.31108991,171.58572076
-176.15784296,-179.04614629,68.63115508,63.75049065,179.65627875,51.06436292
0.55956440,-2.73101869,-2.26468587,0.51410439,1.34636334

>  <Name>
ligand

>  <RI>
0

>  <Rbt.Current_Directory>
/home/itssahil/PROJECTS/Mol_Feturizer/New_Systems/rnas/4FAW

>  <Rbt.Executable>
rbdock ($Id: //depot/dev/client3/rdock/2013.1/src/exe/rbdock.cxx#4 $)

>  <Rbt.Library>
libRbt.so (2013.1, Build901 2013/11/27)

>  <Rbt.Parameter_File>
/export/apps/rDock/src/rDock_2013.1_src/data/scripts/dock_solv.prm

>  <Rbt.Receptor>
prm/pocket_docking_7.prm

>  <SCORE>
-10.26

>  <SCORE.INTER>
-0.646362

>  <SCORE.INTER.CONST>
1

>  <SCORE.INTER.POLAR>
0

>  <SCORE.INTER.ROT>
11

>  <SCORE.INTER.SOLV>
7.70151

>  <SCORE.INTER.VDW>
-13.9314

>  <SCORE.INTER.norm>
-0.0461687

>  <SCORE.INTRA>
-9.6136

>  <SCORE.INTRA.DIHEDRAL>
-17.8667

>  <SCORE.INTRA.DIHEDRAL.0>
19.1003

>  <SCORE.INTRA.POLAR>
0

>  <SCORE.INTRA.POLAR.0>
0

>  <SCORE.INTRA.REPUL>
0

>  <SCORE.INTRA.REPUL.0>
0

>  <SCORE.INTRA.SOLV>
-0.0414363

>  <SCORE.INTRA.SOLV.lig_0>
-47.5333

>  <SCORE.INTRA.VDW>
-0.65953

>  <SCORE.INTRA.VDW.0>
-0.287413

>  <SCORE.INTRA.norm>
-0.686685

>  <SCORE.RESTR>
0

>  <SCORE.RESTR.CAVITY>
0

>  <SCORE.RESTR.norm>
0

>  <SCORE.SYSTEM>
0

>  <SCORE.SYSTEM.CONST>
0

>  <SCORE.SYSTEM.DIHEDRAL>
0

>  <SCORE.SYSTEM.SOLV>
0

>  <SCORE.SYSTEM.norm>
0

>  <SCORE.heavy>
14

>  <SCORE.norm>
-0.732854

>  <RMSD>
6.540

$$$$
ligand
 OpenBabel11021811493D
libRbt.so/2013.1/901 2013/11/27
 14 13  0  0  0  0  0  0  0  0999 V2000
   48.8364    5.9436   -1.2808 N   0  0  0  0  0  0  0  0  0  0  0  0
   48.4986    5.7361   -2.6718 C   0  0  0  0  0  0  0  0  0  0  0  0
   48.8472    4.2858   -3.0651 C   0  0  0  0  0  0  0  0  0  0  0  0
   48.5981    3.9639   -4.5468 C   0  0  0  0  0  0  0  0  0  0  0  0
   48.8798    2.5799   -4.9577 N   0  0  0  0  0  0  0  0  0  0  0  0
   50.1375    1.8918   -4.6722 C   0  0  0  0  0  0  0  0  0  0  0  0
   50.1137    0.4177   -5.0631 C   0  0  0  0  0  0  0  0  0  0  0  0
   51.3817   -0.3438   -4.6634 C   0  0  0  0  0  0  0  0  0  0  0  0
   51.4434   -0.6056   -3.1540 C   0  0  0  0  0  0  0  0  0  0  0  0
   51.6419    0.6601   -2.4509 N   0  0  0  0  0  0  0  0  0  0  0  0
   51.8777    0.7791   -1.0108 C   0  0  0  0  0  0  0  0  0  0  0  0
   52.2477    2.2063   -0.5838 C   0  0  0  0  0  0  0  0  0  0  0  0
   52.5980    2.2712    0.9064 C   0  0  0  0  0  0  0  0  0  0  0  0
   52.9126    3.6496    1.2704 N   0  0  0  0  0  0  0  0  0  0  0  0
  1  2  1  0  0  0  0
  2  3  1  0  0  0  0
  3  4  1  0  0  0  0
  4  5  1  0  0  0  0
  5  6  1  0  0  0  0
  6  7  1  0  0  0  0
  7  8  1  0  0  0  0
  8  9  1  0  0  0  0
  9 10  1  0  0  0  0
 10 11  1  0  0  0  0
 11 12  1  0  0  0  0
 12 13  1  0  0  0  0
 13 14  1  0  0  0  0
M  END
>  <CHROM.1>
-177.05525453,-178.27799366,-51.19480904,173.33764098,-175.17772189,73.71952996
-68.77411765,-173.79376708,171.83366863,-175.37191886,-178.72861525,50.57245052
2.38791491,-2.56769196,2.71203815,0.85380027,-2.37441233

>  <Name>
ligand

>  <RI>
0

>  <Rbt.Current_Directory>
/home/itssahil/PROJECTS/Mol_Feturizer/New_Systems/rnas/4FAW

>  <Rbt.Executable>
rbdock ($Id: //depot/dev/client3/rdock/2013.1/src/exe/rbdock.cxx#4 $)

>  <Rbt.Library>
libRbt.so (2013.1, Build901 2013/11/27)

>  <Rbt.Parameter_File>
/export/apps/rDock/src/rDock_2013.1_src/data/scripts/dock_solv.prm

>  <Rbt.Receptor>
prm/pocket_docking_5.prm

>  <SCORE>
-7.82059

>  <SCORE.INTER>
1.64335

>  <SCORE.INTER.CONST>
1

>  <SCORE.INTER.POLAR>
0

>  <SCORE.INTER.ROT>
11

>  <SCORE.INTER.SOLV>
9.14715

>  <SCORE.INTER.VDW>
-12.8868

>  <SCORE.INTER.norm>
0.117382

>  <SCORE.INTRA>
-9.46394

>  <SCORE.INTRA.DIHEDRAL>
-17.6556

>  <SCORE.INTRA.DIHEDRAL.0>
19.1003

>  <SCORE.INTRA.POLAR>
0

>  <SCORE.INTRA.POLAR.0>
0

>  <SCORE.INTRA.REPUL>
0

>  <SCORE.INTRA.REPUL.0>
0

>  <SCORE.INTRA.SOLV>
-0.357059

>  <SCORE.INTRA.SOLV.lig_0>
-47.5333

>  <SCORE.INTRA.VDW>
-0.457616

>  <SCORE.INTRA.VDW.0>
-0.287413

>  <SCORE.INTRA.norm>
-0.675995

>  <SCORE.RESTR>
0

>  <SCORE.RESTR.CAVITY>
0

>  <SCORE.RESTR.norm>
0

>  <SCORE.SYSTEM>
0

>  <SCORE.SYSTEM.CONST>
0

>  <SCORE.SYSTEM.DIHEDRAL>
0

>  <SCORE.SYSTEM.SOLV>
0

>  <SCORE.SYSTEM.norm>
0

>  <SCORE.heavy>
14

>  <SCORE.norm>
-0.558613

>  <RMSD>
6.555

$$$$
ligand
 OpenBabel11021811493D
libRbt.so/2013.1/901 2013/11/27
 14 13  0  0  0  0  0  0  0  0999 V2000
   52.1706    3.8279    1.0288 N   0  0  0  0  0  0  0  0  0  0  0  0
   52.5362    2.4648    0.7117 C   0  0  0  0  0  0  0  0  0  0  0  0
   51.6572    1.9642   -0.4528 C   0  0  0  0  0  0  0  0  0  0  0  0
   51.9630    0.5236   -0.8911 C   0  0  0  0  0  0  0  0  0  0  0  0
   51.1718    0.0167   -2.0228 N   0  0  0  0  0  0  0  0  0  0  0  0
   51.7628   -0.5703   -3.2240 C   0  0  0  0  0  0  0  0  0  0  0  0
   51.4276    0.2047   -4.4941 C   0  0  0  0  0  0  0  0  0  0  0  0
   49.9274    0.2623   -4.7999 C   0  0  0  0  0  0  0  0  0  0  0  0
   49.5489    1.5227   -5.5867 C   0  0  0  0  0  0  0  0  0  0  0  0
   49.7557    2.6992   -4.7448 N   0  0  0  0  0  0  0  0  0  0  0  0
   48.7521    3.2516   -3.8332 C   0  0  0  0  0  0  0  0  0  0  0  0
   49.3628    4.1496   -2.7483 C   0  0  0  0  0  0  0  0  0  0  0  0
   49.9791    5.4159   -3.3519 C   0  0  0  0  0  0  0  0  0  0  0  0
   50.5223    6.2475   -2.2820 N   0  0  0  0  0  0  0  0  0  0  0  0
  1  2  1  0  0  0  0
  2  3  1  0  0  0  0
  3  4  1  0  0  0  0
  4  5  1  0  0  0  0
  5  6  1  0  0  0  0
  6  7  1  0  0  0  0
  7  8  1  0  0  0  0
  8  9  1  0  0  0  0
  9 10  1  0  0  0  0
 10 11  1  0  0  0  0
 11 12  1  0  0  0  0
 12 13  1  0  0  0  0
 13 14  1  0  0  0  0
M  END
>  <CHROM.1>
179.47110012,-178.46756410,126.92116090,-118.62921971,-61.38894100,151.87124292
-66.59549669,-87.98110019,160.15012751,65.86599072,178.91406505,50.75261745
2.28395539,-2.62104654,-0.91938965,1.03905362,-2.61931410

>  <Name>
ligand

>  <RI>
0

>  <Rbt.Current_Directory>
/home/itssahil/PROJECTS/Mol_Feturizer/New_Systems/rnas/4FAW

>  <Rbt.Executable>
rbdock ($Id: //depot/dev/client3/rdock/2013.1/src/exe/rbdock.cxx#4 $)

>  <Rbt.Library>
libRbt.so (2013.1, Build901 2013/11/27)

>  <Rbt.Parameter_File>
/export/apps/rDock/src/rDock_2013.1_src/data/scripts/dock_solv.prm

>  <Rbt.Receptor>
prm/pocket_docking_6.prm

>  <SCORE>
-6.5092

>  <SCORE.INTER>
1.48707

>  <SCORE.INTER.CONST>
1

>  <SCORE.INTER.POLAR>
0

>  <SCORE.INTER.ROT>
11

>  <SCORE.INTER.SOLV>
8.51502

>  <SCORE.INTER.VDW>
-12.7803

>  <SCORE.INTER.norm>
0.106219

>  <SCORE.INTRA>
-7.99627

>  <SCORE.INTRA.DIHEDRAL>
-12.8338

>  <SCORE.INTRA.DIHEDRAL.0>
19.1003

>  <SCORE.INTRA.POLAR>
0

>  <SCORE.INTRA.POLAR.0>
0

>  <SCORE.INTRA.REPUL>
0

>  <SCORE.INTRA.REPUL.0>
0

>  <SCORE.INTRA.SOLV>
0.0740832

>  <SCORE.INTRA.SOLV.lig_0>
-47.5333

>  <SCORE.INTRA.VDW>
-1.61643

>  <SCORE.INTRA.VDW.0>
-0.287413

>  <SCORE.INTRA.norm>
-0.571162

>  <SCORE.RESTR>
0

>  <SCORE.RESTR.CAVITY>
0

>  <SCORE.RESTR.norm>
0

>  <SCORE.SYSTEM>
0

>  <SCORE.SYSTEM.CONST>
0

>  <SCORE.SYSTEM.DIHEDRAL>
0

>  <SCORE.SYSTEM.SOLV>
0

>  <SCORE.SYSTEM.norm>
0

>  <SCORE.heavy>
14

>  <SCORE.norm>
-0.464943

>  <RMSD>
6.562

$$$$
ligand
 OpenBabel11021811493D
libRbt.so/2013.1/901 2013/11/27
 14 13  0  0  0  0  0  0  0  0999 V2000
   49.9511    4.6861    3.3576 N   0  0  0  0  0  0  0  0  0  0  0  0
   50.2767    3.3327    3.7507 C   0  0  0  0  0  0  0  0  0  0  0  0
   50.2642    2.4273    2.5019 C   0  0  0  0  0  0  0  0  0  0  0  0
   51.3973    2.7212    1.5065 C   0  0  0  0  0  0  0  0  0  0  0  0
   51.4383    1.8645    0.3115 N   0  0  0  0  0  0  0  0  0  0  0  0
   52.3001    2.1243   -0.8403 C   0  0  0  0  0  0  0  0  0  0  0  0
   51.7338    1.5747   -2.1455 C   0  0  0  0  0  0  0  0  0  0  0  0
   51.6621    0.0448   -2.1873 C   0  0  0  0  0  0  0  0  0  0  0  0
   51.0218   -0.4657   -3.4836 C   0  0  0  0  0  0  0  0  0  0  0  0
   51.7809    0.0343   -4.6279 N   0  0  0  0  0  0  0  0  0  0  0  0
   51.4603   -0.2588   -6.0260 C   0  0  0  0  0  0  0  0  0  0  0  0
   51.6017    0.9669   -6.9392 C   0  0  0  0  0  0  0  0  0  0  0  0
   53.0484    1.4696   -6.9808 C   0  0  0  0  0  0  0  0  0  0  0  0
   53.1399    2.6074   -7.8910 N   0  0  0  0  0  0  0  0  0  0  0  0
  1  2  1  0  0  0  0
  2  3  1  0  0  0  0
  3  4  1  0  0  0  0
  4  5  1  0  0  0  0
  5  6  1  0  0  0  0
  6  7  1  0  0  0  0
  7  8  1  0  0  0  0
  8  9  1  0  0  0  0
  9 10  1  0  0  0  0
 10 11  1  0  0  0  0
 11 12  1  0  0  0  0
 12 13  1  0  0  0  0
 13 14  1  0  0  0  0
M  END
>  <CHROM.1>
68.10345546,178.92791598,169.87531848,-152.20827208,-66.19478000,177.06045552
57.59192491,179.68839303,138.28398558,63.09609764,178.28581955,51.50543969
1.65181982,-2.12092020,-2.16906591,-1.25554506,-2.38741679

>  <Name>
ligand

>  <RI>
0

>  <Rbt.Current_Directory>
/home/itssahil/PROJECTS/Mol_Feturizer/New_Systems/rnas/4FAW

>  <Rbt.Executable>
rbdock ($Id: //depot/dev/client3/rdock/2013.1/src/exe/rbdock.cxx#4 $)

>  <Rbt.Library>
libRbt.so (2013.1, Build901 2013/11/27)

>  <Rbt.Parameter_File>
/export/apps/rDock/src/rDock_2013.1_src/data/scripts/dock_solv.prm

>  <Rbt.Receptor>
prm/pocket_docking_6.prm

>  <SCORE>
-8.12415

>  <SCORE.INTER>
1.0064

>  <SCORE.INTER.CONST>
1

>  <SCORE.INTER.POLAR>
0

>  <SCORE.INTER.ROT>
11

>  <SCORE.INTER.SOLV>
9.70504

>  <SCORE.INTER.VDW>
-13.4974

>  <SCORE.INTER.norm>
0.0718856

>  <SCORE.INTRA>
-9.13055

>  <SCORE.INTRA.DIHEDRAL>
-17.0433

>  <SCORE.INTRA.DIHEDRAL.0>
19.1003

>  <SCORE.INTRA.POLAR>
0

>  <SCORE.INTRA.POLAR.0>
0

>  <SCORE.INTRA.REPUL>
0

>  <SCORE.INTRA.REPUL.0>
0

>  <SCORE.INTRA.SOLV>
0.28256

>  <SCORE.INTRA.SOLV.lig_0>
-47.5333

>  <SCORE.INTRA.VDW>
-0.750166

>  <SCORE.INTRA.VDW.0>
-0.287413

>  <SCORE.INTRA.norm>
-0.652182

>  <SCORE.RESTR>
0

>  <SCORE.RESTR.CAVITY>
0

>  <SCORE.RESTR.norm>
0

>  <SCORE.SYSTEM>
0

>  <SCORE.SYSTEM.CONST>
0

>  <SCORE.SYSTEM.DIHEDRAL>
0

>  <SCORE.SYSTEM.SOLV>
0

>  <SCORE.SYSTEM.norm>
0

>  <SCORE.heavy>
14

>  <SCORE.norm>
-0.580296

>  <RMSD>
6.599

$$$$
ligand
 OpenBabel11021811493D
libRbt.so/2013.1/901 2013/11/27
 14 13  0  0  0  0  0  0  0  0999 V2000
   53.7361    3.5575    2.0988 N   0  0  0  0  0  0  0  0  0  0  0  0
   54.7961    2.7058    1.6055 C   0  0  0  0  0  0  0  0  0  0  0  0
   54.2000    1.3429    1.1972 C   0  0  0  0  0  0  0  0  0  0  0  0
   53.0920    1.4386    0.1370 C   0  0  0  0  0  0  0  0  0  0  0  0
   52.5225    0.1587   -0.3116 N   0  0  0  0  0  0  0  0  0  0  0  0
   51.4269    0.0542   -1.2737 C   0  0  0  0  0  0  0  0  0  0  0  0
   51.9076   -0.0378   -2.7183 C   0  0  0  0  0  0  0  0  0  0  0  0
   50.7698   -0.0455   -3.7443 C   0  0  0  0  0  0  0  0  0  0  0  0
   49.8832   -1.2893   -3.6104 C   0  0  0  0  0  0  0  0  0  0  0  0
   48.5379   -0.9786   -4.0892 N   0  0  0  0  0  0  0  0  0  0  0  0
   48.1035   -1.1104   -5.4811 C   0  0  0  0  0  0  0  0  0  0  0  0
   48.0273   -2.5715   -5.9455 C   0  0  0  0  0  0  0  0  0  0  0  0
   47.2704   -2.6982   -7.2716 C   0  0  0  0  0  0  0  0  0  0  0  0
   47.9571   -1.9190   -8.2976 N   0  0  0  0  0  0  0  0  0  0  0  0
  1  2  1  0  0  0  0
  2  3  1  0  0  0  0
  3  4  1  0  0  0  0
  4  5  1  0  0  0  0
  5  6  1  0  0  0  0
  6  7  1  0  0  0  0
  7  8  1  0  0  0  0
  8  9  1  0  0  0  0
  9 10  1  0  0  0  0
 10 11  1  0  0  0  0
 11 12  1  0  0  0  0
 12 13  1  0  0  0  0
 13 14  1  0  0  0  0
M  END
>  <CHROM.1>
57.59207757,178.24303640,177.55163541,90.21624826,-175.81658223,-64.45871180
152.77272833,88.10363534,68.63383850,166.75862671,59.93575875,50.87367121
-0.09958904,-2.69321404,-0.33712025,-0.93710058,-0.89994904

>  <Name>
ligand

>  <RI>
0

>  <Rbt.Current_Directory>
/home/itssahil/PROJECTS/Mol_Feturizer/New_Systems/rnas/4FAW

>  <Rbt.Executable>
rbdock ($Id: //depot/dev/client3/rdock/2013.1/src/exe/rbdock.cxx#4 $)

>  <Rbt.Library>
libRbt.so (2013.1, Build901 2013/11/27)

>  <Rbt.Parameter_File>
/export/apps/rDock/src/rDock_2013.1_src/data/scripts/dock_solv.prm

>  <Rbt.Receptor>
prm/pocket_docking_8.prm

>  <SCORE>
-7.75802

>  <SCORE.INTER>
-0.884927

>  <SCORE.INTER.CONST>
1

>  <SCORE.INTER.POLAR>
0

>  <SCORE.INTER.ROT>
11

>  <SCORE.INTER.SOLV>
9.46233

>  <SCORE.INTER.VDW>
-14.6774

>  <SCORE.INTER.norm>
-0.063209

>  <SCORE.INTRA>
-6.87309

>  <SCORE.INTRA.DIHEDRAL>
-14.7074

>  <SCORE.INTRA.DIHEDRAL.0>
19.1003

>  <SCORE.INTRA.POLAR>
0

>  <SCORE.INTRA.POLAR.0>
0

>  <SCORE.INTRA.REPUL>
0

>  <SCORE.INTRA.REPUL.0>
0

>  <SCORE.INTRA.SOLV>
0.409291

>  <SCORE.INTRA.SOLV.lig_0>
-47.5333

>  <SCORE.INTRA.VDW>
0.275941

>  <SCORE.INTRA.VDW.0>
-0.287413

>  <SCORE.INTRA.norm>
-0.490935

>  <SCORE.RESTR>
0

>  <SCORE.RESTR.CAVITY>
0

>  <SCORE.RESTR.norm>
0

>  <SCORE.SYSTEM>
0

>  <SCORE.SYSTEM.CONST>
0

>  <SCORE.SYSTEM.DIHEDRAL>
0

>  <SCORE.SYSTEM.SOLV>
0

>  <SCORE.SYSTEM.norm>
0

>  <SCORE.heavy>
14

>  <SCORE.norm>
-0.554144

>  <RMSD>
6.611

$$$$
ligand
 OpenBabel11021811493D
libRbt.so/2013.1/901 2013/11/27
 14 13  0  0  0  0  0  0  0  0999 V2000
   49.5367    0.6787  -10.1015 N   0  0  0  0  0  0  0  0  0  0  0  0
   48.9293   -0.0220   -8.9914 C   0  0  0  0  0  0  0  0  0  0  0  0
   49.9899   -0.2443   -7.8935 C   0  0  0  0  0  0  0  0  0  0  0  0
   49.4476   -0.9349   -6.6326 C   0  0  0  0  0  0  0  0  0  0  0  0
   50.4276   -1.1753   -5.5623 N   0  0  0  0  0  0  0  0  0  0  0  0
   50.9957   -0.1140   -4.7329 C   0  0  0  0  0  0  0  0  0  0  0  0
   51.2371   -0.5480   -3.2908 C   0  0  0  0  0  0  0  0  0  0  0  0
   51.8155    0.5604   -2.4051 C   0  0  0  0  0  0  0  0  0  0  0  0
   51.9483    0.1176   -0.9432 C   0  0  0  0  0  0  0  0  0  0  0  0
   52.5065    1.2138   -0.1543 N   0  0  0  0  0  0  0  0  0  0  0  0
   51.7123    2.2770    0.4640 C   0  0  0  0  0  0  0  0  0  0  0  0
   52.5533    3.2163    1.3397 C   0  0  0  0  0  0  0  0  0  0  0  0
   53.5653    4.0051    0.5023 C   0  0  0  0  0  0  0  0  0  0  0  0
   54.3463    4.8737    1.3781 N   0  0  0  0  0  0  0  0  0  0  0  0
  1  2  1  0  0  0  0
  2  3  1  0  0  0  0
  3  4  1  0  0  0  0
  4  5  1  0  0  0  0
  5  6  1  0  0  0  0
  6  7  1  0  0  0  0
  7  8  1  0  0  0  0
  8  9  1  0  0  0  0
  9 10  1  0  0  0  0
 10 11  1  0  0  0  0
 11 12  1  0  0  0  0
 12 13  1  0  0  0  0
 13 14  1  0  0  0  0
M  END
>  <CHROM.1>
177.73065839,179.59710134,71.44461933,144.40978610,-179.24732139,175.84937349
179.86381659,86.95725530,174.62165412,65.41782823,-179.54696125,51.35781378
0.99298874,-3.35872067,-2.70681430,1.18773924,2.31472221

>  <Name>
ligand

>  <RI>
0

>  <Rbt.Current_Directory>
/home/itssahil/PROJECTS/Mol_Feturizer/New_Systems/rnas/4FAW

>  <Rbt.Executable>
rbdock ($Id: //depot/dev/client3/rdock/2013.1/src/exe/rbdock.cxx#4 $)

>  <Rbt.Library>
libRbt.so (2013.1, Build901 2013/11/27)

>  <Rbt.Parameter_File>
/export/apps/rDock/src/rDock_2013.1_src/data/scripts/dock_solv.prm

>  <Rbt.Receptor>
prm/pocket_docking_7.prm

>  <SCORE>
-8.14343

>  <SCORE.INTER>
1.90213

>  <SCORE.INTER.CONST>
1

>  <SCORE.INTER.POLAR>
0

>  <SCORE.INTER.ROT>
11

>  <SCORE.INTER.SOLV>
5.97295

>  <SCORE.INTER.VDW>
-11.6562

>  <SCORE.INTER.norm>
0.135866

>  <SCORE.INTRA>
-10.0456

>  <SCORE.INTRA.DIHEDRAL>
-17.4889

>  <SCORE.INTRA.DIHEDRAL.0>
19.1003

>  <SCORE.INTRA.POLAR>
0

>  <SCORE.INTRA.POLAR.0>
0

>  <SCORE.INTRA.REPUL>
0

>  <SCORE.INTRA.REPUL.0>
0

>  <SCORE.INTRA.SOLV>
-1.1652

>  <SCORE.INTRA.SOLV.lig_0>
-47.5333

>  <SCORE.INTRA.VDW>
-0.718527

>  <SCORE.INTRA.VDW.0>
-0.287413

>  <SCORE.INTRA.norm>
-0.71754

>  <SCORE.RESTR>
0

>  <SCORE.RESTR.CAVITY>
0

>  <SCORE.RESTR.norm>
0

>  <SCORE.SYSTEM>
0

>  <SCORE.SYSTEM.CONST>
0

>  <SCORE.SYSTEM.DIHEDRAL>
0

>  <SCORE.SYSTEM.SOLV>
0

>  <SCORE.SYSTEM.norm>
0

>  <SCORE.heavy>
14

>  <SCORE.norm>
-0.581674

>  <RMSD>
6.629

$$$$
ligand
 OpenBabel11021811493D
libRbt.so/2013.1/901 2013/11/27
 14 13  0  0  0  0  0  0  0  0999 V2000
   51.2201   -0.4098  -10.0066 N   0  0  0  0  0  0  0  0  0  0  0  0
   52.4558   -0.8032   -9.3659 C   0  0  0  0  0  0  0  0  0  0  0  0
   52.6167   -0.0128   -8.0510 C   0  0  0  0  0  0  0  0  0  0  0  0
   51.5789   -0.3716   -6.9762 C   0  0  0  0  0  0  0  0  0  0  0  0
   51.7227    0.3255   -5.6890 N   0  0  0  0  0  0  0  0  0  0  0  0
   51.2823   -0.2346   -4.4125 C   0  0  0  0  0  0  0  0  0  0  0  0
   51.8094    0.5382   -3.2079 C   0  0  0  0  0  0  0  0  0  0  0  0
   51.5053   -0.1354   -1.8657 C   0  0  0  0  0  0  0  0  0  0  0  0
   52.1220    0.6269   -0.6870 C   0  0  0  0  0  0  0  0  0  0  0  0
   51.4331    1.9053   -0.5237 N   0  0  0  0  0  0  0  0  0  0  0  0
   51.8489    2.9570    0.4061 C   0  0  0  0  0  0  0  0  0  0  0  0
   52.9782    3.8338   -0.1527 C   0  0  0  0  0  0  0  0  0  0  0  0
   53.4011    4.9096    0.8530 C   0  0  0  0  0  0  0  0  0  0  0  0
   54.4529    5.7346    0.2662 N   0  0  0  0  0  0  0  0  0  0  0  0
  1  2  1  0  0  0  0
  2  3  1  0  0  0  0
  3  4  1  0  0  0  0
  4  5  1  0  0  0  0
  5  6  1  0  0  0  0
  6  7  1  0  0  0  0
  7  8  1  0  0  0  0
  8  9  1  0  0  0  0
  9 10  1  0  0  0  0
 10 11  1  0  0  0  0
 11 12  1  0  0  0  0
 12 13  1  0  0  0  0
 13 14  1  0  0  0  0
M  END
>  <CHROM.1>
67.05337080,178.00768027,-152.11364670,167.55219039,-172.70346835,176.60874383
68.73145229,-172.94895403,81.88769036,-179.19213264,-178.71799499,52.17336243
1.34716366,-3.52930746,-1.79179860,1.04180258,1.30946890

>  <Name>
ligand

>  <RI>
0

>  <Rbt.Current_Directory>
/home/itssahil/PROJECTS/Mol_Feturizer/New_Systems/rnas/4FAW

>  <Rbt.Executable>
rbdock ($Id: //depot/dev/client3/rdock/2013.1/src/exe/rbdock.cxx#4 $)

>  <Rbt.Library>
libRbt.so (2013.1, Build901 2013/11/27)

>  <Rbt.Parameter_File>
/export/apps/rDock/src/rDock_2013.1_src/data/scripts/dock_solv.prm

>  <Rbt.Receptor>
prm/pocket_docking_8.prm

>  <SCORE>
-8.46507

>  <SCORE.INTER>
1.21951

>  <SCORE.INTER.CONST>
1

>  <SCORE.INTER.POLAR>
0

>  <SCORE.INTER.ROT>
11

>  <SCORE.INTER.SOLV>
7.66415

>  <SCORE.INTER.VDW>
-12.675

>  <SCORE.INTER.norm>
0.0871079

>  <SCORE.INTRA>
-9.68458

>  <SCORE.INTRA.DIHEDRAL>
-17.3101

>  <SCORE.INTRA.DIHEDRAL.0>
19.1003

>  <SCORE.INTRA.POLAR>
0

>  <SCORE.INTRA.POLAR.0>
0

>  <SCORE.INTRA.REPUL>
0

>  <SCORE.INTRA.REPUL.0>
0

>  <SCORE.INTRA.SOLV>
-0.47022

>  <SCORE.INTRA.SOLV.lig_0>
-47.5333

>  <SCORE.INTRA.VDW>
-0.794417

>  <SCORE.INTRA.VDW.0>
-0.287413

>  <SCORE.INTRA.norm>
-0.691756

>  <SCORE.RESTR>
0

>  <SCORE.RESTR.CAVITY>
0

>  <SCORE.RESTR.norm>
0

>  <SCORE.SYSTEM>
0

>  <SCORE.SYSTEM.CONST>
0

>  <SCORE.SYSTEM.DIHEDRAL>
0

>  <SCORE.SYSTEM.SOLV>
0

>  <SCORE.SYSTEM.norm>
0

>  <SCORE.heavy>
14

>  <SCORE.norm>
-0.604648

>  <RMSD>
6.658

$$$$
ligand
 OpenBabel11021811493D
libRbt.so/2013.1/901 2013/11/27
 14 13  0  0  0  0  0  0  0  0999 V2000
   47.0023   -2.5536   -8.9946 N   0  0  0  0  0  0  0  0  0  0  0  0
   46.7990   -1.8909   -7.7251 C   0  0  0  0  0  0  0  0  0  0  0  0
   48.0657   -2.0567   -6.8605 C   0  0  0  0  0  0  0  0  0  0  0  0
   47.9817   -1.3647   -5.4911 C   0  0  0  0  0  0  0  0  0  0  0  0
   49.1254   -1.5824   -4.5922 N   0  0  0  0  0  0  0  0  0  0  0  0
   50.1189   -0.5551   -4.2846 C   0  0  0  0  0  0  0  0  0  0  0  0
   50.8222   -0.7852   -2.9509 C   0  0  0  0  0  0  0  0  0  0  0  0
   51.6475    0.4156   -2.4771 C   0  0  0  0  0  0  0  0  0  0  0  0
   52.0940    0.2666   -1.0179 C   0  0  0  0  0  0  0  0  0  0  0  0
   52.7391    1.5028   -0.5805 N   0  0  0  0  0  0  0  0  0  0  0  0
   53.2679    1.7292    0.7658 C   0  0  0  0  0  0  0  0  0  0  0  0
   54.0057    3.0687    0.8985 C   0  0  0  0  0  0  0  0  0  0  0  0
   54.5197    3.2853    2.3256 C   0  0  0  0  0  0  0  0  0  0  0  0
   55.2040    4.5725    2.4038 N   0  0  0  0  0  0  0  0  0  0  0  0
  1  2  1  0  0  0  0
  2  3  1  0  0  0  0
  3  4  1  0  0  0  0
  4  5  1  0  0  0  0
  5  6  1  0  0  0  0
  6  7  1  0  0  0  0
  7  8  1  0  0  0  0
  8  9  1  0  0  0  0
  9 10  1  0  0  0  0
 10 11  1  0  0  0  0
 11 12  1  0  0  0  0
 12 13  1  0  0  0  0
 13 14  1  0  0  0  0
M  END
>  <CHROM.1>
178.73793920,175.50321387,107.53926624,155.70787117,-168.12223428,168.02929720
-173.50910829,178.80623141,174.62348583,178.81958624,-179.60895440,50.95664454
0.28935519,-2.75570892,3.02932148,0.98527669,2.74550504

>  <Name>
ligand

>  <RI>
0

>  <Rbt.Current_Directory>
/home/itssahil/PROJECTS/Mol_Feturizer/New_Systems/rnas/4FAW

>  <Rbt.Executable>
rbdock ($Id: //depot/dev/client3/rdock/2013.1/src/exe/rbdock.cxx#4 $)

>  <Rbt.Library>
libRbt.so (2013.1, Build901 2013/11/27)

>  <Rbt.Parameter_File>
/export/apps/rDock/src/rDock_2013.1_src/data/scripts/dock_solv.prm

>  <Rbt.Receptor>
prm/pocket_docking_8.prm

>  <SCORE>
-9.64143

>  <SCORE.INTER>
0.184645

>  <SCORE.INTER.CONST>
1

>  <SCORE.INTER.POLAR>
0

>  <SCORE.INTER.ROT>
11

>  <SCORE.INTER.SOLV>
9.45009

>  <SCORE.INTER.VDW>
-13.9603

>  <SCORE.INTER.norm>
0.0131889

>  <SCORE.INTRA>
-9.82607

>  <SCORE.INTRA.DIHEDRAL>
-16.2311

>  <SCORE.INTRA.DIHEDRAL.0>
19.1003

>  <SCORE.INTRA.POLAR>
0

>  <SCORE.INTRA.POLAR.0>
0

>  <SCORE.INTRA.REPUL>
0

>  <SCORE.INTRA.REPUL.0>
0

>  <SCORE.INTRA.SOLV>
-1.50356

>  <SCORE.INTRA.SOLV.lig_0>
-47.5333

>  <SCORE.INTRA.VDW>
-0.958731

>  <SCORE.INTRA.VDW.0>
-0.287413

>  <SCORE.INTRA.norm>
-0.701862

>  <SCORE.RESTR>
0

>  <SCORE.RESTR.CAVITY>
0

>  <SCORE.RESTR.norm>
0

>  <SCORE.SYSTEM>
0

>  <SCORE.SYSTEM.CONST>
0

>  <SCORE.SYSTEM.DIHEDRAL>
0

>  <SCORE.SYSTEM.SOLV>
0

>  <SCORE.SYSTEM.norm>
0

>  <SCORE.heavy>
14

>  <SCORE.norm>
-0.688673

>  <RMSD>
6.663

$$$$
ligand
 OpenBabel11021811493D
libRbt.so/2013.1/901 2013/11/27
 14 13  0  0  0  0  0  0  0  0999 V2000
   53.4622    2.2844    1.4415 N   0  0  0  0  0  0  0  0  0  0  0  0
   52.1085    2.6700    1.1084 C   0  0  0  0  0  0  0  0  0  0  0  0
   51.9030    2.5276   -0.4138 C   0  0  0  0  0  0  0  0  0  0  0  0
   51.9120    1.0739   -0.9116 C   0  0  0  0  0  0  0  0  0  0  0  0
   51.7575    0.8930   -2.3632 N   0  0  0  0  0  0  0  0  0  0  0  0
   51.3426   -0.3649   -2.9815 C   0  0  0  0  0  0  0  0  0  0  0  0
   51.5487   -0.3838   -4.4926 C   0  0  0  0  0  0  0  0  0  0  0  0
   50.7105    0.6589   -5.2394 C   0  0  0  0  0  0  0  0  0  0  0  0
   50.7975    0.4846   -6.7602 C   0  0  0  0  0  0  0  0  0  0  0  0
   52.1886    0.6268   -7.1849 N   0  0  0  0  0  0  0  0  0  0  0  0
   52.8496    1.9081   -7.4394 C   0  0  0  0  0  0  0  0  0  0  0  0
   54.0596    2.1460   -6.5252 C   0  0  0  0  0  0  0  0  0  0  0  0
   54.6896    3.5197   -6.7772 C   0  0  0  0  0  0  0  0  0  0  0  0
   53.7410    4.5639   -6.4016 N   0  0  0  0  0  0  0  0  0  0  0  0
  1  2  1  0  0  0  0
  2  3  1  0  0  0  0
  3  4  1  0  0  0  0
  4  5  1  0  0  0  0
  5  6  1  0  0  0  0
  6  7  1  0  0  0  0
  7  8  1  0  0  0  0
  8  9  1  0  0  0  0
  9 10  1  0  0  0  0
 10 11  1  0  0  0  0
 11 12  1  0  0  0  0
 12 13  1  0  0  0  0
 13 14  1  0  0  0  0
M  END
>  <CHROM.1>
68.53150309,-178.33246448,-160.88688208,-167.52395858,-63.13820576,-172.21551873
-60.02465721,-83.44384295,119.37396877,-177.55850669,65.13733287,52.36203307
1.61467058,-3.92446157,-1.69477838,-0.89778005,-1.66612058

>  <Name>
ligand

>  <RI>
0

>  <Rbt.Current_Directory>
/home/itssahil/PROJECTS/Mol_Feturizer/New_Systems/rnas/4FAW

>  <Rbt.Executable>
rbdock ($Id: //depot/dev/client3/rdock/2013.1/src/exe/rbdock.cxx#4 $)

>  <Rbt.Library>
libRbt.so (2013.1, Build901 2013/11/27)

>  <Rbt.Parameter_File>
/export/apps/rDock/src/rDock_2013.1_src/data/scripts/dock_solv.prm

>  <Rbt.Receptor>
prm/pocket_docking_5.prm

>  <SCORE>
-7.61597

>  <SCORE.INTER>
0.991855

>  <SCORE.INTER.CONST>
1

>  <SCORE.INTER.POLAR>
0

>  <SCORE.INTER.ROT>
11

>  <SCORE.INTER.SOLV>
7.60716

>  <SCORE.INTER.VDW>
-12.8078

>  <SCORE.INTER.norm>
0.0708468

>  <SCORE.INTRA>
-8.60783

>  <SCORE.INTRA.DIHEDRAL>
-16.4119

>  <SCORE.INTRA.DIHEDRAL.0>
19.1003

>  <SCORE.INTRA.POLAR>
0

>  <SCORE.INTRA.POLAR.0>
0

>  <SCORE.INTRA.REPUL>
0

>  <SCORE.INTRA.REPUL.0>
0

>  <SCORE.INTRA.SOLV>
0.718223

>  <SCORE.INTRA.SOLV.lig_0>
-47.5333

>  <SCORE.INTRA.VDW>
-0.760994

>  <SCORE.INTRA.VDW.0>
-0.287413

>  <SCORE.INTRA.norm>
-0.614845

>  <SCORE.RESTR>
0

>  <SCORE.RESTR.CAVITY>
0

>  <SCORE.RESTR.norm>
0

>  <SCORE.SYSTEM>
0

>  <SCORE.SYSTEM.CONST>
0

>  <SCORE.SYSTEM.DIHEDRAL>
0

>  <SCORE.SYSTEM.SOLV>
0

>  <SCORE.SYSTEM.norm>
0

>  <SCORE.heavy>
14

>  <SCORE.norm>
-0.543998

>  <RMSD>
6.688

$$$$
ligand
 OpenBabel11021811493D
libRbt.so/2013.1/901 2013/11/27
 14 13  0  0  0  0  0  0  0  0999 V2000
   51.1270    1.3420   -9.3981 N   0  0  0  0  0  0  0  0  0  0  0  0
   52.3939    0.6862   -9.1594 C   0  0  0  0  0  0  0  0  0  0  0  0
   52.2279   -0.3301   -8.0109 C   0  0  0  0  0  0  0  0  0  0  0  0
   51.7938    0.2996   -6.6782 C   0  0  0  0  0  0  0  0  0  0  0  0
   51.5768   -0.6392   -5.5668 N   0  0  0  0  0  0  0  0  0  0  0  0
   50.4157   -0.5881   -4.6801 C   0  0  0  0  0  0  0  0  0  0  0  0
   50.7843   -0.7183   -3.2058 C   0  0  0  0  0  0  0  0  0  0  0  0
   51.6578    0.4289   -2.6880 C   0  0  0  0  0  0  0  0  0  0  0  0
   51.8956    0.3334   -1.1763 C   0  0  0  0  0  0  0  0  0  0  0  0
   52.6194    1.5197   -0.7242 N   0  0  0  0  0  0  0  0  0  0  0  0
   52.6898    1.9659    0.6684 C   0  0  0  0  0  0  0  0  0  0  0  0
   51.3959    2.6413    1.1437 C   0  0  0  0  0  0  0  0  0  0  0  0
   51.4918    3.0619    2.6139 C   0  0  0  0  0  0  0  0  0  0  0  0
   50.2595    3.7398    3.0051 N   0  0  0  0  0  0  0  0  0  0  0  0
  1  2  1  0  0  0  0
  2  3  1  0  0  0  0
  3  4  1  0  0  0  0
  4  5  1  0  0  0  0
  5  6  1  0  0  0  0
  6  7  1  0  0  0  0
  7  8  1  0  0  0  0
  8  9  1  0  0  0  0
  9 10  1  0  0  0  0
 10 11  1  0  0  0  0
 11 12  1  0  0  0  0
 12 13  1  0  0  0  0
 13 14  1  0  0  0  0
M  END
>  <CHROM.1>
-60.65279802,177.90853005,-134.32156920,-134.01888856,63.33664850,174.56717544
-174.45128672,161.73751829,-75.99385101,178.50433195,178.00649583,51.59502409
0.98143647,-3.13260275,-1.28813133,1.47810026,1.04706625

>  <Name>
ligand

>  <RI>
0

>  <Rbt.Current_Directory>
/home/itssahil/PROJECTS/Mol_Feturizer/New_Systems/rnas/4FAW

>  <Rbt.Executable>
rbdock ($Id: //depot/dev/client3/rdock/2013.1/src/exe/rbdock.cxx#4 $)

>  <Rbt.Library>
libRbt.so (2013.1, Build901 2013/11/27)

>  <Rbt.Parameter_File>
/export/apps/rDock/src/rDock_2013.1_src/data/scripts/dock_solv.prm

>  <Rbt.Receptor>
prm/pocket_docking_6.prm

>  <SCORE>
-8.84936

>  <SCORE.INTER>
0.23015

>  <SCORE.INTER.CONST>
1

>  <SCORE.INTER.POLAR>
0

>  <SCORE.INTER.ROT>
11

>  <SCORE.INTER.SOLV>
8.53607

>  <SCORE.INTER.VDW>
-13.6253

>  <SCORE.INTER.norm>
0.0164393

>  <SCORE.INTRA>
-9.07951

>  <SCORE.INTRA.DIHEDRAL>
-16.2411

>  <SCORE.INTRA.DIHEDRAL.0>
19.1003

>  <SCORE.INTRA.POLAR>
0

>  <SCORE.INTRA.POLAR.0>
0

>  <SCORE.INTRA.REPUL>
0

>  <SCORE.INTRA.REPUL.0>
0

>  <SCORE.INTRA.SOLV>
-0.360786

>  <SCORE.INTRA.SOLV.lig_0>
-47.5333

>  <SCORE.INTRA.VDW>
-0.778568

>  <SCORE.INTRA.VDW.0>
-0.287413

>  <SCORE.INTRA.norm>
-0.648536

>  <SCORE.RESTR>
0

>  <SCORE.RESTR.CAVITY>
0

>  <SCORE.RESTR.norm>
0

>  <SCORE.SYSTEM>
0

>  <SCORE.SYSTEM.CONST>
0

>  <SCORE.SYSTEM.DIHEDRAL>
0

>  <SCORE.SYSTEM.SOLV>
0

>  <SCORE.SYSTEM.norm>
0

>  <SCORE.heavy>
14

>  <SCORE.norm>
-0.632097

>  <RMSD>
6.713

$$$$
ligand
 OpenBabel11021811493D
libRbt.so/2013.1/901 2013/11/27
 14 13  0  0  0  0  0  0  0  0999 V2000
   53.9836    4.8410   -4.0561 N   0  0  0  0  0  0  0  0  0  0  0  0
   53.7446    3.4334   -4.2881 C   0  0  0  0  0  0  0  0  0  0  0  0
   52.7089    2.9219   -3.2658 C   0  0  0  0  0  0  0  0  0  0  0  0
   53.2091    2.9304   -1.8130 C   0  0  0  0  0  0  0  0  0  0  0  0
   52.2907    2.3593   -0.8160 N   0  0  0  0  0  0  0  0  0  0  0  0
   52.3314    0.9628   -0.3857 C   0  0  0  0  0  0  0  0  0  0  0  0
   51.4160    0.0588   -1.2048 C   0  0  0  0  0  0  0  0  0  0  0  0
   51.8030   -0.0273   -2.6848 C   0  0  0  0  0  0  0  0  0  0  0  0
   50.7317   -0.7398   -3.5188 C   0  0  0  0  0  0  0  0  0  0  0  0
   51.0602   -0.6150   -4.9373 N   0  0  0  0  0  0  0  0  0  0  0  0
   51.0504    0.6457   -5.6815 C   0  0  0  0  0  0  0  0  0  0  0  0
   52.0346    0.6497   -6.8595 C   0  0  0  0  0  0  0  0  0  0  0  0
   52.0479    2.0056   -7.5729 C   0  0  0  0  0  0  0  0  0  0  0  0
   52.9699    1.9491   -8.7034 N   0  0  0  0  0  0  0  0  0  0  0  0
  1  2  1  0  0  0  0
  2  3  1  0  0  0  0
  3  4  1  0  0  0  0
  4  5  1  0  0  0  0
  5  6  1  0  0  0  0
  6  7  1  0  0  0  0
  7  8  1  0  0  0  0
  8  9  1  0  0  0  0
  9 10  1  0  0  0  0
 10 11  1  0  0  0  0
 11 12  1  0  0  0  0
 12 13  1  0  0  0  0
 13 14  1  0  0  0  0
M  END
>  <CHROM.1>
-66.53325726,-175.70662183,93.15563429,-91.82360072,63.18305696,-170.07755420
171.62566273,-66.82534793,151.78283371,-177.22054423,-178.53038084,52.24144227
1.52658066,-3.98457761,-1.55149886,1.04465995,1.57767570

>  <Name>
ligand

>  <RI>
0

>  <Rbt.Current_Directory>
/home/itssahil/PROJECTS/Mol_Feturizer/New_Systems/rnas/4FAW

>  <Rbt.Executable>
rbdock ($Id: //depot/dev/client3/rdock/2013.1/src/exe/rbdock.cxx#4 $)

>  <Rbt.Library>
libRbt.so (2013.1, Build901 2013/11/27)

>  <Rbt.Parameter_File>
/export/apps/rDock/src/rDock_2013.1_src/data/scripts/dock_solv.prm

>  <Rbt.Receptor>
prm/pocket_docking_8.prm

>  <SCORE>
-7.01044

>  <SCORE.INTER>
2.26567

>  <SCORE.INTER.CONST>
1

>  <SCORE.INTER.POLAR>
0

>  <SCORE.INTER.ROT>
11

>  <SCORE.INTER.SOLV>
7.33473

>  <SCORE.INTER.VDW>
-11.8678

>  <SCORE.INTER.norm>
0.161834

>  <SCORE.INTRA>
-9.27611

>  <SCORE.INTRA.DIHEDRAL>
-16.1926

>  <SCORE.INTRA.DIHEDRAL.0>
19.1003

>  <SCORE.INTRA.POLAR>
0

>  <SCORE.INTRA.POLAR.0>
0

>  <SCORE.INTRA.REPUL>
0

>  <SCORE.INTRA.REPUL.0>
0

>  <SCORE.INTRA.SOLV>
-0.253811

>  <SCORE.INTRA.SOLV.lig_0>
-47.5333

>  <SCORE.INTRA.VDW>
-1.05289

>  <SCORE.INTRA.VDW.0>
-0.287413

>  <SCORE.INTRA.norm>
-0.662579

>  <SCORE.RESTR>
0

>  <SCORE.RESTR.CAVITY>
0

>  <SCORE.RESTR.norm>
0

>  <SCORE.SYSTEM>
0

>  <SCORE.SYSTEM.CONST>
0

>  <SCORE.SYSTEM.DIHEDRAL>
0

>  <SCORE.SYSTEM.SOLV>
0

>  <SCORE.SYSTEM.norm>
0

>  <SCORE.heavy>
14

>  <SCORE.norm>
-0.500746

>  <RMSD>
6.725

$$$$
ligand
 OpenBabel11021811493D
libRbt.so/2013.1/901 2013/11/27
 14 13  0  0  0  0  0  0  0  0999 V2000
   51.7372    3.4165   -0.1475 N   0  0  0  0  0  0  0  0  0  0  0  0
   52.9002    2.6548   -0.5466 C   0  0  0  0  0  0  0  0  0  0  0  0
   52.7349    1.1958   -0.0738 C   0  0  0  0  0  0  0  0  0  0  0  0
   51.6825    0.3999   -0.8613 C   0  0  0  0  0  0  0  0  0  0  0  0
   52.0067    0.1287   -2.2702 N   0  0  0  0  0  0  0  0  0  0  0  0
   50.9973   -0.0974   -3.3031 C   0  0  0  0  0  0  0  0  0  0  0  0
   51.6001   -0.3782   -4.6757 C   0  0  0  0  0  0  0  0  0  0  0  0
   50.5547   -0.5327   -5.7851 C   0  0  0  0  0  0  0  0  0  0  0  0
   49.9998    0.8207   -6.2447 C   0  0  0  0  0  0  0  0  0  0  0  0
   49.2848    1.4519   -5.1374 N   0  0  0  0  0  0  0  0  0  0  0  0
   49.1025    2.8967   -4.9861 C   0  0  0  0  0  0  0  0  0  0  0  0
   48.5085    3.2827   -3.6244 C   0  0  0  0  0  0  0  0  0  0  0  0
   48.3709    4.8023   -3.4846 C   0  0  0  0  0  0  0  0  0  0  0  0
   49.6984    5.4096   -3.4701 N   0  0  0  0  0  0  0  0  0  0  0  0
  1  2  1  0  0  0  0
  2  3  1  0  0  0  0
  3  4  1  0  0  0  0
  4  5  1  0  0  0  0
  5  6  1  0  0  0  0
  6  7  1  0  0  0  0
  7  8  1  0  0  0  0
  8  9  1  0  0  0  0
  9 10  1  0  0  0  0
 10 11  1  0  0  0  0
 11 12  1  0  0  0  0
 12 13  1  0  0  0  0
 13 14  1  0  0  0  0
M  END
>  <CHROM.1>
71.81330136,67.13171338,-154.04072197,-179.08555307,-176.48690348,77.35258731
-64.06198918,153.73352526,-170.95145245,178.28832147,-65.83154424,50.65560496
1.81763345,-3.18663484,0.51360696,-0.89879324,0.71632000

>  <Name>
ligand

>  <RI>
0

>  <Rbt.Current_Directory>
/home/itssahil/PROJECTS/Mol_Feturizer/New_Systems/rnas/4FAW

>  <Rbt.Executable>
rbdock ($Id: //depot/dev/client3/rdock/2013.1/src/exe/rbdock.cxx#4 $)

>  <Rbt.Library>
libRbt.so (2013.1, Build901 2013/11/27)

>  <Rbt.Parameter_File>
/export/apps/rDock/src/rDock_2013.1_src/data/scripts/dock_solv.prm

>  <Rbt.Receptor>
prm/pocket_docking_4.prm

>  <SCORE>
-6.65662

>  <SCORE.INTER>
1.29145

>  <SCORE.INTER.CONST>
1

>  <SCORE.INTER.POLAR>
0

>  <SCORE.INTER.ROT>
11

>  <SCORE.INTER.SOLV>
10.9262

>  <SCORE.INTER.VDW>
-13.7144

>  <SCORE.INTER.norm>
0.0922461

>  <SCORE.INTRA>
-7.94818

>  <SCORE.INTRA.DIHEDRAL>
-15.9485

>  <SCORE.INTRA.DIHEDRAL.0>
19.1003

>  <SCORE.INTRA.POLAR>
0

>  <SCORE.INTRA.POLAR.0>
0

>  <SCORE.INTRA.REPUL>
0

>  <SCORE.INTRA.REPUL.0>
0

>  <SCORE.INTRA.SOLV>
1.83675

>  <SCORE.INTRA.SOLV.lig_0>
-47.5333

>  <SCORE.INTRA.VDW>
-0.892284

>  <SCORE.INTRA.VDW.0>
-0.287413

>  <SCORE.INTRA.norm>
-0.567727

>  <SCORE.RESTR>
0.000117715

>  <SCORE.RESTR.CAVITY>
0.000117715

>  <SCORE.RESTR.norm>
8.40824e-06

>  <SCORE.SYSTEM>
0

>  <SCORE.SYSTEM.CONST>
0

>  <SCORE.SYSTEM.DIHEDRAL>
0

>  <SCORE.SYSTEM.SOLV>
0

>  <SCORE.SYSTEM.norm>
0

>  <SCORE.heavy>
14

>  <SCORE.norm>
-0.475473

>  <RMSD>
6.756

$$$$
ligand
 OpenBabel11021811493D
libRbt.so/2013.1/901 2013/11/27
 14 13  0  0  0  0  0  0  0  0999 V2000
   51.5099   -0.8206  -10.0778 N   0  0  0  0  0  0  0  0  0  0  0  0
   52.3304    0.2088   -9.4785 C   0  0  0  0  0  0  0  0  0  0  0  0
   52.5478   -0.1230   -7.9878 C   0  0  0  0  0  0  0  0  0  0  0  0
   51.2612   -0.0959   -7.1482 C   0  0  0  0  0  0  0  0  0  0  0  0
   51.4287   -0.3588   -5.7107 N   0  0  0  0  0  0  0  0  0  0  0  0
   50.3112   -0.4999   -4.7790 C   0  0  0  0  0  0  0  0  0  0  0  0
   50.7585   -0.7881   -3.3496 C   0  0  0  0  0  0  0  0  0  0  0  0
   51.5509    0.3577   -2.7117 C   0  0  0  0  0  0  0  0  0  0  0  0
   51.8377    0.1020   -1.2274 C   0  0  0  0  0  0  0  0  0  0  0  0
   52.4488    1.2926   -0.6404 N   0  0  0  0  0  0  0  0  0  0  0  0
   51.7835    2.1782    0.3169 C   0  0  0  0  0  0  0  0  0  0  0  0
   52.7013    3.2957    0.8319 C   0  0  0  0  0  0  0  0  0  0  0  0
   51.9623    4.2246    1.8009 C   0  0  0  0  0  0  0  0  0  0  0  0
   51.6626    3.5003    3.0325 N   0  0  0  0  0  0  0  0  0  0  0  0
  1  2  1  0  0  0  0
  2  3  1  0  0  0  0
  3  4  1  0  0  0  0
  4  5  1  0  0  0  0
  5  6  1  0  0  0  0
  6  7  1  0  0  0  0
  7  8  1  0  0  0  0
  8  9  1  0  0  0  0
  9 10  1  0  0  0  0
 10 11  1  0  0  0  0
 11 12  1  0  0  0  0
 12 13  1  0  0  0  0
 13 14  1  0  0  0  0
M  END
>  <CHROM.1>
-64.69389132,-177.87488588,-173.97854948,179.19426828,64.80582435,173.19871552
-173.20411533,109.50192726,176.20035950,178.44977747,68.49381023,51.72103788
0.89096420,-3.36634673,-1.63271674,1.07808250,1.29588190

>  <Name>
ligand

>  <RI>
0

>  <Rbt.Current_Directory>
/home/itssahil/PROJECTS/Mol_Feturizer/New_Systems/rnas/4FAW

>  <Rbt.Executable>
rbdock ($Id: //depot/dev/client3/rdock/2013.1/src/exe/rbdock.cxx#4 $)

>  <Rbt.Library>
libRbt.so (2013.1, Build901 2013/11/27)

>  <Rbt.Parameter_File>
/export/apps/rDock/src/rDock_2013.1_src/data/scripts/dock_solv.prm

>  <Rbt.Receptor>
prm/pocket_docking_7.prm

>  <SCORE>
-8.65235

>  <SCORE.INTER>
0.52664

>  <SCORE.INTER.CONST>
1

>  <SCORE.INTER.POLAR>
0

>  <SCORE.INTER.ROT>
11

>  <SCORE.INTER.SOLV>
7.55764

>  <SCORE.INTER.VDW>
-13.1015

>  <SCORE.INTER.norm>
0.0376172

>  <SCORE.INTRA>
-9.17899

>  <SCORE.INTRA.DIHEDRAL>
-17.1174

>  <SCORE.INTRA.DIHEDRAL.0>
19.1003

>  <SCORE.INTRA.POLAR>
0

>  <SCORE.INTRA.POLAR.0>
0

>  <SCORE.INTRA.REPUL>
0

>  <SCORE.INTRA.REPUL.0>
0

>  <SCORE.INTRA.SOLV>
0.250496

>  <SCORE.INTRA.SOLV.lig_0>
-47.5333

>  <SCORE.INTRA.VDW>
-0.74554

>  <SCORE.INTRA.VDW.0>
-0.287413

>  <SCORE.INTRA.norm>
-0.655642

>  <SCORE.RESTR>
0

>  <SCORE.RESTR.CAVITY>
0

>  <SCORE.RESTR.norm>
0

>  <SCORE.SYSTEM>
0

>  <SCORE.SYSTEM.CONST>
0

>  <SCORE.SYSTEM.DIHEDRAL>
0

>  <SCORE.SYSTEM.SOLV>
0

>  <SCORE.SYSTEM.norm>
0

>  <SCORE.heavy>
14

>  <SCORE.norm>
-0.618025

>  <RMSD>
6.797

$$$$
ligand
 OpenBabel11021811493D
libRbt.so/2013.1/901 2013/11/27
 14 13  0  0  0  0  0  0  0  0999 V2000
   51.5126    3.1684    0.7972 N   0  0  0  0  0  0  0  0  0  0  0  0
   52.7963    2.6830    0.3406 C   0  0  0  0  0  0  0  0  0  0  0  0
   52.6391    1.2317   -0.1579 C   0  0  0  0  0  0  0  0  0  0  0  0
   51.7584    1.0935   -1.4095 C   0  0  0  0  0  0  0  0  0  0  0  0
   51.5990   -0.2718   -1.9329 N   0  0  0  0  0  0  0  0  0  0  0  0
   50.9050   -0.5832   -3.1813 C   0  0  0  0  0  0  0  0  0  0  0  0
   51.6621   -0.1120   -4.4187 C   0  0  0  0  0  0  0  0  0  0  0  0
   50.9823   -0.4957   -5.7371 C   0  0  0  0  0  0  0  0  0  0  0  0
   51.7900   -0.0344   -6.9560 C   0  0  0  0  0  0  0  0  0  0  0  0
   51.8974    1.4230   -6.9422 N   0  0  0  0  0  0  0  0  0  0  0  0
   53.0223    2.1756   -7.5005 C   0  0  0  0  0  0  0  0  0  0  0  0
   54.2552    2.1699   -6.5861 C   0  0  0  0  0  0  0  0  0  0  0  0
   53.9511    2.8211   -5.2329 C   0  0  0  0  0  0  0  0  0  0  0  0
   53.6532    4.2363   -5.4325 N   0  0  0  0  0  0  0  0  0  0  0  0
  1  2  1  0  0  0  0
  2  3  1  0  0  0  0
  3  4  1  0  0  0  0
  4  5  1  0  0  0  0
  5  6  1  0  0  0  0
  6  7  1  0  0  0  0
  7  8  1  0  0  0  0
  8  9  1  0  0  0  0
  9 10  1  0  0  0  0
 10 11  1  0  0  0  0
 11 12  1  0  0  0  0
 12 13  1  0  0  0  0
 13 14  1  0  0  0  0
M  END
>  <CHROM.1>
65.77208656,179.03580746,-174.05692608,69.51030576,177.00269981,-178.61833422
-61.70091449,150.19442555,-77.96527423,-61.26649859,-65.07939715,52.31606326
1.39293638,-3.88232129,-1.76353623,-1.01014424,-1.77755949

>  <Name>
ligand

>  <RI>
0

>  <Rbt.Current_Directory>
/home/itssahil/PROJECTS/Mol_Feturizer/New_Systems/rnas/4FAW

>  <Rbt.Executable>
rbdock ($Id: //depot/dev/client3/rdock/2013.1/src/exe/rbdock.cxx#4 $)

>  <Rbt.Library>
libRbt.so (2013.1, Build901 2013/11/27)

>  <Rbt.Parameter_File>
/export/apps/rDock/src/rDock_2013.1_src/data/scripts/dock_solv.prm

>  <Rbt.Receptor>
prm/pocket_docking_7.prm

>  <SCORE>
-8.0994

>  <SCORE.INTER>
0.914768

>  <SCORE.INTER.CONST>
1

>  <SCORE.INTER.POLAR>
0

>  <SCORE.INTER.ROT>
11

>  <SCORE.INTER.SOLV>
9.0684

>  <SCORE.INTER.VDW>
-13.3463

>  <SCORE.INTER.norm>
0.0653405

>  <SCORE.INTRA>
-9.01416

>  <SCORE.INTRA.DIHEDRAL>
-17.8737

>  <SCORE.INTRA.DIHEDRAL.0>
19.1003

>  <SCORE.INTRA.POLAR>
0

>  <SCORE.INTRA.POLAR.0>
0

>  <SCORE.INTRA.REPUL>
0

>  <SCORE.INTRA.REPUL.0>
0

>  <SCORE.INTRA.SOLV>
1.36658

>  <SCORE.INTRA.SOLV.lig_0>
-47.5333

>  <SCORE.INTRA.VDW>
-0.760581

>  <SCORE.INTRA.VDW.0>
-0.287413

>  <SCORE.INTRA.norm>
-0.643869

>  <SCORE.RESTR>
0

>  <SCORE.RESTR.CAVITY>
0

>  <SCORE.RESTR.norm>
0

>  <SCORE.SYSTEM>
0

>  <SCORE.SYSTEM.CONST>
0

>  <SCORE.SYSTEM.DIHEDRAL>
0

>  <SCORE.SYSTEM.SOLV>
0

>  <SCORE.SYSTEM.norm>
0

>  <SCORE.heavy>
14

>  <SCORE.norm>
-0.578528

>  <RMSD>
6.810

$$$$
ligand
 OpenBabel11021811493D
libRbt.so/2013.1/901 2013/11/27
 14 13  0  0  0  0  0  0  0  0999 V2000
   54.1308    2.7912   -8.0471 N   0  0  0  0  0  0  0  0  0  0  0  0
   52.9050    2.1804   -8.5125 C   0  0  0  0  0  0  0  0  0  0  0  0
   52.6473    0.8892   -7.7089 C   0  0  0  0  0  0  0  0  0  0  0  0
   51.3342    0.1791   -8.0728 C   0  0  0  0  0  0  0  0  0  0  0  0
   51.0048   -1.0089   -7.2705 N   0  0  0  0  0  0  0  0  0  0  0  0
   50.4644   -0.9438   -5.9137 C   0  0  0  0  0  0  0  0  0  0  0  0
   51.4832   -0.4574   -4.8882 C   0  0  0  0  0  0  0  0  0  0  0  0
   50.9457   -0.4320   -3.4536 C   0  0  0  0  0  0  0  0  0  0  0  0
   51.9642    0.1533   -2.4682 C   0  0  0  0  0  0  0  0  0  0  0  0
   51.3696    0.2104   -1.1345 N   0  0  0  0  0  0  0  0  0  0  0  0
   51.4886    1.3500   -0.2231 C   0  0  0  0  0  0  0  0  0  0  0  0
   52.9463    1.6956    0.1112 C   0  0  0  0  0  0  0  0  0  0  0  0
   53.0395    2.9719    0.9540 C   0  0  0  0  0  0  0  0  0  0  0  0
   52.4460    2.7305    2.2658 N   0  0  0  0  0  0  0  0  0  0  0  0
  1  2  1  0  0  0  0
  2  3  1  0  0  0  0
  3  4  1  0  0  0  0
  4  5  1  0  0  0  0
  5  6  1  0  0  0  0
  6  7  1  0  0  0  0
  7  8  1  0  0  0  0
  8  9  1  0  0  0  0
  9 10  1  0  0  0  0
 10 11  1  0  0  0  0
 11 12  1  0  0  0  0
 12 13  1  0  0  0  0
 13 14  1  0  0  0  0
M  END
>  <CHROM.1>
177.47635753,-176.17415891,77.26259252,-70.42861252,-177.92735544,-176.02838135
177.25381560,-136.43475781,-58.40832038,174.45268985,66.60694523,52.01201730
0.87912378,-3.88314718,-1.60833604,0.92023740,1.45779001

>  <Name>
ligand

>  <RI>
0

>  <Rbt.Current_Directory>
/home/itssahil/PROJECTS/Mol_Feturizer/New_Systems/rnas/4FAW

>  <Rbt.Executable>
rbdock ($Id: //depot/dev/client3/rdock/2013.1/src/exe/rbdock.cxx#4 $)

>  <Rbt.Library>
libRbt.so (2013.1, Build901 2013/11/27)

>  <Rbt.Parameter_File>
/export/apps/rDock/src/rDock_2013.1_src/data/scripts/dock_solv.prm

>  <Rbt.Receptor>
prm/pocket_docking_7.prm

>  <SCORE>
-6.71841

>  <SCORE.INTER>
2.51919

>  <SCORE.INTER.CONST>
1

>  <SCORE.INTER.POLAR>
0

>  <SCORE.INTER.ROT>
11

>  <SCORE.INTER.SOLV>
9.95855

>  <SCORE.INTER.VDW>
-12.5734

>  <SCORE.INTER.norm>
0.179942

>  <SCORE.INTRA>
-9.2376

>  <SCORE.INTRA.DIHEDRAL>
-17.3219

>  <SCORE.INTRA.DIHEDRAL.0>
19.1003

>  <SCORE.INTRA.POLAR>
0

>  <SCORE.INTRA.POLAR.0>
0

>  <SCORE.INTRA.REPUL>
0

>  <SCORE.INTRA.REPUL.0>
0

>  <SCORE.INTRA.SOLV>
-0.779691

>  <SCORE.INTRA.SOLV.lig_0>
-47.5333

>  <SCORE.INTRA.VDW>
-0.186797

>  <SCORE.INTRA.VDW.0>
-0.287413

>  <SCORE.INTRA.norm>
-0.659828

>  <SCORE.RESTR>
0

>  <SCORE.RESTR.CAVITY>
0

>  <SCORE.RESTR.norm>
0

>  <SCORE.SYSTEM>
0

>  <SCORE.SYSTEM.CONST>
0

>  <SCORE.SYSTEM.DIHEDRAL>
0

>  <SCORE.SYSTEM.SOLV>
0

>  <SCORE.SYSTEM.norm>
0

>  <SCORE.heavy>
14

>  <SCORE.norm>
-0.479887

>  <RMSD>
6.833

$$$$
ligand
 OpenBabel11021811493D
libRbt.so/2013.1/901 2013/11/27
 14 13  0  0  0  0  0  0  0  0999 V2000
   52.5286    1.2240   -8.4921 N   0  0  0  0  0  0  0  0  0  0  0  0
   51.3985    1.9214   -7.9190 C   0  0  0  0  0  0  0  0  0  0  0  0
   50.9011    1.1460   -6.6818 C   0  0  0  0  0  0  0  0  0  0  0  0
   49.6970    1.7944   -5.9812 C   0  0  0  0  0  0  0  0  0  0  0  0
   49.2291    1.1228   -4.7591 N   0  0  0  0  0  0  0  0  0  0  0  0
   48.5842   -0.1891   -4.7538 C   0  0  0  0  0  0  0  0  0  0  0  0
   49.5581   -1.3318   -4.4857 C   0  0  0  0  0  0  0  0  0  0  0  0
   50.3616   -1.1627   -3.1921 C   0  0  0  0  0  0  0  0  0  0  0  0
   51.4964   -0.1437   -3.3492 C   0  0  0  0  0  0  0  0  0  0  0  0
   52.1456    0.0610   -2.0560 N   0  0  0  0  0  0  0  0  0  0  0  0
   51.6766    0.9977   -1.0333 C   0  0  0  0  0  0  0  0  0  0  0  0
   52.7879    1.4295   -0.0664 C   0  0  0  0  0  0  0  0  0  0  0  0
   52.2727    2.4419    0.9618 C   0  0  0  0  0  0  0  0  0  0  0  0
   51.9016    3.6784    0.2802 N   0  0  0  0  0  0  0  0  0  0  0  0
  1  2  1  0  0  0  0
  2  3  1  0  0  0  0
  3  4  1  0  0  0  0
  4  5  1  0  0  0  0
  5  6  1  0  0  0  0
  6  7  1  0  0  0  0
  7  8  1  0  0  0  0
  8  9  1  0  0  0  0
  9 10  1  0  0  0  0
 10 11  1  0  0  0  0
 11 12  1  0  0  0  0
 12 13  1  0  0  0  0
 13 14  1  0  0  0  0
M  END
>  <CHROM.1>
179.90658312,-177.21906956,-68.71279814,95.12679048,54.96183596,-76.83032256
174.95993489,-84.78601837,-156.84809052,178.21696881,-65.73266200,51.03833488
0.92759976,-3.68052864,-1.89395918,0.88919316,1.68746410

>  <Name>
ligand

>  <RI>
0

>  <Rbt.Current_Directory>
/home/itssahil/PROJECTS/Mol_Feturizer/New_Systems/rnas/4FAW

>  <Rbt.Executable>
rbdock ($Id: //depot/dev/client3/rdock/2013.1/src/exe/rbdock.cxx#4 $)

>  <Rbt.Library>
libRbt.so (2013.1, Build901 2013/11/27)

>  <Rbt.Parameter_File>
/export/apps/rDock/src/rDock_2013.1_src/data/scripts/dock_solv.prm

>  <Rbt.Receptor>
prm/pocket_docking_7.prm

>  <SCORE>
-7.20277

>  <SCORE.INTER>
1.02434

>  <SCORE.INTER.CONST>
1

>  <SCORE.INTER.POLAR>
0

>  <SCORE.INTER.ROT>
11

>  <SCORE.INTER.SOLV>
10.1268

>  <SCORE.INTER.VDW>
-13.6261

>  <SCORE.INTER.norm>
0.0731674

>  <SCORE.INTRA>
-8.22711

>  <SCORE.INTRA.DIHEDRAL>
-15.9833

>  <SCORE.INTRA.DIHEDRAL.0>
19.1003

>  <SCORE.INTRA.POLAR>
0

>  <SCORE.INTRA.POLAR.0>
0

>  <SCORE.INTRA.REPUL>
0

>  <SCORE.INTRA.REPUL.0>
0

>  <SCORE.INTRA.SOLV>
0.567855

>  <SCORE.INTRA.SOLV.lig_0>
-47.5333

>  <SCORE.INTRA.VDW>
-0.519414

>  <SCORE.INTRA.VDW.0>
-0.287413

>  <SCORE.INTRA.norm>
-0.587651

>  <SCORE.RESTR>
0

>  <SCORE.RESTR.CAVITY>
0

>  <SCORE.RESTR.norm>
0

>  <SCORE.SYSTEM>
0

>  <SCORE.SYSTEM.CONST>
0

>  <SCORE.SYSTEM.DIHEDRAL>
0

>  <SCORE.SYSTEM.SOLV>
0

>  <SCORE.SYSTEM.norm>
0

>  <SCORE.heavy>
14

>  <SCORE.norm>
-0.514484

>  <RMSD>
6.851

$$$$
ligand
 OpenBabel11021811493D
libRbt.so/2013.1/901 2013/11/27
 14 13  0  0  0  0  0  0  0  0999 V2000
   58.1498    2.5215    3.7367 N   0  0  0  0  0  0  0  0  0  0  0  0
   58.9774    3.3612    2.8988 C   0  0  0  0  0  0  0  0  0  0  0  0
   59.5387    2.5173    1.7359 C   0  0  0  0  0  0  0  0  0  0  0  0
   58.4594    1.9285    0.8142 C   0  0  0  0  0  0  0  0  0  0  0  0
   57.6235    0.8702    1.4014 N   0  0  0  0  0  0  0  0  0  0  0  0
   57.8586   -0.5569    1.1890 C   0  0  0  0  0  0  0  0  0  0  0  0
   58.7167   -1.1894    2.2798 C   0  0  0  0  0  0  0  0  0  0  0  0
   60.1908   -0.7763    2.2178 C   0  0  0  0  0  0  0  0  0  0  0  0
   60.9830   -1.2892    3.4262 C   0  0  0  0  0  0  0  0  0  0  0  0
   60.5635   -0.5634    4.6233 N   0  0  0  0  0  0  0  0  0  0  0  0
   61.4777   -0.0688    5.6544 C   0  0  0  0  0  0  0  0  0  0  0  0
   61.3619   -0.8437    6.9745 C   0  0  0  0  0  0  0  0  0  0  0  0
   62.2321   -0.2173    8.0690 C   0  0  0  0  0  0  0  0  0  0  0  0
   62.2117   -1.0719    9.2524 N   0  0  0  0  0  0  0  0  0  0  0  0
  1  2  1  0  0  0  0
  2  3  1  0  0  0  0
  3  4  1  0  0  0  0
  4  5  1  0  0  0  0
  5  6  1  0  0  0  0
  6  7  1  0  0  0  0
  7  8  1  0  0  0  0
  8  9  1  0  0  0  0
  9 10  1  0  0  0  0
 10 11  1  0  0  0  0
 11 12  1  0  0  0  0
 12 13  1  0  0  0  0
 13 14  1  0  0  0  0
M  END
>  <CHROM.1>
61.66276458,-69.28907320,-98.23494051,93.56609056,-72.08306737,172.88106388
-69.96983658,-137.89788696,-109.67736013,-174.56433245,-173.45575901,59.88187176
0.33007727,3.87631960,3.04708527,1.07092775,-2.71638910

>  <Name>
ligand

>  <RI>
0

>  <Rbt.Current_Directory>
/home/itssahil/PROJECTS/Mol_Feturizer/New_Systems/rnas/4FAW

>  <Rbt.Executable>
rbdock ($Id: //depot/dev/client3/rdock/2013.1/src/exe/rbdock.cxx#4 $)

>  <Rbt.Library>
libRbt.so (2013.1, Build901 2013/11/27)

>  <Rbt.Parameter_File>
/export/apps/rDock/src/rDock_2013.1_src/data/scripts/dock_solv.prm

>  <Rbt.Receptor>
prm/pocket_docking_7.prm

>  <SCORE>
-6.86687

>  <SCORE.INTER>
-0.111394

>  <SCORE.INTER.CONST>
1

>  <SCORE.INTER.POLAR>
0

>  <SCORE.INTER.ROT>
11

>  <SCORE.INTER.SOLV>
10.4183

>  <SCORE.INTER.VDW>
-14.4803

>  <SCORE.INTER.norm>
-0.00795669

>  <SCORE.INTRA>
-6.75548

>  <SCORE.INTRA.DIHEDRAL>
-13.7545

>  <SCORE.INTRA.DIHEDRAL.0>
19.1003

>  <SCORE.INTRA.POLAR>
0

>  <SCORE.INTRA.POLAR.0>
0

>  <SCORE.INTRA.REPUL>
0

>  <SCORE.INTRA.REPUL.0>
0

>  <SCORE.INTRA.SOLV>
3.50254

>  <SCORE.INTRA.SOLV.lig_0>
-47.5333

>  <SCORE.INTRA.VDW>
-1.62948

>  <SCORE.INTRA.VDW.0>
-0.287413

>  <SCORE.INTRA.norm>
-0.482534

>  <SCORE.RESTR>
0

>  <SCORE.RESTR.CAVITY>
0

>  <SCORE.RESTR.norm>
0

>  <SCORE.SYSTEM>
0

>  <SCORE.SYSTEM.CONST>
0

>  <SCORE.SYSTEM.DIHEDRAL>
0

>  <SCORE.SYSTEM.SOLV>
0

>  <SCORE.SYSTEM.norm>
0

>  <SCORE.heavy>
14

>  <SCORE.norm>
-0.490491

>  <RMSD>
6.869

$$$$
ligand
 OpenBabel11021811493D
libRbt.so/2013.1/901 2013/11/27
 14 13  0  0  0  0  0  0  0  0999 V2000
   50.7727    3.5537    2.7052 N   0  0  0  0  0  0  0  0  0  0  0  0
   51.8607    4.0280    1.8784 C   0  0  0  0  0  0  0  0  0  0  0  0
   52.5779    2.8181    1.2448 C   0  0  0  0  0  0  0  0  0  0  0  0
   51.7140    2.0337    0.2451 C   0  0  0  0  0  0  0  0  0  0  0  0
   52.3470    0.8509   -0.3582 N   0  0  0  0  0  0  0  0  0  0  0  0
   51.7419    0.0720   -1.4371 C   0  0  0  0  0  0  0  0  0  0  0  0
   51.9370    0.7039   -2.8115 C   0  0  0  0  0  0  0  0  0  0  0  0
   51.4520   -0.1779   -3.9668 C   0  0  0  0  0  0  0  0  0  0  0  0
   51.6790    0.4849   -5.3306 C   0  0  0  0  0  0  0  0  0  0  0  0
   51.3398   -0.4615   -6.3912 N   0  0  0  0  0  0  0  0  0  0  0  0
   51.8672   -0.3999   -7.7556 C   0  0  0  0  0  0  0  0  0  0  0  0
   51.1500    0.6422   -8.6250 C   0  0  0  0  0  0  0  0  0  0  0  0
   51.7214    0.6737  -10.0463 C   0  0  0  0  0  0  0  0  0  0  0  0
   53.0681    1.2365  -10.0146 N   0  0  0  0  0  0  0  0  0  0  0  0
  1  2  1  0  0  0  0
  2  3  1  0  0  0  0
  3  4  1  0  0  0  0
  4  5  1  0  0  0  0
  5  6  1  0  0  0  0
  6  7  1  0  0  0  0
  7  8  1  0  0  0  0
  8  9  1  0  0  0  0
  9 10  1  0  0  0  0
 10 11  1  0  0  0  0
 11 12  1  0  0  0  0
 12 13  1  0  0  0  0
 13 14  1  0  0  0  0
M  END
>  <CHROM.1>
65.99675755,-178.51097605,-172.81092009,80.61470108,173.31891195,-179.38119117
173.58895330,-156.40199745,-79.41688111,-179.67042575,-69.83646451,51.80202136
1.14695911,-3.61886382,-1.67599447,-1.43706402,-1.90024563

>  <Name>
ligand

>  <RI>
0

>  <Rbt.Current_Directory>
/home/itssahil/PROJECTS/Mol_Feturizer/New_Systems/rnas/4FAW

>  <Rbt.Executable>
rbdock ($Id: //depot/dev/client3/rdock/2013.1/src/exe/rbdock.cxx#4 $)

>  <Rbt.Library>
libRbt.so (2013.1, Build901 2013/11/27)

>  <Rbt.Parameter_File>
/export/apps/rDock/src/rDock_2013.1_src/data/scripts/dock_solv.prm

>  <Rbt.Receptor>
prm/pocket_docking_8.prm

>  <SCORE>
-6.46211

>  <SCORE.INTER>
2.78059

>  <SCORE.INTER.CONST>
1

>  <SCORE.INTER.POLAR>
0

>  <SCORE.INTER.ROT>
11

>  <SCORE.INTER.SOLV>
9.00571

>  <SCORE.INTER.VDW>
-12.0815

>  <SCORE.INTER.norm>
0.198614

>  <SCORE.INTRA>
-9.2427

>  <SCORE.INTRA.DIHEDRAL>
-17.23

>  <SCORE.INTRA.DIHEDRAL.0>
19.1003

>  <SCORE.INTRA.POLAR>
0

>  <SCORE.INTRA.POLAR.0>
0

>  <SCORE.INTRA.REPUL>
0

>  <SCORE.INTRA.REPUL.0>
0

>  <SCORE.INTRA.SOLV>
-0.107536

>  <SCORE.INTRA.SOLV.lig_0>
-47.5333

>  <SCORE.INTRA.VDW>
-0.573946

>  <SCORE.INTRA.VDW.0>
-0.287413

>  <SCORE.INTRA.norm>
-0.660193

>  <SCORE.RESTR>
0

>  <SCORE.RESTR.CAVITY>
0

>  <SCORE.RESTR.norm>
0

>  <SCORE.SYSTEM>
0

>  <SCORE.SYSTEM.CONST>
0

>  <SCORE.SYSTEM.DIHEDRAL>
0

>  <SCORE.SYSTEM.SOLV>
0

>  <SCORE.SYSTEM.norm>
0

>  <SCORE.heavy>
14

>  <SCORE.norm>
-0.461579

>  <RMSD>
6.871

$$$$
ligand
 OpenBabel11021811493D
libRbt.so/2013.1/901 2013/11/27
 14 13  0  0  0  0  0  0  0  0999 V2000
   62.5334   -5.7638    3.7310 N   0  0  0  0  0  0  0  0  0  0  0  0
   62.6698   -4.3557    3.4296 C   0  0  0  0  0  0  0  0  0  0  0  0
   61.9251   -4.0463    2.1146 C   0  0  0  0  0  0  0  0  0  0  0  0
   60.3969   -4.1687    2.2190 C   0  0  0  0  0  0  0  0  0  0  0  0
   59.7434   -3.2464    3.1602 N   0  0  0  0  0  0  0  0  0  0  0  0
   59.8568   -1.7913    3.0766 C   0  0  0  0  0  0  0  0  0  0  0  0
   58.6500   -1.1356    2.4132 C   0  0  0  0  0  0  0  0  0  0  0  0
   58.4540   -1.5487    0.9509 C   0  0  0  0  0  0  0  0  0  0  0  0
   57.4519   -0.6419    0.2267 C   0  0  0  0  0  0  0  0  0  0  0  0
   58.0718    0.6563   -0.0304 N   0  0  0  0  0  0  0  0  0  0  0  0
   57.9560    1.8184    0.8525 C   0  0  0  0  0  0  0  0  0  0  0  0
   59.1710    1.9892    1.7749 C   0  0  0  0  0  0  0  0  0  0  0  0
   58.9324    3.0870    2.8168 C   0  0  0  0  0  0  0  0  0  0  0  0
   60.0360    3.0958    3.7725 N   0  0  0  0  0  0  0  0  0  0  0  0
  1  2  1  0  0  0  0
  2  3  1  0  0  0  0
  3  4  1  0  0  0  0
  4  5  1  0  0  0  0
  5  6  1  0  0  0  0
  6  7  1  0  0  0  0
  7  8  1  0  0  0  0
  8  9  1  0  0  0  0
  9 10  1  0  0  0  0
 10 11  1  0  0  0  0
 11 12  1  0  0  0  0
 12 13  1  0  0  0  0
 13 14  1  0  0  0  0
M  END
>  <CHROM.1>
68.36157923,62.32369219,57.66929766,99.48200304,-63.17852144,-166.68649900
73.38693248,-93.61377479,98.28077183,-171.89620736,172.76774891,59.70329472
-1.14648854,2.17894567,-0.93749004,-0.76768218,0.26947712

>  <Name>
ligand

>  <RI>
0

>  <Rbt.Current_Directory>
/home/itssahil/PROJECTS/Mol_Feturizer/New_Systems/rnas/4FAW

>  <Rbt.Executable>
rbdock ($Id: //depot/dev/client3/rdock/2013.1/src/exe/rbdock.cxx#4 $)

>  <Rbt.Library>
libRbt.so (2013.1, Build901 2013/11/27)

>  <Rbt.Parameter_File>
/export/apps/rDock/src/rDock_2013.1_src/data/scripts/dock_solv.prm

>  <Rbt.Receptor>
prm/pocket_docking_6.prm

>  <SCORE>
-5.7519

>  <SCORE.INTER>
1.92926

>  <SCORE.INTER.CONST>
1

>  <SCORE.INTER.POLAR>
0

>  <SCORE.INTER.ROT>
11

>  <SCORE.INTER.SOLV>
16.6742

>  <SCORE.INTER.VDW>
-15.2052

>  <SCORE.INTER.norm>
0.137804

>  <SCORE.INTRA>
-7.68116

>  <SCORE.INTRA.DIHEDRAL>
-14.5214

>  <SCORE.INTRA.DIHEDRAL.0>
19.1003

>  <SCORE.INTRA.POLAR>
0

>  <SCORE.INTRA.POLAR.0>
0

>  <SCORE.INTRA.REPUL>
0

>  <SCORE.INTRA.REPUL.0>
0

>  <SCORE.INTRA.SOLV>
0.81908

>  <SCORE.INTRA.SOLV.lig_0>
-47.5333

>  <SCORE.INTRA.VDW>
-0.829979

>  <SCORE.INTRA.VDW.0>
-0.287413

>  <SCORE.INTRA.norm>
-0.548654

>  <SCORE.RESTR>
0

>  <SCORE.RESTR.CAVITY>
0

>  <SCORE.RESTR.norm>
0

>  <SCORE.SYSTEM>
0

>  <SCORE.SYSTEM.CONST>
0

>  <SCORE.SYSTEM.DIHEDRAL>
0

>  <SCORE.SYSTEM.SOLV>
0

>  <SCORE.SYSTEM.norm>
0

>  <SCORE.heavy>
14

>  <SCORE.norm>
-0.41085

>  <RMSD>
6.881

$$$$
ligand
 OpenBabel11021811493D
libRbt.so/2013.1/901 2013/11/27
 14 13  0  0  0  0  0  0  0  0999 V2000
   51.6168    5.2757    1.5884 N   0  0  0  0  0  0  0  0  0  0  0  0
   51.6521    3.8301    1.5545 C   0  0  0  0  0  0  0  0  0  0  0  0
   51.7137    3.3608    0.0863 C   0  0  0  0  0  0  0  0  0  0  0  0
   51.7248    1.8334   -0.0808 C   0  0  0  0  0  0  0  0  0  0  0  0
   51.6917    1.3404   -1.4662 N   0  0  0  0  0  0  0  0  0  0  0  0
   51.6238   -0.0767   -1.8187 C   0  0  0  0  0  0  0  0  0  0  0  0
   51.8056   -0.3298   -3.3118 C   0  0  0  0  0  0  0  0  0  0  0  0
   50.6048    0.1047   -4.1585 C   0  0  0  0  0  0  0  0  0  0  0  0
   50.7919   -0.2394   -5.6409 C   0  0  0  0  0  0  0  0  0  0  0  0
   51.8837    0.5620   -6.1898 N   0  0  0  0  0  0  0  0  0  0  0  0
   52.3580    0.4786   -7.5723 C   0  0  0  0  0  0  0  0  0  0  0  0
   52.7479    1.8455   -8.1518 C   0  0  0  0  0  0  0  0  0  0  0  0
   53.9104    2.4716   -7.3746 C   0  0  0  0  0  0  0  0  0  0  0  0
   54.2131    3.7866   -7.9319 N   0  0  0  0  0  0  0  0  0  0  0  0
  1  2  1  0  0  0  0
  2  3  1  0  0  0  0
  3  4  1  0  0  0  0
  4  5  1  0  0  0  0
  5  6  1  0  0  0  0
  6  7  1  0  0  0  0
  7  8  1  0  0  0  0
  8  9  1  0  0  0  0
  9 10  1  0  0  0  0
 10 11  1  0  0  0  0
 11 12  1  0  0  0  0
 12 13  1  0  0  0  0
 13 14  1  0  0  0  0
M  END
>  <CHROM.1>
-178.74598032,176.04373964,-176.58155583,-171.62299621,-71.89347022,-176.70304248
-66.65288963,178.81865911,142.18029012,62.34672593,-178.03472583,52.02403999
1.73124688,-3.60490003,-1.88354794,-1.11217444,-2.07119160

>  <Name>
ligand

>  <RI>
0

>  <Rbt.Current_Directory>
/home/itssahil/PROJECTS/Mol_Feturizer/New_Systems/rnas/4FAW

>  <Rbt.Executable>
rbdock ($Id: //depot/dev/client3/rdock/2013.1/src/exe/rbdock.cxx#4 $)

>  <Rbt.Library>
libRbt.so (2013.1, Build901 2013/11/27)

>  <Rbt.Parameter_File>
/export/apps/rDock/src/rDock_2013.1_src/data/scripts/dock_solv.prm

>  <Rbt.Receptor>
prm/pocket_docking_7.prm

>  <SCORE>
-8.35633

>  <SCORE.INTER>
1.47512

>  <SCORE.INTER.CONST>
1

>  <SCORE.INTER.POLAR>
0

>  <SCORE.INTER.ROT>
11

>  <SCORE.INTER.SOLV>
7.15564

>  <SCORE.INTER.VDW>
-12.3351

>  <SCORE.INTER.norm>
0.105366

>  <SCORE.INTRA>
-9.83145

>  <SCORE.INTRA.DIHEDRAL>
-17.3642

>  <SCORE.INTRA.DIHEDRAL.0>
19.1003

>  <SCORE.INTRA.POLAR>
0

>  <SCORE.INTRA.POLAR.0>
0

>  <SCORE.INTRA.REPUL>
0

>  <SCORE.INTRA.REPUL.0>
0

>  <SCORE.INTRA.SOLV>
-0.437701

>  <SCORE.INTRA.SOLV.lig_0>
-47.5333

>  <SCORE.INTRA.VDW>
-0.93048

>  <SCORE.INTRA.VDW.0>
-0.287413

>  <SCORE.INTRA.norm>
-0.702246

>  <SCORE.RESTR>
0

>  <SCORE.RESTR.CAVITY>
0

>  <SCORE.RESTR.norm>
0

>  <SCORE.SYSTEM>
0

>  <SCORE.SYSTEM.CONST>
0

>  <SCORE.SYSTEM.DIHEDRAL>
0

>  <SCORE.SYSTEM.SOLV>
0

>  <SCORE.SYSTEM.norm>
0

>  <SCORE.heavy>
14

>  <SCORE.norm>
-0.59688

>  <RMSD>
6.911

$$$$
ligand
 OpenBabel11021811493D
libRbt.so/2013.1/901 2013/11/27
 14 13  0  0  0  0  0  0  0  0999 V2000
   48.6041   -3.4802   -7.3701 N   0  0  0  0  0  0  0  0  0  0  0  0
   49.2476   -2.6933   -6.3411 C   0  0  0  0  0  0  0  0  0  0  0  0
   48.1686   -1.9633   -5.5149 C   0  0  0  0  0  0  0  0  0  0  0  0
   48.7351   -1.0475   -4.4189 C   0  0  0  0  0  0  0  0  0  0  0  0
   49.6439    0.0142   -4.8777 N   0  0  0  0  0  0  0  0  0  0  0  0
   51.1004   -0.1106   -4.8736 C   0  0  0  0  0  0  0  0  0  0  0  0
   51.7390    0.3940   -3.5837 C   0  0  0  0  0  0  0  0  0  0  0  0
   51.2464   -0.3347   -2.3291 C   0  0  0  0  0  0  0  0  0  0  0  0
   51.9753    0.1384   -1.0659 C   0  0  0  0  0  0  0  0  0  0  0  0
   51.6611    1.5450   -0.8240 N   0  0  0  0  0  0  0  0  0  0  0  0
   52.4884    2.4529   -0.0273 C   0  0  0  0  0  0  0  0  0  0  0  0
   52.2820    3.9278   -0.3992 C   0  0  0  0  0  0  0  0  0  0  0  0
   53.2271    4.8410    0.3886 C   0  0  0  0  0  0  0  0  0  0  0  0
   52.9050    4.7606    1.8102 N   0  0  0  0  0  0  0  0  0  0  0  0
  1  2  1  0  0  0  0
  2  3  1  0  0  0  0
  3  4  1  0  0  0  0
  4  5  1  0  0  0  0
  5  6  1  0  0  0  0
  6  7  1  0  0  0  0
  7  8  1  0  0  0  0
  8  9  1  0  0  0  0
  9 10  1  0  0  0  0
 10 11  1  0  0  0  0
 11 12  1  0  0  0  0
 12 13  1  0  0  0  0
 13 14  1  0  0  0  0
M  END
>  <CHROM.1>
-177.76227440,58.11659978,-95.94575302,-91.28228565,59.00759256,176.37024379
64.44444918,-157.89756959,155.95778487,-176.31456335,-64.34070251,50.93039261
0.60312533,-2.81618725,2.63704581,1.10912820,2.95226683

>  <Name>
ligand

>  <RI>
0

>  <Rbt.Current_Directory>
/home/itssahil/PROJECTS/Mol_Feturizer/New_Systems/rnas/4FAW

>  <Rbt.Executable>
rbdock ($Id: //depot/dev/client3/rdock/2013.1/src/exe/rbdock.cxx#4 $)

>  <Rbt.Library>
libRbt.so (2013.1, Build901 2013/11/27)

>  <Rbt.Parameter_File>
/export/apps/rDock/src/rDock_2013.1_src/data/scripts/dock_solv.prm

>  <Rbt.Receptor>
prm/pocket_docking_8.prm

>  <SCORE>
-9.29816

>  <SCORE.INTER>
-0.458576

>  <SCORE.INTER.CONST>
1

>  <SCORE.INTER.POLAR>
0

>  <SCORE.INTER.ROT>
11

>  <SCORE.INTER.SOLV>
6.77156

>  <SCORE.INTER.VDW>
-13.4962

>  <SCORE.INTER.norm>
-0.0327554

>  <SCORE.INTRA>
-8.83959

>  <SCORE.INTRA.DIHEDRAL>
-16.6138

>  <SCORE.INTRA.DIHEDRAL.0>
19.1003

>  <SCORE.INTRA.POLAR>
0

>  <SCORE.INTRA.POLAR.0>
0

>  <SCORE.INTRA.REPUL>
0

>  <SCORE.INTRA.REPUL.0>
0

>  <SCORE.INTRA.SOLV>
0.388822

>  <SCORE.INTRA.SOLV.lig_0>
-47.5333

>  <SCORE.INTRA.VDW>
-0.727107

>  <SCORE.INTRA.VDW.0>
-0.287413

>  <SCORE.INTRA.norm>
-0.631399

>  <SCORE.RESTR>
0

>  <SCORE.RESTR.CAVITY>
0

>  <SCORE.RESTR.norm>
0

>  <SCORE.SYSTEM>
0

>  <SCORE.SYSTEM.CONST>
0

>  <SCORE.SYSTEM.DIHEDRAL>
0

>  <SCORE.SYSTEM.SOLV>
0

>  <SCORE.SYSTEM.norm>
0

>  <SCORE.heavy>
14

>  <SCORE.norm>
-0.664154

>  <RMSD>
6.925

$$$$
ligand
 OpenBabel11021811493D
libRbt.so/2013.1/901 2013/11/27
 14 13  0  0  0  0  0  0  0  0999 V2000
   52.2679    0.7809   -9.2337 N   0  0  0  0  0  0  0  0  0  0  0  0
   52.1779   -0.1289   -8.1129 C   0  0  0  0  0  0  0  0  0  0  0  0
   50.8021    0.0386   -7.4358 C   0  0  0  0  0  0  0  0  0  0  0  0
   50.5894   -0.8763   -6.2197 C   0  0  0  0  0  0  0  0  0  0  0  0
   51.5289   -0.6871   -5.1038 N   0  0  0  0  0  0  0  0  0  0  0  0
   51.5987    0.5344   -4.3038 C   0  0  0  0  0  0  0  0  0  0  0  0
   51.6397    0.2637   -2.8034 C   0  0  0  0  0  0  0  0  0  0  0  0
   51.7695    1.5324   -1.9543 C   0  0  0  0  0  0  0  0  0  0  0  0
   51.7560    1.2232   -0.4526 C   0  0  0  0  0  0  0  0  0  0  0  0
   51.8195    2.4744    0.2998 N   0  0  0  0  0  0  0  0  0  0  0  0
   51.6676    2.5755    1.7525 C   0  0  0  0  0  0  0  0  0  0  0  0
   50.4521    3.4162    2.1672 C   0  0  0  0  0  0  0  0  0  0  0  0
   50.3001    3.4662    3.6910 C   0  0  0  0  0  0  0  0  0  0  0  0
   49.1148    4.2462    4.0342 N   0  0  0  0  0  0  0  0  0  0  0  0
  1  2  1  0  0  0  0
  2  3  1  0  0  0  0
  3  4  1  0  0  0  0
  4  5  1  0  0  0  0
  5  6  1  0  0  0  0
  6  7  1  0  0  0  0
  7  8  1  0  0  0  0
  8  9  1  0  0  0  0
  9 10  1  0  0  0  0
 10 11  1  0  0  0  0
 11 12  1  0  0  0  0
 12 13  1  0  0  0  0
 13 14  1  0  0  0  0
M  END
>  <CHROM.1>
-179.71920142,60.93440212,65.43346896,133.13562576,177.68659583,177.92269700
-177.36965412,172.45252939,-117.76656519,178.31753111,-178.57014279,51.24888851
1.34695468,-2.40533348,1.40618796,0.87782477,-1.76619179

>  <Name>
ligand

>  <RI>
0

>  <Rbt.Current_Directory>
/home/itssahil/PROJECTS/Mol_Feturizer/New_Systems/rnas/4FAW

>  <Rbt.Executable>
rbdock ($Id: //depot/dev/client3/rdock/2013.1/src/exe/rbdock.cxx#4 $)

>  <Rbt.Library>
libRbt.so (2013.1, Build901 2013/11/27)

>  <Rbt.Parameter_File>
/export/apps/rDock/src/rDock_2013.1_src/data/scripts/dock_solv.prm

>  <Rbt.Receptor>
prm/pocket_docking_8.prm

>  <SCORE>
-7.7117

>  <SCORE.INTER>
2.08355

>  <SCORE.INTER.CONST>
1

>  <SCORE.INTER.POLAR>
0

>  <SCORE.INTER.ROT>
11

>  <SCORE.INTER.SOLV>
8.9056

>  <SCORE.INTER.VDW>
-12.5128

>  <SCORE.INTER.norm>
0.148825

>  <SCORE.INTRA>
-9.79525

>  <SCORE.INTRA.DIHEDRAL>
-16.684

>  <SCORE.INTRA.DIHEDRAL.0>
19.1003

>  <SCORE.INTRA.POLAR>
0

>  <SCORE.INTRA.POLAR.0>
0

>  <SCORE.INTRA.REPUL>
0

>  <SCORE.INTRA.REPUL.0>
0

>  <SCORE.INTRA.SOLV>
-1.1878

>  <SCORE.INTRA.SOLV.lig_0>
-47.5333

>  <SCORE.INTRA.VDW>
-0.859351

>  <SCORE.INTRA.VDW.0>
-0.287413

>  <SCORE.INTRA.norm>
-0.699661

>  <SCORE.RESTR>
0

>  <SCORE.RESTR.CAVITY>
0

>  <SCORE.RESTR.norm>
0

>  <SCORE.SYSTEM>
0

>  <SCORE.SYSTEM.CONST>
0

>  <SCORE.SYSTEM.DIHEDRAL>
0

>  <SCORE.SYSTEM.SOLV>
0

>  <SCORE.SYSTEM.norm>
0

>  <SCORE.heavy>
14

>  <SCORE.norm>
-0.550835

>  <RMSD>
6.931

$$$$
ligand
 OpenBabel11021811493D
libRbt.so/2013.1/901 2013/11/27
 14 13  0  0  0  0  0  0  0  0999 V2000
   60.4423   -0.7214    9.2373 N   0  0  0  0  0  0  0  0  0  0  0  0
   60.9979   -1.4152    8.0962 C   0  0  0  0  0  0  0  0  0  0  0  0
   62.4069   -0.8594    7.8043 C   0  0  0  0  0  0  0  0  0  0  0  0
   63.1073   -1.5289    6.6117 C   0  0  0  0  0  0  0  0  0  0  0  0
   62.5366   -1.2374    5.2877 N   0  0  0  0  0  0  0  0  0  0  0  0
   61.2690   -1.7904    4.8141 C   0  0  0  0  0  0  0  0  0  0  0  0
   60.7970   -1.1656    3.5052 C   0  0  0  0  0  0  0  0  0  0  0  0
   59.4146   -1.6509    3.0570 C   0  0  0  0  0  0  0  0  0  0  0  0
   58.9979   -1.0390    1.7143 C   0  0  0  0  0  0  0  0  0  0  0  0
   57.6165   -1.4139    1.4195 N   0  0  0  0  0  0  0  0  0  0  0  0
   56.5855   -0.4811    0.9608 C   0  0  0  0  0  0  0  0  0  0  0  0
   55.1847   -0.8419    1.4746 C   0  0  0  0  0  0  0  0  0  0  0  0
   55.1106   -0.7584    3.0027 C   0  0  0  0  0  0  0  0  0  0  0  0
   55.3832    0.6118    3.4266 N   0  0  0  0  0  0  0  0  0  0  0  0
  1  2  1  0  0  0  0
  2  3  1  0  0  0  0
  3  4  1  0  0  0  0
  4  5  1  0  0  0  0
  5  6  1  0  0  0  0
  6  7  1  0  0  0  0
  7  8  1  0  0  0  0
  8  9  1  0  0  0  0
  9 10  1  0  0  0  0
 10 11  1  0  0  0  0
 11 12  1  0  0  0  0
 12 13  1  0  0  0  0
 13 14  1  0  0  0  0
M  END
>  <CHROM.1>
179.62270922,69.39336395,-72.96315081,170.98969393,-175.19936659,-177.96068049
-173.41726821,133.19729004,-146.78236233,63.31707160,61.80063949,59.27510959
-1.02096153,4.31493081,0.72956141,-0.20941732,1.44676876

>  <Name>
ligand

>  <RI>
0

>  <Rbt.Current_Directory>
/home/itssahil/PROJECTS/Mol_Feturizer/New_Systems/rnas/4FAW

>  <Rbt.Executable>
rbdock ($Id: //depot/dev/client3/rdock/2013.1/src/exe/rbdock.cxx#4 $)

>  <Rbt.Library>
libRbt.so (2013.1, Build901 2013/11/27)

>  <Rbt.Parameter_File>
/export/apps/rDock/src/rDock_2013.1_src/data/scripts/dock_solv.prm

>  <Rbt.Receptor>
prm/pocket_docking_8.prm

>  <SCORE>
-8.39908

>  <SCORE.INTER>
0.178314

>  <SCORE.INTER.CONST>
1

>  <SCORE.INTER.POLAR>
0

>  <SCORE.INTER.ROT>
11

>  <SCORE.INTER.SOLV>
11.9349

>  <SCORE.INTER.VDW>
-14.7928

>  <SCORE.INTER.norm>
0.0127367

>  <SCORE.INTRA>
-8.57739

>  <SCORE.INTRA.DIHEDRAL>
-16.4909

>  <SCORE.INTRA.DIHEDRAL.0>
19.1003

>  <SCORE.INTRA.POLAR>
0

>  <SCORE.INTRA.POLAR.0>
0

>  <SCORE.INTRA.REPUL>
0

>  <SCORE.INTRA.REPUL.0>
0

>  <SCORE.INTRA.SOLV>
1.00498

>  <SCORE.INTRA.SOLV.lig_0>
-47.5333

>  <SCORE.INTRA.VDW>
-0.834439

>  <SCORE.INTRA.VDW.0>
-0.287413

>  <SCORE.INTRA.norm>
-0.612671

>  <SCORE.RESTR>
0

>  <SCORE.RESTR.CAVITY>
0

>  <SCORE.RESTR.norm>
0

>  <SCORE.SYSTEM>
0

>  <SCORE.SYSTEM.CONST>
0

>  <SCORE.SYSTEM.DIHEDRAL>
0

>  <SCORE.SYSTEM.SOLV>
0

>  <SCORE.SYSTEM.norm>
0

>  <SCORE.heavy>
14

>  <SCORE.norm>
-0.599934

>  <RMSD>
6.989

$$$$
ligand
 OpenBabel11021811493D
libRbt.so/2013.1/901 2013/11/27
 14 13  0  0  0  0  0  0  0  0999 V2000
   60.0199    1.3136    6.1946 N   0  0  0  0  0  0  0  0  0  0  0  0
   59.3739    2.1967    5.2486 C   0  0  0  0  0  0  0  0  0  0  0  0
   59.7141    1.7377    3.8158 C   0  0  0  0  0  0  0  0  0  0  0  0
   59.1022    2.6193    2.7161 C   0  0  0  0  0  0  0  0  0  0  0  0
   59.3262    2.1675    1.3343 N   0  0  0  0  0  0  0  0  0  0  0  0
   58.4364    2.4960    0.2220 C   0  0  0  0  0  0  0  0  0  0  0  0
   57.3098    1.4841    0.0398 C   0  0  0  0  0  0  0  0  0  0  0  0
   57.7749    0.0265    0.1225 C   0  0  0  0  0  0  0  0  0  0  0  0
   57.8236   -0.4803    1.5688 C   0  0  0  0  0  0  0  0  0  0  0  0
   58.4707   -1.7902    1.6011 N   0  0  0  0  0  0  0  0  0  0  0  0
   59.5726   -2.1474    2.4964 C   0  0  0  0  0  0  0  0  0  0  0  0
   59.9768   -3.6239    2.3839 C   0  0  0  0  0  0  0  0  0  0  0  0
   61.0328   -3.9961    3.4299 C   0  0  0  0  0  0  0  0  0  0  0  0
   60.4589   -3.8644    4.7658 N   0  0  0  0  0  0  0  0  0  0  0  0
  1  2  1  0  0  0  0
  2  3  1  0  0  0  0
  3  4  1  0  0  0  0
  4  5  1  0  0  0  0
  5  6  1  0  0  0  0
  6  7  1  0  0  0  0
  7  8  1  0  0  0  0
  8  9  1  0  0  0  0
  9 10  1  0  0  0  0
 10 11  1  0  0  0  0
 11 12  1  0  0  0  0
 12 13  1  0  0  0  0
 13 14  1  0  0  0  0
M  END
>  <CHROM.1>
-178.92910606,-176.09571216,154.17348366,-89.02377258,-44.99142512,85.47787430
-171.06151231,129.41378666,175.46783165,-174.30568775,64.47249919,59.17076336
-0.13274441,2.56674299,-0.80573403,-1.14529958,0.37641705

>  <Name>
ligand

>  <RI>
0

>  <Rbt.Current_Directory>
/home/itssahil/PROJECTS/Mol_Feturizer/New_Systems/rnas/4FAW

>  <Rbt.Executable>
rbdock ($Id: //depot/dev/client3/rdock/2013.1/src/exe/rbdock.cxx#4 $)

>  <Rbt.Library>
libRbt.so (2013.1, Build901 2013/11/27)

>  <Rbt.Parameter_File>
/export/apps/rDock/src/rDock_2013.1_src/data/scripts/dock_solv.prm

>  <Rbt.Receptor>
prm/pocket_docking_4.prm

>  <SCORE>
-6.40739

>  <SCORE.INTER>
0.83768

>  <SCORE.INTER.CONST>
1

>  <SCORE.INTER.POLAR>
0

>  <SCORE.INTER.ROT>
11

>  <SCORE.INTER.SOLV>
10.24

>  <SCORE.INTER.VDW>
-13.7882

>  <SCORE.INTER.norm>
0.0598343

>  <SCORE.INTRA>
-7.24531

>  <SCORE.INTRA.DIHEDRAL>
-13.2085

>  <SCORE.INTRA.DIHEDRAL.0>
19.1003

>  <SCORE.INTRA.POLAR>
0

>  <SCORE.INTRA.POLAR.0>
0

>  <SCORE.INTRA.REPUL>
0

>  <SCORE.INTRA.REPUL.0>
0

>  <SCORE.INTRA.SOLV>
0.800773

>  <SCORE.INTRA.SOLV.lig_0>
-47.5333

>  <SCORE.INTRA.VDW>
-1.04145

>  <SCORE.INTRA.VDW.0>
-0.287413

>  <SCORE.INTRA.norm>
-0.517522

>  <SCORE.RESTR>
0.000237472

>  <SCORE.RESTR.CAVITY>
0.000237472

>  <SCORE.RESTR.norm>
1.69623e-05

>  <SCORE.SYSTEM>
0

>  <SCORE.SYSTEM.CONST>
0

>  <SCORE.SYSTEM.DIHEDRAL>
0

>  <SCORE.SYSTEM.SOLV>
0

>  <SCORE.SYSTEM.norm>
0

>  <SCORE.heavy>
14

>  <SCORE.norm>
-0.457671

>  <RMSD>
7.006

$$$$
ligand
 OpenBabel11021811493D
libRbt.so/2013.1/901 2013/11/27
 14 13  0  0  0  0  0  0  0  0999 V2000
   61.3755   -3.7312    8.8187 N   0  0  0  0  0  0  0  0  0  0  0  0
   61.0423   -2.3349    8.6410 C   0  0  0  0  0  0  0  0  0  0  0  0
   62.3412   -1.5027    8.6350 C   0  0  0  0  0  0  0  0  0  0  0  0
   62.1170    0.0025    8.4226 C   0  0  0  0  0  0  0  0  0  0  0  0
   61.3783    0.3747    7.2063 N   0  0  0  0  0  0  0  0  0  0  0  0
   61.1199    1.7575    6.8087 C   0  0  0  0  0  0  0  0  0  0  0  0
   60.8900    1.9144    5.3091 C   0  0  0  0  0  0  0  0  0  0  0  0
   59.6560    1.1651    4.7958 C   0  0  0  0  0  0  0  0  0  0  0  0
   59.6267    1.0864    3.2648 C   0  0  0  0  0  0  0  0  0  0  0  0
   59.5521    2.4372    2.7121 N   0  0  0  0  0  0  0  0  0  0  0  0
   59.4877    2.7442    1.2820 C   0  0  0  0  0  0  0  0  0  0  0  0
   58.1035    2.4731    0.6764 C   0  0  0  0  0  0  0  0  0  0  0  0
   58.0685    2.8183   -0.8160 C   0  0  0  0  0  0  0  0  0  0  0  0
   56.7249    2.5828   -1.3362 N   0  0  0  0  0  0  0  0  0  0  0  0
  1  2  1  0  0  0  0
  2  3  1  0  0  0  0
  3  4  1  0  0  0  0
  4  5  1  0  0  0  0
  5  6  1  0  0  0  0
  6  7  1  0  0  0  0
  7  8  1  0  0  0  0
  8  9  1  0  0  0  0
  9 10  1  0  0  0  0
 10 11  1  0  0  0  0
 11 12  1  0  0  0  0
 12 13  1  0  0  0  0
 13 14  1  0  0  0  0
M  END
>  <CHROM.1>
178.79182611,-56.00079196,-177.30718222,155.61082230,62.76620592,-167.45614732
-62.16492786,-179.07953097,75.72301231,179.42334693,-178.29965920,60.10611690
0.84212643,4.60154826,0.85027415,0.99781135,2.66301844

>  <Name>
ligand

>  <RI>
0

>  <Rbt.Current_Directory>
/home/itssahil/PROJECTS/Mol_Feturizer/New_Systems/rnas/4FAW

>  <Rbt.Executable>
rbdock ($Id: //depot/dev/client3/rdock/2013.1/src/exe/rbdock.cxx#4 $)

>  <Rbt.Library>
libRbt.so (2013.1, Build901 2013/11/27)

>  <Rbt.Parameter_File>
/export/apps/rDock/src/rDock_2013.1_src/data/scripts/dock_solv.prm

>  <Rbt.Receptor>
prm/pocket_docking_7.prm

>  <SCORE>
-11.2379

>  <SCORE.INTER>
-1.46104

>  <SCORE.INTER.CONST>
1

>  <SCORE.INTER.POLAR>
0

>  <SCORE.INTER.ROT>
11

>  <SCORE.INTER.SOLV>
9.90724

>  <SCORE.INTER.VDW>
-15.2098

>  <SCORE.INTER.norm>
-0.10436

>  <SCORE.INTRA>
-9.77682

>  <SCORE.INTRA.DIHEDRAL>
-17.7141

>  <SCORE.INTRA.DIHEDRAL.0>
19.1003

>  <SCORE.INTRA.POLAR>
0

>  <SCORE.INTRA.POLAR.0>
0

>  <SCORE.INTRA.REPUL>
0

>  <SCORE.INTRA.REPUL.0>
0

>  <SCORE.INTRA.SOLV>
-0.376379

>  <SCORE.INTRA.SOLV.lig_0>
-47.5333

>  <SCORE.INTRA.VDW>
-0.731582

>  <SCORE.INTRA.VDW.0>
-0.287413

>  <SCORE.INTRA.norm>
-0.698344

>  <SCORE.RESTR>
0

>  <SCORE.RESTR.CAVITY>
0

>  <SCORE.RESTR.norm>
0

>  <SCORE.SYSTEM>
0

>  <SCORE.SYSTEM.CONST>
0

>  <SCORE.SYSTEM.DIHEDRAL>
0

>  <SCORE.SYSTEM.SOLV>
0

>  <SCORE.SYSTEM.norm>
0

>  <SCORE.heavy>
14

>  <SCORE.norm>
-0.802704

>  <RMSD>
7.038

$$$$
ligand
 OpenBabel11021811493D
libRbt.so/2013.1/901 2013/11/27
 14 13  0  0  0  0  0  0  0  0999 V2000
   54.1673    5.0267   -1.7993 N   0  0  0  0  0  0  0  0  0  0  0  0
   53.8242    3.6262   -1.6847 C   0  0  0  0  0  0  0  0  0  0  0  0
   52.6149    3.4784   -0.7386 C   0  0  0  0  0  0  0  0  0  0  0  0
   52.1424    2.0283   -0.5514 C   0  0  0  0  0  0  0  0  0  0  0  0
   51.6855    1.3414   -1.7692 N   0  0  0  0  0  0  0  0  0  0  0  0
   51.7023   -0.1112   -1.9327 C   0  0  0  0  0  0  0  0  0  0  0  0
   50.9762   -0.5789   -3.1898 C   0  0  0  0  0  0  0  0  0  0  0  0
   51.5823   -0.0340   -4.4872 C   0  0  0  0  0  0  0  0  0  0  0  0
   50.8397   -0.5445   -5.7276 C   0  0  0  0  0  0  0  0  0  0  0  0
   51.4875   -0.0219   -6.9288 N   0  0  0  0  0  0  0  0  0  0  0  0
   51.1805    1.2735   -7.5380 C   0  0  0  0  0  0  0  0  0  0  0  0
   49.9389    1.2285   -8.4395 C   0  0  0  0  0  0  0  0  0  0  0  0
   49.6812    2.5844   -9.1049 C   0  0  0  0  0  0  0  0  0  0  0  0
   48.5186    2.4805   -9.9816 N   0  0  0  0  0  0  0  0  0  0  0  0
  1  2  1  0  0  0  0
  2  3  1  0  0  0  0
  3  4  1  0  0  0  0
  4  5  1  0  0  0  0
  5  6  1  0  0  0  0
  6  7  1  0  0  0  0
  7  8  1  0  0  0  0
  8  9  1  0  0  0  0
  9 10  1  0  0  0  0
 10 11  1  0  0  0  0
 11 12  1  0  0  0  0
 12 13  1  0  0  0  0
 13 14  1  0  0  0  0
M  END
>  <CHROM.1>
179.20730983,-61.19445611,155.00258983,170.88192325,60.83830934,179.05958559
-178.38303691,-86.77791716,-82.00278957,-177.64845832,178.25031516,51.45295966
1.55527934,-4.56216028,-0.45647318,-1.14635983,-0.65726241

>  <Name>
ligand

>  <RI>
0

>  <Rbt.Current_Directory>
/home/itssahil/PROJECTS/Mol_Feturizer/New_Systems/rnas/4FAW

>  <Rbt.Executable>
rbdock ($Id: //depot/dev/client3/rdock/2013.1/src/exe/rbdock.cxx#4 $)

>  <Rbt.Library>
libRbt.so (2013.1, Build901 2013/11/27)

>  <Rbt.Parameter_File>
/export/apps/rDock/src/rDock_2013.1_src/data/scripts/dock_solv.prm

>  <Rbt.Receptor>
prm/pocket_docking_7.prm

>  <SCORE>
-6.38158

>  <SCORE.INTER>
3.7224

>  <SCORE.INTER.CONST>
1

>  <SCORE.INTER.POLAR>
0

>  <SCORE.INTER.ROT>
11

>  <SCORE.INTER.SOLV>
6.16372

>  <SCORE.INTER.VDW>
-10.5063

>  <SCORE.INTER.norm>
0.265885

>  <SCORE.INTRA>
-10.104

>  <SCORE.INTRA.DIHEDRAL>
-17.6768

>  <SCORE.INTRA.DIHEDRAL.0>
19.1003

>  <SCORE.INTRA.POLAR>
0

>  <SCORE.INTRA.POLAR.0>
0

>  <SCORE.INTRA.REPUL>
0

>  <SCORE.INTRA.REPUL.0>
0

>  <SCORE.INTRA.SOLV>
-0.818799

>  <SCORE.INTRA.SOLV.lig_0>
-47.5333

>  <SCORE.INTRA.VDW>
-0.85616

>  <SCORE.INTRA.VDW.0>
-0.287413

>  <SCORE.INTRA.norm>
-0.721712

>  <SCORE.RESTR>
0

>  <SCORE.RESTR.CAVITY>
0

>  <SCORE.RESTR.norm>
0

>  <SCORE.SYSTEM>
0

>  <SCORE.SYSTEM.CONST>
0

>  <SCORE.SYSTEM.DIHEDRAL>
0

>  <SCORE.SYSTEM.SOLV>
0

>  <SCORE.SYSTEM.norm>
0

>  <SCORE.heavy>
14

>  <SCORE.norm>
-0.455827

>  <RMSD>
7.041

$$$$
ligand
 OpenBabel11021811493D
libRbt.so/2013.1/901 2013/11/27
 14 13  0  0  0  0  0  0  0  0999 V2000
   52.5765    0.7747   -7.4955 N   0  0  0  0  0  0  0  0  0  0  0  0
   52.0240   -0.4347   -8.0649 C   0  0  0  0  0  0  0  0  0  0  0  0
   50.5424   -0.1941   -8.4207 C   0  0  0  0  0  0  0  0  0  0  0  0
   49.6315    0.0049   -7.1992 C   0  0  0  0  0  0  0  0  0  0  0  0
   49.3558   -1.2005   -6.4027 N   0  0  0  0  0  0  0  0  0  0  0  0
   48.8479   -1.1654   -5.0324 C   0  0  0  0  0  0  0  0  0  0  0  0
   49.9550   -1.0690   -3.9877 C   0  0  0  0  0  0  0  0  0  0  0  0
   50.6923    0.2740   -3.9970 C   0  0  0  0  0  0  0  0  0  0  0  0
   51.9909    0.2227   -3.1834 C   0  0  0  0  0  0  0  0  0  0  0  0
   51.6956   -0.2401   -1.8291 N   0  0  0  0  0  0  0  0  0  0  0  0
   51.4559    0.6431   -0.6863 C   0  0  0  0  0  0  0  0  0  0  0  0
   52.6315    1.5902   -0.4085 C   0  0  0  0  0  0  0  0  0  0  0  0
   52.3379    2.5131    0.7788 C   0  0  0  0  0  0  0  0  0  0  0  0
   53.4752    3.4029    0.9935 N   0  0  0  0  0  0  0  0  0  0  0  0
  1  2  1  0  0  0  0
  2  3  1  0  0  0  0
  3  4  1  0  0  0  0
  4  5  1  0  0  0  0
  5  6  1  0  0  0  0
  6  7  1  0  0  0  0
  7  8  1  0  0  0  0
  8  9  1  0  0  0  0
  9 10  1  0  0  0  0
 10 11  1  0  0  0  0
 11 12  1  0  0  0  0
 12 13  1  0  0  0  0
 13 14  1  0  0  0  0
M  END
>  <CHROM.1>
-67.69545873,-72.34143577,162.01780835,-87.50490228,68.53046508,-166.48100043
-54.76318044,-95.01369356,-58.08219027,179.13395123,-179.34433274,51.22924155
0.36572056,-3.92403395,-1.88809751,0.63962045,1.44987146

>  <Name>
ligand

>  <RI>
0

>  <Rbt.Current_Directory>
/home/itssahil/PROJECTS/Mol_Feturizer/New_Systems/rnas/4FAW

>  <Rbt.Executable>
rbdock ($Id: //depot/dev/client3/rdock/2013.1/src/exe/rbdock.cxx#4 $)

>  <Rbt.Library>
libRbt.so (2013.1, Build901 2013/11/27)

>  <Rbt.Parameter_File>
/export/apps/rDock/src/rDock_2013.1_src/data/scripts/dock_solv.prm

>  <Rbt.Receptor>
prm/pocket_docking_6.prm

>  <SCORE>
-7.03003

>  <SCORE.INTER>
0.75315

>  <SCORE.INTER.CONST>
1

>  <SCORE.INTER.POLAR>
0

>  <SCORE.INTER.ROT>
11

>  <SCORE.INTER.SOLV>
8.97416

>  <SCORE.INTER.VDW>
-13.4226

>  <SCORE.INTER.norm>
0.0537964

>  <SCORE.INTRA>
-7.78318

>  <SCORE.INTRA.DIHEDRAL>
-15.6819

>  <SCORE.INTRA.DIHEDRAL.0>
19.1003

>  <SCORE.INTRA.POLAR>
0

>  <SCORE.INTRA.POLAR.0>
0

>  <SCORE.INTRA.REPUL>
0

>  <SCORE.INTRA.REPUL.0>
0

>  <SCORE.INTRA.SOLV>
1.44206

>  <SCORE.INTRA.SOLV.lig_0>
-47.5333

>  <SCORE.INTRA.VDW>
-0.663249

>  <SCORE.INTRA.VDW.0>
-0.287413

>  <SCORE.INTRA.norm>
-0.555941

>  <SCORE.RESTR>
0

>  <SCORE.RESTR.CAVITY>
0

>  <SCORE.RESTR.norm>
0

>  <SCORE.SYSTEM>
0

>  <SCORE.SYSTEM.CONST>
0

>  <SCORE.SYSTEM.DIHEDRAL>
0

>  <SCORE.SYSTEM.SOLV>
0

>  <SCORE.SYSTEM.norm>
0

>  <SCORE.heavy>
14

>  <SCORE.norm>
-0.502145

>  <RMSD>
7.103

$$$$
ligand
 OpenBabel11021811493D
libRbt.so/2013.1/901 2013/11/27
 14 13  0  0  0  0  0  0  0  0999 V2000
   58.0969   -1.6464    1.9157 N   0  0  0  0  0  0  0  0  0  0  0  0
   58.0168   -1.3149    0.5101 C   0  0  0  0  0  0  0  0  0  0  0  0
   57.3960    0.0889    0.3569 C   0  0  0  0  0  0  0  0  0  0  0  0
   58.2573    1.2194    0.9411 C   0  0  0  0  0  0  0  0  0  0  0  0
   58.5497    1.1239    2.3795 N   0  0  0  0  0  0  0  0  0  0  0  0
   59.5520    1.9444    3.0570 C   0  0  0  0  0  0  0  0  0  0  0  0
   59.7722    1.5387    4.5106 C   0  0  0  0  0  0  0  0  0  0  0  0
   60.8515    2.3623    5.2209 C   0  0  0  0  0  0  0  0  0  0  0  0
   60.9739    1.9926    6.7039 C   0  0  0  0  0  0  0  0  0  0  0  0
   61.5112    0.6388    6.8225 N   0  0  0  0  0  0  0  0  0  0  0  0
   62.0193    0.0557    8.0656 C   0  0  0  0  0  0  0  0  0  0  0  0
   62.5458   -1.3744    7.8811 C   0  0  0  0  0  0  0  0  0  0  0  0
   61.4232   -2.3362    7.4783 C   0  0  0  0  0  0  0  0  0  0  0  0
   61.9722   -3.6787    7.3115 N   0  0  0  0  0  0  0  0  0  0  0  0
  1  2  1  0  0  0  0
  2  3  1  0  0  0  0
  3  4  1  0  0  0  0
  4  5  1  0  0  0  0
  5  6  1  0  0  0  0
  6  7  1  0  0  0  0
  7  8  1  0  0  0  0
  8  9  1  0  0  0  0
  9 10  1  0  0  0  0
 10 11  1  0  0  0  0
 11 12  1  0  0  0  0
 12 13  1  0  0  0  0
 13 14  1  0  0  0  0
M  END
>  <CHROM.1>
65.00393707,-59.85630527,167.65607343,-173.36034409,178.21606969,175.96061835
68.14571895,166.81008214,-178.85450047,-64.51946571,179.84042830,60.06701241
0.04424811,4.51100920,2.98236046,-1.03261487,-0.00519164

>  <Name>
ligand

>  <RI>
0

>  <Rbt.Current_Directory>
/home/itssahil/PROJECTS/Mol_Feturizer/New_Systems/rnas/4FAW

>  <Rbt.Executable>
rbdock ($Id: //depot/dev/client3/rdock/2013.1/src/exe/rbdock.cxx#4 $)

>  <Rbt.Library>
libRbt.so (2013.1, Build901 2013/11/27)

>  <Rbt.Parameter_File>
/export/apps/rDock/src/rDock_2013.1_src/data/scripts/dock_solv.prm

>  <Rbt.Receptor>
prm/pocket_docking_6.prm

>  <SCORE>
-9.92086

>  <SCORE.INTER>
-0.969663

>  <SCORE.INTER.CONST>
1

>  <SCORE.INTER.POLAR>
0

>  <SCORE.INTER.ROT>
11

>  <SCORE.INTER.SOLV>
9.22309

>  <SCORE.INTER.VDW>
-14.6541

>  <SCORE.INTER.norm>
-0.0692616

>  <SCORE.INTRA>
-8.9512

>  <SCORE.INTRA.DIHEDRAL>
-18.3061

>  <SCORE.INTRA.DIHEDRAL.0>
19.1003

>  <SCORE.INTRA.POLAR>
0

>  <SCORE.INTRA.POLAR.0>
0

>  <SCORE.INTRA.REPUL>
0

>  <SCORE.INTRA.REPUL.0>
0

>  <SCORE.INTRA.SOLV>
2.39676

>  <SCORE.INTRA.SOLV.lig_0>
-47.5333

>  <SCORE.INTRA.VDW>
-0.996531

>  <SCORE.INTRA.VDW.0>
-0.287413

>  <SCORE.INTRA.norm>
-0.639371

>  <SCORE.RESTR>
0

>  <SCORE.RESTR.CAVITY>
0

>  <SCORE.RESTR.norm>
0

>  <SCORE.SYSTEM>
0

>  <SCORE.SYSTEM.CONST>
0

>  <SCORE.SYSTEM.DIHEDRAL>
0

>  <SCORE.SYSTEM.SOLV>
0

>  <SCORE.SYSTEM.norm>
0

>  <SCORE.heavy>
14

>  <SCORE.norm>
-0.708633

>  <RMSD>
7.207

$$$$
ligand
 OpenBabel11021811493D
libRbt.so/2013.1/901 2013/11/27
 14 13  0  0  0  0  0  0  0  0999 V2000
   63.1053   -4.1473    7.9715 N   0  0  0  0  0  0  0  0  0  0  0  0
   62.6590   -2.8676    8.4768 C   0  0  0  0  0  0  0  0  0  0  0  0
   62.3869   -1.9225    7.2883 C   0  0  0  0  0  0  0  0  0  0  0  0
   61.8872   -0.5292    7.7005 C   0  0  0  0  0  0  0  0  0  0  0  0
   61.5321    0.3763    6.5971 N   0  0  0  0  0  0  0  0  0  0  0  0
   61.0835    1.7536    6.7938 C   0  0  0  0  0  0  0  0  0  0  0  0
   61.0337    2.5561    5.4978 C   0  0  0  0  0  0  0  0  0  0  0  0
   59.9067    2.1265    4.5529 C   0  0  0  0  0  0  0  0  0  0  0  0
   59.7342    3.1021    3.3828 C   0  0  0  0  0  0  0  0  0  0  0  0
   58.7250    2.5812    2.4630 N   0  0  0  0  0  0  0  0  0  0  0  0
   58.8933    1.3798    1.6434 C   0  0  0  0  0  0  0  0  0  0  0  0
   57.6433    1.0410    0.8193 C   0  0  0  0  0  0  0  0  0  0  0  0
   57.7914   -0.3074    0.1071 C   0  0  0  0  0  0  0  0  0  0  0  0
   57.8576   -1.3752    1.1004 N   0  0  0  0  0  0  0  0  0  0  0  0
  1  2  1  0  0  0  0
  2  3  1  0  0  0  0
  3  4  1  0  0  0  0
  4  5  1  0  0  0  0
  5  6  1  0  0  0  0
  6  7  1  0  0  0  0
  7  8  1  0  0  0  0
  8  9  1  0  0  0  0
  9 10  1  0  0  0  0
 10 11  1  0  0  0  0
 11 12  1  0  0  0  0
 12 13  1  0  0  0  0
 13 14  1  0  0  0  0
M  END
>  <CHROM.1>
179.26819235,-176.20585523,-177.78833480,169.08324716,70.73493019,170.11213776
175.33775027,-67.71400025,177.50075621,-173.14211710,65.66209975,60.30279532
0.26946750,4.59964959,0.27536575,1.01777626,-3.02334522

>  <Name>
ligand

>  <RI>
0

>  <Rbt.Current_Directory>
/home/itssahil/PROJECTS/Mol_Feturizer/New_Systems/rnas/4FAW

>  <Rbt.Executable>
rbdock ($Id: //depot/dev/client3/rdock/2013.1/src/exe/rbdock.cxx#4 $)

>  <Rbt.Library>
libRbt.so (2013.1, Build901 2013/11/27)

>  <Rbt.Parameter_File>
/export/apps/rDock/src/rDock_2013.1_src/data/scripts/dock_solv.prm

>  <Rbt.Receptor>
prm/pocket_docking_7.prm

>  <SCORE>
-10.2783

>  <SCORE.INTER>
-0.727075

>  <SCORE.INTER.CONST>
1

>  <SCORE.INTER.POLAR>
0

>  <SCORE.INTER.ROT>
11

>  <SCORE.INTER.SOLV>
10.4394

>  <SCORE.INTER.VDW>
-14.8979

>  <SCORE.INTER.norm>
-0.0519339

>  <SCORE.INTRA>
-9.55126

>  <SCORE.INTRA.DIHEDRAL>
-17.6873

>  <SCORE.INTRA.DIHEDRAL.0>
19.1003

>  <SCORE.INTRA.POLAR>
0

>  <SCORE.INTRA.POLAR.0>
0

>  <SCORE.INTRA.REPUL>
0

>  <SCORE.INTRA.REPUL.0>
0

>  <SCORE.INTRA.SOLV>
-0.367792

>  <SCORE.INTRA.SOLV.lig_0>
-47.5333

>  <SCORE.INTRA.VDW>
-0.523716

>  <SCORE.INTRA.VDW.0>
-0.287413

>  <SCORE.INTRA.norm>
-0.682233

>  <SCORE.RESTR>
0

>  <SCORE.RESTR.CAVITY>
0

>  <SCORE.RESTR.norm>
0

>  <SCORE.SYSTEM>
0

>  <SCORE.SYSTEM.CONST>
0

>  <SCORE.SYSTEM.DIHEDRAL>
0

>  <SCORE.SYSTEM.SOLV>
0

>  <SCORE.SYSTEM.norm>
0

>  <SCORE.heavy>
14

>  <SCORE.norm>
-0.734167

>  <RMSD>
7.259

$$$$
ligand
 OpenBabel11021811493D
libRbt.so/2013.1/901 2013/11/27
 14 13  0  0  0  0  0  0  0  0999 V2000
   47.5309   -2.7350   -8.0636 N   0  0  0  0  0  0  0  0  0  0  0  0
   47.3139   -2.0954   -6.7846 C   0  0  0  0  0  0  0  0  0  0  0  0
   48.6001   -1.3535   -6.3664 C   0  0  0  0  0  0  0  0  0  0  0  0
   48.4816   -0.6031   -5.0308 C   0  0  0  0  0  0  0  0  0  0  0  0
   49.6334    0.2343   -4.6622 N   0  0  0  0  0  0  0  0  0  0  0  0
   51.0036   -0.2677   -4.5767 C   0  0  0  0  0  0  0  0  0  0  0  0
   51.4200   -0.6273   -3.1542 C   0  0  0  0  0  0  0  0  0  0  0  0
   51.7366    0.5912   -2.2809 C   0  0  0  0  0  0  0  0  0  0  0  0
   52.0106    0.1990   -0.8242 C   0  0  0  0  0  0  0  0  0  0  0  0
   52.5872    1.3399   -0.1160 N   0  0  0  0  0  0  0  0  0  0  0  0
   51.8446    2.5463    0.2534 C   0  0  0  0  0  0  0  0  0  0  0  0
   51.7964    3.5852   -0.8757 C   0  0  0  0  0  0  0  0  0  0  0  0
   51.0727    4.8607   -0.4318 C   0  0  0  0  0  0  0  0  0  0  0  0
   51.8862    5.5594    0.5588 N   0  0  0  0  0  0  0  0  0  0  0  0
  1  2  1  0  0  0  0
  2  3  1  0  0  0  0
  3  4  1  0  0  0  0
  4  5  1  0  0  0  0
  5  6  1  0  0  0  0
  6  7  1  0  0  0  0
  7  8  1  0  0  0  0
  8  9  1  0  0  0  0
  9 10  1  0  0  0  0
 10 11  1  0  0  0  0
 11 12  1  0  0  0  0
 12 13  1  0  0  0  0
 13 14  1  0  0  0  0
M  END
>  <CHROM.1>
178.65147467,-173.74996298,-55.01853035,-97.24740030,-76.08189138,174.15745239
167.63006971,71.33720611,-85.48209350,-177.18411295,69.06581500,50.49416583
0.80228780,-3.02532376,2.17015287,0.77701194,-2.69934675

>  <Name>
ligand

>  <RI>
0

>  <Rbt.Current_Directory>
/home/itssahil/PROJECTS/Mol_Feturizer/New_Systems/rnas/4FAW

>  <Rbt.Executable>
rbdock ($Id: //depot/dev/client3/rdock/2013.1/src/exe/rbdock.cxx#4 $)

>  <Rbt.Library>
libRbt.so (2013.1, Build901 2013/11/27)

>  <Rbt.Parameter_File>
/export/apps/rDock/src/rDock_2013.1_src/data/scripts/dock_solv.prm

>  <Rbt.Receptor>
prm/pocket_docking_8.prm

>  <SCORE>
-9.6684

>  <SCORE.INTER>
-1.43072

>  <SCORE.INTER.CONST>
1

>  <SCORE.INTER.POLAR>
0

>  <SCORE.INTER.ROT>
11

>  <SCORE.INTER.SOLV>
7.55941

>  <SCORE.INTER.VDW>
-14.4069

>  <SCORE.INTER.norm>
-0.102194

>  <SCORE.INTRA>
-8.23769

>  <SCORE.INTRA.DIHEDRAL>
-15.5843

>  <SCORE.INTRA.DIHEDRAL.0>
19.1003

>  <SCORE.INTRA.POLAR>
0

>  <SCORE.INTRA.POLAR.0>
0

>  <SCORE.INTRA.REPUL>
0

>  <SCORE.INTRA.REPUL.0>
0

>  <SCORE.INTRA.SOLV>
-0.451251

>  <SCORE.INTRA.SOLV.lig_0>
-47.5333

>  <SCORE.INTRA.VDW>
-0.219928

>  <SCORE.INTRA.VDW.0>
-0.287413

>  <SCORE.INTRA.norm>
-0.588406

>  <SCORE.RESTR>
0

>  <SCORE.RESTR.CAVITY>
0

>  <SCORE.RESTR.norm>
0

>  <SCORE.SYSTEM>
0

>  <SCORE.SYSTEM.CONST>
0

>  <SCORE.SYSTEM.DIHEDRAL>
0

>  <SCORE.SYSTEM.SOLV>
0

>  <SCORE.SYSTEM.norm>
0

>  <SCORE.heavy>
14

>  <SCORE.norm>
-0.6906

>  <RMSD>
7.268

$$$$
ligand
 OpenBabel11021811493D
libRbt.so/2013.1/901 2013/11/27
 14 13  0  0  0  0  0  0  0  0999 V2000
   53.7744    3.7823   -7.2718 N   0  0  0  0  0  0  0  0  0  0  0  0
   53.5560    2.5241   -7.9512 C   0  0  0  0  0  0  0  0  0  0  0  0
   52.6998    1.6074   -7.0533 C   0  0  0  0  0  0  0  0  0  0  0  0
   52.3899    0.2371   -7.6756 C   0  0  0  0  0  0  0  0  0  0  0  0
   51.6302   -0.6943   -6.8277 N   0  0  0  0  0  0  0  0  0  0  0  0
   50.1876   -0.9002   -6.9439 C   0  0  0  0  0  0  0  0  0  0  0  0
   49.5807   -1.5773   -5.7194 C   0  0  0  0  0  0  0  0  0  0  0  0
   49.6174   -0.7097   -4.4571 C   0  0  0  0  0  0  0  0  0  0  0  0
   51.0387   -0.5644   -3.9005 C   0  0  0  0  0  0  0  0  0  0  0  0
   51.0240    0.3638   -2.7719 N   0  0  0  0  0  0  0  0  0  0  0  0
   51.9684    0.3229   -1.6539 C   0  0  0  0  0  0  0  0  0  0  0  0
   51.8859    1.5671   -0.7586 C   0  0  0  0  0  0  0  0  0  0  0  0
   53.0180    1.5895    0.2736 C   0  0  0  0  0  0  0  0  0  0  0  0
   52.8677    2.7609    1.1319 N   0  0  0  0  0  0  0  0  0  0  0  0
  1  2  1  0  0  0  0
  2  3  1  0  0  0  0
  3  4  1  0  0  0  0
  4  5  1  0  0  0  0
  5  6  1  0  0  0  0
  6  7  1  0  0  0  0
  7  8  1  0  0  0  0
  8  9  1  0  0  0  0
  9 10  1  0  0  0  0
 10 11  1  0  0  0  0
 11 12  1  0  0  0  0
 12 13  1  0  0  0  0
 13 14  1  0  0  0  0
M  END
>  <CHROM.1>
179.55201910,177.17865393,98.90211516,-162.94606801,67.27339021,-71.48787158
175.10676064,151.70178403,169.07865550,-171.67495312,-177.84062107,51.80255349
0.73603284,-4.39870256,-1.64583407,0.86294537,1.50434289

>  <Name>
ligand

>  <RI>
0

>  <Rbt.Current_Directory>
/home/itssahil/PROJECTS/Mol_Feturizer/New_Systems/rnas/4FAW

>  <Rbt.Executable>
rbdock ($Id: //depot/dev/client3/rdock/2013.1/src/exe/rbdock.cxx#4 $)

>  <Rbt.Library>
libRbt.so (2013.1, Build901 2013/11/27)

>  <Rbt.Parameter_File>
/export/apps/rDock/src/rDock_2013.1_src/data/scripts/dock_solv.prm

>  <Rbt.Receptor>
prm/pocket_docking_6.prm

>  <SCORE>
-8.46828

>  <SCORE.INTER>
0.666181

>  <SCORE.INTER.CONST>
1

>  <SCORE.INTER.POLAR>
0

>  <SCORE.INTER.ROT>
11

>  <SCORE.INTER.SOLV>
7.15971

>  <SCORE.INTER.VDW>
-12.8758

>  <SCORE.INTER.norm>
0.0475843

>  <SCORE.INTRA>
-9.13446

>  <SCORE.INTRA.DIHEDRAL>
-16.2335

>  <SCORE.INTRA.DIHEDRAL.0>
19.1003

>  <SCORE.INTRA.POLAR>
0

>  <SCORE.INTRA.POLAR.0>
0

>  <SCORE.INTRA.REPUL>
0

>  <SCORE.INTRA.REPUL.0>
0

>  <SCORE.INTRA.SOLV>
-0.406152

>  <SCORE.INTRA.SOLV.lig_0>
-47.5333

>  <SCORE.INTRA.VDW>
-0.814652

>  <SCORE.INTRA.VDW.0>
-0.287413

>  <SCORE.INTRA.norm>
-0.652461

>  <SCORE.RESTR>
0

>  <SCORE.RESTR.CAVITY>
0

>  <SCORE.RESTR.norm>
0

>  <SCORE.SYSTEM>
0

>  <SCORE.SYSTEM.CONST>
0

>  <SCORE.SYSTEM.DIHEDRAL>
0

>  <SCORE.SYSTEM.SOLV>
0

>  <SCORE.SYSTEM.norm>
0

>  <SCORE.heavy>
14

>  <SCORE.norm>
-0.604877

>  <RMSD>
7.286

$$$$
ligand
 OpenBabel11021811493D
libRbt.so/2013.1/901 2013/11/27
 14 13  0  0  0  0  0  0  0  0999 V2000
   47.9534   -3.3488   -6.3467 N   0  0  0  0  0  0  0  0  0  0  0  0
   48.8313   -2.2087   -6.1992 C   0  0  0  0  0  0  0  0  0  0  0  0
   48.2888   -1.2951   -5.0809 C   0  0  0  0  0  0  0  0  0  0  0  0
   49.1157   -0.0187   -4.8617 C   0  0  0  0  0  0  0  0  0  0  0  0
   50.5352   -0.2233   -4.5350 N   0  0  0  0  0  0  0  0  0  0  0  0
   51.0086   -0.6518   -3.2200 C   0  0  0  0  0  0  0  0  0  0  0  0
   51.6333    0.4810   -2.4121 C   0  0  0  0  0  0  0  0  0  0  0  0
   51.8865    0.1209   -0.9445 C   0  0  0  0  0  0  0  0  0  0  0  0
   52.5757    1.2598   -0.1838 C   0  0  0  0  0  0  0  0  0  0  0  0
   51.6670    2.4007   -0.0928 N   0  0  0  0  0  0  0  0  0  0  0  0
   52.0659    3.7456    0.3261 C   0  0  0  0  0  0  0  0  0  0  0  0
   50.8710    4.6916    0.5085 C   0  0  0  0  0  0  0  0  0  0  0  0
   51.3290    6.1076    0.8732 C   0  0  0  0  0  0  0  0  0  0  0  0
   50.1609    6.9688    1.0316 N   0  0  0  0  0  0  0  0  0  0  0  0
  1  2  1  0  0  0  0
  2  3  1  0  0  0  0
  3  4  1  0  0  0  0
  4  5  1  0  0  0  0
  5  6  1  0  0  0  0
  6  7  1  0  0  0  0
  7  8  1  0  0  0  0
  8  9  1  0  0  0  0
  9 10  1  0  0  0  0
 10 11  1  0  0  0  0
 11 12  1  0  0  0  0
 12 13  1  0  0  0  0
 13 14  1  0  0  0  0
M  END
>  <CHROM.1>
-178.04515256,-57.85895418,-75.97465657,-104.59313597,168.85081257,177.25651960
66.35627433,-167.41772858,-172.25896966,-176.94894565,179.82565613,50.56607238
1.28775376,-2.22398421,1.89015075,0.66501680,-2.60853550

>  <Name>
ligand

>  <RI>
0

>  <Rbt.Current_Directory>
/home/itssahil/PROJECTS/Mol_Feturizer/New_Systems/rnas/4FAW

>  <Rbt.Executable>
rbdock ($Id: //depot/dev/client3/rdock/2013.1/src/exe/rbdock.cxx#4 $)

>  <Rbt.Library>
libRbt.so (2013.1, Build901 2013/11/27)

>  <Rbt.Parameter_File>
/export/apps/rDock/src/rDock_2013.1_src/data/scripts/dock_solv.prm

>  <Rbt.Receptor>
prm/pocket_docking_8.prm

>  <SCORE>
-9.32658

>  <SCORE.INTER>
0.450902

>  <SCORE.INTER.CONST>
1

>  <SCORE.INTER.POLAR>
0

>  <SCORE.INTER.ROT>
11

>  <SCORE.INTER.SOLV>
8.89838

>  <SCORE.INTER.VDW>
-13.5989

>  <SCORE.INTER.norm>
0.0322073

>  <SCORE.INTRA>
-9.77748

>  <SCORE.INTRA.DIHEDRAL>
-17.006

>  <SCORE.INTRA.DIHEDRAL.0>
19.1003

>  <SCORE.INTRA.POLAR>
0

>  <SCORE.INTRA.POLAR.0>
0

>  <SCORE.INTRA.REPUL>
0

>  <SCORE.INTRA.REPUL.0>
0

>  <SCORE.INTRA.SOLV>
-0.779419

>  <SCORE.INTRA.SOLV.lig_0>
-47.5333

>  <SCORE.INTRA.VDW>
-0.884764

>  <SCORE.INTRA.VDW.0>
-0.287413

>  <SCORE.INTRA.norm>
-0.698391

>  <SCORE.RESTR>
0

>  <SCORE.RESTR.CAVITY>
0

>  <SCORE.RESTR.norm>
0

>  <SCORE.SYSTEM>
0

>  <SCORE.SYSTEM.CONST>
0

>  <SCORE.SYSTEM.DIHEDRAL>
0

>  <SCORE.SYSTEM.SOLV>
0

>  <SCORE.SYSTEM.norm>
0

>  <SCORE.heavy>
14

>  <SCORE.norm>
-0.666184

>  <RMSD>
7.293

$$$$
ligand
 OpenBabel11021811493D
libRbt.so/2013.1/901 2013/11/27
 14 13  0  0  0  0  0  0  0  0999 V2000
   51.6859    5.9391    0.7432 N   0  0  0  0  0  0  0  0  0  0  0  0
   52.0741    4.6353    1.2345 C   0  0  0  0  0  0  0  0  0  0  0  0
   52.1582    3.6530    0.0481 C   0  0  0  0  0  0  0  0  0  0  0  0
   52.5578    2.2242    0.4478 C   0  0  0  0  0  0  0  0  0  0  0  0
   52.6720    1.2586   -0.6559 N   0  0  0  0  0  0  0  0  0  0  0  0
   51.5430    0.8422   -1.4859 C   0  0  0  0  0  0  0  0  0  0  0  0
   51.9058   -0.2563   -2.4798 C   0  0  0  0  0  0  0  0  0  0  0  0
   50.7134   -0.7612   -3.2988 C   0  0  0  0  0  0  0  0  0  0  0  0
   50.3035    0.2338   -4.3910 C   0  0  0  0  0  0  0  0  0  0  0  0
   48.8871    0.0541   -4.7026 N   0  0  0  0  0  0  0  0  0  0  0  0
   48.2434   -1.2443   -4.9108 C   0  0  0  0  0  0  0  0  0  0  0  0
   48.7917   -1.9916   -6.1343 C   0  0  0  0  0  0  0  0  0  0  0  0
   48.0839   -3.3360   -6.3323 C   0  0  0  0  0  0  0  0  0  0  0  0
   48.6234   -3.9977   -7.5166 N   0  0  0  0  0  0  0  0  0  0  0  0
  1  2  1  0  0  0  0
  2  3  1  0  0  0  0
  3  4  1  0  0  0  0
  4  5  1  0  0  0  0
  5  6  1  0  0  0  0
  6  7  1  0  0  0  0
  7  8  1  0  0  0  0
  8  9  1  0  0  0  0
  9 10  1  0  0  0  0
 10 11  1  0  0  0  0
 11 12  1  0  0  0  0
 12 13  1  0  0  0  0
 13 14  1  0  0  0  0
M  END
>  <CHROM.1>
-179.71262422,-179.02777260,-64.35842636,-175.02417002,176.55686147,75.19981186
-153.76434288,-45.65636454,-63.77650850,-179.25969252,179.10526647,50.58885153
0.51796808,-2.81667033,1.09476921,-0.67398345,0.49441820

>  <Name>
ligand

>  <RI>
0

>  <Rbt.Current_Directory>
/home/itssahil/PROJECTS/Mol_Feturizer/New_Systems/rnas/4FAW

>  <Rbt.Executable>
rbdock ($Id: //depot/dev/client3/rdock/2013.1/src/exe/rbdock.cxx#4 $)

>  <Rbt.Library>
libRbt.so (2013.1, Build901 2013/11/27)

>  <Rbt.Parameter_File>
/export/apps/rDock/src/rDock_2013.1_src/data/scripts/dock_solv.prm

>  <Rbt.Receptor>
prm/pocket_docking_8.prm

>  <SCORE>
-7.46067

>  <SCORE.INTER>
0.293067

>  <SCORE.INTER.CONST>
1

>  <SCORE.INTER.POLAR>
0

>  <SCORE.INTER.ROT>
11

>  <SCORE.INTER.SOLV>
7.68279

>  <SCORE.INTER.VDW>
-13.2989

>  <SCORE.INTER.norm>
0.0209334

>  <SCORE.INTRA>
-7.75374

>  <SCORE.INTRA.DIHEDRAL>
-15.6992

>  <SCORE.INTRA.DIHEDRAL.0>
19.1003

>  <SCORE.INTRA.POLAR>
0

>  <SCORE.INTRA.POLAR.0>
0

>  <SCORE.INTRA.REPUL>
0

>  <SCORE.INTRA.REPUL.0>
0

>  <SCORE.INTRA.SOLV>
-1.2555

>  <SCORE.INTRA.SOLV.lig_0>
-47.5333

>  <SCORE.INTRA.VDW>
0.723601

>  <SCORE.INTRA.VDW.0>
-0.287413

>  <SCORE.INTRA.norm>
-0.553839

>  <SCORE.RESTR>
0

>  <SCORE.RESTR.CAVITY>
0

>  <SCORE.RESTR.norm>
0

>  <SCORE.SYSTEM>
0

>  <SCORE.SYSTEM.CONST>
0

>  <SCORE.SYSTEM.DIHEDRAL>
0

>  <SCORE.SYSTEM.SOLV>
0

>  <SCORE.SYSTEM.norm>
0

>  <SCORE.heavy>
14

>  <SCORE.norm>
-0.532905

>  <RMSD>
7.298

$$$$
ligand
 OpenBabel11021811493D
libRbt.so/2013.1/901 2013/11/27
 14 13  0  0  0  0  0  0  0  0999 V2000
   48.2048   -2.5078   -8.6074 N   0  0  0  0  0  0  0  0  0  0  0  0
   48.5362   -1.6221   -7.5129 C   0  0  0  0  0  0  0  0  0  0  0  0
   47.6698   -1.9853   -6.2894 C   0  0  0  0  0  0  0  0  0  0  0  0
   47.9458   -1.1198   -5.0501 C   0  0  0  0  0  0  0  0  0  0  0  0
   49.2891   -1.2491   -4.4650 N   0  0  0  0  0  0  0  0  0  0  0  0
   50.4094   -0.3762   -4.8114 C   0  0  0  0  0  0  0  0  0  0  0  0
   50.1106    1.1007   -4.5754 C   0  0  0  0  0  0  0  0  0  0  0  0
   51.2942    2.0233   -4.8843 C   0  0  0  0  0  0  0  0  0  0  0  0
   52.4819    1.7676   -3.9490 C   0  0  0  0  0  0  0  0  0  0  0  0
   52.0660    1.9922   -2.5661 N   0  0  0  0  0  0  0  0  0  0  0  0
   51.8013    0.9265   -1.5978 C   0  0  0  0  0  0  0  0  0  0  0  0
   52.3687    1.2330   -0.2048 C   0  0  0  0  0  0  0  0  0  0  0  0
   51.7380    2.4961    0.3906 C   0  0  0  0  0  0  0  0  0  0  0  0
   52.3679    2.7934    1.6736 N   0  0  0  0  0  0  0  0  0  0  0  0
  1  2  1  0  0  0  0
  2  3  1  0  0  0  0
  3  4  1  0  0  0  0
  4  5  1  0  0  0  0
  5  6  1  0  0  0  0
  6  7  1  0  0  0  0
  7  8  1  0  0  0  0
  8  9  1  0  0  0  0
  9 10  1  0  0  0  0
 10 11  1  0  0  0  0
 11 12  1  0  0  0  0
 12 13  1  0  0  0  0
 13 14  1  0  0  0  0
M  END
>  <CHROM.1>
179.24377873,-64.54275967,93.21054461,56.87837267,177.82340811,-64.25262593
-59.62229591,104.70694604,137.98690779,61.42891838,-176.43923134,50.44881714
0.39094350,-3.74649514,-2.22733179,0.75827806,1.53454636

>  <Name>
ligand

>  <RI>
0

>  <Rbt.Current_Directory>
/home/itssahil/PROJECTS/Mol_Feturizer/New_Systems/rnas/4FAW

>  <Rbt.Executable>
rbdock ($Id: //depot/dev/client3/rdock/2013.1/src/exe/rbdock.cxx#4 $)

>  <Rbt.Library>
libRbt.so (2013.1, Build901 2013/11/27)

>  <Rbt.Parameter_File>
/export/apps/rDock/src/rDock_2013.1_src/data/scripts/dock_solv.prm

>  <Rbt.Receptor>
prm/pocket_docking_8.prm

>  <SCORE>
-7.35109

>  <SCORE.INTER>
0.819654

>  <SCORE.INTER.CONST>
1

>  <SCORE.INTER.POLAR>
0

>  <SCORE.INTER.ROT>
11

>  <SCORE.INTER.SOLV>
7.35447

>  <SCORE.INTER.VDW>
-12.8384

>  <SCORE.INTER.norm>
0.0585467

>  <SCORE.INTRA>
-8.17074

>  <SCORE.INTRA.DIHEDRAL>
-16.1918

>  <SCORE.INTRA.DIHEDRAL.0>
19.1003

>  <SCORE.INTRA.POLAR>
0

>  <SCORE.INTRA.POLAR.0>
0

>  <SCORE.INTRA.REPUL>
0

>  <SCORE.INTRA.REPUL.0>
0

>  <SCORE.INTRA.SOLV>
0.096422

>  <SCORE.INTRA.SOLV.lig_0>
-47.5333

>  <SCORE.INTRA.VDW>
-0.12304

>  <SCORE.INTRA.VDW.0>
-0.287413

>  <SCORE.INTRA.norm>
-0.583624

>  <SCORE.RESTR>
0

>  <SCORE.RESTR.CAVITY>
0

>  <SCORE.RESTR.norm>
0

>  <SCORE.SYSTEM>
0

>  <SCORE.SYSTEM.CONST>
0

>  <SCORE.SYSTEM.DIHEDRAL>
0

>  <SCORE.SYSTEM.SOLV>
0

>  <SCORE.SYSTEM.norm>
0

>  <SCORE.heavy>
14

>  <SCORE.norm>
-0.525078

>  <RMSD>
7.319

$$$$
ligand
 OpenBabel11021811493D
libRbt.so/2013.1/901 2013/11/27
 14 13  0  0  0  0  0  0  0  0999 V2000
   60.9444   -5.1434    7.7505 N   0  0  0  0  0  0  0  0  0  0  0  0
   59.7316   -5.3760    8.5037 C   0  0  0  0  0  0  0  0  0  0  0  0
   58.5398   -5.4614    7.5280 C   0  0  0  0  0  0  0  0  0  0  0  0
   58.2539   -4.1523    6.7759 C   0  0  0  0  0  0  0  0  0  0  0  0
   57.8901   -2.9989    7.6132 N   0  0  0  0  0  0  0  0  0  0  0  0
   56.5937   -2.8559    8.2733 C   0  0  0  0  0  0  0  0  0  0  0  0
   55.4327   -2.7433    7.2906 C   0  0  0  0  0  0  0  0  0  0  0  0
   55.5687   -1.5727    6.3115 C   0  0  0  0  0  0  0  0  0  0  0  0
   54.5067   -1.6209    5.2066 C   0  0  0  0  0  0  0  0  0  0  0  0
   54.8920   -0.7166    4.1252 N   0  0  0  0  0  0  0  0  0  0  0  0
   54.6323   -0.9653    2.7060 C   0  0  0  0  0  0  0  0  0  0  0  0
   55.7861   -0.5119    1.8008 C   0  0  0  0  0  0  0  0  0  0  0  0
   56.0033    1.0024    1.8875 C   0  0  0  0  0  0  0  0  0  0  0  0
   57.0875    1.3884    0.9893 N   0  0  0  0  0  0  0  0  0  0  0  0
  1  2  1  0  0  0  0
  2  3  1  0  0  0  0
  3  4  1  0  0  0  0
  4  5  1  0  0  0  0
  5  6  1  0  0  0  0
  6  7  1  0  0  0  0
  7  8  1  0  0  0  0
  8  9  1  0  0  0  0
  9 10  1  0  0  0  0
 10 11  1  0  0  0  0
 11 12  1  0  0  0  0
 12 13  1  0  0  0  0
 13 14  1  0  0  0  0
M  END
>  <CHROM.1>
-64.71570445,-61.75885954,-73.46559567,-63.91597512,-57.80327822,171.01569095
-164.99073566,145.26041304,-141.86210764,-63.00428404,-178.72933940,56.84699179
-2.26643622,5.48315456,-1.12829918,0.32623656,-1.01272674

>  <Name>
ligand

>  <RI>
0

>  <Rbt.Current_Directory>
/home/itssahil/PROJECTS/Mol_Feturizer/New_Systems/rnas/4FAW

>  <Rbt.Executable>
rbdock ($Id: //depot/dev/client3/rdock/2013.1/src/exe/rbdock.cxx#4 $)

>  <Rbt.Library>
libRbt.so (2013.1, Build901 2013/11/27)

>  <Rbt.Parameter_File>
/export/apps/rDock/src/rDock_2013.1_src/data/scripts/dock_solv.prm

>  <Rbt.Receptor>
prm/pocket_docking_8.prm

>  <SCORE>
-7.27245

>  <SCORE.INTER>
0.865339

>  <SCORE.INTER.CONST>
1

>  <SCORE.INTER.POLAR>
0

>  <SCORE.INTER.ROT>
11

>  <SCORE.INTER.SOLV>
11.901

>  <SCORE.INTER.VDW>
-14.3234

>  <SCORE.INTER.norm>
0.06181

>  <SCORE.INTRA>
-8.13778

>  <SCORE.INTRA.DIHEDRAL>
-16.0538

>  <SCORE.INTRA.DIHEDRAL.0>
19.1003

>  <SCORE.INTRA.POLAR>
0

>  <SCORE.INTRA.POLAR.0>
0

>  <SCORE.INTRA.REPUL>
0

>  <SCORE.INTRA.REPUL.0>
0

>  <SCORE.INTRA.SOLV>
0.915439

>  <SCORE.INTRA.SOLV.lig_0>
-47.5333

>  <SCORE.INTRA.VDW>
-0.5686

>  <SCORE.INTRA.VDW.0>
-0.287413

>  <SCORE.INTRA.norm>
-0.58127

>  <SCORE.RESTR>
0

>  <SCORE.RESTR.CAVITY>
0

>  <SCORE.RESTR.norm>
0

>  <SCORE.SYSTEM>
0

>  <SCORE.SYSTEM.CONST>
0

>  <SCORE.SYSTEM.DIHEDRAL>
0

>  <SCORE.SYSTEM.SOLV>
0

>  <SCORE.SYSTEM.norm>
0

>  <SCORE.heavy>
14

>  <SCORE.norm>
-0.51946

>  <RMSD>
7.390

$$$$
ligand
 OpenBabel11021811493D
libRbt.so/2013.1/901 2013/11/27
 14 13  0  0  0  0  0  0  0  0999 V2000
   47.3628   -1.7531   -9.1602 N   0  0  0  0  0  0  0  0  0  0  0  0
   48.1734   -1.7163   -7.9629 C   0  0  0  0  0  0  0  0  0  0  0  0
   47.5167   -2.5984   -6.8812 C   0  0  0  0  0  0  0  0  0  0  0  0
   48.2458   -2.5745   -5.5288 C   0  0  0  0  0  0  0  0  0  0  0  0
   48.3020   -1.2685   -4.8545 N   0  0  0  0  0  0  0  0  0  0  0  0
   49.5384   -0.5147   -4.6538 C   0  0  0  0  0  0  0  0  0  0  0  0
   50.3571   -1.0156   -3.4684 C   0  0  0  0  0  0  0  0  0  0  0  0
   51.7372   -0.3600   -3.3550 C   0  0  0  0  0  0  0  0  0  0  0  0
   51.6386    1.1341   -3.0248 C   0  0  0  0  0  0  0  0  0  0  0  0
   52.9764    1.7222   -3.0387 N   0  0  0  0  0  0  0  0  0  0  0  0
   53.3051    3.0445   -2.5031 C   0  0  0  0  0  0  0  0  0  0  0  0
   54.7595    3.4528   -2.7753 C   0  0  0  0  0  0  0  0  0  0  0  0
   55.0571    4.8557   -2.2360 C   0  0  0  0  0  0  0  0  0  0  0  0
   55.0051    4.8349   -0.7772 N   0  0  0  0  0  0  0  0  0  0  0  0
  1  2  1  0  0  0  0
  2  3  1  0  0  0  0
  3  4  1  0  0  0  0
  4  5  1  0  0  0  0
  5  6  1  0  0  0  0
  6  7  1  0  0  0  0
  7  8  1  0  0  0  0
  8  9  1  0  0  0  0
  9 10  1  0  0  0  0
 10 11  1  0  0  0  0
 11 12  1  0  0  0  0
 12 13  1  0  0  0  0
 13 14  1  0  0  0  0
M  END
>  <CHROM.1>
-176.61341638,62.53108612,-112.69863456,-80.14155410,172.44923553,66.60004160
-175.39257285,-166.63840991,-174.51762704,178.42053591,67.51308469,50.99826086
0.51720686,-4.30135441,-2.92067045,0.84597730,1.98298821

>  <Name>
ligand

>  <RI>
0

>  <Rbt.Current_Directory>
/home/itssahil/PROJECTS/Mol_Feturizer/New_Systems/rnas/4FAW

>  <Rbt.Executable>
rbdock ($Id: //depot/dev/client3/rdock/2013.1/src/exe/rbdock.cxx#4 $)

>  <Rbt.Library>
libRbt.so (2013.1, Build901 2013/11/27)

>  <Rbt.Parameter_File>
/export/apps/rDock/src/rDock_2013.1_src/data/scripts/dock_solv.prm

>  <Rbt.Receptor>
prm/pocket_docking_8.prm

>  <SCORE>
-8.21662

>  <SCORE.INTER>
0.670216

>  <SCORE.INTER.CONST>
1

>  <SCORE.INTER.POLAR>
0

>  <SCORE.INTER.ROT>
11

>  <SCORE.INTER.SOLV>
9.06434

>  <SCORE.INTER.VDW>
-13.508

>  <SCORE.INTER.norm>
0.0478726

>  <SCORE.INTRA>
-8.88684

>  <SCORE.INTRA.DIHEDRAL>
-16.7128

>  <SCORE.INTRA.DIHEDRAL.0>
19.1003

>  <SCORE.INTRA.POLAR>
0

>  <SCORE.INTRA.POLAR.0>
0

>  <SCORE.INTRA.REPUL>
0

>  <SCORE.INTRA.REPUL.0>
0

>  <SCORE.INTRA.SOLV>
-0.270064

>  <SCORE.INTRA.SOLV.lig_0>
-47.5333

>  <SCORE.INTRA.VDW>
-0.395395

>  <SCORE.INTRA.VDW.0>
-0.287413

>  <SCORE.INTRA.norm>
-0.634774

>  <SCORE.RESTR>
0

>  <SCORE.RESTR.CAVITY>
0

>  <SCORE.RESTR.norm>
0

>  <SCORE.SYSTEM>
0

>  <SCORE.SYSTEM.CONST>
0

>  <SCORE.SYSTEM.DIHEDRAL>
0

>  <SCORE.SYSTEM.SOLV>
0

>  <SCORE.SYSTEM.norm>
0

>  <SCORE.heavy>
14

>  <SCORE.norm>
-0.586902

>  <RMSD>
7.519

$$$$
ligand
 OpenBabel11021811493D
libRbt.so/2013.1/901 2013/11/27
 14 13  0  0  0  0  0  0  0  0999 V2000
   48.9500    1.5162  -10.1854 N   0  0  0  0  0  0  0  0  0  0  0  0
   48.7751    0.3474   -9.3515 C   0  0  0  0  0  0  0  0  0  0  0  0
   49.9895    0.2126   -8.4099 C   0  0  0  0  0  0  0  0  0  0  0  0
   49.9306   -1.0145   -7.4870 C   0  0  0  0  0  0  0  0  0  0  0  0
   48.8416   -1.0205   -6.4982 N   0  0  0  0  0  0  0  0  0  0  0  0
   48.8499   -1.8453   -5.2913 C   0  0  0  0  0  0  0  0  0  0  0  0
   49.5009   -1.1521   -4.0989 C   0  0  0  0  0  0  0  0  0  0  0  0
   50.8697   -0.5412   -4.4163 C   0  0  0  0  0  0  0  0  0  0  0  0
   51.7975   -0.5439   -3.1957 C   0  0  0  0  0  0  0  0  0  0  0  0
   51.2327    0.3144   -2.1565 N   0  0  0  0  0  0  0  0  0  0  0  0
   51.7366    0.3940   -0.7841 C   0  0  0  0  0  0  0  0  0  0  0  0
   51.8512    1.8373   -0.2744 C   0  0  0  0  0  0  0  0  0  0  0  0
   52.8600    2.6434   -1.0991 C   0  0  0  0  0  0  0  0  0  0  0  0
   52.9709    3.9903   -0.5468 N   0  0  0  0  0  0  0  0  0  0  0  0
  1  2  1  0  0  0  0
  2  3  1  0  0  0  0
  3  4  1  0  0  0  0
  4  5  1  0  0  0  0
  5  6  1  0  0  0  0
  6  7  1  0  0  0  0
  7  8  1  0  0  0  0
  8  9  1  0  0  0  0
  9 10  1  0  0  0  0
 10 11  1  0  0  0  0
 11 12  1  0  0  0  0
 12 13  1  0  0  0  0
 13 14  1  0  0  0  0
M  END
>  <CHROM.1>
-178.94150757,-64.89505656,-160.15296422,89.34948634,-49.49429765,-149.20796372
-64.05857179,170.30268642,135.28041132,-62.88860563,-177.89507314,50.58262031
0.36665666,-4.55666422,-2.52283369,1.10115364,2.21529906

>  <Name>
ligand

>  <RI>
0

>  <Rbt.Current_Directory>
/home/itssahil/PROJECTS/Mol_Feturizer/New_Systems/rnas/4FAW

>  <Rbt.Executable>
rbdock ($Id: //depot/dev/client3/rdock/2013.1/src/exe/rbdock.cxx#4 $)

>  <Rbt.Library>
libRbt.so (2013.1, Build901 2013/11/27)

>  <Rbt.Parameter_File>
/export/apps/rDock/src/rDock_2013.1_src/data/scripts/dock_solv.prm

>  <Rbt.Receptor>
prm/pocket_docking_7.prm

>  <SCORE>
-7.44902

>  <SCORE.INTER>
-0.0816251

>  <SCORE.INTER.CONST>
1

>  <SCORE.INTER.POLAR>
0

>  <SCORE.INTER.ROT>
11

>  <SCORE.INTER.SOLV>
6.84358

>  <SCORE.INTER.VDW>
-13.2689

>  <SCORE.INTER.norm>
-0.00583036

>  <SCORE.INTRA>
-7.3674

>  <SCORE.INTRA.DIHEDRAL>
-13.3325

>  <SCORE.INTRA.DIHEDRAL.0>
19.1003

>  <SCORE.INTRA.POLAR>
0

>  <SCORE.INTRA.POLAR.0>
0

>  <SCORE.INTRA.REPUL>
0

>  <SCORE.INTRA.REPUL.0>
0

>  <SCORE.INTRA.SOLV>
-0.0793119

>  <SCORE.INTRA.SOLV.lig_0>
-47.5333

>  <SCORE.INTRA.VDW>
-0.6615

>  <SCORE.INTRA.VDW.0>
-0.287413

>  <SCORE.INTRA.norm>
-0.526243

>  <SCORE.RESTR>
0

>  <SCORE.RESTR.CAVITY>
0

>  <SCORE.RESTR.norm>
0

>  <SCORE.SYSTEM>
0

>  <SCORE.SYSTEM.CONST>
0

>  <SCORE.SYSTEM.DIHEDRAL>
0

>  <SCORE.SYSTEM.SOLV>
0

>  <SCORE.SYSTEM.norm>
0

>  <SCORE.heavy>
14

>  <SCORE.norm>
-0.532073

>  <RMSD>
7.657

$$$$
ligand
 OpenBabel11021811493D
libRbt.so/2013.1/901 2013/11/27
 14 13  0  0  0  0  0  0  0  0999 V2000
   49.7621    4.1722   -4.1955 N   0  0  0  0  0  0  0  0  0  0  0  0
   50.1757    3.3993   -3.0451 C   0  0  0  0  0  0  0  0  0  0  0  0
   50.9446    4.3156   -2.0710 C   0  0  0  0  0  0  0  0  0  0  0  0
   51.5144    3.5851   -0.8451 C   0  0  0  0  0  0  0  0  0  0  0  0
   52.5270    2.5559   -1.1262 N   0  0  0  0  0  0  0  0  0  0  0  0
   52.5292    1.2328   -0.5045 C   0  0  0  0  0  0  0  0  0  0  0  0
   51.5414    0.2675   -1.1517 C   0  0  0  0  0  0  0  0  0  0  0  0
   51.7112    0.1415   -2.6692 C   0  0  0  0  0  0  0  0  0  0  0  0
   50.6745   -0.8041   -3.2871 C   0  0  0  0  0  0  0  0  0  0  0  0
   50.7369   -0.7054   -4.7438 N   0  0  0  0  0  0  0  0  0  0  0  0
   49.9081   -1.4876   -5.6629 C   0  0  0  0  0  0  0  0  0  0  0  0
   48.4098   -1.1885   -5.5152 C   0  0  0  0  0  0  0  0  0  0  0  0
   47.5707   -2.0535   -6.4615 C   0  0  0  0  0  0  0  0  0  0  0  0
   47.8964   -1.7151   -7.8438 N   0  0  0  0  0  0  0  0  0  0  0  0
  1  2  1  0  0  0  0
  2  3  1  0  0  0  0
  3  4  1  0  0  0  0
  4  5  1  0  0  0  0
  5  6  1  0  0  0  0
  6  7  1  0  0  0  0
  7  8  1  0  0  0  0
  8  9  1  0  0  0  0
  9 10  1  0  0  0  0
 10 11  1  0  0  0  0
 11 12  1  0  0  0  0
 12 13  1  0  0  0  0
 13 14  1  0  0  0  0
M  END
>  <CHROM.1>
-176.35413024,63.26763577,-134.88631622,79.59950119,53.34942233,-178.29008316
170.31322898,178.67360836,63.10492121,-178.31187988,-64.01261294,50.42164078
0.83673630,-3.50837244,0.81965912,-0.90633445,0.19858503

>  <Name>
ligand

>  <RI>
0

>  <Rbt.Current_Directory>
/home/itssahil/PROJECTS/Mol_Feturizer/New_Systems/rnas/4FAW

>  <Rbt.Executable>
rbdock ($Id: //depot/dev/client3/rdock/2013.1/src/exe/rbdock.cxx#4 $)

>  <Rbt.Library>
libRbt.so (2013.1, Build901 2013/11/27)

>  <Rbt.Parameter_File>
/export/apps/rDock/src/rDock_2013.1_src/data/scripts/dock_solv.prm

>  <Rbt.Receptor>
prm/pocket_docking_7.prm

>  <SCORE>
-9.82272

>  <SCORE.INTER>
-0.403959

>  <SCORE.INTER.CONST>
1

>  <SCORE.INTER.POLAR>
0

>  <SCORE.INTER.ROT>
11

>  <SCORE.INTER.SOLV>
7.86695

>  <SCORE.INTER.VDW>
-13.825

>  <SCORE.INTER.norm>
-0.0288542

>  <SCORE.INTRA>
-9.41876

>  <SCORE.INTRA.DIHEDRAL>
-17.0878

>  <SCORE.INTRA.DIHEDRAL.0>
19.1003

>  <SCORE.INTRA.POLAR>
0

>  <SCORE.INTRA.POLAR.0>
0

>  <SCORE.INTRA.REPUL>
0

>  <SCORE.INTRA.REPUL.0>
0

>  <SCORE.INTRA.SOLV>
0.112807

>  <SCORE.INTRA.SOLV.lig_0>
-47.5333

>  <SCORE.INTRA.VDW>
-0.931286

>  <SCORE.INTRA.VDW.0>
-0.287413

>  <SCORE.INTRA.norm>
-0.672768

>  <SCORE.RESTR>
0

>  <SCORE.RESTR.CAVITY>
0

>  <SCORE.RESTR.norm>
0

>  <SCORE.SYSTEM>
0

>  <SCORE.SYSTEM.CONST>
0

>  <SCORE.SYSTEM.DIHEDRAL>
0

>  <SCORE.SYSTEM.SOLV>
0

>  <SCORE.SYSTEM.norm>
0

>  <SCORE.heavy>
14

>  <SCORE.norm>
-0.701623

>  <RMSD>
7.770

$$$$
ligand
 OpenBabel11021811493D
libRbt.so/2013.1/901 2013/11/27
 14 13  0  0  0  0  0  0  0  0999 V2000
   51.4560    3.0972    1.2423 N   0  0  0  0  0  0  0  0  0  0  0  0
   52.7425    2.4598    1.0672 C   0  0  0  0  0  0  0  0  0  0  0  0
   52.8793    1.9918   -0.3963 C   0  0  0  0  0  0  0  0  0  0  0  0
   51.9151    0.8593   -0.7821 C   0  0  0  0  0  0  0  0  0  0  0  0
   52.0021    0.3903   -2.1735 N   0  0  0  0  0  0  0  0  0  0  0  0
   51.0202   -0.5006   -2.7893 C   0  0  0  0  0  0  0  0  0  0  0  0
   50.9917   -0.3971   -4.3107 C   0  0  0  0  0  0  0  0  0  0  0  0
   49.8186   -1.1432   -4.9546 C   0  0  0  0  0  0  0  0  0  0  0  0
   49.8364   -1.0322   -6.4838 C   0  0  0  0  0  0  0  0  0  0  0  0
   48.6285   -1.6490   -7.0279 N   0  0  0  0  0  0  0  0  0  0  0  0
   48.4184   -1.9485   -8.4456 C   0  0  0  0  0  0  0  0  0  0  0  0
   47.9330   -0.7319   -9.2458 C   0  0  0  0  0  0  0  0  0  0  0  0
   49.0304    0.3301   -9.3701 C   0  0  0  0  0  0  0  0  0  0  0  0
   48.5224    1.4642  -10.1364 N   0  0  0  0  0  0  0  0  0  0  0  0
  1  2  1  0  0  0  0
  2  3  1  0  0  0  0
  3  4  1  0  0  0  0
  4  5  1  0  0  0  0
  5  6  1  0  0  0  0
  6  7  1  0  0  0  0
  7  8  1  0  0  0  0
  8  9  1  0  0  0  0
  9 10  1  0  0  0  0
 10 11  1  0  0  0  0
 11 12  1  0  0  0  0
 12 13  1  0  0  0  0
 13 14  1  0  0  0  0
M  END
>  <CHROM.1>
-67.10403151,179.43305851,-168.74786011,156.75432945,-170.37353327,-179.18463610
-174.51186481,-168.25450537,-82.55909417,68.98784071,-179.98134954,50.37113648
0.22763506,-4.55762594,0.02939698,-1.19575007,-0.23192865

>  <Name>
ligand

>  <RI>
0

>  <Rbt.Current_Directory>
/home/itssahil/PROJECTS/Mol_Feturizer/New_Systems/rnas/4FAW

>  <Rbt.Executable>
rbdock ($Id: //depot/dev/client3/rdock/2013.1/src/exe/rbdock.cxx#4 $)

>  <Rbt.Library>
libRbt.so (2013.1, Build901 2013/11/27)

>  <Rbt.Parameter_File>
/export/apps/rDock/src/rDock_2013.1_src/data/scripts/dock_solv.prm

>  <Rbt.Receptor>
prm/pocket_docking_8.prm

>  <SCORE>
-7.96623

>  <SCORE.INTER>
1.56067

>  <SCORE.INTER.CONST>
1

>  <SCORE.INTER.POLAR>
0

>  <SCORE.INTER.ROT>
11

>  <SCORE.INTER.SOLV>
8.92053

>  <SCORE.INTER.VDW>
-12.8664

>  <SCORE.INTER.norm>
0.111477

>  <SCORE.INTRA>
-9.5269

>  <SCORE.INTRA.DIHEDRAL>
-17.1758

>  <SCORE.INTRA.DIHEDRAL.0>
19.1003

>  <SCORE.INTRA.POLAR>
0

>  <SCORE.INTRA.POLAR.0>
0

>  <SCORE.INTRA.REPUL>
0

>  <SCORE.INTRA.REPUL.0>
0

>  <SCORE.INTRA.SOLV>
-0.456251

>  <SCORE.INTRA.SOLV.lig_0>
-47.5333

>  <SCORE.INTRA.VDW>
-0.710898

>  <SCORE.INTRA.VDW.0>
-0.287413

>  <SCORE.INTRA.norm>
-0.680493

>  <SCORE.RESTR>
0

>  <SCORE.RESTR.CAVITY>
0

>  <SCORE.RESTR.norm>
0

>  <SCORE.SYSTEM>
0

>  <SCORE.SYSTEM.CONST>
0

>  <SCORE.SYSTEM.DIHEDRAL>
0

>  <SCORE.SYSTEM.SOLV>
0

>  <SCORE.SYSTEM.norm>
0

>  <SCORE.heavy>
14

>  <SCORE.norm>
-0.569016

>  <RMSD>
7.837

$$$$
ligand
 OpenBabel11021811493D
libRbt.so/2013.1/901 2013/11/27
 14 13  0  0  0  0  0  0  0  0999 V2000
   60.0333   -3.8354    8.9710 N   0  0  0  0  0  0  0  0  0  0  0  0
   59.6699   -2.8480    9.9637 C   0  0  0  0  0  0  0  0  0  0  0  0
   59.9810   -1.4408    9.4136 C   0  0  0  0  0  0  0  0  0  0  0  0
   61.4719   -1.1955    9.1341 C   0  0  0  0  0  0  0  0  0  0  0  0
   61.8041    0.1002    8.5223 N   0  0  0  0  0  0  0  0  0  0  0  0
   61.5144    0.4344    7.1290 C   0  0  0  0  0  0  0  0  0  0  0  0
   61.0719    1.8820    6.9419 C   0  0  0  0  0  0  0  0  0  0  0  0
   61.0134    2.3211    5.4752 C   0  0  0  0  0  0  0  0  0  0  0  0
   59.8879    1.6166    4.7085 C   0  0  0  0  0  0  0  0  0  0  0  0
   59.9634    1.9806    3.2952 N   0  0  0  0  0  0  0  0  0  0  0  0
   59.3976    3.2042    2.7241 C   0  0  0  0  0  0  0  0  0  0  0  0
   57.9056    3.0706    2.3889 C   0  0  0  0  0  0  0  0  0  0  0  0
   57.6727    2.0495    1.2705 C   0  0  0  0  0  0  0  0  0  0  0  0
   58.2364    2.5593    0.0241 N   0  0  0  0  0  0  0  0  0  0  0  0
  1  2  1  0  0  0  0
  2  3  1  0  0  0  0
  3  4  1  0  0  0  0
  4  5  1  0  0  0  0
  5  6  1  0  0  0  0
  6  7  1  0  0  0  0
  7  8  1  0  0  0  0
  8  9  1  0  0  0  0
  9 10  1  0  0  0  0
 10 11  1  0  0  0  0
 11 12  1  0  0  0  0
 12 13  1  0  0  0  0
 13 14  1  0  0  0  0
M  END
>  <CHROM.1>
-62.96070641,175.97719596,-72.67996102,142.11221472,169.37955619,68.45344025
-174.73565585,-83.16667493,-83.94878413,-65.54378749,-67.19810558,59.97309079
0.70726151,5.71177951,1.24451137,0.78714654,2.35207781

>  <Name>
ligand

>  <RI>
0

>  <Rbt.Current_Directory>
/home/itssahil/PROJECTS/Mol_Feturizer/New_Systems/rnas/4FAW

>  <Rbt.Executable>
rbdock ($Id: //depot/dev/client3/rdock/2013.1/src/exe/rbdock.cxx#4 $)

>  <Rbt.Library>
libRbt.so (2013.1, Build901 2013/11/27)

>  <Rbt.Parameter_File>
/export/apps/rDock/src/rDock_2013.1_src/data/scripts/dock_solv.prm

>  <Rbt.Receptor>
prm/pocket_docking_8.prm

>  <SCORE>
-6.6192

>  <SCORE.INTER>
1.01344

>  <SCORE.INTER.CONST>
1

>  <SCORE.INTER.POLAR>
0

>  <SCORE.INTER.ROT>
11

>  <SCORE.INTER.SOLV>
11.1356

>  <SCORE.INTER.VDW>
-13.9696

>  <SCORE.INTER.norm>
0.0723887

>  <SCORE.INTRA>
-7.63264

>  <SCORE.INTRA.DIHEDRAL>
-16.1109

>  <SCORE.INTRA.DIHEDRAL.0>
19.1003

>  <SCORE.INTRA.POLAR>
0

>  <SCORE.INTRA.POLAR.0>
0

>  <SCORE.INTRA.REPUL>
0

>  <SCORE.INTRA.REPUL.0>
0

>  <SCORE.INTRA.SOLV>
1.08024

>  <SCORE.INTRA.SOLV.lig_0>
-47.5333

>  <SCORE.INTRA.VDW>
-0.117303

>  <SCORE.INTRA.VDW.0>
-0.287413

>  <SCORE.INTRA.norm>
-0.545189

>  <SCORE.RESTR>
0

>  <SCORE.RESTR.CAVITY>
0

>  <SCORE.RESTR.norm>
0

>  <SCORE.SYSTEM>
0

>  <SCORE.SYSTEM.CONST>
0

>  <SCORE.SYSTEM.DIHEDRAL>
0

>  <SCORE.SYSTEM.SOLV>
0

>  <SCORE.SYSTEM.norm>
0

>  <SCORE.heavy>
14

>  <SCORE.norm>
-0.4728

>  <RMSD>
7.907

$$$$
ligand
 OpenBabel11021811493D
libRbt.so/2013.1/901 2013/11/27
 14 13  0  0  0  0  0  0  0  0999 V2000
   49.6172    4.9838   -4.9675 N   0  0  0  0  0  0  0  0  0  0  0  0
   48.6950    4.0932   -4.2977 C   0  0  0  0  0  0  0  0  0  0  0  0
   49.4405    2.8042   -3.8948 C   0  0  0  0  0  0  0  0  0  0  0  0
   50.5686    3.0282   -2.8759 C   0  0  0  0  0  0  0  0  0  0  0  0
   51.1949    1.8117   -2.3361 N   0  0  0  0  0  0  0  0  0  0  0  0
   52.0176    0.9038   -3.1335 C   0  0  0  0  0  0  0  0  0  0  0  0
   51.4175   -0.4930   -3.2566 C   0  0  0  0  0  0  0  0  0  0  0  0
   50.2452   -0.5728   -4.2399 C   0  0  0  0  0  0  0  0  0  0  0  0
   50.7204   -0.6975   -5.6923 C   0  0  0  0  0  0  0  0  0  0  0  0
   51.3822    0.5422   -6.0932 N   0  0  0  0  0  0  0  0  0  0  0  0
   52.2543    0.6748   -7.2617 C   0  0  0  0  0  0  0  0  0  0  0  0
   53.3761    1.7017   -7.0543 C   0  0  0  0  0  0  0  0  0  0  0  0
   52.8129    3.1121   -6.8509 C   0  0  0  0  0  0  0  0  0  0  0  0
   53.9156    4.0611   -6.7293 N   0  0  0  0  0  0  0  0  0  0  0  0
  1  2  1  0  0  0  0
  2  3  1  0  0  0  0
  3  4  1  0  0  0  0
  4  5  1  0  0  0  0
  5  6  1  0  0  0  0
  6  7  1  0  0  0  0
  7  8  1  0  0  0  0
  8  9  1  0  0  0  0
  9 10  1  0  0  0  0
 10 11  1  0  0  0  0
 11 12  1  0  0  0  0
 12 13  1  0  0  0  0
 13 14  1  0  0  0  0
M  END
>  <CHROM.1>
63.61351610,172.64871554,68.08225191,-116.64238268,75.93710500,81.79724954
-67.21080682,163.45815609,-147.63009118,-63.47057915,-177.01694431,51.26117977
1.85342938,-4.90591803,3.07370072,-0.87709822,2.88614504

>  <Name>
ligand

>  <RI>
0

>  <Rbt.Current_Directory>
/home/itssahil/PROJECTS/Mol_Feturizer/New_Systems/rnas/4FAW

>  <Rbt.Executable>
rbdock ($Id: //depot/dev/client3/rdock/2013.1/src/exe/rbdock.cxx#4 $)

>  <Rbt.Library>
libRbt.so (2013.1, Build901 2013/11/27)

>  <Rbt.Parameter_File>
/export/apps/rDock/src/rDock_2013.1_src/data/scripts/dock_solv.prm

>  <Rbt.Receptor>
prm/pocket_docking_7.prm

>  <SCORE>
-6.09672

>  <SCORE.INTER>
1.54178

>  <SCORE.INTER.CONST>
1

>  <SCORE.INTER.POLAR>
0

>  <SCORE.INTER.ROT>
11

>  <SCORE.INTER.SOLV>
7.10354

>  <SCORE.INTER.VDW>
-12.2733

>  <SCORE.INTER.norm>
0.110127

>  <SCORE.INTRA>
-7.6385

>  <SCORE.INTRA.DIHEDRAL>
-13.7542

>  <SCORE.INTRA.DIHEDRAL.0>
19.1003

>  <SCORE.INTRA.POLAR>
0

>  <SCORE.INTRA.POLAR.0>
0

>  <SCORE.INTRA.REPUL>
0

>  <SCORE.INTRA.REPUL.0>
0

>  <SCORE.INTRA.SOLV>
1.89941

>  <SCORE.INTRA.SOLV.lig_0>
-47.5333

>  <SCORE.INTRA.VDW>
-1.71111

>  <SCORE.INTRA.VDW.0>
-0.287413

>  <SCORE.INTRA.norm>
-0.545607

>  <SCORE.RESTR>
0

>  <SCORE.RESTR.CAVITY>
0

>  <SCORE.RESTR.norm>
0

>  <SCORE.SYSTEM>
0

>  <SCORE.SYSTEM.CONST>
0

>  <SCORE.SYSTEM.DIHEDRAL>
0

>  <SCORE.SYSTEM.SOLV>
0

>  <SCORE.SYSTEM.norm>
0

>  <SCORE.heavy>
14

>  <SCORE.norm>
-0.43548

>  <RMSD>
8.040

$$$$
ligand
 OpenBabel11021811493D
libRbt.so/2013.1/901 2013/11/27
 14 13  0  0  0  0  0  0  0  0999 V2000
   47.3386   -1.8448   -8.5169 N   0  0  0  0  0  0  0  0  0  0  0  0
   46.8665   -2.4019   -7.2683 C   0  0  0  0  0  0  0  0  0  0  0  0
   48.0566   -2.5455   -6.2974 C   0  0  0  0  0  0  0  0  0  0  0  0
   48.6647   -1.2061   -5.8532 C   0  0  0  0  0  0  0  0  0  0  0  0
   49.8147   -1.2962   -4.9405 N   0  0  0  0  0  0  0  0  0  0  0  0
   50.2545   -0.1969   -4.0831 C   0  0  0  0  0  0  0  0  0  0  0  0
   51.4848   -0.5441   -3.2513 C   0  0  0  0  0  0  0  0  0  0  0  0
   51.7744    0.4634   -2.1339 C   0  0  0  0  0  0  0  0  0  0  0  0
   52.1616    1.8400   -2.6870 C   0  0  0  0  0  0  0  0  0  0  0  0
   53.3645    1.7113   -3.5068 N   0  0  0  0  0  0  0  0  0  0  0  0
   54.0657    2.8352   -4.1302 C   0  0  0  0  0  0  0  0  0  0  0  0
   53.2603    3.4845   -5.2642 C   0  0  0  0  0  0  0  0  0  0  0  0
   53.0000    2.4940   -6.4038 C   0  0  0  0  0  0  0  0  0  0  0  0
   54.2618    2.1733   -7.0645 N   0  0  0  0  0  0  0  0  0  0  0  0
  1  2  1  0  0  0  0
  2  3  1  0  0  0  0
  3  4  1  0  0  0  0
  4  5  1  0  0  0  0
  5  6  1  0  0  0  0
  6  7  1  0  0  0  0
  7  8  1  0  0  0  0
  8  9  1  0  0  0  0
  9 10  1  0  0  0  0
 10 11  1  0  0  0  0
 11 12  1  0  0  0  0
 12 13  1  0  0  0  0
 13 14  1  0  0  0  0
M  END
>  <CHROM.1>
66.20848734,-179.20285295,-159.67154559,-179.04354559,-167.22682924,-65.84684492
-60.12437997,-176.20993645,-68.86008185,-62.01437840,-67.70175102,51.02626442
0.35479934,-5.09970762,-2.92890420,0.70253064,1.75120817

>  <Name>
ligand

>  <RI>
0

>  <Rbt.Current_Directory>
/home/itssahil/PROJECTS/Mol_Feturizer/New_Systems/rnas/4FAW

>  <Rbt.Executable>
rbdock ($Id: //depot/dev/client3/rdock/2013.1/src/exe/rbdock.cxx#4 $)

>  <Rbt.Library>
libRbt.so (2013.1, Build901 2013/11/27)

>  <Rbt.Parameter_File>
/export/apps/rDock/src/rDock_2013.1_src/data/scripts/dock_solv.prm

>  <Rbt.Receptor>
prm/pocket_docking_8.prm

>  <SCORE>
-7.98161

>  <SCORE.INTER>
0.211367

>  <SCORE.INTER.CONST>
1

>  <SCORE.INTER.POLAR>
0

>  <SCORE.INTER.ROT>
11

>  <SCORE.INTER.SOLV>
11.7224

>  <SCORE.INTER.VDW>
-14.6999

>  <SCORE.INTER.norm>
0.0150976

>  <SCORE.INTRA>
-8.19297

>  <SCORE.INTRA.DIHEDRAL>
-17.5948

>  <SCORE.INTRA.DIHEDRAL.0>
19.1003

>  <SCORE.INTRA.POLAR>
0

>  <SCORE.INTRA.POLAR.0>
0

>  <SCORE.INTRA.REPUL>
0

>  <SCORE.INTRA.REPUL.0>
0

>  <SCORE.INTRA.SOLV>
1.60436

>  <SCORE.INTRA.SOLV.lig_0>
-47.5333

>  <SCORE.INTRA.VDW>
-0.197761

>  <SCORE.INTRA.VDW.0>
-0.287413

>  <SCORE.INTRA.norm>
-0.585212

>  <SCORE.RESTR>
0

>  <SCORE.RESTR.CAVITY>
0

>  <SCORE.RESTR.norm>
0

>  <SCORE.SYSTEM>
0

>  <SCORE.SYSTEM.CONST>
0

>  <SCORE.SYSTEM.DIHEDRAL>
0

>  <SCORE.SYSTEM.SOLV>
0

>  <SCORE.SYSTEM.norm>
0

>  <SCORE.heavy>
14

>  <SCORE.norm>
-0.570115

>  <RMSD>
8.120

$$$$
ligand
 OpenBabel11021811493D
libRbt.so/2013.1/901 2013/11/27
 14 13  0  0  0  0  0  0  0  0999 V2000
   62.9178   -4.7813    8.9049 N   0  0  0  0  0  0  0  0  0  0  0  0
   63.1967   -3.3668    8.7886 C   0  0  0  0  0  0  0  0  0  0  0  0
   61.8641   -2.5906    8.7527 C   0  0  0  0  0  0  0  0  0  0  0  0
   62.0302   -1.0732    8.5767 C   0  0  0  0  0  0  0  0  0  0  0  0
   62.6989   -0.6412    7.3398 N   0  0  0  0  0  0  0  0  0  0  0  0
   62.2897   -1.0756    6.0054 C   0  0  0  0  0  0  0  0  0  0  0  0
   61.0086   -0.4015    5.5249 C   0  0  0  0  0  0  0  0  0  0  0  0
   61.1593    1.1047    5.2882 C   0  0  0  0  0  0  0  0  0  0  0  0
   59.9031    1.7159    4.6564 C   0  0  0  0  0  0  0  0  0  0  0  0
   59.6920    1.1298    3.3344 N   0  0  0  0  0  0  0  0  0  0  0  0
   59.0397   -0.1588    3.0947 C   0  0  0  0  0  0  0  0  0  0  0  0
   58.9713   -0.5239    1.6054 C   0  0  0  0  0  0  0  0  0  0  0  0
   57.9554    0.3490    0.8614 C   0  0  0  0  0  0  0  0  0  0  0  0
   58.4520    1.7202    0.7946 N   0  0  0  0  0  0  0  0  0  0  0  0
  1  2  1  0  0  0  0
  2  3  1  0  0  0  0
  3  4  1  0  0  0  0
  4  5  1  0  0  0  0
  5  6  1  0  0  0  0
  6  7  1  0  0  0  0
  7  8  1  0  0  0  0
  8  9  1  0  0  0  0
  9 10  1  0  0  0  0
 10 11  1  0  0  0  0
 11 12  1  0  0  0  0
 12 13  1  0  0  0  0
 13 14  1  0  0  0  0
M  END
>  <CHROM.1>
-177.81399294,60.71812465,52.17572854,74.59194805,66.56582334,173.48891574
-63.30536105,82.19724564,-179.42218334,-71.78465691,68.96058954,60.79843351
-0.61379896,5.25207415,0.45310444,1.03970893,3.12056241

>  <Name>
ligand

>  <RI>
0

>  <Rbt.Current_Directory>
/home/itssahil/PROJECTS/Mol_Feturizer/New_Systems/rnas/4FAW

>  <Rbt.Executable>
rbdock ($Id: //depot/dev/client3/rdock/2013.1/src/exe/rbdock.cxx#4 $)

>  <Rbt.Library>
libRbt.so (2013.1, Build901 2013/11/27)

>  <Rbt.Parameter_File>
/export/apps/rDock/src/rDock_2013.1_src/data/scripts/dock_solv.prm

>  <Rbt.Receptor>
prm/pocket_docking_8.prm

>  <SCORE>
-4.55911

>  <SCORE.INTER>
2.92586

>  <SCORE.INTER.CONST>
1

>  <SCORE.INTER.POLAR>
0

>  <SCORE.INTER.ROT>
11

>  <SCORE.INTER.SOLV>
11.0772

>  <SCORE.INTER.VDW>
-12.6751

>  <SCORE.INTER.norm>
0.20899

>  <SCORE.INTRA>
-7.48497

>  <SCORE.INTRA.DIHEDRAL>
-17.316

>  <SCORE.INTRA.DIHEDRAL.0>
19.1003

>  <SCORE.INTRA.POLAR>
0

>  <SCORE.INTRA.POLAR.0>
0

>  <SCORE.INTRA.REPUL>
0

>  <SCORE.INTRA.REPUL.0>
0

>  <SCORE.INTRA.SOLV>
2.42463

>  <SCORE.INTRA.SOLV.lig_0>
-47.5333

>  <SCORE.INTRA.VDW>
-0.0393108

>  <SCORE.INTRA.VDW.0>
-0.287413

>  <SCORE.INTRA.norm>
-0.534641

>  <SCORE.RESTR>
0

>  <SCORE.RESTR.CAVITY>
0

>  <SCORE.RESTR.norm>
0

>  <SCORE.SYSTEM>
0

>  <SCORE.SYSTEM.CONST>
0

>  <SCORE.SYSTEM.DIHEDRAL>
0

>  <SCORE.SYSTEM.SOLV>
0

>  <SCORE.SYSTEM.norm>
0

>  <SCORE.heavy>
14

>  <SCORE.norm>
-0.325651

>  <RMSD>
8.183

$$$$
ligand
 OpenBabel11021811493D
libRbt.so/2013.1/901 2013/11/27
 14 13  0  0  0  0  0  0  0  0999 V2000
   49.0683   -2.7411   -6.5779 N   0  0  0  0  0  0  0  0  0  0  0  0
   48.5525   -2.6695   -5.2284 C   0  0  0  0  0  0  0  0  0  0  0  0
   48.3396   -1.1900   -4.8471 C   0  0  0  0  0  0  0  0  0  0  0  0
   49.6424   -0.3866   -4.7122 C   0  0  0  0  0  0  0  0  0  0  0  0
   50.5218   -0.7746   -3.5988 N   0  0  0  0  0  0  0  0  0  0  0  0
   51.7204   -0.0295   -3.2178 C   0  0  0  0  0  0  0  0  0  0  0  0
   51.4524    1.4540   -2.9855 C   0  0  0  0  0  0  0  0  0  0  0  0
   52.7057    2.2531   -2.6138 C   0  0  0  0  0  0  0  0  0  0  0  0
   53.7254    2.2885   -3.7583 C   0  0  0  0  0  0  0  0  0  0  0  0
   53.0700    2.7610   -4.9761 N   0  0  0  0  0  0  0  0  0  0  0  0
   53.7118    2.8245   -6.2904 C   0  0  0  0  0  0  0  0  0  0  0  0
   54.2840    4.2132   -6.6074 C   0  0  0  0  0  0  0  0  0  0  0  0
   54.7828    4.2958   -8.0538 C   0  0  0  0  0  0  0  0  0  0  0  0
   55.1839    5.6679   -8.3502 N   0  0  0  0  0  0  0  0  0  0  0  0
  1  2  1  0  0  0  0
  2  3  1  0  0  0  0
  3  4  1  0  0  0  0
  4  5  1  0  0  0  0
  5  6  1  0  0  0  0
  6  7  1  0  0  0  0
  7  8  1  0  0  0  0
  8  9  1  0  0  0  0
  9 10  1  0  0  0  0
 10 11  1  0  0  0  0
 11 12  1  0  0  0  0
 12 13  1  0  0  0  0
 13 14  1  0  0  0  0
M  END
>  <CHROM.1>
-67.70622790,-66.70947802,-172.59475974,52.86937983,-178.79191003,65.05262038
53.15492176,-175.10483671,-95.89041563,-172.58138419,174.01041255,51.91148321
1.28335195,-5.12953223,2.83603710,0.83189709,1.63378901

>  <Name>
ligand

>  <RI>
0

>  <Rbt.Current_Directory>
/home/itssahil/PROJECTS/Mol_Feturizer/New_Systems/rnas/4FAW

>  <Rbt.Executable>
rbdock ($Id: //depot/dev/client3/rdock/2013.1/src/exe/rbdock.cxx#4 $)

>  <Rbt.Library>
libRbt.so (2013.1, Build901 2013/11/27)

>  <Rbt.Parameter_File>
/export/apps/rDock/src/rDock_2013.1_src/data/scripts/dock_solv.prm

>  <Rbt.Receptor>
prm/pocket_docking_7.prm

>  <SCORE>
-7.67787

>  <SCORE.INTER>
0.292181

>  <SCORE.INTER.CONST>
1

>  <SCORE.INTER.POLAR>
0

>  <SCORE.INTER.ROT>
11

>  <SCORE.INTER.SOLV>
8.43906

>  <SCORE.INTER.VDW>
-13.5516

>  <SCORE.INTER.norm>
0.0208701

>  <SCORE.INTRA>
-7.97005

>  <SCORE.INTRA.DIHEDRAL>
-17.1949

>  <SCORE.INTRA.DIHEDRAL.0>
19.1003

>  <SCORE.INTRA.POLAR>
0

>  <SCORE.INTRA.POLAR.0>
0

>  <SCORE.INTRA.REPUL>
0

>  <SCORE.INTRA.REPUL.0>
0

>  <SCORE.INTRA.SOLV>
0.844791

>  <SCORE.INTRA.SOLV.lig_0>
-47.5333

>  <SCORE.INTRA.VDW>
0.205014

>  <SCORE.INTRA.VDW.0>
-0.287413

>  <SCORE.INTRA.norm>
-0.569289

>  <SCORE.RESTR>
0

>  <SCORE.RESTR.CAVITY>
0

>  <SCORE.RESTR.norm>
0

>  <SCORE.SYSTEM>
0

>  <SCORE.SYSTEM.CONST>
0

>  <SCORE.SYSTEM.DIHEDRAL>
0

>  <SCORE.SYSTEM.SOLV>
0

>  <SCORE.SYSTEM.norm>
0

>  <SCORE.heavy>
14

>  <SCORE.norm>
-0.548419

>  <RMSD>
8.266

$$$$
ligand
 OpenBabel11021811493D
libRbt.so/2013.1/901 2013/11/27
 14 13  0  0  0  0  0  0  0  0999 V2000
   64.2763   -5.0840    7.9474 N   0  0  0  0  0  0  0  0  0  0  0  0
   63.6942   -5.6473    6.7491 C   0  0  0  0  0  0  0  0  0  0  0  0
   64.5048   -5.1760    5.5242 C   0  0  0  0  0  0  0  0  0  0  0  0
   63.9599   -5.6863    4.1812 C   0  0  0  0  0  0  0  0  0  0  0  0
   62.5828   -5.2854    3.8548 N   0  0  0  0  0  0  0  0  0  0  0  0
   62.0150   -5.3640    2.5100 C   0  0  0  0  0  0  0  0  0  0  0  0
   60.6460   -4.7007    2.4003 C   0  0  0  0  0  0  0  0  0  0  0  0
   60.6624   -3.2027    2.7214 C   0  0  0  0  0  0  0  0  0  0  0  0
   59.2626   -2.5821    2.6412 C   0  0  0  0  0  0  0  0  0  0  0  0
   58.7764   -2.6608    1.2654 N   0  0  0  0  0  0  0  0  0  0  0  0
   57.8556   -1.6991    0.6565 C   0  0  0  0  0  0  0  0  0  0  0  0
   58.3343   -0.2471    0.7936 C   0  0  0  0  0  0  0  0  0  0  0  0
   57.3035    0.7373    0.2314 C   0  0  0  0  0  0  0  0  0  0  0  0
   57.8252    2.0968    0.3351 N   0  0  0  0  0  0  0  0  0  0  0  0
  1  2  1  0  0  0  0
  2  3  1  0  0  0  0
  3  4  1  0  0  0  0
  4  5  1  0  0  0  0
  5  6  1  0  0  0  0
  6  7  1  0  0  0  0
  7  8  1  0  0  0  0
  8  9  1  0  0  0  0
  9 10  1  0  0  0  0
 10 11  1  0  0  0  0
 11 12  1  0  0  0  0
 12 13  1  0  0  0  0
 13 14  1  0  0  0  0
M  END
>  <CHROM.1>
-178.66167464,60.15182124,163.41950340,-171.55651619,61.19672111,-178.28452110
-64.41763689,-150.07950573,52.92646180,-176.12893109,-177.74504889,60.83562952
-3.17884558,2.98638631,-0.20525083,-0.88640421,0.55219005

>  <Name>
ligand

>  <RI>
0

>  <Rbt.Current_Directory>
/home/itssahil/PROJECTS/Mol_Feturizer/New_Systems/rnas/4FAW

>  <Rbt.Executable>
rbdock ($Id: //depot/dev/client3/rdock/2013.1/src/exe/rbdock.cxx#4 $)

>  <Rbt.Library>
libRbt.so (2013.1, Build901 2013/11/27)

>  <Rbt.Parameter_File>
/export/apps/rDock/src/rDock_2013.1_src/data/scripts/dock_solv.prm

>  <Rbt.Receptor>
prm/pocket_docking_8.prm

>  <SCORE>
-6.19298

>  <SCORE.INTER>
3.45891

>  <SCORE.INTER.CONST>
1

>  <SCORE.INTER.POLAR>
0

>  <SCORE.INTER.ROT>
11

>  <SCORE.INTER.SOLV>
14.022

>  <SCORE.INTER.VDW>
-13.3014

>  <SCORE.INTER.norm>
0.247065

>  <SCORE.INTRA>
-9.65189

>  <SCORE.INTRA.DIHEDRAL>
-18.0184

>  <SCORE.INTRA.DIHEDRAL.0>
19.1003

>  <SCORE.INTRA.POLAR>
0

>  <SCORE.INTRA.POLAR.0>
0

>  <SCORE.INTRA.REPUL>
0

>  <SCORE.INTRA.REPUL.0>
0

>  <SCORE.INTRA.SOLV>
-0.406314

>  <SCORE.INTRA.SOLV.lig_0>
-47.5333

>  <SCORE.INTRA.VDW>
-0.439547

>  <SCORE.INTRA.VDW.0>
-0.287413

>  <SCORE.INTRA.norm>
-0.689421

>  <SCORE.RESTR>
0

>  <SCORE.RESTR.CAVITY>
0

>  <SCORE.RESTR.norm>
0

>  <SCORE.SYSTEM>
0

>  <SCORE.SYSTEM.CONST>
0

>  <SCORE.SYSTEM.DIHEDRAL>
0

>  <SCORE.SYSTEM.SOLV>
0

>  <SCORE.SYSTEM.norm>
0

>  <SCORE.heavy>
14

>  <SCORE.norm>
-0.442355

>  <RMSD>
8.278

$$$$
ligand
 OpenBabel11021811493D
libRbt.so/2013.1/901 2013/11/27
 14 13  0  0  0  0  0  0  0  0999 V2000
   57.1584    1.1548    1.2000 N   0  0  0  0  0  0  0  0  0  0  0  0
   58.2383    0.1930    1.2305 C   0  0  0  0  0  0  0  0  0  0  0  0
   57.6829   -1.1760    1.6743 C   0  0  0  0  0  0  0  0  0  0  0  0
   58.7546   -2.2679    1.8168 C   0  0  0  0  0  0  0  0  0  0  0  0
   59.8134   -2.0015    2.8024 N   0  0  0  0  0  0  0  0  0  0  0  0
   61.0493   -2.7770    2.8909 C   0  0  0  0  0  0  0  0  0  0  0  0
   60.8853   -4.0739    3.6767 C   0  0  0  0  0  0  0  0  0  0  0  0
   60.4260   -3.8613    5.1228 C   0  0  0  0  0  0  0  0  0  0  0  0
   60.3232   -5.1827    5.8937 C   0  0  0  0  0  0  0  0  0  0  0  0
   59.7820   -4.9248    7.2264 N   0  0  0  0  0  0  0  0  0  0  0  0
   58.3697   -4.6628    7.5100 C   0  0  0  0  0  0  0  0  0  0  0  0
   57.9689   -3.2054    7.2425 C   0  0  0  0  0  0  0  0  0  0  0  0
   56.4992   -2.9555    7.5965 C   0  0  0  0  0  0  0  0  0  0  0  0
   56.1731   -1.5541    7.3492 N   0  0  0  0  0  0  0  0  0  0  0  0
  1  2  1  0  0  0  0
  2  3  1  0  0  0  0
  3  4  1  0  0  0  0
  4  5  1  0  0  0  0
  5  6  1  0  0  0  0
  6  7  1  0  0  0  0
  7  8  1  0  0  0  0
  8  9  1  0  0  0  0
  9 10  1  0  0  0  0
 10 11  1  0  0  0  0
 11 12  1  0  0  0  0
 12 13  1  0  0  0  0
 13 14  1  0  0  0  0
M  END
>  <CHROM.1>
-176.94736378,60.58031047,-167.24062993,-82.30178686,-59.59875731,-177.87960849
-175.57174469,76.66768445,-81.36516998,-177.98688735,178.95346179,58.79481292
-2.66429334,4.51656846,1.63126670,0.63079344,-1.03311702

>  <Name>
ligand

>  <RI>
0

>  <Rbt.Current_Directory>
/home/itssahil/PROJECTS/Mol_Feturizer/New_Systems/rnas/4FAW

>  <Rbt.Executable>
rbdock ($Id: //depot/dev/client3/rdock/2013.1/src/exe/rbdock.cxx#4 $)

>  <Rbt.Library>
libRbt.so (2013.1, Build901 2013/11/27)

>  <Rbt.Parameter_File>
/export/apps/rDock/src/rDock_2013.1_src/data/scripts/dock_solv.prm

>  <Rbt.Receptor>
prm/pocket_docking_6.prm

>  <SCORE>
-7.76162

>  <SCORE.INTER>
2.24271

>  <SCORE.INTER.CONST>
1

>  <SCORE.INTER.POLAR>
0

>  <SCORE.INTER.ROT>
11

>  <SCORE.INTER.SOLV>
8.28715

>  <SCORE.INTER.VDW>
-12.2006

>  <SCORE.INTER.norm>
0.160193

>  <SCORE.INTRA>
-10.0043

>  <SCORE.INTRA.DIHEDRAL>
-17.9052

>  <SCORE.INTRA.DIHEDRAL.0>
19.1003

>  <SCORE.INTRA.POLAR>
0

>  <SCORE.INTRA.POLAR.0>
0

>  <SCORE.INTRA.REPUL>
0

>  <SCORE.INTRA.REPUL.0>
0

>  <SCORE.INTRA.SOLV>
-0.821693

>  <SCORE.INTRA.SOLV.lig_0>
-47.5333

>  <SCORE.INTRA.VDW>
-0.640854

>  <SCORE.INTRA.VDW.0>
-0.287413

>  <SCORE.INTRA.norm>
-0.714594

>  <SCORE.RESTR>
0

>  <SCORE.RESTR.CAVITY>
0

>  <SCORE.RESTR.norm>
0

>  <SCORE.SYSTEM>
0

>  <SCORE.SYSTEM.CONST>
0

>  <SCORE.SYSTEM.DIHEDRAL>
0

>  <SCORE.SYSTEM.SOLV>
0

>  <SCORE.SYSTEM.norm>
0

>  <SCORE.heavy>
14

>  <SCORE.norm>
-0.554401

>  <RMSD>
8.351

$$$$
ligand
 OpenBabel11021811493D
libRbt.so/2013.1/901 2013/11/27
 14 13  0  0  0  0  0  0  0  0999 V2000
   51.5906   -0.7665  -10.5066 N   0  0  0  0  0  0  0  0  0  0  0  0
   50.6690   -0.6335   -9.3997 C   0  0  0  0  0  0  0  0  0  0  0  0
   49.3157   -1.2619   -9.7912 C   0  0  0  0  0  0  0  0  0  0  0  0
   48.2515   -1.1913   -8.6851 C   0  0  0  0  0  0  0  0  0  0  0  0
   48.6429   -1.7524   -7.3830 N   0  0  0  0  0  0  0  0  0  0  0  0
   47.7558   -1.7964   -6.2219 C   0  0  0  0  0  0  0  0  0  0  0  0
   48.5012   -2.0135   -4.9090 C   0  0  0  0  0  0  0  0  0  0  0  0
   49.4291   -0.8543   -4.5313 C   0  0  0  0  0  0  0  0  0  0  0  0
   50.2328   -1.1520   -3.2599 C   0  0  0  0  0  0  0  0  0  0  0  0
   51.0941   -0.0118   -2.9536 N   0  0  0  0  0  0  0  0  0  0  0  0
   51.8769    0.1277   -1.7243 C   0  0  0  0  0  0  0  0  0  0  0  0
   51.7659    1.5270   -1.1031 C   0  0  0  0  0  0  0  0  0  0  0  0
   52.6936    1.6770    0.1071 C   0  0  0  0  0  0  0  0  0  0  0  0
   52.4871    2.9876    0.7162 N   0  0  0  0  0  0  0  0  0  0  0  0
  1  2  1  0  0  0  0
  2  3  1  0  0  0  0
  3  4  1  0  0  0  0
  4  5  1  0  0  0  0
  5  6  1  0  0  0  0
  6  7  1  0  0  0  0
  7  8  1  0  0  0  0
  8  9  1  0  0  0  0
  9 10  1  0  0  0  0
 10 11  1  0  0  0  0
 11 12  1  0  0  0  0
 12 13  1  0  0  0  0
 13 14  1  0  0  0  0
M  END
>  <CHROM.1>
179.54109163,-54.33428675,-178.82240315,-162.17750775,65.38210016,-175.98105972
-179.94527350,172.03088091,-134.63075636,-174.86559558,-176.19754105,50.30733050
-0.36551167,-4.97465761,-1.91758907,0.59321205,1.45393076

>  <Name>
ligand

>  <RI>
0

>  <Rbt.Current_Directory>
/home/itssahil/PROJECTS/Mol_Feturizer/New_Systems/rnas/4FAW

>  <Rbt.Executable>
rbdock ($Id: //depot/dev/client3/rdock/2013.1/src/exe/rbdock.cxx#4 $)

>  <Rbt.Library>
libRbt.so (2013.1, Build901 2013/11/27)

>  <Rbt.Parameter_File>
/export/apps/rDock/src/rDock_2013.1_src/data/scripts/dock_solv.prm

>  <Rbt.Receptor>
prm/pocket_docking_8.prm

>  <SCORE>
-10.0421

>  <SCORE.INTER>
0.063563

>  <SCORE.INTER.CONST>
1

>  <SCORE.INTER.POLAR>
0

>  <SCORE.INTER.ROT>
11

>  <SCORE.INTER.SOLV>
6.31148

>  <SCORE.INTER.VDW>
-12.9948

>  <SCORE.INTER.norm>
0.00454022

>  <SCORE.INTRA>
-10.1056

>  <SCORE.INTRA.DIHEDRAL>
-17.3211

>  <SCORE.INTRA.DIHEDRAL.0>
19.1003

>  <SCORE.INTRA.POLAR>
0

>  <SCORE.INTRA.POLAR.0>
0

>  <SCORE.INTRA.REPUL>
0

>  <SCORE.INTRA.REPUL.0>
0

>  <SCORE.INTRA.SOLV>
-0.816898

>  <SCORE.INTRA.SOLV.lig_0>
-47.5333

>  <SCORE.INTRA.VDW>
-1.03663

>  <SCORE.INTRA.VDW.0>
-0.287413

>  <SCORE.INTRA.norm>
-0.72183

>  <SCORE.RESTR>
0

>  <SCORE.RESTR.CAVITY>
0

>  <SCORE.RESTR.norm>
0

>  <SCORE.SYSTEM>
0

>  <SCORE.SYSTEM.CONST>
0

>  <SCORE.SYSTEM.DIHEDRAL>
0

>  <SCORE.SYSTEM.SOLV>
0

>  <SCORE.SYSTEM.norm>
0

>  <SCORE.heavy>
14

>  <SCORE.norm>
-0.71729

>  <RMSD>
8.438

$$$$
ligand
 OpenBabel11021811493D
libRbt.so/2013.1/901 2013/11/27
 14 13  0  0  0  0  0  0  0  0999 V2000
   55.4825    3.7588   -9.4356 N   0  0  0  0  0  0  0  0  0  0  0  0
   54.3437    3.6871   -8.5468 C   0  0  0  0  0  0  0  0  0  0  0  0
   54.8285    3.2963   -7.1355 C   0  0  0  0  0  0  0  0  0  0  0  0
   53.7111    3.2524   -6.0816 C   0  0  0  0  0  0  0  0  0  0  0  0
   54.1385    2.9492   -4.7072 N   0  0  0  0  0  0  0  0  0  0  0  0
   53.2148    2.5801   -3.6361 C   0  0  0  0  0  0  0  0  0  0  0  0
   52.4616    1.2841   -3.9175 C   0  0  0  0  0  0  0  0  0  0  0  0
   51.6759    0.7568   -2.7124 C   0  0  0  0  0  0  0  0  0  0  0  0
   51.0450   -0.6124   -2.9918 C   0  0  0  0  0  0  0  0  0  0  0  0
   50.0769   -0.4865   -4.0792 N   0  0  0  0  0  0  0  0  0  0  0  0
   49.2218   -1.5748   -4.5565 C   0  0  0  0  0  0  0  0  0  0  0  0
   48.7047   -1.3441   -5.9833 C   0  0  0  0  0  0  0  0  0  0  0  0
   47.9055   -2.5490   -6.4904 C   0  0  0  0  0  0  0  0  0  0  0  0
   47.4884   -2.3083   -7.8686 N   0  0  0  0  0  0  0  0  0  0  0  0
  1  2  1  0  0  0  0
  2  3  1  0  0  0  0
  3  4  1  0  0  0  0
  4  5  1  0  0  0  0
  5  6  1  0  0  0  0
  6  7  1  0  0  0  0
  7  8  1  0  0  0  0
  8  9  1  0  0  0  0
  9 10  1  0  0  0  0
 10 11  1  0  0  0  0
 11 12  1  0  0  0  0
 12 13  1  0  0  0  0
 13 14  1  0  0  0  0
M  END
>  <CHROM.1>
177.27005749,-177.08230055,-166.24043890,62.22618780,170.04717699,-174.47374852
-62.83034139,-175.94760718,-158.72031753,175.55701946,-177.42248710,51.73559900
0.90637241,-5.58123447,0.23310510,-0.70961257,-1.50634061

>  <Name>
ligand

>  <RI>
0

>  <Rbt.Current_Directory>
/home/itssahil/PROJECTS/Mol_Feturizer/New_Systems/rnas/4FAW

>  <Rbt.Executable>
rbdock ($Id: //depot/dev/client3/rdock/2013.1/src/exe/rbdock.cxx#4 $)

>  <Rbt.Library>
libRbt.so (2013.1, Build901 2013/11/27)

>  <Rbt.Parameter_File>
/export/apps/rDock/src/rDock_2013.1_src/data/scripts/dock_solv.prm

>  <Rbt.Receptor>
prm/pocket_docking_8.prm

>  <SCORE>
-9.78583

>  <SCORE.INTER>
0.286868

>  <SCORE.INTER.CONST>
1

>  <SCORE.INTER.POLAR>
0

>  <SCORE.INTER.ROT>
11

>  <SCORE.INTER.SOLV>
8.12945

>  <SCORE.INTER.VDW>
-13.4519

>  <SCORE.INTER.norm>
0.0204906

>  <SCORE.INTRA>
-10.0727

>  <SCORE.INTRA.DIHEDRAL>
-17.9147

>  <SCORE.INTRA.DIHEDRAL.0>
19.1003

>  <SCORE.INTRA.POLAR>
0

>  <SCORE.INTRA.POLAR.0>
0

>  <SCORE.INTRA.REPUL>
0

>  <SCORE.INTRA.REPUL.0>
0

>  <SCORE.INTRA.SOLV>
-1.09448

>  <SCORE.INTRA.SOLV.lig_0>
-47.5333

>  <SCORE.INTRA.VDW>
-0.568116

>  <SCORE.INTRA.VDW.0>
-0.287413

>  <SCORE.INTRA.norm>
-0.719478

>  <SCORE.RESTR>
0

>  <SCORE.RESTR.CAVITY>
0

>  <SCORE.RESTR.norm>
0

>  <SCORE.SYSTEM>
0

>  <SCORE.SYSTEM.CONST>
0

>  <SCORE.SYSTEM.DIHEDRAL>
0

>  <SCORE.SYSTEM.SOLV>
0

>  <SCORE.SYSTEM.norm>
0

>  <SCORE.heavy>
14

>  <SCORE.norm>
-0.698988

>  <RMSD>
8.515

$$$$
ligand
 OpenBabel11021811493D
libRbt.so/2013.1/901 2013/11/27
 14 13  0  0  0  0  0  0  0  0999 V2000
   62.1631   -3.9953    9.2193 N   0  0  0  0  0  0  0  0  0  0  0  0
   61.8426   -4.6678    7.9795 C   0  0  0  0  0  0  0  0  0  0  0  0
   60.3695   -5.1239    8.0188 C   0  0  0  0  0  0  0  0  0  0  0  0
   59.8650   -5.7195    6.6952 C   0  0  0  0  0  0  0  0  0  0  0  0
   59.9829   -4.8493    5.5152 N   0  0  0  0  0  0  0  0  0  0  0  0
   61.0666   -4.9525    4.5395 C   0  0  0  0  0  0  0  0  0  0  0  0
   60.8842   -4.0231    3.3441 C   0  0  0  0  0  0  0  0  0  0  0  0
   60.8118   -2.5407    3.7247 C   0  0  0  0  0  0  0  0  0  0  0  0
   60.4555   -1.6556    2.5245 C   0  0  0  0  0  0  0  0  0  0  0  0
   60.3316   -0.2681    2.9662 N   0  0  0  0  0  0  0  0  0  0  0  0
   59.5723    0.7623    2.2555 C   0  0  0  0  0  0  0  0  0  0  0  0
   59.2852    1.9956    3.1231 C   0  0  0  0  0  0  0  0  0  0  0  0
   58.3716    2.9893    2.3981 C   0  0  0  0  0  0  0  0  0  0  0  0
   58.0661    4.1050    3.2887 N   0  0  0  0  0  0  0  0  0  0  0  0
  1  2  1  0  0  0  0
  2  3  1  0  0  0  0
  3  4  1  0  0  0  0
  4  5  1  0  0  0  0
  5  6  1  0  0  0  0
  6  7  1  0  0  0  0
  7  8  1  0  0  0  0
  8  9  1  0  0  0  0
  9 10  1  0  0  0  0
 10 11  1  0  0  0  0
 11 12  1  0  0  0  0
 12 13  1  0  0  0  0
 13 14  1  0  0  0  0
M  END
>  <CHROM.1>
173.77109303,-56.93950604,99.05574262,174.58501888,59.66111150,-172.91388721
176.97298281,-157.60861663,163.84287820,-174.25225456,176.77861666,60.21918019
-1.99628259,4.68494404,0.28233152,-1.32246646,1.31207713

>  <Name>
ligand

>  <RI>
0

>  <Rbt.Current_Directory>
/home/itssahil/PROJECTS/Mol_Feturizer/New_Systems/rnas/4FAW

>  <Rbt.Executable>
rbdock ($Id: //depot/dev/client3/rdock/2013.1/src/exe/rbdock.cxx#4 $)

>  <Rbt.Library>
libRbt.so (2013.1, Build901 2013/11/27)

>  <Rbt.Parameter_File>
/export/apps/rDock/src/rDock_2013.1_src/data/scripts/dock_solv.prm

>  <Rbt.Receptor>
prm/pocket_docking_7.prm

>  <SCORE>
-6.08043

>  <SCORE.INTER>
3.86589

>  <SCORE.INTER.CONST>
1

>  <SCORE.INTER.POLAR>
0

>  <SCORE.INTER.ROT>
11

>  <SCORE.INTER.SOLV>
12.1327

>  <SCORE.INTER.VDW>
-12.4003

>  <SCORE.INTER.norm>
0.276135

>  <SCORE.INTRA>
-9.94631

>  <SCORE.INTRA.DIHEDRAL>
-17.0457

>  <SCORE.INTRA.DIHEDRAL.0>
19.1003

>  <SCORE.INTRA.POLAR>
0

>  <SCORE.INTRA.POLAR.0>
0

>  <SCORE.INTRA.REPUL>
0

>  <SCORE.INTRA.REPUL.0>
0

>  <SCORE.INTRA.SOLV>
-0.748848

>  <SCORE.INTRA.SOLV.lig_0>
-47.5333

>  <SCORE.INTRA.VDW>
-1.04906

>  <SCORE.INTRA.VDW.0>
-0.287413

>  <SCORE.INTRA.norm>
-0.710451

>  <SCORE.RESTR>
0

>  <SCORE.RESTR.CAVITY>
0

>  <SCORE.RESTR.norm>
0

>  <SCORE.SYSTEM>
0

>  <SCORE.SYSTEM.CONST>
0

>  <SCORE.SYSTEM.DIHEDRAL>
0

>  <SCORE.SYSTEM.SOLV>
0

>  <SCORE.SYSTEM.norm>
0

>  <SCORE.heavy>
14

>  <SCORE.norm>
-0.434316

>  <RMSD>
8.534

$$$$
ligand
 OpenBabel11021811493D
libRbt.so/2013.1/901 2013/11/27
 14 13  0  0  0  0  0  0  0  0999 V2000
   57.7192    2.2565    1.0350 N   0  0  0  0  0  0  0  0  0  0  0  0
   59.1317    2.5443    1.1540 C   0  0  0  0  0  0  0  0  0  0  0  0
   59.4636    2.8424    2.6306 C   0  0  0  0  0  0  0  0  0  0  0  0
   59.3170    1.6282    3.5608 C   0  0  0  0  0  0  0  0  0  0  0  0
   59.5637    1.8816    4.9886 N   0  0  0  0  0  0  0  0  0  0  0  0
   60.8583    2.2997    5.5236 C   0  0  0  0  0  0  0  0  0  0  0  0
   61.2042    1.6233    6.8462 C   0  0  0  0  0  0  0  0  0  0  0  0
   61.4089    0.1096    6.7262 C   0  0  0  0  0  0  0  0  0  0  0  0
   61.9617   -0.5001    8.0199 C   0  0  0  0  0  0  0  0  0  0  0  0
   62.0279   -1.9533    7.8803 N   0  0  0  0  0  0  0  0  0  0  0  0
   62.6084   -2.8551    8.8769 C   0  0  0  0  0  0  0  0  0  0  0  0
   62.1872   -4.3172    8.6742 C   0  0  0  0  0  0  0  0  0  0  0  0
   60.6743   -4.4920    8.8427 C   0  0  0  0  0  0  0  0  0  0  0  0
   60.3155   -5.8830    8.5821 N   0  0  0  0  0  0  0  0  0  0  0  0
  1  2  1  0  0  0  0
  2  3  1  0  0  0  0
  3  4  1  0  0  0  0
  4  5  1  0  0  0  0
  5  6  1  0  0  0  0
  6  7  1  0  0  0  0
  7  8  1  0  0  0  0
  8  9  1  0  0  0  0
  9 10  1  0  0  0  0
 10 11  1  0  0  0  0
 11 12  1  0  0  0  0
 12 13  1  0  0  0  0
 13 14  1  0  0  0  0
M  END
>  <CHROM.1>
67.27273605,-177.29657489,-63.91526159,-139.94976184,65.50449448,171.24957611
175.27608860,174.75312048,163.25579688,-63.11163544,177.46633641,60.60325635
-0.34369650,5.95306328,2.02944201,-0.91943829,-0.39545580

>  <Name>
ligand

>  <RI>
0

>  <Rbt.Current_Directory>
/home/itssahil/PROJECTS/Mol_Feturizer/New_Systems/rnas/4FAW

>  <Rbt.Executable>
rbdock ($Id: //depot/dev/client3/rdock/2013.1/src/exe/rbdock.cxx#4 $)

>  <Rbt.Library>
libRbt.so (2013.1, Build901 2013/11/27)

>  <Rbt.Parameter_File>
/export/apps/rDock/src/rDock_2013.1_src/data/scripts/dock_solv.prm

>  <Rbt.Receptor>
prm/pocket_docking_7.prm

>  <SCORE>
-9.75986

>  <SCORE.INTER>
-0.416121

>  <SCORE.INTER.CONST>
1

>  <SCORE.INTER.POLAR>
0

>  <SCORE.INTER.ROT>
11

>  <SCORE.INTER.SOLV>
8.57638

>  <SCORE.INTER.VDW>
-14.0695

>  <SCORE.INTER.norm>
-0.0297229

>  <SCORE.INTRA>
-9.34374

>  <SCORE.INTRA.DIHEDRAL>
-17.1482

>  <SCORE.INTRA.DIHEDRAL.0>
19.1003

>  <SCORE.INTRA.POLAR>
0

>  <SCORE.INTRA.POLAR.0>
0

>  <SCORE.INTRA.REPUL>
0

>  <SCORE.INTRA.REPUL.0>
0

>  <SCORE.INTRA.SOLV>
-0.0974346

>  <SCORE.INTRA.SOLV.lig_0>
-47.5333

>  <SCORE.INTRA.VDW>
-0.720944

>  <SCORE.INTRA.VDW.0>
-0.287413

>  <SCORE.INTRA.norm>
-0.66741

>  <SCORE.RESTR>
0

>  <SCORE.RESTR.CAVITY>
0

>  <SCORE.RESTR.norm>
0

>  <SCORE.SYSTEM>
0

>  <SCORE.SYSTEM.CONST>
0

>  <SCORE.SYSTEM.DIHEDRAL>
0

>  <SCORE.SYSTEM.SOLV>
0

>  <SCORE.SYSTEM.norm>
0

>  <SCORE.heavy>
14

>  <SCORE.norm>
-0.697133

>  <RMSD>
8.628

$$$$
ligand
 OpenBabel11021811493D
libRbt.so/2013.1/901 2013/11/27
 14 13  0  0  0  0  0  0  0  0999 V2000
   48.4520   -4.0794   -6.8147 N   0  0  0  0  0  0  0  0  0  0  0  0
   49.2289   -3.1066   -6.0782 C   0  0  0  0  0  0  0  0  0  0  0  0
   48.2767   -2.2337   -5.2351 C   0  0  0  0  0  0  0  0  0  0  0  0
   48.9787   -1.0947   -4.4795 C   0  0  0  0  0  0  0  0  0  0  0  0
   50.0926   -1.4962   -3.6068 N   0  0  0  0  0  0  0  0  0  0  0  0
   50.9845   -0.5455   -2.9451 C   0  0  0  0  0  0  0  0  0  0  0  0
   51.7004    0.3810   -3.9225 C   0  0  0  0  0  0  0  0  0  0  0  0
   52.4903    1.5018   -3.2390 C   0  0  0  0  0  0  0  0  0  0  0  0
   53.1040    2.4740   -4.2535 C   0  0  0  0  0  0  0  0  0  0  0  0
   52.0399    3.0656   -5.0617 N   0  0  0  0  0  0  0  0  0  0  0  0
   51.0053    3.9611   -4.5410 C   0  0  0  0  0  0  0  0  0  0  0  0
   50.0836    4.5089   -5.6395 C   0  0  0  0  0  0  0  0  0  0  0  0
   49.0398    5.4723   -5.0651 C   0  0  0  0  0  0  0  0  0  0  0  0
   48.2164    5.9974   -6.1502 N   0  0  0  0  0  0  0  0  0  0  0  0
  1  2  1  0  0  0  0
  2  3  1  0  0  0  0
  3  4  1  0  0  0  0
  4  5  1  0  0  0  0
  5  6  1  0  0  0  0
  6  7  1  0  0  0  0
  7  8  1  0  0  0  0
  8  9  1  0  0  0  0
  9 10  1  0  0  0  0
 10 11  1  0  0  0  0
 11 12  1  0  0  0  0
 12 13  1  0  0  0  0
 13 14  1  0  0  0  0
M  END
>  <CHROM.1>
-175.97120109,-54.77204728,171.90762087,-57.93583234,172.23128597,-175.53584372
59.02359014,65.90570902,175.75128156,-178.36210342,178.24265327,50.26402092
1.05764009,-4.78775155,1.74806045,0.54855961,3.07384545

>  <Name>
ligand

>  <RI>
0

>  <Rbt.Current_Directory>
/home/itssahil/PROJECTS/Mol_Feturizer/New_Systems/rnas/4FAW

>  <Rbt.Executable>
rbdock ($Id: //depot/dev/client3/rdock/2013.1/src/exe/rbdock.cxx#4 $)

>  <Rbt.Library>
libRbt.so (2013.1, Build901 2013/11/27)

>  <Rbt.Parameter_File>
/export/apps/rDock/src/rDock_2013.1_src/data/scripts/dock_solv.prm

>  <Rbt.Receptor>
prm/pocket_docking_8.prm

>  <SCORE>
-7.58662

>  <SCORE.INTER>
2.16465

>  <SCORE.INTER.CONST>
1

>  <SCORE.INTER.POLAR>
0

>  <SCORE.INTER.ROT>
11

>  <SCORE.INTER.SOLV>
7.71474

>  <SCORE.INTER.VDW>
-12.0618

>  <SCORE.INTER.norm>
0.154618

>  <SCORE.INTRA>
-9.75126

>  <SCORE.INTRA.DIHEDRAL>
-18.5027

>  <SCORE.INTRA.DIHEDRAL.0>
19.1003

>  <SCORE.INTRA.POLAR>
0

>  <SCORE.INTRA.POLAR.0>
0

>  <SCORE.INTRA.REPUL>
0

>  <SCORE.INTRA.REPUL.0>
0

>  <SCORE.INTRA.SOLV>
-0.709952

>  <SCORE.INTRA.SOLV.lig_0>
-47.5333

>  <SCORE.INTRA.VDW>
-0.144914

>  <SCORE.INTRA.VDW.0>
-0.287413

>  <SCORE.INTRA.norm>
-0.696519

>  <SCORE.RESTR>
0

>  <SCORE.RESTR.CAVITY>
0

>  <SCORE.RESTR.norm>
0

>  <SCORE.SYSTEM>
0

>  <SCORE.SYSTEM.CONST>
0

>  <SCORE.SYSTEM.DIHEDRAL>
0

>  <SCORE.SYSTEM.SOLV>
0

>  <SCORE.SYSTEM.norm>
0

>  <SCORE.heavy>
14

>  <SCORE.norm>
-0.541901

>  <RMSD>
8.654

$$$$
ligand
 OpenBabel11021811493D
libRbt.so/2013.1/901 2013/11/27
 14 13  0  0  0  0  0  0  0  0999 V2000
   60.3645   -3.9056    9.6930 N   0  0  0  0  0  0  0  0  0  0  0  0
   59.9094   -5.2353   10.0349 C   0  0  0  0  0  0  0  0  0  0  0  0
   60.7247   -6.2699    9.2321 C   0  0  0  0  0  0  0  0  0  0  0  0
   60.5226   -6.1799    7.7115 C   0  0  0  0  0  0  0  0  0  0  0  0
   60.9740   -4.9315    7.0782 N   0  0  0  0  0  0  0  0  0  0  0  0
   61.4447   -4.8499    5.6966 C   0  0  0  0  0  0  0  0  0  0  0  0
   60.4754   -4.1128    4.7782 C   0  0  0  0  0  0  0  0  0  0  0  0
   60.3701   -2.6131    5.0740 C   0  0  0  0  0  0  0  0  0  0  0  0
   59.3120   -1.9279    4.2012 C   0  0  0  0  0  0  0  0  0  0  0  0
   59.6447   -2.1261    2.7920 N   0  0  0  0  0  0  0  0  0  0  0  0
   58.7246   -1.8760    1.6810 C   0  0  0  0  0  0  0  0  0  0  0  0
   58.5193   -0.3804    1.4028 C   0  0  0  0  0  0  0  0  0  0  0  0
   57.6013   -0.1566    0.1966 C   0  0  0  0  0  0  0  0  0  0  0  0
   57.4236    1.2765   -0.0175 N   0  0  0  0  0  0  0  0  0  0  0  0
  1  2  1  0  0  0  0
  2  3  1  0  0  0  0
  3  4  1  0  0  0  0
  4  5  1  0  0  0  0
  5  6  1  0  0  0  0
  6  7  1  0  0  0  0
  7  8  1  0  0  0  0
  8  9  1  0  0  0  0
  9 10  1  0  0  0  0
 10 11  1  0  0  0  0
 11 12  1  0  0  0  0
 12 13  1  0  0  0  0
 13 14  1  0  0  0  0
M  END
>  <CHROM.1>
-63.94330593,64.05532179,150.90026404,109.66678404,68.66529380,-175.77463247
-58.36677493,165.88903009,74.17617271,177.47376517,179.30592458,59.71510422
-3.09231436,4.96822559,1.08945009,-0.99192120,1.73980004

>  <Name>
ligand

>  <RI>
0

>  <Rbt.Current_Directory>
/home/itssahil/PROJECTS/Mol_Feturizer/New_Systems/rnas/4FAW

>  <Rbt.Executable>
rbdock ($Id: //depot/dev/client3/rdock/2013.1/src/exe/rbdock.cxx#4 $)

>  <Rbt.Library>
libRbt.so (2013.1, Build901 2013/11/27)

>  <Rbt.Parameter_File>
/export/apps/rDock/src/rDock_2013.1_src/data/scripts/dock_solv.prm

>  <Rbt.Receptor>
prm/pocket_docking_8.prm

>  <SCORE>
-6.3295

>  <SCORE.INTER>
1.68169

>  <SCORE.INTER.CONST>
1

>  <SCORE.INTER.POLAR>
0

>  <SCORE.INTER.ROT>
11

>  <SCORE.INTER.SOLV>
12.2309

>  <SCORE.INTER.VDW>
-13.8892

>  <SCORE.INTER.norm>
0.120121

>  <SCORE.INTRA>
-8.01119

>  <SCORE.INTRA.DIHEDRAL>
-16.5896

>  <SCORE.INTRA.DIHEDRAL.0>
19.1003

>  <SCORE.INTRA.POLAR>
0

>  <SCORE.INTRA.POLAR.0>
0

>  <SCORE.INTRA.REPUL>
0

>  <SCORE.INTRA.REPUL.0>
0

>  <SCORE.INTRA.SOLV>
2.09358

>  <SCORE.INTRA.SOLV.lig_0>
-47.5333

>  <SCORE.INTRA.VDW>
-0.763198

>  <SCORE.INTRA.VDW.0>
-0.287413

>  <SCORE.INTRA.norm>
-0.572228

>  <SCORE.RESTR>
0

>  <SCORE.RESTR.CAVITY>
0

>  <SCORE.RESTR.norm>
0

>  <SCORE.SYSTEM>
0

>  <SCORE.SYSTEM.CONST>
0

>  <SCORE.SYSTEM.DIHEDRAL>
0

>  <SCORE.SYSTEM.SOLV>
0

>  <SCORE.SYSTEM.norm>
0

>  <SCORE.heavy>
14

>  <SCORE.norm>
-0.452107

>  <RMSD>
8.678

$$$$
ligand
 OpenBabel11021811493D
libRbt.so/2013.1/901 2013/11/27
 14 13  0  0  0  0  0  0  0  0999 V2000
   48.9147    1.4407  -10.2220 N   0  0  0  0  0  0  0  0  0  0  0  0
   48.1957    0.3324   -9.6330 C   0  0  0  0  0  0  0  0  0  0  0  0
   48.7744   -0.9904  -10.1758 C   0  0  0  0  0  0  0  0  0  0  0  0
   48.1272   -2.2479   -9.5752 C   0  0  0  0  0  0  0  0  0  0  0  0
   48.3646   -2.4673   -8.1402 N   0  0  0  0  0  0  0  0  0  0  0  0
   47.3906   -2.1403   -7.1003 C   0  0  0  0  0  0  0  0  0  0  0  0
   47.9796   -2.1891   -5.6942 C   0  0  0  0  0  0  0  0  0  0  0  0
   49.0314   -1.1065   -5.4315 C   0  0  0  0  0  0  0  0  0  0  0  0
   49.5790   -1.1719   -4.0009 C   0  0  0  0  0  0  0  0  0  0  0  0
   50.5507   -0.0981   -3.8050 N   0  0  0  0  0  0  0  0  0  0  0  0
   51.8125   -0.2459   -3.0774 C   0  0  0  0  0  0  0  0  0  0  0  0
   51.6839    0.0956   -1.5864 C   0  0  0  0  0  0  0  0  0  0  0  0
   51.5273    1.6043   -1.3695 C   0  0  0  0  0  0  0  0  0  0  0  0
   52.7357    2.2867   -1.8227 N   0  0  0  0  0  0  0  0  0  0  0  0
  1  2  1  0  0  0  0
  2  3  1  0  0  0  0
  3  4  1  0  0  0  0
  4  5  1  0  0  0  0
  5  6  1  0  0  0  0
  6  7  1  0  0  0  0
  7  8  1  0  0  0  0
  8  9  1  0  0  0  0
  9 10  1  0  0  0  0
 10 11  1  0  0  0  0
 11 12  1  0  0  0  0
 12 13  1  0  0  0  0
 13 14  1  0  0  0  0
M  END
>  <CHROM.1>
177.58085595,-66.21919597,100.35919985,-168.02414164,66.65571629,178.90220901
-178.67883098,-139.13989587,-91.39857018,-72.44042908,-63.78069324,49.61887036
-0.49301192,-5.83092970,-2.41191004,0.97259386,2.06345725

>  <Name>
ligand

>  <RI>
0

>  <Rbt.Current_Directory>
/home/itssahil/PROJECTS/Mol_Feturizer/New_Systems/rnas/4FAW

>  <Rbt.Executable>
rbdock ($Id: //depot/dev/client3/rdock/2013.1/src/exe/rbdock.cxx#4 $)

>  <Rbt.Library>
libRbt.so (2013.1, Build901 2013/11/27)

>  <Rbt.Parameter_File>
/export/apps/rDock/src/rDock_2013.1_src/data/scripts/dock_solv.prm

>  <Rbt.Receptor>
prm/pocket_docking_8.prm

>  <SCORE>
-9.44612

>  <SCORE.INTER>
-1.00391

>  <SCORE.INTER.CONST>
1

>  <SCORE.INTER.POLAR>
0

>  <SCORE.INTER.ROT>
11

>  <SCORE.INTER.SOLV>
8.07379

>  <SCORE.INTER.VDW>
-14.2939

>  <SCORE.INTER.norm>
-0.0717079

>  <SCORE.INTRA>
-8.44221

>  <SCORE.INTRA.DIHEDRAL>
-15.5457

>  <SCORE.INTRA.DIHEDRAL.0>
19.1003

>  <SCORE.INTRA.POLAR>
0

>  <SCORE.INTRA.POLAR.0>
0

>  <SCORE.INTRA.REPUL>
0

>  <SCORE.INTRA.REPUL.0>
0

>  <SCORE.INTRA.SOLV>
0.751059

>  <SCORE.INTRA.SOLV.lig_0>
-47.5333

>  <SCORE.INTRA.VDW>
-1.04486

>  <SCORE.INTRA.VDW.0>
-0.287413

>  <SCORE.INTRA.norm>
-0.603015

>  <SCORE.RESTR>
0

>  <SCORE.RESTR.CAVITY>
0

>  <SCORE.RESTR.norm>
0

>  <SCORE.SYSTEM>
0

>  <SCORE.SYSTEM.CONST>
0

>  <SCORE.SYSTEM.DIHEDRAL>
0

>  <SCORE.SYSTEM.SOLV>
0

>  <SCORE.SYSTEM.norm>
0

>  <SCORE.heavy>
14

>  <SCORE.norm>
-0.674723

>  <RMSD>
9.190

$$$$
ligand
 OpenBabel11021811493D
libRbt.so/2013.1/901 2013/11/27
 14 13  0  0  0  0  0  0  0  0999 V2000
   56.8164    3.1057    3.5003 N   0  0  0  0  0  0  0  0  0  0  0  0
   57.7586    4.1021    3.9603 C   0  0  0  0  0  0  0  0  0  0  0  0
   59.1301    3.8410    3.3044 C   0  0  0  0  0  0  0  0  0  0  0  0
   59.7575    2.4912    3.6857 C   0  0  0  0  0  0  0  0  0  0  0  0
   60.1372    2.3377    5.0985 N   0  0  0  0  0  0  0  0  0  0  0  0
   61.1687    1.4116    5.5624 C   0  0  0  0  0  0  0  0  0  0  0  0
   60.9871    0.9965    7.0188 C   0  0  0  0  0  0  0  0  0  0  0  0
   61.9814   -0.0739    7.4804 C   0  0  0  0  0  0  0  0  0  0  0  0
   61.6980   -0.5425    8.9125 C   0  0  0  0  0  0  0  0  0  0  0  0
   62.5822   -1.6589    9.2404 N   0  0  0  0  0  0  0  0  0  0  0  0
   62.6351   -2.9191    8.4970 C   0  0  0  0  0  0  0  0  0  0  0  0
   63.7195   -3.8726    9.0175 C   0  0  0  0  0  0  0  0  0  0  0  0
   63.8596   -5.1050    8.1179 C   0  0  0  0  0  0  0  0  0  0  0  0
   64.3792   -4.6976    6.8158 N   0  0  0  0  0  0  0  0  0  0  0  0
  1  2  1  0  0  0  0
  2  3  1  0  0  0  0
  3  4  1  0  0  0  0
  4  5  1  0  0  0  0
  5  6  1  0  0  0  0
  6  7  1  0  0  0  0
  7  8  1  0  0  0  0
  8  9  1  0  0  0  0
  9 10  1  0  0  0  0
 10 11  1  0  0  0  0
 11 12  1  0  0  0  0
 12 13  1  0  0  0  0
 13 14  1  0  0  0  0
M  END
>  <CHROM.1>
-62.91004605,-65.73081461,-155.51913720,-155.61927953,174.55509258,-175.55173098
173.89542969,-58.63103511,176.42991546,-173.23767784,66.83668594,61.18655932
-0.04162501,6.44382974,-2.88570938,-1.01479910,1.29948935

>  <Name>
ligand

>  <RI>
0

>  <Rbt.Current_Directory>
/home/itssahil/PROJECTS/Mol_Feturizer/New_Systems/rnas/4FAW

>  <Rbt.Executable>
rbdock ($Id: //depot/dev/client3/rdock/2013.1/src/exe/rbdock.cxx#4 $)

>  <Rbt.Library>
libRbt.so (2013.1, Build901 2013/11/27)

>  <Rbt.Parameter_File>
/export/apps/rDock/src/rDock_2013.1_src/data/scripts/dock_solv.prm

>  <Rbt.Receptor>
prm/pocket_docking_8.prm

>  <SCORE>
-9.76251

>  <SCORE.INTER>
-1.27073

>  <SCORE.INTER.CONST>
1

>  <SCORE.INTER.POLAR>
0

>  <SCORE.INTER.ROT>
11

>  <SCORE.INTER.SOLV>
8.32241

>  <SCORE.INTER.VDW>
-14.5546

>  <SCORE.INTER.norm>
-0.0907668

>  <SCORE.INTRA>
-8.49178

>  <SCORE.INTRA.DIHEDRAL>
-17.398

>  <SCORE.INTRA.DIHEDRAL.0>
19.1003

>  <SCORE.INTRA.POLAR>
0

>  <SCORE.INTRA.POLAR.0>
0

>  <SCORE.INTRA.REPUL>
0

>  <SCORE.INTRA.REPUL.0>
0

>  <SCORE.INTRA.SOLV>
0.929668

>  <SCORE.INTRA.SOLV.lig_0>
-47.5333

>  <SCORE.INTRA.VDW>
-0.257595

>  <SCORE.INTRA.VDW.0>
-0.287413

>  <SCORE.INTRA.norm>
-0.606556

>  <SCORE.RESTR>
0

>  <SCORE.RESTR.CAVITY>
0

>  <SCORE.RESTR.norm>
0

>  <SCORE.SYSTEM>
0

>  <SCORE.SYSTEM.CONST>
0

>  <SCORE.SYSTEM.DIHEDRAL>
0

>  <SCORE.SYSTEM.SOLV>
0

>  <SCORE.SYSTEM.norm>
0

>  <SCORE.heavy>
14

>  <SCORE.norm>
-0.697322

>  <RMSD>
9.214

$$$$
ligand
 OpenBabel11021811493D
libRbt.so/2013.1/901 2013/11/27
 14 13  0  0  0  0  0  0  0  0999 V2000
   57.2650    3.4933    2.9596 N   0  0  0  0  0  0  0  0  0  0  0  0
   58.2265    3.4798    4.0401 C   0  0  0  0  0  0  0  0  0  0  0  0
   59.4131    2.5751    3.6488 C   0  0  0  0  0  0  0  0  0  0  0  0
   60.5042    2.4762    4.7262 C   0  0  0  0  0  0  0  0  0  0  0  0
   60.0965    1.8549    5.9956 N   0  0  0  0  0  0  0  0  0  0  0  0
   61.0426    1.3690    6.9985 C   0  0  0  0  0  0  0  0  0  0  0  0
   61.3609   -0.1151    6.8492 C   0  0  0  0  0  0  0  0  0  0  0  0
   62.4048   -0.6224    7.8495 C   0  0  0  0  0  0  0  0  0  0  0  0
   61.9333   -0.4688    9.3003 C   0  0  0  0  0  0  0  0  0  0  0  0
   60.6594   -1.1643    9.4714 N   0  0  0  0  0  0  0  0  0  0  0  0
   59.7261   -0.9233   10.5733 C   0  0  0  0  0  0  0  0  0  0  0  0
   58.2680   -0.8149   10.1060 C   0  0  0  0  0  0  0  0  0  0  0  0
   58.0640    0.3926    9.1851 C   0  0  0  0  0  0  0  0  0  0  0  0
   56.6625    0.4633    8.7824 N   0  0  0  0  0  0  0  0  0  0  0  0
  1  2  1  0  0  0  0
  2  3  1  0  0  0  0
  3  4  1  0  0  0  0
  4  5  1  0  0  0  0
  5  6  1  0  0  0  0
  6  7  1  0  0  0  0
  7  8  1  0  0  0  0
  8  9  1  0  0  0  0
  9 10  1  0  0  0  0
 10 11  1  0  0  0  0
 11 12  1  0  0  0  0
 12 13  1  0  0  0  0
 13 14  1  0  0  0  0
M  END
>  <CHROM.1>
-179.77316397,63.95072304,164.06110768,-93.90547734,177.08878598,61.56654343
56.39408225,-161.37844307,135.19466343,-63.74793126,-179.25829285,59.68804115
0.85668826,7.17770931,1.76950511,0.20034219,-1.03409457

>  <Name>
ligand

>  <RI>
0

>  <Rbt.Current_Directory>
/home/itssahil/PROJECTS/Mol_Feturizer/New_Systems/rnas/4FAW

>  <Rbt.Executable>
rbdock ($Id: //depot/dev/client3/rdock/2013.1/src/exe/rbdock.cxx#4 $)

>  <Rbt.Library>
libRbt.so (2013.1, Build901 2013/11/27)

>  <Rbt.Parameter_File>
/export/apps/rDock/src/rDock_2013.1_src/data/scripts/dock_solv.prm

>  <Rbt.Receptor>
prm/pocket_docking_8.prm

>  <SCORE>
-8.1932

>  <SCORE.INTER>
0.803357

>  <SCORE.INTER.CONST>
1

>  <SCORE.INTER.POLAR>
0

>  <SCORE.INTER.ROT>
11

>  <SCORE.INTER.SOLV>
5.95837

>  <SCORE.INTER.VDW>
-12.3839

>  <SCORE.INTER.norm>
0.0573827

>  <SCORE.INTRA>
-8.99656

>  <SCORE.INTRA.DIHEDRAL>
-16.6927

>  <SCORE.INTRA.DIHEDRAL.0>
19.1003

>  <SCORE.INTRA.POLAR>
0

>  <SCORE.INTRA.POLAR.0>
0

>  <SCORE.INTRA.REPUL>
0

>  <SCORE.INTRA.REPUL.0>
0

>  <SCORE.INTRA.SOLV>
0.191046

>  <SCORE.INTRA.SOLV.lig_0>
-47.5333

>  <SCORE.INTRA.VDW>
-0.745711

>  <SCORE.INTRA.VDW.0>
-0.287413

>  <SCORE.INTRA.norm>
-0.642611

>  <SCORE.RESTR>
0

>  <SCORE.RESTR.CAVITY>
0

>  <SCORE.RESTR.norm>
0

>  <SCORE.SYSTEM>
0

>  <SCORE.SYSTEM.CONST>
0

>  <SCORE.SYSTEM.DIHEDRAL>
0

>  <SCORE.SYSTEM.SOLV>
0

>  <SCORE.SYSTEM.norm>
0

>  <SCORE.heavy>
14

>  <SCORE.norm>
-0.585229

>  <RMSD>
9.287

$$$$
ligand
 OpenBabel11021811493D
libRbt.so/2013.1/901 2013/11/27
 14 13  0  0  0  0  0  0  0  0999 V2000
   50.4772    2.7585   -4.6773 N   0  0  0  0  0  0  0  0  0  0  0  0
   51.5403    3.0626   -3.7449 C   0  0  0  0  0  0  0  0  0  0  0  0
   52.4869    1.8488   -3.6450 C   0  0  0  0  0  0  0  0  0  0  0  0
   51.8207    0.5821   -3.0856 C   0  0  0  0  0  0  0  0  0  0  0  0
   50.7521    0.0017   -3.9131 N   0  0  0  0  0  0  0  0  0  0  0  0
   50.0059   -1.1999   -3.5439 C   0  0  0  0  0  0  0  0  0  0  0  0
   49.3287   -1.8713   -4.7342 C   0  0  0  0  0  0  0  0  0  0  0  0
   48.1735   -1.0553   -5.3235 C   0  0  0  0  0  0  0  0  0  0  0  0
   47.5088   -1.7706   -6.5056 C   0  0  0  0  0  0  0  0  0  0  0  0
   48.4378   -1.8082   -7.6331 N   0  0  0  0  0  0  0  0  0  0  0  0
   49.3798   -2.8983   -7.8936 C   0  0  0  0  0  0  0  0  0  0  0  0
   50.1977   -2.6853   -9.1749 C   0  0  0  0  0  0  0  0  0  0  0  0
   51.1060   -1.4567   -9.0611 C   0  0  0  0  0  0  0  0  0  0  0  0
   51.7957   -1.2449  -10.3303 N   0  0  0  0  0  0  0  0  0  0  0  0
  1  2  1  0  0  0  0
  2  3  1  0  0  0  0
  3  4  1  0  0  0  0
  4  5  1  0  0  0  0
  5  6  1  0  0  0  0
  6  7  1  0  0  0  0
  7  8  1  0  0  0  0
  8  9  1  0  0  0  0
  9 10  1  0  0  0  0
 10 11  1  0  0  0  0
 11 12  1  0  0  0  0
 12 13  1  0  0  0  0
 13 14  1  0  0  0  0
M  END
>  <CHROM.1>
-63.12928468,64.93005297,-179.98157960,-159.66899378,-68.65993134,-179.31463976
-68.50869233,91.34619578,178.15500846,64.41193161,-176.31815736,50.21501758
-0.55283130,-5.94729916,-1.26389684,-0.70110171,-2.00640208

>  <Name>
ligand

>  <RI>
0

>  <Rbt.Current_Directory>
/home/itssahil/PROJECTS/Mol_Feturizer/New_Systems/rnas/4FAW

>  <Rbt.Executable>
rbdock ($Id: //depot/dev/client3/rdock/2013.1/src/exe/rbdock.cxx#4 $)

>  <Rbt.Library>
libRbt.so (2013.1, Build901 2013/11/27)

>  <Rbt.Parameter_File>
/export/apps/rDock/src/rDock_2013.1_src/data/scripts/dock_solv.prm

>  <Rbt.Receptor>
prm/pocket_docking_8.prm

>  <SCORE>
-7.3448

>  <SCORE.INTER>
1.02949

>  <SCORE.INTER.CONST>
1

>  <SCORE.INTER.POLAR>
0

>  <SCORE.INTER.ROT>
11

>  <SCORE.INTER.SOLV>
5.18831

>  <SCORE.INTER.VDW>
-11.9764

>  <SCORE.INTER.norm>
0.073535

>  <SCORE.INTRA>
-8.37429

>  <SCORE.INTRA.DIHEDRAL>
-17.3431

>  <SCORE.INTRA.DIHEDRAL.0>
19.1003

>  <SCORE.INTRA.POLAR>
0

>  <SCORE.INTRA.POLAR.0>
0

>  <SCORE.INTRA.REPUL>
0

>  <SCORE.INTRA.REPUL.0>
0

>  <SCORE.INTRA.SOLV>
2.59257

>  <SCORE.INTRA.SOLV.lig_0>
-47.5333

>  <SCORE.INTRA.VDW>
-0.999028

>  <SCORE.INTRA.VDW.0>
-0.287413

>  <SCORE.INTRA.norm>
-0.598164

>  <SCORE.RESTR>
0

>  <SCORE.RESTR.CAVITY>
0

>  <SCORE.RESTR.norm>
0

>  <SCORE.SYSTEM>
0

>  <SCORE.SYSTEM.CONST>
0

>  <SCORE.SYSTEM.DIHEDRAL>
0

>  <SCORE.SYSTEM.SOLV>
0

>  <SCORE.SYSTEM.norm>
0

>  <SCORE.heavy>
14

>  <SCORE.norm>
-0.524629

>  <RMSD>
9.384

$$$$
ligand
 OpenBabel11021811493D
libRbt.so/2013.1/901 2013/11/27
 14 13  0  0  0  0  0  0  0  0999 V2000
   49.4146    0.7778  -10.2776 N   0  0  0  0  0  0  0  0  0  0  0  0
   48.9837    0.3497   -8.9650 C   0  0  0  0  0  0  0  0  0  0  0  0
   48.4122   -1.0799   -9.0624 C   0  0  0  0  0  0  0  0  0  0  0  0
   47.8471   -1.6177   -7.7387 C   0  0  0  0  0  0  0  0  0  0  0  0
   48.7772   -1.6204   -6.5992 N   0  0  0  0  0  0  0  0  0  0  0  0
   48.3537   -1.4583   -5.2095 C   0  0  0  0  0  0  0  0  0  0  0  0
   49.5239   -1.3706   -4.2352 C   0  0  0  0  0  0  0  0  0  0  0  0
   50.4250   -0.1531   -4.4663 C   0  0  0  0  0  0  0  0  0  0  0  0
   51.2855   -0.3056   -5.7261 C   0  0  0  0  0  0  0  0  0  0  0  0
   52.1304    0.8767   -5.8811 N   0  0  0  0  0  0  0  0  0  0  0  0
   52.8661    1.2143   -7.1011 C   0  0  0  0  0  0  0  0  0  0  0  0
   53.7786    2.4364   -6.9274 C   0  0  0  0  0  0  0  0  0  0  0  0
   52.9721    3.6917   -6.5789 C   0  0  0  0  0  0  0  0  0  0  0  0
   53.8679    4.8432   -6.5244 N   0  0  0  0  0  0  0  0  0  0  0  0
  1  2  1  0  0  0  0
  2  3  1  0  0  0  0
  3  4  1  0  0  0  0
  4  5  1  0  0  0  0
  5  6  1  0  0  0  0
  6  7  1  0  0  0  0
  7  8  1  0  0  0  0
  8  9  1  0  0  0  0
  9 10  1  0  0  0  0
 10 11  1  0  0  0  0
 11 12  1  0  0  0  0
 12 13  1  0  0  0  0
 13 14  1  0  0  0  0
M  END
>  <CHROM.1>
-176.77864256,-56.13228264,149.45221861,-174.74443703,63.02976128,-72.87475414
-179.33166828,-166.41662853,-174.26198315,-61.69990840,-175.72023266,50.61682654
0.47000520,-6.80643371,2.95757735,0.72706018,1.95457867

>  <Name>
ligand

>  <RI>
0

>  <Rbt.Current_Directory>
/home/itssahil/PROJECTS/Mol_Feturizer/New_Systems/rnas/4FAW

>  <Rbt.Executable>
rbdock ($Id: //depot/dev/client3/rdock/2013.1/src/exe/rbdock.cxx#4 $)

>  <Rbt.Library>
libRbt.so (2013.1, Build901 2013/11/27)

>  <Rbt.Parameter_File>
/export/apps/rDock/src/rDock_2013.1_src/data/scripts/dock_solv.prm

>  <Rbt.Receptor>
prm/pocket_docking_7.prm

>  <SCORE>
-7.85979

>  <SCORE.INTER>
1.70714

>  <SCORE.INTER.CONST>
1

>  <SCORE.INTER.POLAR>
0

>  <SCORE.INTER.ROT>
11

>  <SCORE.INTER.SOLV>
4.03117

>  <SCORE.INTER.VDW>
-11.139

>  <SCORE.INTER.norm>
0.121939

>  <SCORE.INTRA>
-9.56925

>  <SCORE.INTRA.DIHEDRAL>
-17.407

>  <SCORE.INTRA.DIHEDRAL.0>
19.1003

>  <SCORE.INTRA.POLAR>
0

>  <SCORE.INTRA.POLAR.0>
0

>  <SCORE.INTRA.REPUL>
0

>  <SCORE.INTRA.REPUL.0>
0

>  <SCORE.INTRA.SOLV>
0.344255

>  <SCORE.INTRA.SOLV.lig_0>
-47.5333

>  <SCORE.INTRA.VDW>
-1.03787

>  <SCORE.INTRA.VDW.0>
-0.287413

>  <SCORE.INTRA.norm>
-0.683518

>  <SCORE.RESTR>
0.00231319

>  <SCORE.RESTR.CAVITY>
0.00231319

>  <SCORE.RESTR.norm>
0.000165228

>  <SCORE.SYSTEM>
0

>  <SCORE.SYSTEM.CONST>
0

>  <SCORE.SYSTEM.DIHEDRAL>
0

>  <SCORE.SYSTEM.SOLV>
0

>  <SCORE.SYSTEM.norm>
0

>  <SCORE.heavy>
14

>  <SCORE.norm>
-0.561414

>  <RMSD>
9.390

$$$$
ligand
 OpenBabel11021811493D
libRbt.so/2013.1/901 2013/11/27
 14 13  0  0  0  0  0  0  0  0999 V2000
   64.5577   -5.1273    7.5789 N   0  0  0  0  0  0  0  0  0  0  0  0
   64.5773   -4.3619    8.8060 C   0  0  0  0  0  0  0  0  0  0  0  0
   63.1821   -3.7469    9.0400 C   0  0  0  0  0  0  0  0  0  0  0  0
   62.0736   -4.7851    9.2735 C   0  0  0  0  0  0  0  0  0  0  0  0
   61.7650   -5.6602    8.1322 N   0  0  0  0  0  0  0  0  0  0  0  0
   60.7853   -5.3271    7.0997 C   0  0  0  0  0  0  0  0  0  0  0  0
   61.4168   -4.7202    5.8510 C   0  0  0  0  0  0  0  0  0  0  0  0
   60.3930   -4.2228    4.8254 C   0  0  0  0  0  0  0  0  0  0  0  0
   61.0653   -3.6751    3.5609 C   0  0  0  0  0  0  0  0  0  0  0  0
   60.0410   -3.3456    2.5721 N   0  0  0  0  0  0  0  0  0  0  0  0
   59.6395   -1.9827    2.2187 C   0  0  0  0  0  0  0  0  0  0  0  0
   58.3608   -1.9394    1.3706 C   0  0  0  0  0  0  0  0  0  0  0  0
   58.0751   -0.5229    0.8612 C   0  0  0  0  0  0  0  0  0  0  0  0
   57.7698    0.3466    1.9935 N   0  0  0  0  0  0  0  0  0  0  0  0
  1  2  1  0  0  0  0
  2  3  1  0  0  0  0
  3  4  1  0  0  0  0
  4  5  1  0  0  0  0
  5  6  1  0  0  0  0
  6  7  1  0  0  0  0
  7  8  1  0  0  0  0
  8  9  1  0  0  0  0
  9 10  1  0  0  0  0
 10 11  1  0  0  0  0
 11 12  1  0  0  0  0
 12 13  1  0  0  0  0
 13 14  1  0  0  0  0
M  END
>  <CHROM.1>
64.52181302,-65.43635290,-88.57838189,97.12913334,-173.56353944,-177.56983788
174.26541222,106.72864217,-168.42457487,-172.31380365,-65.89406272,60.97871808
-3.50506244,5.22746854,-0.34515593,-1.00098425,0.07981757

>  <Name>
ligand

>  <RI>
0

>  <Rbt.Current_Directory>
/home/itssahil/PROJECTS/Mol_Feturizer/New_Systems/rnas/4FAW

>  <Rbt.Executable>
rbdock ($Id: //depot/dev/client3/rdock/2013.1/src/exe/rbdock.cxx#4 $)

>  <Rbt.Library>
libRbt.so (2013.1, Build901 2013/11/27)

>  <Rbt.Parameter_File>
/export/apps/rDock/src/rDock_2013.1_src/data/scripts/dock_solv.prm

>  <Rbt.Receptor>
prm/pocket_docking_8.prm

>  <SCORE>
-6.76125

>  <SCORE.INTER>
0.63449

>  <SCORE.INTER.CONST>
1

>  <SCORE.INTER.POLAR>
0

>  <SCORE.INTER.ROT>
11

>  <SCORE.INTER.SOLV>
10.0224

>  <SCORE.INTER.VDW>
-13.8511

>  <SCORE.INTER.norm>
0.0453207

>  <SCORE.INTRA>
-7.39574

>  <SCORE.INTRA.DIHEDRAL>
-15.716

>  <SCORE.INTRA.DIHEDRAL.0>
19.1003

>  <SCORE.INTRA.POLAR>
0

>  <SCORE.INTRA.POLAR.0>
0

>  <SCORE.INTRA.REPUL>
0

>  <SCORE.INTRA.REPUL.0>
0

>  <SCORE.INTRA.SOLV>
3.06673

>  <SCORE.INTRA.SOLV.lig_0>
-47.5333

>  <SCORE.INTRA.VDW>
-1.07112

>  <SCORE.INTRA.VDW.0>
-0.287413

>  <SCORE.INTRA.norm>
-0.528267

>  <SCORE.RESTR>
0

>  <SCORE.RESTR.CAVITY>
0

>  <SCORE.RESTR.norm>
0

>  <SCORE.SYSTEM>
0

>  <SCORE.SYSTEM.CONST>
0

>  <SCORE.SYSTEM.DIHEDRAL>
0

>  <SCORE.SYSTEM.SOLV>
0

>  <SCORE.SYSTEM.norm>
0

>  <SCORE.heavy>
14

>  <SCORE.norm>
-0.482946

>  <RMSD>
9.628

$$$$
ligand
 OpenBabel11021811493D
libRbt.so/2013.1/901 2013/11/27
 14 13  0  0  0  0  0  0  0  0999 V2000
   52.5007    1.5432   -1.7644 N   0  0  0  0  0  0  0  0  0  0  0  0
   51.7349    0.3171   -1.8132 C   0  0  0  0  0  0  0  0  0  0  0  0
   51.3315    0.0314   -3.2744 C   0  0  0  0  0  0  0  0  0  0  0  0
   50.3115   -1.1072   -3.4292 C   0  0  0  0  0  0  0  0  0  0  0  0
   49.8617   -1.3820   -4.8024 N   0  0  0  0  0  0  0  0  0  0  0  0
   48.9521   -2.4715   -5.1526 C   0  0  0  0  0  0  0  0  0  0  0  0
   48.8207   -2.6790   -6.6579 C   0  0  0  0  0  0  0  0  0  0  0  0
   48.2201   -1.4763   -7.3930 C   0  0  0  0  0  0  0  0  0  0  0  0
   48.1099   -1.7215   -8.9025 C   0  0  0  0  0  0  0  0  0  0  0  0
   47.6085   -0.5132   -9.5538 N   0  0  0  0  0  0  0  0  0  0  0  0
   48.3972    0.7023   -9.7636 C   0  0  0  0  0  0  0  0  0  0  0  0
   47.5296    1.9637   -9.8739 C   0  0  0  0  0  0  0  0  0  0  0  0
   48.3891    3.2209  -10.0423 C   0  0  0  0  0  0  0  0  0  0  0  0
   47.5227    4.3937  -10.1155 N   0  0  0  0  0  0  0  0  0  0  0  0
  1  2  1  0  0  0  0
  2  3  1  0  0  0  0
  3  4  1  0  0  0  0
  4  5  1  0  0  0  0
  5  6  1  0  0  0  0
  6  7  1  0  0  0  0
  7  8  1  0  0  0  0
  8  9  1  0  0  0  0
  9 10  1  0  0  0  0
 10 11  1  0  0  0  0
 11 12  1  0  0  0  0
 12 13  1  0  0  0  0
 13 14  1  0  0  0  0
M  END
>  <CHROM.1>
-169.90428368,177.89157949,176.57508648,-170.75405570,-62.98845493,179.76523021
-176.57779559,73.75717692,-154.48571853,177.95899660,-178.87221174,49.23496396
0.05830592,-6.60993187,-0.55619717,-1.05189919,-0.35399518

>  <Name>
ligand

>  <RI>
0

>  <Rbt.Current_Directory>
/home/itssahil/PROJECTS/Mol_Feturizer/New_Systems/rnas/4FAW

>  <Rbt.Executable>
rbdock ($Id: //depot/dev/client3/rdock/2013.1/src/exe/rbdock.cxx#4 $)

>  <Rbt.Library>
libRbt.so (2013.1, Build901 2013/11/27)

>  <Rbt.Parameter_File>
/export/apps/rDock/src/rDock_2013.1_src/data/scripts/dock_solv.prm

>  <Rbt.Receptor>
prm/pocket_docking_8.prm

>  <SCORE>
-9.52742

>  <SCORE.INTER>
0.747831

>  <SCORE.INTER.CONST>
1

>  <SCORE.INTER.POLAR>
0

>  <SCORE.INTER.ROT>
11

>  <SCORE.INTER.SOLV>
11.0293

>  <SCORE.INTER.VDW>
-14.1112

>  <SCORE.INTER.norm>
0.0534165

>  <SCORE.INTRA>
-10.2752

>  <SCORE.INTRA.DIHEDRAL>
-17.9201

>  <SCORE.INTRA.DIHEDRAL.0>
19.1003

>  <SCORE.INTRA.POLAR>
0

>  <SCORE.INTRA.POLAR.0>
0

>  <SCORE.INTRA.REPUL>
0

>  <SCORE.INTRA.REPUL.0>
0

>  <SCORE.INTRA.SOLV>
-1.12769

>  <SCORE.INTRA.SOLV.lig_0>
-47.5333

>  <SCORE.INTRA.VDW>
-0.751335

>  <SCORE.INTRA.VDW.0>
-0.287413

>  <SCORE.INTRA.norm>
-0.733946

>  <SCORE.RESTR>
0

>  <SCORE.RESTR.CAVITY>
0

>  <SCORE.RESTR.norm>
0

>  <SCORE.SYSTEM>
0

>  <SCORE.SYSTEM.CONST>
0

>  <SCORE.SYSTEM.DIHEDRAL>
0

>  <SCORE.SYSTEM.SOLV>
0

>  <SCORE.SYSTEM.norm>
0

>  <SCORE.heavy>
14

>  <SCORE.norm>
-0.68053

>  <RMSD>
9.721

$$$$
ligand
 OpenBabel11021811493D
libRbt.so/2013.1/901 2013/11/27
 14 13  0  0  0  0  0  0  0  0999 V2000
   50.7662    0.6125  -10.6544 N   0  0  0  0  0  0  0  0  0  0  0  0
   49.9101   -0.4522  -10.1794 C   0  0  0  0  0  0  0  0  0  0  0  0
   48.5607    0.1465   -9.7319 C   0  0  0  0  0  0  0  0  0  0  0  0
   47.5743   -0.8889   -9.1697 C   0  0  0  0  0  0  0  0  0  0  0  0
   48.0277   -1.6255   -7.9801 N   0  0  0  0  0  0  0  0  0  0  0  0
   47.3428   -2.8022   -7.4480 C   0  0  0  0  0  0  0  0  0  0  0  0
   48.1800   -3.5714   -6.4312 C   0  0  0  0  0  0  0  0  0  0  0  0
   48.4208   -2.8030   -5.1277 C   0  0  0  0  0  0  0  0  0  0  0  0
   49.4290   -1.6624   -5.3106 C   0  0  0  0  0  0  0  0  0  0  0  0
   49.6847   -1.0305   -4.0179 N   0  0  0  0  0  0  0  0  0  0  0  0
   50.9728   -0.4641   -3.6135 C   0  0  0  0  0  0  0  0  0  0  0  0
   51.1526    0.9910   -4.0678 C   0  0  0  0  0  0  0  0  0  0  0  0
   52.4755    1.5756   -3.5620 C   0  0  0  0  0  0  0  0  0  0  0  0
   52.5899    2.9640   -3.9986 N   0  0  0  0  0  0  0  0  0  0  0  0
  1  2  1  0  0  0  0
  2  3  1  0  0  0  0
  3  4  1  0  0  0  0
  4  5  1  0  0  0  0
  5  6  1  0  0  0  0
  6  7  1  0  0  0  0
  7  8  1  0  0  0  0
  8  9  1  0  0  0  0
  9 10  1  0  0  0  0
 10 11  1  0  0  0  0
 11 12  1  0  0  0  0
 12 13  1  0  0  0  0
 13 14  1  0  0  0  0
M  END
>  <CHROM.1>
-178.48806659,60.40187900,-168.72821749,166.17984582,67.36943230,-73.31428081
-176.10236389,146.12051341,86.16819675,176.85424377,-179.02018537,49.64882890
-0.64396639,-6.52085128,-2.41687735,0.86501650,1.85738900

>  <Name>
ligand

>  <RI>
0

>  <Rbt.Current_Directory>
/home/itssahil/PROJECTS/Mol_Feturizer/New_Systems/rnas/4FAW

>  <Rbt.Executable>
rbdock ($Id: //depot/dev/client3/rdock/2013.1/src/exe/rbdock.cxx#4 $)

>  <Rbt.Library>
libRbt.so (2013.1, Build901 2013/11/27)

>  <Rbt.Parameter_File>
/export/apps/rDock/src/rDock_2013.1_src/data/scripts/dock_solv.prm

>  <Rbt.Receptor>
prm/pocket_docking_8.prm

>  <SCORE>
-8.34453

>  <SCORE.INTER>
0.777014

>  <SCORE.INTER.CONST>
1

>  <SCORE.INTER.POLAR>
0

>  <SCORE.INTER.ROT>
11

>  <SCORE.INTER.SOLV>
5.51285

>  <SCORE.INTER.VDW>
-12.2529

>  <SCORE.INTER.norm>
0.055501

>  <SCORE.INTRA>
-9.12154

>  <SCORE.INTRA.DIHEDRAL>
-16.6226

>  <SCORE.INTRA.DIHEDRAL.0>
19.1003

>  <SCORE.INTRA.POLAR>
0

>  <SCORE.INTRA.POLAR.0>
0

>  <SCORE.INTRA.REPUL>
0

>  <SCORE.INTRA.REPUL.0>
0

>  <SCORE.INTRA.SOLV>
-0.225812

>  <SCORE.INTRA.SOLV.lig_0>
-47.5333

>  <SCORE.INTRA.VDW>
-0.697326

>  <SCORE.INTRA.VDW.0>
-0.287413

>  <SCORE.INTRA.norm>
-0.651539

>  <SCORE.RESTR>
0

>  <SCORE.RESTR.CAVITY>
0

>  <SCORE.RESTR.norm>
0

>  <SCORE.SYSTEM>
0

>  <SCORE.SYSTEM.CONST>
0

>  <SCORE.SYSTEM.DIHEDRAL>
0

>  <SCORE.SYSTEM.SOLV>
0

>  <SCORE.SYSTEM.norm>
0

>  <SCORE.heavy>
14

>  <SCORE.norm>
-0.596038

>  <RMSD>
9.836

$$$$
ligand
 OpenBabel11021811493D
libRbt.so/2013.1/901 2013/11/27
 14 13  0  0  0  0  0  0  0  0999 V2000
   48.2058    5.6340   -3.3278 N   0  0  0  0  0  0  0  0  0  0  0  0
   48.7209    4.5748   -4.1674 C   0  0  0  0  0  0  0  0  0  0  0  0
   49.5443    3.5993   -3.3014 C   0  0  0  0  0  0  0  0  0  0  0  0
   50.1871    2.4509   -4.0945 C   0  0  0  0  0  0  0  0  0  0  0  0
   50.9113    1.4489   -3.2975 N   0  0  0  0  0  0  0  0  0  0  0  0
   51.3928    0.1793   -3.8390 C   0  0  0  0  0  0  0  0  0  0  0  0
   50.3020   -0.8829   -3.9301 C   0  0  0  0  0  0  0  0  0  0  0  0
   49.2375   -0.5800   -4.9897 C   0  0  0  0  0  0  0  0  0  0  0  0
   48.2420   -1.7348   -5.1511 C   0  0  0  0  0  0  0  0  0  0  0  0
   47.2419   -1.3751   -6.1542 N   0  0  0  0  0  0  0  0  0  0  0  0
   46.7207   -2.2921   -7.1695 C   0  0  0  0  0  0  0  0  0  0  0  0
   46.9188   -1.7719   -8.6000 C   0  0  0  0  0  0  0  0  0  0  0  0
   48.4055   -1.6450   -8.9483 C   0  0  0  0  0  0  0  0  0  0  0  0
   48.5423   -1.1511  -10.3153 N   0  0  0  0  0  0  0  0  0  0  0  0
  1  2  1  0  0  0  0
  2  3  1  0  0  0  0
  3  4  1  0  0  0  0
  4  5  1  0  0  0  0
  5  6  1  0  0  0  0
  6  7  1  0  0  0  0
  7  8  1  0  0  0  0
  8  9  1  0  0  0  0
  9 10  1  0  0  0  0
 10 11  1  0  0  0  0
 11 12  1  0  0  0  0
 12 13  1  0  0  0  0
 13 14  1  0  0  0  0
M  END
>  <CHROM.1>
-178.00901423,-176.29168268,169.42758086,-80.49685283,69.07711704,174.14114029
178.95605355,139.15059070,-123.12016491,63.60969243,179.87162535,48.89812987
0.46074915,-5.52031198,1.13887507,-0.93107677,0.37080985

>  <Name>
ligand

>  <RI>
0

>  <Rbt.Current_Directory>
/home/itssahil/PROJECTS/Mol_Feturizer/New_Systems/rnas/4FAW

>  <Rbt.Executable>
rbdock ($Id: //depot/dev/client3/rdock/2013.1/src/exe/rbdock.cxx#4 $)

>  <Rbt.Library>
libRbt.so (2013.1, Build901 2013/11/27)

>  <Rbt.Parameter_File>
/export/apps/rDock/src/rDock_2013.1_src/data/scripts/dock_solv.prm

>  <Rbt.Receptor>
prm/pocket_docking_8.prm

>  <SCORE>
-10.8463

>  <SCORE.INTER>
-1.46147

>  <SCORE.INTER.CONST>
1

>  <SCORE.INTER.POLAR>
0

>  <SCORE.INTER.ROT>
11

>  <SCORE.INTER.SOLV>
9.23043

>  <SCORE.INTER.VDW>
-14.9845

>  <SCORE.INTER.norm>
-0.104391

>  <SCORE.INTRA>
-9.38484

>  <SCORE.INTRA.DIHEDRAL>
-16.0133

>  <SCORE.INTRA.DIHEDRAL.0>
19.1003

>  <SCORE.INTRA.POLAR>
0

>  <SCORE.INTRA.POLAR.0>
0

>  <SCORE.INTRA.REPUL>
0

>  <SCORE.INTRA.REPUL.0>
0

>  <SCORE.INTRA.SOLV>
-0.81295

>  <SCORE.INTRA.SOLV.lig_0>
-47.5333

>  <SCORE.INTRA.VDW>
-0.971694

>  <SCORE.INTRA.VDW.0>
-0.287413

>  <SCORE.INTRA.norm>
-0.670346

>  <SCORE.RESTR>
0

>  <SCORE.RESTR.CAVITY>
0

>  <SCORE.RESTR.norm>
0

>  <SCORE.SYSTEM>
0

>  <SCORE.SYSTEM.CONST>
0

>  <SCORE.SYSTEM.DIHEDRAL>
0

>  <SCORE.SYSTEM.SOLV>
0

>  <SCORE.SYSTEM.norm>
0

>  <SCORE.heavy>
14

>  <SCORE.norm>
-0.774737

>  <RMSD>
9.883

$$$$
ligand
 OpenBabel11021811493D
libRbt.so/2013.1/901 2013/11/27
 14 13  0  0  0  0  0  0  0  0999 V2000
   50.0110   -1.7073  -10.2305 N   0  0  0  0  0  0  0  0  0  0  0  0
   49.2858   -2.7941   -9.6098 C   0  0  0  0  0  0  0  0  0  0  0  0
   49.5987   -2.8123   -8.0994 C   0  0  0  0  0  0  0  0  0  0  0  0
   48.7943   -3.8551   -7.3079 C   0  0  0  0  0  0  0  0  0  0  0  0
   48.8478   -3.7286   -5.8434 N   0  0  0  0  0  0  0  0  0  0  0  0
   48.4758   -2.5122   -5.1229 C   0  0  0  0  0  0  0  0  0  0  0  0
   49.4941   -1.3882   -5.2837 C   0  0  0  0  0  0  0  0  0  0  0  0
   49.0588   -0.0688   -4.6376 C   0  0  0  0  0  0  0  0  0  0  0  0
   50.1190    1.0271   -4.7978 C   0  0  0  0  0  0  0  0  0  0  0  0
   49.7578    2.1750   -3.9686 N   0  0  0  0  0  0  0  0  0  0  0  0
   48.6859    3.1206   -4.2854 C   0  0  0  0  0  0  0  0  0  0  0  0
   48.3848    4.0878   -3.1322 C   0  0  0  0  0  0  0  0  0  0  0  0
   47.2724    5.0734   -3.5047 C   0  0  0  0  0  0  0  0  0  0  0  0
   47.0242    5.9713   -2.3806 N   0  0  0  0  0  0  0  0  0  0  0  0
  1  2  1  0  0  0  0
  2  3  1  0  0  0  0
  3  4  1  0  0  0  0
  4  5  1  0  0  0  0
  5  6  1  0  0  0  0
  6  7  1  0  0  0  0
  7  8  1  0  0  0  0
  8  9  1  0  0  0  0
  9 10  1  0  0  0  0
 10 11  1  0  0  0  0
 11 12  1  0  0  0  0
 12 13  1  0  0  0  0
 13 14  1  0  0  0  0
M  END
>  <CHROM.1>
175.23184886,-167.90433345,56.08802468,-72.25103321,174.89215765,178.92931510
-170.08174038,-74.40052572,170.77878620,179.25240335,-179.90391169,48.91502173
0.18470122,-5.58602629,-0.59051224,1.39339852,-0.40447311

>  <Name>
ligand

>  <RI>
0

>  <Rbt.Current_Directory>
/home/itssahil/PROJECTS/Mol_Feturizer/New_Systems/rnas/4FAW

>  <Rbt.Executable>
rbdock ($Id: //depot/dev/client3/rdock/2013.1/src/exe/rbdock.cxx#4 $)

>  <Rbt.Library>
libRbt.so (2013.1, Build901 2013/11/27)

>  <Rbt.Parameter_File>
/export/apps/rDock/src/rDock_2013.1_src/data/scripts/dock_solv.prm

>  <Rbt.Receptor>
prm/pocket_docking_8.prm

>  <SCORE>
-7.87953

>  <SCORE.INTER>
1.74051

>  <SCORE.INTER.CONST>
1

>  <SCORE.INTER.POLAR>
0

>  <SCORE.INTER.ROT>
11

>  <SCORE.INTER.SOLV>
8.15131

>  <SCORE.INTER.VDW>
-12.4901

>  <SCORE.INTER.norm>
0.124322

>  <SCORE.INTRA>
-9.62987

>  <SCORE.INTRA.DIHEDRAL>
-17.6475

>  <SCORE.INTRA.DIHEDRAL.0>
19.1003

>  <SCORE.INTRA.POLAR>
0

>  <SCORE.INTRA.POLAR.0>
0

>  <SCORE.INTRA.REPUL>
0

>  <SCORE.INTRA.REPUL.0>
0

>  <SCORE.INTRA.SOLV>
-1.50643

>  <SCORE.INTRA.SOLV.lig_0>
-47.5333

>  <SCORE.INTRA.VDW>
-0.0528964

>  <SCORE.INTRA.VDW.0>
-0.287413

>  <SCORE.INTRA.norm>
-0.687848

>  <SCORE.RESTR>
0.00982849

>  <SCORE.RESTR.CAVITY>
0.00982849

>  <SCORE.RESTR.norm>
0.000702035

>  <SCORE.SYSTEM>
0

>  <SCORE.SYSTEM.CONST>
0

>  <SCORE.SYSTEM.DIHEDRAL>
0

>  <SCORE.SYSTEM.SOLV>
0

>  <SCORE.SYSTEM.norm>
0

>  <SCORE.heavy>
14

>  <SCORE.norm>
-0.562823

>  <RMSD>
10.495

$$$$
ligand
 OpenBabel11021811493D
libRbt.so/2013.1/901 2013/11/27
 14 13  0  0  0  0  0  0  0  0999 V2000
   52.3283    0.7662   -5.7336 N   0  0  0  0  0  0  0  0  0  0  0  0
   50.9134    1.0099   -5.9090 C   0  0  0  0  0  0  0  0  0  0  0  0
   50.1954    0.8105   -4.5583 C   0  0  0  0  0  0  0  0  0  0  0  0
   50.2076   -0.6406   -4.0532 C   0  0  0  0  0  0  0  0  0  0  0  0
   49.5621   -1.6295   -4.9302 N   0  0  0  0  0  0  0  0  0  0  0  0
   48.1768   -1.5246   -5.3849 C   0  0  0  0  0  0  0  0  0  0  0  0
   47.9681   -2.0693   -6.7941 C   0  0  0  0  0  0  0  0  0  0  0  0
   46.5254   -1.9417   -7.2940 C   0  0  0  0  0  0  0  0  0  0  0  0
   46.3474   -2.5385   -8.6951 C   0  0  0  0  0  0  0  0  0  0  0  0
   46.2177   -3.9903   -8.5898 N   0  0  0  0  0  0  0  0  0  0  0  0
   47.2777   -4.8844   -8.1202 C   0  0  0  0  0  0  0  0  0  0  0  0
   47.0654   -5.3516   -6.6735 C   0  0  0  0  0  0  0  0  0  0  0  0
   48.1759   -6.3076   -6.2258 C   0  0  0  0  0  0  0  0  0  0  0  0
   48.0751   -7.5539   -6.9793 N   0  0  0  0  0  0  0  0  0  0  0  0
  1  2  1  0  0  0  0
  2  3  1  0  0  0  0
  3  4  1  0  0  0  0
  4  5  1  0  0  0  0
  5  6  1  0  0  0  0
  6  7  1  0  0  0  0
  7  8  1  0  0  0  0
  8  9  1  0  0  0  0
  9 10  1  0  0  0  0
 10 11  1  0  0  0  0
 11 12  1  0  0  0  0
 12 13  1  0  0  0  0
 13 14  1  0  0  0  0
M  END
>  <CHROM.1>
-66.83153339,-60.28464549,-56.09560266,145.86283019,-178.91147112,-178.24423291
80.33407269,-65.17800851,102.39022008,178.79804537,-67.34765955,48.50237191
-2.56016914,-6.42430507,-0.87375244,0.69004948,3.03756267

>  <Name>
ligand

>  <RI>
0

>  <Rbt.Current_Directory>
/home/itssahil/PROJECTS/Mol_Feturizer/New_Systems/rnas/4FAW

>  <Rbt.Executable>
rbdock ($Id: //depot/dev/client3/rdock/2013.1/src/exe/rbdock.cxx#4 $)

>  <Rbt.Library>
libRbt.so (2013.1, Build901 2013/11/27)

>  <Rbt.Parameter_File>
/export/apps/rDock/src/rDock_2013.1_src/data/scripts/dock_solv.prm

>  <Rbt.Receptor>
prm/blind_docking_60.prm

>  <SCORE>
-7.90452

>  <SCORE.INTER>
-0.440887

>  <SCORE.INTER.CONST>
1

>  <SCORE.INTER.POLAR>
0

>  <SCORE.INTER.ROT>
11

>  <SCORE.INTER.SOLV>
10.0191

>  <SCORE.INTER.VDW>
-14.567

>  <SCORE.INTER.norm>
-0.031492

>  <SCORE.INTRA>
-7.46364

>  <SCORE.INTRA.DIHEDRAL>
-15.5528

>  <SCORE.INTRA.DIHEDRAL.0>
19.1003

>  <SCORE.INTRA.POLAR>
0

>  <SCORE.INTRA.POLAR.0>
0

>  <SCORE.INTRA.REPUL>
0

>  <SCORE.INTRA.REPUL.0>
0

>  <SCORE.INTRA.SOLV>
1.20933

>  <SCORE.INTRA.SOLV.lig_0>
-47.5333

>  <SCORE.INTRA.VDW>
-0.291895

>  <SCORE.INTRA.VDW.0>
-0.287413

>  <SCORE.INTRA.norm>
-0.533117

>  <SCORE.RESTR>
0

>  <SCORE.RESTR.CAVITY>
0

>  <SCORE.RESTR.norm>
0

>  <SCORE.SYSTEM>
0

>  <SCORE.SYSTEM.CONST>
0

>  <SCORE.SYSTEM.DIHEDRAL>
0

>  <SCORE.SYSTEM.SOLV>
0

>  <SCORE.SYSTEM.norm>
0

>  <SCORE.heavy>
14

>  <SCORE.norm>
-0.564609

>  <RMSD>
11.526

$$$$
ligand
 OpenBabel11021811493D
libRbt.so/2013.1/901 2013/11/27
 14 13  0  0  0  0  0  0  0  0999 V2000
   49.4781   -0.8760   -4.5004 N   0  0  0  0  0  0  0  0  0  0  0  0
   48.1969   -1.3569   -4.9686 C   0  0  0  0  0  0  0  0  0  0  0  0
   48.2401   -1.4955   -6.5044 C   0  0  0  0  0  0  0  0  0  0  0  0
   46.9100   -1.9460   -7.1281 C   0  0  0  0  0  0  0  0  0  0  0  0
   46.8718   -1.9828   -8.5980 N   0  0  0  0  0  0  0  0  0  0  0  0
   47.6993   -2.8768   -9.4062 C   0  0  0  0  0  0  0  0  0  0  0  0
   47.0800   -4.2582   -9.5918 C   0  0  0  0  0  0  0  0  0  0  0  0
   45.8381   -4.2584  -10.4892 C   0  0  0  0  0  0  0  0  0  0  0  0
   45.0737   -5.5854  -10.4127 C   0  0  0  0  0  0  0  0  0  0  0  0
   45.9278   -6.6649  -10.9033 N   0  0  0  0  0  0  0  0  0  0  0  0
   45.7184   -8.0842  -10.6112 C   0  0  0  0  0  0  0  0  0  0  0  0
   44.3419   -8.5890  -11.0657 C   0  0  0  0  0  0  0  0  0  0  0  0
   44.0601   -9.9988  -10.5358 C   0  0  0  0  0  0  0  0  0  0  0  0
   44.0070   -9.9663   -9.0772 N   0  0  0  0  0  0  0  0  0  0  0  0
  1  2  1  0  0  0  0
  2  3  1  0  0  0  0
  3  4  1  0  0  0  0
  4  5  1  0  0  0  0
  5  6  1  0  0  0  0
  6  7  1  0  0  0  0
  7  8  1  0  0  0  0
  8  9  1  0  0  0  0
  9 10  1  0  0  0  0
 10 11  1  0  0  0  0
 11 12  1  0  0  0  0
 12 13  1  0  0  0  0
 13 14  1  0  0  0  0
M  END
>  <CHROM.1>
-177.59931035,175.07144702,64.14457243,85.39030816,69.75962764,-167.72006141
-62.69949631,160.35807011,58.14894940,-170.23092632,63.51292018,46.38873153
-4.85280575,-8.84256223,0.04388109,1.16599262,2.05585197

>  <Name>
ligand

>  <RI>
0

>  <Rbt.Current_Directory>
/home/itssahil/PROJECTS/Mol_Feturizer/New_Systems/rnas/4FAW

>  <Rbt.Executable>
rbdock ($Id: //depot/dev/client3/rdock/2013.1/src/exe/rbdock.cxx#4 $)

>  <Rbt.Library>
libRbt.so (2013.1, Build901 2013/11/27)

>  <Rbt.Parameter_File>
/export/apps/rDock/src/rDock_2013.1_src/data/scripts/dock_solv.prm

>  <Rbt.Receptor>
prm/blind_docking_60.prm

>  <SCORE>
-10.99

>  <SCORE.INTER>
-2.50437

>  <SCORE.INTER.CONST>
1

>  <SCORE.INTER.POLAR>
0

>  <SCORE.INTER.ROT>
11

>  <SCORE.INTER.SOLV>
9.37813

>  <SCORE.INTER.VDW>
-15.729

>  <SCORE.INTER.norm>
-0.178883

>  <SCORE.INTRA>
-8.48567

>  <SCORE.INTRA.DIHEDRAL>
-16.8324

>  <SCORE.INTRA.DIHEDRAL.0>
19.1003

>  <SCORE.INTRA.POLAR>
0

>  <SCORE.INTRA.POLAR.0>
0

>  <SCORE.INTRA.REPUL>
0

>  <SCORE.INTRA.REPUL.0>
0

>  <SCORE.INTRA.SOLV>
0.165939

>  <SCORE.INTRA.SOLV.lig_0>
-47.5333

>  <SCORE.INTRA.VDW>
-0.152429

>  <SCORE.INTRA.VDW.0>
-0.287413

>  <SCORE.INTRA.norm>
-0.606119

>  <SCORE.RESTR>
0

>  <SCORE.RESTR.CAVITY>
0

>  <SCORE.RESTR.norm>
0

>  <SCORE.SYSTEM>
0

>  <SCORE.SYSTEM.CONST>
0

>  <SCORE.SYSTEM.DIHEDRAL>
0

>  <SCORE.SYSTEM.SOLV>
0

>  <SCORE.SYSTEM.norm>
0

>  <SCORE.heavy>
14

>  <SCORE.norm>
-0.785003

>  <RMSD>
15.166

$$$$
ligand
 OpenBabel11021811493D
libRbt.so/2013.1/901 2013/11/27
 14 13  0  0  0  0  0  0  0  0999 V2000
   49.1744   -1.3888   -5.9090 N   0  0  0  0  0  0  0  0  0  0  0  0
   48.6273   -2.5676   -5.2739 C   0  0  0  0  0  0  0  0  0  0  0  0
   48.1138   -3.5343   -6.3608 C   0  0  0  0  0  0  0  0  0  0  0  0
   46.9658   -2.9662   -7.2096 C   0  0  0  0  0  0  0  0  0  0  0  0
   46.4530   -3.8505   -8.2672 N   0  0  0  0  0  0  0  0  0  0  0  0
   46.3533   -3.4577   -9.6718 C   0  0  0  0  0  0  0  0  0  0  0  0
   45.2710   -4.2198  -10.4294 C   0  0  0  0  0  0  0  0  0  0  0  0
   45.6164   -5.6917  -10.6776 C   0  0  0  0  0  0  0  0  0  0  0  0
   45.3095   -6.5679   -9.4573 C   0  0  0  0  0  0  0  0  0  0  0  0
   45.7731   -7.9304   -9.7109 N   0  0  0  0  0  0  0  0  0  0  0  0
   45.4726   -8.6951  -10.9227 C   0  0  0  0  0  0  0  0  0  0  0  0
   43.9895   -9.0749  -11.0348 C   0  0  0  0  0  0  0  0  0  0  0  0
   43.5399   -9.9313   -9.8465 C   0  0  0  0  0  0  0  0  0  0  0  0
   44.2562  -11.2032   -9.8677 N   0  0  0  0  0  0  0  0  0  0  0  0
  1  2  1  0  0  0  0
  2  3  1  0  0  0  0
  3  4  1  0  0  0  0
  4  5  1  0  0  0  0
  5  6  1  0  0  0  0
  6  7  1  0  0  0  0
  7  8  1  0  0  0  0
  8  9  1  0  0  0  0
  9 10  1  0  0  0  0
 10 11  1  0  0  0  0
 11 12  1  0  0  0  0
 12 13  1  0  0  0  0
 13 14  1  0  0  0  0
M  END
>  <CHROM.1>
-62.83245441,179.45963806,-125.94172736,-153.90708669,-70.98728517,82.01591653
-174.80963762,-49.40277391,-68.17589134,-59.81659765,-64.46481066,46.06527360
-5.79127000,-8.90299765,-0.55766471,1.05042544,2.69834706

>  <Name>
ligand

>  <RI>
0

>  <Rbt.Current_Directory>
/home/itssahil/PROJECTS/Mol_Feturizer/New_Systems/rnas/4FAW

>  <Rbt.Executable>
rbdock ($Id: //depot/dev/client3/rdock/2013.1/src/exe/rbdock.cxx#4 $)

>  <Rbt.Library>
libRbt.so (2013.1, Build901 2013/11/27)

>  <Rbt.Parameter_File>
/export/apps/rDock/src/rDock_2013.1_src/data/scripts/dock_solv.prm

>  <Rbt.Receptor>
prm/blind_docking_80.prm

>  <SCORE>
-9.68123

>  <SCORE.INTER>
-3.59041

>  <SCORE.INTER.CONST>
1

>  <SCORE.INTER.POLAR>
0

>  <SCORE.INTER.ROT>
11

>  <SCORE.INTER.SOLV>
7.87154

>  <SCORE.INTER.VDW>
-15.9508

>  <SCORE.INTER.norm>
-0.256458

>  <SCORE.INTRA>
-6.09081

>  <SCORE.INTRA.DIHEDRAL>
-14.837

>  <SCORE.INTRA.DIHEDRAL.0>
19.1003

>  <SCORE.INTRA.POLAR>
0

>  <SCORE.INTRA.POLAR.0>
0

>  <SCORE.INTRA.REPUL>
0

>  <SCORE.INTRA.REPUL.0>
0

>  <SCORE.INTRA.SOLV>
1.9595

>  <SCORE.INTRA.SOLV.lig_0>
-47.5333

>  <SCORE.INTRA.VDW>
0.347925

>  <SCORE.INTRA.VDW.0>
-0.287413

>  <SCORE.INTRA.norm>
-0.435058

>  <SCORE.RESTR>
0

>  <SCORE.RESTR.CAVITY>
0

>  <SCORE.RESTR.norm>
0

>  <SCORE.SYSTEM>
0

>  <SCORE.SYSTEM.CONST>
0

>  <SCORE.SYSTEM.DIHEDRAL>
0

>  <SCORE.SYSTEM.SOLV>
0

>  <SCORE.SYSTEM.norm>
0

>  <SCORE.heavy>
14

>  <SCORE.norm>
-0.691516

>  <RMSD>
15.778

$$$$
ligand
 OpenBabel11021811493D
libRbt.so/2013.1/901 2013/11/27
 14 13  0  0  0  0  0  0  0  0999 V2000
   61.8325   -7.3966    8.0646 N   0  0  0  0  0  0  0  0  0  0  0  0
   60.7087   -6.4975    8.2089 C   0  0  0  0  0  0  0  0  0  0  0  0
   60.7347   -5.8795    9.6220 C   0  0  0  0  0  0  0  0  0  0  0  0
   59.6007   -4.8767    9.8856 C   0  0  0  0  0  0  0  0  0  0  0  0
   59.5814   -4.2693   11.2251 N   0  0  0  0  0  0  0  0  0  0  0  0
   59.4016   -5.0349   12.4575 C   0  0  0  0  0  0  0  0  0  0  0  0
   60.0422   -4.3705   13.6718 C   0  0  0  0  0  0  0  0  0  0  0  0
   59.9149   -5.1917   14.9590 C   0  0  0  0  0  0  0  0  0  0  0  0
   60.5841   -4.4986   16.1517 C   0  0  0  0  0  0  0  0  0  0  0  0
   59.8974   -3.2383   16.4268 N   0  0  0  0  0  0  0  0  0  0  0  0
   58.7042   -3.1114   17.2657 C   0  0  0  0  0  0  0  0  0  0  0  0
   57.3995   -3.1822   16.4602 C   0  0  0  0  0  0  0  0  0  0  0  0
   57.3042   -2.0360   15.4478 C   0  0  0  0  0  0  0  0  0  0  0  0
   56.0503   -2.1460   14.7082 N   0  0  0  0  0  0  0  0  0  0  0  0
  1  2  1  0  0  0  0
  2  3  1  0  0  0  0
  3  4  1  0  0  0  0
  4  5  1  0  0  0  0
  5  6  1  0  0  0  0
  6  7  1  0  0  0  0
  7  8  1  0  0  0  0
  8  9  1  0  0  0  0
  9 10  1  0  0  0  0
 10 11  1  0  0  0  0
 11 12  1  0  0  0  0
 12 13  1  0  0  0  0
 13 14  1  0  0  0  0
M  END
>  <CHROM.1>
178.69321911,179.59033780,-62.41964837,152.96515882,-177.46507379,179.35379567
63.57487841,85.71875901,-93.12576025,-61.84801671,179.99077373,59.41120070
-4.40930079,13.18272149,-1.19213546,-0.58852537,1.36998125

>  <Name>
ligand

>  <RI>
0

>  <Rbt.Current_Directory>
/home/itssahil/PROJECTS/Mol_Feturizer/New_Systems/rnas/4FAW

>  <Rbt.Executable>
rbdock ($Id: //depot/dev/client3/rdock/2013.1/src/exe/rbdock.cxx#4 $)

>  <Rbt.Library>
libRbt.so (2013.1, Build901 2013/11/27)

>  <Rbt.Parameter_File>
/export/apps/rDock/src/rDock_2013.1_src/data/scripts/dock_solv.prm

>  <Rbt.Receptor>
prm/blind_docking_100.prm

>  <SCORE>
-7.96793

>  <SCORE.INTER>
2.00212

>  <SCORE.INTER.CONST>
1

>  <SCORE.INTER.POLAR>
0

>  <SCORE.INTER.ROT>
11

>  <SCORE.INTER.SOLV>
15.3549

>  <SCORE.INTER.VDW>
-14.7169

>  <SCORE.INTER.norm>
0.143009

>  <SCORE.INTRA>
-9.97005

>  <SCORE.INTRA.DIHEDRAL>
-17.3297

>  <SCORE.INTRA.DIHEDRAL.0>
19.1003

>  <SCORE.INTRA.POLAR>
0

>  <SCORE.INTRA.POLAR.0>
0

>  <SCORE.INTRA.REPUL>
0

>  <SCORE.INTRA.REPUL.0>
0

>  <SCORE.INTRA.SOLV>
-0.720396

>  <SCORE.INTRA.SOLV.lig_0>
-47.5333

>  <SCORE.INTRA.VDW>
-0.945014

>  <SCORE.INTRA.VDW.0>
-0.287413

>  <SCORE.INTRA.norm>
-0.712147

>  <SCORE.RESTR>
0

>  <SCORE.RESTR.CAVITY>
0

>  <SCORE.RESTR.norm>
0

>  <SCORE.SYSTEM>
0

>  <SCORE.SYSTEM.CONST>
0

>  <SCORE.SYSTEM.DIHEDRAL>
0

>  <SCORE.SYSTEM.SOLV>
0

>  <SCORE.SYSTEM.norm>
0

>  <SCORE.heavy>
14

>  <SCORE.norm>
-0.569138

>  <RMSD>
16.021

$$$$
ligand
 OpenBabel11021811493D
libRbt.so/2013.1/901 2013/11/27
 14 13  0  0  0  0  0  0  0  0999 V2000
   45.7527  -12.9597   -5.7583 N   0  0  0  0  0  0  0  0  0  0  0  0
   44.7884  -11.9138   -5.4963 C   0  0  0  0  0  0  0  0  0  0  0  0
   43.3910  -12.3925   -5.9408 C   0  0  0  0  0  0  0  0  0  0  0  0
   43.2846  -12.6985   -7.4428 C   0  0  0  0  0  0  0  0  0  0  0  0
   43.4585  -11.5494   -8.3445 N   0  0  0  0  0  0  0  0  0  0  0  0
   43.6431  -11.6758   -9.7891 C   0  0  0  0  0  0  0  0  0  0  0  0
   43.5531  -10.3410  -10.5215 C   0  0  0  0  0  0  0  0  0  0  0  0
   44.6404   -9.3420  -10.1124 C   0  0  0  0  0  0  0  0  0  0  0  0
   44.6611   -8.1094  -11.0241 C   0  0  0  0  0  0  0  0  0  0  0  0
   45.5272   -7.0885  -10.4381 N   0  0  0  0  0  0  0  0  0  0  0  0
   45.3101   -5.6463  -10.5654 C   0  0  0  0  0  0  0  0  0  0  0  0
   46.4277   -4.8163   -9.9185 C   0  0  0  0  0  0  0  0  0  0  0  0
   46.5210   -5.0812   -8.4122 C   0  0  0  0  0  0  0  0  0  0  0  0
   47.5968   -4.2742   -7.8443 N   0  0  0  0  0  0  0  0  0  0  0  0
  1  2  1  0  0  0  0
  2  3  1  0  0  0  0
  3  4  1  0  0  0  0
  4  5  1  0  0  0  0
  5  6  1  0  0  0  0
  6  7  1  0  0  0  0
  7  8  1  0  0  0  0
  8  9  1  0  0  0  0
  9 10  1  0  0  0  0
 10 11  1  0  0  0  0
 11 12  1  0  0  0  0
 12 13  1  0  0  0  0
 13 14  1  0  0  0  0
M  END
>  <CHROM.1>
-61.81793292,-64.83157943,168.01558859,169.81754456,62.64702158,170.63003639
169.09307653,-147.22255026,-176.50087036,-61.72538686,179.86032320,44.89656650
-9.13497094,-8.68654670,-2.14751613,-1.01380786,-0.85083899

>  <Name>
ligand

>  <RI>
0

>  <Rbt.Current_Directory>
/home/itssahil/PROJECTS/Mol_Feturizer/New_Systems/rnas/4FAW

>  <Rbt.Executable>
rbdock ($Id: //depot/dev/client3/rdock/2013.1/src/exe/rbdock.cxx#4 $)

>  <Rbt.Library>
libRbt.so (2013.1, Build901 2013/11/27)

>  <Rbt.Parameter_File>
/export/apps/rDock/src/rDock_2013.1_src/data/scripts/dock_solv.prm

>  <Rbt.Receptor>
prm/blind_docking_80.prm

>  <SCORE>
-7.22291

>  <SCORE.INTER>
1.88816

>  <SCORE.INTER.CONST>
1

>  <SCORE.INTER.POLAR>
0

>  <SCORE.INTER.ROT>
11

>  <SCORE.INTER.SOLV>
4.5108

>  <SCORE.INTER.VDW>
-11.1782

>  <SCORE.INTER.norm>
0.134868

>  <SCORE.INTRA>
-9.11107

>  <SCORE.INTRA.DIHEDRAL>
-17.2687

>  <SCORE.INTRA.DIHEDRAL.0>
19.1003

>  <SCORE.INTRA.POLAR>
0

>  <SCORE.INTRA.POLAR.0>
0

>  <SCORE.INTRA.REPUL>
0

>  <SCORE.INTRA.REPUL.0>
0

>  <SCORE.INTRA.SOLV>
0.879961

>  <SCORE.INTRA.SOLV.lig_0>
-47.5333

>  <SCORE.INTRA.VDW>
-0.916691

>  <SCORE.INTRA.VDW.0>
-0.287413

>  <SCORE.INTRA.norm>
-0.650791

>  <SCORE.RESTR>
0

>  <SCORE.RESTR.CAVITY>
0

>  <SCORE.RESTR.norm>
0

>  <SCORE.SYSTEM>
0

>  <SCORE.SYSTEM.CONST>
0

>  <SCORE.SYSTEM.DIHEDRAL>
0

>  <SCORE.SYSTEM.SOLV>
0

>  <SCORE.SYSTEM.norm>
0

>  <SCORE.heavy>
14

>  <SCORE.norm>
-0.515922

>  <RMSD>
18.193

$$$$
ligand
 OpenBabel11021811493D
libRbt.so/2013.1/901 2013/11/27
 14 13  0  0  0  0  0  0  0  0999 V2000
   54.5465  -12.0535   18.9790 N   0  0  0  0  0  0  0  0  0  0  0  0
   55.8770  -11.8100   19.4917 C   0  0  0  0  0  0  0  0  0  0  0  0
   56.5201  -10.6541   18.6982 C   0  0  0  0  0  0  0  0  0  0  0  0
   57.9502  -10.3111   19.1436 C   0  0  0  0  0  0  0  0  0  0  0  0
   58.6001   -9.2090   18.4180 N   0  0  0  0  0  0  0  0  0  0  0  0
   59.9671   -8.7628   18.6810 C   0  0  0  0  0  0  0  0  0  0  0  0
   60.3952   -7.5968   17.7959 C   0  0  0  0  0  0  0  0  0  0  0  0
   59.5703   -6.3245   18.0155 C   0  0  0  0  0  0  0  0  0  0  0  0
   60.0769   -5.1562   17.1615 C   0  0  0  0  0  0  0  0  0  0  0  0
   59.3393   -3.9445   17.5127 N   0  0  0  0  0  0  0  0  0  0  0  0
   58.1968   -3.4234   16.7600 C   0  0  0  0  0  0  0  0  0  0  0  0
   57.7936   -2.0073   17.1938 C   0  0  0  0  0  0  0  0  0  0  0  0
   56.5506   -1.5238   16.4396 C   0  0  0  0  0  0  0  0  0  0  0  0
   56.8779   -1.3498   15.0276 N   0  0  0  0  0  0  0  0  0  0  0  0
  1  2  1  0  0  0  0
  2  3  1  0  0  0  0
  3  4  1  0  0  0  0
  4  5  1  0  0  0  0
  5  6  1  0  0  0  0
  6  7  1  0  0  0  0
  7  8  1  0  0  0  0
  8  9  1  0  0  0  0
  9 10  1  0  0  0  0
 10 11  1  0  0  0  0
 11 12  1  0  0  0  0
 12 13  1  0  0  0  0
 13 14  1  0  0  0  0
M  END
>  <CHROM.1>
-179.35836694,-179.69059273,-178.53398589,-179.62989960,63.13205573,177.04338294
-174.40150504,-98.30001959,-168.93568613,-176.94000553,-66.98131134,58.01895819
-6.72338212,17.80855479,1.69492053,0.07977485,2.84460469

>  <Name>
ligand

>  <RI>
0

>  <Rbt.Current_Directory>
/home/itssahil/PROJECTS/Mol_Feturizer/New_Systems/rnas/4FAW

>  <Rbt.Executable>
rbdock ($Id: //depot/dev/client3/rdock/2013.1/src/exe/rbdock.cxx#4 $)

>  <Rbt.Library>
libRbt.so (2013.1, Build901 2013/11/27)

>  <Rbt.Parameter_File>
/export/apps/rDock/src/rDock_2013.1_src/data/scripts/dock_solv.prm

>  <Rbt.Receptor>
prm/blind_docking_80.prm

>  <SCORE>
-8.62561

>  <SCORE.INTER>
1.22483

>  <SCORE.INTER.CONST>
1

>  <SCORE.INTER.POLAR>
0

>  <SCORE.INTER.ROT>
11

>  <SCORE.INTER.SOLV>
8.45386

>  <SCORE.INTER.VDW>
-12.9347

>  <SCORE.INTER.norm>
0.0874877

>  <SCORE.INTRA>
-9.85043

>  <SCORE.INTRA.DIHEDRAL>
-17.737

>  <SCORE.INTRA.DIHEDRAL.0>
19.1003

>  <SCORE.INTRA.POLAR>
0

>  <SCORE.INTRA.POLAR.0>
0

>  <SCORE.INTRA.REPUL>
0

>  <SCORE.INTRA.REPUL.0>
0

>  <SCORE.INTRA.SOLV>
-0.404754

>  <SCORE.INTRA.SOLV.lig_0>
-47.5333

>  <SCORE.INTRA.VDW>
-0.779582

>  <SCORE.INTRA.VDW.0>
-0.287413

>  <SCORE.INTRA.norm>
-0.703602

>  <SCORE.RESTR>
0

>  <SCORE.RESTR.CAVITY>
0

>  <SCORE.RESTR.norm>
0

>  <SCORE.SYSTEM>
0

>  <SCORE.SYSTEM.CONST>
0

>  <SCORE.SYSTEM.DIHEDRAL>
0

>  <SCORE.SYSTEM.SOLV>
0

>  <SCORE.SYSTEM.norm>
0

>  <SCORE.heavy>
14

>  <SCORE.norm>
-0.616115

>  <RMSD>
20.437

$$$$
ligand
 OpenBabel11021811493D
libRbt.so/2013.1/901 2013/11/27
 14 13  0  0  0  0  0  0  0  0999 V2000
   58.7310   -4.1788   12.6660 N   0  0  0  0  0  0  0  0  0  0  0  0
   58.8467   -5.6206   12.6625 C   0  0  0  0  0  0  0  0  0  0  0  0
   58.4935   -6.1589   14.0642 C   0  0  0  0  0  0  0  0  0  0  0  0
   59.4879   -5.7458   15.1604 C   0  0  0  0  0  0  0  0  0  0  0  0
   59.1378   -6.1537   16.5295 N   0  0  0  0  0  0  0  0  0  0  0  0
   60.0984   -6.1979   17.6306 C   0  0  0  0  0  0  0  0  0  0  0  0
   60.7324   -7.5728   17.8148 C   0  0  0  0  0  0  0  0  0  0  0  0
   59.9017   -8.5197   18.6871 C   0  0  0  0  0  0  0  0  0  0  0  0
   58.5952   -8.9359   18.0010 C   0  0  0  0  0  0  0  0  0  0  0  0
   57.7861   -9.7172   18.9340 N   0  0  0  0  0  0  0  0  0  0  0  0
   58.1299  -11.0604   19.4041 C   0  0  0  0  0  0  0  0  0  0  0  0
   57.1502  -11.5909   20.4601 C   0  0  0  0  0  0  0  0  0  0  0  0
   57.2232  -10.7714   21.7526 C   0  0  0  0  0  0  0  0  0  0  0  0
   56.3389  -11.3635   22.7520 N   0  0  0  0  0  0  0  0  0  0  0  0
  1  2  1  0  0  0  0
  2  3  1  0  0  0  0
  3  4  1  0  0  0  0
  4  5  1  0  0  0  0
  5  6  1  0  0  0  0
  6  7  1  0  0  0  0
  7  8  1  0  0  0  0
  8  9  1  0  0  0  0
  9 10  1  0  0  0  0
 10 11  1  0  0  0  0
 11 12  1  0  0  0  0
 12 13  1  0  0  0  0
 13 14  1  0  0  0  0
M  END
>  <CHROM.1>
-66.01889973,175.68265684,162.07530577,-93.51644904,-85.54080023,68.32198311
-173.97250044,-68.74983087,175.60362949,-65.89884617,-176.43662761,58.61830602
-8.11349152,17.60844758,1.33854664,-0.58139694,-1.03177321

>  <Name>
ligand

>  <RI>
0

>  <Rbt.Current_Directory>
/home/itssahil/PROJECTS/Mol_Feturizer/New_Systems/rnas/4FAW

>  <Rbt.Executable>
rbdock ($Id: //depot/dev/client3/rdock/2013.1/src/exe/rbdock.cxx#4 $)

>  <Rbt.Library>
libRbt.so (2013.1, Build901 2013/11/27)

>  <Rbt.Parameter_File>
/export/apps/rDock/src/rDock_2013.1_src/data/scripts/dock_solv.prm

>  <Rbt.Receptor>
prm/blind_docking_80.prm

>  <SCORE>
-7.97463

>  <SCORE.INTER>
-0.266171

>  <SCORE.INTER.CONST>
1

>  <SCORE.INTER.POLAR>
0

>  <SCORE.INTER.ROT>
11

>  <SCORE.INTER.SOLV>
13.1353

>  <SCORE.INTER.VDW>
-15.4892

>  <SCORE.INTER.norm>
-0.0190122

>  <SCORE.INTRA>
-7.70845

>  <SCORE.INTRA.DIHEDRAL>
-15.139

>  <SCORE.INTRA.DIHEDRAL.0>
19.1003

>  <SCORE.INTRA.POLAR>
0

>  <SCORE.INTRA.POLAR.0>
0

>  <SCORE.INTRA.REPUL>
0

>  <SCORE.INTRA.REPUL.0>
0

>  <SCORE.INTRA.SOLV>
0.378104

>  <SCORE.INTRA.SOLV.lig_0>
-47.5333

>  <SCORE.INTRA.VDW>
-0.327984

>  <SCORE.INTRA.VDW.0>
-0.287413

>  <SCORE.INTRA.norm>
-0.550604

>  <SCORE.RESTR>
0

>  <SCORE.RESTR.CAVITY>
0

>  <SCORE.RESTR.norm>
0

>  <SCORE.SYSTEM>
0

>  <SCORE.SYSTEM.CONST>
0

>  <SCORE.SYSTEM.DIHEDRAL>
0

>  <SCORE.SYSTEM.SOLV>
0

>  <SCORE.SYSTEM.norm>
0

>  <SCORE.heavy>
14

>  <SCORE.norm>
-0.569616

>  <RMSD>
20.823

$$$$
ligand
 OpenBabel11021811493D
libRbt.so/2013.1/901 2013/11/27
 14 13  0  0  0  0  0  0  0  0999 V2000
   54.5167  -11.9686   19.4314 N   0  0  0  0  0  0  0  0  0  0  0  0
   55.9422  -11.7837   19.5924 C   0  0  0  0  0  0  0  0  0  0  0  0
   56.2234  -11.2322   21.0053 C   0  0  0  0  0  0  0  0  0  0  0  0
   57.7129  -10.9927   21.2969 C   0  0  0  0  0  0  0  0  0  0  0  0
   58.3558   -9.9272   20.5127 N   0  0  0  0  0  0  0  0  0  0  0  0
   58.6974  -10.0587   19.0974 C   0  0  0  0  0  0  0  0  0  0  0  0
   59.6191   -8.9498   18.6003 C   0  0  0  0  0  0  0  0  0  0  0  0
   59.0302   -7.5445   18.7604 C   0  0  0  0  0  0  0  0  0  0  0  0
   59.8823   -6.4806   18.0581 C   0  0  0  0  0  0  0  0  0  0  0  0
   59.7759   -6.6531   16.6109 N   0  0  0  0  0  0  0  0  0  0  0  0
   60.2537   -5.6829   15.6241 C   0  0  0  0  0  0  0  0  0  0  0  0
   59.5243   -5.7938   14.2780 C   0  0  0  0  0  0  0  0  0  0  0  0
   60.0083   -4.7276   13.2899 C   0  0  0  0  0  0  0  0  0  0  0  0
   59.2604   -4.8485   12.0420 N   0  0  0  0  0  0  0  0  0  0  0  0
  1  2  1  0  0  0  0
  2  3  1  0  0  0  0
  3  4  1  0  0  0  0
  4  5  1  0  0  0  0
  5  6  1  0  0  0  0
  6  7  1  0  0  0  0
  7  8  1  0  0  0  0
  8  9  1  0  0  0  0
  9 10  1  0  0  0  0
 10 11  1  0  0  0  0
 11 12  1  0  0  0  0
 12 13  1  0  0  0  0
 13 14  1  0  0  0  0
M  END
>  <CHROM.1>
-179.98889288,66.61546745,-73.57968554,-167.36051887,-59.31782430,-171.17071229
69.38294999,168.50472088,-155.58006030,177.65260212,-178.36718737,58.48608633
-8.33168819,17.72879492,2.01001418,0.62418354,2.05678460

>  <Name>
ligand

>  <RI>
0

>  <Rbt.Current_Directory>
/home/itssahil/PROJECTS/Mol_Feturizer/New_Systems/rnas/4FAW

>  <Rbt.Executable>
rbdock ($Id: //depot/dev/client3/rdock/2013.1/src/exe/rbdock.cxx#4 $)

>  <Rbt.Library>
libRbt.so (2013.1, Build901 2013/11/27)

>  <Rbt.Parameter_File>
/export/apps/rDock/src/rDock_2013.1_src/data/scripts/dock_solv.prm

>  <Rbt.Receptor>
prm/blind_docking_80.prm

>  <SCORE>
-9.69841

>  <SCORE.INTER>
-0.0396095

>  <SCORE.INTER.CONST>
1

>  <SCORE.INTER.POLAR>
0

>  <SCORE.INTER.ROT>
11

>  <SCORE.INTER.SOLV>
12.1101

>  <SCORE.INTER.VDW>
-14.9964

>  <SCORE.INTER.norm>
-0.00282925

>  <SCORE.INTRA>
-9.65881

>  <SCORE.INTRA.DIHEDRAL>
-17.4514

>  <SCORE.INTRA.DIHEDRAL.0>
19.1003

>  <SCORE.INTRA.POLAR>
0

>  <SCORE.INTRA.POLAR.0>
0

>  <SCORE.INTRA.REPUL>
0

>  <SCORE.INTRA.REPUL.0>
0

>  <SCORE.INTRA.SOLV>
-0.354445

>  <SCORE.INTRA.SOLV.lig_0>
-47.5333

>  <SCORE.INTRA.VDW>
-0.755874

>  <SCORE.INTRA.VDW.0>
-0.287413

>  <SCORE.INTRA.norm>
-0.689915

>  <SCORE.RESTR>
0

>  <SCORE.RESTR.CAVITY>
0

>  <SCORE.RESTR.norm>
0

>  <SCORE.SYSTEM>
0

>  <SCORE.SYSTEM.CONST>
0

>  <SCORE.SYSTEM.DIHEDRAL>
0

>  <SCORE.SYSTEM.SOLV>
0

>  <SCORE.SYSTEM.norm>
0

>  <SCORE.heavy>
14

>  <SCORE.norm>
-0.692744

>  <RMSD>
21.168

$$$$
ligand
 OpenBabel11021811493D
libRbt.so/2013.1/901 2013/11/27
 14 13  0  0  0  0  0  0  0  0999 V2000
   56.8757  -11.4867   22.8019 N   0  0  0  0  0  0  0  0  0  0  0  0
   56.1263  -10.4427   22.1380 C   0  0  0  0  0  0  0  0  0  0  0  0
   56.9842   -9.8503   21.0011 C   0  0  0  0  0  0  0  0  0  0  0  0
   56.2923   -8.7227   20.2196 C   0  0  0  0  0  0  0  0  0  0  0  0
   57.0861   -8.1076   19.1449 N   0  0  0  0  0  0  0  0  0  0  0  0
   58.1466   -7.1296   19.3814 C   0  0  0  0  0  0  0  0  0  0  0  0
   58.7462   -6.5759   18.0930 C   0  0  0  0  0  0  0  0  0  0  0  0
   59.8009   -5.4889   18.3245 C   0  0  0  0  0  0  0  0  0  0  0  0
   60.3740   -4.9538   17.0069 C   0  0  0  0  0  0  0  0  0  0  0  0
   61.2755   -3.8386   17.2886 N   0  0  0  0  0  0  0  0  0  0  0  0
   62.2358   -3.2879   16.3305 C   0  0  0  0  0  0  0  0  0  0  0  0
   62.6265   -1.8373   16.6456 C   0  0  0  0  0  0  0  0  0  0  0  0
   61.4022   -0.9159   16.6471 C   0  0  0  0  0  0  0  0  0  0  0  0
   61.8205    0.4448   16.9707 N   0  0  0  0  0  0  0  0  0  0  0  0
  1  2  1  0  0  0  0
  2  3  1  0  0  0  0
  3  4  1  0  0  0  0
  4  5  1  0  0  0  0
  5  6  1  0  0  0  0
  6  7  1  0  0  0  0
  7  8  1  0  0  0  0
  8  9  1  0  0  0  0
  9 10  1  0  0  0  0
 10 11  1  0  0  0  0
 11 12  1  0  0  0  0
 12 13  1  0  0  0  0
 13 14  1  0  0  0  0
M  END
>  <CHROM.1>
-179.86529903,178.67337608,-77.77330104,-175.95505654,176.56788502,-179.72324992
174.67910118,164.95324317,156.73013129,-59.13077258,179.14792136,59.27092086
-5.87098509,18.71371484,2.33845591,-0.80922127,-3.04058325

>  <Name>
ligand

>  <RI>
0

>  <Rbt.Current_Directory>
/home/itssahil/PROJECTS/Mol_Feturizer/New_Systems/rnas/4FAW

>  <Rbt.Executable>
rbdock ($Id: //depot/dev/client3/rdock/2013.1/src/exe/rbdock.cxx#4 $)

>  <Rbt.Library>
libRbt.so (2013.1, Build901 2013/11/27)

>  <Rbt.Parameter_File>
/export/apps/rDock/src/rDock_2013.1_src/data/scripts/dock_solv.prm

>  <Rbt.Receptor>
prm/blind_docking_100.prm

>  <SCORE>
-10.3205

>  <SCORE.INTER>
0.104582

>  <SCORE.INTER.CONST>
1

>  <SCORE.INTER.POLAR>
0

>  <SCORE.INTER.ROT>
11

>  <SCORE.INTER.SOLV>
13.6255

>  <SCORE.INTER.VDW>
-15.4054

>  <SCORE.INTER.norm>
0.00747015

>  <SCORE.INTRA>
-10.4251

>  <SCORE.INTRA.DIHEDRAL>
-18.1121

>  <SCORE.INTRA.DIHEDRAL.0>
19.1003

>  <SCORE.INTRA.POLAR>
0

>  <SCORE.INTRA.POLAR.0>
0

>  <SCORE.INTRA.REPUL>
0

>  <SCORE.INTRA.REPUL.0>
0

>  <SCORE.INTRA.SOLV>
-1.0931

>  <SCORE.INTRA.SOLV.lig_0>
-47.5333

>  <SCORE.INTRA.VDW>
-0.822446

>  <SCORE.INTRA.VDW.0>
-0.287413

>  <SCORE.INTRA.norm>
-0.744647

>  <SCORE.RESTR>
0

>  <SCORE.RESTR.CAVITY>
0

>  <SCORE.RESTR.norm>
0

>  <SCORE.SYSTEM>
0

>  <SCORE.SYSTEM.CONST>
0

>  <SCORE.SYSTEM.DIHEDRAL>
0

>  <SCORE.SYSTEM.SOLV>
0

>  <SCORE.SYSTEM.norm>
0

>  <SCORE.heavy>
14

>  <SCORE.norm>
-0.737177

>  <RMSD>
21.355

$$$$
ligand
 OpenBabel11021811493D
libRbt.so/2013.1/901 2013/11/27
 14 13  0  0  0  0  0  0  0  0999 V2000
   56.0577  -12.4286   23.2342 N   0  0  0  0  0  0  0  0  0  0  0  0
   57.4229  -11.9514   23.2084 C   0  0  0  0  0  0  0  0  0  0  0  0
   57.8222  -11.6422   21.7509 C   0  0  0  0  0  0  0  0  0  0  0  0
   57.0621  -10.4583   21.1332 C   0  0  0  0  0  0  0  0  0  0  0  0
   57.4080  -10.1310   19.7415 N   0  0  0  0  0  0  0  0  0  0  0  0
   58.7649   -9.8157   19.2984 C   0  0  0  0  0  0  0  0  0  0  0  0
   58.8648   -8.4658   18.5955 C   0  0  0  0  0  0  0  0  0  0  0  0
   60.3000   -8.0631   18.2413 C   0  0  0  0  0  0  0  0  0  0  0  0
   60.3694   -6.6570   17.6339 C   0  0  0  0  0  0  0  0  0  0  0  0
   59.7914   -6.6804   16.2918 N   0  0  0  0  0  0  0  0  0  0  0  0
   60.5262   -6.3547   15.0681 C   0  0  0  0  0  0  0  0  0  0  0  0
   59.6178   -5.8199   13.9524 C   0  0  0  0  0  0  0  0  0  0  0  0
   58.9841   -4.4801   14.3409 C   0  0  0  0  0  0  0  0  0  0  0  0
   58.0997   -4.0336   13.2687 N   0  0  0  0  0  0  0  0  0  0  0  0
  1  2  1  0  0  0  0
  2  3  1  0  0  0  0
  3  4  1  0  0  0  0
  4  5  1  0  0  0  0
  5  6  1  0  0  0  0
  6  7  1  0  0  0  0
  7  8  1  0  0  0  0
  8  9  1  0  0  0  0
  9 10  1  0  0  0  0
 10 11  1  0  0  0  0
 11 12  1  0  0  0  0
 12 13  1  0  0  0  0
 13 14  1  0  0  0  0
M  END
>  <CHROM.1>
66.92073158,-179.78337107,-56.68387396,-124.28162119,174.64488710,-175.67194580
-70.87502370,-118.43390162,-152.88106561,64.69479385,-178.27083922,58.64970554
-8.35585326,18.26856081,1.79388767,0.03232277,2.25227002

>  <Name>
ligand

>  <RI>
0

>  <Rbt.Current_Directory>
/home/itssahil/PROJECTS/Mol_Feturizer/New_Systems/rnas/4FAW

>  <Rbt.Executable>
rbdock ($Id: //depot/dev/client3/rdock/2013.1/src/exe/rbdock.cxx#4 $)

>  <Rbt.Library>
libRbt.so (2013.1, Build901 2013/11/27)

>  <Rbt.Parameter_File>
/export/apps/rDock/src/rDock_2013.1_src/data/scripts/dock_solv.prm

>  <Rbt.Receptor>
prm/blind_docking_100.prm

>  <SCORE>
-10.2095

>  <SCORE.INTER>
-1.92085

>  <SCORE.INTER.CONST>
1

>  <SCORE.INTER.POLAR>
0

>  <SCORE.INTER.ROT>
11

>  <SCORE.INTER.SOLV>
10.364

>  <SCORE.INTER.VDW>
-15.6686

>  <SCORE.INTER.norm>
-0.137204

>  <SCORE.INTRA>
-8.28862

>  <SCORE.INTRA.DIHEDRAL>
-15.3033

>  <SCORE.INTRA.DIHEDRAL.0>
19.1003

>  <SCORE.INTRA.POLAR>
0

>  <SCORE.INTRA.POLAR.0>
0

>  <SCORE.INTRA.REPUL>
0

>  <SCORE.INTRA.REPUL.0>
0

>  <SCORE.INTRA.SOLV>
-0.127808

>  <SCORE.INTRA.SOLV.lig_0>
-47.5333

>  <SCORE.INTRA.VDW>
-0.573061

>  <SCORE.INTRA.VDW.0>
-0.287413

>  <SCORE.INTRA.norm>
-0.592045

>  <SCORE.RESTR>
0

>  <SCORE.RESTR.CAVITY>
0

>  <SCORE.RESTR.norm>
0

>  <SCORE.SYSTEM>
0

>  <SCORE.SYSTEM.CONST>
0

>  <SCORE.SYSTEM.DIHEDRAL>
0

>  <SCORE.SYSTEM.SOLV>
0

>  <SCORE.SYSTEM.norm>
0

>  <SCORE.heavy>
14

>  <SCORE.norm>
-0.729248

>  <RMSD>
21.559

$$$$
ligand
 OpenBabel11021811493D
libRbt.so/2013.1/901 2013/11/27
 14 13  0  0  0  0  0  0  0  0999 V2000
   54.9478   -7.7503   17.7641 N   0  0  0  0  0  0  0  0  0  0  0  0
   56.0203   -6.8003   17.9624 C   0  0  0  0  0  0  0  0  0  0  0  0
   56.9459   -6.8189   16.7285 C   0  0  0  0  0  0  0  0  0  0  0  0
   58.1504   -5.8711   16.8375 C   0  0  0  0  0  0  0  0  0  0  0  0
   59.1092   -6.1746   17.9109 N   0  0  0  0  0  0  0  0  0  0  0  0
   60.1697   -7.1734   17.7891 C   0  0  0  0  0  0  0  0  0  0  0  0
   59.6697   -8.6015   17.9808 C   0  0  0  0  0  0  0  0  0  0  0  0
   59.0765   -8.8628   19.3691 C   0  0  0  0  0  0  0  0  0  0  0  0
   58.4866  -10.2732   19.4861 C   0  0  0  0  0  0  0  0  0  0  0  0
   57.9860  -10.4773   20.8438 N   0  0  0  0  0  0  0  0  0  0  0  0
   57.3352  -11.7028   21.3107 C   0  0  0  0  0  0  0  0  0  0  0  0
   57.5970  -11.9875   22.7962 C   0  0  0  0  0  0  0  0  0  0  0  0
   57.0165  -13.3416   23.2170 C   0  0  0  0  0  0  0  0  0  0  0  0
   57.2517  -13.5473   24.6431 N   0  0  0  0  0  0  0  0  0  0  0  0
  1  2  1  0  0  0  0
  2  3  1  0  0  0  0
  3  4  1  0  0  0  0
  4  5  1  0  0  0  0
  5  6  1  0  0  0  0
  6  7  1  0  0  0  0
  7  8  1  0  0  0  0
  8  9  1  0  0  0  0
  9 10  1  0  0  0  0
 10 11  1  0  0  0  0
 11 12  1  0  0  0  0
 12 13  1  0  0  0  0
 13 14  1  0  0  0  0
M  END
>  <CHROM.1>
-178.50418394,63.50674647,82.38048742,-79.08098646,-61.94116281,175.52366766
177.80857403,178.93363537,148.35892632,-174.52181837,-178.17155741,57.84039436
-9.24151692,19.61682131,1.50051446,-0.00130832,-0.76393048

>  <Name>
ligand

>  <RI>
0

>  <Rbt.Current_Directory>
/home/itssahil/PROJECTS/Mol_Feturizer/New_Systems/rnas/4FAW

>  <Rbt.Executable>
rbdock ($Id: //depot/dev/client3/rdock/2013.1/src/exe/rbdock.cxx#4 $)

>  <Rbt.Library>
libRbt.so (2013.1, Build901 2013/11/27)

>  <Rbt.Parameter_File>
/export/apps/rDock/src/rDock_2013.1_src/data/scripts/dock_solv.prm

>  <Rbt.Receptor>
prm/blind_docking_100.prm

>  <SCORE>
-10.7695

>  <SCORE.INTER>
-0.324447

>  <SCORE.INTER.CONST>
1

>  <SCORE.INTER.POLAR>
0

>  <SCORE.INTER.ROT>
11

>  <SCORE.INTER.SOLV>
12.0214

>  <SCORE.INTER.VDW>
-15.1568

>  <SCORE.INTER.norm>
-0.0231748

>  <SCORE.INTRA>
-10.4451

>  <SCORE.INTRA.DIHEDRAL>
-17.5093

>  <SCORE.INTRA.DIHEDRAL.0>
19.1003

>  <SCORE.INTRA.POLAR>
0

>  <SCORE.INTRA.POLAR.0>
0

>  <SCORE.INTRA.REPUL>
0

>  <SCORE.INTRA.REPUL.0>
0

>  <SCORE.INTRA.SOLV>
-0.699927

>  <SCORE.INTRA.SOLV.lig_0>
-47.5333

>  <SCORE.INTRA.VDW>
-1.34043

>  <SCORE.INTRA.VDW.0>
-0.287413

>  <SCORE.INTRA.norm>
-0.746075

>  <SCORE.RESTR>
0

>  <SCORE.RESTR.CAVITY>
0

>  <SCORE.RESTR.norm>
0

>  <SCORE.SYSTEM>
0

>  <SCORE.SYSTEM.CONST>
0

>  <SCORE.SYSTEM.DIHEDRAL>
0

>  <SCORE.SYSTEM.SOLV>
0

>  <SCORE.SYSTEM.norm>
0

>  <SCORE.heavy>
14

>  <SCORE.norm>
-0.76925

>  <RMSD>
22.884

$$$$
ligand
 OpenBabel11021811493D
libRbt.so/2013.1/901 2013/11/27
 14 13  0  0  0  0  0  0  0  0999 V2000
   56.1531  -13.7540   24.7521 N   0  0  0  0  0  0  0  0  0  0  0  0
   57.0989  -13.5424   23.6783 C   0  0  0  0  0  0  0  0  0  0  0  0
   56.9673  -12.0927   23.1679 C   0  0  0  0  0  0  0  0  0  0  0  0
   57.7857  -11.8005   21.9006 C   0  0  0  0  0  0  0  0  0  0  0  0
   57.6793  -10.4325   21.3708 N   0  0  0  0  0  0  0  0  0  0  0  0
   56.4384   -9.8612   20.8503 C   0  0  0  0  0  0  0  0  0  0  0  0
   56.6343   -8.4903   20.2112 C   0  0  0  0  0  0  0  0  0  0  0  0
   57.5526   -8.5105   18.9848 C   0  0  0  0  0  0  0  0  0  0  0  0
   59.0234   -8.7065   19.3710 C   0  0  0  0  0  0  0  0  0  0  0  0
   59.8365   -8.7795   18.1589 N   0  0  0  0  0  0  0  0  0  0  0  0
   60.4956   -7.6313   17.5338 C   0  0  0  0  0  0  0  0  0  0  0  0
   59.5210   -6.7346   16.7579 C   0  0  0  0  0  0  0  0  0  0  0  0
   60.2636   -5.6454   15.9770 C   0  0  0  0  0  0  0  0  0  0  0  0
   59.2946   -4.7888   15.2999 N   0  0  0  0  0  0  0  0  0  0  0  0
  1  2  1  0  0  0  0
  2  3  1  0  0  0  0
  3  4  1  0  0  0  0
  4  5  1  0  0  0  0
  5  6  1  0  0  0  0
  6  7  1  0  0  0  0
  7  8  1  0  0  0  0
  8  9  1  0  0  0  0
  9 10  1  0  0  0  0
 10 11  1  0  0  0  0
 11 12  1  0  0  0  0
 12 13  1  0  0  0  0
 13 14  1  0  0  0  0
M  END
>  <CHROM.1>
-172.13871656,179.41965695,-64.32182076,-173.12891562,62.78164170,-73.06465851
177.37135890,92.71350556,-76.10022139,-172.99775419,-177.79296520,58.19600852
-9.34069033,19.85817073,1.89100697,-0.34975545,2.43164512

>  <Name>
ligand

>  <RI>
0

>  <Rbt.Current_Directory>
/home/itssahil/PROJECTS/Mol_Feturizer/New_Systems/rnas/4FAW

>  <Rbt.Executable>
rbdock ($Id: //depot/dev/client3/rdock/2013.1/src/exe/rbdock.cxx#4 $)

>  <Rbt.Library>
libRbt.so (2013.1, Build901 2013/11/27)

>  <Rbt.Parameter_File>
/export/apps/rDock/src/rDock_2013.1_src/data/scripts/dock_solv.prm

>  <Rbt.Receptor>
prm/blind_docking_100.prm

>  <SCORE>
-9.3899

>  <SCORE.INTER>
-0.464009

>  <SCORE.INTER.CONST>
1

>  <SCORE.INTER.POLAR>
0

>  <SCORE.INTER.ROT>
11

>  <SCORE.INTER.SOLV>
10.8989

>  <SCORE.INTER.VDW>
-14.8757

>  <SCORE.INTER.norm>
-0.0331435

>  <SCORE.INTRA>
-8.92589

>  <SCORE.INTRA.DIHEDRAL>
-16.9834

>  <SCORE.INTRA.DIHEDRAL.0>
19.1003

>  <SCORE.INTRA.POLAR>
0

>  <SCORE.INTRA.POLAR.0>
0

>  <SCORE.INTRA.REPUL>
0

>  <SCORE.INTRA.REPUL.0>
0

>  <SCORE.INTRA.SOLV>
-0.373748

>  <SCORE.INTRA.SOLV.lig_0>
-47.5333

>  <SCORE.INTRA.VDW>
-0.247336

>  <SCORE.INTRA.VDW.0>
-0.287413

>  <SCORE.INTRA.norm>
-0.637564

>  <SCORE.RESTR>
0

>  <SCORE.RESTR.CAVITY>
0

>  <SCORE.RESTR.norm>
0

>  <SCORE.SYSTEM>
0

>  <SCORE.SYSTEM.CONST>
0

>  <SCORE.SYSTEM.DIHEDRAL>
0

>  <SCORE.SYSTEM.SOLV>
0

>  <SCORE.SYSTEM.norm>
0

>  <SCORE.heavy>
14

>  <SCORE.norm>
-0.670707

>  <RMSD>
23.345

$$$$
ligand
 OpenBabel11021811493D
libRbt.so/2013.1/901 2013/11/27
 14 13  0  0  0  0  0  0  0  0999 V2000
   56.5261  -15.3633   23.8970 N   0  0  0  0  0  0  0  0  0  0  0  0
   57.3034  -14.2637   23.3690 C   0  0  0  0  0  0  0  0  0  0  0  0
   56.6008  -12.9354   23.7179 C   0  0  0  0  0  0  0  0  0  0  0  0
   57.3056  -11.6905   23.1572 C   0  0  0  0  0  0  0  0  0  0  0  0
   57.3406  -11.5802   21.6908 N   0  0  0  0  0  0  0  0  0  0  0  0
   57.9321  -10.4486   20.9790 C   0  0  0  0  0  0  0  0  0  0  0  0
   57.9853  -10.6553   19.4688 C   0  0  0  0  0  0  0  0  0  0  0  0
   58.7545   -9.5580   18.7260 C   0  0  0  0  0  0  0  0  0  0  0  0
   58.1241   -8.1752   18.9298 C   0  0  0  0  0  0  0  0  0  0  0  0
   56.7813   -8.1656   18.3531 N   0  0  0  0  0  0  0  0  0  0  0  0
   55.7963   -7.1038   18.5664 C   0  0  0  0  0  0  0  0  0  0  0  0
   54.5186   -7.3015   17.7389 C   0  0  0  0  0  0  0  0  0  0  0  0
   53.5468   -6.1312   17.9219 C   0  0  0  0  0  0  0  0  0  0  0  0
   52.3562   -6.3585   17.1083 N   0  0  0  0  0  0  0  0  0  0  0  0
  1  2  1  0  0  0  0
  2  3  1  0  0  0  0
  3  4  1  0  0  0  0
  4  5  1  0  0  0  0
  5  6  1  0  0  0  0
  6  7  1  0  0  0  0
  7  8  1  0  0  0  0
  8  9  1  0  0  0  0
  9 10  1  0  0  0  0
 10 11  1  0  0  0  0
 11 12  1  0  0  0  0
 12 13  1  0  0  0  0
 13 14  1  0  0  0  0
M  END
>  <CHROM.1>
-177.61225131,64.92413906,178.15391954,173.21945182,-172.94896990,-60.49252413
-63.56005235,168.58179399,174.98923450,-176.58441229,179.48442642,56.49112701
-9.98060522,20.25886243,1.28110072,-0.13184115,2.41601037

>  <Name>
ligand

>  <RI>
0

>  <Rbt.Current_Directory>
/home/itssahil/PROJECTS/Mol_Feturizer/New_Systems/rnas/4FAW

>  <Rbt.Executable>
rbdock ($Id: //depot/dev/client3/rdock/2013.1/src/exe/rbdock.cxx#4 $)

>  <Rbt.Library>
libRbt.so (2013.1, Build901 2013/11/27)

>  <Rbt.Parameter_File>
/export/apps/rDock/src/rDock_2013.1_src/data/scripts/dock_solv.prm

>  <Rbt.Receptor>
prm/blind_docking_100.prm

>  <SCORE>
-11.3948

>  <SCORE.INTER>
-1.53622

>  <SCORE.INTER.CONST>
1

>  <SCORE.INTER.POLAR>
0

>  <SCORE.INTER.ROT>
11

>  <SCORE.INTER.SOLV>
7.37194

>  <SCORE.INTER.VDW>
-14.4148

>  <SCORE.INTER.norm>
-0.10973

>  <SCORE.INTRA>
-9.85857

>  <SCORE.INTRA.DIHEDRAL>
-18.5429

>  <SCORE.INTRA.DIHEDRAL.0>
19.1003

>  <SCORE.INTRA.POLAR>
0

>  <SCORE.INTRA.POLAR.0>
0

>  <SCORE.INTRA.REPUL>
0

>  <SCORE.INTRA.REPUL.0>
0

>  <SCORE.INTRA.SOLV>
-0.445082

>  <SCORE.INTRA.SOLV.lig_0>
-47.5333

>  <SCORE.INTRA.VDW>
-0.364576

>  <SCORE.INTRA.VDW.0>
-0.287413

>  <SCORE.INTRA.norm>
-0.704184

>  <SCORE.RESTR>
0

>  <SCORE.RESTR.CAVITY>
0

>  <SCORE.RESTR.norm>
0

>  <SCORE.SYSTEM>
0

>  <SCORE.SYSTEM.CONST>
0

>  <SCORE.SYSTEM.DIHEDRAL>
0

>  <SCORE.SYSTEM.SOLV>
0

>  <SCORE.SYSTEM.norm>
0

>  <SCORE.heavy>
14

>  <SCORE.norm>
-0.813914

>  <RMSD>
23.613

$$$$
ligand
 OpenBabel11021811493D
libRbt.so/2013.1/901 2013/11/27
 14 13  0  0  0  0  0  0  0  0999 V2000
   33.9860   -1.1199    3.3019 N   0  0  0  0  0  0  0  0  0  0  0  0
   34.5785   -1.5469    4.5504 C   0  0  0  0  0  0  0  0  0  0  0  0
   35.2241   -2.9341    4.3546 C   0  0  0  0  0  0  0  0  0  0  0  0
   34.2124   -4.0643    4.1089 C   0  0  0  0  0  0  0  0  0  0  0  0
   33.4118   -3.9513    2.8801 N   0  0  0  0  0  0  0  0  0  0  0  0
   32.1116   -4.5947    2.7003 C   0  0  0  0  0  0  0  0  0  0  0  0
   32.2121   -5.9748    2.0588 C   0  0  0  0  0  0  0  0  0  0  0  0
   30.8815   -6.7336    2.0238 C   0  0  0  0  0  0  0  0  0  0  0  0
   31.0347   -8.1355    1.4220 C   0  0  0  0  0  0  0  0  0  0  0  0
   31.2853   -8.0214   -0.0132 N   0  0  0  0  0  0  0  0  0  0  0  0
   31.0157   -9.0804   -0.9874 C   0  0  0  0  0  0  0  0  0  0  0  0
   31.7694   -8.8795   -2.3095 C   0  0  0  0  0  0  0  0  0  0  0  0
   33.2860   -8.8633   -2.0920 C   0  0  0  0  0  0  0  0  0  0  0  0
   33.9554   -8.6186   -3.3661 N   0  0  0  0  0  0  0  0  0  0  0  0
  1  2  1  0  0  0  0
  2  3  1  0  0  0  0
  3  4  1  0  0  0  0
  4  5  1  0  0  0  0
  5  6  1  0  0  0  0
  6  7  1  0  0  0  0
  7  8  1  0  0  0  0
  8  9  1  0  0  0  0
  9 10  1  0  0  0  0
 10 11  1  0  0  0  0
 11 12  1  0  0  0  0
 12 13  1  0  0  0  0
 13 14  1  0  0  0  0
M  END
>  <CHROM.1>
-67.99124570,63.45100729,-156.57317137,-92.21031916,172.76505072,-177.78147054
-70.67701907,-157.09659893,-161.49754634,60.22239098,-177.82231395,32.78300825
-5.89436694,1.33116948,-1.27648698,-0.59997398,-2.24146895

>  <Name>
ligand

>  <RI>
0

>  <Rbt.Current_Directory>
/home/itssahil/PROJECTS/Mol_Feturizer/New_Systems/rnas/4FAW

>  <Rbt.Executable>
rbdock ($Id: //depot/dev/client3/rdock/2013.1/src/exe/rbdock.cxx#4 $)

>  <Rbt.Library>
libRbt.so (2013.1, Build901 2013/11/27)

>  <Rbt.Parameter_File>
/export/apps/rDock/src/rDock_2013.1_src/data/scripts/dock_solv.prm

>  <Rbt.Receptor>
prm/blind_docking_40.prm

>  <SCORE>
-10.0754

>  <SCORE.INTER>
-1.97357

>  <SCORE.INTER.CONST>
1

>  <SCORE.INTER.POLAR>
0

>  <SCORE.INTER.ROT>
11

>  <SCORE.INTER.SOLV>
9.8956

>  <SCORE.INTER.VDW>
-15.5476

>  <SCORE.INTER.norm>
-0.140969

>  <SCORE.INTRA>
-8.10188

>  <SCORE.INTRA.DIHEDRAL>
-16.4535

>  <SCORE.INTRA.DIHEDRAL.0>
19.1003

>  <SCORE.INTRA.POLAR>
0

>  <SCORE.INTRA.POLAR.0>
0

>  <SCORE.INTRA.REPUL>
0

>  <SCORE.INTRA.REPUL.0>
0

>  <SCORE.INTRA.SOLV>
2.19876

>  <SCORE.INTRA.SOLV.lig_0>
-47.5333

>  <SCORE.INTRA.VDW>
-0.974511

>  <SCORE.INTRA.VDW.0>
-0.287413

>  <SCORE.INTRA.norm>
-0.578706

>  <SCORE.RESTR>
0

>  <SCORE.RESTR.CAVITY>
0

>  <SCORE.RESTR.norm>
0

>  <SCORE.SYSTEM>
0

>  <SCORE.SYSTEM.CONST>
0

>  <SCORE.SYSTEM.DIHEDRAL>
0

>  <SCORE.SYSTEM.SOLV>
0

>  <SCORE.SYSTEM.norm>
0

>  <SCORE.heavy>
14

>  <SCORE.norm>
-0.719675

>  <RMSD>
24.350

$$$$
ligand
 OpenBabel11021811493D
libRbt.so/2013.1/901 2013/11/27
 14 13  0  0  0  0  0  0  0  0999 V2000
   34.0169   -0.3415    3.2981 N   0  0  0  0  0  0  0  0  0  0  0  0
   34.3593   -0.5191    4.6921 C   0  0  0  0  0  0  0  0  0  0  0  0
   35.1159   -1.8528    4.8602 C   0  0  0  0  0  0  0  0  0  0  0  0
   34.2338   -3.0979    4.6793 C   0  0  0  0  0  0  0  0  0  0  0  0
   33.6493   -3.2798    3.3418 N   0  0  0  0  0  0  0  0  0  0  0  0
   32.2215   -3.4852    3.1046 C   0  0  0  0  0  0  0  0  0  0  0  0
   31.8434   -4.9572    2.9757 C   0  0  0  0  0  0  0  0  0  0  0  0
   32.2317   -5.5748    1.6283 C   0  0  0  0  0  0  0  0  0  0  0  0
   31.6324   -6.9738    1.4431 C   0  0  0  0  0  0  0  0  0  0  0  0
   31.8978   -7.4378    0.0829 N   0  0  0  0  0  0  0  0  0  0  0  0
   31.3659   -8.6767   -0.4877 C   0  0  0  0  0  0  0  0  0  0  0  0
   31.7192   -8.8488   -1.9716 C   0  0  0  0  0  0  0  0  0  0  0  0
   31.2025  -10.1836   -2.5185 C   0  0  0  0  0  0  0  0  0  0  0  0
   31.8536  -11.2818   -1.8105 N   0  0  0  0  0  0  0  0  0  0  0  0
  1  2  1  0  0  0  0
  2  3  1  0  0  0  0
  3  4  1  0  0  0  0
  4  5  1  0  0  0  0
  5  6  1  0  0  0  0
  6  7  1  0  0  0  0
  7  8  1  0  0  0  0
  8  9  1  0  0  0  0
  9 10  1  0  0  0  0
 10 11  1  0  0  0  0
 11 12  1  0  0  0  0
 12 13  1  0  0  0  0
 13 14  1  0  0  0  0
M  END
>  <CHROM.1>
-70.87717488,63.74116507,-127.13681498,-95.85940942,-75.93210643,-170.40384216
173.03060225,-174.01537364,175.36581785,177.40045141,-62.68762146,32.66728870
-5.46500407,1.66574004,-0.33232591,-1.29757814,-1.29067421

>  <Name>
ligand

>  <RI>
0

>  <Rbt.Current_Directory>
/home/itssahil/PROJECTS/Mol_Feturizer/New_Systems/rnas/4FAW

>  <Rbt.Executable>
rbdock ($Id: //depot/dev/client3/rdock/2013.1/src/exe/rbdock.cxx#4 $)

>  <Rbt.Library>
libRbt.so (2013.1, Build901 2013/11/27)

>  <Rbt.Parameter_File>
/export/apps/rDock/src/rDock_2013.1_src/data/scripts/dock_solv.prm

>  <Rbt.Receptor>
prm/blind_docking_100.prm

>  <SCORE>
-10.3552

>  <SCORE.INTER>
-3.18281

>  <SCORE.INTER.CONST>
1

>  <SCORE.INTER.POLAR>
0

>  <SCORE.INTER.ROT>
11

>  <SCORE.INTER.SOLV>
11.1163

>  <SCORE.INTER.VDW>
-16.7606

>  <SCORE.INTER.norm>
-0.227344

>  <SCORE.INTRA>
-7.1724

>  <SCORE.INTRA.DIHEDRAL>
-15.1066

>  <SCORE.INTRA.DIHEDRAL.0>
19.1003

>  <SCORE.INTRA.POLAR>
0

>  <SCORE.INTRA.POLAR.0>
0

>  <SCORE.INTRA.REPUL>
0

>  <SCORE.INTRA.REPUL.0>
0

>  <SCORE.INTRA.SOLV>
2.73992

>  <SCORE.INTRA.SOLV.lig_0>
-47.5333

>  <SCORE.INTRA.VDW>
-0.989043

>  <SCORE.INTRA.VDW.0>
-0.287413

>  <SCORE.INTRA.norm>
-0.512314

>  <SCORE.RESTR>
0

>  <SCORE.RESTR.CAVITY>
0

>  <SCORE.RESTR.norm>
0

>  <SCORE.SYSTEM>
0

>  <SCORE.SYSTEM.CONST>
0

>  <SCORE.SYSTEM.DIHEDRAL>
0

>  <SCORE.SYSTEM.SOLV>
0

>  <SCORE.SYSTEM.norm>
0

>  <SCORE.heavy>
14

>  <SCORE.norm>
-0.739658

>  <RMSD>
24.410

$$$$
ligand
 OpenBabel11021811493D
libRbt.so/2013.1/901 2013/11/27
 14 13  0  0  0  0  0  0  0  0999 V2000
   38.5355  -10.2918   -2.7692 N   0  0  0  0  0  0  0  0  0  0  0  0
   37.2031   -9.8984   -3.1719 C   0  0  0  0  0  0  0  0  0  0  0  0
   36.1771  -10.8450   -2.5155 C   0  0  0  0  0  0  0  0  0  0  0  0
   34.7249  -10.5866   -2.9460 C   0  0  0  0  0  0  0  0  0  0  0  0
   34.1968   -9.2467   -2.6467 N   0  0  0  0  0  0  0  0  0  0  0  0
   32.8006   -8.8641   -2.8495 C   0  0  0  0  0  0  0  0  0  0  0  0
   31.9984   -8.8234   -1.5530 C   0  0  0  0  0  0  0  0  0  0  0  0
   32.5643   -7.8525   -0.5115 C   0  0  0  0  0  0  0  0  0  0  0  0
   31.6176   -7.6726    0.6811 C   0  0  0  0  0  0  0  0  0  0  0  0
   32.1097   -6.5904    1.5309 N   0  0  0  0  0  0  0  0  0  0  0  0
   31.5493   -6.2442    2.8383 C   0  0  0  0  0  0  0  0  0  0  0  0
   32.2933   -5.0861    3.5176 C   0  0  0  0  0  0  0  0  0  0  0  0
   31.7505   -4.8218    4.9259 C   0  0  0  0  0  0  0  0  0  0  0  0
   32.5072   -3.7352    5.5406 N   0  0  0  0  0  0  0  0  0  0  0  0
  1  2  1  0  0  0  0
  2  3  1  0  0  0  0
  3  4  1  0  0  0  0
  4  5  1  0  0  0  0
  5  6  1  0  0  0  0
  6  7  1  0  0  0  0
  7  8  1  0  0  0  0
  8  9  1  0  0  0  0
  9 10  1  0  0  0  0
 10 11  1  0  0  0  0
 11 12  1  0  0  0  0
 12 13  1  0  0  0  0
 13 14  1  0  0  0  0
M  END
>  <CHROM.1>
-176.01891991,-60.07355748,-173.20606272,102.78626165,58.70631839,170.97249698
-171.33633514,-172.43740918,178.50881847,-175.63460416,178.73917822,33.57313764
-7.89723671,0.00491520,-1.12919741,-0.10480612,0.98751923

>  <Name>
ligand

>  <RI>
0

>  <Rbt.Current_Directory>
/home/itssahil/PROJECTS/Mol_Feturizer/New_Systems/rnas/4FAW

>  <Rbt.Executable>
rbdock ($Id: //depot/dev/client3/rdock/2013.1/src/exe/rbdock.cxx#4 $)

>  <Rbt.Library>
libRbt.so (2013.1, Build901 2013/11/27)

>  <Rbt.Parameter_File>
/export/apps/rDock/src/rDock_2013.1_src/data/scripts/dock_solv.prm

>  <Rbt.Receptor>
prm/blind_docking_60.prm

>  <SCORE>
-11.2142

>  <SCORE.INTER>
-1.19344

>  <SCORE.INTER.CONST>
1

>  <SCORE.INTER.POLAR>
0

>  <SCORE.INTER.ROT>
11

>  <SCORE.INTER.SOLV>
13.5909

>  <SCORE.INTER.VDW>
-16.2593

>  <SCORE.INTER.norm>
-0.0852456

>  <SCORE.INTRA>
-10.0208

>  <SCORE.INTRA.DIHEDRAL>
-17.2836

>  <SCORE.INTRA.DIHEDRAL.0>
19.1003

>  <SCORE.INTRA.POLAR>
0

>  <SCORE.INTRA.POLAR.0>
0

>  <SCORE.INTRA.REPUL>
0

>  <SCORE.INTRA.REPUL.0>
0

>  <SCORE.INTRA.SOLV>
-0.823585

>  <SCORE.INTRA.SOLV.lig_0>
-47.5333

>  <SCORE.INTRA.VDW>
-0.967184

>  <SCORE.INTRA.VDW.0>
-0.287413

>  <SCORE.INTRA.norm>
-0.71577

>  <SCORE.RESTR>
0

>  <SCORE.RESTR.CAVITY>
0

>  <SCORE.RESTR.norm>
0

>  <SCORE.SYSTEM>
0

>  <SCORE.SYSTEM.CONST>
0

>  <SCORE.SYSTEM.DIHEDRAL>
0

>  <SCORE.SYSTEM.SOLV>
0

>  <SCORE.SYSTEM.norm>
0

>  <SCORE.heavy>
14

>  <SCORE.norm>
-0.801016

>  <RMSD>
24.543

$$$$
ligand
 OpenBabel11021811493D
libRbt.so/2013.1/901 2013/11/27
 14 13  0  0  0  0  0  0  0  0999 V2000
   33.0003   -2.7583    5.4851 N   0  0  0  0  0  0  0  0  0  0  0  0
   33.0926   -4.2012    5.4463 C   0  0  0  0  0  0  0  0  0  0  0  0
   32.3389   -4.7223    4.2054 C   0  0  0  0  0  0  0  0  0  0  0  0
   32.4878   -6.2340    3.9738 C   0  0  0  0  0  0  0  0  0  0  0  0
   31.8707   -6.7576    2.7456 N   0  0  0  0  0  0  0  0  0  0  0  0
   32.1380   -6.2188    1.4132 C   0  0  0  0  0  0  0  0  0  0  0  0
   31.3853   -6.9548    0.3096 C   0  0  0  0  0  0  0  0  0  0  0  0
   31.8981   -8.3769    0.0601 C   0  0  0  0  0  0  0  0  0  0  0  0
   31.0127   -9.1418   -0.9308 C   0  0  0  0  0  0  0  0  0  0  0  0
   30.9458   -8.4033   -2.1901 N   0  0  0  0  0  0  0  0  0  0  0  0
   31.5365   -8.8594   -3.4496 C   0  0  0  0  0  0  0  0  0  0  0  0
   32.9695   -8.3488   -3.6548 C   0  0  0  0  0  0  0  0  0  0  0  0
   33.9367   -8.9756   -2.6451 C   0  0  0  0  0  0  0  0  0  0  0  0
   35.2734   -8.4251   -2.8488 N   0  0  0  0  0  0  0  0  0  0  0  0
  1  2  1  0  0  0  0
  2  3  1  0  0  0  0
  3  4  1  0  0  0  0
  4  5  1  0  0  0  0
  5  6  1  0  0  0  0
  6  7  1  0  0  0  0
  7  8  1  0  0  0  0
  8  9  1  0  0  0  0
  9 10  1  0  0  0  0
 10 11  1  0  0  0  0
 11 12  1  0  0  0  0
 12 13  1  0  0  0  0
 13 14  1  0  0  0  0
M  END
>  <CHROM.1>
174.00040459,-175.53656025,53.28671298,179.17865545,-69.93660997,173.03646313
57.63450461,111.96738679,-91.58961817,67.63188822,-178.00604223,32.42032298
-7.02716678,0.56560466,-1.57116476,-0.30779520,-2.09076281

>  <Name>
ligand

>  <RI>
0

>  <Rbt.Current_Directory>
/home/itssahil/PROJECTS/Mol_Feturizer/New_Systems/rnas/4FAW

>  <Rbt.Executable>
rbdock ($Id: //depot/dev/client3/rdock/2013.1/src/exe/rbdock.cxx#4 $)

>  <Rbt.Library>
libRbt.so (2013.1, Build901 2013/11/27)

>  <Rbt.Parameter_File>
/export/apps/rDock/src/rDock_2013.1_src/data/scripts/dock_solv.prm

>  <Rbt.Receptor>
prm/blind_docking_100.prm

>  <SCORE>
-11.5097

>  <SCORE.INTER>
-2.65948

>  <SCORE.INTER.CONST>
1

>  <SCORE.INTER.POLAR>
0

>  <SCORE.INTER.ROT>
11

>  <SCORE.INTER.SOLV>
17.8531

>  <SCORE.INTER.VDW>
-18.6574

>  <SCORE.INTER.norm>
-0.189963

>  <SCORE.INTRA>
-8.85019

>  <SCORE.INTRA.DIHEDRAL>
-16.2354

>  <SCORE.INTRA.DIHEDRAL.0>
19.1003

>  <SCORE.INTRA.POLAR>
0

>  <SCORE.INTRA.POLAR.0>
0

>  <SCORE.INTRA.REPUL>
0

>  <SCORE.INTRA.REPUL.0>
0

>  <SCORE.INTRA.SOLV>
-0.192346

>  <SCORE.INTRA.SOLV.lig_0>
-47.5333

>  <SCORE.INTRA.VDW>
-0.636305

>  <SCORE.INTRA.VDW.0>
-0.287413

>  <SCORE.INTRA.norm>
-0.632157

>  <SCORE.RESTR>
0

>  <SCORE.RESTR.CAVITY>
0

>  <SCORE.RESTR.norm>
0

>  <SCORE.SYSTEM>
0

>  <SCORE.SYSTEM.CONST>
0

>  <SCORE.SYSTEM.DIHEDRAL>
0

>  <SCORE.SYSTEM.SOLV>
0

>  <SCORE.SYSTEM.norm>
0

>  <SCORE.heavy>
14

>  <SCORE.norm>
-0.822119

>  <RMSD>
25.047

$$$$
ligand
 OpenBabel11021811493D
libRbt.so/2013.1/901 2013/11/27
 14 13  0  0  0  0  0  0  0  0999 V2000
   33.4461   -2.6595    3.6157 N   0  0  0  0  0  0  0  0  0  0  0  0
   33.9877   -3.6528    4.5170 C   0  0  0  0  0  0  0  0  0  0  0  0
   32.9435   -3.9674    5.6080 C   0  0  0  0  0  0  0  0  0  0  0  0
   31.6511   -4.6016    5.0707 C   0  0  0  0  0  0  0  0  0  0  0  0
   31.8075   -5.8973    4.3922 N   0  0  0  0  0  0  0  0  0  0  0  0
   30.7380   -6.8881    4.2852 C   0  0  0  0  0  0  0  0  0  0  0  0
   31.0298   -7.9723    3.2529 C   0  0  0  0  0  0  0  0  0  0  0  0
   31.0972   -7.4481    1.8148 C   0  0  0  0  0  0  0  0  0  0  0  0
   31.3862   -8.5675    0.8077 C   0  0  0  0  0  0  0  0  0  0  0  0
   31.3884   -8.0134   -0.5445 N   0  0  0  0  0  0  0  0  0  0  0  0
   31.1846   -8.8005   -1.7621 C   0  0  0  0  0  0  0  0  0  0  0  0
   32.3990   -9.6680   -2.1209 C   0  0  0  0  0  0  0  0  0  0  0  0
   33.6315   -8.8085   -2.4205 C   0  0  0  0  0  0  0  0  0  0  0  0
   33.3956   -8.0293   -3.6324 N   0  0  0  0  0  0  0  0  0  0  0  0
  1  2  1  0  0  0  0
  2  3  1  0  0  0  0
  3  4  1  0  0  0  0
  4  5  1  0  0  0  0
  5  6  1  0  0  0  0
  6  7  1  0  0  0  0
  7  8  1  0  0  0  0
  8  9  1  0  0  0  0
  9 10  1  0  0  0  0
 10 11  1  0  0  0  0
 11 12  1  0  0  0  0
 12 13  1  0  0  0  0
 13 14  1  0  0  0  0
M  END
>  <CHROM.1>
63.71887830,61.27082284,155.01526848,165.49412848,-65.31426685,-179.76503648
177.90778750,-158.73017628,-73.46827718,-62.76969876,-66.04395082,32.14888149
-6.78414687,1.63485292,-1.54735077,-0.82611757,-2.12286751

>  <Name>
ligand

>  <RI>
0

>  <Rbt.Current_Directory>
/home/itssahil/PROJECTS/Mol_Feturizer/New_Systems/rnas/4FAW

>  <Rbt.Executable>
rbdock ($Id: //depot/dev/client3/rdock/2013.1/src/exe/rbdock.cxx#4 $)

>  <Rbt.Library>
libRbt.so (2013.1, Build901 2013/11/27)

>  <Rbt.Parameter_File>
/export/apps/rDock/src/rDock_2013.1_src/data/scripts/dock_solv.prm

>  <Rbt.Receptor>
prm/blind_docking_40.prm

>  <SCORE>
-9.75312

>  <SCORE.INTER>
-1.38484

>  <SCORE.INTER.CONST>
1

>  <SCORE.INTER.POLAR>
0

>  <SCORE.INTER.ROT>
11

>  <SCORE.INTER.SOLV>
11.0262

>  <SCORE.INTER.VDW>
-15.532

>  <SCORE.INTER.norm>
-0.0989168

>  <SCORE.INTRA>
-8.36828

>  <SCORE.INTRA.DIHEDRAL>
-17.6657

>  <SCORE.INTRA.DIHEDRAL.0>
19.1003

>  <SCORE.INTRA.POLAR>
0

>  <SCORE.INTRA.POLAR.0>
0

>  <SCORE.INTRA.REPUL>
0

>  <SCORE.INTRA.REPUL.0>
0

>  <SCORE.INTRA.SOLV>
2.26513

>  <SCORE.INTRA.SOLV.lig_0>
-47.5333

>  <SCORE.INTRA.VDW>
-0.668015

>  <SCORE.INTRA.VDW.0>
-0.287413

>  <SCORE.INTRA.norm>
-0.597734

>  <SCORE.RESTR>
0

>  <SCORE.RESTR.CAVITY>
0

>  <SCORE.RESTR.norm>
0

>  <SCORE.SYSTEM>
0

>  <SCORE.SYSTEM.CONST>
0

>  <SCORE.SYSTEM.DIHEDRAL>
0

>  <SCORE.SYSTEM.SOLV>
0

>  <SCORE.SYSTEM.norm>
0

>  <SCORE.heavy>
14

>  <SCORE.norm>
-0.696651

>  <RMSD>
25.238

$$$$
ligand
 OpenBabel11021811493D
libRbt.so/2013.1/901 2013/11/27
 14 13  0  0  0  0  0  0  0  0999 V2000
   42.4846    2.5756   22.3542 N   0  0  0  0  0  0  0  0  0  0  0  0
   41.9957    1.7141   23.4082 C   0  0  0  0  0  0  0  0  0  0  0  0
   40.5197    1.3630   23.1296 C   0  0  0  0  0  0  0  0  0  0  0  0
   40.3144    0.4521   21.9093 C   0  0  0  0  0  0  0  0  0  0  0  0
   38.9169    0.2026   21.5242 N   0  0  0  0  0  0  0  0  0  0  0  0
   37.9532   -0.4873   22.3799 C   0  0  0  0  0  0  0  0  0  0  0  0
   36.5566    0.1226   22.3186 C   0  0  0  0  0  0  0  0  0  0  0  0
   35.5768   -0.4851   23.3278 C   0  0  0  0  0  0  0  0  0  0  0  0
   35.9950   -0.2042   24.7759 C   0  0  0  0  0  0  0  0  0  0  0  0
   34.9787   -0.7314   25.6841 N   0  0  0  0  0  0  0  0  0  0  0  0
   35.1202   -0.7906   27.1401 C   0  0  0  0  0  0  0  0  0  0  0  0
   35.1355    0.5980   27.7941 C   0  0  0  0  0  0  0  0  0  0  0  0
   35.3571    0.5014   29.3071 C   0  0  0  0  0  0  0  0  0  0  0  0
   35.4711    1.8450   29.8667 N   0  0  0  0  0  0  0  0  0  0  0  0
  1  2  1  0  0  0  0
  2  3  1  0  0  0  0
  3  4  1  0  0  0  0
  4  5  1  0  0  0  0
  5  6  1  0  0  0  0
  6  7  1  0  0  0  0
  7  8  1  0  0  0  0
  8  9  1  0  0  0  0
  9 10  1  0  0  0  0
 10 11  1  0  0  0  0
 11 12  1  0  0  0  0
 12 13  1  0  0  0  0
 13 14  1  0  0  0  0
M  END
>  <CHROM.1>
68.72004096,-174.01446610,-63.23218623,141.04920272,-173.34924788,64.57817084
176.31954504,172.15543816,67.74309509,-177.06245894,175.48619376,37.59810024
0.47663487,24.63703821,-0.70540896,0.42612129,1.26359373

>  <Name>
ligand

>  <RI>
0

>  <Rbt.Current_Directory>
/home/itssahil/PROJECTS/Mol_Feturizer/New_Systems/rnas/4FAW

>  <Rbt.Executable>
rbdock ($Id: //depot/dev/client3/rdock/2013.1/src/exe/rbdock.cxx#4 $)

>  <Rbt.Library>
libRbt.so (2013.1, Build901 2013/11/27)

>  <Rbt.Parameter_File>
/export/apps/rDock/src/rDock_2013.1_src/data/scripts/dock_solv.prm

>  <Rbt.Receptor>
prm/blind_docking_100.prm

>  <SCORE>
-9.31389

>  <SCORE.INTER>
-0.304925

>  <SCORE.INTER.CONST>
1

>  <SCORE.INTER.POLAR>
0

>  <SCORE.INTER.ROT>
11

>  <SCORE.INTER.SOLV>
12.1178

>  <SCORE.INTER.VDW>
-15.1759

>  <SCORE.INTER.norm>
-0.0217803

>  <SCORE.INTRA>
-9.00897

>  <SCORE.INTRA.DIHEDRAL>
-17.2915

>  <SCORE.INTRA.DIHEDRAL.0>
19.1003

>  <SCORE.INTRA.POLAR>
0

>  <SCORE.INTRA.POLAR.0>
0

>  <SCORE.INTRA.REPUL>
0

>  <SCORE.INTRA.REPUL.0>
0

>  <SCORE.INTRA.SOLV>
-0.60914

>  <SCORE.INTRA.SOLV.lig_0>
-47.5333

>  <SCORE.INTRA.VDW>
-0.0586539

>  <SCORE.INTRA.VDW.0>
-0.287413

>  <SCORE.INTRA.norm>
-0.643498

>  <SCORE.RESTR>
0

>  <SCORE.RESTR.CAVITY>
0

>  <SCORE.RESTR.norm>
0

>  <SCORE.SYSTEM>
0

>  <SCORE.SYSTEM.CONST>
0

>  <SCORE.SYSTEM.DIHEDRAL>
0

>  <SCORE.SYSTEM.SOLV>
0

>  <SCORE.SYSTEM.norm>
0

>  <SCORE.heavy>
14

>  <SCORE.norm>
-0.665278

>  <RMSD>
30.851

$$$$
ligand
 OpenBabel11021811493D
libRbt.so/2013.1/901 2013/11/27
 14 13  0  0  0  0  0  0  0  0999 V2000
   37.5972    1.2745   21.2304 N   0  0  0  0  0  0  0  0  0  0  0  0
   37.7367    0.1592   22.1408 C   0  0  0  0  0  0  0  0  0  0  0  0
   39.1114   -0.5045   21.9194 C   0  0  0  0  0  0  0  0  0  0  0  0
   40.3046    0.4126   22.2298 C   0  0  0  0  0  0  0  0  0  0  0  0
   40.3475    0.9692   23.5907 N   0  0  0  0  0  0  0  0  0  0  0  0
   41.5754    1.4266   24.2387 C   0  0  0  0  0  0  0  0  0  0  0  0
   41.6800    0.9889   25.6961 C   0  0  0  0  0  0  0  0  0  0  0  0
   40.8215    1.8246   26.6510 C   0  0  0  0  0  0  0  0  0  0  0  0
   39.3446    1.4155   26.6037 C   0  0  0  0  0  0  0  0  0  0  0  0
   38.6206    2.0909   27.6786 N   0  0  0  0  0  0  0  0  0  0  0  0
   37.3399    1.6391   28.2255 C   0  0  0  0  0  0  0  0  0  0  0  0
   36.7802    2.5886   29.2938 C   0  0  0  0  0  0  0  0  0  0  0  0
   35.4086    2.1227   29.7931 C   0  0  0  0  0  0  0  0  0  0  0  0
   35.5560    0.8541   30.5003 N   0  0  0  0  0  0  0  0  0  0  0  0
  1  2  1  0  0  0  0
  2  3  1  0  0  0  0
  3  4  1  0  0  0  0
  4  5  1  0  0  0  0
  5  6  1  0  0  0  0
  6  7  1  0  0  0  0
  7  8  1  0  0  0  0
  8  9  1  0  0  0  0
  9 10  1  0  0  0  0
 10 11  1  0  0  0  0
 11 12  1  0  0  0  0
 12 13  1  0  0  0  0
 13 14  1  0  0  0  0
M  END
>  <CHROM.1>
63.06150454,57.12865655,156.48539137,-137.02379991,-77.64101404,78.51566462
170.99398637,-158.92698577,-176.87293291,177.16914149,65.91836276,38.73058639
1.23296838,25.69940588,1.15393045,-0.07352993,-1.78004605

>  <Name>
ligand

>  <RI>
0

>  <Rbt.Current_Directory>
/home/itssahil/PROJECTS/Mol_Feturizer/New_Systems/rnas/4FAW

>  <Rbt.Executable>
rbdock ($Id: //depot/dev/client3/rdock/2013.1/src/exe/rbdock.cxx#4 $)

>  <Rbt.Library>
libRbt.so (2013.1, Build901 2013/11/27)

>  <Rbt.Parameter_File>
/export/apps/rDock/src/rDock_2013.1_src/data/scripts/dock_solv.prm

>  <Rbt.Receptor>
prm/blind_docking_100.prm

>  <SCORE>
-8.93809

>  <SCORE.INTER>
-1.85599

>  <SCORE.INTER.CONST>
1

>  <SCORE.INTER.POLAR>
0

>  <SCORE.INTER.ROT>
11

>  <SCORE.INTER.SOLV>
9.64277

>  <SCORE.INTER.VDW>
-15.3849

>  <SCORE.INTER.norm>
-0.132571

>  <SCORE.INTRA>
-7.0821

>  <SCORE.INTRA.DIHEDRAL>
-14.4311

>  <SCORE.INTRA.DIHEDRAL.0>
19.1003

>  <SCORE.INTRA.POLAR>
0

>  <SCORE.INTRA.POLAR.0>
0

>  <SCORE.INTRA.REPUL>
0

>  <SCORE.INTRA.REPUL.0>
0

>  <SCORE.INTRA.SOLV>
1.80125

>  <SCORE.INTRA.SOLV.lig_0>
-47.5333

>  <SCORE.INTRA.VDW>
-0.767155

>  <SCORE.INTRA.VDW.0>
-0.287413

>  <SCORE.INTRA.norm>
-0.505864

>  <SCORE.RESTR>
0

>  <SCORE.RESTR.CAVITY>
0

>  <SCORE.RESTR.norm>
0

>  <SCORE.SYSTEM>
0

>  <SCORE.SYSTEM.CONST>
0

>  <SCORE.SYSTEM.DIHEDRAL>
0

>  <SCORE.SYSTEM.SOLV>
0

>  <SCORE.SYSTEM.norm>
0

>  <SCORE.heavy>
14

>  <SCORE.norm>
-0.638435

>  <RMSD>
30.903

$$$$
ligand
 OpenBabel11021811493D
libRbt.so/2013.1/901 2013/11/27
 14 13  0  0  0  0  0  0  0  0999 V2000
   35.7235    1.9367   21.0138 N   0  0  0  0  0  0  0  0  0  0  0  0
   35.0915    2.3466   22.2487 C   0  0  0  0  0  0  0  0  0  0  0  0
   36.1279    3.0754   23.1286 C   0  0  0  0  0  0  0  0  0  0  0  0
   37.3174    2.1981   23.5485 C   0  0  0  0  0  0  0  0  0  0  0  0
   38.2987    2.8339   24.4409 N   0  0  0  0  0  0  0  0  0  0  0  0
   39.5346    2.1858   24.8763 C   0  0  0  0  0  0  0  0  0  0  0  0
   40.2538    2.9531   25.9810 C   0  0  0  0  0  0  0  0  0  0  0  0
   41.5932    2.3306   26.3886 C   0  0  0  0  0  0  0  0  0  0  0  0
   42.2507    3.0890   27.5475 C   0  0  0  0  0  0  0  0  0  0  0  0
   41.4220    2.9577   28.7440 N   0  0  0  0  0  0  0  0  0  0  0  0
   40.3125    3.8501   29.0847 C   0  0  0  0  0  0  0  0  0  0  0  0
   39.2097    3.1488   29.8899 C   0  0  0  0  0  0  0  0  0  0  0  0
   38.5633    2.0166   29.0850 C   0  0  0  0  0  0  0  0  0  0  0  0
   37.5192    1.3866   29.8877 N   0  0  0  0  0  0  0  0  0  0  0  0
  1  2  1  0  0  0  0
  2  3  1  0  0  0  0
  3  4  1  0  0  0  0
  4  5  1  0  0  0  0
  5  6  1  0  0  0  0
  6  7  1  0  0  0  0
  7  8  1  0  0  0  0
  8  9  1  0  0  0  0
  9 10  1  0  0  0  0
 10 11  1  0  0  0  0
 11 12  1  0  0  0  0
 12 13  1  0  0  0  0
 13 14  1  0  0  0  0
M  END
>  <CHROM.1>
-62.42392627,-177.23170675,-176.01022198,-169.99029397,-176.51835903,-177.13136108
65.29261355,-87.42954023,150.03448481,-62.61748728,-179.70174194,38.80150104
2.59363471,26.13326567,-2.15147087,0.15712515,1.60272007

>  <Name>
ligand

>  <RI>
0

>  <Rbt.Current_Directory>
/home/itssahil/PROJECTS/Mol_Feturizer/New_Systems/rnas/4FAW

>  <Rbt.Executable>
rbdock ($Id: //depot/dev/client3/rdock/2013.1/src/exe/rbdock.cxx#4 $)

>  <Rbt.Library>
libRbt.so (2013.1, Build901 2013/11/27)

>  <Rbt.Parameter_File>
/export/apps/rDock/src/rDock_2013.1_src/data/scripts/dock_solv.prm

>  <Rbt.Receptor>
prm/blind_docking_100.prm

>  <SCORE>
-8.74407

>  <SCORE.INTER>
0.954238

>  <SCORE.INTER.CONST>
1

>  <SCORE.INTER.POLAR>
0

>  <SCORE.INTER.ROT>
11

>  <SCORE.INTER.SOLV>
8.43185

>  <SCORE.INTER.VDW>
-13.1078

>  <SCORE.INTER.norm>
0.0681598

>  <SCORE.INTRA>
-9.69831

>  <SCORE.INTRA.DIHEDRAL>
-17.6255

>  <SCORE.INTRA.DIHEDRAL.0>
19.1003

>  <SCORE.INTRA.POLAR>
0

>  <SCORE.INTRA.POLAR.0>
0

>  <SCORE.INTRA.REPUL>
0

>  <SCORE.INTRA.REPUL.0>
0

>  <SCORE.INTRA.SOLV>
-0.00192923

>  <SCORE.INTRA.SOLV.lig_0>
-47.5333

>  <SCORE.INTRA.VDW>
-0.884598

>  <SCORE.INTRA.VDW.0>
-0.287413

>  <SCORE.INTRA.norm>
-0.692737

>  <SCORE.RESTR>
0

>  <SCORE.RESTR.CAVITY>
0

>  <SCORE.RESTR.norm>
0

>  <SCORE.SYSTEM>
0

>  <SCORE.SYSTEM.CONST>
0

>  <SCORE.SYSTEM.DIHEDRAL>
0

>  <SCORE.SYSTEM.SOLV>
0

>  <SCORE.SYSTEM.norm>
0

>  <SCORE.heavy>
14

>  <SCORE.norm>
-0.624577

>  <RMSD>
31.004

$$$$
ligand
 OpenBabel11021811493D
libRbt.so/2013.1/901 2013/11/27
 14 13  0  0  0  0  0  0  0  0999 V2000
   39.5382    0.3849   21.8308 N   0  0  0  0  0  0  0  0  0  0  0  0
   38.1152    0.1331   21.8932 C   0  0  0  0  0  0  0  0  0  0  0  0
   37.5273    0.8591   23.1207 C   0  0  0  0  0  0  0  0  0  0  0  0
   36.0062    0.7009   23.2702 C   0  0  0  0  0  0  0  0  0  0  0  0
   35.5237   -0.6709   23.4914 N   0  0  0  0  0  0  0  0  0  0  0  0
   35.9075   -1.4874   24.6417 C   0  0  0  0  0  0  0  0  0  0  0  0
   35.2511   -1.0336   25.9415 C   0  0  0  0  0  0  0  0  0  0  0  0
   35.8385    0.2645   26.5050 C   0  0  0  0  0  0  0  0  0  0  0  0
   35.1454    0.6929   27.8038 C   0  0  0  0  0  0  0  0  0  0  0  0
   35.8310    1.8592   28.3564 N   0  0  0  0  0  0  0  0  0  0  0  0
   37.1730    1.8306   28.9410 C   0  0  0  0  0  0  0  0  0  0  0  0
   37.5227    3.1222   29.6931 C   0  0  0  0  0  0  0  0  0  0  0  0
   38.9357    3.0613   30.2826 C   0  0  0  0  0  0  0  0  0  0  0  0
   39.9096    2.9777   29.1983 N   0  0  0  0  0  0  0  0  0  0  0  0
  1  2  1  0  0  0  0
  2  3  1  0  0  0  0
  3  4  1  0  0  0  0
  4  5  1  0  0  0  0
  5  6  1  0  0  0  0
  6  7  1  0  0  0  0
  7  8  1  0  0  0  0
  8  9  1  0  0  0  0
  9 10  1  0  0  0  0
 10 11  1  0  0  0  0
 11 12  1  0  0  0  0
 12 13  1  0  0  0  0
 13 14  1  0  0  0  0
M  END
>  <CHROM.1>
178.22203080,63.18178493,60.73045813,72.96757240,-73.47164155,179.53197236
174.62264421,-69.79074272,-168.26096875,-179.60248551,64.27018161,37.01580556
0.90664783,26.06939282,-1.69366786,0.48259817,1.23866273

>  <Name>
ligand

>  <RI>
0

>  <Rbt.Current_Directory>
/home/itssahil/PROJECTS/Mol_Feturizer/New_Systems/rnas/4FAW

>  <Rbt.Executable>
rbdock ($Id: //depot/dev/client3/rdock/2013.1/src/exe/rbdock.cxx#4 $)

>  <Rbt.Library>
libRbt.so (2013.1, Build901 2013/11/27)

>  <Rbt.Parameter_File>
/export/apps/rDock/src/rDock_2013.1_src/data/scripts/dock_solv.prm

>  <Rbt.Receptor>
prm/blind_docking_100.prm

>  <SCORE>
-10.892

>  <SCORE.INTER>
-1.66053

>  <SCORE.INTER.CONST>
1

>  <SCORE.INTER.POLAR>
0

>  <SCORE.INTER.ROT>
11

>  <SCORE.INTER.SOLV>
10.8999

>  <SCORE.INTER.VDW>
-15.6736

>  <SCORE.INTER.norm>
-0.118609

>  <SCORE.INTRA>
-9.2315

>  <SCORE.INTRA.DIHEDRAL>
-17.8922

>  <SCORE.INTRA.DIHEDRAL.0>
19.1003

>  <SCORE.INTRA.POLAR>
0

>  <SCORE.INTRA.POLAR.0>
0

>  <SCORE.INTRA.REPUL>
0

>  <SCORE.INTRA.REPUL.0>
0

>  <SCORE.INTRA.SOLV>
-0.0901899

>  <SCORE.INTRA.SOLV.lig_0>
-47.5333

>  <SCORE.INTRA.VDW>
-0.24031

>  <SCORE.INTRA.VDW.0>
-0.287413

>  <SCORE.INTRA.norm>
-0.659393

>  <SCORE.RESTR>
0

>  <SCORE.RESTR.CAVITY>
0

>  <SCORE.RESTR.norm>
0

>  <SCORE.SYSTEM>
0

>  <SCORE.SYSTEM.CONST>
0

>  <SCORE.SYSTEM.DIHEDRAL>
0

>  <SCORE.SYSTEM.SOLV>
0

>  <SCORE.SYSTEM.norm>
0

>  <SCORE.heavy>
14

>  <SCORE.norm>
-0.778002

>  <RMSD>
32.094

$$$$
ligand
 OpenBabel11021811493D
libRbt.so/2013.1/901 2013/11/27
 14 13  0  0  0  0  0  0  0  0999 V2000
   37.4849    1.7123   20.0552 N   0  0  0  0  0  0  0  0  0  0  0  0
   37.8642    0.9160   21.2016 C   0  0  0  0  0  0  0  0  0  0  0  0
   36.5925    0.3500   21.8664 C   0  0  0  0  0  0  0  0  0  0  0  0
   36.8633   -0.4570   23.1456 C   0  0  0  0  0  0  0  0  0  0  0  0
   35.6831   -1.0580   23.7856 N   0  0  0  0  0  0  0  0  0  0  0  0
   35.6436   -1.4645   25.1892 C   0  0  0  0  0  0  0  0  0  0  0  0
   35.3189   -0.3131   26.1352 C   0  0  0  0  0  0  0  0  0  0  0  0
   35.3240   -0.7138   27.6141 C   0  0  0  0  0  0  0  0  0  0  0  0
   34.8218    0.4181   28.5182 C   0  0  0  0  0  0  0  0  0  0  0  0
   35.7239    1.5625   28.4074 N   0  0  0  0  0  0  0  0  0  0  0  0
   37.0775    1.6066   28.9637 C   0  0  0  0  0  0  0  0  0  0  0  0
   37.4252    2.9700   29.5772 C   0  0  0  0  0  0  0  0  0  0  0  0
   38.8563    2.9887   30.1243 C   0  0  0  0  0  0  0  0  0  0  0  0
   38.9654    2.0391   31.2278 N   0  0  0  0  0  0  0  0  0  0  0  0
  1  2  1  0  0  0  0
  2  3  1  0  0  0  0
  3  4  1  0  0  0  0
  4  5  1  0  0  0  0
  5  6  1  0  0  0  0
  6  7  1  0  0  0  0
  7  8  1  0  0  0  0
  8  9  1  0  0  0  0
  9 10  1  0  0  0  0
 10 11  1  0  0  0  0
 11 12  1  0  0  0  0
 12 13  1  0  0  0  0
 13 14  1  0  0  0  0
M  END
>  <CHROM.1>
-176.94938772,-177.80907030,-158.92125302,83.69035841,-177.90958796,-172.74702304
-62.77839365,-71.74190757,-140.39423785,-178.88979358,-64.37381863,36.68877683
0.75394263,26.12950572,-1.67325425,0.77079052,1.43866950

>  <Name>
ligand

>  <RI>
0

>  <Rbt.Current_Directory>
/home/itssahil/PROJECTS/Mol_Feturizer/New_Systems/rnas/4FAW

>  <Rbt.Executable>
rbdock ($Id: //depot/dev/client3/rdock/2013.1/src/exe/rbdock.cxx#4 $)

>  <Rbt.Library>
libRbt.so (2013.1, Build901 2013/11/27)

>  <Rbt.Parameter_File>
/export/apps/rDock/src/rDock_2013.1_src/data/scripts/dock_solv.prm

>  <Rbt.Receptor>
prm/blind_docking_60.prm

>  <SCORE>
-10.4197

>  <SCORE.INTER>
-1.36956

>  <SCORE.INTER.CONST>
1

>  <SCORE.INTER.POLAR>
0

>  <SCORE.INTER.ROT>
11

>  <SCORE.INTER.SOLV>
13.5621

>  <SCORE.INTER.VDW>
-16.3671

>  <SCORE.INTER.norm>
-0.0978257

>  <SCORE.INTRA>
-9.05017

>  <SCORE.INTRA.DIHEDRAL>
-16.9724

>  <SCORE.INTRA.DIHEDRAL.0>
19.1003

>  <SCORE.INTRA.POLAR>
0

>  <SCORE.INTRA.POLAR.0>
0

>  <SCORE.INTRA.REPUL>
0

>  <SCORE.INTRA.REPUL.0>
0

>  <SCORE.INTRA.SOLV>
-0.309273

>  <SCORE.INTRA.SOLV.lig_0>
-47.5333

>  <SCORE.INTRA.VDW>
-0.409339

>  <SCORE.INTRA.VDW.0>
-0.287413

>  <SCORE.INTRA.norm>
-0.646441

>  <SCORE.RESTR>
0

>  <SCORE.RESTR.CAVITY>
0

>  <SCORE.RESTR.norm>
0

>  <SCORE.SYSTEM>
0

>  <SCORE.SYSTEM.CONST>
0

>  <SCORE.SYSTEM.DIHEDRAL>
0

>  <SCORE.SYSTEM.SOLV>
0

>  <SCORE.SYSTEM.norm>
0

>  <SCORE.heavy>
14

>  <SCORE.norm>
-0.744266

>  <RMSD>
32.298

$$$$
ligand
 OpenBabel11021811493D
libRbt.so/2013.1/901 2013/11/27
 14 13  0  0  0  0  0  0  0  0999 V2000
   35.5375    2.0876   20.4164 N   0  0  0  0  0  0  0  0  0  0  0  0
   35.8153    2.3398   21.8133 C   0  0  0  0  0  0  0  0  0  0  0  0
   35.3093    1.1481   22.6519 C   0  0  0  0  0  0  0  0  0  0  0  0
   36.0548   -0.1677   22.3800 C   0  0  0  0  0  0  0  0  0  0  0  0
   35.5818   -1.3393   23.1330 N   0  0  0  0  0  0  0  0  0  0  0  0
   35.8502   -1.5490   24.5546 C   0  0  0  0  0  0  0  0  0  0  0  0
   34.8908   -0.7859   25.4622 C   0  0  0  0  0  0  0  0  0  0  0  0
   35.4163   -0.5952   26.8887 C   0  0  0  0  0  0  0  0  0  0  0  0
   34.4805    0.2764   27.7345 C   0  0  0  0  0  0  0  0  0  0  0  0
   35.1614    0.6608   28.9691 N   0  0  0  0  0  0  0  0  0  0  0  0
   35.3769    2.0434   29.3997 C   0  0  0  0  0  0  0  0  0  0  0  0
   36.3951    2.1595   30.5425 C   0  0  0  0  0  0  0  0  0  0  0  0
   37.7868    1.6945   30.1013 C   0  0  0  0  0  0  0  0  0  0  0  0
   38.3398    2.6551   29.1512 N   0  0  0  0  0  0  0  0  0  0  0  0
  1  2  1  0  0  0  0
  2  3  1  0  0  0  0
  3  4  1  0  0  0  0
  4  5  1  0  0  0  0
  5  6  1  0  0  0  0
  6  7  1  0  0  0  0
  7  8  1  0  0  0  0
  8  9  1  0  0  0  0
  9 10  1  0  0  0  0
 10 11  1  0  0  0  0
 11 12  1  0  0  0  0
 12 13  1  0  0  0  0
 13 14  1  0  0  0  0
M  END
>  <CHROM.1>
65.35924654,-178.47961303,-74.45238486,81.89857294,-160.28881440,175.13713883
-167.79725315,122.83170438,-166.29119438,63.76882865,69.70500235,35.85678778
0.75903985,25.94295949,-1.85955713,1.14460112,1.70280178

>  <Name>
ligand

>  <RI>
0

>  <Rbt.Current_Directory>
/home/itssahil/PROJECTS/Mol_Feturizer/New_Systems/rnas/4FAW

>  <Rbt.Executable>
rbdock ($Id: //depot/dev/client3/rdock/2013.1/src/exe/rbdock.cxx#4 $)

>  <Rbt.Library>
libRbt.so (2013.1, Build901 2013/11/27)

>  <Rbt.Parameter_File>
/export/apps/rDock/src/rDock_2013.1_src/data/scripts/dock_solv.prm

>  <Rbt.Receptor>
prm/blind_docking_80.prm

>  <SCORE>
-8.73746

>  <SCORE.INTER>
-1.00721

>  <SCORE.INTER.CONST>
1

>  <SCORE.INTER.POLAR>
0

>  <SCORE.INTER.ROT>
11

>  <SCORE.INTER.SOLV>
14.6983

>  <SCORE.INTER.VDW>
-16.5042

>  <SCORE.INTER.norm>
-0.0719435

>  <SCORE.INTRA>
-7.73025

>  <SCORE.INTRA.DIHEDRAL>
-14.7359

>  <SCORE.INTRA.DIHEDRAL.0>
19.1003

>  <SCORE.INTRA.POLAR>
0

>  <SCORE.INTRA.POLAR.0>
0

>  <SCORE.INTRA.REPUL>
0

>  <SCORE.INTRA.REPUL.0>
0

>  <SCORE.INTRA.SOLV>
0.8297

>  <SCORE.INTRA.SOLV.lig_0>
-47.5333

>  <SCORE.INTRA.VDW>
-0.777124

>  <SCORE.INTRA.VDW.0>
-0.287413

>  <SCORE.INTRA.norm>
-0.55216

>  <SCORE.RESTR>
0

>  <SCORE.RESTR.CAVITY>
0

>  <SCORE.RESTR.norm>
0

>  <SCORE.SYSTEM>
0

>  <SCORE.SYSTEM.CONST>
0

>  <SCORE.SYSTEM.DIHEDRAL>
0

>  <SCORE.SYSTEM.SOLV>
0

>  <SCORE.SYSTEM.norm>
0

>  <SCORE.heavy>
14

>  <SCORE.norm>
-0.624104

>  <RMSD>
32.612

$$$$
ligand
 OpenBabel11021811493D
libRbt.so/2013.1/901 2013/11/27
 14 13  0  0  0  0  0  0  0  0999 V2000
   37.4603    1.6357   20.7091 N   0  0  0  0  0  0  0  0  0  0  0  0
   38.5979    1.1748   21.4743 C   0  0  0  0  0  0  0  0  0  0  0  0
   38.2452   -0.1697   22.1433 C   0  0  0  0  0  0  0  0  0  0  0  0
   37.0523   -0.0926   23.1086 C   0  0  0  0  0  0  0  0  0  0  0  0
   36.6911   -1.3494   23.7821 N   0  0  0  0  0  0  0  0  0  0  0  0
   35.4657   -1.5271   24.5592 C   0  0  0  0  0  0  0  0  0  0  0  0
   34.2002   -1.3688   23.7227 C   0  0  0  0  0  0  0  0  0  0  0  0
   33.7849   -2.6487   22.9899 C   0  0  0  0  0  0  0  0  0  0  0  0
   33.0075   -3.6063   23.9008 C   0  0  0  0  0  0  0  0  0  0  0  0
   31.9054   -2.8847   24.5335 N   0  0  0  0  0  0  0  0  0  0  0  0
   31.0300   -3.4480   25.5630 C   0  0  0  0  0  0  0  0  0  0  0  0
   29.6926   -3.9480   24.9994 C   0  0  0  0  0  0  0  0  0  0  0  0
   28.7736   -4.4620   26.1124 C   0  0  0  0  0  0  0  0  0  0  0  0
   27.5150   -4.9176   25.5295 N   0  0  0  0  0  0  0  0  0  0  0  0
  1  2  1  0  0  0  0
  2  3  1  0  0  0  0
  3  4  1  0  0  0  0
  4  5  1  0  0  0  0
  5  6  1  0  0  0  0
  6  7  1  0  0  0  0
  7  8  1  0  0  0  0
  8  9  1  0  0  0  0
  9 10  1  0  0  0  0
 10 11  1  0  0  0  0
 11 12  1  0  0  0  0
 12 13  1  0  0  0  0
 13 14  1  0  0  0  0
M  END
>  <CHROM.1>
-60.34682339,-179.27870673,-169.66792976,62.62318266,84.40503817,81.86717403
51.93924425,-173.93360894,-98.91734166,-177.00015681,179.65489463,33.81600462
-1.97234384,23.79490366,0.56662131,-0.20871691,-0.93905872

>  <Name>
ligand

>  <RI>
0

>  <Rbt.Current_Directory>
/home/itssahil/PROJECTS/Mol_Feturizer/New_Systems/rnas/4FAW

>  <Rbt.Executable>
rbdock ($Id: //depot/dev/client3/rdock/2013.1/src/exe/rbdock.cxx#4 $)

>  <Rbt.Library>
libRbt.so (2013.1, Build901 2013/11/27)

>  <Rbt.Parameter_File>
/export/apps/rDock/src/rDock_2013.1_src/data/scripts/dock_solv.prm

>  <Rbt.Receptor>
prm/blind_docking_60.prm

>  <SCORE>
-12.0484

>  <SCORE.INTER>
-4.97316

>  <SCORE.INTER.CONST>
1

>  <SCORE.INTER.POLAR>
0

>  <SCORE.INTER.ROT>
11

>  <SCORE.INTER.SOLV>
16.5499

>  <SCORE.INTER.VDW>
-19.7654

>  <SCORE.INTER.norm>
-0.355226

>  <SCORE.INTRA>
-7.0752

>  <SCORE.INTRA.DIHEDRAL>
-14.0709

>  <SCORE.INTRA.DIHEDRAL.0>
19.1003

>  <SCORE.INTRA.POLAR>
0

>  <SCORE.INTRA.POLAR.0>
0

>  <SCORE.INTRA.REPUL>
0

>  <SCORE.INTRA.REPUL.0>
0

>  <SCORE.INTRA.SOLV>
0.273446

>  <SCORE.INTRA.SOLV.lig_0>
-47.5333

>  <SCORE.INTRA.VDW>
-0.176466

>  <SCORE.INTRA.VDW.0>
-0.287413

>  <SCORE.INTRA.norm>
-0.505372

>  <SCORE.RESTR>
0

>  <SCORE.RESTR.CAVITY>
0

>  <SCORE.RESTR.norm>
0

>  <SCORE.SYSTEM>
0

>  <SCORE.SYSTEM.CONST>
0

>  <SCORE.SYSTEM.DIHEDRAL>
0

>  <SCORE.SYSTEM.SOLV>
0

>  <SCORE.SYSTEM.norm>
0

>  <SCORE.heavy>
14

>  <SCORE.norm>
-0.860597

>  <RMSD>
32.675

$$$$
ligand
 OpenBabel11021811493D
libRbt.so/2013.1/901 2013/11/27
 14 13  0  0  0  0  0  0  0  0999 V2000
   35.6904   -1.5603   27.2592 N   0  0  0  0  0  0  0  0  0  0  0  0
   35.3693   -0.5884   26.2372 C   0  0  0  0  0  0  0  0  0  0  0  0
   35.5783    0.8302   26.8059 C   0  0  0  0  0  0  0  0  0  0  0  0
   34.6777    1.1603   28.0063 C   0  0  0  0  0  0  0  0  0  0  0  0
   34.9258    2.4566   28.6557 N   0  0  0  0  0  0  0  0  0  0  0  0
   35.9724    2.6743   29.6528 C   0  0  0  0  0  0  0  0  0  0  0  0
   37.3775    2.4580   29.1002 C   0  0  0  0  0  0  0  0  0  0  0  0
   38.4890    2.8451   30.0811 C   0  0  0  0  0  0  0  0  0  0  0  0
   39.8761    2.4438   29.5658 C   0  0  0  0  0  0  0  0  0  0  0  0
   40.1507    3.1488   28.3155 N   0  0  0  0  0  0  0  0  0  0  0  0
   41.1241    2.7098   27.3140 C   0  0  0  0  0  0  0  0  0  0  0  0
   40.4666    2.0548   26.0913 C   0  0  0  0  0  0  0  0  0  0  0  0
   41.5158    1.5118   25.1157 C   0  0  0  0  0  0  0  0  0  0  0  0
   40.8600    1.1040   23.8767 N   0  0  0  0  0  0  0  0  0  0  0  0
  1  2  1  0  0  0  0
  2  3  1  0  0  0  0
  3  4  1  0  0  0  0
  4  5  1  0  0  0  0
  5  6  1  0  0  0  0
  6  7  1  0  0  0  0
  7  8  1  0  0  0  0
  8  9  1  0  0  0  0
  9 10  1  0  0  0  0
 10 11  1  0  0  0  0
 11 12  1  0  0  0  0
 12 13  1  0  0  0  0
 13 14  1  0  0  0  0
M  END
>  <CHROM.1>
-61.61491993,174.77311202,-82.67295798,63.17246596,173.01882796,172.48427175
61.76722359,-158.22397284,103.36692028,-175.62680723,-170.60073493,38.00531104
1.66078065,27.57718925,2.98650693,0.32725017,0.98979090

>  <Name>
ligand

>  <RI>
0

>  <Rbt.Current_Directory>
/home/itssahil/PROJECTS/Mol_Feturizer/New_Systems/rnas/4FAW

>  <Rbt.Executable>
rbdock ($Id: //depot/dev/client3/rdock/2013.1/src/exe/rbdock.cxx#4 $)

>  <Rbt.Library>
libRbt.so (2013.1, Build901 2013/11/27)

>  <Rbt.Parameter_File>
/export/apps/rDock/src/rDock_2013.1_src/data/scripts/dock_solv.prm

>  <Rbt.Receptor>
prm/blind_docking_100.prm

>  <SCORE>
-7.07072

>  <SCORE.INTER>
1.83843

>  <SCORE.INTER.CONST>
1

>  <SCORE.INTER.POLAR>
0

>  <SCORE.INTER.ROT>
11

>  <SCORE.INTER.SOLV>
18.9451

>  <SCORE.INTER.VDW>
-16.0227

>  <SCORE.INTER.norm>
0.131316

>  <SCORE.INTRA>
-8.90915

>  <SCORE.INTRA.DIHEDRAL>
-16.4404

>  <SCORE.INTRA.DIHEDRAL.0>
19.1003

>  <SCORE.INTRA.POLAR>
0

>  <SCORE.INTRA.POLAR.0>
0

>  <SCORE.INTRA.REPUL>
0

>  <SCORE.INTRA.REPUL.0>
0

>  <SCORE.INTRA.SOLV>
-0.306516

>  <SCORE.INTRA.SOLV.lig_0>
-47.5333

>  <SCORE.INTRA.VDW>
-0.535682

>  <SCORE.INTRA.VDW.0>
-0.287413

>  <SCORE.INTRA.norm>
-0.636368

>  <SCORE.RESTR>
0

>  <SCORE.RESTR.CAVITY>
0

>  <SCORE.RESTR.norm>
0

>  <SCORE.SYSTEM>
0

>  <SCORE.SYSTEM.CONST>
0

>  <SCORE.SYSTEM.DIHEDRAL>
0

>  <SCORE.SYSTEM.SOLV>
0

>  <SCORE.SYSTEM.norm>
0

>  <SCORE.heavy>
14

>  <SCORE.norm>
-0.505051

>  <RMSD>
32.765

$$$$
ligand
 OpenBabel11021811493D
libRbt.so/2013.1/901 2013/11/27
 14 13  0  0  0  0  0  0  0  0999 V2000
   38.4852   -1.1359   30.3378 N   0  0  0  0  0  0  0  0  0  0  0  0
   37.8392    0.1183   30.0184 C   0  0  0  0  0  0  0  0  0  0  0  0
   36.6711    0.3487   30.9992 C   0  0  0  0  0  0  0  0  0  0  0  0
   35.8984    1.6541   30.7539 C   0  0  0  0  0  0  0  0  0  0  0  0
   35.2681    1.7865   29.4315 N   0  0  0  0  0  0  0  0  0  0  0  0
   34.1762    0.9326   28.9672 C   0  0  0  0  0  0  0  0  0  0  0  0
   34.6468   -0.1941   28.0533 C   0  0  0  0  0  0  0  0  0  0  0  0
   35.4027    0.2961   26.8140 C   0  0  0  0  0  0  0  0  0  0  0  0
   35.7538   -0.8537   25.8624 C   0  0  0  0  0  0  0  0  0  0  0  0
   36.4714   -0.3226   24.7054 N   0  0  0  0  0  0  0  0  0  0  0  0
   36.5027   -0.9586   23.3871 C   0  0  0  0  0  0  0  0  0  0  0  0
   37.4733   -0.2710   22.4169 C   0  0  0  0  0  0  0  0  0  0  0  0
   36.9997    1.1416   22.0591 C   0  0  0  0  0  0  0  0  0  0  0  0
   37.1026    1.9995   23.2358 N   0  0  0  0  0  0  0  0  0  0  0  0
  1  2  1  0  0  0  0
  2  3  1  0  0  0  0
  3  4  1  0  0  0  0
  4  5  1  0  0  0  0
  5  6  1  0  0  0  0
  6  7  1  0  0  0  0
  7  8  1  0  0  0  0
  8  9  1  0  0  0  0
  9 10  1  0  0  0  0
 10 11  1  0  0  0  0
 11 12  1  0  0  0  0
 12 13  1  0  0  0  0
 13 14  1  0  0  0  0
M  END
>  <CHROM.1>
-179.69364221,60.06165819,65.51930517,-99.26909221,-57.32817885,-175.12288076
-179.96429062,-154.46905783,-172.88344854,-66.76479286,68.43533455,36.33487533
0.32429004,26.93157057,-1.65410229,0.52015039,-1.56062631

>  <Name>
ligand

>  <RI>
0

>  <Rbt.Current_Directory>
/home/itssahil/PROJECTS/Mol_Feturizer/New_Systems/rnas/4FAW

>  <Rbt.Executable>
rbdock ($Id: //depot/dev/client3/rdock/2013.1/src/exe/rbdock.cxx#4 $)

>  <Rbt.Library>
libRbt.so (2013.1, Build901 2013/11/27)

>  <Rbt.Parameter_File>
/export/apps/rDock/src/rDock_2013.1_src/data/scripts/dock_solv.prm

>  <Rbt.Receptor>
prm/blind_docking_60.prm

>  <SCORE>
-8.12518

>  <SCORE.INTER>
0.357971

>  <SCORE.INTER.CONST>
1

>  <SCORE.INTER.POLAR>
0

>  <SCORE.INTER.ROT>
11

>  <SCORE.INTER.SOLV>
12.1419

>  <SCORE.INTER.VDW>
-14.742

>  <SCORE.INTER.norm>
0.0255694

>  <SCORE.INTRA>
-8.48315

>  <SCORE.INTRA.DIHEDRAL>
-17.1307

>  <SCORE.INTRA.DIHEDRAL.0>
19.1003

>  <SCORE.INTRA.POLAR>
0

>  <SCORE.INTRA.POLAR.0>
0

>  <SCORE.INTRA.REPUL>
0

>  <SCORE.INTRA.REPUL.0>
0

>  <SCORE.INTRA.SOLV>
2.54826

>  <SCORE.INTRA.SOLV.lig_0>
-47.5333

>  <SCORE.INTRA.VDW>
-1.19191

>  <SCORE.INTRA.VDW.0>
-0.287413

>  <SCORE.INTRA.norm>
-0.60594

>  <SCORE.RESTR>
0

>  <SCORE.RESTR.CAVITY>
0

>  <SCORE.RESTR.norm>
0

>  <SCORE.SYSTEM>
0

>  <SCORE.SYSTEM.CONST>
0

>  <SCORE.SYSTEM.DIHEDRAL>
0

>  <SCORE.SYSTEM.SOLV>
0

>  <SCORE.SYSTEM.norm>
0

>  <SCORE.heavy>
14

>  <SCORE.norm>
-0.58037

>  <RMSD>
33.141

$$$$
ligand
 OpenBabel11021811493D
libRbt.so/2013.1/901 2013/11/27
 14 13  0  0  0  0  0  0  0  0999 V2000
   27.1911   -5.2257   25.5950 N   0  0  0  0  0  0  0  0  0  0  0  0
   27.2808   -4.0511   24.7556 C   0  0  0  0  0  0  0  0  0  0  0  0
   27.8274   -4.4597   23.3722 C   0  0  0  0  0  0  0  0  0  0  0  0
   29.1868   -5.1741   23.4242 C   0  0  0  0  0  0  0  0  0  0  0  0
   30.2601   -4.4578   24.1303 N   0  0  0  0  0  0  0  0  0  0  0  0
   31.6255   -4.3417   23.6212 C   0  0  0  0  0  0  0  0  0  0  0  0
   32.4222   -3.2305   24.2971 C   0  0  0  0  0  0  0  0  0  0  0  0
   33.7297   -2.8871   23.5761 C   0  0  0  0  0  0  0  0  0  0  0  0
   34.4326   -1.6781   24.2048 C   0  0  0  0  0  0  0  0  0  0  0  0
   35.6690   -1.4039   23.4756 N   0  0  0  0  0  0  0  0  0  0  0  0
   36.4986   -0.2135   23.6708 C   0  0  0  0  0  0  0  0  0  0  0  0
   37.3260    0.1462   22.4289 C   0  0  0  0  0  0  0  0  0  0  0  0
   38.3559    1.2372   22.7396 C   0  0  0  0  0  0  0  0  0  0  0  0
   39.1076    1.5527   21.5285 N   0  0  0  0  0  0  0  0  0  0  0  0
  1  2  1  0  0  0  0
  2  3  1  0  0  0  0
  3  4  1  0  0  0  0
  4  5  1  0  0  0  0
  5  6  1  0  0  0  0
  6  7  1  0  0  0  0
  7  8  1  0  0  0  0
  8  9  1  0  0  0  0
  9 10  1  0  0  0  0
 10 11  1  0  0  0  0
 11 12  1  0  0  0  0
 12 13  1  0  0  0  0
 13 14  1  0  0  0  0
M  END
>  <CHROM.1>
-56.60220599,-54.49157271,-135.69933061,162.74746909,-167.14133155,174.43037817
179.93554790,170.83754463,-154.18305452,-170.10709555,-179.49726952,32.92231223
-2.44197986,23.62997064,-3.07002597,-0.52500127,-1.74504145

>  <Name>
ligand

>  <RI>
0

>  <Rbt.Current_Directory>
/home/itssahil/PROJECTS/Mol_Feturizer/New_Systems/rnas/4FAW

>  <Rbt.Executable>
rbdock ($Id: //depot/dev/client3/rdock/2013.1/src/exe/rbdock.cxx#4 $)

>  <Rbt.Library>
libRbt.so (2013.1, Build901 2013/11/27)

>  <Rbt.Parameter_File>
/export/apps/rDock/src/rDock_2013.1_src/data/scripts/dock_solv.prm

>  <Rbt.Receptor>
prm/blind_docking_60.prm

>  <SCORE>
-11.7487

>  <SCORE.INTER>
-3.13254

>  <SCORE.INTER.CONST>
1

>  <SCORE.INTER.POLAR>
0

>  <SCORE.INTER.ROT>
11

>  <SCORE.INTER.SOLV>
12.7635

>  <SCORE.INTER.VDW>
-17.2762

>  <SCORE.INTER.norm>
-0.223753

>  <SCORE.INTRA>
-8.61618

>  <SCORE.INTRA.DIHEDRAL>
-16.0738

>  <SCORE.INTRA.DIHEDRAL.0>
19.1003

>  <SCORE.INTRA.POLAR>
0

>  <SCORE.INTRA.POLAR.0>
0

>  <SCORE.INTRA.REPUL>
0

>  <SCORE.INTRA.REPUL.0>
0

>  <SCORE.INTRA.SOLV>
0.494146

>  <SCORE.INTRA.SOLV.lig_0>
-47.5333

>  <SCORE.INTRA.VDW>
-0.826345

>  <SCORE.INTRA.VDW.0>
-0.287413

>  <SCORE.INTRA.norm>
-0.615442

>  <SCORE.RESTR>
0

>  <SCORE.RESTR.CAVITY>
0

>  <SCORE.RESTR.norm>
0

>  <SCORE.SYSTEM>
0

>  <SCORE.SYSTEM.CONST>
0

>  <SCORE.SYSTEM.DIHEDRAL>
0

>  <SCORE.SYSTEM.SOLV>
0

>  <SCORE.SYSTEM.norm>
0

>  <SCORE.heavy>
14

>  <SCORE.norm>
-0.839195

>  <RMSD>
33.175

$$$$
ligand
 OpenBabel11021811493D
libRbt.so/2013.1/901 2013/11/27
 14 13  0  0  0  0  0  0  0  0999 V2000
   28.4935   -4.2327   25.9755 N   0  0  0  0  0  0  0  0  0  0  0  0
   28.2872   -3.7824   24.6165 C   0  0  0  0  0  0  0  0  0  0  0  0
   28.4476   -4.9802   23.6579 C   0  0  0  0  0  0  0  0  0  0  0  0
   29.8428   -5.6234   23.6906 C   0  0  0  0  0  0  0  0  0  0  0  0
   30.9253   -4.8363   23.0804 N   0  0  0  0  0  0  0  0  0  0  0  0
   31.9951   -4.2016   23.8482 C   0  0  0  0  0  0  0  0  0  0  0  0
   33.3181   -4.1413   23.0916 C   0  0  0  0  0  0  0  0  0  0  0  0
   34.3744   -3.2640   23.7713 C   0  0  0  0  0  0  0  0  0  0  0  0
   34.1534   -1.7736   23.4870 C   0  0  0  0  0  0  0  0  0  0  0  0
   35.3151   -1.0157   23.9471 N   0  0  0  0  0  0  0  0  0  0  0  0
   35.5375    0.4054   23.6742 C   0  0  0  0  0  0  0  0  0  0  0  0
   36.9819    0.8459   23.9499 C   0  0  0  0  0  0  0  0  0  0  0  0
   37.1627    2.3492   23.7152 C   0  0  0  0  0  0  0  0  0  0  0  0
   38.5593    2.7101   23.9404 N   0  0  0  0  0  0  0  0  0  0  0  0
  1  2  1  0  0  0  0
  2  3  1  0  0  0  0
  3  4  1  0  0  0  0
  4  5  1  0  0  0  0
  5  6  1  0  0  0  0
  6  7  1  0  0  0  0
  7  8  1  0  0  0  0
  8  9  1  0  0  0  0
  9 10  1  0  0  0  0
 10 11  1  0  0  0  0
 11 12  1  0  0  0  0
 12 13  1  0  0  0  0
 13 14  1  0  0  0  0
M  END
>  <CHROM.1>
-61.44306854,-71.72076313,109.72183575,147.80730347,169.63791724,-80.18394544
-169.65239367,171.12640357,-164.91713465,-177.41171281,-177.87169487,33.09947453
-2.25307408,23.88885765,2.54273333,-0.32196288,-2.76937844

>  <Name>
ligand

>  <RI>
0

>  <Rbt.Current_Directory>
/home/itssahil/PROJECTS/Mol_Feturizer/New_Systems/rnas/4FAW

>  <Rbt.Executable>
rbdock ($Id: //depot/dev/client3/rdock/2013.1/src/exe/rbdock.cxx#4 $)

>  <Rbt.Library>
libRbt.so (2013.1, Build901 2013/11/27)

>  <Rbt.Parameter_File>
/export/apps/rDock/src/rDock_2013.1_src/data/scripts/dock_solv.prm

>  <Rbt.Receptor>
prm/blind_docking_60.prm

>  <SCORE>
-10.7477

>  <SCORE.INTER>
-3.16183

>  <SCORE.INTER.CONST>
1

>  <SCORE.INTER.POLAR>
0

>  <SCORE.INTER.ROT>
11

>  <SCORE.INTER.SOLV>
15.5504

>  <SCORE.INTER.VDW>
-18.2247

>  <SCORE.INTER.norm>
-0.225845

>  <SCORE.INTRA>
-7.58588

>  <SCORE.INTRA.DIHEDRAL>
-14.1741

>  <SCORE.INTRA.DIHEDRAL.0>
19.1003

>  <SCORE.INTRA.POLAR>
0

>  <SCORE.INTRA.POLAR.0>
0

>  <SCORE.INTRA.REPUL>
0

>  <SCORE.INTRA.REPUL.0>
0

>  <SCORE.INTRA.SOLV>
0.625531

>  <SCORE.INTRA.SOLV.lig_0>
-47.5333

>  <SCORE.INTRA.VDW>
-0.81162

>  <SCORE.INTRA.VDW.0>
-0.287413

>  <SCORE.INTRA.norm>
-0.541849

>  <SCORE.RESTR>
0

>  <SCORE.RESTR.CAVITY>
0

>  <SCORE.RESTR.norm>
0

>  <SCORE.SYSTEM>
0

>  <SCORE.SYSTEM.CONST>
0

>  <SCORE.SYSTEM.DIHEDRAL>
0

>  <SCORE.SYSTEM.SOLV>
0

>  <SCORE.SYSTEM.norm>
0

>  <SCORE.heavy>
14

>  <SCORE.norm>
-0.767693

>  <RMSD>
33.224

$$$$
ligand
 OpenBabel11021811493D
libRbt.so/2013.1/901 2013/11/27
 14 13  0  0  0  0  0  0  0  0999 V2000
   34.1249   -0.2370   33.8135 N   0  0  0  0  0  0  0  0  0  0  0  0
   34.1203   -0.4874   32.3889 C   0  0  0  0  0  0  0  0  0  0  0  0
   34.5101    0.8079   31.6474 C   0  0  0  0  0  0  0  0  0  0  0  0
   34.5689    0.6586   30.1192 C   0  0  0  0  0  0  0  0  0  0  0  0
   35.5866   -0.2707   29.6051 N   0  0  0  0  0  0  0  0  0  0  0  0
   35.9087   -0.4129   28.1863 C   0  0  0  0  0  0  0  0  0  0  0  0
   36.9270    0.6131   27.6997 C   0  0  0  0  0  0  0  0  0  0  0  0
   38.2665    0.5473   28.4406 C   0  0  0  0  0  0  0  0  0  0  0  0
   39.2426    1.6280   27.9608 C   0  0  0  0  0  0  0  0  0  0  0  0
   39.7502    1.2691   26.6382 N   0  0  0  0  0  0  0  0  0  0  0  0
   40.3816    2.2094   25.7106 C   0  0  0  0  0  0  0  0  0  0  0  0
   39.3886    3.2190   25.1181 C   0  0  0  0  0  0  0  0  0  0  0  0
   40.0928    4.2233   24.1998 C   0  0  0  0  0  0  0  0  0  0  0  0
   40.6176    3.5248   23.0302 N   0  0  0  0  0  0  0  0  0  0  0  0
  1  2  1  0  0  0  0
  2  3  1  0  0  0  0
  3  4  1  0  0  0  0
  4  5  1  0  0  0  0
  5  6  1  0  0  0  0
  6  7  1  0  0  0  0
  7  8  1  0  0  0  0
  8  9  1  0  0  0  0
  9 10  1  0  0  0  0
 10 11  1  0  0  0  0
 11 12  1  0  0  0  0
 12 13  1  0  0  0  0
 13 14  1  0  0  0  0
M  END
>  <CHROM.1>
178.78133483,-63.69590515,-171.78681743,84.90881511,59.39737172,-177.78674027
-73.55687682,161.55353183,-70.28867208,177.57090404,65.85956124,37.39183102
1.23524287,28.18270457,-2.20072280,0.06310046,-1.11299624

>  <Name>
ligand

>  <RI>
0

>  <Rbt.Current_Directory>
/home/itssahil/PROJECTS/Mol_Feturizer/New_Systems/rnas/4FAW

>  <Rbt.Executable>
rbdock ($Id: //depot/dev/client3/rdock/2013.1/src/exe/rbdock.cxx#4 $)

>  <Rbt.Library>
libRbt.so (2013.1, Build901 2013/11/27)

>  <Rbt.Parameter_File>
/export/apps/rDock/src/rDock_2013.1_src/data/scripts/dock_solv.prm

>  <Rbt.Receptor>
prm/blind_docking_80.prm

>  <SCORE>
-7.41235

>  <SCORE.INTER>
1.80834

>  <SCORE.INTER.CONST>
1

>  <SCORE.INTER.POLAR>
0

>  <SCORE.INTER.ROT>
11

>  <SCORE.INTER.SOLV>
10.2042

>  <SCORE.INTER.VDW>
-13.1292

>  <SCORE.INTER.norm>
0.129167

>  <SCORE.INTRA>
-9.22069

>  <SCORE.INTRA.DIHEDRAL>
-17.3632

>  <SCORE.INTRA.DIHEDRAL.0>
19.1003

>  <SCORE.INTRA.POLAR>
0

>  <SCORE.INTRA.POLAR.0>
0

>  <SCORE.INTRA.REPUL>
0

>  <SCORE.INTRA.REPUL.0>
0

>  <SCORE.INTRA.SOLV>
0.282698

>  <SCORE.INTRA.SOLV.lig_0>
-47.5333

>  <SCORE.INTRA.VDW>
-0.680456

>  <SCORE.INTRA.VDW.0>
-0.287413

>  <SCORE.INTRA.norm>
-0.658621

>  <SCORE.RESTR>
0

>  <SCORE.RESTR.CAVITY>
0

>  <SCORE.RESTR.norm>
0

>  <SCORE.SYSTEM>
0

>  <SCORE.SYSTEM.CONST>
0

>  <SCORE.SYSTEM.DIHEDRAL>
0

>  <SCORE.SYSTEM.SOLV>
0

>  <SCORE.SYSTEM.norm>
0

>  <SCORE.heavy>
14

>  <SCORE.norm>
-0.529454

>  <RMSD>
33.786

$$$$
ligand
 OpenBabel11021811493D
libRbt.so/2013.1/901 2013/11/27
 14 13  0  0  0  0  0  0  0  0999 V2000
   41.8645    4.7883   23.8680 N   0  0  0  0  0  0  0  0  0  0  0  0
   40.8882    4.0264   24.6153 C   0  0  0  0  0  0  0  0  0  0  0  0
   41.5094    2.6759   25.0274 C   0  0  0  0  0  0  0  0  0  0  0  0
   40.5427    1.7477   25.7790 C   0  0  0  0  0  0  0  0  0  0  0  0
   39.9628    2.2929   27.0160 N   0  0  0  0  0  0  0  0  0  0  0  0
   38.9965    1.5715   27.8423 C   0  0  0  0  0  0  0  0  0  0  0  0
   38.5383    2.3692   29.0589 C   0  0  0  0  0  0  0  0  0  0  0  0
   37.5823    1.5974   29.9743 C   0  0  0  0  0  0  0  0  0  0  0  0
   36.2203    1.3576   29.3122 C   0  0  0  0  0  0  0  0  0  0  0  0
   35.3781    0.5694   30.2094 N   0  0  0  0  0  0  0  0  0  0  0  0
   34.7901    1.0759   31.4508 C   0  0  0  0  0  0  0  0  0  0  0  0
   33.7354    0.1290   32.0400 C   0  0  0  0  0  0  0  0  0  0  0  0
   33.0615    0.7399   33.2731 C   0  0  0  0  0  0  0  0  0  0  0  0
   34.0547    0.9219   34.3275 N   0  0  0  0  0  0  0  0  0  0  0  0
  1  2  1  0  0  0  0
  2  3  1  0  0  0  0
  3  4  1  0  0  0  0
  4  5  1  0  0  0  0
  5  6  1  0  0  0  0
  6  7  1  0  0  0  0
  7  8  1  0  0  0  0
  8  9  1  0  0  0  0
  9 10  1  0  0  0  0
 10 11  1  0  0  0  0
 11 12  1  0  0  0  0
 12 13  1  0  0  0  0
 13 14  1  0  0  0  0
M  END
>  <CHROM.1>
-177.48524495,-58.03631261,178.22223331,-179.16312998,-176.93237308,-68.63132339
177.54253967,71.20131269,168.53262393,-175.41351391,-63.76352271,37.65169987
1.84723994,28.84243859,-0.13166711,0.83869074,0.51077246

>  <Name>
ligand

>  <RI>
0

>  <Rbt.Current_Directory>
/home/itssahil/PROJECTS/Mol_Feturizer/New_Systems/rnas/4FAW

>  <Rbt.Executable>
rbdock ($Id: //depot/dev/client3/rdock/2013.1/src/exe/rbdock.cxx#4 $)

>  <Rbt.Library>
libRbt.so (2013.1, Build901 2013/11/27)

>  <Rbt.Parameter_File>
/export/apps/rDock/src/rDock_2013.1_src/data/scripts/dock_solv.prm

>  <Rbt.Receptor>
prm/blind_docking_60.prm

>  <SCORE>
-8.46346

>  <SCORE.INTER>
0.969563

>  <SCORE.INTER.CONST>
1

>  <SCORE.INTER.POLAR>
0

>  <SCORE.INTER.ROT>
11

>  <SCORE.INTER.SOLV>
6.44967

>  <SCORE.INTER.VDW>
-12.4368

>  <SCORE.INTER.norm>
0.0692545

>  <SCORE.INTRA>
-9.43303

>  <SCORE.INTRA.DIHEDRAL>
-18.3553

>  <SCORE.INTRA.DIHEDRAL.0>
19.1003

>  <SCORE.INTRA.POLAR>
0

>  <SCORE.INTRA.POLAR.0>
0

>  <SCORE.INTRA.REPUL>
0

>  <SCORE.INTRA.REPUL.0>
0

>  <SCORE.INTRA.SOLV>
-0.230744

>  <SCORE.INTRA.SOLV.lig_0>
-47.5333

>  <SCORE.INTRA.VDW>
-0.140002

>  <SCORE.INTRA.VDW.0>
-0.287413

>  <SCORE.INTRA.norm>
-0.673788

>  <SCORE.RESTR>
0

>  <SCORE.RESTR.CAVITY>
0

>  <SCORE.RESTR.norm>
0

>  <SCORE.SYSTEM>
0

>  <SCORE.SYSTEM.CONST>
0

>  <SCORE.SYSTEM.DIHEDRAL>
0

>  <SCORE.SYSTEM.SOLV>
0

>  <SCORE.SYSTEM.norm>
0

>  <SCORE.heavy>
14

>  <SCORE.norm>
-0.604533

>  <RMSD>
34.289

$$$$
ligand
 OpenBabel11021811493D
libRbt.so/2013.1/901 2013/11/27
 14 13  0  0  0  0  0  0  0  0999 V2000
   32.7145    1.0611   33.8601 N   0  0  0  0  0  0  0  0  0  0  0  0
   33.5681   -0.0697   33.5690 C   0  0  0  0  0  0  0  0  0  0  0  0
   33.9082   -0.0716   32.0644 C   0  0  0  0  0  0  0  0  0  0  0  0
   34.7896    1.1068   31.6223 C   0  0  0  0  0  0  0  0  0  0  0  0
   35.0862    1.1803   30.1834 N   0  0  0  0  0  0  0  0  0  0  0  0
   35.3661    2.4300   29.4784 C   0  0  0  0  0  0  0  0  0  0  0  0
   36.8484    2.7889   29.4655 C   0  0  0  0  0  0  0  0  0  0  0  0
   37.6921    1.8798   28.5660 C   0  0  0  0  0  0  0  0  0  0  0  0
   39.1366    2.3778   28.4383 C   0  0  0  0  0  0  0  0  0  0  0  0
   39.8244    1.6077   27.4040 N   0  0  0  0  0  0  0  0  0  0  0  0
   40.8147    2.1626   26.4796 C   0  0  0  0  0  0  0  0  0  0  0  0
   40.5146    1.8257   25.0124 C   0  0  0  0  0  0  0  0  0  0  0  0
   41.5634    2.4307   24.0735 C   0  0  0  0  0  0  0  0  0  0  0  0
   41.1555    2.2151   22.6885 N   0  0  0  0  0  0  0  0  0  0  0  0
  1  2  1  0  0  0  0
  2  3  1  0  0  0  0
  3  4  1  0  0  0  0
  4  5  1  0  0  0  0
  5  6  1  0  0  0  0
  6  7  1  0  0  0  0
  7  8  1  0  0  0  0
  8  9  1  0  0  0  0
  9 10  1  0  0  0  0
 10 11  1  0  0  0  0
 11 12  1  0  0  0  0
 12 13  1  0  0  0  0
 13 14  1  0  0  0  0
M  END
>  <CHROM.1>
67.09210097,-177.21416481,152.18883074,89.96458811,70.93424767,172.71414152
-170.66195512,143.51911597,-129.21862016,179.55308662,-173.59251904,37.35595953
1.63756053,28.77906011,2.30376749,0.05816864,1.70171141

>  <Name>
ligand

>  <RI>
0

>  <Rbt.Current_Directory>
/home/itssahil/PROJECTS/Mol_Feturizer/New_Systems/rnas/4FAW

>  <Rbt.Executable>
rbdock ($Id: //depot/dev/client3/rdock/2013.1/src/exe/rbdock.cxx#4 $)

>  <Rbt.Library>
libRbt.so (2013.1, Build901 2013/11/27)

>  <Rbt.Parameter_File>
/export/apps/rDock/src/rDock_2013.1_src/data/scripts/dock_solv.prm

>  <Rbt.Receptor>
prm/blind_docking_60.prm

>  <SCORE>
-8.22613

>  <SCORE.INTER>
0.280873

>  <SCORE.INTER.CONST>
1

>  <SCORE.INTER.POLAR>
0

>  <SCORE.INTER.ROT>
11

>  <SCORE.INTER.SOLV>
10.6567

>  <SCORE.INTER.VDW>
-14.2983

>  <SCORE.INTER.norm>
0.0200624

>  <SCORE.INTRA>
-8.507

>  <SCORE.INTRA.DIHEDRAL>
-14.6834

>  <SCORE.INTRA.DIHEDRAL.0>
19.1003

>  <SCORE.INTRA.POLAR>
0

>  <SCORE.INTRA.POLAR.0>
0

>  <SCORE.INTRA.REPUL>
0

>  <SCORE.INTRA.REPUL.0>
0

>  <SCORE.INTRA.SOLV>
-0.50947

>  <SCORE.INTRA.SOLV.lig_0>
-47.5333

>  <SCORE.INTRA.VDW>
-0.910589

>  <SCORE.INTRA.VDW.0>
-0.287413

>  <SCORE.INTRA.norm>
-0.607643

>  <SCORE.RESTR>
0

>  <SCORE.RESTR.CAVITY>
0

>  <SCORE.RESTR.norm>
0

>  <SCORE.SYSTEM>
0

>  <SCORE.SYSTEM.CONST>
0

>  <SCORE.SYSTEM.DIHEDRAL>
0

>  <SCORE.SYSTEM.SOLV>
0

>  <SCORE.SYSTEM.norm>
0

>  <SCORE.heavy>
14

>  <SCORE.norm>
-0.587581

>  <RMSD>
34.396

$$$$
ligand
 OpenBabel11021811493D
libRbt.so/2013.1/901 2013/11/27
 14 13  0  0  0  0  0  0  0  0999 V2000
   41.7248    2.5690   23.9655 N   0  0  0  0  0  0  0  0  0  0  0  0
   41.5022    1.1961   24.3629 C   0  0  0  0  0  0  0  0  0  0  0  0
   41.3095    1.1381   25.8923 C   0  0  0  0  0  0  0  0  0  0  0  0
   40.0433    1.8527   26.3894 C   0  0  0  0  0  0  0  0  0  0  0  0
   39.8625    1.8946   27.8485 N   0  0  0  0  0  0  0  0  0  0  0  0
   38.7559    2.5869   28.5066 C   0  0  0  0  0  0  0  0  0  0  0  0
   38.8072    2.4837   30.0274 C   0  0  0  0  0  0  0  0  0  0  0  0
   38.6454    1.0530   30.5512 C   0  0  0  0  0  0  0  0  0  0  0  0
   38.7106    0.9903   32.0818 C   0  0  0  0  0  0  0  0  0  0  0  0
   38.5098   -0.3898   32.5187 N   0  0  0  0  0  0  0  0  0  0  0  0
   38.0083   -0.7756   33.8389 C   0  0  0  0  0  0  0  0  0  0  0  0
   37.7081   -2.2771   33.9466 C   0  0  0  0  0  0  0  0  0  0  0  0
   37.2224   -2.6512   35.3509 C   0  0  0  0  0  0  0  0  0  0  0  0
   37.0238   -4.0955   35.4259 N   0  0  0  0  0  0  0  0  0  0  0  0
  1  2  1  0  0  0  0
  2  3  1  0  0  0  0
  3  4  1  0  0  0  0
  4  5  1  0  0  0  0
  5  6  1  0  0  0  0
  6  7  1  0  0  0  0
  7  8  1  0  0  0  0
  8  9  1  0  0  0  0
  9 10  1  0  0  0  0
 10 11  1  0  0  0  0
 11 12  1  0  0  0  0
 12 13  1  0  0  0  0
 13 14  1  0  0  0  0
M  END
>  <CHROM.1>
65.45649651,-176.35221839,176.85033200,-179.63723882,-64.33566398,179.66614162
178.29217896,-155.67461439,171.68361197,178.44087789,-176.78998342,39.13092883
0.39840704,30.05050596,-0.72791824,-1.12700724,2.79727935

>  <Name>
ligand

>  <RI>
0

>  <Rbt.Current_Directory>
/home/itssahil/PROJECTS/Mol_Feturizer/New_Systems/rnas/4FAW

>  <Rbt.Executable>
rbdock ($Id: //depot/dev/client3/rdock/2013.1/src/exe/rbdock.cxx#4 $)

>  <Rbt.Library>
libRbt.so (2013.1, Build901 2013/11/27)

>  <Rbt.Parameter_File>
/export/apps/rDock/src/rDock_2013.1_src/data/scripts/dock_solv.prm

>  <Rbt.Receptor>
prm/blind_docking_100.prm

>  <SCORE>
-6.79009

>  <SCORE.INTER>
3.45397

>  <SCORE.INTER.CONST>
1

>  <SCORE.INTER.POLAR>
0

>  <SCORE.INTER.ROT>
11

>  <SCORE.INTER.SOLV>
6.44023

>  <SCORE.INTER.VDW>
-10.7774

>  <SCORE.INTER.norm>
0.246712

>  <SCORE.INTRA>
-10.2441

>  <SCORE.INTRA.DIHEDRAL>
-18.3193

>  <SCORE.INTRA.DIHEDRAL.0>
19.1003

>  <SCORE.INTRA.POLAR>
0

>  <SCORE.INTRA.POLAR.0>
0

>  <SCORE.INTRA.REPUL>
0

>  <SCORE.INTRA.REPUL.0>
0

>  <SCORE.INTRA.SOLV>
-0.425361

>  <SCORE.INTRA.SOLV.lig_0>
-47.5333

>  <SCORE.INTRA.VDW>
-0.871741

>  <SCORE.INTRA.VDW.0>
-0.287413

>  <SCORE.INTRA.norm>
-0.731719

>  <SCORE.RESTR>
0

>  <SCORE.RESTR.CAVITY>
0

>  <SCORE.RESTR.norm>
0

>  <SCORE.SYSTEM>
0

>  <SCORE.SYSTEM.CONST>
0

>  <SCORE.SYSTEM.DIHEDRAL>
0

>  <SCORE.SYSTEM.SOLV>
0

>  <SCORE.SYSTEM.norm>
0

>  <SCORE.heavy>
14

>  <SCORE.norm>
-0.485007

>  <RMSD>
34.409

$$$$
ligand
 OpenBabel11021811493D
libRbt.so/2013.1/901 2013/11/27
 14 13  0  0  0  0  0  0  0  0999 V2000
   35.9933   -0.1668   32.9747 N   0  0  0  0  0  0  0  0  0  0  0  0
   34.7451   -0.2884   33.6955 C   0  0  0  0  0  0  0  0  0  0  0  0
   33.6400   -0.7406   32.7189 C   0  0  0  0  0  0  0  0  0  0  0  0
   33.3071    0.2927   31.6314 C   0  0  0  0  0  0  0  0  0  0  0  0
   34.3532    0.5207   30.6228 N   0  0  0  0  0  0  0  0  0  0  0  0
   34.0848    0.6300   29.1900 C   0  0  0  0  0  0  0  0  0  0  0  0
   35.0680   -0.1641   28.3362 C   0  0  0  0  0  0  0  0  0  0  0  0
   34.5547   -0.4586   26.9229 C   0  0  0  0  0  0  0  0  0  0  0  0
   35.6160   -1.1490   26.0580 C   0  0  0  0  0  0  0  0  0  0  0  0
   36.5961   -0.1603   25.6135 N   0  0  0  0  0  0  0  0  0  0  0  0
   36.5196    0.5699   24.3469 C   0  0  0  0  0  0  0  0  0  0  0  0
   36.6317   -0.3486   23.1221 C   0  0  0  0  0  0  0  0  0  0  0  0
   36.5338    0.4463   21.8159 C   0  0  0  0  0  0  0  0  0  0  0  0
   37.6824    1.3407   21.7059 N   0  0  0  0  0  0  0  0  0  0  0  0
  1  2  1  0  0  0  0
  2  3  1  0  0  0  0
  3  4  1  0  0  0  0
  4  5  1  0  0  0  0
  5  6  1  0  0  0  0
  6  7  1  0  0  0  0
  7  8  1  0  0  0  0
  8  9  1  0  0  0  0
  9 10  1  0  0  0  0
 10 11  1  0  0  0  0
 11 12  1  0  0  0  0
 12 13  1  0  0  0  0
 13 14  1  0  0  0  0
M  END
>  <CHROM.1>
-65.71031165,68.78126058,136.37797514,-135.31638944,160.42628783,174.99659430
-76.89092062,-92.94571924,-64.05402369,179.43528851,65.07177613,35.38008871
0.02298700,27.76821036,-1.81974253,-0.09471476,-1.54363252

>  <Name>
ligand

>  <RI>
0

>  <Rbt.Current_Directory>
/home/itssahil/PROJECTS/Mol_Feturizer/New_Systems/rnas/4FAW

>  <Rbt.Executable>
rbdock ($Id: //depot/dev/client3/rdock/2013.1/src/exe/rbdock.cxx#4 $)

>  <Rbt.Library>
libRbt.so (2013.1, Build901 2013/11/27)

>  <Rbt.Parameter_File>
/export/apps/rDock/src/rDock_2013.1_src/data/scripts/dock_solv.prm

>  <Rbt.Receptor>
prm/blind_docking_100.prm

>  <SCORE>
-7.6988

>  <SCORE.INTER>
-1.4952

>  <SCORE.INTER.CONST>
1

>  <SCORE.INTER.POLAR>
0

>  <SCORE.INTER.ROT>
11

>  <SCORE.INTER.SOLV>
11.5539

>  <SCORE.INTER.VDW>
-15.7814

>  <SCORE.INTER.norm>
-0.1068

>  <SCORE.INTRA>
-6.2036

>  <SCORE.INTRA.DIHEDRAL>
-13.4356

>  <SCORE.INTRA.DIHEDRAL.0>
19.1003

>  <SCORE.INTRA.POLAR>
0

>  <SCORE.INTRA.POLAR.0>
0

>  <SCORE.INTRA.REPUL>
0

>  <SCORE.INTRA.REPUL.0>
0

>  <SCORE.INTRA.SOLV>
2.31554

>  <SCORE.INTRA.SOLV.lig_0>
-47.5333

>  <SCORE.INTRA.VDW>
-0.643546

>  <SCORE.INTRA.VDW.0>
-0.287413

>  <SCORE.INTRA.norm>
-0.443114

>  <SCORE.RESTR>
0

>  <SCORE.RESTR.CAVITY>
0

>  <SCORE.RESTR.norm>
0

>  <SCORE.SYSTEM>
0

>  <SCORE.SYSTEM.CONST>
0

>  <SCORE.SYSTEM.DIHEDRAL>
0

>  <SCORE.SYSTEM.SOLV>
0

>  <SCORE.SYSTEM.norm>
0

>  <SCORE.heavy>
14

>  <SCORE.norm>
-0.549914

>  <RMSD>
34.477

$$$$
ligand
 OpenBabel11021811493D
libRbt.so/2013.1/901 2013/11/27
 14 13  0  0  0  0  0  0  0  0999 V2000
   36.4747    1.6579   21.3739 N   0  0  0  0  0  0  0  0  0  0  0  0
   37.2210    0.4197   21.4178 C   0  0  0  0  0  0  0  0  0  0  0  0
   37.4409    0.0146   22.8899 C   0  0  0  0  0  0  0  0  0  0  0  0
   36.1455   -0.3203   23.6453 C   0  0  0  0  0  0  0  0  0  0  0  0
   36.2871   -0.5426   25.0925 N   0  0  0  0  0  0  0  0  0  0  0  0
   35.1664   -0.5025   26.0301 C   0  0  0  0  0  0  0  0  0  0  0  0
   35.5869   -0.1275   27.4475 C   0  0  0  0  0  0  0  0  0  0  0  0
   34.4069    0.0993   28.3980 C   0  0  0  0  0  0  0  0  0  0  0  0
   34.8705    0.4249   29.8227 C   0  0  0  0  0  0  0  0  0  0  0  0
   33.7068    0.5131   30.7022 N   0  0  0  0  0  0  0  0  0  0  0  0
   33.7680    0.4623   32.1641 C   0  0  0  0  0  0  0  0  0  0  0  0
   33.9463   -0.9637   32.7035 C   0  0  0  0  0  0  0  0  0  0  0  0
   34.0280   -0.9769   34.2335 C   0  0  0  0  0  0  0  0  0  0  0  0
   35.2289   -0.2650   34.6606 N   0  0  0  0  0  0  0  0  0  0  0  0
  1  2  1  0  0  0  0
  2  3  1  0  0  0  0
  3  4  1  0  0  0  0
  4  5  1  0  0  0  0
  5  6  1  0  0  0  0
  6  7  1  0  0  0  0
  7  8  1  0  0  0  0
  8  9  1  0  0  0  0
  9 10  1  0  0  0  0
 10 11  1  0  0  0  0
 11 12  1  0  0  0  0
 12 13  1  0  0  0  0
 13 14  1  0  0  0  0
M  END
>  <CHROM.1>
64.89163175,-172.41402974,162.40730833,-153.67633591,172.37731121,177.97272695
-175.05018186,163.41471434,-78.11885541,179.12389996,-64.66352557,35.30552256
-0.00777053,27.89865246,1.27568839,0.66370074,-1.32088193

>  <Name>
ligand

>  <RI>
0

>  <Rbt.Current_Directory>
/home/itssahil/PROJECTS/Mol_Feturizer/New_Systems/rnas/4FAW

>  <Rbt.Executable>
rbdock ($Id: //depot/dev/client3/rdock/2013.1/src/exe/rbdock.cxx#4 $)

>  <Rbt.Library>
libRbt.so (2013.1, Build901 2013/11/27)

>  <Rbt.Parameter_File>
/export/apps/rDock/src/rDock_2013.1_src/data/scripts/dock_solv.prm

>  <Rbt.Receptor>
prm/blind_docking_100.prm

>  <SCORE>
-9.30081

>  <SCORE.INTER>
-0.0794142

>  <SCORE.INTER.CONST>
1

>  <SCORE.INTER.POLAR>
0

>  <SCORE.INTER.ROT>
11

>  <SCORE.INTER.SOLV>
11.9588

>  <SCORE.INTER.VDW>
-14.9725

>  <SCORE.INTER.norm>
-0.00567244

>  <SCORE.INTRA>
-9.2214

>  <SCORE.INTRA.DIHEDRAL>
-17.1993

>  <SCORE.INTRA.DIHEDRAL.0>
19.1003

>  <SCORE.INTRA.POLAR>
0

>  <SCORE.INTRA.POLAR.0>
0

>  <SCORE.INTRA.REPUL>
0

>  <SCORE.INTRA.REPUL.0>
0

>  <SCORE.INTRA.SOLV>
0.0511704

>  <SCORE.INTRA.SOLV.lig_0>
-47.5333

>  <SCORE.INTRA.VDW>
-0.647325

>  <SCORE.INTRA.VDW.0>
-0.287413

>  <SCORE.INTRA.norm>
-0.658671

>  <SCORE.RESTR>
0

>  <SCORE.RESTR.CAVITY>
0

>  <SCORE.RESTR.norm>
0

>  <SCORE.SYSTEM>
0

>  <SCORE.SYSTEM.CONST>
0

>  <SCORE.SYSTEM.DIHEDRAL>
0

>  <SCORE.SYSTEM.SOLV>
0

>  <SCORE.SYSTEM.norm>
0

>  <SCORE.heavy>
14

>  <SCORE.norm>
-0.664344

>  <RMSD>
34.642

$$$$
ligand
 OpenBabel11021811493D
libRbt.so/2013.1/901 2013/11/27
 14 13  0  0  0  0  0  0  0  0999 V2000
   34.0555   -1.8448   34.6891 N   0  0  0  0  0  0  0  0  0  0  0  0
   34.2376   -1.4482   33.3100 C   0  0  0  0  0  0  0  0  0  0  0  0
   33.3921   -0.1885   33.0310 C   0  0  0  0  0  0  0  0  0  0  0  0
   33.4802    0.3138   31.5815 C   0  0  0  0  0  0  0  0  0  0  0  0
   34.8189    0.7151   31.1229 N   0  0  0  0  0  0  0  0  0  0  0  0
   35.1283    1.0625   29.7371 C   0  0  0  0  0  0  0  0  0  0  0  0
   35.1489   -0.1474   28.8087 C   0  0  0  0  0  0  0  0  0  0  0  0
   35.6161    0.1784   27.3863 C   0  0  0  0  0  0  0  0  0  0  0  0
   35.5579   -1.0473   26.4671 C   0  0  0  0  0  0  0  0  0  0  0  0
   36.2641   -0.7526   25.2221 N   0  0  0  0  0  0  0  0  0  0  0  0
   35.6895   -0.0068   24.1009 C   0  0  0  0  0  0  0  0  0  0  0  0
   36.3581   -0.3386   22.7596 C   0  0  0  0  0  0  0  0  0  0  0  0
   35.7630    0.4913   21.6174 C   0  0  0  0  0  0  0  0  0  0  0  0
   36.1754    1.8840   21.7647 N   0  0  0  0  0  0  0  0  0  0  0  0
  1  2  1  0  0  0  0
  2  3  1  0  0  0  0
  3  4  1  0  0  0  0
  4  5  1  0  0  0  0
  5  6  1  0  0  0  0
  6  7  1  0  0  0  0
  7  8  1  0  0  0  0
  8  9  1  0  0  0  0
  9 10  1  0  0  0  0
 10 11  1  0  0  0  0
 11 12  1  0  0  0  0
 12 13  1  0  0  0  0
 13 14  1  0  0  0  0
M  END
>  <CHROM.1>
-178.75837474,-61.18168150,172.31034251,-72.47392068,-173.88080985,-177.22245394
-168.42793417,-81.08820836,-155.53438622,-178.19136706,70.54732928,35.12033220
-0.08067665,27.97121266,-2.32345283,1.28262594,-0.73793544

>  <Name>
ligand

>  <RI>
0

>  <Rbt.Current_Directory>
/home/itssahil/PROJECTS/Mol_Feturizer/New_Systems/rnas/4FAW

>  <Rbt.Executable>
rbdock ($Id: //depot/dev/client3/rdock/2013.1/src/exe/rbdock.cxx#4 $)

>  <Rbt.Library>
libRbt.so (2013.1, Build901 2013/11/27)

>  <Rbt.Parameter_File>
/export/apps/rDock/src/rDock_2013.1_src/data/scripts/dock_solv.prm

>  <Rbt.Receptor>
prm/blind_docking_80.prm

>  <SCORE>
-11.1297

>  <SCORE.INTER>
-1.75477

>  <SCORE.INTER.CONST>
1

>  <SCORE.INTER.POLAR>
0

>  <SCORE.INTER.ROT>
11

>  <SCORE.INTER.SOLV>
13.2337

>  <SCORE.INTER.VDW>
-16.5144

>  <SCORE.INTER.norm>
-0.12534

>  <SCORE.INTRA>
-9.37494

>  <SCORE.INTRA.DIHEDRAL>
-17.0724

>  <SCORE.INTRA.DIHEDRAL.0>
19.1003

>  <SCORE.INTRA.POLAR>
0

>  <SCORE.INTRA.POLAR.0>
0

>  <SCORE.INTRA.REPUL>
0

>  <SCORE.INTRA.REPUL.0>
0

>  <SCORE.INTRA.SOLV>
-0.484221

>  <SCORE.INTRA.SOLV.lig_0>
-47.5333

>  <SCORE.INTRA.VDW>
-0.596648

>  <SCORE.INTRA.VDW.0>
-0.287413

>  <SCORE.INTRA.norm>
-0.669639

>  <SCORE.RESTR>
0

>  <SCORE.RESTR.CAVITY>
0

>  <SCORE.RESTR.norm>
0

>  <SCORE.SYSTEM>
0

>  <SCORE.SYSTEM.CONST>
0

>  <SCORE.SYSTEM.DIHEDRAL>
0

>  <SCORE.SYSTEM.SOLV>
0

>  <SCORE.SYSTEM.norm>
0

>  <SCORE.heavy>
14

>  <SCORE.norm>
-0.794979

>  <RMSD>
34.779

$$$$
ligand
 OpenBabel11021811493D
libRbt.so/2013.1/901 2013/11/27
 14 13  0  0  0  0  0  0  0  0999 V2000
   34.1735    0.6905   27.8665 N   0  0  0  0  0  0  0  0  0  0  0  0
   35.5383    0.2168   27.7949 C   0  0  0  0  0  0  0  0  0  0  0  0
   35.5866   -1.0540   26.9218 C   0  0  0  0  0  0  0  0  0  0  0  0
   35.2252   -0.8128   25.4479 C   0  0  0  0  0  0  0  0  0  0  0  0
   35.2326   -2.0029   24.5836 N   0  0  0  0  0  0  0  0  0  0  0  0
   34.5593   -2.0650   23.2875 C   0  0  0  0  0  0  0  0  0  0  0  0
   33.6170   -3.2576   23.1609 C   0  0  0  0  0  0  0  0  0  0  0  0
   32.4843   -3.2570   24.1926 C   0  0  0  0  0  0  0  0  0  0  0  0
   31.4546   -4.3590   23.9166 C   0  0  0  0  0  0  0  0  0  0  0  0
   30.3242   -4.2049   24.8299 N   0  0  0  0  0  0  0  0  0  0  0  0
   29.0178   -4.8394   24.6448 C   0  0  0  0  0  0  0  0  0  0  0  0
   27.9363   -4.2553   25.5642 C   0  0  0  0  0  0  0  0  0  0  0  0
   26.5880   -4.9525   25.3552 C   0  0  0  0  0  0  0  0  0  0  0  0
   25.5836   -4.3323   26.2141 N   0  0  0  0  0  0  0  0  0  0  0  0
  1  2  1  0  0  0  0
  2  3  1  0  0  0  0
  3  4  1  0  0  0  0
  4  5  1  0  0  0  0
  5  6  1  0  0  0  0
  6  7  1  0  0  0  0
  7  8  1  0  0  0  0
  8  9  1  0  0  0  0
  9 10  1  0  0  0  0
 10 11  1  0  0  0  0
 11 12  1  0  0  0  0
 12 13  1  0  0  0  0
 13 14  1  0  0  0  0
M  END
>  <CHROM.1>
65.44574096,-178.84078164,161.49713339,-127.04848177,60.64746823,172.24830078
-173.18333967,163.51228290,-166.78847264,-179.35199206,-177.98479081,31.95177279
-2.74908937,25.26979153,0.33029052,0.33772055,0.96109369

>  <Name>
ligand

>  <RI>
0

>  <Rbt.Current_Directory>
/home/itssahil/PROJECTS/Mol_Feturizer/New_Systems/rnas/4FAW

>  <Rbt.Executable>
rbdock ($Id: //depot/dev/client3/rdock/2013.1/src/exe/rbdock.cxx#4 $)

>  <Rbt.Library>
libRbt.so (2013.1, Build901 2013/11/27)

>  <Rbt.Parameter_File>
/export/apps/rDock/src/rDock_2013.1_src/data/scripts/dock_solv.prm

>  <Rbt.Receptor>
prm/blind_docking_60.prm

>  <SCORE>
-13.6188

>  <SCORE.INTER>
-4.06858

>  <SCORE.INTER.CONST>
1

>  <SCORE.INTER.POLAR>
0

>  <SCORE.INTER.ROT>
11

>  <SCORE.INTER.SOLV>
16.8093

>  <SCORE.INTER.VDW>
-19.2488

>  <SCORE.INTER.norm>
-0.290613

>  <SCORE.INTRA>
-9.55024

>  <SCORE.INTRA.DIHEDRAL>
-16.7749

>  <SCORE.INTRA.DIHEDRAL.0>
19.1003

>  <SCORE.INTRA.POLAR>
0

>  <SCORE.INTRA.POLAR.0>
0

>  <SCORE.INTRA.REPUL>
0

>  <SCORE.INTRA.REPUL.0>
0

>  <SCORE.INTRA.SOLV>
-0.438303

>  <SCORE.INTRA.SOLV.lig_0>
-47.5333

>  <SCORE.INTRA.VDW>
-0.943612

>  <SCORE.INTRA.VDW.0>
-0.287413

>  <SCORE.INTRA.norm>
-0.68216

>  <SCORE.RESTR>
0

>  <SCORE.RESTR.CAVITY>
0

>  <SCORE.RESTR.norm>
0

>  <SCORE.SYSTEM>
0

>  <SCORE.SYSTEM.CONST>
0

>  <SCORE.SYSTEM.DIHEDRAL>
0

>  <SCORE.SYSTEM.SOLV>
0

>  <SCORE.SYSTEM.norm>
0

>  <SCORE.heavy>
14

>  <SCORE.norm>
-0.972773

>  <RMSD>
34.925

$$$$
ligand
 OpenBabel11021811493D
libRbt.so/2013.1/901 2013/11/27
 14 13  0  0  0  0  0  0  0  0999 V2000
   42.0953    4.8819   27.2495 N   0  0  0  0  0  0  0  0  0  0  0  0
   42.7402    3.5881   27.2988 C   0  0  0  0  0  0  0  0  0  0  0  0
   41.8255    2.5422   26.6289 C   0  0  0  0  0  0  0  0  0  0  0  0
   40.4554    2.3858   27.3067 C   0  0  0  0  0  0  0  0  0  0  0  0
   39.5833    1.3381   26.7541 N   0  0  0  0  0  0  0  0  0  0  0  0
   38.2063    1.1178   27.1928 C   0  0  0  0  0  0  0  0  0  0  0  0
   38.1023    0.7440   28.6678 C   0  0  0  0  0  0  0  0  0  0  0  0
   36.6606    0.5720   29.1571 C   0  0  0  0  0  0  0  0  0  0  0  0
   36.5924    0.3181   30.6676 C   0  0  0  0  0  0  0  0  0  0  0  0
   35.1979    0.1377   31.0657 N   0  0  0  0  0  0  0  0  0  0  0  0
   34.5133    0.9486   32.0742 C   0  0  0  0  0  0  0  0  0  0  0  0
   33.1044    0.4323   32.3976 C   0  0  0  0  0  0  0  0  0  0  0  0
   32.4074    1.3200   33.4338 C   0  0  0  0  0  0  0  0  0  0  0  0
   33.1447    1.2654   34.6927 N   0  0  0  0  0  0  0  0  0  0  0  0
  1  2  1  0  0  0  0
  2  3  1  0  0  0  0
  3  4  1  0  0  0  0
  4  5  1  0  0  0  0
  5  6  1  0  0  0  0
  6  7  1  0  0  0  0
  7  8  1  0  0  0  0
  8  9  1  0  0  0  0
  9 10  1  0  0  0  0
 10 11  1  0  0  0  0
 11 12  1  0  0  0  0
 12 13  1  0  0  0  0
 13 14  1  0  0  0  0
M  END
>  <CHROM.1>
-60.55667617,-176.22957926,-174.67468639,-61.58519777,177.38918610,-175.00905853
-178.91573095,-122.70189114,-173.56223738,-178.82868721,-63.60487762,37.47348067
1.54213008,29.61325945,-0.29956035,0.61422269,0.83936001

>  <Name>
ligand

>  <RI>
0

>  <Rbt.Current_Directory>
/home/itssahil/PROJECTS/Mol_Feturizer/New_Systems/rnas/4FAW

>  <Rbt.Executable>
rbdock ($Id: //depot/dev/client3/rdock/2013.1/src/exe/rbdock.cxx#4 $)

>  <Rbt.Library>
libRbt.so (2013.1, Build901 2013/11/27)

>  <Rbt.Parameter_File>
/export/apps/rDock/src/rDock_2013.1_src/data/scripts/dock_solv.prm

>  <Rbt.Receptor>
prm/blind_docking_60.prm

>  <SCORE>
-7.9964

>  <SCORE.INTER>
1.11347

>  <SCORE.INTER.CONST>
1

>  <SCORE.INTER.POLAR>
0

>  <SCORE.INTER.ROT>
11

>  <SCORE.INTER.SOLV>
9.43759

>  <SCORE.INTER.VDW>
-13.3369

>  <SCORE.INTER.norm>
0.0795336

>  <SCORE.INTRA>
-9.10987

>  <SCORE.INTRA.DIHEDRAL>
-17.6042

>  <SCORE.INTRA.DIHEDRAL.0>
19.1003

>  <SCORE.INTRA.POLAR>
0

>  <SCORE.INTRA.POLAR.0>
0

>  <SCORE.INTRA.REPUL>
0

>  <SCORE.INTRA.REPUL.0>
0

>  <SCORE.INTRA.SOLV>
0.0392317

>  <SCORE.INTRA.SOLV.lig_0>
-47.5333

>  <SCORE.INTRA.VDW>
-0.327365

>  <SCORE.INTRA.VDW.0>
-0.287413

>  <SCORE.INTRA.norm>
-0.650705

>  <SCORE.RESTR>
0

>  <SCORE.RESTR.CAVITY>
0

>  <SCORE.RESTR.norm>
0

>  <SCORE.SYSTEM>
0

>  <SCORE.SYSTEM.CONST>
0

>  <SCORE.SYSTEM.DIHEDRAL>
0

>  <SCORE.SYSTEM.SOLV>
0

>  <SCORE.SYSTEM.norm>
0

>  <SCORE.heavy>
14

>  <SCORE.norm>
-0.571172

>  <RMSD>
34.998

$$$$
ligand
 OpenBabel11021811493D
libRbt.so/2013.1/901 2013/11/27
 14 13  0  0  0  0  0  0  0  0999 V2000
   34.0299   -1.7533   34.5784 N   0  0  0  0  0  0  0  0  0  0  0  0
   34.4203   -1.3753   33.2379 C   0  0  0  0  0  0  0  0  0  0  0  0
   33.6228   -0.1249   32.8134 C   0  0  0  0  0  0  0  0  0  0  0  0
   34.0031    0.4168   31.4267 C   0  0  0  0  0  0  0  0  0  0  0  0
   35.3943    0.8697   31.2754 N   0  0  0  0  0  0  0  0  0  0  0  0
   35.9176    1.4804   30.0546 C   0  0  0  0  0  0  0  0  0  0  0  0
   35.8211    0.5634   28.8397 C   0  0  0  0  0  0  0  0  0  0  0  0
   34.4277    0.5322   28.2035 C   0  0  0  0  0  0  0  0  0  0  0  0
   34.2825   -0.6116   27.1928 C   0  0  0  0  0  0  0  0  0  0  0  0
   35.1688   -0.3689   26.0565 N   0  0  0  0  0  0  0  0  0  0  0  0
   35.2171   -1.1996   24.8520 C   0  0  0  0  0  0  0  0  0  0  0  0
   36.1249   -0.6148   23.7610 C   0  0  0  0  0  0  0  0  0  0  0  0
   35.5738    0.7109   23.2260 C   0  0  0  0  0  0  0  0  0  0  0  0
   36.5071    1.2644   22.2493 N   0  0  0  0  0  0  0  0  0  0  0  0
  1  2  1  0  0  0  0
  2  3  1  0  0  0  0
  3  4  1  0  0  0  0
  4  5  1  0  0  0  0
  5  6  1  0  0  0  0
  6  7  1  0  0  0  0
  7  8  1  0  0  0  0
  8  9  1  0  0  0  0
  9 10  1  0  0  0  0
 10 11  1  0  0  0  0
 11 12  1  0  0  0  0
 12 13  1  0  0  0  0
 13 14  1  0  0  0  0
M  END
>  <CHROM.1>
177.08698024,-61.85713482,-176.58622120,-60.33717315,80.16171536,-167.53052918
-65.95972251,-174.99019971,173.42359555,-65.39812999,176.78304974,35.03641359
-0.01505177,28.41187896,1.97128107,1.14795801,1.27887321

>  <Name>
ligand

>  <RI>
0

>  <Rbt.Current_Directory>
/home/itssahil/PROJECTS/Mol_Feturizer/New_Systems/rnas/4FAW

>  <Rbt.Executable>
rbdock ($Id: //depot/dev/client3/rdock/2013.1/src/exe/rbdock.cxx#4 $)

>  <Rbt.Library>
libRbt.so (2013.1, Build901 2013/11/27)

>  <Rbt.Parameter_File>
/export/apps/rDock/src/rDock_2013.1_src/data/scripts/dock_solv.prm

>  <Rbt.Receptor>
prm/blind_docking_60.prm

>  <SCORE>
-11.3029

>  <SCORE.INTER>
-2.30359

>  <SCORE.INTER.CONST>
1

>  <SCORE.INTER.POLAR>
0

>  <SCORE.INTER.ROT>
11

>  <SCORE.INTER.SOLV>
9.57499

>  <SCORE.INTER.VDW>
-15.6607

>  <SCORE.INTER.norm>
-0.164542

>  <SCORE.INTRA>
-8.9993

>  <SCORE.INTRA.DIHEDRAL>
-16.6783

>  <SCORE.INTRA.DIHEDRAL.0>
19.1003

>  <SCORE.INTRA.POLAR>
0

>  <SCORE.INTRA.POLAR.0>
0

>  <SCORE.INTRA.REPUL>
0

>  <SCORE.INTRA.REPUL.0>
0

>  <SCORE.INTRA.SOLV>
-0.168753

>  <SCORE.INTRA.SOLV.lig_0>
-47.5333

>  <SCORE.INTRA.VDW>
-0.575753

>  <SCORE.INTRA.VDW.0>
-0.287413

>  <SCORE.INTRA.norm>
-0.642807

>  <SCORE.RESTR>
0

>  <SCORE.RESTR.CAVITY>
0

>  <SCORE.RESTR.norm>
0

>  <SCORE.SYSTEM>
0

>  <SCORE.SYSTEM.CONST>
0

>  <SCORE.SYSTEM.DIHEDRAL>
0

>  <SCORE.SYSTEM.SOLV>
0

>  <SCORE.SYSTEM.norm>
0

>  <SCORE.heavy>
14

>  <SCORE.norm>
-0.807349

>  <RMSD>
35.137

$$$$
ligand
 OpenBabel11021811493D
libRbt.so/2013.1/901 2013/11/27
 14 13  0  0  0  0  0  0  0  0999 V2000
   36.6830    1.5357   22.4952 N   0  0  0  0  0  0  0  0  0  0  0  0
   36.6263    0.3171   23.2723 C   0  0  0  0  0  0  0  0  0  0  0  0
   35.2404   -0.3350   23.0885 C   0  0  0  0  0  0  0  0  0  0  0  0
   35.0654   -1.6555   23.8544 C   0  0  0  0  0  0  0  0  0  0  0  0
   33.7950   -2.3623   23.6307 N   0  0  0  0  0  0  0  0  0  0  0  0
   33.6736   -3.8188   23.6050 C   0  0  0  0  0  0  0  0  0  0  0  0
   32.2352   -4.2951   23.4311 C   0  0  0  0  0  0  0  0  0  0  0  0
   31.3242   -3.9397   24.6106 C   0  0  0  0  0  0  0  0  0  0  0  0
   29.9099   -4.5054   24.4357 C   0  0  0  0  0  0  0  0  0  0  0  0
   29.1225   -4.2189   25.6331 N   0  0  0  0  0  0  0  0  0  0  0  0
   27.7337   -4.6379   25.8304 C   0  0  0  0  0  0  0  0  0  0  0  0
   27.1827   -4.2440   27.2079 C   0  0  0  0  0  0  0  0  0  0  0  0
   25.7245   -4.6843   27.3740 C   0  0  0  0  0  0  0  0  0  0  0  0
   25.2097   -4.1853   28.6457 N   0  0  0  0  0  0  0  0  0  0  0  0
  1  2  1  0  0  0  0
  2  3  1  0  0  0  0
  3  4  1  0  0  0  0
  4  5  1  0  0  0  0
  5  6  1  0  0  0  0
  6  7  1  0  0  0  0
  7  8  1  0  0  0  0
  8  9  1  0  0  0  0
  9 10  1  0  0  0  0
 10 11  1  0  0  0  0
 11 12  1  0  0  0  0
 12 13  1  0  0  0  0
 13 14  1  0  0  0  0
M  END
>  <CHROM.1>
179.17220184,-175.72387392,145.23832792,176.84353779,-65.32133174,-176.66390802
175.82222403,-178.56448045,177.67571772,179.39322759,-174.98133889,31.39480767
-2.93092069,24.79377156,0.21441287,0.52544474,0.38699931

>  <Name>
ligand

>  <RI>
0

>  <Rbt.Current_Directory>
/home/itssahil/PROJECTS/Mol_Feturizer/New_Systems/rnas/4FAW

>  <Rbt.Executable>
rbdock ($Id: //depot/dev/client3/rdock/2013.1/src/exe/rbdock.cxx#4 $)

>  <Rbt.Library>
libRbt.so (2013.1, Build901 2013/11/27)

>  <Rbt.Parameter_File>
/export/apps/rDock/src/rDock_2013.1_src/data/scripts/dock_solv.prm

>  <Rbt.Receptor>
prm/blind_docking_60.prm

>  <SCORE>
-16.6612

>  <SCORE.INTER>
-6.14269

>  <SCORE.INTER.CONST>
1

>  <SCORE.INTER.POLAR>
0

>  <SCORE.INTER.ROT>
11

>  <SCORE.INTER.SOLV>
11.7375

>  <SCORE.INTER.VDW>
-18.941

>  <SCORE.INTER.norm>
-0.438764

>  <SCORE.INTRA>
-10.5185

>  <SCORE.INTRA.DIHEDRAL>
-17.9516

>  <SCORE.INTRA.DIHEDRAL.0>
19.1003

>  <SCORE.INTRA.POLAR>
0

>  <SCORE.INTRA.POLAR.0>
0

>  <SCORE.INTRA.REPUL>
0

>  <SCORE.INTRA.REPUL.0>
0

>  <SCORE.INTRA.SOLV>
-1.15229

>  <SCORE.INTRA.SOLV.lig_0>
-47.5333

>  <SCORE.INTRA.VDW>
-0.966557

>  <SCORE.INTRA.VDW.0>
-0.287413

>  <SCORE.INTRA.norm>
-0.751321

>  <SCORE.RESTR>
0

>  <SCORE.RESTR.CAVITY>
0

>  <SCORE.RESTR.norm>
0

>  <SCORE.SYSTEM>
0

>  <SCORE.SYSTEM.CONST>
0

>  <SCORE.SYSTEM.DIHEDRAL>
0

>  <SCORE.SYSTEM.SOLV>
0

>  <SCORE.SYSTEM.norm>
0

>  <SCORE.heavy>
14

>  <SCORE.norm>
-1.19008

>  <RMSD>
35.169

$$$$
ligand
 OpenBabel11021811493D
libRbt.so/2013.1/901 2013/11/27
 14 13  0  0  0  0  0  0  0  0999 V2000
   36.5223    1.2961   22.3681 N   0  0  0  0  0  0  0  0  0  0  0  0
   35.7939    0.0483   22.3018 C   0  0  0  0  0  0  0  0  0  0  0  0
   35.1390   -0.2275   23.6709 C   0  0  0  0  0  0  0  0  0  0  0  0
   36.1449   -0.4917   24.8021 C   0  0  0  0  0  0  0  0  0  0  0  0
   35.5795   -0.5638   26.1581 N   0  0  0  0  0  0  0  0  0  0  0  0
   36.1003    0.1965   27.2927 C   0  0  0  0  0  0  0  0  0  0  0  0
   35.4147   -0.1516   28.6099 C   0  0  0  0  0  0  0  0  0  0  0  0
   35.9308    0.6587   29.8034 C   0  0  0  0  0  0  0  0  0  0  0  0
   35.2348    0.2632   31.1111 C   0  0  0  0  0  0  0  0  0  0  0  0
   33.8232    0.6344   31.0395 N   0  0  0  0  0  0  0  0  0  0  0  0
   32.8112    0.2344   32.0190 C   0  0  0  0  0  0  0  0  0  0  0  0
   33.1705    0.6531   33.4514 C   0  0  0  0  0  0  0  0  0  0  0  0
   33.2028    2.1780   33.5970 C   0  0  0  0  0  0  0  0  0  0  0  0
   33.4269    2.5263   34.9970 N   0  0  0  0  0  0  0  0  0  0  0  0
  1  2  1  0  0  0  0
  2  3  1  0  0  0  0
  3  4  1  0  0  0  0
  4  5  1  0  0  0  0
  5  6  1  0  0  0  0
  6  7  1  0  0  0  0
  7  8  1  0  0  0  0
  8  9  1  0  0  0  0
  9 10  1  0  0  0  0
 10 11  1  0  0  0  0
 11 12  1  0  0  0  0
 12 13  1  0  0  0  0
 13 14  1  0  0  0  0
M  END
>  <CHROM.1>
-66.22631965,171.38124435,-129.23661659,-174.91385651,-178.81237831,-179.02104312
-66.16488855,170.51044448,56.28206386,64.85359125,174.85955284,34.87821755
0.51798251,28.65871078,0.83523401,1.19952964,-0.99585789

>  <Name>
ligand

>  <RI>
0

>  <Rbt.Current_Directory>
/home/itssahil/PROJECTS/Mol_Feturizer/New_Systems/rnas/4FAW

>  <Rbt.Executable>
rbdock ($Id: //depot/dev/client3/rdock/2013.1/src/exe/rbdock.cxx#4 $)

>  <Rbt.Library>
libRbt.so (2013.1, Build901 2013/11/27)

>  <Rbt.Parameter_File>
/export/apps/rDock/src/rDock_2013.1_src/data/scripts/dock_solv.prm

>  <Rbt.Receptor>
prm/blind_docking_80.prm

>  <SCORE>
-10.2468

>  <SCORE.INTER>
-1.2152

>  <SCORE.INTER.CONST>
1

>  <SCORE.INTER.POLAR>
0

>  <SCORE.INTER.ROT>
11

>  <SCORE.INTER.SOLV>
10.9871

>  <SCORE.INTER.VDW>
-15.4058

>  <SCORE.INTER.norm>
-0.0868001

>  <SCORE.INTRA>
-9.03157

>  <SCORE.INTRA.DIHEDRAL>
-17.1025

>  <SCORE.INTRA.DIHEDRAL.0>
19.1003

>  <SCORE.INTRA.POLAR>
0

>  <SCORE.INTRA.POLAR.0>
0

>  <SCORE.INTRA.REPUL>
0

>  <SCORE.INTRA.REPUL.0>
0

>  <SCORE.INTRA.SOLV>
-0.0538981

>  <SCORE.INTRA.SOLV.lig_0>
-47.5333

>  <SCORE.INTRA.VDW>
-0.453367

>  <SCORE.INTRA.VDW.0>
-0.287413

>  <SCORE.INTRA.norm>
-0.645112

>  <SCORE.RESTR>
0

>  <SCORE.RESTR.CAVITY>
0

>  <SCORE.RESTR.norm>
0

>  <SCORE.SYSTEM>
0

>  <SCORE.SYSTEM.CONST>
0

>  <SCORE.SYSTEM.DIHEDRAL>
0

>  <SCORE.SYSTEM.SOLV>
0

>  <SCORE.SYSTEM.norm>
0

>  <SCORE.heavy>
14

>  <SCORE.norm>
-0.731913

>  <RMSD>
35.501

$$$$
ligand
 OpenBabel11021811493D
libRbt.so/2013.1/901 2013/11/27
 14 13  0  0  0  0  0  0  0  0999 V2000
   33.0491    1.3709   34.3123 N   0  0  0  0  0  0  0  0  0  0  0  0
   33.5247    0.0158   34.1403 C   0  0  0  0  0  0  0  0  0  0  0  0
   33.4904   -0.3449   32.6409 C   0  0  0  0  0  0  0  0  0  0  0  0
   34.4170    0.5179   31.7701 C   0  0  0  0  0  0  0  0  0  0  0  0
   34.4593    0.1710   30.3413 N   0  0  0  0  0  0  0  0  0  0  0  0
   34.6661    1.1516   29.2770 C   0  0  0  0  0  0  0  0  0  0  0  0
   34.2031    0.6564   27.9108 C   0  0  0  0  0  0  0  0  0  0  0  0
   35.0241   -0.5208   27.3742 C   0  0  0  0  0  0  0  0  0  0  0  0
   36.2875   -0.0541   26.6415 C   0  0  0  0  0  0  0  0  0  0  0  0
   37.1531    0.6611   27.5769 N   0  0  0  0  0  0  0  0  0  0  0  0
   38.4845    1.1729   27.2469 C   0  0  0  0  0  0  0  0  0  0  0  0
   38.9718    2.2445   28.2320 C   0  0  0  0  0  0  0  0  0  0  0  0
   39.0819    1.6875   29.6551 C   0  0  0  0  0  0  0  0  0  0  0  0
   39.5874    2.7287   30.5449 N   0  0  0  0  0  0  0  0  0  0  0  0
  1  2  1  0  0  0  0
  2  3  1  0  0  0  0
  3  4  1  0  0  0  0
  4  5  1  0  0  0  0
  5  6  1  0  0  0  0
  6  7  1  0  0  0  0
  7  8  1  0  0  0  0
  8  9  1  0  0  0  0
  9 10  1  0  0  0  0
 10 11  1  0  0  0  0
 11 12  1  0  0  0  0
 12 13  1  0  0  0  0
 13 14  1  0  0  0  0
M  END
>  <CHROM.1>
62.90053213,177.50040312,147.66432788,-160.23330207,-66.11964588,-85.19728869
62.27424168,175.85269902,161.53260602,61.24634781,178.23544628,35.88563244
0.81829595,29.83280489,-2.35485599,-0.39523143,-1.77298096

>  <Name>
ligand

>  <RI>
0

>  <Rbt.Current_Directory>
/home/itssahil/PROJECTS/Mol_Feturizer/New_Systems/rnas/4FAW

>  <Rbt.Executable>
rbdock ($Id: //depot/dev/client3/rdock/2013.1/src/exe/rbdock.cxx#4 $)

>  <Rbt.Library>
libRbt.so (2013.1, Build901 2013/11/27)

>  <Rbt.Parameter_File>
/export/apps/rDock/src/rDock_2013.1_src/data/scripts/dock_solv.prm

>  <Rbt.Receptor>
prm/blind_docking_100.prm

>  <SCORE>
-8.65484

>  <SCORE.INTER>
-0.729269

>  <SCORE.INTER.CONST>
1

>  <SCORE.INTER.POLAR>
0

>  <SCORE.INTER.ROT>
11

>  <SCORE.INTER.SOLV>
11.8832

>  <SCORE.INTER.VDW>
-15.3806

>  <SCORE.INTER.norm>
-0.0520906

>  <SCORE.INTRA>
-7.92558

>  <SCORE.INTRA.DIHEDRAL>
-15.3284

>  <SCORE.INTRA.DIHEDRAL.0>
19.1003

>  <SCORE.INTRA.POLAR>
0

>  <SCORE.INTRA.POLAR.0>
0

>  <SCORE.INTRA.REPUL>
0

>  <SCORE.INTRA.REPUL.0>
0

>  <SCORE.INTRA.SOLV>
1.22157

>  <SCORE.INTRA.SOLV.lig_0>
-47.5333

>  <SCORE.INTRA.VDW>
-0.872148

>  <SCORE.INTRA.VDW.0>
-0.287413

>  <SCORE.INTRA.norm>
-0.566113

>  <SCORE.RESTR>
0

>  <SCORE.RESTR.CAVITY>
0

>  <SCORE.RESTR.norm>
0

>  <SCORE.SYSTEM>
0

>  <SCORE.SYSTEM.CONST>
0

>  <SCORE.SYSTEM.DIHEDRAL>
0

>  <SCORE.SYSTEM.SOLV>
0

>  <SCORE.SYSTEM.norm>
0

>  <SCORE.heavy>
14

>  <SCORE.norm>
-0.618203

>  <RMSD>
35.938

$$$$
ligand
 OpenBabel11021811493D
libRbt.so/2013.1/901 2013/11/27
 14 13  0  0  0  0  0  0  0  0999 V2000
   24.9398   -4.1715   28.8396 N   0  0  0  0  0  0  0  0  0  0  0  0
   25.6448   -4.8783   27.7929 C   0  0  0  0  0  0  0  0  0  0  0  0
   25.5672   -4.0581   26.4888 C   0  0  0  0  0  0  0  0  0  0  0  0
   26.2209   -4.7449   25.2797 C   0  0  0  0  0  0  0  0  0  0  0  0
   27.6449   -5.0824   25.4273 N   0  0  0  0  0  0  0  0  0  0  0  0
   28.7101   -4.4519   24.6495 C   0  0  0  0  0  0  0  0  0  0  0  0
   29.5963   -5.4595   23.9244 C   0  0  0  0  0  0  0  0  0  0  0  0
   30.7887   -4.8214   23.2043 C   0  0  0  0  0  0  0  0  0  0  0  0
   31.8117   -4.2419   24.1885 C   0  0  0  0  0  0  0  0  0  0  0  0
   33.1135   -4.1440   23.5317 N   0  0  0  0  0  0  0  0  0  0  0  0
   33.6190   -2.9391   22.8714 C   0  0  0  0  0  0  0  0  0  0  0  0
   34.4502   -2.0509   23.8076 C   0  0  0  0  0  0  0  0  0  0  0  0
   34.9349   -0.7849   23.0936 C   0  0  0  0  0  0  0  0  0  0  0  0
   35.7756   -0.0090   24.0006 N   0  0  0  0  0  0  0  0  0  0  0  0
  1  2  1  0  0  0  0
  2  3  1  0  0  0  0
  3  4  1  0  0  0  0
  4  5  1  0  0  0  0
  5  6  1  0  0  0  0
  6  7  1  0  0  0  0
  7  8  1  0  0  0  0
  8  9  1  0  0  0  0
  9 10  1  0  0  0  0
 10 11  1  0  0  0  0
 11 12  1  0  0  0  0
 12 13  1  0  0  0  0
 13 14  1  0  0  0  0
M  END
>  <CHROM.1>
-176.97004561,-58.28490004,-113.16592550,-125.93318057,-174.99280995,68.06035003
157.51398150,94.76717992,92.07871416,-178.66805623,-177.08967746,30.20117585
-3.70284074,24.79258934,-3.13097614,-0.47685132,-2.43762766

>  <Name>
ligand

>  <RI>
0

>  <Rbt.Current_Directory>
/home/itssahil/PROJECTS/Mol_Feturizer/New_Systems/rnas/4FAW

>  <Rbt.Executable>
rbdock ($Id: //depot/dev/client3/rdock/2013.1/src/exe/rbdock.cxx#4 $)

>  <Rbt.Library>
libRbt.so (2013.1, Build901 2013/11/27)

>  <Rbt.Parameter_File>
/export/apps/rDock/src/rDock_2013.1_src/data/scripts/dock_solv.prm

>  <Rbt.Receptor>
prm/blind_docking_60.prm

>  <SCORE>
-13.5497

>  <SCORE.INTER>
-5.99097

>  <SCORE.INTER.CONST>
1

>  <SCORE.INTER.POLAR>
0

>  <SCORE.INTER.ROT>
11

>  <SCORE.INTER.SOLV>
13.5312

>  <SCORE.INTER.VDW>
-19.4377

>  <SCORE.INTER.norm>
-0.427926

>  <SCORE.INTRA>
-7.55875

>  <SCORE.INTRA.DIHEDRAL>
-13.2045

>  <SCORE.INTRA.DIHEDRAL.0>
19.1003

>  <SCORE.INTRA.POLAR>
0

>  <SCORE.INTRA.POLAR.0>
0

>  <SCORE.INTRA.REPUL>
0

>  <SCORE.INTRA.REPUL.0>
0

>  <SCORE.INTRA.SOLV>
-1.0092

>  <SCORE.INTRA.SOLV.lig_0>
-47.5333

>  <SCORE.INTRA.VDW>
-0.451919

>  <SCORE.INTRA.VDW.0>
-0.287413

>  <SCORE.INTRA.norm>
-0.53991

>  <SCORE.RESTR>
0

>  <SCORE.RESTR.CAVITY>
0

>  <SCORE.RESTR.norm>
0

>  <SCORE.SYSTEM>
0

>  <SCORE.SYSTEM.CONST>
0

>  <SCORE.SYSTEM.DIHEDRAL>
0

>  <SCORE.SYSTEM.SOLV>
0

>  <SCORE.SYSTEM.norm>
0

>  <SCORE.heavy>
14

>  <SCORE.norm>
-0.967837

>  <RMSD>
36.038

$$$$
ligand
 OpenBabel11021811493D
libRbt.so/2013.1/901 2013/11/27
 14 13  0  0  0  0  0  0  0  0999 V2000
   35.5243   -2.2261   24.5462 N   0  0  0  0  0  0  0  0  0  0  0  0
   34.6869   -1.6042   23.5442 C   0  0  0  0  0  0  0  0  0  0  0  0
   33.8286   -2.6880   22.8599 C   0  0  0  0  0  0  0  0  0  0  0  0
   32.8331   -3.3828   23.8018 C   0  0  0  0  0  0  0  0  0  0  0  0
   31.8274   -4.2378   23.1530 N   0  0  0  0  0  0  0  0  0  0  0  0
   30.7925   -4.9665   23.8844 C   0  0  0  0  0  0  0  0  0  0  0  0
   29.6922   -5.5104   22.9790 C   0  0  0  0  0  0  0  0  0  0  0  0
   28.6327   -4.4681   22.6068 C   0  0  0  0  0  0  0  0  0  0  0  0
   27.5971   -4.2776   23.7214 C   0  0  0  0  0  0  0  0  0  0  0  0
   28.2654   -3.7848   24.9240 N   0  0  0  0  0  0  0  0  0  0  0  0
   28.0264   -4.2992   26.2737 C   0  0  0  0  0  0  0  0  0  0  0  0
   26.6018   -4.0216   26.7733 C   0  0  0  0  0  0  0  0  0  0  0  0
   26.4330   -4.4333   28.2395 C   0  0  0  0  0  0  0  0  0  0  0  0
   25.0592   -4.1745   28.6602 N   0  0  0  0  0  0  0  0  0  0  0  0
  1  2  1  0  0  0  0
  2  3  1  0  0  0  0
  3  4  1  0  0  0  0
  4  5  1  0  0  0  0
  5  6  1  0  0  0  0
  6  7  1  0  0  0  0
  7  8  1  0  0  0  0
  8  9  1  0  0  0  0
  9 10  1  0  0  0  0
 10 11  1  0  0  0  0
 11 12  1  0  0  0  0
 12 13  1  0  0  0  0
 13 14  1  0  0  0  0
M  END
>  <CHROM.1>
64.11658062,169.05868185,-179.36454809,166.64376106,-81.27854591,-80.59868211
61.98312003,-134.91493225,-65.52075845,-173.72851972,-178.92422588,29.98567153
-3.86259590,24.71170401,-0.33238450,0.33780720,1.22135716

>  <Name>
ligand

>  <RI>
0

>  <Rbt.Current_Directory>
/home/itssahil/PROJECTS/Mol_Feturizer/New_Systems/rnas/4FAW

>  <Rbt.Executable>
rbdock ($Id: //depot/dev/client3/rdock/2013.1/src/exe/rbdock.cxx#4 $)

>  <Rbt.Library>
libRbt.so (2013.1, Build901 2013/11/27)

>  <Rbt.Parameter_File>
/export/apps/rDock/src/rDock_2013.1_src/data/scripts/dock_solv.prm

>  <Rbt.Receptor>
prm/blind_docking_60.prm

>  <SCORE>
-11.6011

>  <SCORE.INTER>
-4.44073

>  <SCORE.INTER.CONST>
1

>  <SCORE.INTER.POLAR>
0

>  <SCORE.INTER.ROT>
11

>  <SCORE.INTER.SOLV>
18.507

>  <SCORE.INTER.VDW>
-20.0628

>  <SCORE.INTER.norm>
-0.317195

>  <SCORE.INTRA>
-7.16032

>  <SCORE.INTRA.DIHEDRAL>
-14.0801

>  <SCORE.INTRA.DIHEDRAL.0>
19.1003

>  <SCORE.INTRA.POLAR>
0

>  <SCORE.INTRA.POLAR.0>
0

>  <SCORE.INTRA.REPUL>
0

>  <SCORE.INTRA.REPUL.0>
0

>  <SCORE.INTRA.SOLV>
0.74199

>  <SCORE.INTRA.SOLV.lig_0>
-47.5333

>  <SCORE.INTRA.VDW>
-0.491273

>  <SCORE.INTRA.VDW.0>
-0.287413

>  <SCORE.INTRA.norm>
-0.511452

>  <SCORE.RESTR>
0

>  <SCORE.RESTR.CAVITY>
0

>  <SCORE.RESTR.norm>
0

>  <SCORE.SYSTEM>
0

>  <SCORE.SYSTEM.CONST>
0

>  <SCORE.SYSTEM.DIHEDRAL>
0

>  <SCORE.SYSTEM.SOLV>
0

>  <SCORE.SYSTEM.norm>
0

>  <SCORE.heavy>
14

>  <SCORE.norm>
-0.828647

>  <RMSD>
36.121

$$$$
ligand
 OpenBabel11021811493D
libRbt.so/2013.1/901 2013/11/27
 14 13  0  0  0  0  0  0  0  0999 V2000
   32.8593    1.2719   35.8461 N   0  0  0  0  0  0  0  0  0  0  0  0
   32.6075    0.8779   34.4774 C   0  0  0  0  0  0  0  0  0  0  0  0
   33.6628   -0.1625   34.0491 C   0  0  0  0  0  0  0  0  0  0  0  0
   33.5331   -0.6177   32.5872 C   0  0  0  0  0  0  0  0  0  0  0  0
   33.6968    0.4340   31.5720 N   0  0  0  0  0  0  0  0  0  0  0  0
   34.9736    1.0826   31.2784 C   0  0  0  0  0  0  0  0  0  0  0  0
   35.2313    1.2440   29.7838 C   0  0  0  0  0  0  0  0  0  0  0  0
   35.3128   -0.0863   29.0279 C   0  0  0  0  0  0  0  0  0  0  0  0
   35.4374    0.1195   27.5137 C   0  0  0  0  0  0  0  0  0  0  0  0
   35.5379   -1.1812   26.8551 N   0  0  0  0  0  0  0  0  0  0  0  0
   35.7678   -1.3676   25.4213 C   0  0  0  0  0  0  0  0  0  0  0  0
   34.4943   -1.1816   24.5847 C   0  0  0  0  0  0  0  0  0  0  0  0
   34.7738   -1.3718   23.0903 C   0  0  0  0  0  0  0  0  0  0  0  0
   35.7267   -0.3602   22.6432 N   0  0  0  0  0  0  0  0  0  0  0  0
  1  2  1  0  0  0  0
  2  3  1  0  0  0  0
  3  4  1  0  0  0  0
  4  5  1  0  0  0  0
  5  6  1  0  0  0  0
  6  7  1  0  0  0  0
  7  8  1  0  0  0  0
  8  9  1  0  0  0  0
  9 10  1  0  0  0  0
 10 11  1  0  0  0  0
 11 12  1  0  0  0  0
 12 13  1  0  0  0  0
 13 14  1  0  0  0  0
M  END
>  <CHROM.1>
-177.64951579,61.59290625,70.13196258,136.30942102,-61.95478172,174.50735049
178.85620230,-175.30908032,-79.48227431,179.51380208,-62.04155228,34.54396918
-0.09284640,29.19499805,1.85559060,0.81296694,1.20224338

>  <Name>
ligand

>  <RI>
0

>  <Rbt.Current_Directory>
/home/itssahil/PROJECTS/Mol_Feturizer/New_Systems/rnas/4FAW

>  <Rbt.Executable>
rbdock ($Id: //depot/dev/client3/rdock/2013.1/src/exe/rbdock.cxx#4 $)

>  <Rbt.Library>
libRbt.so (2013.1, Build901 2013/11/27)

>  <Rbt.Parameter_File>
/export/apps/rDock/src/rDock_2013.1_src/data/scripts/dock_solv.prm

>  <Rbt.Receptor>
prm/blind_docking_60.prm

>  <SCORE>
-10.5862

>  <SCORE.INTER>
-1.18331

>  <SCORE.INTER.CONST>
1

>  <SCORE.INTER.POLAR>
0

>  <SCORE.INTER.ROT>
11

>  <SCORE.INTER.SOLV>
15.1331

>  <SCORE.INTER.VDW>
-16.7666

>  <SCORE.INTER.norm>
-0.0845219

>  <SCORE.INTRA>
-9.40293

>  <SCORE.INTRA.DIHEDRAL>
-17.5274

>  <SCORE.INTRA.DIHEDRAL.0>
19.1003

>  <SCORE.INTRA.POLAR>
0

>  <SCORE.INTRA.POLAR.0>
0

>  <SCORE.INTRA.REPUL>
0

>  <SCORE.INTRA.REPUL.0>
0

>  <SCORE.INTRA.SOLV>
0.035749

>  <SCORE.INTRA.SOLV.lig_0>
-47.5333

>  <SCORE.INTRA.VDW>
-0.657086

>  <SCORE.INTRA.VDW.0>
-0.287413

>  <SCORE.INTRA.norm>
-0.671638

>  <SCORE.RESTR>
0

>  <SCORE.RESTR.CAVITY>
0

>  <SCORE.RESTR.norm>
0

>  <SCORE.SYSTEM>
0

>  <SCORE.SYSTEM.CONST>
0

>  <SCORE.SYSTEM.DIHEDRAL>
0

>  <SCORE.SYSTEM.SOLV>
0

>  <SCORE.SYSTEM.norm>
0

>  <SCORE.heavy>
14

>  <SCORE.norm>
-0.75616

>  <RMSD>
36.123

$$$$
ligand
 OpenBabel11021811493D
libRbt.so/2013.1/901 2013/11/27
 14 13  0  0  0  0  0  0  0  0999 V2000
   31.6261    1.2421   35.5313 N   0  0  0  0  0  0  0  0  0  0  0  0
   32.5029    0.0920   35.5489 C   0  0  0  0  0  0  0  0  0  0  0  0
   33.6631    0.3263   34.5596 C   0  0  0  0  0  0  0  0  0  0  0  0
   33.2168    0.4643   33.0957 C   0  0  0  0  0  0  0  0  0  0  0  0
   34.2920    0.6844   32.1164 N   0  0  0  0  0  0  0  0  0  0  0  0
   34.1125    0.5413   30.6727 C   0  0  0  0  0  0  0  0  0  0  0  0
   35.0851    1.3925   29.8629 C   0  0  0  0  0  0  0  0  0  0  0  0
   34.9382    1.2184   28.3478 C   0  0  0  0  0  0  0  0  0  0  0  0
   35.3652   -0.1798   27.8856 C   0  0  0  0  0  0  0  0  0  0  0  0
   35.2857   -0.2531   26.4282 N   0  0  0  0  0  0  0  0  0  0  0  0
   35.6679   -1.4235   25.6361 C   0  0  0  0  0  0  0  0  0  0  0  0
   35.9755   -1.0776   24.1725 C   0  0  0  0  0  0  0  0  0  0  0  0
   34.7089   -0.6600   23.4182 C   0  0  0  0  0  0  0  0  0  0  0  0
   35.0732   -0.1795   22.0887 N   0  0  0  0  0  0  0  0  0  0  0  0
  1  2  1  0  0  0  0
  2  3  1  0  0  0  0
  3  4  1  0  0  0  0
  4  5  1  0  0  0  0
  5  6  1  0  0  0  0
  6  7  1  0  0  0  0
  7  8  1  0  0  0  0
  8  9  1  0  0  0  0
  9 10  1  0  0  0  0
 10 11  1  0  0  0  0
 11 12  1  0  0  0  0
 12 13  1  0  0  0  0
 13 14  1  0  0  0  0
M  END
>  <CHROM.1>
-63.00096220,-179.79720710,165.74541447,153.59968334,178.15188094,-67.76212633
-176.30940194,177.58895406,-158.90681102,-68.89051078,172.82653115,34.39392964
0.15617795,29.24041526,1.82222955,0.41362484,1.34965214

>  <Name>
ligand

>  <RI>
0

>  <Rbt.Current_Directory>
/home/itssahil/PROJECTS/Mol_Feturizer/New_Systems/rnas/4FAW

>  <Rbt.Executable>
rbdock ($Id: //depot/dev/client3/rdock/2013.1/src/exe/rbdock.cxx#4 $)

>  <Rbt.Library>
libRbt.so (2013.1, Build901 2013/11/27)

>  <Rbt.Parameter_File>
/export/apps/rDock/src/rDock_2013.1_src/data/scripts/dock_solv.prm

>  <Rbt.Receptor>
prm/blind_docking_60.prm

>  <SCORE>
-8.38421

>  <SCORE.INTER>
0.82322

>  <SCORE.INTER.CONST>
1

>  <SCORE.INTER.POLAR>
0

>  <SCORE.INTER.ROT>
11

>  <SCORE.INTER.SOLV>
16.2879

>  <SCORE.INTER.VDW>
-15.8138

>  <SCORE.INTER.norm>
0.0588014

>  <SCORE.INTRA>
-9.20743

>  <SCORE.INTRA.DIHEDRAL>
-17.2845

>  <SCORE.INTRA.DIHEDRAL.0>
19.1003

>  <SCORE.INTRA.POLAR>
0

>  <SCORE.INTRA.POLAR.0>
0

>  <SCORE.INTRA.REPUL>
0

>  <SCORE.INTRA.REPUL.0>
0

>  <SCORE.INTRA.SOLV>
-0.249455

>  <SCORE.INTRA.SOLV.lig_0>
-47.5333

>  <SCORE.INTRA.VDW>
-0.440475

>  <SCORE.INTRA.VDW.0>
-0.287413

>  <SCORE.INTRA.norm>
-0.657674

>  <SCORE.RESTR>
0

>  <SCORE.RESTR.CAVITY>
0

>  <SCORE.RESTR.norm>
0

>  <SCORE.SYSTEM>
0

>  <SCORE.SYSTEM.CONST>
0

>  <SCORE.SYSTEM.DIHEDRAL>
0

>  <SCORE.SYSTEM.SOLV>
0

>  <SCORE.SYSTEM.norm>
0

>  <SCORE.heavy>
14

>  <SCORE.norm>
-0.598872

>  <RMSD>
36.260

$$$$
ligand
 OpenBabel11021811493D
libRbt.so/2013.1/901 2013/11/27
 14 13  0  0  0  0  0  0  0  0999 V2000
   36.5325    1.1855   28.7282 N   0  0  0  0  0  0  0  0  0  0  0  0
   35.8508    2.2415   29.4440 C   0  0  0  0  0  0  0  0  0  0  0  0
   35.3973    1.7084   30.8187 C   0  0  0  0  0  0  0  0  0  0  0  0
   34.3815    0.5584   30.7381 C   0  0  0  0  0  0  0  0  0  0  0  0
   33.8819    0.0536   32.0262 N   0  0  0  0  0  0  0  0  0  0  0  0
   32.8144    0.6990   32.7884 C   0  0  0  0  0  0  0  0  0  0  0  0
   33.0020    0.5794   34.2973 C   0  0  0  0  0  0  0  0  0  0  0  0
   34.2919    1.2291   34.8087 C   0  0  0  0  0  0  0  0  0  0  0  0
   34.4461    1.0834   36.3273 C   0  0  0  0  0  0  0  0  0  0  0  0
   35.7432    1.6185   36.7356 N   0  0  0  0  0  0  0  0  0  0  0  0
   35.9497    2.9599   37.2846 C   0  0  0  0  0  0  0  0  0  0  0  0
   37.4289    3.2745   37.5482 C   0  0  0  0  0  0  0  0  0  0  0  0
   38.2384    3.2879   36.2473 C   0  0  0  0  0  0  0  0  0  0  0  0
   39.6450    3.5289   36.5547 N   0  0  0  0  0  0  0  0  0  0  0  0
  1  2  1  0  0  0  0
  2  3  1  0  0  0  0
  3  4  1  0  0  0  0
  4  5  1  0  0  0  0
  5  6  1  0  0  0  0
  6  7  1  0  0  0  0
  7  8  1  0  0  0  0
  8  9  1  0  0  0  0
  9 10  1  0  0  0  0
 10 11  1  0  0  0  0
 11 12  1  0  0  0  0
 12 13  1  0  0  0  0
 13 14  1  0  0  0  0
M  END
>  <CHROM.1>
-62.86993625,-177.72993820,81.11383465,-145.92554681,60.88579225,-179.79652261
175.16923658,98.22223777,-176.70220206,63.89445261,-177.38665356,35.54273515
1.71490118,33.88209611,-1.94555919,0.45644498,1.47435027

>  <Name>
ligand

>  <RI>
0

>  <Rbt.Current_Directory>
/home/itssahil/PROJECTS/Mol_Feturizer/New_Systems/rnas/4FAW

>  <Rbt.Executable>
rbdock ($Id: //depot/dev/client3/rdock/2013.1/src/exe/rbdock.cxx#4 $)

>  <Rbt.Library>
libRbt.so (2013.1, Build901 2013/11/27)

>  <Rbt.Parameter_File>
/export/apps/rDock/src/rDock_2013.1_src/data/scripts/dock_solv.prm

>  <Rbt.Receptor>
prm/blind_docking_80.prm

>  <SCORE>
-7.34475

>  <SCORE.INTER>
2.03802

>  <SCORE.INTER.CONST>
1

>  <SCORE.INTER.POLAR>
0

>  <SCORE.INTER.ROT>
11

>  <SCORE.INTER.SOLV>
9.37229

>  <SCORE.INTER.VDW>
-12.6987

>  <SCORE.INTER.norm>
0.145573

>  <SCORE.INTRA>
-9.38277

>  <SCORE.INTRA.DIHEDRAL>
-16.9587

>  <SCORE.INTRA.DIHEDRAL.0>
19.1003

>  <SCORE.INTRA.POLAR>
0

>  <SCORE.INTRA.POLAR.0>
0

>  <SCORE.INTRA.REPUL>
0

>  <SCORE.INTRA.REPUL.0>
0

>  <SCORE.INTRA.SOLV>
-0.0354405

>  <SCORE.INTRA.SOLV.lig_0>
-47.5333

>  <SCORE.INTRA.VDW>
-0.885725

>  <SCORE.INTRA.VDW.0>
-0.287413

>  <SCORE.INTRA.norm>
-0.670198

>  <SCORE.RESTR>
0

>  <SCORE.RESTR.CAVITY>
0

>  <SCORE.RESTR.norm>
0

>  <SCORE.SYSTEM>
0

>  <SCORE.SYSTEM.CONST>
0

>  <SCORE.SYSTEM.DIHEDRAL>
0

>  <SCORE.SYSTEM.SOLV>
0

>  <SCORE.SYSTEM.norm>
0

>  <SCORE.heavy>
14

>  <SCORE.norm>
-0.524625

>  <RMSD>
39.333

$$$$
ligand
 OpenBabel11021811493D
libRbt.so/2013.1/901 2013/11/27
 14 13  0  0  0  0  0  0  0  0999 V2000
   41.2037    2.3304   34.4766 N   0  0  0  0  0  0  0  0  0  0  0  0
   40.5611    3.6253   34.4274 C   0  0  0  0  0  0  0  0  0  0  0  0
   39.7678    3.8453   35.7319 C   0  0  0  0  0  0  0  0  0  0  0  0
   38.6120    2.8532   35.9344 C   0  0  0  0  0  0  0  0  0  0  0  0
   37.8140    3.0402   37.1558 N   0  0  0  0  0  0  0  0  0  0  0  0
   36.8642    4.1359   37.3411 C   0  0  0  0  0  0  0  0  0  0  0  0
   35.5882    3.9646   36.5235 C   0  0  0  0  0  0  0  0  0  0  0  0
   34.6437    5.1685   36.6006 C   0  0  0  0  0  0  0  0  0  0  0  0
   33.3462    4.9325   35.8185 C   0  0  0  0  0  0  0  0  0  0  0  0
   33.6657    4.6863   34.4139 N   0  0  0  0  0  0  0  0  0  0  0  0
   33.1590    3.5545   33.6356 C   0  0  0  0  0  0  0  0  0  0  0  0
   33.8696    2.2357   33.9704 C   0  0  0  0  0  0  0  0  0  0  0  0
   33.3071    1.0724   33.1471 C   0  0  0  0  0  0  0  0  0  0  0  0
   34.0155   -0.1554   33.4964 N   0  0  0  0  0  0  0  0  0  0  0  0
  1  2  1  0  0  0  0
  2  3  1  0  0  0  0
  3  4  1  0  0  0  0
  4  5  1  0  0  0  0
  5  6  1  0  0  0  0
  6  7  1  0  0  0  0
  7  8  1  0  0  0  0
  8  9  1  0  0  0  0
  9 10  1  0  0  0  0
 10 11  1  0  0  0  0
 11 12  1  0  0  0  0
 12 13  1  0  0  0  0
 13 14  1  0  0  0  0
M  END
>  <CHROM.1>
-63.79120593,-179.03055843,72.98927177,73.17078627,-174.36075404,-177.40995475
-59.81937803,129.56963826,-76.05824869,179.52991966,179.80611404,36.17248259
3.23527196,35.19107349,-0.16500777,0.10712293,-2.43509722

>  <Name>
ligand

>  <RI>
0

>  <Rbt.Current_Directory>
/home/itssahil/PROJECTS/Mol_Feturizer/New_Systems/rnas/4FAW

>  <Rbt.Executable>
rbdock ($Id: //depot/dev/client3/rdock/2013.1/src/exe/rbdock.cxx#4 $)

>  <Rbt.Library>
libRbt.so (2013.1, Build901 2013/11/27)

>  <Rbt.Parameter_File>
/export/apps/rDock/src/rDock_2013.1_src/data/scripts/dock_solv.prm

>  <Rbt.Receptor>
prm/blind_docking_60.prm

>  <SCORE>
-8.99987

>  <SCORE.INTER>
0.469984

>  <SCORE.INTER.CONST>
1

>  <SCORE.INTER.POLAR>
0

>  <SCORE.INTER.ROT>
11

>  <SCORE.INTER.SOLV>
10.4225

>  <SCORE.INTER.VDW>
-14.0942

>  <SCORE.INTER.norm>
0.0335703

>  <SCORE.INTRA>
-9.46985

>  <SCORE.INTRA.DIHEDRAL>
-17.2972

>  <SCORE.INTRA.DIHEDRAL.0>
19.1003

>  <SCORE.INTRA.POLAR>
0

>  <SCORE.INTRA.POLAR.0>
0

>  <SCORE.INTRA.REPUL>
0

>  <SCORE.INTRA.REPUL.0>
0

>  <SCORE.INTRA.SOLV>
-0.367591

>  <SCORE.INTRA.SOLV.lig_0>
-47.5333

>  <SCORE.INTRA.VDW>
-0.637454

>  <SCORE.INTRA.VDW.0>
-0.287413

>  <SCORE.INTRA.norm>
-0.676418

>  <SCORE.RESTR>
0

>  <SCORE.RESTR.CAVITY>
0

>  <SCORE.RESTR.norm>
0

>  <SCORE.SYSTEM>
0

>  <SCORE.SYSTEM.CONST>
0

>  <SCORE.SYSTEM.DIHEDRAL>
0

>  <SCORE.SYSTEM.SOLV>
0

>  <SCORE.SYSTEM.norm>
0

>  <SCORE.heavy>
14

>  <SCORE.norm>
-0.642848

>  <RMSD>
40.137

$$$$
ligand
 OpenBabel11021811493D
libRbt.so/2013.1/901 2013/11/27
 14 13  0  0  0  0  0  0  0  0999 V2000
   17.2154   12.4157   14.6356 N   0  0  0  0  0  0  0  0  0  0  0  0
   18.2696   13.2826   15.1145 C   0  0  0  0  0  0  0  0  0  0  0  0
   18.5750   12.9400   16.5872 C   0  0  0  0  0  0  0  0  0  0  0  0
   19.6070   13.8704   17.2433 C   0  0  0  0  0  0  0  0  0  0  0  0
   20.9424   13.8818   16.6267 N   0  0  0  0  0  0  0  0  0  0  0  0
   21.9269   14.9391   16.8498 C   0  0  0  0  0  0  0  0  0  0  0  0
   21.4952   16.2866   16.2803 C   0  0  0  0  0  0  0  0  0  0  0  0
   22.5506   17.3861   16.4383 C   0  0  0  0  0  0  0  0  0  0  0  0
   22.0381   18.7484   15.9564 C   0  0  0  0  0  0  0  0  0  0  0  0
   21.6357   18.6462   14.5553 N   0  0  0  0  0  0  0  0  0  0  0  0
   21.1876   19.7753   13.7381 C   0  0  0  0  0  0  0  0  0  0  0  0
   19.7790   20.2582   14.1106 C   0  0  0  0  0  0  0  0  0  0  0  0
   19.7768   20.9931   15.4551 C   0  0  0  0  0  0  0  0  0  0  0  0
   18.4131   21.3975   15.7838 N   0  0  0  0  0  0  0  0  0  0  0  0
  1  2  1  0  0  0  0
  2  3  1  0  0  0  0
  3  4  1  0  0  0  0
  4  5  1  0  0  0  0
  5  6  1  0  0  0  0
  6  7  1  0  0  0  0
  7  8  1  0  0  0  0
  8  9  1  0  0  0  0
  9 10  1  0  0  0  0
 10 11  1  0  0  0  0
 11 12  1  0  0  0  0
 12 13  1  0  0  0  0
 13 14  1  0  0  0  0
M  END
>  <CHROM.1>
-175.50101116,-60.98083952,162.32216303,-66.14698150,-176.81059418,-175.44101375
-58.04543213,-175.39239231,-73.06287935,72.28092157,-178.35807803,20.24402614
16.77300734,15.66974466,1.77000579,0.32445258,2.93020719

>  <Name>
ligand

>  <RI>
0

>  <Rbt.Current_Directory>
/home/itssahil/PROJECTS/Mol_Feturizer/New_Systems/rnas/4FAW

>  <Rbt.Executable>
rbdock ($Id: //depot/dev/client3/rdock/2013.1/src/exe/rbdock.cxx#4 $)

>  <Rbt.Library>
libRbt.so (2013.1, Build901 2013/11/27)

>  <Rbt.Parameter_File>
/export/apps/rDock/src/rDock_2013.1_src/data/scripts/dock_solv.prm

>  <Rbt.Receptor>
prm/blind_docking_40.prm

>  <SCORE>
-8.7876

>  <SCORE.INTER>
0.630515

>  <SCORE.INTER.CONST>
1

>  <SCORE.INTER.POLAR>
0

>  <SCORE.INTER.ROT>
11

>  <SCORE.INTER.SOLV>
9.63824

>  <SCORE.INTER.VDW>
-13.7257

>  <SCORE.INTER.norm>
0.0450368

>  <SCORE.INTRA>
-9.41812

>  <SCORE.INTRA.DIHEDRAL>
-17.8971

>  <SCORE.INTRA.DIHEDRAL.0>
19.1003

>  <SCORE.INTRA.POLAR>
0

>  <SCORE.INTRA.POLAR.0>
0

>  <SCORE.INTRA.REPUL>
0

>  <SCORE.INTRA.REPUL.0>
0

>  <SCORE.INTRA.SOLV>
-0.299577

>  <SCORE.INTRA.SOLV.lig_0>
-47.5333

>  <SCORE.INTRA.VDW>
-0.319771

>  <SCORE.INTRA.VDW.0>
-0.287413

>  <SCORE.INTRA.norm>
-0.672723

>  <SCORE.RESTR>
0

>  <SCORE.RESTR.CAVITY>
0

>  <SCORE.RESTR.norm>
0

>  <SCORE.SYSTEM>
0

>  <SCORE.SYSTEM.CONST>
0

>  <SCORE.SYSTEM.DIHEDRAL>
0

>  <SCORE.SYSTEM.SOLV>
0

>  <SCORE.SYSTEM.norm>
0

>  <SCORE.heavy>
14

>  <SCORE.norm>
-0.627686

>  <RMSD>
41.460

$$$$
ligand
 OpenBabel11021811493D
libRbt.so/2013.1/901 2013/11/27
 14 13  0  0  0  0  0  0  0  0999 V2000
   22.6931   -2.1193   31.8905 N   0  0  0  0  0  0  0  0  0  0  0  0
   23.9540   -1.7689   31.2746 C   0  0  0  0  0  0  0  0  0  0  0  0
   24.1485   -2.6198   30.0027 C   0  0  0  0  0  0  0  0  0  0  0  0
   24.3115   -4.1230   30.2764 C   0  0  0  0  0  0  0  0  0  0  0  0
   24.3421   -4.9905   29.0889 N   0  0  0  0  0  0  0  0  0  0  0  0
   25.5682   -5.3375   28.3725 C   0  0  0  0  0  0  0  0  0  0  0  0
   26.3714   -4.1160   27.9375 C   0  0  0  0  0  0  0  0  0  0  0  0
   27.4832   -4.4383   26.9338 C   0  0  0  0  0  0  0  0  0  0  0  0
   26.9227   -4.8378   25.5637 C   0  0  0  0  0  0  0  0  0  0  0  0
   26.0941   -3.7519   25.0443 N   0  0  0  0  0  0  0  0  0  0  0  0
   25.5731   -3.6890   23.6775 C   0  0  0  0  0  0  0  0  0  0  0  0
   24.0716   -3.9980   23.5976 C   0  0  0  0  0  0  0  0  0  0  0  0
   23.2433   -2.9440   24.3396 C   0  0  0  0  0  0  0  0  0  0  0  0
   21.8253   -3.2704   24.2204 N   0  0  0  0  0  0  0  0  0  0  0  0
  1  2  1  0  0  0  0
  2  3  1  0  0  0  0
  3  4  1  0  0  0  0
  4  5  1  0  0  0  0
  5  6  1  0  0  0  0
  6  7  1  0  0  0  0
  7  8  1  0  0  0  0
  8  9  1  0  0  0  0
  9 10  1  0  0  0  0
 10 11  1  0  0  0  0
 11 12  1  0  0  0  0
 12 13  1  0  0  0  0
 13 14  1  0  0  0  0
M  END
>  <CHROM.1>
-65.84550932,173.13450179,89.46979802,-54.27431878,-167.39371295,69.56629013
58.34035437,169.75438186,105.57584586,64.31775592,179.24853525,24.75771624
-3.71467334,27.30132501,1.72252299,-0.43712849,1.49528657

>  <Name>
ligand

>  <RI>
0

>  <Rbt.Current_Directory>
/home/itssahil/PROJECTS/Mol_Feturizer/New_Systems/rnas/4FAW

>  <Rbt.Executable>
rbdock ($Id: //depot/dev/client3/rdock/2013.1/src/exe/rbdock.cxx#4 $)

>  <Rbt.Library>
libRbt.so (2013.1, Build901 2013/11/27)

>  <Rbt.Parameter_File>
/export/apps/rDock/src/rDock_2013.1_src/data/scripts/dock_solv.prm

>  <Rbt.Receptor>
prm/blind_docking_100.prm

>  <SCORE>
-11.1576

>  <SCORE.INTER>
-3.31652

>  <SCORE.INTER.CONST>
1

>  <SCORE.INTER.POLAR>
0

>  <SCORE.INTER.ROT>
11

>  <SCORE.INTER.SOLV>
9.15505

>  <SCORE.INTER.VDW>
-16.196

>  <SCORE.INTER.norm>
-0.236894

>  <SCORE.INTRA>
-7.84109

>  <SCORE.INTRA.DIHEDRAL>
-16.026

>  <SCORE.INTRA.DIHEDRAL.0>
19.1003

>  <SCORE.INTRA.POLAR>
0

>  <SCORE.INTRA.POLAR.0>
0

>  <SCORE.INTRA.REPUL>
0

>  <SCORE.INTRA.REPUL.0>
0

>  <SCORE.INTRA.SOLV>
0.332008

>  <SCORE.INTRA.SOLV.lig_0>
-47.5333

>  <SCORE.INTRA.VDW>
0.00589325

>  <SCORE.INTRA.VDW.0>
-0.287413

>  <SCORE.INTRA.norm>
-0.560078

>  <SCORE.RESTR>
0

>  <SCORE.RESTR.CAVITY>
0

>  <SCORE.RESTR.norm>
0

>  <SCORE.SYSTEM>
0

>  <SCORE.SYSTEM.CONST>
0

>  <SCORE.SYSTEM.DIHEDRAL>
0

>  <SCORE.SYSTEM.SOLV>
0

>  <SCORE.SYSTEM.norm>
0

>  <SCORE.heavy>
14

>  <SCORE.norm>
-0.796972

>  <RMSD>
41.495

$$$$
ligand
 OpenBabel11021811493D
libRbt.so/2013.1/901 2013/11/27
 14 13  0  0  0  0  0  0  0  0999 V2000
   29.1332   -4.7221   22.8363 N   0  0  0  0  0  0  0  0  0  0  0  0
   28.8152   -5.2493   24.1451 C   0  0  0  0  0  0  0  0  0  0  0  0
   28.8636   -4.1033   25.1765 C   0  0  0  0  0  0  0  0  0  0  0  0
   28.4679   -4.5271   26.5995 C   0  0  0  0  0  0  0  0  0  0  0  0
   27.1027   -5.0518   26.7552 N   0  0  0  0  0  0  0  0  0  0  0  0
   25.9017   -4.2252   26.6487 C   0  0  0  0  0  0  0  0  0  0  0  0
   25.5631   -3.4945   27.9440 C   0  0  0  0  0  0  0  0  0  0  0  0
   25.0513   -4.4184   29.0539 C   0  0  0  0  0  0  0  0  0  0  0  0
   23.6382   -4.9379   28.7635 C   0  0  0  0  0  0  0  0  0  0  0  0
   22.9840   -5.2903   30.0219 N   0  0  0  0  0  0  0  0  0  0  0  0
   23.0392   -6.6160   30.6408 C   0  0  0  0  0  0  0  0  0  0  0  0
   22.5366   -6.6176   32.0912 C   0  0  0  0  0  0  0  0  0  0  0  0
   22.6032   -8.0200   32.7048 C   0  0  0  0  0  0  0  0  0  0  0  0
   21.9897   -7.9988   34.0293 N   0  0  0  0  0  0  0  0  0  0  0  0
  1  2  1  0  0  0  0
  2  3  1  0  0  0  0
  3  4  1  0  0  0  0
  4  5  1  0  0  0  0
  5  6  1  0  0  0  0
  6  7  1  0  0  0  0
  7  8  1  0  0  0  0
  8  9  1  0  0  0  0
  9 10  1  0  0  0  0
 10 11  1  0  0  0  0
 11 12  1  0  0  0  0
 12 13  1  0  0  0  0
 13 14  1  0  0  0  0
M  END
>  <CHROM.1>
176.89232376,-60.88469313,-70.30395032,-83.15347457,-70.88575479,-71.55530969
-155.27811539,-90.34853141,167.11716607,179.77644393,-174.19240248,25.40645013
-5.37643928,28.38646998,-0.66712011,-0.69719775,2.57650000

>  <Name>
ligand

>  <RI>
0

>  <Rbt.Current_Directory>
/home/itssahil/PROJECTS/Mol_Feturizer/New_Systems/rnas/4FAW

>  <Rbt.Executable>
rbdock ($Id: //depot/dev/client3/rdock/2013.1/src/exe/rbdock.cxx#4 $)

>  <Rbt.Library>
libRbt.so (2013.1, Build901 2013/11/27)

>  <Rbt.Parameter_File>
/export/apps/rDock/src/rDock_2013.1_src/data/scripts/dock_solv.prm

>  <Rbt.Receptor>
prm/blind_docking_80.prm

>  <SCORE>
-10.1623

>  <SCORE.INTER>
-1.98615

>  <SCORE.INTER.CONST>
1

>  <SCORE.INTER.POLAR>
0

>  <SCORE.INTER.ROT>
11

>  <SCORE.INTER.SOLV>
12.9329

>  <SCORE.INTER.VDW>
-16.5684

>  <SCORE.INTER.norm>
-0.141868

>  <SCORE.INTRA>
-8.17615

>  <SCORE.INTRA.DIHEDRAL>
-14.7306

>  <SCORE.INTRA.DIHEDRAL.0>
19.1003

>  <SCORE.INTRA.POLAR>
0

>  <SCORE.INTRA.POLAR.0>
0

>  <SCORE.INTRA.REPUL>
0

>  <SCORE.INTRA.REPUL.0>
0

>  <SCORE.INTRA.SOLV>
-0.630798

>  <SCORE.INTRA.SOLV.lig_0>
-47.5333

>  <SCORE.INTRA.VDW>
-0.495454

>  <SCORE.INTRA.VDW.0>
-0.287413

>  <SCORE.INTRA.norm>
-0.584011

>  <SCORE.RESTR>
0

>  <SCORE.RESTR.CAVITY>
0

>  <SCORE.RESTR.norm>
0

>  <SCORE.SYSTEM>
0

>  <SCORE.SYSTEM.CONST>
0

>  <SCORE.SYSTEM.DIHEDRAL>
0

>  <SCORE.SYSTEM.SOLV>
0

>  <SCORE.SYSTEM.norm>
0

>  <SCORE.heavy>
14

>  <SCORE.norm>
-0.725879

>  <RMSD>
42.175

$$$$
ligand
 OpenBabel11021811493D
libRbt.so/2013.1/901 2013/11/27
 14 13  0  0  0  0  0  0  0  0999 V2000
   14.6069   13.7311    6.7440 N   0  0  0  0  0  0  0  0  0  0  0  0
   14.4630   12.8726    7.8992 C   0  0  0  0  0  0  0  0  0  0  0  0
   15.8386   12.2736    8.2577 C   0  0  0  0  0  0  0  0  0  0  0  0
   15.8146   11.3424    9.4797 C   0  0  0  0  0  0  0  0  0  0  0  0
   15.3133   11.9369   10.7282 N   0  0  0  0  0  0  0  0  0  0  0  0
   15.8739   11.6429   12.0459 C   0  0  0  0  0  0  0  0  0  0  0  0
   15.3073   12.5323   13.1478 C   0  0  0  0  0  0  0  0  0  0  0  0
   15.9149   12.2618   14.5280 C   0  0  0  0  0  0  0  0  0  0  0  0
   15.2810   13.1358   15.6166 C   0  0  0  0  0  0  0  0  0  0  0  0
   15.9735   12.9093   16.8834 N   0  0  0  0  0  0  0  0  0  0  0  0
   17.1933   13.6059   17.2963 C   0  0  0  0  0  0  0  0  0  0  0  0
   18.4548   13.0482   16.6227 C   0  0  0  0  0  0  0  0  0  0  0  0
   19.7062   13.8215   17.0512 C   0  0  0  0  0  0  0  0  0  0  0  0
   19.6330   15.1853   16.5355 N   0  0  0  0  0  0  0  0  0  0  0  0
  1  2  1  0  0  0  0
  2  3  1  0  0  0  0
  3  4  1  0  0  0  0
  4  5  1  0  0  0  0
  5  6  1  0  0  0  0
  6  7  1  0  0  0  0
  7  8  1  0  0  0  0
  8  9  1  0  0  0  0
  9 10  1  0  0  0  0
 10 11  1  0  0  0  0
 11 12  1  0  0  0  0
 12 13  1  0  0  0  0
 13 14  1  0  0  0  0
M  END
>  <CHROM.1>
179.77678917,-57.62395885,-142.11725199,171.92377245,-178.37325858,-177.74381738
-175.49753834,85.55906673,-78.30882106,178.62421711,-66.74534920,16.38387462
12.87830011,13.05986737,-1.94537503,0.48372477,1.62100157

>  <Name>
ligand

>  <RI>
0

>  <Rbt.Current_Directory>
/home/itssahil/PROJECTS/Mol_Feturizer/New_Systems/rnas/4FAW

>  <Rbt.Executable>
rbdock ($Id: //depot/dev/client3/rdock/2013.1/src/exe/rbdock.cxx#4 $)

>  <Rbt.Library>
libRbt.so (2013.1, Build901 2013/11/27)

>  <Rbt.Parameter_File>
/export/apps/rDock/src/rDock_2013.1_src/data/scripts/dock_solv.prm

>  <Rbt.Receptor>
prm/blind_docking_40.prm

>  <SCORE>
-9.03723

>  <SCORE.INTER>
0.471712

>  <SCORE.INTER.CONST>
1

>  <SCORE.INTER.POLAR>
0

>  <SCORE.INTER.ROT>
11

>  <SCORE.INTER.SOLV>
15.4102

>  <SCORE.INTER.VDW>
-15.7556

>  <SCORE.INTER.norm>
0.0336937

>  <SCORE.INTRA>
-9.50894

>  <SCORE.INTRA.DIHEDRAL>
-17.1831

>  <SCORE.INTRA.DIHEDRAL.0>
19.1003

>  <SCORE.INTRA.POLAR>
0

>  <SCORE.INTRA.POLAR.0>
0

>  <SCORE.INTRA.REPUL>
0

>  <SCORE.INTRA.REPUL.0>
0

>  <SCORE.INTRA.SOLV>
-0.423567

>  <SCORE.INTRA.SOLV.lig_0>
-47.5333

>  <SCORE.INTRA.VDW>
-0.705593

>  <SCORE.INTRA.VDW.0>
-0.287413

>  <SCORE.INTRA.norm>
-0.67921

>  <SCORE.RESTR>
0

>  <SCORE.RESTR.CAVITY>
0

>  <SCORE.RESTR.norm>
0

>  <SCORE.SYSTEM>
0

>  <SCORE.SYSTEM.CONST>
0

>  <SCORE.SYSTEM.DIHEDRAL>
0

>  <SCORE.SYSTEM.SOLV>
0

>  <SCORE.SYSTEM.norm>
0

>  <SCORE.heavy>
14

>  <SCORE.norm>
-0.645517

>  <RMSD>
42.619

$$$$
ligand
 OpenBabel11021811493D
libRbt.so/2013.1/901 2013/11/27
 14 13  0  0  0  0  0  0  0  0999 V2000
   19.9123   22.9526   14.3270 N   0  0  0  0  0  0  0  0  0  0  0  0
   18.4902   22.6985   14.3995 C   0  0  0  0  0  0  0  0  0  0  0  0
   18.0998   22.4284   15.8672 C   0  0  0  0  0  0  0  0  0  0  0  0
   18.7589   21.1772   16.4683 C   0  0  0  0  0  0  0  0  0  0  0  0
   18.3495   19.8926   15.8804 N   0  0  0  0  0  0  0  0  0  0  0  0
   19.0311   18.6273   16.1477 C   0  0  0  0  0  0  0  0  0  0  0  0
   18.1659   17.4079   15.8464 C   0  0  0  0  0  0  0  0  0  0  0  0
   18.7456   16.0959   16.3851 C   0  0  0  0  0  0  0  0  0  0  0  0
   17.7437   14.9398   16.2829 C   0  0  0  0  0  0  0  0  0  0  0  0
   18.3053   13.7543   16.9270 N   0  0  0  0  0  0  0  0  0  0  0  0
   18.8572   12.6045   16.2080 C   0  0  0  0  0  0  0  0  0  0  0  0
   17.7974   11.8422   15.4006 C   0  0  0  0  0  0  0  0  0  0  0  0
   18.4024   10.6267   14.6905 C   0  0  0  0  0  0  0  0  0  0  0  0
   17.3707    9.9669   13.8959 N   0  0  0  0  0  0  0  0  0  0  0  0
  1  2  1  0  0  0  0
  2  3  1  0  0  0  0
  3  4  1  0  0  0  0
  4  5  1  0  0  0  0
  5  6  1  0  0  0  0
  6  7  1  0  0  0  0
  7  8  1  0  0  0  0
  8  9  1  0  0  0  0
  9 10  1  0  0  0  0
 10 11  1  0  0  0  0
 11 12  1  0  0  0  0
 12 13  1  0  0  0  0
 13 14  1  0  0  0  0
M  END
>  <CHROM.1>
-62.99878050,-66.06200134,168.70175721,159.61373582,-168.10670854,169.98823414
-174.58247005,-104.22810276,-65.62347668,-178.56735957,-177.77361897,18.43067372
16.78683261,15.62347406,0.24931289,-1.49570630,-1.31231681

>  <Name>
ligand

>  <RI>
0

>  <Rbt.Current_Directory>
/home/itssahil/PROJECTS/Mol_Feturizer/New_Systems/rnas/4FAW

>  <Rbt.Executable>
rbdock ($Id: //depot/dev/client3/rdock/2013.1/src/exe/rbdock.cxx#4 $)

>  <Rbt.Library>
libRbt.so (2013.1, Build901 2013/11/27)

>  <Rbt.Parameter_File>
/export/apps/rDock/src/rDock_2013.1_src/data/scripts/dock_solv.prm

>  <Rbt.Receptor>
prm/blind_docking_40.prm

>  <SCORE>
-9.5153

>  <SCORE.INTER>
-0.704228

>  <SCORE.INTER.CONST>
1

>  <SCORE.INTER.POLAR>
0

>  <SCORE.INTER.ROT>
11

>  <SCORE.INTER.SOLV>
12.9352

>  <SCORE.INTER.VDW>
-15.7145

>  <SCORE.INTER.norm>
-0.050302

>  <SCORE.INTRA>
-8.81107

>  <SCORE.INTRA.DIHEDRAL>
-16.4176

>  <SCORE.INTRA.DIHEDRAL.0>
19.1003

>  <SCORE.INTRA.POLAR>
0

>  <SCORE.INTRA.POLAR.0>
0

>  <SCORE.INTRA.REPUL>
0

>  <SCORE.INTRA.REPUL.0>
0

>  <SCORE.INTRA.SOLV>
0.122492

>  <SCORE.INTRA.SOLV.lig_0>
-47.5333

>  <SCORE.INTRA.VDW>
-0.663513

>  <SCORE.INTRA.VDW.0>
-0.287413

>  <SCORE.INTRA.norm>
-0.629362

>  <SCORE.RESTR>
0

>  <SCORE.RESTR.CAVITY>
0

>  <SCORE.RESTR.norm>
0

>  <SCORE.SYSTEM>
0

>  <SCORE.SYSTEM.CONST>
0

>  <SCORE.SYSTEM.DIHEDRAL>
0

>  <SCORE.SYSTEM.SOLV>
0

>  <SCORE.SYSTEM.norm>
0

>  <SCORE.heavy>
14

>  <SCORE.norm>
-0.679664

>  <RMSD>
43.046

$$$$
ligand
 OpenBabel11021811493D
libRbt.so/2013.1/901 2013/11/27
 14 13  0  0  0  0  0  0  0  0999 V2000
   19.9895   23.0415   13.5636 N   0  0  0  0  0  0  0  0  0  0  0  0
   18.9942   22.5202   14.4746 C   0  0  0  0  0  0  0  0  0  0  0  0
   19.6950   22.0135   15.7520 C   0  0  0  0  0  0  0  0  0  0  0  0
   18.7453   21.3583   16.7668 C   0  0  0  0  0  0  0  0  0  0  0  0
   18.0217   20.1690   16.2917 N   0  0  0  0  0  0  0  0  0  0  0  0
   18.6691   19.0435   15.6200 C   0  0  0  0  0  0  0  0  0  0  0  0
   17.8511   17.7579   15.6867 C   0  0  0  0  0  0  0  0  0  0  0  0
   18.4250   16.6206   14.8355 C   0  0  0  0  0  0  0  0  0  0  0  0
   17.6949   15.2947   15.0799 C   0  0  0  0  0  0  0  0  0  0  0  0
   18.0352   14.7926   16.4095 N   0  0  0  0  0  0  0  0  0  0  0  0
   17.4445   13.6004   17.0204 C   0  0  0  0  0  0  0  0  0  0  0  0
   17.5431   12.3597   16.1220 C   0  0  0  0  0  0  0  0  0  0  0  0
   19.0024   11.9914   15.8347 C   0  0  0  0  0  0  0  0  0  0  0  0
   19.5644   12.9453   14.8831 N   0  0  0  0  0  0  0  0  0  0  0  0
  1  2  1  0  0  0  0
  2  3  1  0  0  0  0
  3  4  1  0  0  0  0
  4  5  1  0  0  0  0
  5  6  1  0  0  0  0
  6  7  1  0  0  0  0
  7  8  1  0  0  0  0
  8  9  1  0  0  0  0
  9 10  1  0  0  0  0
 10 11  1  0  0  0  0
 11 12  1  0  0  0  0
 12 13  1  0  0  0  0
 13 14  1  0  0  0  0
M  END
>  <CHROM.1>
-176.61686852,60.72543930,49.23820732,158.78592003,172.47166991,171.95865353
-70.82329016,175.24096016,52.82544363,61.57531699,-73.93427196,18.54808385
17.39332273,15.59588562,-1.38519490,-0.97469403,-3.07353064

>  <Name>
ligand

>  <RI>
0

>  <Rbt.Current_Directory>
/home/itssahil/PROJECTS/Mol_Feturizer/New_Systems/rnas/4FAW

>  <Rbt.Executable>
rbdock ($Id: //depot/dev/client3/rdock/2013.1/src/exe/rbdock.cxx#4 $)

>  <Rbt.Library>
libRbt.so (2013.1, Build901 2013/11/27)

>  <Rbt.Parameter_File>
/export/apps/rDock/src/rDock_2013.1_src/data/scripts/dock_solv.prm

>  <Rbt.Receptor>
prm/blind_docking_40.prm

>  <SCORE>
-8.55382

>  <SCORE.INTER>
-1.73518

>  <SCORE.INTER.CONST>
1

>  <SCORE.INTER.POLAR>
0

>  <SCORE.INTER.ROT>
11

>  <SCORE.INTER.SOLV>
14.2776

>  <SCORE.INTER.VDW>
-16.8493

>  <SCORE.INTER.norm>
-0.123942

>  <SCORE.INTRA>
-6.81864

>  <SCORE.INTRA.DIHEDRAL>
-16.9461

>  <SCORE.INTRA.DIHEDRAL.0>
19.1003

>  <SCORE.INTRA.POLAR>
0

>  <SCORE.INTRA.POLAR.0>
0

>  <SCORE.INTRA.REPUL>
0

>  <SCORE.INTRA.REPUL.0>
0

>  <SCORE.INTRA.SOLV>
3.47971

>  <SCORE.INTRA.SOLV.lig_0>
-47.5333

>  <SCORE.INTRA.VDW>
-0.0854539

>  <SCORE.INTRA.VDW.0>
-0.287413

>  <SCORE.INTRA.norm>
-0.487045

>  <SCORE.RESTR>
0

>  <SCORE.RESTR.CAVITY>
0

>  <SCORE.RESTR.norm>
0

>  <SCORE.SYSTEM>
0

>  <SCORE.SYSTEM.CONST>
0

>  <SCORE.SYSTEM.DIHEDRAL>
0

>  <SCORE.SYSTEM.SOLV>
0

>  <SCORE.SYSTEM.norm>
0

>  <SCORE.heavy>
14

>  <SCORE.norm>
-0.610987

>  <RMSD>
43.106

$$$$
ligand
 OpenBabel11021811493D
libRbt.so/2013.1/901 2013/11/27
 14 13  0  0  0  0  0  0  0  0999 V2000
   18.8364   17.6667   15.5449 N   0  0  0  0  0  0  0  0  0  0  0  0
   18.9662   16.5335   16.4344 C   0  0  0  0  0  0  0  0  0  0  0  0
   20.2914   15.8040   16.1327 C   0  0  0  0  0  0  0  0  0  0  0  0
   20.6042   14.6521   17.1005 C   0  0  0  0  0  0  0  0  0  0  0  0
   19.5363   13.6561   17.2769 N   0  0  0  0  0  0  0  0  0  0  0  0
   18.9983   12.8456   16.1858 C   0  0  0  0  0  0  0  0  0  0  0  0
   17.6861   13.3889   15.6296 C   0  0  0  0  0  0  0  0  0  0  0  0
   17.1361   12.5775   14.4520 C   0  0  0  0  0  0  0  0  0  0  0  0
   15.8386   13.1769   13.8969 C   0  0  0  0  0  0  0  0  0  0  0  0
   14.7664   12.9988   14.8738 N   0  0  0  0  0  0  0  0  0  0  0  0
   13.3565   13.3009   14.6200 C   0  0  0  0  0  0  0  0  0  0  0  0
   12.4121   12.6212   15.6211 C   0  0  0  0  0  0  0  0  0  0  0  0
   12.7180   13.0513   17.0595 C   0  0  0  0  0  0  0  0  0  0  0  0
   11.8876   12.2826   17.9819 N   0  0  0  0  0  0  0  0  0  0  0  0
  1  2  1  0  0  0  0
  2  3  1  0  0  0  0
  3  4  1  0  0  0  0
  4  5  1  0  0  0  0
  5  6  1  0  0  0  0
  6  7  1  0  0  0  0
  7  8  1  0  0  0  0
  8  9  1  0  0  0  0
  9 10  1  0  0  0  0
 10 11  1  0  0  0  0
 11 12  1  0  0  0  0
 12 13  1  0  0  0  0
 13 14  1  0  0  0  0
M  END
>  <CHROM.1>
174.79653300,52.23438222,60.41812270,-99.24469130,177.93951089,-178.41503287
-69.24064478,-172.22456374,161.75695169,59.23866706,-174.42297203,16.64544417
13.89675306,15.91479261,0.36433700,0.05610871,0.25121307

>  <Name>
ligand

>  <RI>
0

>  <Rbt.Current_Directory>
/home/itssahil/PROJECTS/Mol_Feturizer/New_Systems/rnas/4FAW

>  <Rbt.Executable>
rbdock ($Id: //depot/dev/client3/rdock/2013.1/src/exe/rbdock.cxx#4 $)

>  <Rbt.Library>
libRbt.so (2013.1, Build901 2013/11/27)

>  <Rbt.Parameter_File>
/export/apps/rDock/src/rDock_2013.1_src/data/scripts/dock_solv.prm

>  <Rbt.Receptor>
prm/blind_docking_80.prm

>  <SCORE>
-9.04882

>  <SCORE.INTER>
0.478585

>  <SCORE.INTER.CONST>
1

>  <SCORE.INTER.POLAR>
0

>  <SCORE.INTER.ROT>
11

>  <SCORE.INTER.SOLV>
15.5507

>  <SCORE.INTER.VDW>
-15.7978

>  <SCORE.INTER.norm>
0.0341846

>  <SCORE.INTRA>
-9.5274

>  <SCORE.INTRA.DIHEDRAL>
-17.1291

>  <SCORE.INTRA.DIHEDRAL.0>
19.1003

>  <SCORE.INTRA.POLAR>
0

>  <SCORE.INTRA.POLAR.0>
0

>  <SCORE.INTRA.REPUL>
0

>  <SCORE.INTRA.REPUL.0>
0

>  <SCORE.INTRA.SOLV>
-0.143149

>  <SCORE.INTRA.SOLV.lig_0>
-47.5333

>  <SCORE.INTRA.VDW>
-0.891255

>  <SCORE.INTRA.VDW.0>
-0.287413

>  <SCORE.INTRA.norm>
-0.680529

>  <SCORE.RESTR>
0

>  <SCORE.RESTR.CAVITY>
0

>  <SCORE.RESTR.norm>
0

>  <SCORE.SYSTEM>
0

>  <SCORE.SYSTEM.CONST>
0

>  <SCORE.SYSTEM.DIHEDRAL>
0

>  <SCORE.SYSTEM.SOLV>
0

>  <SCORE.SYSTEM.norm>
0

>  <SCORE.heavy>
14

>  <SCORE.norm>
-0.646344

>  <RMSD>
43.697

$$$$
ligand
 OpenBabel11021811493D
libRbt.so/2013.1/901 2013/11/27
 14 13  0  0  0  0  0  0  0  0999 V2000
   12.9509   12.8275   17.1304 N   0  0  0  0  0  0  0  0  0  0  0  0
   12.4523   12.5376   15.8039 C   0  0  0  0  0  0  0  0  0  0  0  0
   13.0820   13.5258   14.8007 C   0  0  0  0  0  0  0  0  0  0  0  0
   14.5728   13.2729   14.5276 C   0  0  0  0  0  0  0  0  0  0  0  0
   15.4649   13.3827   15.6920 N   0  0  0  0  0  0  0  0  0  0  0  0
   16.8893   13.6960   15.5926 C   0  0  0  0  0  0  0  0  0  0  0  0
   17.6983   13.1789   16.7777 C   0  0  0  0  0  0  0  0  0  0  0  0
   19.2075   13.4009   16.6340 C   0  0  0  0  0  0  0  0  0  0  0  0
   19.5991   14.8634   16.8759 C   0  0  0  0  0  0  0  0  0  0  0  0
   19.0368   15.6969   15.8153 N   0  0  0  0  0  0  0  0  0  0  0  0
   18.2458   16.9072   16.0451 C   0  0  0  0  0  0  0  0  0  0  0  0
   17.7174   17.5292   14.7450 C   0  0  0  0  0  0  0  0  0  0  0  0
   18.8630   18.0179   13.8527 C   0  0  0  0  0  0  0  0  0  0  0  0
   19.6021   19.0690   14.5456 N   0  0  0  0  0  0  0  0  0  0  0  0
  1  2  1  0  0  0  0
  2  3  1  0  0  0  0
  3  4  1  0  0  0  0
  4  5  1  0  0  0  0
  5  6  1  0  0  0  0
  6  7  1  0  0  0  0
  7  8  1  0  0  0  0
  8  9  1  0  0  0  0
  9 10  1  0  0  0  0
 10 11  1  0  0  0  0
 11 12  1  0  0  0  0
 12 13  1  0  0  0  0
 13 14  1  0  0  0  0
M  END
>  <CHROM.1>
71.67190435,-61.19929098,-155.29884907,-155.02360003,175.37479607,75.30578517
-66.23331557,128.83681803,-176.56327863,-64.20149413,-62.48759963,16.81303388
14.85024253,15.63125859,2.52144617,0.26403000,2.64794543

>  <Name>
ligand

>  <RI>
0

>  <Rbt.Current_Directory>
/home/itssahil/PROJECTS/Mol_Feturizer/New_Systems/rnas/4FAW

>  <Rbt.Executable>
rbdock ($Id: //depot/dev/client3/rdock/2013.1/src/exe/rbdock.cxx#4 $)

>  <Rbt.Library>
libRbt.so (2013.1, Build901 2013/11/27)

>  <Rbt.Parameter_File>
/export/apps/rDock/src/rDock_2013.1_src/data/scripts/dock_solv.prm

>  <Rbt.Receptor>
prm/blind_docking_40.prm

>  <SCORE>
-9.96522

>  <SCORE.INTER>
-3.56318

>  <SCORE.INTER.CONST>
1

>  <SCORE.INTER.POLAR>
0

>  <SCORE.INTER.ROT>
11

>  <SCORE.INTER.SOLV>
8.30856

>  <SCORE.INTER.VDW>
-16.0783

>  <SCORE.INTER.norm>
-0.254513

>  <SCORE.INTRA>
-6.40205

>  <SCORE.INTRA.DIHEDRAL>
-15.3218

>  <SCORE.INTRA.DIHEDRAL.0>
19.1003

>  <SCORE.INTRA.POLAR>
0

>  <SCORE.INTRA.POLAR.0>
0

>  <SCORE.INTRA.REPUL>
0

>  <SCORE.INTRA.REPUL.0>
0

>  <SCORE.INTRA.SOLV>
4.0185

>  <SCORE.INTRA.SOLV.lig_0>
-47.5333

>  <SCORE.INTRA.VDW>
-0.750418

>  <SCORE.INTRA.VDW.0>
-0.287413

>  <SCORE.INTRA.norm>
-0.457289

>  <SCORE.RESTR>
0

>  <SCORE.RESTR.CAVITY>
0

>  <SCORE.RESTR.norm>
0

>  <SCORE.SYSTEM>
0

>  <SCORE.SYSTEM.CONST>
0

>  <SCORE.SYSTEM.DIHEDRAL>
0

>  <SCORE.SYSTEM.SOLV>
0

>  <SCORE.SYSTEM.norm>
0

>  <SCORE.heavy>
14

>  <SCORE.norm>
-0.711802

>  <RMSD>
43.781

$$$$
ligand
 OpenBabel11021811493D
libRbt.so/2013.1/901 2013/11/27
 14 13  0  0  0  0  0  0  0  0999 V2000
   16.4308   10.9494   12.0116 N   0  0  0  0  0  0  0  0  0  0  0  0
   15.1381   11.2956   12.5604 C   0  0  0  0  0  0  0  0  0  0  0  0
   14.8148   10.3436   13.7302 C   0  0  0  0  0  0  0  0  0  0  0  0
   13.4280   10.5682   14.3527 C   0  0  0  0  0  0  0  0  0  0  0  0
   13.2008   11.8933   14.9494 N   0  0  0  0  0  0  0  0  0  0  0  0
   12.7874   12.0952   16.3369 C   0  0  0  0  0  0  0  0  0  0  0  0
   13.6366   13.1297   17.0683 C   0  0  0  0  0  0  0  0  0  0  0  0
   15.1065   12.7235   17.2160 C   0  0  0  0  0  0  0  0  0  0  0  0
   15.9070   13.7473   18.0296 C   0  0  0  0  0  0  0  0  0  0  0  0
   17.2960   13.3047   18.1320 N   0  0  0  0  0  0  0  0  0  0  0  0
   18.2730   13.3855   17.0446 C   0  0  0  0  0  0  0  0  0  0  0  0
   18.7256   14.8237   16.7561 C   0  0  0  0  0  0  0  0  0  0  0  0
   19.8366   14.8596   15.7017 C   0  0  0  0  0  0  0  0  0  0  0  0
   19.3009   14.4157   14.4182 N   0  0  0  0  0  0  0  0  0  0  0  0
  1  2  1  0  0  0  0
  2  3  1  0  0  0  0
  3  4  1  0  0  0  0
  4  5  1  0  0  0  0
  5  6  1  0  0  0  0
  6  7  1  0  0  0  0
  7  8  1  0  0  0  0
  8  9  1  0  0  0  0
  9 10  1  0  0  0  0
 10 11  1  0  0  0  0
 11 12  1  0  0  0  0
 12 13  1  0  0  0  0
 13 14  1  0  0  0  0
M  END
>  <CHROM.1>
-177.08349269,-61.46896860,-123.97342234,131.01454797,-63.73337582,-176.50850360
-179.90906243,75.40231372,71.90614875,174.93012519,66.58087451,15.99135733
12.68108020,15.59370135,-2.56645017,0.38351286,1.14099088

>  <Name>
ligand

>  <RI>
0

>  <Rbt.Current_Directory>
/home/itssahil/PROJECTS/Mol_Feturizer/New_Systems/rnas/4FAW

>  <Rbt.Executable>
rbdock ($Id: //depot/dev/client3/rdock/2013.1/src/exe/rbdock.cxx#4 $)

>  <Rbt.Library>
libRbt.so (2013.1, Build901 2013/11/27)

>  <Rbt.Parameter_File>
/export/apps/rDock/src/rDock_2013.1_src/data/scripts/dock_solv.prm

>  <Rbt.Receptor>
prm/blind_docking_40.prm

>  <SCORE>
-11.5812

>  <SCORE.INTER>
-2.68527

>  <SCORE.INTER.CONST>
1

>  <SCORE.INTER.POLAR>
0

>  <SCORE.INTER.ROT>
11

>  <SCORE.INTER.SOLV>
11.6758

>  <SCORE.INTER.VDW>
-16.6155

>  <SCORE.INTER.norm>
-0.191805

>  <SCORE.INTRA>
-8.89597

>  <SCORE.INTRA.DIHEDRAL>
-16.1099

>  <SCORE.INTRA.DIHEDRAL.0>
19.1003

>  <SCORE.INTRA.POLAR>
0

>  <SCORE.INTRA.POLAR.0>
0

>  <SCORE.INTRA.REPUL>
0

>  <SCORE.INTRA.REPUL.0>
0

>  <SCORE.INTRA.SOLV>
-0.122303

>  <SCORE.INTRA.SOLV.lig_0>
-47.5333

>  <SCORE.INTRA.VDW>
-0.779864

>  <SCORE.INTRA.VDW.0>
-0.287413

>  <SCORE.INTRA.norm>
-0.635427

>  <SCORE.RESTR>
0

>  <SCORE.RESTR.CAVITY>
0

>  <SCORE.RESTR.norm>
0

>  <SCORE.SYSTEM>
0

>  <SCORE.SYSTEM.CONST>
0

>  <SCORE.SYSTEM.DIHEDRAL>
0

>  <SCORE.SYSTEM.SOLV>
0

>  <SCORE.SYSTEM.norm>
0

>  <SCORE.heavy>
14

>  <SCORE.norm>
-0.827231

>  <RMSD>
43.813

$$$$
ligand
 OpenBabel11021811493D
libRbt.so/2013.1/901 2013/11/27
 14 13  0  0  0  0  0  0  0  0999 V2000
   19.7670   22.2774   14.6835 N   0  0  0  0  0  0  0  0  0  0  0  0
   19.6014   20.8959   15.0789 C   0  0  0  0  0  0  0  0  0  0  0  0
   19.7012   19.9975   13.8289 C   0  0  0  0  0  0  0  0  0  0  0  0
   19.4779   18.5043   14.1140 C   0  0  0  0  0  0  0  0  0  0  0  0
   18.1620   18.1473   14.6658 N   0  0  0  0  0  0  0  0  0  0  0  0
   17.7774   16.7825   15.0211 C   0  0  0  0  0  0  0  0  0  0  0  0
   18.4691   16.2766   16.2828 C   0  0  0  0  0  0  0  0  0  0  0  0
   17.8181   15.0246   16.8795 C   0  0  0  0  0  0  0  0  0  0  0  0
   17.9246   13.8177   15.9398 C   0  0  0  0  0  0  0  0  0  0  0  0
   17.0850   12.7342   16.4464 N   0  0  0  0  0  0  0  0  0  0  0  0
   15.6237   12.7098   16.3606 C   0  0  0  0  0  0  0  0  0  0  0  0
   14.9430   13.1096   17.6770 C   0  0  0  0  0  0  0  0  0  0  0  0
   13.4306   13.2761   17.4968 C   0  0  0  0  0  0  0  0  0  0  0  0
   12.8552   12.0138   17.0419 N   0  0  0  0  0  0  0  0  0  0  0  0
  1  2  1  0  0  0  0
  2  3  1  0  0  0  0
  3  4  1  0  0  0  0
  4  5  1  0  0  0  0
  5  6  1  0  0  0  0
  6  7  1  0  0  0  0
  7  8  1  0  0  0  0
  8  9  1  0  0  0  0
  9 10  1  0  0  0  0
 10 11  1  0  0  0  0
 11 12  1  0  0  0  0
 12 13  1  0  0  0  0
 13 14  1  0  0  0  0
M  END
>  <CHROM.1>
-177.42586858,61.11112490,-178.88836059,72.43361328,164.53121351,64.57212803
-169.77907782,74.53084662,-100.57564610,171.53417920,60.02310624,17.33131363
16.11187603,15.82269503,1.01174094,0.26231407,-0.15847627

>  <Name>
ligand

>  <RI>
0

>  <Rbt.Current_Directory>
/home/itssahil/PROJECTS/Mol_Feturizer/New_Systems/rnas/4FAW

>  <Rbt.Executable>
rbdock ($Id: //depot/dev/client3/rdock/2013.1/src/exe/rbdock.cxx#4 $)

>  <Rbt.Library>
libRbt.so (2013.1, Build901 2013/11/27)

>  <Rbt.Parameter_File>
/export/apps/rDock/src/rDock_2013.1_src/data/scripts/dock_solv.prm

>  <Rbt.Receptor>
prm/blind_docking_40.prm

>  <SCORE>
-8.65348

>  <SCORE.INTER>
-0.44471

>  <SCORE.INTER.CONST>
1

>  <SCORE.INTER.POLAR>
0

>  <SCORE.INTER.ROT>
11

>  <SCORE.INTER.SOLV>
13.1408

>  <SCORE.INTER.VDW>
-15.6101

>  <SCORE.INTER.norm>
-0.031765

>  <SCORE.INTRA>
-8.20877

>  <SCORE.INTRA.DIHEDRAL>
-16.2692

>  <SCORE.INTRA.DIHEDRAL.0>
19.1003

>  <SCORE.INTRA.POLAR>
0

>  <SCORE.INTRA.POLAR.0>
0

>  <SCORE.INTRA.REPUL>
0

>  <SCORE.INTRA.REPUL.0>
0

>  <SCORE.INTRA.SOLV>
-0.167445

>  <SCORE.INTRA.SOLV.lig_0>
-47.5333

>  <SCORE.INTRA.VDW>
0.00953305

>  <SCORE.INTRA.VDW.0>
-0.287413

>  <SCORE.INTRA.norm>
-0.58634

>  <SCORE.RESTR>
0

>  <SCORE.RESTR.CAVITY>
0

>  <SCORE.RESTR.norm>
0

>  <SCORE.SYSTEM>
0

>  <SCORE.SYSTEM.CONST>
0

>  <SCORE.SYSTEM.DIHEDRAL>
0

>  <SCORE.SYSTEM.SOLV>
0

>  <SCORE.SYSTEM.norm>
0

>  <SCORE.heavy>
14

>  <SCORE.norm>
-0.618105

>  <RMSD>
43.890

$$$$
ligand
 OpenBabel11021811493D
libRbt.so/2013.1/901 2013/11/27
 14 13  0  0  0  0  0  0  0  0999 V2000
   14.3416   13.5625   17.7081 N   0  0  0  0  0  0  0  0  0  0  0  0
   12.9797   13.4575   18.1840 C   0  0  0  0  0  0  0  0  0  0  0  0
   12.3949   12.0992   17.7453 C   0  0  0  0  0  0  0  0  0  0  0  0
   12.2250   11.9545   16.2250 C   0  0  0  0  0  0  0  0  0  0  0  0
   13.4686   11.9466   15.4394 N   0  0  0  0  0  0  0  0  0  0  0  0
   13.6064   11.2709   14.1505 C   0  0  0  0  0  0  0  0  0  0  0  0
   14.8751   11.6662   13.4018 C   0  0  0  0  0  0  0  0  0  0  0  0
   16.1633   11.2047   14.0911 C   0  0  0  0  0  0  0  0  0  0  0  0
   16.5479   12.1173   15.2616 C   0  0  0  0  0  0  0  0  0  0  0  0
   17.7728   11.6178   15.8826 N   0  0  0  0  0  0  0  0  0  0  0  0
   19.0256   12.3709   15.9654 C   0  0  0  0  0  0  0  0  0  0  0  0
   18.9766   13.4957   17.0087 C   0  0  0  0  0  0  0  0  0  0  0  0
   20.3488   14.1537   17.1870 C   0  0  0  0  0  0  0  0  0  0  0  0
   20.7346   14.8138   15.9433 N   0  0  0  0  0  0  0  0  0  0  0  0
  1  2  1  0  0  0  0
  2  3  1  0  0  0  0
  3  4  1  0  0  0  0
  4  5  1  0  0  0  0
  5  6  1  0  0  0  0
  6  7  1  0  0  0  0
  7  8  1  0  0  0  0
  8  9  1  0  0  0  0
  9 10  1  0  0  0  0
 10 11  1  0  0  0  0
 11 12  1  0  0  0  0
 12 13  1  0  0  0  0
 13 14  1  0  0  0  0
M  END
>  <CHROM.1>
-66.26519925,65.52561899,152.40171466,167.16519373,66.59851118,-79.00743644
179.44956475,118.95199303,74.12842272,173.28499263,64.56594118,15.96123305
12.55207822,16.01373055,3.01321221,-0.18049544,-2.09304808

>  <Name>
ligand

>  <RI>
0

>  <Rbt.Current_Directory>
/home/itssahil/PROJECTS/Mol_Feturizer/New_Systems/rnas/4FAW

>  <Rbt.Executable>
rbdock ($Id: //depot/dev/client3/rdock/2013.1/src/exe/rbdock.cxx#4 $)

>  <Rbt.Library>
libRbt.so (2013.1, Build901 2013/11/27)

>  <Rbt.Parameter_File>
/export/apps/rDock/src/rDock_2013.1_src/data/scripts/dock_solv.prm

>  <Rbt.Receptor>
prm/blind_docking_40.prm

>  <SCORE>
-9.43593

>  <SCORE.INTER>
-2.89161

>  <SCORE.INTER.CONST>
1

>  <SCORE.INTER.POLAR>
0

>  <SCORE.INTER.ROT>
11

>  <SCORE.INTER.SOLV>
12.7474

>  <SCORE.INTER.VDW>
-17.1102

>  <SCORE.INTER.norm>
-0.206544

>  <SCORE.INTRA>
-6.54432

>  <SCORE.INTRA.DIHEDRAL>
-15.0213

>  <SCORE.INTRA.DIHEDRAL.0>
19.1003

>  <SCORE.INTRA.POLAR>
0

>  <SCORE.INTRA.POLAR.0>
0

>  <SCORE.INTRA.REPUL>
0

>  <SCORE.INTRA.REPUL.0>
0

>  <SCORE.INTRA.SOLV>
3.70234

>  <SCORE.INTRA.SOLV.lig_0>
-47.5333

>  <SCORE.INTRA.VDW>
-0.884828

>  <SCORE.INTRA.VDW.0>
-0.287413

>  <SCORE.INTRA.norm>
-0.467451

>  <SCORE.RESTR>
0

>  <SCORE.RESTR.CAVITY>
0

>  <SCORE.RESTR.norm>
0

>  <SCORE.SYSTEM>
0

>  <SCORE.SYSTEM.CONST>
0

>  <SCORE.SYSTEM.DIHEDRAL>
0

>  <SCORE.SYSTEM.SOLV>
0

>  <SCORE.SYSTEM.norm>
0

>  <SCORE.heavy>
14

>  <SCORE.norm>
-0.673995

>  <RMSD>
43.986

$$$$
ligand
 OpenBabel11021811493D
libRbt.so/2013.1/901 2013/11/27
 14 13  0  0  0  0  0  0  0  0999 V2000
   12.1949   12.8959   17.7547 N   0  0  0  0  0  0  0  0  0  0  0  0
   13.5820   13.2434   17.5370 C   0  0  0  0  0  0  0  0  0  0  0  0
   14.0126   12.7512   16.1400 C   0  0  0  0  0  0  0  0  0  0  0  0
   15.4707   13.0805   15.7842 C   0  0  0  0  0  0  0  0  0  0  0  0
   16.4925   12.5004   16.6690 N   0  0  0  0  0  0  0  0  0  0  0  0
   17.9261   12.5448   16.3866 C   0  0  0  0  0  0  0  0  0  0  0  0
   18.5879   13.8353   16.8587 C   0  0  0  0  0  0  0  0  0  0  0  0
   18.0673   15.0880   16.1465 C   0  0  0  0  0  0  0  0  0  0  0  0
   18.7620   16.3618   16.6422 C   0  0  0  0  0  0  0  0  0  0  0  0
   18.2407   17.5138   15.9096 N   0  0  0  0  0  0  0  0  0  0  0  0
   19.0355   18.6843   15.5333 C   0  0  0  0  0  0  0  0  0  0  0  0
   18.4627   19.9964   16.0871 C   0  0  0  0  0  0  0  0  0  0  0  0
   19.2285   21.2110   15.5523 C   0  0  0  0  0  0  0  0  0  0  0  0
   18.5296   22.4329   15.9391 N   0  0  0  0  0  0  0  0  0  0  0  0
  1  2  1  0  0  0  0
  2  3  1  0  0  0  0
  3  4  1  0  0  0  0
  4  5  1  0  0  0  0
  5  6  1  0  0  0  0
  6  7  1  0  0  0  0
  7  8  1  0  0  0  0
  8  9  1  0  0  0  0
  9 10  1  0  0  0  0
 10 11  1  0  0  0  0
 11 12  1  0  0  0  0
 12 13  1  0  0  0  0
 13 14  1  0  0  0  0
M  END
>  <CHROM.1>
179.23710700,60.75199717,171.12218313,85.31898718,-63.56542040,-179.65674405
178.96627805,-145.30068953,-122.33997355,-173.88574755,171.48216359,17.04262917
15.86692415,16.35278642,2.06650170,-0.14967589,3.09201918

>  <Name>
ligand

>  <RI>
0

>  <Rbt.Current_Directory>
/home/itssahil/PROJECTS/Mol_Feturizer/New_Systems/rnas/4FAW

>  <Rbt.Executable>
rbdock ($Id: //depot/dev/client3/rdock/2013.1/src/exe/rbdock.cxx#4 $)

>  <Rbt.Library>
libRbt.so (2013.1, Build901 2013/11/27)

>  <Rbt.Parameter_File>
/export/apps/rDock/src/rDock_2013.1_src/data/scripts/dock_solv.prm

>  <Rbt.Receptor>
prm/blind_docking_40.prm

>  <SCORE>
-9.03366

>  <SCORE.INTER>
0.341959

>  <SCORE.INTER.CONST>
1

>  <SCORE.INTER.POLAR>
0

>  <SCORE.INTER.ROT>
11

>  <SCORE.INTER.SOLV>
16.8436

>  <SCORE.INTER.VDW>
-16.3199

>  <SCORE.INTER.norm>
0.0244256

>  <SCORE.INTRA>
-9.37562

>  <SCORE.INTRA.DIHEDRAL>
-16.1736

>  <SCORE.INTRA.DIHEDRAL.0>
19.1003

>  <SCORE.INTRA.POLAR>
0

>  <SCORE.INTRA.POLAR.0>
0

>  <SCORE.INTRA.REPUL>
0

>  <SCORE.INTRA.REPUL.0>
0

>  <SCORE.INTRA.SOLV>
-0.828485

>  <SCORE.INTRA.SOLV.lig_0>
-47.5333

>  <SCORE.INTRA.VDW>
-0.87459

>  <SCORE.INTRA.VDW.0>
-0.287413

>  <SCORE.INTRA.norm>
-0.669687

>  <SCORE.RESTR>
0

>  <SCORE.RESTR.CAVITY>
0

>  <SCORE.RESTR.norm>
0

>  <SCORE.SYSTEM>
0

>  <SCORE.SYSTEM.CONST>
0

>  <SCORE.SYSTEM.DIHEDRAL>
0

>  <SCORE.SYSTEM.SOLV>
0

>  <SCORE.SYSTEM.norm>
0

>  <SCORE.heavy>
14

>  <SCORE.norm>
-0.645261

>  <RMSD>
44.280

$$$$
ligand
 OpenBabel11021811493D
libRbt.so/2013.1/901 2013/11/27
 14 13  0  0  0  0  0  0  0  0999 V2000
   12.2094   11.2845   16.2902 N   0  0  0  0  0  0  0  0  0  0  0  0
   12.5851   12.5701   15.7441 C   0  0  0  0  0  0  0  0  0  0  0  0
   12.7448   13.5816   16.8977 C   0  0  0  0  0  0  0  0  0  0  0  0
   13.8916   13.2492   17.8649 C   0  0  0  0  0  0  0  0  0  0  0  0
   15.2407   13.2379   17.2790 N   0  0  0  0  0  0  0  0  0  0  0  0
   16.4655   13.3633   18.0671 C   0  0  0  0  0  0  0  0  0  0  0  0
   17.6917   13.6821   17.2179 C   0  0  0  0  0  0  0  0  0  0  0  0
   17.5228   14.9254   16.3386 C   0  0  0  0  0  0  0  0  0  0  0  0
   18.8511   15.3767   15.7197 C   0  0  0  0  0  0  0  0  0  0  0  0
   18.5968   16.4410   14.7510 N   0  0  0  0  0  0  0  0  0  0  0  0
   17.7439   17.6039   15.0036 C   0  0  0  0  0  0  0  0  0  0  0  0
   18.4103   18.6449   15.9138 C   0  0  0  0  0  0  0  0  0  0  0  0
   19.5973   19.3187   15.2175 C   0  0  0  0  0  0  0  0  0  0  0  0
   20.2023   20.2906   16.1235 N   0  0  0  0  0  0  0  0  0  0  0  0
  1  2  1  0  0  0  0
  2  3  1  0  0  0  0
  3  4  1  0  0  0  0
  4  5  1  0  0  0  0
  5  6  1  0  0  0  0
  6  7  1  0  0  0  0
  7  8  1  0  0  0  0
  8  9  1  0  0  0  0
  9 10  1  0  0  0  0
 10 11  1  0  0  0  0
 11 12  1  0  0  0  0
 12 13  1  0  0  0  0
 13 14  1  0  0  0  0
M  END
>  <CHROM.1>
64.69557840,62.10572970,160.11212305,-165.15788889,54.56212736,168.54870681
172.07677171,47.29542141,75.20898453,67.95229096,-179.59726519,16.55380832
15.25497090,16.31641402,2.35673396,0.22204147,2.71894609

>  <Name>
ligand

>  <RI>
0

>  <Rbt.Current_Directory>
/home/itssahil/PROJECTS/Mol_Feturizer/New_Systems/rnas/4FAW

>  <Rbt.Executable>
rbdock ($Id: //depot/dev/client3/rdock/2013.1/src/exe/rbdock.cxx#4 $)

>  <Rbt.Library>
libRbt.so (2013.1, Build901 2013/11/27)

>  <Rbt.Parameter_File>
/export/apps/rDock/src/rDock_2013.1_src/data/scripts/dock_solv.prm

>  <Rbt.Receptor>
prm/blind_docking_60.prm

>  <SCORE>
-11.7159

>  <SCORE.INTER>
-3.69723

>  <SCORE.INTER.CONST>
1

>  <SCORE.INTER.POLAR>
0

>  <SCORE.INTER.ROT>
11

>  <SCORE.INTER.SOLV>
14.2706

>  <SCORE.INTER.VDW>
-18.155

>  <SCORE.INTER.norm>
-0.264088

>  <SCORE.INTRA>
-8.01868

>  <SCORE.INTRA.DIHEDRAL>
-17.1076

>  <SCORE.INTRA.DIHEDRAL.0>
19.1003

>  <SCORE.INTRA.POLAR>
0

>  <SCORE.INTRA.POLAR.0>
0

>  <SCORE.INTRA.REPUL>
0

>  <SCORE.INTRA.REPUL.0>
0

>  <SCORE.INTRA.SOLV>
0.836507

>  <SCORE.INTRA.SOLV.lig_0>
-47.5333

>  <SCORE.INTRA.VDW>
0.116869

>  <SCORE.INTRA.VDW.0>
-0.287413

>  <SCORE.INTRA.norm>
-0.572763

>  <SCORE.RESTR>
0

>  <SCORE.RESTR.CAVITY>
0

>  <SCORE.RESTR.norm>
0

>  <SCORE.SYSTEM>
0

>  <SCORE.SYSTEM.CONST>
0

>  <SCORE.SYSTEM.DIHEDRAL>
0

>  <SCORE.SYSTEM.SOLV>
0

>  <SCORE.SYSTEM.norm>
0

>  <SCORE.heavy>
14

>  <SCORE.norm>
-0.836851

>  <RMSD>
44.417

$$$$
ligand
 OpenBabel11021811493D
libRbt.so/2013.1/901 2013/11/27
 14 13  0  0  0  0  0  0  0  0999 V2000
   26.4169    1.3951   37.3058 N   0  0  0  0  0  0  0  0  0  0  0  0
   27.3554    2.2229   36.5805 C   0  0  0  0  0  0  0  0  0  0  0  0
   27.6181    3.5125   37.3852 C   0  0  0  0  0  0  0  0  0  0  0  0
   26.3921    4.4301   37.5113 C   0  0  0  0  0  0  0  0  0  0  0  0
   25.8008    4.8867   36.2442 N   0  0  0  0  0  0  0  0  0  0  0  0
   26.3865    5.9344   35.4098 C   0  0  0  0  0  0  0  0  0  0  0  0
   25.9326    5.8629   33.9555 C   0  0  0  0  0  0  0  0  0  0  0  0
   26.5930    6.9113   33.0542 C   0  0  0  0  0  0  0  0  0  0  0  0
   26.2473    6.6984   31.5757 C   0  0  0  0  0  0  0  0  0  0  0  0
   24.8260    6.9672   31.3675 N   0  0  0  0  0  0  0  0  0  0  0  0
   23.7987    5.9328   31.2335 C   0  0  0  0  0  0  0  0  0  0  0  0
   24.0740    4.9665   30.0730 C   0  0  0  0  0  0  0  0  0  0  0  0
   24.1571    5.7085   28.7350 C   0  0  0  0  0  0  0  0  0  0  0  0
   24.2914    4.7394   27.6514 N   0  0  0  0  0  0  0  0  0  0  0  0
  1  2  1  0  0  0  0
  2  3  1  0  0  0  0
  3  4  1  0  0  0  0
  4  5  1  0  0  0  0
  5  6  1  0  0  0  0
  6  7  1  0  0  0  0
  7  8  1  0  0  0  0
  8  9  1  0  0  0  0
  9 10  1  0  0  0  0
 10 11  1  0  0  0  0
 11 12  1  0  0  0  0
 12 13  1  0  0  0  0
 13 14  1  0  0  0  0
M  END
>  <CHROM.1>
-66.08472385,-58.05989418,-76.16425404,157.83237805,-177.08468711,172.90682037
67.57222851,-101.65889273,-58.07524553,-58.99452673,-174.62175460,25.70657290
5.01226491,33.43459726,0.54589794,1.22649760,2.87537193

>  <Name>
ligand

>  <RI>
0

>  <Rbt.Current_Directory>
/home/itssahil/PROJECTS/Mol_Feturizer/New_Systems/rnas/4FAW

>  <Rbt.Executable>
rbdock ($Id: //depot/dev/client3/rdock/2013.1/src/exe/rbdock.cxx#4 $)

>  <Rbt.Library>
libRbt.so (2013.1, Build901 2013/11/27)

>  <Rbt.Parameter_File>
/export/apps/rDock/src/rDock_2013.1_src/data/scripts/dock_solv.prm

>  <Rbt.Receptor>
prm/blind_docking_80.prm

>  <SCORE>
-8.07567

>  <SCORE.INTER>
0.373515

>  <SCORE.INTER.CONST>
1

>  <SCORE.INTER.POLAR>
0

>  <SCORE.INTER.ROT>
11

>  <SCORE.INTER.SOLV>
13.5635

>  <SCORE.INTER.VDW>
-15.2055

>  <SCORE.INTER.norm>
0.0266796

>  <SCORE.INTRA>
-8.44918

>  <SCORE.INTRA.DIHEDRAL>
-16.8697

>  <SCORE.INTRA.DIHEDRAL.0>
19.1003

>  <SCORE.INTRA.POLAR>
0

>  <SCORE.INTRA.POLAR.0>
0

>  <SCORE.INTRA.REPUL>
0

>  <SCORE.INTRA.REPUL.0>
0

>  <SCORE.INTRA.SOLV>
0.937258

>  <SCORE.INTRA.SOLV.lig_0>
-47.5333

>  <SCORE.INTRA.VDW>
-0.482956

>  <SCORE.INTRA.VDW.0>
-0.287413

>  <SCORE.INTRA.norm>
-0.603513

>  <SCORE.RESTR>
0

>  <SCORE.RESTR.CAVITY>
0

>  <SCORE.RESTR.norm>
0

>  <SCORE.SYSTEM>
0

>  <SCORE.SYSTEM.CONST>
0

>  <SCORE.SYSTEM.DIHEDRAL>
0

>  <SCORE.SYSTEM.SOLV>
0

>  <SCORE.SYSTEM.norm>
0

>  <SCORE.heavy>
14

>  <SCORE.norm>
-0.576833

>  <RMSD>
44.780

$$$$
ligand
 OpenBabel11021811493D
libRbt.so/2013.1/901 2013/11/27
 14 13  0  0  0  0  0  0  0  0999 V2000
   18.9538   18.8680   16.2333 N   0  0  0  0  0  0  0  0  0  0  0  0
   17.8224   18.2504   15.5772 C   0  0  0  0  0  0  0  0  0  0  0  0
   18.3175   17.0590   14.7316 C   0  0  0  0  0  0  0  0  0  0  0  0
   18.7653   15.8469   15.5630 C   0  0  0  0  0  0  0  0  0  0  0  0
   17.7168   15.1974   16.3645 N   0  0  0  0  0  0  0  0  0  0  0  0
   17.9573   14.0408   17.2256 C   0  0  0  0  0  0  0  0  0  0  0  0
   16.6755   13.4514   17.8053 C   0  0  0  0  0  0  0  0  0  0  0  0
   15.7417   12.8539   16.7477 C   0  0  0  0  0  0  0  0  0  0  0  0
   14.3499   12.5508   17.3149 C   0  0  0  0  0  0  0  0  0  0  0  0
   13.5467   11.8808   16.2943 N   0  0  0  0  0  0  0  0  0  0  0  0
   12.0833   11.8390   16.2880 C   0  0  0  0  0  0  0  0  0  0  0  0
   11.5097   10.8961   17.3549 C   0  0  0  0  0  0  0  0  0  0  0  0
   12.0345    9.4674   17.1793 C   0  0  0  0  0  0  0  0  0  0  0  0
   11.6400    8.9643   15.8669 N   0  0  0  0  0  0  0  0  0  0  0  0
  1  2  1  0  0  0  0
  2  3  1  0  0  0  0
  3  4  1  0  0  0  0
  4  5  1  0  0  0  0
  5  6  1  0  0  0  0
  6  7  1  0  0  0  0
  7  8  1  0  0  0  0
  8  9  1  0  0  0  0
  9 10  1  0  0  0  0
 10 11  1  0  0  0  0
 11 12  1  0  0  0  0
 12 13  1  0  0  0  0
 13 14  1  0  0  0  0
M  END
>  <CHROM.1>
71.80957641,63.78777255,-179.41586714,-172.60770427,65.09543388,-167.61945332
-175.19532426,-158.52112306,-73.34452653,-57.81871989,-60.43343232,15.50819191
13.65471051,16.46773272,0.77482565,-0.32236953,-0.43914902

>  <Name>
ligand

>  <RI>
0

>  <Rbt.Current_Directory>
/home/itssahil/PROJECTS/Mol_Feturizer/New_Systems/rnas/4FAW

>  <Rbt.Executable>
rbdock ($Id: //depot/dev/client3/rdock/2013.1/src/exe/rbdock.cxx#4 $)

>  <Rbt.Library>
libRbt.so (2013.1, Build901 2013/11/27)

>  <Rbt.Parameter_File>
/export/apps/rDock/src/rDock_2013.1_src/data/scripts/dock_solv.prm

>  <Rbt.Receptor>
prm/blind_docking_60.prm

>  <SCORE>
-11.7839

>  <SCORE.INTER>
-3.73755

>  <SCORE.INTER.CONST>
1

>  <SCORE.INTER.POLAR>
0

>  <SCORE.INTER.ROT>
11

>  <SCORE.INTER.SOLV>
16.9182

>  <SCORE.INTER.VDW>
-19.0644

>  <SCORE.INTER.norm>
-0.266968

>  <SCORE.INTRA>
-8.04639

>  <SCORE.INTRA.DIHEDRAL>
-17.1849

>  <SCORE.INTRA.DIHEDRAL.0>
19.1003

>  <SCORE.INTRA.POLAR>
0

>  <SCORE.INTRA.POLAR.0>
0

>  <SCORE.INTRA.REPUL>
0

>  <SCORE.INTRA.REPUL.0>
0

>  <SCORE.INTRA.SOLV>
2.30075

>  <SCORE.INTRA.SOLV.lig_0>
-47.5333

>  <SCORE.INTRA.VDW>
-0.604331

>  <SCORE.INTRA.VDW.0>
-0.287413

>  <SCORE.INTRA.norm>
-0.574742

>  <SCORE.RESTR>
0

>  <SCORE.RESTR.CAVITY>
0

>  <SCORE.RESTR.norm>
0

>  <SCORE.SYSTEM>
0

>  <SCORE.SYSTEM.CONST>
0

>  <SCORE.SYSTEM.DIHEDRAL>
0

>  <SCORE.SYSTEM.SOLV>
0

>  <SCORE.SYSTEM.norm>
0

>  <SCORE.heavy>
14

>  <SCORE.norm>
-0.84171

>  <RMSD>
44.950

$$$$
ligand
 OpenBabel11021811493D
libRbt.so/2013.1/901 2013/11/27
 14 13  0  0  0  0  0  0  0  0999 V2000
   13.5615    5.6608   18.3138 N   0  0  0  0  0  0  0  0  0  0  0  0
   13.1964    6.9567   17.7850 C   0  0  0  0  0  0  0  0  0  0  0  0
   11.9100    6.8152   16.9455 C   0  0  0  0  0  0  0  0  0  0  0  0
   11.5302    8.0842   16.1668 C   0  0  0  0  0  0  0  0  0  0  0  0
   11.1639    9.2514   16.9835 N   0  0  0  0  0  0  0  0  0  0  0  0
   12.1015   10.3146   17.3407 C   0  0  0  0  0  0  0  0  0  0  0  0
   12.3806   11.2758   16.1898 C   0  0  0  0  0  0  0  0  0  0  0  0
   13.1487   10.6363   15.0286 C   0  0  0  0  0  0  0  0  0  0  0  0
   13.5169   11.6610   13.9491 C   0  0  0  0  0  0  0  0  0  0  0  0
   14.2616   10.9945   12.8829 N   0  0  0  0  0  0  0  0  0  0  0  0
   15.6158   10.4578   13.0295 C   0  0  0  0  0  0  0  0  0  0  0  0
   16.6543   11.2269   12.2011 C   0  0  0  0  0  0  0  0  0  0  0  0
   16.3595   11.1256   10.7009 C   0  0  0  0  0  0  0  0  0  0  0  0
   17.4499   11.7412    9.9504 N   0  0  0  0  0  0  0  0  0  0  0  0
  1  2  1  0  0  0  0
  2  3  1  0  0  0  0
  3  4  1  0  0  0  0
  4  5  1  0  0  0  0
  5  6  1  0  0  0  0
  6  7  1  0  0  0  0
  7  8  1  0  0  0  0
  8  9  1  0  0  0  0
  9 10  1  0  0  0  0
 10 11  1  0  0  0  0
 11 12  1  0  0  0  0
 12 13  1  0  0  0  0
 13 14  1  0  0  0  0
M  END
>  <CHROM.1>
-171.79427989,-65.26627547,95.92927113,76.35199487,-67.40536541,-174.98278587
179.19298293,-68.85783519,-112.47236094,-62.70517248,-173.69195466,13.77490965
9.72884495,14.81923681,-2.27449830,0.69949936,-0.52391702

>  <Name>
ligand

>  <RI>
0

>  <Rbt.Current_Directory>
/home/itssahil/PROJECTS/Mol_Feturizer/New_Systems/rnas/4FAW

>  <Rbt.Executable>
rbdock ($Id: //depot/dev/client3/rdock/2013.1/src/exe/rbdock.cxx#4 $)

>  <Rbt.Library>
libRbt.so (2013.1, Build901 2013/11/27)

>  <Rbt.Parameter_File>
/export/apps/rDock/src/rDock_2013.1_src/data/scripts/dock_solv.prm

>  <Rbt.Receptor>
prm/blind_docking_40.prm

>  <SCORE>
-9.79621

>  <SCORE.INTER>
-1.02575

>  <SCORE.INTER.CONST>
1

>  <SCORE.INTER.POLAR>
0

>  <SCORE.INTER.ROT>
11

>  <SCORE.INTER.SOLV>
14.7304

>  <SCORE.INTER.VDW>
-16.5273

>  <SCORE.INTER.norm>
-0.073268

>  <SCORE.INTRA>
-8.77046

>  <SCORE.INTRA.DIHEDRAL>
-16.0486

>  <SCORE.INTRA.DIHEDRAL.0>
19.1003

>  <SCORE.INTRA.POLAR>
0

>  <SCORE.INTRA.POLAR.0>
0

>  <SCORE.INTRA.REPUL>
0

>  <SCORE.INTRA.REPUL.0>
0

>  <SCORE.INTRA.SOLV>
-0.526246

>  <SCORE.INTRA.SOLV.lig_0>
-47.5333

>  <SCORE.INTRA.VDW>
-0.483045

>  <SCORE.INTRA.VDW.0>
-0.287413

>  <SCORE.INTRA.norm>
-0.626461

>  <SCORE.RESTR>
0

>  <SCORE.RESTR.CAVITY>
0

>  <SCORE.RESTR.norm>
0

>  <SCORE.SYSTEM>
0

>  <SCORE.SYSTEM.CONST>
0

>  <SCORE.SYSTEM.DIHEDRAL>
0

>  <SCORE.SYSTEM.SOLV>
0

>  <SCORE.SYSTEM.norm>
0

>  <SCORE.heavy>
14

>  <SCORE.norm>
-0.699729

>  <RMSD>
45.027

$$$$
ligand
 OpenBabel11021811493D
libRbt.so/2013.1/901 2013/11/27
 14 13  0  0  0  0  0  0  0  0999 V2000
   10.8921    5.2082   17.3352 N   0  0  0  0  0  0  0  0  0  0  0  0
   12.0801    5.7869   16.7470 C   0  0  0  0  0  0  0  0  0  0  0  0
   12.2442    7.2327   17.2593 C   0  0  0  0  0  0  0  0  0  0  0  0
   11.1444    8.1931   16.7806 C   0  0  0  0  0  0  0  0  0  0  0  0
   11.2615    9.5837   17.2455 N   0  0  0  0  0  0  0  0  0  0  0  0
   12.3178   10.4955   16.8099 C   0  0  0  0  0  0  0  0  0  0  0  0
   12.0456   11.9481   17.1872 C   0  0  0  0  0  0  0  0  0  0  0  0
   13.1811   12.9040   16.8071 C   0  0  0  0  0  0  0  0  0  0  0  0
   14.4285   12.6879   17.6721 C   0  0  0  0  0  0  0  0  0  0  0  0
   15.5295   13.4897   17.1426 N   0  0  0  0  0  0  0  0  0  0  0  0
   16.9150   13.4033   17.6079 C   0  0  0  0  0  0  0  0  0  0  0  0
   17.9101   14.0596   16.6408 C   0  0  0  0  0  0  0  0  0  0  0  0
   19.3563   13.8625   17.1072 C   0  0  0  0  0  0  0  0  0  0  0  0
   20.2647   14.4647   16.1359 N   0  0  0  0  0  0  0  0  0  0  0  0
  1  2  1  0  0  0  0
  2  3  1  0  0  0  0
  3  4  1  0  0  0  0
  4  5  1  0  0  0  0
  5  6  1  0  0  0  0
  6  7  1  0  0  0  0
  7  8  1  0  0  0  0
  8  9  1  0  0  0  0
  9 10  1  0  0  0  0
 10 11  1  0  0  0  0
 11 12  1  0  0  0  0
 12 13  1  0  0  0  0
 13 14  1  0  0  0  0
M  END
>  <CHROM.1>
-66.51623008,-179.99399064,68.46374333,167.27677013,176.74192869,-70.03457255
172.08277619,-171.76641356,164.32921517,-175.88440232,178.18713020,14.25498719
10.95152404,17.03418513,-2.35560548,0.06791278,0.03703631

>  <Name>
ligand

>  <RI>
0

>  <Rbt.Current_Directory>
/home/itssahil/PROJECTS/Mol_Feturizer/New_Systems/rnas/4FAW

>  <Rbt.Executable>
rbdock ($Id: //depot/dev/client3/rdock/2013.1/src/exe/rbdock.cxx#4 $)

>  <Rbt.Library>
libRbt.so (2013.1, Build901 2013/11/27)

>  <Rbt.Parameter_File>
/export/apps/rDock/src/rDock_2013.1_src/data/scripts/dock_solv.prm

>  <Rbt.Receptor>
prm/blind_docking_40.prm

>  <SCORE>
-15.6604

>  <SCORE.INTER>
-6.10606

>  <SCORE.INTER.CONST>
1

>  <SCORE.INTER.POLAR>
0

>  <SCORE.INTER.ROT>
11

>  <SCORE.INTER.SOLV>
14.247

>  <SCORE.INTER.VDW>
-19.753

>  <SCORE.INTER.norm>
-0.436147

>  <SCORE.INTRA>
-9.55433

>  <SCORE.INTRA.DIHEDRAL>
-17.7464

>  <SCORE.INTRA.DIHEDRAL.0>
19.1003

>  <SCORE.INTRA.POLAR>
0

>  <SCORE.INTRA.POLAR.0>
0

>  <SCORE.INTRA.REPUL>
0

>  <SCORE.INTRA.REPUL.0>
0

>  <SCORE.INTRA.SOLV>
-0.627869

>  <SCORE.INTRA.SOLV.lig_0>
-47.5333

>  <SCORE.INTRA.VDW>
-0.367217

>  <SCORE.INTRA.VDW.0>
-0.287413

>  <SCORE.INTRA.norm>
-0.682452

>  <SCORE.RESTR>
0

>  <SCORE.RESTR.CAVITY>
0

>  <SCORE.RESTR.norm>
0

>  <SCORE.SYSTEM>
0

>  <SCORE.SYSTEM.CONST>
0

>  <SCORE.SYSTEM.DIHEDRAL>
0

>  <SCORE.SYSTEM.SOLV>
0

>  <SCORE.SYSTEM.norm>
0

>  <SCORE.heavy>
14

>  <SCORE.norm>
-1.1186

>  <RMSD>
45.647

$$$$
ligand
 OpenBabel11021811493D
libRbt.so/2013.1/901 2013/11/27
 14 13  0  0  0  0  0  0  0  0999 V2000
   11.5403    4.5934   16.9254 N   0  0  0  0  0  0  0  0  0  0  0  0
   10.8550    5.8292   16.6167 C   0  0  0  0  0  0  0  0  0  0  0  0
   11.7920    7.0160   16.9219 C   0  0  0  0  0  0  0  0  0  0  0  0
   11.1171    8.3911   16.8011 C   0  0  0  0  0  0  0  0  0  0  0  0
   11.9644    9.5506   17.1193 N   0  0  0  0  0  0  0  0  0  0  0  0
   11.4383   10.8896   17.3786 C   0  0  0  0  0  0  0  0  0  0  0  0
   12.5328   11.9362   17.5602 C   0  0  0  0  0  0  0  0  0  0  0  0
   13.4452   12.0882   16.3387 C   0  0  0  0  0  0  0  0  0  0  0  0
   14.5254   13.1543   16.5571 C   0  0  0  0  0  0  0  0  0  0  0  0
   15.4679   12.6876   17.5717 N   0  0  0  0  0  0  0  0  0  0  0  0
   16.7306   13.3533   17.8973 C   0  0  0  0  0  0  0  0  0  0  0  0
   17.7417   13.3101   16.7432 C   0  0  0  0  0  0  0  0  0  0  0  0
   19.0598   13.9897   17.1284 C   0  0  0  0  0  0  0  0  0  0  0  0
   19.9455   14.0214   15.9683 N   0  0  0  0  0  0  0  0  0  0  0  0
  1  2  1  0  0  0  0
  2  3  1  0  0  0  0
  3  4  1  0  0  0  0
  4  5  1  0  0  0  0
  5  6  1  0  0  0  0
  6  7  1  0  0  0  0
  7  8  1  0  0  0  0
  8  9  1  0  0  0  0
  9 10  1  0  0  0  0
 10 11  1  0  0  0  0
 11 12  1  0  0  0  0
 12 13  1  0  0  0  0
 13 14  1  0  0  0  0
M  END
>  <CHROM.1>
-172.74803306,178.39886486,-164.58989926,-174.85376415,59.99959203,179.64207793
68.16830330,170.74803980,-66.12721820,-178.82975672,-175.36450909,14.15376560
10.77240831,16.96630177,-2.35220988,0.09674944,0.09015149

>  <Name>
ligand

>  <RI>
0

>  <Rbt.Current_Directory>
/home/itssahil/PROJECTS/Mol_Feturizer/New_Systems/rnas/4FAW

>  <Rbt.Executable>
rbdock ($Id: //depot/dev/client3/rdock/2013.1/src/exe/rbdock.cxx#4 $)

>  <Rbt.Library>
libRbt.so (2013.1, Build901 2013/11/27)

>  <Rbt.Parameter_File>
/export/apps/rDock/src/rDock_2013.1_src/data/scripts/dock_solv.prm

>  <Rbt.Receptor>
prm/blind_docking_40.prm

>  <SCORE>
-16.2127

>  <SCORE.INTER>
-6.09306

>  <SCORE.INTER.CONST>
1

>  <SCORE.INTER.POLAR>
0

>  <SCORE.INTER.ROT>
11

>  <SCORE.INTER.SOLV>
15.6271

>  <SCORE.INTER.VDW>
-20.2044

>  <SCORE.INTER.norm>
-0.435219

>  <SCORE.INTRA>
-10.1196

>  <SCORE.INTRA.DIHEDRAL>
-18.2526

>  <SCORE.INTRA.DIHEDRAL.0>
19.1003

>  <SCORE.INTRA.POLAR>
0

>  <SCORE.INTRA.POLAR.0>
0

>  <SCORE.INTRA.REPUL>
0

>  <SCORE.INTRA.REPUL.0>
0

>  <SCORE.INTRA.SOLV>
-0.718856

>  <SCORE.INTRA.SOLV.lig_0>
-47.5333

>  <SCORE.INTRA.VDW>
-0.633876

>  <SCORE.INTRA.VDW.0>
-0.287413

>  <SCORE.INTRA.norm>
-0.722828

>  <SCORE.RESTR>
0

>  <SCORE.RESTR.CAVITY>
0

>  <SCORE.RESTR.norm>
0

>  <SCORE.SYSTEM>
0

>  <SCORE.SYSTEM.CONST>
0

>  <SCORE.SYSTEM.DIHEDRAL>
0

>  <SCORE.SYSTEM.SOLV>
0

>  <SCORE.SYSTEM.norm>
0

>  <SCORE.heavy>
14

>  <SCORE.norm>
-1.15805

>  <RMSD>
45.665

$$$$
ligand
 OpenBabel11021811493D
libRbt.so/2013.1/901 2013/11/27
 14 13  0  0  0  0  0  0  0  0999 V2000
   25.8222    7.5608   33.2172 N   0  0  0  0  0  0  0  0  0  0  0  0
   25.3698    6.4364   34.0067 C   0  0  0  0  0  0  0  0  0  0  0  0
   26.3055    6.2629   35.2208 C   0  0  0  0  0  0  0  0  0  0  0  0
   25.8700    5.1537   36.1909 C   0  0  0  0  0  0  0  0  0  0  0  0
   26.7682    4.9100   37.3299 N   0  0  0  0  0  0  0  0  0  0  0  0
   26.4613    3.9829   38.4176 C   0  0  0  0  0  0  0  0  0  0  0  0
   27.1759    2.6426   38.2792 C   0  0  0  0  0  0  0  0  0  0  0  0
   26.9057    1.9378   36.9459 C   0  0  0  0  0  0  0  0  0  0  0  0
   27.5404    0.5431   36.8937 C   0  0  0  0  0  0  0  0  0  0  0  0
   28.9836    0.6604   37.0918 N   0  0  0  0  0  0  0  0  0  0  0  0
   29.9065   -0.4747   37.1477 C   0  0  0  0  0  0  0  0  0  0  0  0
   31.3495   -0.0544   37.4597 C   0  0  0  0  0  0  0  0  0  0  0  0
   31.4586    0.5834   38.8486 C   0  0  0  0  0  0  0  0  0  0  0  0
   32.8529    0.9221   39.1178 N   0  0  0  0  0  0  0  0  0  0  0  0
  1  2  1  0  0  0  0
  2  3  1  0  0  0  0
  3  4  1  0  0  0  0
  4  5  1  0  0  0  0
  5  6  1  0  0  0  0
  6  7  1  0  0  0  0
  7  8  1  0  0  0  0
  8  9  1  0  0  0  0
  9 10  1  0  0  0  0
 10 11  1  0  0  0  0
 11 12  1  0  0  0  0
 12 13  1  0  0  0  0
 13 14  1  0  0  0  0
M  END
>  <CHROM.1>
176.06782252,177.19466482,174.28719717,100.90228172,-55.66731478,-175.03046608
-58.78685056,177.85477811,-176.14582268,63.34568153,178.01188331,28.05477493
2.93310788,36.86917729,-2.21998039,-0.10764571,2.56754806

>  <Name>
ligand

>  <RI>
0

>  <Rbt.Current_Directory>
/home/itssahil/PROJECTS/Mol_Feturizer/New_Systems/rnas/4FAW

>  <Rbt.Executable>
rbdock ($Id: //depot/dev/client3/rdock/2013.1/src/exe/rbdock.cxx#4 $)

>  <Rbt.Library>
libRbt.so (2013.1, Build901 2013/11/27)

>  <Rbt.Parameter_File>
/export/apps/rDock/src/rDock_2013.1_src/data/scripts/dock_solv.prm

>  <Rbt.Receptor>
prm/blind_docking_100.prm

>  <SCORE>
-9.86204

>  <SCORE.INTER>
0.00853693

>  <SCORE.INTER.CONST>
1

>  <SCORE.INTER.POLAR>
0

>  <SCORE.INTER.ROT>
11

>  <SCORE.INTER.SOLV>
10.0936

>  <SCORE.INTER.VDW>
-14.2922

>  <SCORE.INTER.norm>
0.00060978

>  <SCORE.INTRA>
-9.87058

>  <SCORE.INTRA.DIHEDRAL>
-17.809

>  <SCORE.INTRA.DIHEDRAL.0>
19.1003

>  <SCORE.INTRA.POLAR>
0

>  <SCORE.INTRA.POLAR.0>
0

>  <SCORE.INTRA.REPUL>
0

>  <SCORE.INTRA.REPUL.0>
0

>  <SCORE.INTRA.SOLV>
-0.331421

>  <SCORE.INTRA.SOLV.lig_0>
-47.5333

>  <SCORE.INTRA.VDW>
-0.800348

>  <SCORE.INTRA.VDW.0>
-0.287413

>  <SCORE.INTRA.norm>
-0.705041

>  <SCORE.RESTR>
0

>  <SCORE.RESTR.CAVITY>
0

>  <SCORE.RESTR.norm>
0

>  <SCORE.SYSTEM>
0

>  <SCORE.SYSTEM.CONST>
0

>  <SCORE.SYSTEM.DIHEDRAL>
0

>  <SCORE.SYSTEM.SOLV>
0

>  <SCORE.SYSTEM.norm>
0

>  <SCORE.heavy>
14

>  <SCORE.norm>
-0.704432

>  <RMSD>
45.857

$$$$
ligand
 OpenBabel11021811493D
libRbt.so/2013.1/901 2013/11/27
 14 13  0  0  0  0  0  0  0  0999 V2000
   26.0185   13.1041   35.1855 N   0  0  0  0  0  0  0  0  0  0  0  0
   24.7092   12.5160   35.3646 C   0  0  0  0  0  0  0  0  0  0  0  0
   24.3393   11.7126   34.1008 C   0  0  0  0  0  0  0  0  0  0  0  0
   25.2652   10.5170   33.8281 C   0  0  0  0  0  0  0  0  0  0  0  0
   24.8846    9.6571   32.6969 N   0  0  0  0  0  0  0  0  0  0  0  0
   23.7367    8.7523   32.7196 C   0  0  0  0  0  0  0  0  0  0  0  0
   23.6863    7.8832   33.9720 C   0  0  0  0  0  0  0  0  0  0  0  0
   24.9193    6.9913   34.1500 C   0  0  0  0  0  0  0  0  0  0  0  0
   24.8831    6.2175   35.4732 C   0  0  0  0  0  0  0  0  0  0  0  0
   26.0586    5.3538   35.5612 N   0  0  0  0  0  0  0  0  0  0  0  0
   26.1454    4.0121   34.9816 C   0  0  0  0  0  0  0  0  0  0  0  0
   27.2336    3.1498   35.6361 C   0  0  0  0  0  0  0  0  0  0  0  0
   27.3289    1.7715   34.9736 C   0  0  0  0  0  0  0  0  0  0  0  0
   28.3097    0.9583   35.6864 N   0  0  0  0  0  0  0  0  0  0  0  0
  1  2  1  0  0  0  0
  2  3  1  0  0  0  0
  3  4  1  0  0  0  0
  4  5  1  0  0  0  0
  5  6  1  0  0  0  0
  6  7  1  0  0  0  0
  7  8  1  0  0  0  0
  8  9  1  0  0  0  0
  9 10  1  0  0  0  0
 10 11  1  0  0  0  0
 11 12  1  0  0  0  0
 12 13  1  0  0  0  0
 13 14  1  0  0  0  0
M  END
>  <CHROM.1>
63.59324612,175.14236648,-71.73700766,-48.67174498,-59.61186292,175.46413916
178.04120811,-84.99526307,-158.76700682,-178.03036803,-176.15112303,25.53671044
7.32834562,34.59488692,-1.92186787,0.74326794,-3.02149785

>  <Name>
ligand

>  <RI>
0

>  <Rbt.Current_Directory>
/home/itssahil/PROJECTS/Mol_Feturizer/New_Systems/rnas/4FAW

>  <Rbt.Executable>
rbdock ($Id: //depot/dev/client3/rdock/2013.1/src/exe/rbdock.cxx#4 $)

>  <Rbt.Library>
libRbt.so (2013.1, Build901 2013/11/27)

>  <Rbt.Parameter_File>
/export/apps/rDock/src/rDock_2013.1_src/data/scripts/dock_solv.prm

>  <Rbt.Receptor>
prm/blind_docking_60.prm

>  <SCORE>
-14.09

>  <SCORE.INTER>
-4.91242

>  <SCORE.INTER.CONST>
1

>  <SCORE.INTER.POLAR>
0

>  <SCORE.INTER.ROT>
11

>  <SCORE.INTER.SOLV>
17.2985

>  <SCORE.INTER.VDW>
-19.9744

>  <SCORE.INTER.norm>
-0.350887

>  <SCORE.INTRA>
-9.17757

>  <SCORE.INTRA.DIHEDRAL>
-17.8004

>  <SCORE.INTRA.DIHEDRAL.0>
19.1003

>  <SCORE.INTRA.POLAR>
0

>  <SCORE.INTRA.POLAR.0>
0

>  <SCORE.INTRA.REPUL>
0

>  <SCORE.INTRA.REPUL.0>
0

>  <SCORE.INTRA.SOLV>
-0.401914

>  <SCORE.INTRA.SOLV.lig_0>
-47.5333

>  <SCORE.INTRA.VDW>
-0.0764266

>  <SCORE.INTRA.VDW.0>
-0.287413

>  <SCORE.INTRA.norm>
-0.65554

>  <SCORE.RESTR>
0

>  <SCORE.RESTR.CAVITY>
0

>  <SCORE.RESTR.norm>
0

>  <SCORE.SYSTEM>
0

>  <SCORE.SYSTEM.CONST>
0

>  <SCORE.SYSTEM.DIHEDRAL>
0

>  <SCORE.SYSTEM.SOLV>
0

>  <SCORE.SYSTEM.norm>
0

>  <SCORE.heavy>
14

>  <SCORE.norm>
-1.00643

>  <RMSD>
46.101

$$$$
ligand
 OpenBabel11021811493D
libRbt.so/2013.1/901 2013/11/27
 14 13  0  0  0  0  0  0  0  0999 V2000
    9.7584    4.1847   16.9332 N   0  0  0  0  0  0  0  0  0  0  0  0
   11.0148    3.5684   17.2988 C   0  0  0  0  0  0  0  0  0  0  0  0
   12.1735    4.4951   16.8767 C   0  0  0  0  0  0  0  0  0  0  0  0
   12.1802    5.8531   17.5957 C   0  0  0  0  0  0  0  0  0  0  0  0
   11.0849    6.7696   17.2437 N   0  0  0  0  0  0  0  0  0  0  0  0
   11.2120    7.8399   16.2562 C   0  0  0  0  0  0  0  0  0  0  0  0
   11.9989    9.0395   16.7739 C   0  0  0  0  0  0  0  0  0  0  0  0
   12.3953   10.0331   15.6770 C   0  0  0  0  0  0  0  0  0  0  0  0
   13.1371   11.2494   16.2437 C   0  0  0  0  0  0  0  0  0  0  0  0
   13.5059   12.1446   15.1491 N   0  0  0  0  0  0  0  0  0  0  0  0
   14.3751   13.3139   15.2929 C   0  0  0  0  0  0  0  0  0  0  0  0
   14.8959   13.8380   13.9474 C   0  0  0  0  0  0  0  0  0  0  0  0
   15.8090   12.8149   13.2640 C   0  0  0  0  0  0  0  0  0  0  0  0
   15.0233   11.6468   12.8772 N   0  0  0  0  0  0  0  0  0  0  0  0
  1  2  1  0  0  0  0
  2  3  1  0  0  0  0
  3  4  1  0  0  0  0
  4  5  1  0  0  0  0
  5  6  1  0  0  0  0
  6  7  1  0  0  0  0
  7  8  1  0  0  0  0
  8  9  1  0  0  0  0
  9 10  1  0  0  0  0
 10 11  1  0  0  0  0
 11 12  1  0  0  0  0
 12 13  1  0  0  0  0
 13 14  1  0  0  0  0
M  END
>  <CHROM.1>
63.33778320,-68.87791142,-96.93005769,-75.51037287,167.80821480,177.82821221
179.06510000,-171.58753168,164.33517151,-64.82278892,66.89138174,12.75475156
9.05665460,15.81650219,-2.17585355,0.80650143,0.10647670

>  <Name>
ligand

>  <RI>
0

>  <Rbt.Current_Directory>
/home/itssahil/PROJECTS/Mol_Feturizer/New_Systems/rnas/4FAW

>  <Rbt.Executable>
rbdock ($Id: //depot/dev/client3/rdock/2013.1/src/exe/rbdock.cxx#4 $)

>  <Rbt.Library>
libRbt.so (2013.1, Build901 2013/11/27)

>  <Rbt.Parameter_File>
/export/apps/rDock/src/rDock_2013.1_src/data/scripts/dock_solv.prm

>  <Rbt.Receptor>
prm/blind_docking_40.prm

>  <SCORE>
-8.29934

>  <SCORE.INTER>
-1.60424

>  <SCORE.INTER.CONST>
1

>  <SCORE.INTER.POLAR>
0

>  <SCORE.INTER.ROT>
11

>  <SCORE.INTER.SOLV>
14.8792

>  <SCORE.INTER.VDW>
-16.9625

>  <SCORE.INTER.norm>
-0.114588

>  <SCORE.INTRA>
-6.69511

>  <SCORE.INTRA.DIHEDRAL>
-16.6854

>  <SCORE.INTRA.DIHEDRAL.0>
19.1003

>  <SCORE.INTRA.POLAR>
0

>  <SCORE.INTRA.POLAR.0>
0

>  <SCORE.INTRA.REPUL>
0

>  <SCORE.INTRA.REPUL.0>
0

>  <SCORE.INTRA.SOLV>
5.0214

>  <SCORE.INTRA.SOLV.lig_0>
-47.5333

>  <SCORE.INTRA.VDW>
-0.863131

>  <SCORE.INTRA.VDW.0>
-0.287413

>  <SCORE.INTRA.norm>
-0.478222

>  <SCORE.RESTR>
0

>  <SCORE.RESTR.CAVITY>
0

>  <SCORE.RESTR.norm>
0

>  <SCORE.SYSTEM>
0

>  <SCORE.SYSTEM.CONST>
0

>  <SCORE.SYSTEM.DIHEDRAL>
0

>  <SCORE.SYSTEM.SOLV>
0

>  <SCORE.SYSTEM.norm>
0

>  <SCORE.heavy>
14

>  <SCORE.norm>
-0.59281

>  <RMSD>
46.229

$$$$
ligand
 OpenBabel11021811493D
libRbt.so/2013.1/901 2013/11/27
 14 13  0  0  0  0  0  0  0  0999 V2000
   17.8229   16.2601   14.9811 N   0  0  0  0  0  0  0  0  0  0  0  0
   17.7766   17.6660   14.6443 C   0  0  0  0  0  0  0  0  0  0  0  0
   19.1262   18.0811   14.0231 C   0  0  0  0  0  0  0  0  0  0  0  0
   19.2252   19.5775   13.6883 C   0  0  0  0  0  0  0  0  0  0  0  0
   19.0477   20.5001   14.8200 N   0  0  0  0  0  0  0  0  0  0  0  0
   19.1703   21.9524   14.7061 C   0  0  0  0  0  0  0  0  0  0  0  0
   18.0116   22.7020   15.3554 C   0  0  0  0  0  0  0  0  0  0  0  0
   18.2043   24.2217   15.3861 C   0  0  0  0  0  0  0  0  0  0  0  0
   17.0363   24.9355   16.0769 C   0  0  0  0  0  0  0  0  0  0  0  0
   17.3631   26.3504   16.2416 N   0  0  0  0  0  0  0  0  0  0  0  0
   16.3779   27.4037   16.4933 C   0  0  0  0  0  0  0  0  0  0  0  0
   16.8563   28.4318   17.5279 C   0  0  0  0  0  0  0  0  0  0  0  0
   17.0365   27.7934   18.9091 C   0  0  0  0  0  0  0  0  0  0  0  0
   17.4010   28.8250   19.8757 N   0  0  0  0  0  0  0  0  0  0  0  0
  1  2  1  0  0  0  0
  2  3  1  0  0  0  0
  3  4  1  0  0  0  0
  4  5  1  0  0  0  0
  5  6  1  0  0  0  0
  6  7  1  0  0  0  0
  7  8  1  0  0  0  0
  8  9  1  0  0  0  0
  9 10  1  0  0  0  0
 10 11  1  0  0  0  0
 11 12  1  0  0  0  0
 12 13  1  0  0  0  0
 13 14  1  0  0  0  0
M  END
>  <CHROM.1>
-177.01510752,59.01509436,177.02951091,131.80599439,173.37821260,-178.57133857
172.11751913,161.43444715,139.11249744,-64.77335211,-176.09823505,17.88970606
23.19299521,15.90897872,1.14022565,-1.21042253,3.08897873

>  <Name>
ligand

>  <RI>
0

>  <Rbt.Current_Directory>
/home/itssahil/PROJECTS/Mol_Feturizer/New_Systems/rnas/4FAW

>  <Rbt.Executable>
rbdock ($Id: //depot/dev/client3/rdock/2013.1/src/exe/rbdock.cxx#4 $)

>  <Rbt.Library>
libRbt.so (2013.1, Build901 2013/11/27)

>  <Rbt.Parameter_File>
/export/apps/rDock/src/rDock_2013.1_src/data/scripts/dock_solv.prm

>  <Rbt.Receptor>
prm/blind_docking_40.prm

>  <SCORE>
-9.08283

>  <SCORE.INTER>
0.48873

>  <SCORE.INTER.CONST>
1

>  <SCORE.INTER.POLAR>
0

>  <SCORE.INTER.ROT>
11

>  <SCORE.INTER.SOLV>
14.9753

>  <SCORE.INTER.VDW>
-15.5993

>  <SCORE.INTER.norm>
0.0349093

>  <SCORE.INTRA>
-9.57156

>  <SCORE.INTRA.DIHEDRAL>
-16.2334

>  <SCORE.INTRA.DIHEDRAL.0>
19.1003

>  <SCORE.INTRA.POLAR>
0

>  <SCORE.INTRA.POLAR.0>
0

>  <SCORE.INTRA.REPUL>
0

>  <SCORE.INTRA.REPUL.0>
0

>  <SCORE.INTRA.SOLV>
-0.863032

>  <SCORE.INTRA.SOLV.lig_0>
-47.5333

>  <SCORE.INTRA.VDW>
-1.02332

>  <SCORE.INTRA.VDW.0>
-0.287413

>  <SCORE.INTRA.norm>
-0.683683

>  <SCORE.RESTR>
0

>  <SCORE.RESTR.CAVITY>
0

>  <SCORE.RESTR.norm>
0

>  <SCORE.SYSTEM>
0

>  <SCORE.SYSTEM.CONST>
0

>  <SCORE.SYSTEM.DIHEDRAL>
0

>  <SCORE.SYSTEM.SOLV>
0

>  <SCORE.SYSTEM.norm>
0

>  <SCORE.heavy>
14

>  <SCORE.norm>
-0.648774

>  <RMSD>
46.235

$$$$
ligand
 OpenBabel11021811493D
libRbt.so/2013.1/901 2013/11/27
 14 13  0  0  0  0  0  0  0  0999 V2000
   21.2192   -2.0459   38.5141 N   0  0  0  0  0  0  0  0  0  0  0  0
   22.0268   -1.1854   37.6778 C   0  0  0  0  0  0  0  0  0  0  0  0
   21.3829   -1.0916   36.2792 C   0  0  0  0  0  0  0  0  0  0  0  0
   22.1694   -0.2209   35.2870 C   0  0  0  0  0  0  0  0  0  0  0  0
   23.5059   -0.7145   34.9214 N   0  0  0  0  0  0  0  0  0  0  0  0
   24.1468   -0.4371   33.6372 C   0  0  0  0  0  0  0  0  0  0  0  0
   25.4276    0.3799   33.7734 C   0  0  0  0  0  0  0  0  0  0  0  0
   25.1894    1.8226   34.2308 C   0  0  0  0  0  0  0  0  0  0  0  0
   24.4824    2.6571   33.1563 C   0  0  0  0  0  0  0  0  0  0  0  0
   24.0488    3.9263   33.7367 N   0  0  0  0  0  0  0  0  0  0  0  0
   24.9362    5.0587   34.0080 C   0  0  0  0  0  0  0  0  0  0  0  0
   25.3610    5.8013   32.7336 C   0  0  0  0  0  0  0  0  0  0  0  0
   26.3536    6.9259   33.0459 C   0  0  0  0  0  0  0  0  0  0  0  0
   26.7654    7.5681   31.8012 N   0  0  0  0  0  0  0  0  0  0  0  0
  1  2  1  0  0  0  0
  2  3  1  0  0  0  0
  3  4  1  0  0  0  0
  4  5  1  0  0  0  0
  5  6  1  0  0  0  0
  6  7  1  0  0  0  0
  7  8  1  0  0  0  0
  8  9  1  0  0  0  0
  9 10  1  0  0  0  0
 10 11  1  0  0  0  0
 11 12  1  0  0  0  0
 12 13  1  0  0  0  0
 13 14  1  0  0  0  0
M  END
>  <CHROM.1>
-178.88983175,64.72608382,151.37867325,116.71010438,-68.53972764,-68.70786266
168.87970522,76.95050134,73.87438251,-176.59655851,177.88679741,24.07259510
2.03168297,34.48579518,2.29171603,-0.89572851,-3.02623195

>  <Name>
ligand

>  <RI>
0

>  <Rbt.Current_Directory>
/home/itssahil/PROJECTS/Mol_Feturizer/New_Systems/rnas/4FAW

>  <Rbt.Executable>
rbdock ($Id: //depot/dev/client3/rdock/2013.1/src/exe/rbdock.cxx#4 $)

>  <Rbt.Library>
libRbt.so (2013.1, Build901 2013/11/27)

>  <Rbt.Parameter_File>
/export/apps/rDock/src/rDock_2013.1_src/data/scripts/dock_solv.prm

>  <Rbt.Receptor>
prm/blind_docking_100.prm

>  <SCORE>
-7.80575

>  <SCORE.INTER>
0.851453

>  <SCORE.INTER.CONST>
1

>  <SCORE.INTER.POLAR>
0

>  <SCORE.INTER.ROT>
11

>  <SCORE.INTER.SOLV>
19.9346

>  <SCORE.INTER.VDW>
-17.0106

>  <SCORE.INTER.norm>
0.0608181

>  <SCORE.INTRA>
-8.6572

>  <SCORE.INTRA.DIHEDRAL>
-15.7918

>  <SCORE.INTRA.DIHEDRAL.0>
19.1003

>  <SCORE.INTRA.POLAR>
0

>  <SCORE.INTRA.POLAR.0>
0

>  <SCORE.INTRA.REPUL>
0

>  <SCORE.INTRA.REPUL.0>
0

>  <SCORE.INTRA.SOLV>
-0.537161

>  <SCORE.INTRA.SOLV.lig_0>
-47.5333

>  <SCORE.INTRA.VDW>
-0.492737

>  <SCORE.INTRA.VDW.0>
-0.287413

>  <SCORE.INTRA.norm>
-0.618372

>  <SCORE.RESTR>
0

>  <SCORE.RESTR.CAVITY>
0

>  <SCORE.RESTR.norm>
0

>  <SCORE.SYSTEM>
0

>  <SCORE.SYSTEM.CONST>
0

>  <SCORE.SYSTEM.DIHEDRAL>
0

>  <SCORE.SYSTEM.SOLV>
0

>  <SCORE.SYSTEM.norm>
0

>  <SCORE.heavy>
14

>  <SCORE.norm>
-0.557553

>  <RMSD>
46.759

$$$$
ligand
 OpenBabel11021811493D
libRbt.so/2013.1/901 2013/11/27
 14 13  0  0  0  0  0  0  0  0999 V2000
    9.0701    4.2634   17.3747 N   0  0  0  0  0  0  0  0  0  0  0  0
   10.4254    4.7678   17.3472 C   0  0  0  0  0  0  0  0  0  0  0  0
   10.4178    6.2060   16.7894 C   0  0  0  0  0  0  0  0  0  0  0  0
   11.8073    6.8591   16.7282 C   0  0  0  0  0  0  0  0  0  0  0  0
   11.8385    8.2567   16.2705 N   0  0  0  0  0  0  0  0  0  0  0  0
   11.5010    9.3946   17.1237 C   0  0  0  0  0  0  0  0  0  0  0  0
   12.2388   10.6717   16.7351 C   0  0  0  0  0  0  0  0  0  0  0  0
   11.9004   11.8712   17.6262 C   0  0  0  0  0  0  0  0  0  0  0  0
   12.7111   13.1161   17.2469 C   0  0  0  0  0  0  0  0  0  0  0  0
   12.3907   13.5027   15.8744 N   0  0  0  0  0  0  0  0  0  0  0  0
   13.1171   13.0361   14.6920 C   0  0  0  0  0  0  0  0  0  0  0  0
   14.5626   13.5498   14.6397 C   0  0  0  0  0  0  0  0  0  0  0  0
   15.2924   13.0410   13.3922 C   0  0  0  0  0  0  0  0  0  0  0  0
   15.3601   11.5832   13.4315 N   0  0  0  0  0  0  0  0  0  0  0  0
  1  2  1  0  0  0  0
  2  3  1  0  0  0  0
  3  4  1  0  0  0  0
  4  5  1  0  0  0  0
  5  6  1  0  0  0  0
  6  7  1  0  0  0  0
  7  8  1  0  0  0  0
  8  9  1  0  0  0  0
  9 10  1  0  0  0  0
 10 11  1  0  0  0  0
 11 12  1  0  0  0  0
 12 13  1  0  0  0  0
 13 14  1  0  0  0  0
M  END
>  <CHROM.1>
179.25632779,-176.83540237,79.08823526,150.70410656,-179.67857718,177.25104141
61.68097738,-91.18413869,-66.31413641,179.91246072,-61.98132528,12.33101350
10.00878266,16.09097630,-2.26711013,0.83996500,0.25748388

>  <Name>
ligand

>  <RI>
0

>  <Rbt.Current_Directory>
/home/itssahil/PROJECTS/Mol_Feturizer/New_Systems/rnas/4FAW

>  <Rbt.Executable>
rbdock ($Id: //depot/dev/client3/rdock/2013.1/src/exe/rbdock.cxx#4 $)

>  <Rbt.Library>
libRbt.so (2013.1, Build901 2013/11/27)

>  <Rbt.Parameter_File>
/export/apps/rDock/src/rDock_2013.1_src/data/scripts/dock_solv.prm

>  <Rbt.Receptor>
prm/blind_docking_40.prm

>  <SCORE>
-14.2696

>  <SCORE.INTER>
-5.23038

>  <SCORE.INTER.CONST>
1

>  <SCORE.INTER.POLAR>
0

>  <SCORE.INTER.ROT>
11

>  <SCORE.INTER.SOLV>
14.7066

>  <SCORE.INTER.VDW>
-19.3224

>  <SCORE.INTER.norm>
-0.373599

>  <SCORE.INTRA>
-9.03923

>  <SCORE.INTRA.DIHEDRAL>
-17.4798

>  <SCORE.INTRA.DIHEDRAL.0>
19.1003

>  <SCORE.INTRA.POLAR>
0

>  <SCORE.INTRA.POLAR.0>
0

>  <SCORE.INTRA.REPUL>
0

>  <SCORE.INTRA.REPUL.0>
0

>  <SCORE.INTRA.SOLV>
-0.188548

>  <SCORE.INTRA.SOLV.lig_0>
-47.5333

>  <SCORE.INTRA.VDW>
-0.205076

>  <SCORE.INTRA.VDW.0>
-0.287413

>  <SCORE.INTRA.norm>
-0.645659

>  <SCORE.RESTR>
0

>  <SCORE.RESTR.CAVITY>
0

>  <SCORE.RESTR.norm>
0

>  <SCORE.SYSTEM>
0

>  <SCORE.SYSTEM.CONST>
0

>  <SCORE.SYSTEM.DIHEDRAL>
0

>  <SCORE.SYSTEM.SOLV>
0

>  <SCORE.SYSTEM.norm>
0

>  <SCORE.heavy>
14

>  <SCORE.norm>
-1.01926

>  <RMSD>
46.865

$$$$
ligand
 OpenBabel11021811493D
libRbt.so/2013.1/901 2013/11/27
 14 13  0  0  0  0  0  0  0  0999 V2000
   16.9718   29.0525   21.3317 N   0  0  0  0  0  0  0  0  0  0  0  0
   16.6004   29.3030   19.9564 C   0  0  0  0  0  0  0  0  0  0  0  0
   16.6372   27.9744   19.1734 C   0  0  0  0  0  0  0  0  0  0  0  0
   16.1326   28.0884   17.7265 C   0  0  0  0  0  0  0  0  0  0  0  0
   16.1320   26.8402   16.9483 N   0  0  0  0  0  0  0  0  0  0  0  0
   17.3445   26.2119   16.4269 C   0  0  0  0  0  0  0  0  0  0  0  0
   17.1318   24.7611   16.0069 C   0  0  0  0  0  0  0  0  0  0  0  0
   18.3733   24.1142   15.3843 C   0  0  0  0  0  0  0  0  0  0  0  0
   18.1772   22.6137   15.1374 C   0  0  0  0  0  0  0  0  0  0  0  0
   18.0676   21.9224   16.4202 N   0  0  0  0  0  0  0  0  0  0  0  0
   17.7940   20.4918   16.5690 C   0  0  0  0  0  0  0  0  0  0  0  0
   18.9332   19.6093   16.0402 C   0  0  0  0  0  0  0  0  0  0  0  0
   18.5431   18.1276   16.0486 C   0  0  0  0  0  0  0  0  0  0  0  0
   19.6334   17.3365   15.4859 N   0  0  0  0  0  0  0  0  0  0  0  0
  1  2  1  0  0  0  0
  2  3  1  0  0  0  0
  3  4  1  0  0  0  0
  4  5  1  0  0  0  0
  5  6  1  0  0  0  0
  6  7  1  0  0  0  0
  7  8  1  0  0  0  0
  8  9  1  0  0  0  0
  9 10  1  0  0  0  0
 10 11  1  0  0  0  0
 11 12  1  0  0  0  0
 12 13  1  0  0  0  0
 13 14  1  0  0  0  0
M  END
>  <CHROM.1>
174.54492194,-179.15320300,-73.79528183,163.85003890,176.69729950,172.85286014
-66.98905827,176.17040767,66.30155825,-172.85685747,177.61178972,17.60512086
24.03202256,17.04663544,-2.59321049,1.31412007,-1.78726239

>  <Name>
ligand

>  <RI>
0

>  <Rbt.Current_Directory>
/home/itssahil/PROJECTS/Mol_Feturizer/New_Systems/rnas/4FAW

>  <Rbt.Executable>
rbdock ($Id: //depot/dev/client3/rdock/2013.1/src/exe/rbdock.cxx#4 $)

>  <Rbt.Library>
libRbt.so (2013.1, Build901 2013/11/27)

>  <Rbt.Parameter_File>
/export/apps/rDock/src/rDock_2013.1_src/data/scripts/dock_solv.prm

>  <Rbt.Receptor>
prm/blind_docking_100.prm

>  <SCORE>
-10.3177

>  <SCORE.INTER>
-0.237062

>  <SCORE.INTER.CONST>
1

>  <SCORE.INTER.POLAR>
0

>  <SCORE.INTER.ROT>
11

>  <SCORE.INTER.SOLV>
14.058

>  <SCORE.INTER.VDW>
-15.7774

>  <SCORE.INTER.norm>
-0.016933

>  <SCORE.INTRA>
-10.0806

>  <SCORE.INTRA.DIHEDRAL>
-17.9415

>  <SCORE.INTRA.DIHEDRAL.0>
19.1003

>  <SCORE.INTRA.POLAR>
0

>  <SCORE.INTRA.POLAR.0>
0

>  <SCORE.INTRA.REPUL>
0

>  <SCORE.INTRA.REPUL.0>
0

>  <SCORE.INTRA.SOLV>
-1.08152

>  <SCORE.INTRA.SOLV.lig_0>
-47.5333

>  <SCORE.INTRA.VDW>
-0.569092

>  <SCORE.INTRA.VDW.0>
-0.287413

>  <SCORE.INTRA.norm>
-0.720043

>  <SCORE.RESTR>
0

>  <SCORE.RESTR.CAVITY>
0

>  <SCORE.RESTR.norm>
0

>  <SCORE.SYSTEM>
0

>  <SCORE.SYSTEM.CONST>
0

>  <SCORE.SYSTEM.DIHEDRAL>
0

>  <SCORE.SYSTEM.SOLV>
0

>  <SCORE.SYSTEM.norm>
0

>  <SCORE.heavy>
14

>  <SCORE.norm>
-0.736976

>  <RMSD>
47.236

$$$$
ligand
 OpenBabel11021811493D
libRbt.so/2013.1/901 2013/11/27
 14 13  0  0  0  0  0  0  0  0999 V2000
   14.4311   29.1986   20.6923 N   0  0  0  0  0  0  0  0  0  0  0  0
   14.9566   28.8598   19.3880 C   0  0  0  0  0  0  0  0  0  0  0  0
   16.4936   28.9879   19.4139 C   0  0  0  0  0  0  0  0  0  0  0  0
   17.1712   28.6446   18.0782 C   0  0  0  0  0  0  0  0  0  0  0  0
   16.9479   27.2790   17.5792 N   0  0  0  0  0  0  0  0  0  0  0  0
   16.1247   26.9695   16.4115 C   0  0  0  0  0  0  0  0  0  0  0  0
   16.0517   25.4758   16.1116 C   0  0  0  0  0  0  0  0  0  0  0  0
   17.4227   24.8238   15.9047 C   0  0  0  0  0  0  0  0  0  0  0  0
   17.3341   23.5611   15.0395 C   0  0  0  0  0  0  0  0  0  0  0  0
   18.6710   22.9954   14.8704 N   0  0  0  0  0  0  0  0  0  0  0  0
   19.0498   22.0720   13.7994 C   0  0  0  0  0  0  0  0  0  0  0  0
   19.9082   20.9013   14.2982 C   0  0  0  0  0  0  0  0  0  0  0  0
   19.1185   19.9925   15.2458 C   0  0  0  0  0  0  0  0  0  0  0  0
   19.9545   18.8635   15.6429 N   0  0  0  0  0  0  0  0  0  0  0  0
  1  2  1  0  0  0  0
  2  3  1  0  0  0  0
  3  4  1  0  0  0  0
  4  5  1  0  0  0  0
  5  6  1  0  0  0  0
  6  7  1  0  0  0  0
  7  8  1  0  0  0  0
  8  9  1  0  0  0  0
  9 10  1  0  0  0  0
 10 11  1  0  0  0  0
 11 12  1  0  0  0  0
 12 13  1  0  0  0  0
 13 14  1  0  0  0  0
M  END
>  <CHROM.1>
179.71610065,-60.02840585,109.66968196,-179.70611416,-56.72001232,-155.03512001
179.50410525,-159.73410382,-136.31678758,65.67580103,177.38427193,17.40249707
24.90189046,16.60515427,-2.98965319,1.18259601,-1.23925644

>  <Name>
ligand

>  <RI>
0

>  <Rbt.Current_Directory>
/home/itssahil/PROJECTS/Mol_Feturizer/New_Systems/rnas/4FAW

>  <Rbt.Executable>
rbdock ($Id: //depot/dev/client3/rdock/2013.1/src/exe/rbdock.cxx#4 $)

>  <Rbt.Library>
libRbt.so (2013.1, Build901 2013/11/27)

>  <Rbt.Parameter_File>
/export/apps/rDock/src/rDock_2013.1_src/data/scripts/dock_solv.prm

>  <Rbt.Receptor>
prm/blind_docking_40.prm

>  <SCORE>
-8.72148

>  <SCORE.INTER>
-0.318628

>  <SCORE.INTER.CONST>
1

>  <SCORE.INTER.POLAR>
0

>  <SCORE.INTER.ROT>
11

>  <SCORE.INTER.SOLV>
9.371

>  <SCORE.INTER.VDW>
-14.2694

>  <SCORE.INTER.norm>
-0.0227591

>  <SCORE.INTRA>
-8.40286

>  <SCORE.INTRA.DIHEDRAL>
-14.2334

>  <SCORE.INTRA.DIHEDRAL.0>
19.1003

>  <SCORE.INTRA.POLAR>
0

>  <SCORE.INTRA.POLAR.0>
0

>  <SCORE.INTRA.REPUL>
0

>  <SCORE.INTRA.REPUL.0>
0

>  <SCORE.INTRA.SOLV>
-0.489041

>  <SCORE.INTRA.SOLV.lig_0>
-47.5333

>  <SCORE.INTRA.VDW>
-1.04165

>  <SCORE.INTRA.VDW.0>
-0.287413

>  <SCORE.INTRA.norm>
-0.600204

>  <SCORE.RESTR>
0

>  <SCORE.RESTR.CAVITY>
0

>  <SCORE.RESTR.norm>
0

>  <SCORE.SYSTEM>
0

>  <SCORE.SYSTEM.CONST>
0

>  <SCORE.SYSTEM.DIHEDRAL>
0

>  <SCORE.SYSTEM.SOLV>
0

>  <SCORE.SYSTEM.norm>
0

>  <SCORE.heavy>
14

>  <SCORE.norm>
-0.622963

>  <RMSD>
47.627

$$$$
ligand
 OpenBabel11021811493D
libRbt.so/2013.1/901 2013/11/27
 14 13  0  0  0  0  0  0  0  0999 V2000
   16.5101   13.7839   16.7024 N   0  0  0  0  0  0  0  0  0  0  0  0
   15.7700   12.6805   16.1307 C   0  0  0  0  0  0  0  0  0  0  0  0
   14.4421   12.5120   16.8975 C   0  0  0  0  0  0  0  0  0  0  0  0
   13.5640   11.3622   16.3799 C   0  0  0  0  0  0  0  0  0  0  0  0
   12.3352   11.1004   17.1447 N   0  0  0  0  0  0  0  0  0  0  0  0
   11.7373    9.7738   17.2850 C   0  0  0  0  0  0  0  0  0  0  0  0
   11.8695    8.9233   16.0259 C   0  0  0  0  0  0  0  0  0  0  0  0
   10.9304    7.7129   16.0016 C   0  0  0  0  0  0  0  0  0  0  0  0
   11.3634    6.6293   16.9962 C   0  0  0  0  0  0  0  0  0  0  0  0
   10.3259    5.6031   17.0759 N   0  0  0  0  0  0  0  0  0  0  0  0
   10.1307    4.7104   18.2197 C   0  0  0  0  0  0  0  0  0  0  0  0
    8.7845    4.9300   18.9238 C   0  0  0  0  0  0  0  0  0  0  0  0
    7.6157    4.4445   18.0602 C   0  0  0  0  0  0  0  0  0  0  0  0
    7.7046    2.9967   17.8945 N   0  0  0  0  0  0  0  0  0  0  0  0
  1  2  1  0  0  0  0
  2  3  1  0  0  0  0
  3  4  1  0  0  0  0
  4  5  1  0  0  0  0
  5  6  1  0  0  0  0
  6  7  1  0  0  0  0
  7  8  1  0  0  0  0
  8  9  1  0  0  0  0
  9 10  1  0  0  0  0
 10 11  1  0  0  0  0
 11 12  1  0  0  0  0
 12 13  1  0  0  0  0
 13 14  1  0  0  0  0
M  END
>  <CHROM.1>
-179.92386585,175.59469692,-148.51897527,-36.17416538,-163.69925282,-71.66907948
171.35292300,-156.33990525,115.53586923,70.45465235,65.18500145,11.64878263
8.36878196,17.12411519,-0.74878894,-0.61182541,-2.75828943

>  <Name>
ligand

>  <RI>
0

>  <Rbt.Current_Directory>
/home/itssahil/PROJECTS/Mol_Feturizer/New_Systems/rnas/4FAW

>  <Rbt.Executable>
rbdock ($Id: //depot/dev/client3/rdock/2013.1/src/exe/rbdock.cxx#4 $)

>  <Rbt.Library>
libRbt.so (2013.1, Build901 2013/11/27)

>  <Rbt.Parameter_File>
/export/apps/rDock/src/rDock_2013.1_src/data/scripts/dock_solv.prm

>  <Rbt.Receptor>
prm/blind_docking_80.prm

>  <SCORE>
-8.02343

>  <SCORE.INTER>
-1.55901

>  <SCORE.INTER.CONST>
1

>  <SCORE.INTER.POLAR>
0

>  <SCORE.INTER.ROT>
11

>  <SCORE.INTER.SOLV>
16.2069

>  <SCORE.INTER.VDW>
-17.375

>  <SCORE.INTER.norm>
-0.111358

>  <SCORE.INTRA>
-6.46442

>  <SCORE.INTRA.DIHEDRAL>
-14.1014

>  <SCORE.INTRA.DIHEDRAL.0>
19.1003

>  <SCORE.INTRA.POLAR>
0

>  <SCORE.INTRA.POLAR.0>
0

>  <SCORE.INTRA.REPUL>
0

>  <SCORE.INTRA.REPUL.0>
0

>  <SCORE.INTRA.SOLV>
0.261708

>  <SCORE.INTRA.SOLV.lig_0>
-47.5333

>  <SCORE.INTRA.VDW>
0.455414

>  <SCORE.INTRA.VDW.0>
-0.287413

>  <SCORE.INTRA.norm>
-0.461744

>  <SCORE.RESTR>
0

>  <SCORE.RESTR.CAVITY>
0

>  <SCORE.RESTR.norm>
0

>  <SCORE.SYSTEM>
0

>  <SCORE.SYSTEM.CONST>
0

>  <SCORE.SYSTEM.DIHEDRAL>
0

>  <SCORE.SYSTEM.SOLV>
0

>  <SCORE.SYSTEM.norm>
0

>  <SCORE.heavy>
14

>  <SCORE.norm>
-0.573102

>  <RMSD>
47.687

$$$$
ligand
 OpenBabel11021811493D
libRbt.so/2013.1/901 2013/11/27
 14 13  0  0  0  0  0  0  0  0999 V2000
   17.1135   12.4830   14.2574 N   0  0  0  0  0  0  0  0  0  0  0  0
   16.0047   12.0941   15.1010 C   0  0  0  0  0  0  0  0  0  0  0  0
   14.7280   12.8142   14.6206 C   0  0  0  0  0  0  0  0  0  0  0  0
   13.4899   12.5336   15.4863 C   0  0  0  0  0  0  0  0  0  0  0  0
   13.5826   12.9551   16.8924 N   0  0  0  0  0  0  0  0  0  0  0  0
   12.6905   13.9398   17.5018 C   0  0  0  0  0  0  0  0  0  0  0  0
   13.0099   14.2074   18.9690 C   0  0  0  0  0  0  0  0  0  0  0  0
   12.0791   15.2342   19.6223 C   0  0  0  0  0  0  0  0  0  0  0  0
   12.2224   15.2509   21.1488 C   0  0  0  0  0  0  0  0  0  0  0  0
   12.1899   13.8796   21.6529 N   0  0  0  0  0  0  0  0  0  0  0  0
   12.2624   13.5164   23.0694 C   0  0  0  0  0  0  0  0  0  0  0  0
   11.0916   12.6308   23.5178 C   0  0  0  0  0  0  0  0  0  0  0  0
   11.1950   12.2776   25.0052 C   0  0  0  0  0  0  0  0  0  0  0  0
   11.0379   13.4901   25.8030 N   0  0  0  0  0  0  0  0  0  0  0  0
  1  2  1  0  0  0  0
  2  3  1  0  0  0  0
  3  4  1  0  0  0  0
  4  5  1  0  0  0  0
  5  6  1  0  0  0  0
  6  7  1  0  0  0  0
  7  8  1  0  0  0  0
  8  9  1  0  0  0  0
  9 10  1  0  0  0  0
 10 11  1  0  0  0  0
 11 12  1  0  0  0  0
 12 13  1  0  0  0  0
 13 14  1  0  0  0  0
M  END
>  <CHROM.1>
-177.12722610,61.45711810,118.92425150,-179.42544533,-179.79217423,167.40330381
-47.36131908,-178.18077342,125.34040565,-179.65308553,65.89950418,13.04962499
13.37913248,19.47477226,-0.88645835,-0.91306741,2.07036319

>  <Name>
ligand

>  <RI>
0

>  <Rbt.Current_Directory>
/home/itssahil/PROJECTS/Mol_Feturizer/New_Systems/rnas/4FAW

>  <Rbt.Executable>
rbdock ($Id: //depot/dev/client3/rdock/2013.1/src/exe/rbdock.cxx#4 $)

>  <Rbt.Library>
libRbt.so (2013.1, Build901 2013/11/27)

>  <Rbt.Parameter_File>
/export/apps/rDock/src/rDock_2013.1_src/data/scripts/dock_solv.prm

>  <Rbt.Receptor>
prm/blind_docking_100.prm

>  <SCORE>
-12.0927

>  <SCORE.INTER>
-3.97681

>  <SCORE.INTER.CONST>
1

>  <SCORE.INTER.POLAR>
0

>  <SCORE.INTER.ROT>
11

>  <SCORE.INTER.SOLV>
14.4752

>  <SCORE.INTER.VDW>
-18.4096

>  <SCORE.INTER.norm>
-0.284058

>  <SCORE.INTRA>
-8.1159

>  <SCORE.INTRA.DIHEDRAL>
-15.3267

>  <SCORE.INTRA.DIHEDRAL.0>
19.1003

>  <SCORE.INTRA.POLAR>
0

>  <SCORE.INTRA.POLAR.0>
0

>  <SCORE.INTRA.REPUL>
0

>  <SCORE.INTRA.REPUL.0>
0

>  <SCORE.INTRA.SOLV>
0.119438

>  <SCORE.INTRA.SOLV.lig_0>
-47.5333

>  <SCORE.INTRA.VDW>
-0.512246

>  <SCORE.INTRA.VDW.0>
-0.287413

>  <SCORE.INTRA.norm>
-0.579707

>  <SCORE.RESTR>
0

>  <SCORE.RESTR.CAVITY>
0

>  <SCORE.RESTR.norm>
0

>  <SCORE.SYSTEM>
0

>  <SCORE.SYSTEM.CONST>
0

>  <SCORE.SYSTEM.DIHEDRAL>
0

>  <SCORE.SYSTEM.SOLV>
0

>  <SCORE.SYSTEM.norm>
0

>  <SCORE.heavy>
14

>  <SCORE.norm>
-0.863765

>  <RMSD>
48.187

$$$$
ligand
 OpenBabel11021811493D
libRbt.so/2013.1/901 2013/11/27
 14 13  0  0  0  0  0  0  0  0999 V2000
   10.4732   13.0328   25.2672 N   0  0  0  0  0  0  0  0  0  0  0  0
   11.3995   12.2118   24.5188 C   0  0  0  0  0  0  0  0  0  0  0  0
   12.2943   13.1217   23.6522 C   0  0  0  0  0  0  0  0  0  0  0  0
   11.5234   13.9415   22.6060 C   0  0  0  0  0  0  0  0  0  0  0  0
   12.3390   14.8168   21.7502 N   0  0  0  0  0  0  0  0  0  0  0  0
   11.8498   15.4208   20.5122 C   0  0  0  0  0  0  0  0  0  0  0  0
   12.6848   15.0430   19.2930 C   0  0  0  0  0  0  0  0  0  0  0  0
   12.9617   13.5402   19.1807 C   0  0  0  0  0  0  0  0  0  0  0  0
   13.6230   13.1756   17.8463 C   0  0  0  0  0  0  0  0  0  0  0  0
   12.5996   13.0889   16.8067 N   0  0  0  0  0  0  0  0  0  0  0  0
   12.6265   13.8453   15.5535 C   0  0  0  0  0  0  0  0  0  0  0  0
   13.7751   13.4226   14.6270 C   0  0  0  0  0  0  0  0  0  0  0  0
   13.5581   12.0094   14.0760 C   0  0  0  0  0  0  0  0  0  0  0  0
   13.6677   11.0430   15.1647 N   0  0  0  0  0  0  0  0  0  0  0  0
  1  2  1  0  0  0  0
  2  3  1  0  0  0  0
  3  4  1  0  0  0  0
  4  5  1  0  0  0  0
  5  6  1  0  0  0  0
  6  7  1  0  0  0  0
  7  8  1  0  0  0  0
  8  9  1  0  0  0  0
  9 10  1  0  0  0  0
 10 11  1  0  0  0  0
 11 12  1  0  0  0  0
 12 13  1  0  0  0  0
 13 14  1  0  0  0  0
M  END
>  <CHROM.1>
-62.04531543,-179.58239160,164.92835004,-121.86145293,48.34364979,171.68272578
-80.76026423,124.67300513,66.93927329,68.60777737,-67.73646618,12.52693634
13.40827438,19.34658547,-2.99438581,1.34708264,-0.23535328

>  <Name>
ligand

>  <RI>
0

>  <Rbt.Current_Directory>
/home/itssahil/PROJECTS/Mol_Feturizer/New_Systems/rnas/4FAW

>  <Rbt.Executable>
rbdock ($Id: //depot/dev/client3/rdock/2013.1/src/exe/rbdock.cxx#4 $)

>  <Rbt.Library>
libRbt.so (2013.1, Build901 2013/11/27)

>  <Rbt.Parameter_File>
/export/apps/rDock/src/rDock_2013.1_src/data/scripts/dock_solv.prm

>  <Rbt.Receptor>
prm/blind_docking_40.prm

>  <SCORE>
-10.6492

>  <SCORE.INTER>
-4.82743

>  <SCORE.INTER.CONST>
1

>  <SCORE.INTER.POLAR>
0

>  <SCORE.INTER.ROT>
11

>  <SCORE.INTER.SOLV>
17.8744

>  <SCORE.INTER.VDW>
-20.1097

>  <SCORE.INTER.norm>
-0.344816

>  <SCORE.INTRA>
-5.82902

>  <SCORE.INTRA.DIHEDRAL>
-13.729

>  <SCORE.INTRA.DIHEDRAL.0>
19.1003

>  <SCORE.INTRA.POLAR>
0

>  <SCORE.INTRA.POLAR.0>
0

>  <SCORE.INTRA.REPUL>
0

>  <SCORE.INTRA.REPUL.0>
0

>  <SCORE.INTRA.SOLV>
3.44012

>  <SCORE.INTRA.SOLV.lig_0>
-47.5333

>  <SCORE.INTRA.VDW>
-0.684588

>  <SCORE.INTRA.VDW.0>
-0.287413

>  <SCORE.INTRA.norm>
-0.416359

>  <SCORE.RESTR>
0.00728427

>  <SCORE.RESTR.CAVITY>
0.00728427

>  <SCORE.RESTR.norm>
0.000520305

>  <SCORE.SYSTEM>
0

>  <SCORE.SYSTEM.CONST>
0

>  <SCORE.SYSTEM.DIHEDRAL>
0

>  <SCORE.SYSTEM.SOLV>
0

>  <SCORE.SYSTEM.norm>
0

>  <SCORE.heavy>
14

>  <SCORE.norm>
-0.760655

>  <RMSD>
48.533

$$$$
ligand
 OpenBabel11021811493D
libRbt.so/2013.1/901 2013/11/27
 14 13  0  0  0  0  0  0  0  0999 V2000
   19.3935   -4.2439   40.3014 N   0  0  0  0  0  0  0  0  0  0  0  0
   20.5878   -3.6343   39.7589 C   0  0  0  0  0  0  0  0  0  0  0  0
   20.3800   -2.1084   39.6698 C   0  0  0  0  0  0  0  0  0  0  0  0
   21.5441   -1.3577   39.0047 C   0  0  0  0  0  0  0  0  0  0  0  0
   21.8164   -1.7110   37.6030 N   0  0  0  0  0  0  0  0  0  0  0  0
   21.7227   -0.7601   36.4967 C   0  0  0  0  0  0  0  0  0  0  0  0
   22.7255   -1.0402   35.3821 C   0  0  0  0  0  0  0  0  0  0  0  0
   22.6845   -0.0119   34.2470 C   0  0  0  0  0  0  0  0  0  0  0  0
   23.7562   -0.2848   33.1850 C   0  0  0  0  0  0  0  0  0  0  0  0
   25.0768   -0.2499   33.8099 N   0  0  0  0  0  0  0  0  0  0  0  0
   25.7209    0.9631   34.3169 C   0  0  0  0  0  0  0  0  0  0  0  0
   26.8896    0.6645   35.2662 C   0  0  0  0  0  0  0  0  0  0  0  0
   27.4425    1.9483   35.8939 C   0  0  0  0  0  0  0  0  0  0  0  0
   28.5203    1.6101   36.8186 N   0  0  0  0  0  0  0  0  0  0  0  0
  1  2  1  0  0  0  0
  2  3  1  0  0  0  0
  3  4  1  0  0  0  0
  4  5  1  0  0  0  0
  5  6  1  0  0  0  0
  6  7  1  0  0  0  0
  7  8  1  0  0  0  0
  8  9  1  0  0  0  0
  9 10  1  0  0  0  0
 10 11  1  0  0  0  0
 11 12  1  0  0  0  0
 12 13  1  0  0  0  0
 13 14  1  0  0  0  0
M  END
>  <CHROM.1>
-175.51498462,62.14347818,118.33343117,147.37513897,-177.22310837,176.93284872
-59.10385789,-69.92613476,163.38035097,-173.88793330,178.19504624,23.44708981
-0.72956101,36.55362828,-2.50430870,-0.46129139,-1.38776982

>  <Name>
ligand

>  <RI>
0

>  <Rbt.Current_Directory>
/home/itssahil/PROJECTS/Mol_Feturizer/New_Systems/rnas/4FAW

>  <Rbt.Executable>
rbdock ($Id: //depot/dev/client3/rdock/2013.1/src/exe/rbdock.cxx#4 $)

>  <Rbt.Library>
libRbt.so (2013.1, Build901 2013/11/27)

>  <Rbt.Parameter_File>
/export/apps/rDock/src/rDock_2013.1_src/data/scripts/dock_solv.prm

>  <Rbt.Receptor>
prm/blind_docking_80.prm

>  <SCORE>
-13.8401

>  <SCORE.INTER>
-4.47218

>  <SCORE.INTER.CONST>
1

>  <SCORE.INTER.POLAR>
0

>  <SCORE.INTER.ROT>
11

>  <SCORE.INTER.SOLV>
13.9183

>  <SCORE.INTER.VDW>
-18.5542

>  <SCORE.INTER.norm>
-0.319441

>  <SCORE.INTRA>
-9.36797

>  <SCORE.INTRA.DIHEDRAL>
-16.6109

>  <SCORE.INTRA.DIHEDRAL.0>
19.1003

>  <SCORE.INTRA.POLAR>
0

>  <SCORE.INTRA.POLAR.0>
0

>  <SCORE.INTRA.REPUL>
0

>  <SCORE.INTRA.REPUL.0>
0

>  <SCORE.INTRA.SOLV>
-0.747456

>  <SCORE.INTRA.SOLV.lig_0>
-47.5333

>  <SCORE.INTRA.VDW>
-0.6888

>  <SCORE.INTRA.VDW.0>
-0.287413

>  <SCORE.INTRA.norm>
-0.669141

>  <SCORE.RESTR>
0

>  <SCORE.RESTR.CAVITY>
0

>  <SCORE.RESTR.norm>
0

>  <SCORE.SYSTEM>
0

>  <SCORE.SYSTEM.CONST>
0

>  <SCORE.SYSTEM.DIHEDRAL>
0

>  <SCORE.SYSTEM.SOLV>
0

>  <SCORE.SYSTEM.norm>
0

>  <SCORE.heavy>
14

>  <SCORE.norm>
-0.988582

>  <RMSD>
48.814

$$$$
ligand
 OpenBabel11021811493D
libRbt.so/2013.1/901 2013/11/27
 14 13  0  0  0  0  0  0  0  0999 V2000
   26.7646    2.2617   36.2949 N   0  0  0  0  0  0  0  0  0  0  0  0
   27.6036    1.2728   35.6543 C   0  0  0  0  0  0  0  0  0  0  0  0
   27.3682    1.3215   34.1306 C   0  0  0  0  0  0  0  0  0  0  0  0
   26.0022    0.7710   33.6921 C   0  0  0  0  0  0  0  0  0  0  0  0
   24.8289    1.5334   34.1457 N   0  0  0  0  0  0  0  0  0  0  0  0
   23.4594    1.0267   34.0767 C   0  0  0  0  0  0  0  0  0  0  0  0
   23.1550   -0.0184   35.1451 C   0  0  0  0  0  0  0  0  0  0  0  0
   21.6696   -0.3804   35.2437 C   0  0  0  0  0  0  0  0  0  0  0  0
   21.4194   -1.5142   36.2451 C   0  0  0  0  0  0  0  0  0  0  0  0
   21.8233   -1.0786   37.5803 N   0  0  0  0  0  0  0  0  0  0  0  0
   21.5218   -1.8056   38.8148 C   0  0  0  0  0  0  0  0  0  0  0  0
   20.0594   -1.6513   39.2549 C   0  0  0  0  0  0  0  0  0  0  0  0
   19.7454   -2.5293   40.4707 C   0  0  0  0  0  0  0  0  0  0  0  0
   19.7629   -3.9335   40.0716 N   0  0  0  0  0  0  0  0  0  0  0  0
  1  2  1  0  0  0  0
  2  3  1  0  0  0  0
  3  4  1  0  0  0  0
  4  5  1  0  0  0  0
  5  6  1  0  0  0  0
  6  7  1  0  0  0  0
  7  8  1  0  0  0  0
  8  9  1  0  0  0  0
  9 10  1  0  0  0  0
 10 11  1  0  0  0  0
 11 12  1  0  0  0  0
 12 13  1  0  0  0  0
 13 14  1  0  0  0  0
M  END
>  <CHROM.1>
-71.26801987,65.33014966,-166.60712593,75.15576072,170.00429036,175.28629460
62.50525996,169.11981950,-75.45576200,174.56523643,-69.49647408,23.22738350
-0.33746091,36.48697231,-0.71350979,0.37138676,1.85947201

>  <Name>
ligand

>  <RI>
0

>  <Rbt.Current_Directory>
/home/itssahil/PROJECTS/Mol_Feturizer/New_Systems/rnas/4FAW

>  <Rbt.Executable>
rbdock ($Id: //depot/dev/client3/rdock/2013.1/src/exe/rbdock.cxx#4 $)

>  <Rbt.Library>
libRbt.so (2013.1, Build901 2013/11/27)

>  <Rbt.Parameter_File>
/export/apps/rDock/src/rDock_2013.1_src/data/scripts/dock_solv.prm

>  <Rbt.Receptor>
prm/blind_docking_80.prm

>  <SCORE>
-12.7245

>  <SCORE.INTER>
-4.84026

>  <SCORE.INTER.CONST>
1

>  <SCORE.INTER.POLAR>
0

>  <SCORE.INTER.ROT>
11

>  <SCORE.INTER.SOLV>
13.4847

>  <SCORE.INTER.VDW>
-18.6551

>  <SCORE.INTER.norm>
-0.345733

>  <SCORE.INTRA>
-7.88428

>  <SCORE.INTRA.DIHEDRAL>
-16.9943

>  <SCORE.INTRA.DIHEDRAL.0>
19.1003

>  <SCORE.INTRA.POLAR>
0

>  <SCORE.INTRA.POLAR.0>
0

>  <SCORE.INTRA.REPUL>
0

>  <SCORE.INTRA.REPUL.0>
0

>  <SCORE.INTRA.SOLV>
2.5785

>  <SCORE.INTRA.SOLV.lig_0>
-47.5333

>  <SCORE.INTRA.VDW>
-0.676378

>  <SCORE.INTRA.VDW.0>
-0.287413

>  <SCORE.INTRA.norm>
-0.563163

>  <SCORE.RESTR>
0

>  <SCORE.RESTR.CAVITY>
0

>  <SCORE.RESTR.norm>
0

>  <SCORE.SYSTEM>
0

>  <SCORE.SYSTEM.CONST>
0

>  <SCORE.SYSTEM.DIHEDRAL>
0

>  <SCORE.SYSTEM.SOLV>
0

>  <SCORE.SYSTEM.norm>
0

>  <SCORE.heavy>
14

>  <SCORE.norm>
-0.908896

>  <RMSD>
48.897

$$$$
ligand
 OpenBabel11021811493D
libRbt.so/2013.1/901 2013/11/27
 14 13  0  0  0  0  0  0  0  0999 V2000
   18.1420   -3.4094   40.1289 N   0  0  0  0  0  0  0  0  0  0  0  0
   19.5802   -3.2691   40.0659 C   0  0  0  0  0  0  0  0  0  0  0  0
   19.9341   -2.1312   39.0865 C   0  0  0  0  0  0  0  0  0  0  0  0
   21.4439   -1.9168   38.8980 C   0  0  0  0  0  0  0  0  0  0  0  0
   21.8274   -0.8589   37.9508 N   0  0  0  0  0  0  0  0  0  0  0  0
   21.8248   -1.0334   36.4994 C   0  0  0  0  0  0  0  0  0  0  0  0
   23.0446   -0.4175   35.8219 C   0  0  0  0  0  0  0  0  0  0  0  0
   22.9839   -0.4609   34.2916 C   0  0  0  0  0  0  0  0  0  0  0  0
   24.3281   -0.0935   33.6522 C   0  0  0  0  0  0  0  0  0  0  0  0
   24.7776    1.1944   34.1766 N   0  0  0  0  0  0  0  0  0  0  0  0
   26.1223    1.7417   33.9872 C   0  0  0  0  0  0  0  0  0  0  0  0
   27.1790    1.0374   34.8495 C   0  0  0  0  0  0  0  0  0  0  0  0
   26.8838    1.2047   36.3437 C   0  0  0  0  0  0  0  0  0  0  0  0
   27.0365    2.6087   36.7133 N   0  0  0  0  0  0  0  0  0  0  0  0
  1  2  1  0  0  0  0
  2  3  1  0  0  0  0
  3  4  1  0  0  0  0
  4  5  1  0  0  0  0
  5  6  1  0  0  0  0
  6  7  1  0  0  0  0
  7  8  1  0  0  0  0
  8  9  1  0  0  0  0
  9 10  1  0  0  0  0
 10 11  1  0  0  0  0
 11 12  1  0  0  0  0
 12 13  1  0  0  0  0
 13 14  1  0  0  0  0
M  END
>  <CHROM.1>
-178.04179944,178.80129459,-79.43804448,-137.86142576,-173.86874271,-168.71766189
-53.53483154,168.09705008,-73.93303214,-61.90997165,-66.64288225,23.22212634
-0.41468422,36.60440790,-2.58459115,-0.53021292,-1.52479611

>  <Name>
ligand

>  <RI>
0

>  <Rbt.Current_Directory>
/home/itssahil/PROJECTS/Mol_Feturizer/New_Systems/rnas/4FAW

>  <Rbt.Executable>
rbdock ($Id: //depot/dev/client3/rdock/2013.1/src/exe/rbdock.cxx#4 $)

>  <Rbt.Library>
libRbt.so (2013.1, Build901 2013/11/27)

>  <Rbt.Parameter_File>
/export/apps/rDock/src/rDock_2013.1_src/data/scripts/dock_solv.prm

>  <Rbt.Receptor>
prm/blind_docking_80.prm

>  <SCORE>
-13.326

>  <SCORE.INTER>
-4.81915

>  <SCORE.INTER.CONST>
1

>  <SCORE.INTER.POLAR>
0

>  <SCORE.INTER.ROT>
11

>  <SCORE.INTER.SOLV>
12.6754

>  <SCORE.INTER.VDW>
-18.3712

>  <SCORE.INTER.norm>
-0.344225

>  <SCORE.INTRA>
-8.5069

>  <SCORE.INTRA.DIHEDRAL>
-16.5786

>  <SCORE.INTRA.DIHEDRAL.0>
19.1003

>  <SCORE.INTRA.POLAR>
0

>  <SCORE.INTRA.POLAR.0>
0

>  <SCORE.INTRA.REPUL>
0

>  <SCORE.INTRA.REPUL.0>
0

>  <SCORE.INTRA.SOLV>
0.671652

>  <SCORE.INTRA.SOLV.lig_0>
-47.5333

>  <SCORE.INTRA.VDW>
-0.553439

>  <SCORE.INTRA.VDW.0>
-0.287413

>  <SCORE.INTRA.norm>
-0.607636

>  <SCORE.RESTR>
0

>  <SCORE.RESTR.CAVITY>
0

>  <SCORE.RESTR.norm>
0

>  <SCORE.SYSTEM>
0

>  <SCORE.SYSTEM.CONST>
0

>  <SCORE.SYSTEM.DIHEDRAL>
0

>  <SCORE.SYSTEM.SOLV>
0

>  <SCORE.SYSTEM.norm>
0

>  <SCORE.heavy>
14

>  <SCORE.norm>
-0.951861

>  <RMSD>
48.978

$$$$
ligand
 OpenBabel11021811493D
libRbt.so/2013.1/901 2013/11/27
 14 13  0  0  0  0  0  0  0  0999 V2000
    9.5982    4.9371    8.2698 N   0  0  0  0  0  0  0  0  0  0  0  0
    9.6112    6.3009    8.7514 C   0  0  0  0  0  0  0  0  0  0  0  0
    9.0896    7.2341    7.6393 C   0  0  0  0  0  0  0  0  0  0  0  0
    7.6122    7.0120    7.2801 C   0  0  0  0  0  0  0  0  0  0  0  0
    6.6369    7.4042    8.3090 N   0  0  0  0  0  0  0  0  0  0  0  0
    5.2241    7.0312    8.2679 C   0  0  0  0  0  0  0  0  0  0  0  0
    4.5015    7.5649    7.0353 C   0  0  0  0  0  0  0  0  0  0  0  0
    3.0764    7.0248    6.8776 C   0  0  0  0  0  0  0  0  0  0  0  0
    2.4593    7.4156    5.5295 C   0  0  0  0  0  0  0  0  0  0  0  0
    1.1432    6.7934    5.4010 N   0  0  0  0  0  0  0  0  0  0  0  0
    0.3519    6.7770    4.1694 C   0  0  0  0  0  0  0  0  0  0  0  0
    0.6621    5.5664    3.2781 C   0  0  0  0  0  0  0  0  0  0  0  0
    2.0761    5.6496    2.6938 C   0  0  0  0  0  0  0  0  0  0  0  0
    2.2566    4.5869    1.7092 N   0  0  0  0  0  0  0  0  0  0  0  0
  1  2  1  0  0  0  0
  2  3  1  0  0  0  0
  3  4  1  0  0  0  0
  4  5  1  0  0  0  0
  5  6  1  0  0  0  0
  6  7  1  0  0  0  0
  7  8  1  0  0  0  0
  8  9  1  0  0  0  0
  9 10  1  0  0  0  0
 10 11  1  0  0  0  0
 11 12  1  0  0  0  0
 12 13  1  0  0  0  0
 13 14  1  0  0  0  0
M  END
>  <CHROM.1>
65.67113071,68.93418259,-167.38800219,-60.77635276,172.02910429,-171.55560110
175.99077210,-170.29144010,88.90073376,-68.08020558,-171.93612836,4.59266638
6.52153740,6.08659063,-0.50372425,0.27174476,-2.13287442

>  <Name>
ligand

>  <RI>
0

>  <Rbt.Current_Directory>
/home/itssahil/PROJECTS/Mol_Feturizer/New_Systems/rnas/4FAW

>  <Rbt.Executable>
rbdock ($Id: //depot/dev/client3/rdock/2013.1/src/exe/rbdock.cxx#4 $)

>  <Rbt.Library>
libRbt.so (2013.1, Build901 2013/11/27)

>  <Rbt.Parameter_File>
/export/apps/rDock/src/rDock_2013.1_src/data/scripts/dock_solv.prm

>  <Rbt.Receptor>
prm/blind_docking_20.prm

>  <SCORE>
-8.49028

>  <SCORE.INTER>
0.334433

>  <SCORE.INTER.CONST>
1

>  <SCORE.INTER.POLAR>
0

>  <SCORE.INTER.ROT>
11

>  <SCORE.INTER.SOLV>
12.2152

>  <SCORE.INTER.VDW>
-14.7821

>  <SCORE.INTER.norm>
0.0238881

>  <SCORE.INTRA>
-8.82952

>  <SCORE.INTRA.DIHEDRAL>
-16.8375

>  <SCORE.INTRA.DIHEDRAL.0>
19.1003

>  <SCORE.INTRA.POLAR>
0

>  <SCORE.INTRA.POLAR.0>
0

>  <SCORE.INTRA.REPUL>
0

>  <SCORE.INTRA.REPUL.0>
0

>  <SCORE.INTRA.SOLV>
0.320908

>  <SCORE.INTRA.SOLV.lig_0>
-47.5333

>  <SCORE.INTRA.VDW>
-0.571198

>  <SCORE.INTRA.VDW.0>
-0.287413

>  <SCORE.INTRA.norm>
-0.63068

>  <SCORE.RESTR>
0.0048019

>  <SCORE.RESTR.CAVITY>
0.0048019

>  <SCORE.RESTR.norm>
0.000342993

>  <SCORE.SYSTEM>
0

>  <SCORE.SYSTEM.CONST>
0

>  <SCORE.SYSTEM.DIHEDRAL>
0

>  <SCORE.SYSTEM.SOLV>
0

>  <SCORE.SYSTEM.norm>
0

>  <SCORE.heavy>
14

>  <SCORE.norm>
-0.606449

>  <RMSD>
51.329

$$$$
ligand
 OpenBabel11021811493D
libRbt.so/2013.1/901 2013/11/27
 14 13  0  0  0  0  0  0  0  0999 V2000
   21.5681    6.9801   30.8560 N   0  0  0  0  0  0  0  0  0  0  0  0
   21.6282    7.9170   31.9564 C   0  0  0  0  0  0  0  0  0  0  0  0
   22.2884    7.2295   33.1693 C   0  0  0  0  0  0  0  0  0  0  0  0
   22.4021    8.1281   34.4105 C   0  0  0  0  0  0  0  0  0  0  0  0
   21.1291    8.5683   35.0013 N   0  0  0  0  0  0  0  0  0  0  0  0
   20.5734    8.0100   36.2328 C   0  0  0  0  0  0  0  0  0  0  0  0
   19.5855    8.9468   36.9204 C   0  0  0  0  0  0  0  0  0  0  0  0
   18.3094    9.1953   36.1096 C   0  0  0  0  0  0  0  0  0  0  0  0
   17.4837   10.3555   36.6781 C   0  0  0  0  0  0  0  0  0  0  0  0
   16.4367   10.7171   35.7249 N   0  0  0  0  0  0  0  0  0  0  0  0
   15.8755   12.0618   35.5823 C   0  0  0  0  0  0  0  0  0  0  0  0
   14.5388   12.0724   34.8277 C   0  0  0  0  0  0  0  0  0  0  0  0
   14.0302   13.5013   34.6107 C   0  0  0  0  0  0  0  0  0  0  0  0
   13.6191   14.0689   35.8914 N   0  0  0  0  0  0  0  0  0  0  0  0
  1  2  1  0  0  0  0
  2  3  1  0  0  0  0
  3  4  1  0  0  0  0
  4  5  1  0  0  0  0
  5  6  1  0  0  0  0
  6  7  1  0  0  0  0
  7  8  1  0  0  0  0
  8  9  1  0  0  0  0
  9 10  1  0  0  0  0
 10 11  1  0  0  0  0
 11 12  1  0  0  0  0
 12 13  1  0  0  0  0
 13 14  1  0  0  0  0
M  END
>  <CHROM.1>
-179.68344141,63.66976797,104.52839726,157.63895600,65.63295497,-167.88133338
168.72185831,-150.60187919,-162.97140233,-175.99237043,-69.71517470,18.53357588
9.83934230,34.85529393,0.22604737,0.62653170,-1.54991510

>  <Name>
ligand

>  <RI>
0

>  <Rbt.Current_Directory>
/home/itssahil/PROJECTS/Mol_Feturizer/New_Systems/rnas/4FAW

>  <Rbt.Executable>
rbdock ($Id: //depot/dev/client3/rdock/2013.1/src/exe/rbdock.cxx#4 $)

>  <Rbt.Library>
libRbt.so (2013.1, Build901 2013/11/27)

>  <Rbt.Parameter_File>
/export/apps/rDock/src/rDock_2013.1_src/data/scripts/dock_solv.prm

>  <Rbt.Receptor>
prm/blind_docking_100.prm

>  <SCORE>
-14.232

>  <SCORE.INTER>
-5.57229

>  <SCORE.INTER.CONST>
1

>  <SCORE.INTER.POLAR>
0

>  <SCORE.INTER.ROT>
11

>  <SCORE.INTER.SOLV>
12.8672

>  <SCORE.INTER.VDW>
-18.9373

>  <SCORE.INTER.norm>
-0.398021

>  <SCORE.INTRA>
-8.65975

>  <SCORE.INTRA.DIHEDRAL>
-15.2727

>  <SCORE.INTRA.DIHEDRAL.0>
19.1003

>  <SCORE.INTRA.POLAR>
0

>  <SCORE.INTRA.POLAR.0>
0

>  <SCORE.INTRA.REPUL>
0

>  <SCORE.INTRA.REPUL.0>
0

>  <SCORE.INTRA.SOLV>
-0.141066

>  <SCORE.INTRA.SOLV.lig_0>
-47.5333

>  <SCORE.INTRA.VDW>
-0.952856

>  <SCORE.INTRA.VDW.0>
-0.287413

>  <SCORE.INTRA.norm>
-0.618554

>  <SCORE.RESTR>
0

>  <SCORE.RESTR.CAVITY>
0

>  <SCORE.RESTR.norm>
0

>  <SCORE.SYSTEM>
0

>  <SCORE.SYSTEM.CONST>
0

>  <SCORE.SYSTEM.DIHEDRAL>
0

>  <SCORE.SYSTEM.SOLV>
0

>  <SCORE.SYSTEM.norm>
0

>  <SCORE.heavy>
14

>  <SCORE.norm>
-1.01657

>  <RMSD>
51.398

$$$$
ligand
 OpenBabel11021811493D
libRbt.so/2013.1/901 2013/11/27
 14 13  0  0  0  0  0  0  0  0999 V2000
   -0.2648    7.6355    7.4072 N   0  0  0  0  0  0  0  0  0  0  0  0
   -0.2573    6.4799    6.5373 C   0  0  0  0  0  0  0  0  0  0  0  0
    0.3323    6.8813    5.1695 C   0  0  0  0  0  0  0  0  0  0  0  0
    1.8558    7.0814    5.1811 C   0  0  0  0  0  0  0  0  0  0  0  0
    2.3568    8.1339    6.0782 N   0  0  0  0  0  0  0  0  0  0  0  0
    2.8580    7.8757    7.4269 C   0  0  0  0  0  0  0  0  0  0  0  0
    4.2011    7.1529    7.4364 C   0  0  0  0  0  0  0  0  0  0  0  0
    4.5579    6.5388    8.7940 C   0  0  0  0  0  0  0  0  0  0  0  0
    5.8784    5.7613    8.7441 C   0  0  0  0  0  0  0  0  0  0  0  0
    6.9923    6.7038    8.6636 N   0  0  0  0  0  0  0  0  0  0  0  0
    7.7662    6.9692    7.4494 C   0  0  0  0  0  0  0  0  0  0  0  0
    9.1728    7.5078    7.7454 C   0  0  0  0  0  0  0  0  0  0  0  0
   10.0357    6.4590    8.4547 C   0  0  0  0  0  0  0  0  0  0  0  0
   10.3740    5.3942    7.5150 N   0  0  0  0  0  0  0  0  0  0  0  0
  1  2  1  0  0  0  0
  2  3  1  0  0  0  0
  3  4  1  0  0  0  0
  4  5  1  0  0  0  0
  5  6  1  0  0  0  0
  6  7  1  0  0  0  0
  7  8  1  0  0  0  0
  8  9  1  0  0  0  0
  9 10  1  0  0  0  0
 10 11  1  0  0  0  0
 11 12  1  0  0  0  0
 12 13  1  0  0  0  0
 13 14  1  0  0  0  0
M  END
>  <CHROM.1>
74.11019340,-60.80615056,96.36014858,70.82095908,-164.21841529,177.07786685
73.11822885,-105.12213488,-156.05488371,65.77831155,70.80487471,4.70416616
6.89816231,7.32874131,2.92394439,0.05948528,-1.40747523

>  <Name>
ligand

>  <RI>
0

>  <Rbt.Current_Directory>
/home/itssahil/PROJECTS/Mol_Feturizer/New_Systems/rnas/4FAW

>  <Rbt.Executable>
rbdock ($Id: //depot/dev/client3/rdock/2013.1/src/exe/rbdock.cxx#4 $)

>  <Rbt.Library>
libRbt.so (2013.1, Build901 2013/11/27)

>  <Rbt.Parameter_File>
/export/apps/rDock/src/rDock_2013.1_src/data/scripts/dock_solv.prm

>  <Rbt.Receptor>
prm/blind_docking_20.prm

>  <SCORE>
-6.39038

>  <SCORE.INTER>
-0.454623

>  <SCORE.INTER.CONST>
1

>  <SCORE.INTER.POLAR>
0

>  <SCORE.INTER.ROT>
11

>  <SCORE.INTER.SOLV>
8.416

>  <SCORE.INTER.VDW>
-14.0417

>  <SCORE.INTER.norm>
-0.0324731

>  <SCORE.INTRA>
-5.94156

>  <SCORE.INTRA.DIHEDRAL>
-13.9416

>  <SCORE.INTRA.DIHEDRAL.0>
19.1003

>  <SCORE.INTRA.POLAR>
0

>  <SCORE.INTRA.POLAR.0>
0

>  <SCORE.INTRA.REPUL>
0

>  <SCORE.INTRA.REPUL.0>
0

>  <SCORE.INTRA.SOLV>
4.03743

>  <SCORE.INTRA.SOLV.lig_0>
-47.5333

>  <SCORE.INTRA.VDW>
-0.989482

>  <SCORE.INTRA.VDW.0>
-0.287413

>  <SCORE.INTRA.norm>
-0.424397

>  <SCORE.RESTR>
0.00579548

>  <SCORE.RESTR.CAVITY>
0.00579548

>  <SCORE.RESTR.norm>
0.000413963

>  <SCORE.SYSTEM>
0

>  <SCORE.SYSTEM.CONST>
0

>  <SCORE.SYSTEM.DIHEDRAL>
0

>  <SCORE.SYSTEM.SOLV>
0

>  <SCORE.SYSTEM.norm>
0

>  <SCORE.heavy>
14

>  <SCORE.norm>
-0.456456

>  <RMSD>
51.428

$$$$
ligand
 OpenBabel11021811493D
libRbt.so/2013.1/901 2013/11/27
 14 13  0  0  0  0  0  0  0  0999 V2000
   21.6783    8.0059   31.0419 N   0  0  0  0  0  0  0  0  0  0  0  0
   21.2526    7.7966   32.4083 C   0  0  0  0  0  0  0  0  0  0  0  0
   22.4341    8.0894   33.3558 C   0  0  0  0  0  0  0  0  0  0  0  0
   22.1152    7.8587   34.8411 C   0  0  0  0  0  0  0  0  0  0  0  0
   21.0093    8.6579   35.3904 N   0  0  0  0  0  0  0  0  0  0  0  0
   20.4584    8.4627   36.7303 C   0  0  0  0  0  0  0  0  0  0  0  0
   19.2189    9.3110   36.9956 C   0  0  0  0  0  0  0  0  0  0  0  0
   18.0484    8.9972   36.0580 C   0  0  0  0  0  0  0  0  0  0  0  0
   16.8525    9.9256   36.3007 C   0  0  0  0  0  0  0  0  0  0  0  0
   17.2331   11.2994   35.9788 N   0  0  0  0  0  0  0  0  0  0  0  0
   16.4675   12.1866   35.1012 C   0  0  0  0  0  0  0  0  0  0  0  0
   15.1272   12.6176   35.7126 C   0  0  0  0  0  0  0  0  0  0  0  0
   14.3507   13.5385   34.7655 C   0  0  0  0  0  0  0  0  0  0  0  0
   13.0937   13.9319   35.3951 N   0  0  0  0  0  0  0  0  0  0  0  0
  1  2  1  0  0  0  0
  2  3  1  0  0  0  0
  3  4  1  0  0  0  0
  4  5  1  0  0  0  0
  5  6  1  0  0  0  0
  6  7  1  0  0  0  0
  7  8  1  0  0  0  0
  8  9  1  0  0  0  0
  9 10  1  0  0  0  0
 10 11  1  0  0  0  0
 11 12  1  0  0  0  0
 12 13  1  0  0  0  0
 13 14  1  0  0  0  0
M  END
>  <CHROM.1>
-178.20576752,-59.27850577,172.42149450,-173.46859791,61.49998250,-176.60568151
64.18438432,129.27247641,69.14751268,-179.72335666,-179.39713957,18.52438391
10.04834434,35.00561058,0.10410104,0.63514985,-1.39486538

>  <Name>
ligand

>  <RI>
0

>  <Rbt.Current_Directory>
/home/itssahil/PROJECTS/Mol_Feturizer/New_Systems/rnas/4FAW

>  <Rbt.Executable>
rbdock ($Id: //depot/dev/client3/rdock/2013.1/src/exe/rbdock.cxx#4 $)

>  <Rbt.Library>
libRbt.so (2013.1, Build901 2013/11/27)

>  <Rbt.Parameter_File>
/export/apps/rDock/src/rDock_2013.1_src/data/scripts/dock_solv.prm

>  <Rbt.Receptor>
prm/blind_docking_60.prm

>  <SCORE>
-15.7867

>  <SCORE.INTER>
-6.00554

>  <SCORE.INTER.CONST>
1

>  <SCORE.INTER.POLAR>
0

>  <SCORE.INTER.ROT>
11

>  <SCORE.INTER.SOLV>
17.302

>  <SCORE.INTER.VDW>
-20.7044

>  <SCORE.INTER.norm>
-0.428967

>  <SCORE.INTRA>
-9.78113

>  <SCORE.INTRA.DIHEDRAL>
-17.6823

>  <SCORE.INTRA.DIHEDRAL.0>
19.1003

>  <SCORE.INTRA.POLAR>
0

>  <SCORE.INTRA.POLAR.0>
0

>  <SCORE.INTRA.REPUL>
0

>  <SCORE.INTRA.REPUL.0>
0

>  <SCORE.INTRA.SOLV>
-0.383905

>  <SCORE.INTRA.SOLV.lig_0>
-47.5333

>  <SCORE.INTRA.VDW>
-0.748028

>  <SCORE.INTRA.VDW.0>
-0.287413

>  <SCORE.INTRA.norm>
-0.698652

>  <SCORE.RESTR>
0

>  <SCORE.RESTR.CAVITY>
0

>  <SCORE.RESTR.norm>
0

>  <SCORE.SYSTEM>
0

>  <SCORE.SYSTEM.CONST>
0

>  <SCORE.SYSTEM.DIHEDRAL>
0

>  <SCORE.SYSTEM.SOLV>
0

>  <SCORE.SYSTEM.norm>
0

>  <SCORE.heavy>
14

>  <SCORE.norm>
-1.12762

>  <RMSD>
51.530

$$$$
ligand
 OpenBabel11021811493D
libRbt.so/2013.1/901 2013/11/27
 14 13  0  0  0  0  0  0  0  0999 V2000
   17.8259   12.9315   35.4680 N   0  0  0  0  0  0  0  0  0  0  0  0
   17.0210   11.7932   35.8533 C   0  0  0  0  0  0  0  0  0  0  0  0
   15.7903   11.7083   34.9271 C   0  0  0  0  0  0  0  0  0  0  0  0
   14.8130   10.5794   35.2897 C   0  0  0  0  0  0  0  0  0  0  0  0
   15.3884    9.2268   35.3439 N   0  0  0  0  0  0  0  0  0  0  0  0
   15.8291    8.4877   34.1622 C   0  0  0  0  0  0  0  0  0  0  0  0
   17.2463    7.9397   34.2950 C   0  0  0  0  0  0  0  0  0  0  0  0
   17.3922    6.8734   35.3855 C   0  0  0  0  0  0  0  0  0  0  0  0
   18.8616    6.5471   35.6775 C   0  0  0  0  0  0  0  0  0  0  0  0
   19.5059    7.7126   36.2793 N   0  0  0  0  0  0  0  0  0  0  0  0
   20.9494    7.9570   36.2709 C   0  0  0  0  0  0  0  0  0  0  0  0
   21.4727    8.3872   34.8934 C   0  0  0  0  0  0  0  0  0  0  0  0
   21.4466    7.2237   33.8968 C   0  0  0  0  0  0  0  0  0  0  0  0
   21.9823    7.6720   32.6148 N   0  0  0  0  0  0  0  0  0  0  0  0
  1  2  1  0  0  0  0
  2  3  1  0  0  0  0
  3  4  1  0  0  0  0
  4  5  1  0  0  0  0
  5  6  1  0  0  0  0
  6  7  1  0  0  0  0
  7  8  1  0  0  0  0
  8  9  1  0  0  0  0
  9 10  1  0  0  0  0
 10 11  1  0  0  0  0
 11 12  1  0  0  0  0
 12 13  1  0  0  0  0
 13 14  1  0  0  0  0
M  END
>  <CHROM.1>
-176.73480481,-55.95668299,-70.38143889,128.82339829,65.35992711,-168.82044853
66.83150911,-157.88547257,73.55882055,-70.84628736,-178.62796639,18.25160504
8.93122075,35.02558178,-2.54499933,-0.08662588,-3.07598201

>  <Name>
ligand

>  <RI>
0

>  <Rbt.Current_Directory>
/home/itssahil/PROJECTS/Mol_Feturizer/New_Systems/rnas/4FAW

>  <Rbt.Executable>
rbdock ($Id: //depot/dev/client3/rdock/2013.1/src/exe/rbdock.cxx#4 $)

>  <Rbt.Library>
libRbt.so (2013.1, Build901 2013/11/27)

>  <Rbt.Parameter_File>
/export/apps/rDock/src/rDock_2013.1_src/data/scripts/dock_solv.prm

>  <Rbt.Receptor>
prm/blind_docking_100.prm

>  <SCORE>
-8.65061

>  <SCORE.INTER>
0.306217

>  <SCORE.INTER.CONST>
1

>  <SCORE.INTER.POLAR>
0

>  <SCORE.INTER.ROT>
11

>  <SCORE.INTER.SOLV>
19.8053

>  <SCORE.INTER.VDW>
-17.3309

>  <SCORE.INTER.norm>
0.0218727

>  <SCORE.INTRA>
-8.95683

>  <SCORE.INTRA.DIHEDRAL>
-16.0382

>  <SCORE.INTRA.DIHEDRAL.0>
19.1003

>  <SCORE.INTRA.POLAR>
0

>  <SCORE.INTRA.POLAR.0>
0

>  <SCORE.INTRA.REPUL>
0

>  <SCORE.INTRA.REPUL.0>
0

>  <SCORE.INTRA.SOLV>
0.0724096

>  <SCORE.INTRA.SOLV.lig_0>
-47.5333

>  <SCORE.INTRA.VDW>
-0.973936

>  <SCORE.INTRA.VDW.0>
-0.287413

>  <SCORE.INTRA.norm>
-0.639774

>  <SCORE.RESTR>
0

>  <SCORE.RESTR.CAVITY>
0

>  <SCORE.RESTR.norm>
0

>  <SCORE.SYSTEM>
0

>  <SCORE.SYSTEM.CONST>
0

>  <SCORE.SYSTEM.DIHEDRAL>
0

>  <SCORE.SYSTEM.SOLV>
0

>  <SCORE.SYSTEM.norm>
0

>  <SCORE.heavy>
14

>  <SCORE.norm>
-0.617901

>  <RMSD>
51.569

$$$$
ligand
 OpenBabel11021811493D
libRbt.so/2013.1/901 2013/11/27
 14 13  0  0  0  0  0  0  0  0999 V2000
   -0.2499    7.8756    9.1949 N   0  0  0  0  0  0  0  0  0  0  0  0
   -1.0668    7.5374    8.0501 C   0  0  0  0  0  0  0  0  0  0  0  0
   -0.2654    6.6090    7.1145 C   0  0  0  0  0  0  0  0  0  0  0  0
    0.9513    7.2816    6.4601 C   0  0  0  0  0  0  0  0  0  0  0  0
    1.9780    7.7869    7.3844 N   0  0  0  0  0  0  0  0  0  0  0  0
    3.3054    8.2252    6.9569 C   0  0  0  0  0  0  0  0  0  0  0  0
    4.3365    7.1014    6.9648 C   0  0  0  0  0  0  0  0  0  0  0  0
    4.5994    6.5195    8.3575 C   0  0  0  0  0  0  0  0  0  0  0  0
    5.6577    5.4104    8.3269 C   0  0  0  0  0  0  0  0  0  0  0  0
    6.8919    5.9349    7.7461 N   0  0  0  0  0  0  0  0  0  0  0  0
    7.5566    7.1633    8.1848 C   0  0  0  0  0  0  0  0  0  0  0  0
    9.0068    7.2645    7.6919 C   0  0  0  0  0  0  0  0  0  0  0  0
    9.9374    6.3551    8.5010 C   0  0  0  0  0  0  0  0  0  0  0  0
    9.5774    4.9602    8.2645 N   0  0  0  0  0  0  0  0  0  0  0  0
  1  2  1  0  0  0  0
  2  3  1  0  0  0  0
  3  4  1  0  0  0  0
  4  5  1  0  0  0  0
  5  6  1  0  0  0  0
  6  7  1  0  0  0  0
  7  8  1  0  0  0  0
  8  9  1  0  0  0  0
  9 10  1  0  0  0  0
 10 11  1  0  0  0  0
 11 12  1  0  0  0  0
 12 13  1  0  0  0  0
 13 14  1  0  0  0  0
M  END
>  <CHROM.1>
-66.41933113,60.73775802,168.14444132,-90.40922395,-63.16812811,-179.02264781
56.96419290,51.27428726,163.73632973,-76.12967328,65.43492989,4.44398235
6.85901695,7.79974097,2.99076865,0.03546444,-0.58052365

>  <Name>
ligand

>  <RI>
0

>  <Rbt.Current_Directory>
/home/itssahil/PROJECTS/Mol_Feturizer/New_Systems/rnas/4FAW

>  <Rbt.Executable>
rbdock ($Id: //depot/dev/client3/rdock/2013.1/src/exe/rbdock.cxx#4 $)

>  <Rbt.Library>
libRbt.so (2013.1, Build901 2013/11/27)

>  <Rbt.Parameter_File>
/export/apps/rDock/src/rDock_2013.1_src/data/scripts/dock_solv.prm

>  <Rbt.Receptor>
prm/blind_docking_20.prm

>  <SCORE>
-6.39737

>  <SCORE.INTER>
-0.520566

>  <SCORE.INTER.CONST>
1

>  <SCORE.INTER.POLAR>
0

>  <SCORE.INTER.ROT>
11

>  <SCORE.INTER.SOLV>
7.94742

>  <SCORE.INTER.VDW>
-13.9295

>  <SCORE.INTER.norm>
-0.0371833

>  <SCORE.INTRA>
-5.87681

>  <SCORE.INTRA.DIHEDRAL>
-16.8379

>  <SCORE.INTRA.DIHEDRAL.0>
19.1003

>  <SCORE.INTRA.POLAR>
0

>  <SCORE.INTRA.POLAR.0>
0

>  <SCORE.INTRA.REPUL>
0

>  <SCORE.INTRA.REPUL.0>
0

>  <SCORE.INTRA.SOLV>
5.11

>  <SCORE.INTRA.SOLV.lig_0>
-47.5333

>  <SCORE.INTRA.VDW>
-0.0128403

>  <SCORE.INTRA.VDW.0>
-0.287413

>  <SCORE.INTRA.norm>
-0.419772

>  <SCORE.RESTR>
0

>  <SCORE.RESTR.CAVITY>
0

>  <SCORE.RESTR.norm>
0

>  <SCORE.SYSTEM>
0

>  <SCORE.SYSTEM.CONST>
0

>  <SCORE.SYSTEM.DIHEDRAL>
0

>  <SCORE.SYSTEM.SOLV>
0

>  <SCORE.SYSTEM.norm>
0

>  <SCORE.heavy>
14

>  <SCORE.norm>
-0.456955

>  <RMSD>
51.771

$$$$
ligand
 OpenBabel11021811493D
libRbt.so/2013.1/901 2013/11/27
 14 13  0  0  0  0  0  0  0  0999 V2000
   -0.6090    7.8229   12.8280 N   0  0  0  0  0  0  0  0  0  0  0  0
   -0.5557    8.3262   11.4730 C   0  0  0  0  0  0  0  0  0  0  0  0
    0.8042    7.9519   10.8484 C   0  0  0  0  0  0  0  0  0  0  0  0
    1.0309    8.5410    9.4475 C   0  0  0  0  0  0  0  0  0  0  0  0
    2.2747    8.1349    8.7755 N   0  0  0  0  0  0  0  0  0  0  0  0
    3.5884    8.1705    9.4157 C   0  0  0  0  0  0  0  0  0  0  0  0
    4.6730    7.4848    8.5913 C   0  0  0  0  0  0  0  0  0  0  0  0
    4.4088    5.9955    8.3471 C   0  0  0  0  0  0  0  0  0  0  0  0
    5.6277    5.2864    7.7451 C   0  0  0  0  0  0  0  0  0  0  0  0
    6.6924    5.2220    8.7440 N   0  0  0  0  0  0  0  0  0  0  0  0
    7.8383    6.1320    8.7926 C   0  0  0  0  0  0  0  0  0  0  0  0
    9.1185    5.5088    8.2191 C   0  0  0  0  0  0  0  0  0  0  0  0
   10.3141    6.4566    8.3609 C   0  0  0  0  0  0  0  0  0  0  0  0
   11.3699    6.0455    7.4402 N   0  0  0  0  0  0  0  0  0  0  0  0
  1  2  1  0  0  0  0
  2  3  1  0  0  0  0
  3  4  1  0  0  0  0
  4  5  1  0  0  0  0
  5  6  1  0  0  0  0
  6  7  1  0  0  0  0
  7  8  1  0  0  0  0
  8  9  1  0  0  0  0
  9 10  1  0  0  0  0
 10 11  1  0  0  0  0
 11 12  1  0  0  0  0
 12 13  1  0  0  0  0
 13 14  1  0  0  0  0
M  END
>  <CHROM.1>
-174.85790283,-175.96353130,-48.37784591,170.41070614,-61.27616598,-169.52826091
68.83080107,-99.94707123,-101.43933332,-176.65461050,-161.31808387,4.75537324
6.93426725,9.21622414,-2.82084944,0.21961118,-1.64915450

>  <Name>
ligand

>  <RI>
0

>  <Rbt.Current_Directory>
/home/itssahil/PROJECTS/Mol_Feturizer/New_Systems/rnas/4FAW

>  <Rbt.Executable>
rbdock ($Id: //depot/dev/client3/rdock/2013.1/src/exe/rbdock.cxx#4 $)

>  <Rbt.Library>
libRbt.so (2013.1, Build901 2013/11/27)

>  <Rbt.Parameter_File>
/export/apps/rDock/src/rDock_2013.1_src/data/scripts/dock_solv.prm

>  <Rbt.Receptor>
prm/blind_docking_20.prm

>  <SCORE>
-7.8621

>  <SCORE.INTER>
0.399216

>  <SCORE.INTER.CONST>
1

>  <SCORE.INTER.POLAR>
0

>  <SCORE.INTER.ROT>
11

>  <SCORE.INTER.SOLV>
14.0588

>  <SCORE.INTER.VDW>
-15.3534

>  <SCORE.INTER.norm>
0.0285154

>  <SCORE.INTRA>
-8.26131

>  <SCORE.INTRA.DIHEDRAL>
-14.9157

>  <SCORE.INTRA.DIHEDRAL.0>
19.1003

>  <SCORE.INTRA.POLAR>
0

>  <SCORE.INTRA.POLAR.0>
0

>  <SCORE.INTRA.REPUL>
0

>  <SCORE.INTRA.REPUL.0>
0

>  <SCORE.INTRA.SOLV>
-0.689994

>  <SCORE.INTRA.SOLV.lig_0>
-47.5333

>  <SCORE.INTRA.VDW>
-0.458482

>  <SCORE.INTRA.VDW.0>
-0.287413

>  <SCORE.INTRA.norm>
-0.590094

>  <SCORE.RESTR>
0

>  <SCORE.RESTR.CAVITY>
0

>  <SCORE.RESTR.norm>
0

>  <SCORE.SYSTEM>
0

>  <SCORE.SYSTEM.CONST>
0

>  <SCORE.SYSTEM.DIHEDRAL>
0

>  <SCORE.SYSTEM.SOLV>
0

>  <SCORE.SYSTEM.norm>
0

>  <SCORE.heavy>
14

>  <SCORE.norm>
-0.561578

>  <RMSD>
51.789

$$$$
ligand
 OpenBabel11021811493D
libRbt.so/2013.1/901 2013/11/27
 14 13  0  0  0  0  0  0  0  0999 V2000
   10.7941    6.0338    7.5023 N   0  0  0  0  0  0  0  0  0  0  0  0
    9.6633    5.9289    8.3981 C   0  0  0  0  0  0  0  0  0  0  0  0
    8.4726    6.7073    7.8016 C   0  0  0  0  0  0  0  0  0  0  0  0
    7.1554    6.5179    8.5697 C   0  0  0  0  0  0  0  0  0  0  0  0
    5.9962    7.2557    8.0449 N   0  0  0  0  0  0  0  0  0  0  0  0
    4.6296    7.0632    8.5269 C   0  0  0  0  0  0  0  0  0  0  0  0
    3.6750    8.1614    8.0695 C   0  0  0  0  0  0  0  0  0  0  0  0
    3.5039    8.2314    6.5485 C   0  0  0  0  0  0  0  0  0  0  0  0
    2.7723    7.0030    5.9950 C   0  0  0  0  0  0  0  0  0  0  0  0
    2.4693    7.2162    4.5814 N   0  0  0  0  0  0  0  0  0  0  0  0
    1.1288    7.1274    3.9995 C   0  0  0  0  0  0  0  0  0  0  0  0
    0.7044    5.6831    3.6990 C   0  0  0  0  0  0  0  0  0  0  0  0
   -0.7741    5.6051    3.3044 C   0  0  0  0  0  0  0  0  0  0  0  0
   -1.5977    6.0646    4.4188 N   0  0  0  0  0  0  0  0  0  0  0  0
  1  2  1  0  0  0  0
  2  3  1  0  0  0  0
  3  4  1  0  0  0  0
  4  5  1  0  0  0  0
  5  6  1  0  0  0  0
  6  7  1  0  0  0  0
  7  8  1  0  0  0  0
  8  9  1  0  0  0  0
  9 10  1  0  0  0  0
 10 11  1  0  0  0  0
 11 12  1  0  0  0  0
 12 13  1  0  0  0  0
 13 14  1  0  0  0  0
M  END
>  <CHROM.1>
172.35863476,179.28256537,171.43812729,166.31162373,62.77673162,67.85857052
171.85447391,-124.58731096,-81.67172694,170.92059289,-62.11905293,4.18513194
6.75711968,6.39008445,-0.37663302,0.22058976,-2.11092884

>  <Name>
ligand

>  <RI>
0

>  <Rbt.Current_Directory>
/home/itssahil/PROJECTS/Mol_Feturizer/New_Systems/rnas/4FAW

>  <Rbt.Executable>
rbdock ($Id: //depot/dev/client3/rdock/2013.1/src/exe/rbdock.cxx#4 $)

>  <Rbt.Library>
libRbt.so (2013.1, Build901 2013/11/27)

>  <Rbt.Parameter_File>
/export/apps/rDock/src/rDock_2013.1_src/data/scripts/dock_solv.prm

>  <Rbt.Receptor>
prm/blind_docking_20.prm

>  <SCORE>
-8.81704

>  <SCORE.INTER>
-0.424994

>  <SCORE.INTER.CONST>
1

>  <SCORE.INTER.POLAR>
0

>  <SCORE.INTER.ROT>
11

>  <SCORE.INTER.SOLV>
11.2046

>  <SCORE.INTER.VDW>
-14.9515

>  <SCORE.INTER.norm>
-0.0303567

>  <SCORE.INTRA>
-8.39205

>  <SCORE.INTRA.DIHEDRAL>
-16.2894

>  <SCORE.INTRA.DIHEDRAL.0>
19.1003

>  <SCORE.INTRA.POLAR>
0

>  <SCORE.INTRA.POLAR.0>
0

>  <SCORE.INTRA.REPUL>
0

>  <SCORE.INTRA.REPUL.0>
0

>  <SCORE.INTRA.SOLV>
0.0917108

>  <SCORE.INTRA.SOLV.lig_0>
-47.5333

>  <SCORE.INTRA.VDW>
-0.293226

>  <SCORE.INTRA.VDW.0>
-0.287413

>  <SCORE.INTRA.norm>
-0.599432

>  <SCORE.RESTR>
0

>  <SCORE.RESTR.CAVITY>
0

>  <SCORE.RESTR.norm>
0

>  <SCORE.SYSTEM>
0

>  <SCORE.SYSTEM.CONST>
0

>  <SCORE.SYSTEM.DIHEDRAL>
0

>  <SCORE.SYSTEM.SOLV>
0

>  <SCORE.SYSTEM.norm>
0

>  <SCORE.heavy>
14

>  <SCORE.norm>
-0.629789

>  <RMSD>
51.790

$$$$
ligand
 OpenBabel11021811493D
libRbt.so/2013.1/901 2013/11/27
 14 13  0  0  0  0  0  0  0  0999 V2000
   -0.1959    7.6276   12.7294 N   0  0  0  0  0  0  0  0  0  0  0  0
    0.3478    7.4100   11.4068 C   0  0  0  0  0  0  0  0  0  0  0  0
    0.1767    8.6963   10.5727 C   0  0  0  0  0  0  0  0  0  0  0  0
    0.6332    8.5584    9.1120 C   0  0  0  0  0  0  0  0  0  0  0  0
    2.0733    8.3383    8.9091 N   0  0  0  0  0  0  0  0  0  0  0  0
    2.7038    8.2750    7.5918 C   0  0  0  0  0  0  0  0  0  0  0  0
    3.6535    7.0911    7.4408 C   0  0  0  0  0  0  0  0  0  0  0  0
    4.9863    7.2762    8.1736 C   0  0  0  0  0  0  0  0  0  0  0  0
    5.8615    6.0193    8.1014 C   0  0  0  0  0  0  0  0  0  0  0  0
    7.2436    6.3732    8.4179 N   0  0  0  0  0  0  0  0  0  0  0  0
    8.0996    7.2062    7.5713 C   0  0  0  0  0  0  0  0  0  0  0  0
    9.5507    7.2669    8.0681 C   0  0  0  0  0  0  0  0  0  0  0  0
   10.2605    5.9210    7.8877 C   0  0  0  0  0  0  0  0  0  0  0  0
    9.6154    4.9167    8.7283 N   0  0  0  0  0  0  0  0  0  0  0  0
  1  2  1  0  0  0  0
  2  3  1  0  0  0  0
  3  4  1  0  0  0  0
  4  5  1  0  0  0  0
  5  6  1  0  0  0  0
  6  7  1  0  0  0  0
  7  8  1  0  0  0  0
  8  9  1  0  0  0  0
  9 10  1  0  0  0  0
 10 11  1  0  0  0  0
 11 12  1  0  0  0  0
 12 13  1  0  0  0  0
 13 14  1  0  0  0  0
M  END
>  <CHROM.1>
-176.10086087,-65.91723397,-175.66995083,-133.01011819,-75.03136539,174.98195480
161.87894718,-67.90156662,-172.90386610,69.35069761,-64.38435177,4.64355642
7.21275314,8.90760731,-2.95299623,0.29645365,-1.22662641

>  <Name>
ligand

>  <RI>
0

>  <Rbt.Current_Directory>
/home/itssahil/PROJECTS/Mol_Feturizer/New_Systems/rnas/4FAW

>  <Rbt.Executable>
rbdock ($Id: //depot/dev/client3/rdock/2013.1/src/exe/rbdock.cxx#4 $)

>  <Rbt.Library>
libRbt.so (2013.1, Build901 2013/11/27)

>  <Rbt.Parameter_File>
/export/apps/rDock/src/rDock_2013.1_src/data/scripts/dock_solv.prm

>  <Rbt.Receptor>
prm/blind_docking_20.prm

>  <SCORE>
-8.23306

>  <SCORE.INTER>
-1.04345

>  <SCORE.INTER.CONST>
1

>  <SCORE.INTER.POLAR>
0

>  <SCORE.INTER.ROT>
11

>  <SCORE.INTER.SOLV>
12.8806

>  <SCORE.INTER.VDW>
-15.9225

>  <SCORE.INTER.norm>
-0.0745319

>  <SCORE.INTRA>
-7.18962

>  <SCORE.INTRA.DIHEDRAL>
-15.2734

>  <SCORE.INTRA.DIHEDRAL.0>
19.1003

>  <SCORE.INTRA.POLAR>
0

>  <SCORE.INTRA.POLAR.0>
0

>  <SCORE.INTRA.REPUL>
0

>  <SCORE.INTRA.REPUL.0>
0

>  <SCORE.INTRA.SOLV>
2.22941

>  <SCORE.INTRA.SOLV.lig_0>
-47.5333

>  <SCORE.INTRA.VDW>
-0.667607

>  <SCORE.INTRA.VDW.0>
-0.287413

>  <SCORE.INTRA.norm>
-0.513544

>  <SCORE.RESTR>
0

>  <SCORE.RESTR.CAVITY>
0

>  <SCORE.RESTR.norm>
0

>  <SCORE.SYSTEM>
0

>  <SCORE.SYSTEM.CONST>
0

>  <SCORE.SYSTEM.DIHEDRAL>
0

>  <SCORE.SYSTEM.SOLV>
0

>  <SCORE.SYSTEM.norm>
0

>  <SCORE.heavy>
14

>  <SCORE.norm>
-0.588076

>  <RMSD>
51.867

$$$$
ligand
 OpenBabel11021811493D
libRbt.so/2013.1/901 2013/11/27
 14 13  0  0  0  0  0  0  0  0999 V2000
   10.5880    6.0465    9.6205 N   0  0  0  0  0  0  0  0  0  0  0  0
    9.5605    5.8595    8.6198 C   0  0  0  0  0  0  0  0  0  0  0  0
    9.2390    7.2192    7.9661 C   0  0  0  0  0  0  0  0  0  0  0  0
    8.0860    7.1670    6.9517 C   0  0  0  0  0  0  0  0  0  0  0  0
    6.8571    6.5029    7.4126 N   0  0  0  0  0  0  0  0  0  0  0  0
    5.9014    7.1184    8.3317 C   0  0  0  0  0  0  0  0  0  0  0  0
    4.6945    7.7229    7.6214 C   0  0  0  0  0  0  0  0  0  0  0  0
    3.4777    7.9130    8.5328 C   0  0  0  0  0  0  0  0  0  0  0  0
    2.2872    8.5221    7.7829 C   0  0  0  0  0  0  0  0  0  0  0  0
    1.9694    7.6916    6.6232 N   0  0  0  0  0  0  0  0  0  0  0  0
    0.8406    6.7618    6.5552 C   0  0  0  0  0  0  0  0  0  0  0  0
   -0.4457    7.3412    7.1601 C   0  0  0  0  0  0  0  0  0  0  0  0
   -1.6313    6.3893    6.9706 C   0  0  0  0  0  0  0  0  0  0  0  0
   -1.8918    6.2182    5.5443 N   0  0  0  0  0  0  0  0  0  0  0  0
  1  2  1  0  0  0  0
  2  3  1  0  0  0  0
  3  4  1  0  0  0  0
  4  5  1  0  0  0  0
  5  6  1  0  0  0  0
  6  7  1  0  0  0  0
  7  8  1  0  0  0  0
  8  9  1  0  0  0  0
  9 10  1  0  0  0  0
 10 11  1  0  0  0  0
 11 12  1  0  0  0  0
 12 13  1  0  0  0  0
 13 14  1  0  0  0  0
M  END
>  <CHROM.1>
-175.86671257,49.57053639,76.14563070,98.98540565,159.29045860,179.99479467
55.60703406,103.51048144,42.04871500,175.38789530,-62.84452213,4.25225866
7.03399486,7.54959800,-0.06807982,0.17105405,-2.55478936

>  <Name>
ligand

>  <RI>
0

>  <Rbt.Current_Directory>
/home/itssahil/PROJECTS/Mol_Feturizer/New_Systems/rnas/4FAW

>  <Rbt.Executable>
rbdock ($Id: //depot/dev/client3/rdock/2013.1/src/exe/rbdock.cxx#4 $)

>  <Rbt.Library>
libRbt.so (2013.1, Build901 2013/11/27)

>  <Rbt.Parameter_File>
/export/apps/rDock/src/rDock_2013.1_src/data/scripts/dock_solv.prm

>  <Rbt.Receptor>
prm/blind_docking_20.prm

>  <SCORE>
-5.80632

>  <SCORE.INTER>
1.10821

>  <SCORE.INTER.CONST>
1

>  <SCORE.INTER.POLAR>
0

>  <SCORE.INTER.ROT>
11

>  <SCORE.INTER.SOLV>
16.6869

>  <SCORE.INTER.VDW>
-15.7568

>  <SCORE.INTER.norm>
0.0791577

>  <SCORE.INTRA>
-6.9258

>  <SCORE.INTRA.DIHEDRAL>
-14.6716

>  <SCORE.INTRA.DIHEDRAL.0>
19.1003

>  <SCORE.INTRA.POLAR>
0

>  <SCORE.INTRA.POLAR.0>
0

>  <SCORE.INTRA.REPUL>
0

>  <SCORE.INTRA.REPUL.0>
0

>  <SCORE.INTRA.SOLV>
0.235498

>  <SCORE.INTRA.SOLV.lig_0>
-47.5333

>  <SCORE.INTRA.VDW>
0.292231

>  <SCORE.INTRA.VDW.0>
-0.287413

>  <SCORE.INTRA.norm>
-0.4947

>  <SCORE.RESTR>
0.0112686

>  <SCORE.RESTR.CAVITY>
0.0112686

>  <SCORE.RESTR.norm>
0.0008049

>  <SCORE.SYSTEM>
0

>  <SCORE.SYSTEM.CONST>
0

>  <SCORE.SYSTEM.DIHEDRAL>
0

>  <SCORE.SYSTEM.SOLV>
0

>  <SCORE.SYSTEM.norm>
0

>  <SCORE.heavy>
14

>  <SCORE.norm>
-0.414737

>  <RMSD>
51.916

$$$$
ligand
 OpenBabel11021811493D
libRbt.so/2013.1/901 2013/11/27
 14 13  0  0  0  0  0  0  0  0999 V2000
   -0.0189    6.1681    3.5127 N   0  0  0  0  0  0  0  0  0  0  0  0
   -1.1306    6.0057    4.4237 C   0  0  0  0  0  0  0  0  0  0  0  0
   -1.0260    7.0636    5.5415 C   0  0  0  0  0  0  0  0  0  0  0  0
    0.2180    6.9114    6.4305 C   0  0  0  0  0  0  0  0  0  0  0  0
    0.5074    8.0418    7.3261 N   0  0  0  0  0  0  0  0  0  0  0  0
    1.7420    8.1655    8.0990 C   0  0  0  0  0  0  0  0  0  0  0  0
    2.9954    7.9228    7.2645 C   0  0  0  0  0  0  0  0  0  0  0  0
    4.2690    7.7657    8.1017 C   0  0  0  0  0  0  0  0  0  0  0  0
    5.4769    7.3729    7.2428 C   0  0  0  0  0  0  0  0  0  0  0  0
    6.6237    7.1129    8.1104 N   0  0  0  0  0  0  0  0  0  0  0  0
    7.8598    6.4601    7.6753 C   0  0  0  0  0  0  0  0  0  0  0  0
    8.8020    6.1309    8.8415 C   0  0  0  0  0  0  0  0  0  0  0  0
    9.9573    5.2311    8.3906 C   0  0  0  0  0  0  0  0  0  0  0  0
   10.7807    5.9489    7.4220 N   0  0  0  0  0  0  0  0  0  0  0  0
  1  2  1  0  0  0  0
  2  3  1  0  0  0  0
  3  4  1  0  0  0  0
  4  5  1  0  0  0  0
  5  6  1  0  0  0  0
  6  7  1  0  0  0  0
  7  8  1  0  0  0  0
  8  9  1  0  0  0  0
  9 10  1  0  0  0  0
 10 11  1  0  0  0  0
 11 12  1  0  0  0  0
 12 13  1  0  0  0  0
 13 14  1  0  0  0  0
M  END
>  <CHROM.1>
-63.90944723,168.02124913,-170.84947522,48.27912868,-168.23583727,173.78483222
-174.55630215,167.08989189,-171.35442060,169.71929470,64.04012566,4.07532006
6.87869326,7.02747904,-2.97281569,-0.22219888,0.96767037

>  <Name>
ligand

>  <RI>
0

>  <Rbt.Current_Directory>
/home/itssahil/PROJECTS/Mol_Feturizer/New_Systems/rnas/4FAW

>  <Rbt.Executable>
rbdock ($Id: //depot/dev/client3/rdock/2013.1/src/exe/rbdock.cxx#4 $)

>  <Rbt.Library>
libRbt.so (2013.1, Build901 2013/11/27)

>  <Rbt.Parameter_File>
/export/apps/rDock/src/rDock_2013.1_src/data/scripts/dock_solv.prm

>  <Rbt.Receptor>
prm/blind_docking_20.prm

>  <SCORE>
-7.65437

>  <SCORE.INTER>
0.88683

>  <SCORE.INTER.CONST>
1

>  <SCORE.INTER.POLAR>
0

>  <SCORE.INTER.ROT>
11

>  <SCORE.INTER.SOLV>
10.3902

>  <SCORE.INTER.VDW>
-13.8055

>  <SCORE.INTER.norm>
0.063345

>  <SCORE.INTRA>
-8.54119

>  <SCORE.INTRA.DIHEDRAL>
-16.9169

>  <SCORE.INTRA.DIHEDRAL.0>
19.1003

>  <SCORE.INTRA.POLAR>
0

>  <SCORE.INTRA.POLAR.0>
0

>  <SCORE.INTRA.REPUL>
0

>  <SCORE.INTRA.REPUL.0>
0

>  <SCORE.INTRA.SOLV>
0.0541004

>  <SCORE.INTRA.SOLV.lig_0>
-47.5333

>  <SCORE.INTRA.VDW>
-0.109779

>  <SCORE.INTRA.VDW.0>
-0.287413

>  <SCORE.INTRA.norm>
-0.610085

>  <SCORE.RESTR>
0

>  <SCORE.RESTR.CAVITY>
0

>  <SCORE.RESTR.norm>
0

>  <SCORE.SYSTEM>
0

>  <SCORE.SYSTEM.CONST>
0

>  <SCORE.SYSTEM.DIHEDRAL>
0

>  <SCORE.SYSTEM.SOLV>
0

>  <SCORE.SYSTEM.norm>
0

>  <SCORE.heavy>
14

>  <SCORE.norm>
-0.54674

>  <RMSD>
51.995

$$$$
ligand
 OpenBabel11021811493D
libRbt.so/2013.1/901 2013/11/27
 14 13  0  0  0  0  0  0  0  0999 V2000
   -0.9680    8.0869   10.8855 N   0  0  0  0  0  0  0  0  0  0  0  0
    0.4296    7.7306   10.7761 C   0  0  0  0  0  0  0  0  0  0  0  0
    1.1372    8.7408    9.8497 C   0  0  0  0  0  0  0  0  0  0  0  0
    0.6717    8.6783    8.3867 C   0  0  0  0  0  0  0  0  0  0  0  0
    1.1752    7.5403    7.6025 N   0  0  0  0  0  0  0  0  0  0  0  0
    2.1887    7.6646    6.5564 C   0  0  0  0  0  0  0  0  0  0  0  0
    3.3609    8.5516    6.9632 C   0  0  0  0  0  0  0  0  0  0  0  0
    4.2043    7.9698    8.1024 C   0  0  0  0  0  0  0  0  0  0  0  0
    5.1089    6.8285    7.6230 C   0  0  0  0  0  0  0  0  0  0  0  0
    5.9896    6.4178    8.7146 N   0  0  0  0  0  0  0  0  0  0  0  0
    7.3734    5.9731    8.5392 C   0  0  0  0  0  0  0  0  0  0  0  0
    8.2874    7.0746    7.9848 C   0  0  0  0  0  0  0  0  0  0  0  0
    9.7664    6.7147    8.1591 C   0  0  0  0  0  0  0  0  0  0  0  0
   10.0583    5.4924    7.4160 N   0  0  0  0  0  0  0  0  0  0  0  0
  1  2  1  0  0  0  0
  2  3  1  0  0  0  0
  3  4  1  0  0  0  0
  4  5  1  0  0  0  0
  5  6  1  0  0  0  0
  6  7  1  0  0  0  0
  7  8  1  0  0  0  0
  8  9  1  0  0  0  0
  9 10  1  0  0  0  0
 10 11  1  0  0  0  0
 11 12  1  0  0  0  0
 12 13  1  0  0  0  0
 13 14  1  0  0  0  0
M  END
>  <CHROM.1>
-66.54866880,-75.47165263,-107.62342866,44.63417673,66.25921884,75.47201099
173.78306334,-144.55232536,64.09743505,164.92120131,61.50034116,4.19888131
7.39050289,8.39698249,-3.01176500,0.24576542,-1.41276469

>  <Name>
ligand

>  <RI>
0

>  <Rbt.Current_Directory>
/home/itssahil/PROJECTS/Mol_Feturizer/New_Systems/rnas/4FAW

>  <Rbt.Executable>
rbdock ($Id: //depot/dev/client3/rdock/2013.1/src/exe/rbdock.cxx#4 $)

>  <Rbt.Library>
libRbt.so (2013.1, Build901 2013/11/27)

>  <Rbt.Parameter_File>
/export/apps/rDock/src/rDock_2013.1_src/data/scripts/dock_solv.prm

>  <Rbt.Receptor>
prm/blind_docking_20.prm

>  <SCORE>
-7.47942

>  <SCORE.INTER>
-1.31372

>  <SCORE.INTER.CONST>
1

>  <SCORE.INTER.POLAR>
0

>  <SCORE.INTER.ROT>
11

>  <SCORE.INTER.SOLV>
8.86439

>  <SCORE.INTER.VDW>
-14.7639

>  <SCORE.INTER.norm>
-0.0938369

>  <SCORE.INTRA>
-6.1657

>  <SCORE.INTRA.DIHEDRAL>
-13.9704

>  <SCORE.INTRA.DIHEDRAL.0>
19.1003

>  <SCORE.INTRA.POLAR>
0

>  <SCORE.INTRA.POLAR.0>
0

>  <SCORE.INTRA.REPUL>
0

>  <SCORE.INTRA.REPUL.0>
0

>  <SCORE.INTRA.SOLV>
1.18947

>  <SCORE.INTRA.SOLV.lig_0>
-47.5333

>  <SCORE.INTRA.VDW>
0.22477

>  <SCORE.INTRA.VDW.0>
-0.287413

>  <SCORE.INTRA.norm>
-0.440407

>  <SCORE.RESTR>
0

>  <SCORE.RESTR.CAVITY>
0

>  <SCORE.RESTR.norm>
0

>  <SCORE.SYSTEM>
0

>  <SCORE.SYSTEM.CONST>
0

>  <SCORE.SYSTEM.DIHEDRAL>
0

>  <SCORE.SYSTEM.SOLV>
0

>  <SCORE.SYSTEM.norm>
0

>  <SCORE.heavy>
14

>  <SCORE.norm>
-0.534244

>  <RMSD>
52.211

$$$$
ligand
 OpenBabel11021811493D
libRbt.so/2013.1/901 2013/11/27
 14 13  0  0  0  0  0  0  0  0999 V2000
    9.4176    6.4203    7.0186 N   0  0  0  0  0  0  0  0  0  0  0  0
    9.1431    6.1517    8.4132 C   0  0  0  0  0  0  0  0  0  0  0  0
    7.6423    5.8368    8.5808 C   0  0  0  0  0  0  0  0  0  0  0  0
    6.7152    7.0110    8.2302 C   0  0  0  0  0  0  0  0  0  0  0  0
    5.2749    6.7599    8.3910 N   0  0  0  0  0  0  0  0  0  0  0  0
    4.3147    7.7873    8.7903 C   0  0  0  0  0  0  0  0  0  0  0  0
    3.6513    8.4780    7.6032 C   0  0  0  0  0  0  0  0  0  0  0  0
    2.4255    7.7322    7.0659 C   0  0  0  0  0  0  0  0  0  0  0  0
    1.7068    8.5239    5.9669 C   0  0  0  0  0  0  0  0  0  0  0  0
    0.4457    7.8621    5.6395 N   0  0  0  0  0  0  0  0  0  0  0  0
    0.3395    6.5146    5.0770 C   0  0  0  0  0  0  0  0  0  0  0  0
    0.8727    6.4252    3.6403 C   0  0  0  0  0  0  0  0  0  0  0  0
    0.6674    5.0248    3.0535 C   0  0  0  0  0  0  0  0  0  0  0  0
   -0.7596    4.7189    3.0183 N   0  0  0  0  0  0  0  0  0  0  0  0
  1  2  1  0  0  0  0
  2  3  1  0  0  0  0
  3  4  1  0  0  0  0
  4  5  1  0  0  0  0
  5  6  1  0  0  0  0
  6  7  1  0  0  0  0
  7  8  1  0  0  0  0
  8  9  1  0  0  0  0
  9 10  1  0  0  0  0
 10 11  1  0  0  0  0
 11 12  1  0  0  0  0
 12 13  1  0  0  0  0
 13 14  1  0  0  0  0
M  END
>  <CHROM.1>
-63.86504685,-179.30737405,147.17177244,93.51852739,85.29700534,174.36903889
-171.55577309,-63.01890495,-68.12465172,-176.49710423,60.99011900,3.70411213
6.80346925,6.46365805,-0.38869718,0.31582149,-2.30404460

>  <Name>
ligand

>  <RI>
0

>  <Rbt.Current_Directory>
/home/itssahil/PROJECTS/Mol_Feturizer/New_Systems/rnas/4FAW

>  <Rbt.Executable>
rbdock ($Id: //depot/dev/client3/rdock/2013.1/src/exe/rbdock.cxx#4 $)

>  <Rbt.Library>
libRbt.so (2013.1, Build901 2013/11/27)

>  <Rbt.Parameter_File>
/export/apps/rDock/src/rDock_2013.1_src/data/scripts/dock_solv.prm

>  <Rbt.Receptor>
prm/blind_docking_20.prm

>  <SCORE>
-5.68945

>  <SCORE.INTER>
1.71047

>  <SCORE.INTER.CONST>
1

>  <SCORE.INTER.POLAR>
0

>  <SCORE.INTER.ROT>
11

>  <SCORE.INTER.SOLV>
13.3834

>  <SCORE.INTER.VDW>
-14.2542

>  <SCORE.INTER.norm>
0.122176

>  <SCORE.INTRA>
-7.39992

>  <SCORE.INTRA.DIHEDRAL>
-15.0481

>  <SCORE.INTRA.DIHEDRAL.0>
19.1003

>  <SCORE.INTRA.POLAR>
0

>  <SCORE.INTRA.POLAR.0>
0

>  <SCORE.INTRA.REPUL>
0

>  <SCORE.INTRA.REPUL.0>
0

>  <SCORE.INTRA.SOLV>
0.314921

>  <SCORE.INTRA.SOLV.lig_0>
-47.5333

>  <SCORE.INTRA.VDW>
-0.0333035

>  <SCORE.INTRA.VDW.0>
-0.287413

>  <SCORE.INTRA.norm>
-0.528565

>  <SCORE.RESTR>
0

>  <SCORE.RESTR.CAVITY>
0

>  <SCORE.RESTR.norm>
0

>  <SCORE.SYSTEM>
0

>  <SCORE.SYSTEM.CONST>
0

>  <SCORE.SYSTEM.DIHEDRAL>
0

>  <SCORE.SYSTEM.SOLV>
0

>  <SCORE.SYSTEM.norm>
0

>  <SCORE.heavy>
14

>  <SCORE.norm>
-0.406389

>  <RMSD>
52.280

$$$$
ligand
 OpenBabel11021811493D
libRbt.so/2013.1/901 2013/11/27
 14 13  0  0  0  0  0  0  0  0999 V2000
    9.1130    7.6440    7.5683 N   0  0  0  0  0  0  0  0  0  0  0  0
    7.9884    6.7761    7.2957 C   0  0  0  0  0  0  0  0  0  0  0  0
    7.5954    6.0369    8.5914 C   0  0  0  0  0  0  0  0  0  0  0  0
    6.4800    4.9971    8.4029 C   0  0  0  0  0  0  0  0  0  0  0  0
    5.1883    5.5213    7.9333 N   0  0  0  0  0  0  0  0  0  0  0  0
    4.4186    6.5360    8.6508 C   0  0  0  0  0  0  0  0  0  0  0  0
    4.7085    7.9547    8.1716 C   0  0  0  0  0  0  0  0  0  0  0  0
    4.2457    8.2241    6.7361 C   0  0  0  0  0  0  0  0  0  0  0  0
    2.8246    8.7977    6.6882 C   0  0  0  0  0  0  0  0  0  0  0  0
    1.8846    7.8057    7.2059 N   0  0  0  0  0  0  0  0  0  0  0  0
    0.6402    8.1304    7.9056 C   0  0  0  0  0  0  0  0  0  0  0  0
    0.8412    8.3379    9.4132 C   0  0  0  0  0  0  0  0  0  0  0  0
   -0.4970    8.5246   10.1356 C   0  0  0  0  0  0  0  0  0  0  0  0
   -0.2559    8.6977   11.5650 N   0  0  0  0  0  0  0  0  0  0  0  0
  1  2  1  0  0  0  0
  2  3  1  0  0  0  0
  3  4  1  0  0  0  0
  4  5  1  0  0  0  0
  5  6  1  0  0  0  0
  6  7  1  0  0  0  0
  7  8  1  0  0  0  0
  8  9  1  0  0  0  0
  9 10  1  0  0  0  0
 10 11  1  0  0  0  0
 11 12  1  0  0  0  0
 12 13  1  0  0  0  0
 13 14  1  0  0  0  0
M  END
>  <CHROM.1>
-175.35386665,-61.53542731,-58.79980260,93.62064290,66.55263229,92.11909894
-64.15777395,149.21101763,-86.42214718,-173.81675530,179.15646109,3.94109699
7.42744577,8.30442547,0.08450598,0.33230302,-1.10766579

>  <Name>
ligand

>  <RI>
0

>  <Rbt.Current_Directory>
/home/itssahil/PROJECTS/Mol_Feturizer/New_Systems/rnas/4FAW

>  <Rbt.Executable>
rbdock ($Id: //depot/dev/client3/rdock/2013.1/src/exe/rbdock.cxx#4 $)

>  <Rbt.Library>
libRbt.so (2013.1, Build901 2013/11/27)

>  <Rbt.Parameter_File>
/export/apps/rDock/src/rDock_2013.1_src/data/scripts/dock_solv.prm

>  <Rbt.Receptor>
prm/blind_docking_20.prm

>  <SCORE>
-5.49199

>  <SCORE.INTER>
2.18968

>  <SCORE.INTER.CONST>
1

>  <SCORE.INTER.POLAR>
0

>  <SCORE.INTER.ROT>
11

>  <SCORE.INTER.SOLV>
12.8756

>  <SCORE.INTER.VDW>
-13.7654

>  <SCORE.INTER.norm>
0.156406

>  <SCORE.INTRA>
-7.68167

>  <SCORE.INTRA.DIHEDRAL>
-13.412

>  <SCORE.INTRA.DIHEDRAL.0>
19.1003

>  <SCORE.INTRA.POLAR>
0

>  <SCORE.INTRA.POLAR.0>
0

>  <SCORE.INTRA.REPUL>
0

>  <SCORE.INTRA.REPUL.0>
0

>  <SCORE.INTRA.SOLV>
0.459565

>  <SCORE.INTRA.SOLV.lig_0>
-47.5333

>  <SCORE.INTRA.VDW>
-1.20547

>  <SCORE.INTRA.VDW.0>
-0.287413

>  <SCORE.INTRA.norm>
-0.548691

>  <SCORE.RESTR>
0

>  <SCORE.RESTR.CAVITY>
0

>  <SCORE.RESTR.norm>
0

>  <SCORE.SYSTEM>
0

>  <SCORE.SYSTEM.CONST>
0

>  <SCORE.SYSTEM.DIHEDRAL>
0

>  <SCORE.SYSTEM.SOLV>
0

>  <SCORE.SYSTEM.norm>
0

>  <SCORE.heavy>
14

>  <SCORE.norm>
-0.392285

>  <RMSD>
52.453

$$$$
ligand
 OpenBabel11021811493D
libRbt.so/2013.1/901 2013/11/27
 14 13  0  0  0  0  0  0  0  0999 V2000
   -1.0236    6.6131   12.2170 N   0  0  0  0  0  0  0  0  0  0  0  0
    0.0310    7.5317   11.8480 C   0  0  0  0  0  0  0  0  0  0  0  0
    0.0478    7.6909   10.3137 C   0  0  0  0  0  0  0  0  0  0  0  0
    1.1358    8.6452    9.7972 C   0  0  0  0  0  0  0  0  0  0  0  0
    1.1819    8.8349    8.3393 N   0  0  0  0  0  0  0  0  0  0  0  0
    2.0198    8.0367    7.4462 C   0  0  0  0  0  0  0  0  0  0  0  0
    3.5021    8.3801    7.5530 C   0  0  0  0  0  0  0  0  0  0  0  0
    4.1535    7.8903    8.8503 C   0  0  0  0  0  0  0  0  0  0  0  0
    4.5936    6.4246    8.7550 C   0  0  0  0  0  0  0  0  0  0  0  0
    6.0534    6.3572    8.7457 N   0  0  0  0  0  0  0  0  0  0  0  0
    6.9136    7.1582    7.8728 C   0  0  0  0  0  0  0  0  0  0  0  0
    8.2165    6.4387    7.4974 C   0  0  0  0  0  0  0  0  0  0  0  0
    9.0592    6.1239    8.7377 C   0  0  0  0  0  0  0  0  0  0  0  0
   10.2624    5.4017    8.3353 N   0  0  0  0  0  0  0  0  0  0  0  0
  1  2  1  0  0  0  0
  2  3  1  0  0  0  0
  3  4  1  0  0  0  0
  4  5  1  0  0  0  0
  5  6  1  0  0  0  0
  6  7  1  0  0  0  0
  7  8  1  0  0  0  0
  8  9  1  0  0  0  0
  9 10  1  0  0  0  0
 10 11  1  0  0  0  0
 11 12  1  0  0  0  0
 12 13  1  0  0  0  0
 13 14  1  0  0  0  0
M  END
>  <CHROM.1>
-179.80411719,-179.55628084,-92.39673149,-72.82374441,72.34064545,83.86238601
110.74733575,-49.57806833,-149.01007117,-61.18146027,178.08545676,4.01045682
7.25212549,9.02188492,-3.00293740,0.29435796,-1.04213238

>  <Name>
ligand

>  <RI>
0

>  <Rbt.Current_Directory>
/home/itssahil/PROJECTS/Mol_Feturizer/New_Systems/rnas/4FAW

>  <Rbt.Executable>
rbdock ($Id: //depot/dev/client3/rdock/2013.1/src/exe/rbdock.cxx#4 $)

>  <Rbt.Library>
libRbt.so (2013.1, Build901 2013/11/27)

>  <Rbt.Parameter_File>
/export/apps/rDock/src/rDock_2013.1_src/data/scripts/dock_solv.prm

>  <Rbt.Receptor>
prm/blind_docking_20.prm

>  <SCORE>
-5.84957

>  <SCORE.INTER>
-0.92119

>  <SCORE.INTER.CONST>
1

>  <SCORE.INTER.POLAR>
0

>  <SCORE.INTER.ROT>
11

>  <SCORE.INTER.SOLV>
13.998

>  <SCORE.INTER.VDW>
-16.2135

>  <SCORE.INTER.norm>
-0.0657993

>  <SCORE.INTRA>
-4.92838

>  <SCORE.INTRA.DIHEDRAL>
-9.70449

>  <SCORE.INTRA.DIHEDRAL.0>
19.1003

>  <SCORE.INTRA.POLAR>
0

>  <SCORE.INTRA.POLAR.0>
0

>  <SCORE.INTRA.REPUL>
0

>  <SCORE.INTRA.REPUL.0>
0

>  <SCORE.INTRA.SOLV>
-0.483945

>  <SCORE.INTRA.SOLV.lig_0>
-47.5333

>  <SCORE.INTRA.VDW>
0.165837

>  <SCORE.INTRA.VDW.0>
-0.287413

>  <SCORE.INTRA.norm>
-0.352027

>  <SCORE.RESTR>
0

>  <SCORE.RESTR.CAVITY>
0

>  <SCORE.RESTR.norm>
0

>  <SCORE.SYSTEM>
0

>  <SCORE.SYSTEM.CONST>
0

>  <SCORE.SYSTEM.DIHEDRAL>
0

>  <SCORE.SYSTEM.SOLV>
0

>  <SCORE.SYSTEM.norm>
0

>  <SCORE.heavy>
14

>  <SCORE.norm>
-0.417826

>  <RMSD>
52.504

$$$$
ligand
 OpenBabel11021811493D
libRbt.so/2013.1/901 2013/11/27
 14 13  0  0  0  0  0  0  0  0999 V2000
   -2.6613    4.4390    7.7890 N   0  0  0  0  0  0  0  0  0  0  0  0
   -2.4371    5.6388    7.0129 C   0  0  0  0  0  0  0  0  0  0  0  0
   -1.1279    6.3063    7.4820 C   0  0  0  0  0  0  0  0  0  0  0  0
   -0.8428    7.6597    6.8128 C   0  0  0  0  0  0  0  0  0  0  0  0
    0.3585    8.3663    7.2832 N   0  0  0  0  0  0  0  0  0  0  0  0
    1.6913    8.1587    6.7196 C   0  0  0  0  0  0  0  0  0  0  0  0
    2.7763    8.0318    7.7840 C   0  0  0  0  0  0  0  0  0  0  0  0
    4.1708    7.7620    7.2095 C   0  0  0  0  0  0  0  0  0  0  0  0
    5.2139    7.5420    8.3116 C   0  0  0  0  0  0  0  0  0  0  0  0
    6.5223    7.3154    7.7013 N   0  0  0  0  0  0  0  0  0  0  0  0
    7.6675    6.7223    8.3943 C   0  0  0  0  0  0  0  0  0  0  0  0
    9.0111    7.0982    7.7542 C   0  0  0  0  0  0  0  0  0  0  0  0
   10.1871    6.4838    8.5204 C   0  0  0  0  0  0  0  0  0  0  0  0
   10.0934    5.0280    8.4655 N   0  0  0  0  0  0  0  0  0  0  0  0
  1  2  1  0  0  0  0
  2  3  1  0  0  0  0
  3  4  1  0  0  0  0
  4  5  1  0  0  0  0
  5  6  1  0  0  0  0
  6  7  1  0  0  0  0
  7  8  1  0  0  0  0
  8  9  1  0  0  0  0
  9 10  1  0  0  0  0
 10 11  1  0  0  0  0
 11 12  1  0  0  0  0
 12 13  1  0  0  0  0
 13 14  1  0  0  0  0
M  END
>  <CHROM.1>
-174.99127445,176.84041625,87.79282907,-135.59645964,177.86022561,-175.93493049
-178.95166357,-162.73912334,-157.12829263,178.86987173,62.46854090,3.61594890
6.89684285,7.65995868,3.12947226,-0.09417263,-0.21851951

>  <Name>
ligand

>  <RI>
0

>  <Rbt.Current_Directory>
/home/itssahil/PROJECTS/Mol_Feturizer/New_Systems/rnas/4FAW

>  <Rbt.Executable>
rbdock ($Id: //depot/dev/client3/rdock/2013.1/src/exe/rbdock.cxx#4 $)

>  <Rbt.Library>
libRbt.so (2013.1, Build901 2013/11/27)

>  <Rbt.Parameter_File>
/export/apps/rDock/src/rDock_2013.1_src/data/scripts/dock_solv.prm

>  <Rbt.Receptor>
prm/blind_docking_20.prm

>  <SCORE>
-10.5888

>  <SCORE.INTER>
-1.10279

>  <SCORE.INTER.CONST>
1

>  <SCORE.INTER.POLAR>
0

>  <SCORE.INTER.ROT>
11

>  <SCORE.INTER.SOLV>
17.374

>  <SCORE.INTER.VDW>
-17.4599

>  <SCORE.INTER.norm>
-0.078771

>  <SCORE.INTRA>
-9.48602

>  <SCORE.INTRA.DIHEDRAL>
-16.6983

>  <SCORE.INTRA.DIHEDRAL.0>
19.1003

>  <SCORE.INTRA.POLAR>
0

>  <SCORE.INTRA.POLAR.0>
0

>  <SCORE.INTRA.REPUL>
0

>  <SCORE.INTRA.REPUL.0>
0

>  <SCORE.INTRA.SOLV>
-0.687358

>  <SCORE.INTRA.SOLV.lig_0>
-47.5333

>  <SCORE.INTRA.VDW>
-0.793214

>  <SCORE.INTRA.VDW.0>
-0.287413

>  <SCORE.INTRA.norm>
-0.677573

>  <SCORE.RESTR>
0

>  <SCORE.RESTR.CAVITY>
0

>  <SCORE.RESTR.norm>
0

>  <SCORE.SYSTEM>
0

>  <SCORE.SYSTEM.CONST>
0

>  <SCORE.SYSTEM.DIHEDRAL>
0

>  <SCORE.SYSTEM.SOLV>
0

>  <SCORE.SYSTEM.norm>
0

>  <SCORE.heavy>
14

>  <SCORE.norm>
-0.756344

>  <RMSD>
52.582

$$$$
ligand
 OpenBabel11021811493D
libRbt.so/2013.1/901 2013/11/27
 14 13  0  0  0  0  0  0  0  0999 V2000
    9.5138    5.6403    8.3755 N   0  0  0  0  0  0  0  0  0  0  0  0
    8.1381    5.5117    7.9476 C   0  0  0  0  0  0  0  0  0  0  0  0
    7.3269    6.7066    8.4895 C   0  0  0  0  0  0  0  0  0  0  0  0
    5.8509    6.7042    8.0622 C   0  0  0  0  0  0  0  0  0  0  0  0
    5.0308    7.8075    8.5855 N   0  0  0  0  0  0  0  0  0  0  0  0
    3.7119    8.1545    8.0593 C   0  0  0  0  0  0  0  0  0  0  0  0
    3.7606    8.6905    6.6322 C   0  0  0  0  0  0  0  0  0  0  0  0
    3.5879    7.6064    5.5633 C   0  0  0  0  0  0  0  0  0  0  0  0
    2.1119    7.2751    5.3136 C   0  0  0  0  0  0  0  0  0  0  0  0
    1.5231    6.7358    6.5376 N   0  0  0  0  0  0  0  0  0  0  0  0
    0.0845    6.6084    6.7780 C   0  0  0  0  0  0  0  0  0  0  0  0
   -0.5911    7.9542    7.0758 C   0  0  0  0  0  0  0  0  0  0  0  0
   -0.0409    8.5844    8.3595 C   0  0  0  0  0  0  0  0  0  0  0  0
   -0.4834    7.8032    9.5107 N   0  0  0  0  0  0  0  0  0  0  0  0
  1  2  1  0  0  0  0
  2  3  1  0  0  0  0
  3  4  1  0  0  0  0
  4  5  1  0  0  0  0
  5  6  1  0  0  0  0
  6  7  1  0  0  0  0
  7  8  1  0  0  0  0
  8  9  1  0  0  0  0
  9 10  1  0  0  0  0
 10 11  1  0  0  0  0
 11 12  1  0  0  0  0
 12 13  1  0  0  0  0
 13 14  1  0  0  0  0
M  END
>  <CHROM.1>
178.20713917,178.46791113,165.33232541,-66.67372573,91.90727614,82.93227500
-62.64129532,164.72246273,-74.50119748,-62.76078485,-69.75938884,3.53735763
7.27030274,7.52044547,0.06803502,-0.20063136,1.45090095

>  <Name>
ligand

>  <RI>
0

>  <Rbt.Current_Directory>
/home/itssahil/PROJECTS/Mol_Feturizer/New_Systems/rnas/4FAW

>  <Rbt.Executable>
rbdock ($Id: //depot/dev/client3/rdock/2013.1/src/exe/rbdock.cxx#4 $)

>  <Rbt.Library>
libRbt.so (2013.1, Build901 2013/11/27)

>  <Rbt.Parameter_File>
/export/apps/rDock/src/rDock_2013.1_src/data/scripts/dock_solv.prm

>  <Rbt.Receptor>
prm/blind_docking_20.prm

>  <SCORE>
-3.07787

>  <SCORE.INTER>
3.48221

>  <SCORE.INTER.CONST>
1

>  <SCORE.INTER.POLAR>
0

>  <SCORE.INTER.ROT>
11

>  <SCORE.INTER.SOLV>
11.1673

>  <SCORE.INTER.VDW>
-12.3343

>  <SCORE.INTER.norm>
0.248729

>  <SCORE.INTRA>
-6.56008

>  <SCORE.INTRA.DIHEDRAL>
-13.1317

>  <SCORE.INTRA.DIHEDRAL.0>
19.1003

>  <SCORE.INTRA.POLAR>
0

>  <SCORE.INTRA.POLAR.0>
0

>  <SCORE.INTRA.REPUL>
0

>  <SCORE.INTRA.REPUL.0>
0

>  <SCORE.INTRA.SOLV>
1.63843

>  <SCORE.INTRA.SOLV.lig_0>
-47.5333

>  <SCORE.INTRA.VDW>
-0.81343

>  <SCORE.INTRA.VDW.0>
-0.287413

>  <SCORE.INTRA.norm>
-0.468577

>  <SCORE.RESTR>
0

>  <SCORE.RESTR.CAVITY>
0

>  <SCORE.RESTR.norm>
0

>  <SCORE.SYSTEM>
0

>  <SCORE.SYSTEM.CONST>
0

>  <SCORE.SYSTEM.DIHEDRAL>
0

>  <SCORE.SYSTEM.SOLV>
0

>  <SCORE.SYSTEM.norm>
0

>  <SCORE.heavy>
14

>  <SCORE.norm>
-0.219848

>  <RMSD>
52.679

$$$$
ligand
 OpenBabel11021811493D
libRbt.so/2013.1/901 2013/11/27
 14 13  0  0  0  0  0  0  0  0999 V2000
   10.7247    6.6237    8.4441 N   0  0  0  0  0  0  0  0  0  0  0  0
    9.4814    5.8846    8.4462 C   0  0  0  0  0  0  0  0  0  0  0  0
    8.3435    6.8091    7.9665 C   0  0  0  0  0  0  0  0  0  0  0  0
    7.0185    6.0795    7.6962 C   0  0  0  0  0  0  0  0  0  0  0  0
    5.8614    6.9398    7.4053 N   0  0  0  0  0  0  0  0  0  0  0  0
    5.0261    7.5482    8.4392 C   0  0  0  0  0  0  0  0  0  0  0  0
    3.7550    8.1820    7.8833 C   0  0  0  0  0  0  0  0  0  0  0  0
    2.8332    7.1861    7.1719 C   0  0  0  0  0  0  0  0  0  0  0  0
    1.5440    7.8503    6.6743 C   0  0  0  0  0  0  0  0  0  0  0  0
    0.6020    6.8183    6.2462 N   0  0  0  0  0  0  0  0  0  0  0  0
   -0.7593    7.0832    5.7770 C   0  0  0  0  0  0  0  0  0  0  0  0
   -1.7480    5.9734    6.1603 C   0  0  0  0  0  0  0  0  0  0  0  0
   -1.8801    5.8426    7.6812 C   0  0  0  0  0  0  0  0  0  0  0  0
   -2.4538    7.0701    8.2249 N   0  0  0  0  0  0  0  0  0  0  0  0
  1  2  1  0  0  0  0
  2  3  1  0  0  0  0
  3  4  1  0  0  0  0
  4  5  1  0  0  0  0
  5  6  1  0  0  0  0
  6  7  1  0  0  0  0
  7  8  1  0  0  0  0
  8  9  1  0  0  0  0
  9 10  1  0  0  0  0
 10 11  1  0  0  0  0
 11 12  1  0  0  0  0
 12 13  1  0  0  0  0
 13 14  1  0  0  0  0
M  END
>  <CHROM.1>
170.12581143,172.41608115,-84.63453279,-169.65625741,60.75697816,177.85322322
-168.99587456,176.71194435,-146.40335852,62.58382202,64.14855600,3.45337479
6.84933503,7.44398402,-0.07119202,0.10416997,-2.44286854

>  <Name>
ligand

>  <RI>
0

>  <Rbt.Current_Directory>
/home/itssahil/PROJECTS/Mol_Feturizer/New_Systems/rnas/4FAW

>  <Rbt.Executable>
rbdock ($Id: //depot/dev/client3/rdock/2013.1/src/exe/rbdock.cxx#4 $)

>  <Rbt.Library>
libRbt.so (2013.1, Build901 2013/11/27)

>  <Rbt.Parameter_File>
/export/apps/rDock/src/rDock_2013.1_src/data/scripts/dock_solv.prm

>  <Rbt.Receptor>
prm/blind_docking_20.prm

>  <SCORE>
-7.33101

>  <SCORE.INTER>
1.35827

>  <SCORE.INTER.CONST>
1

>  <SCORE.INTER.POLAR>
0

>  <SCORE.INTER.ROT>
11

>  <SCORE.INTER.SOLV>
11.6501

>  <SCORE.INTER.VDW>
-13.9112

>  <SCORE.INTER.norm>
0.0970196

>  <SCORE.INTRA>
-8.68929

>  <SCORE.INTRA.DIHEDRAL>
-16.727

>  <SCORE.INTRA.DIHEDRAL.0>
19.1003

>  <SCORE.INTRA.POLAR>
0

>  <SCORE.INTRA.POLAR.0>
0

>  <SCORE.INTRA.REPUL>
0

>  <SCORE.INTRA.REPUL.0>
0

>  <SCORE.INTRA.SOLV>
0.933015

>  <SCORE.INTRA.SOLV.lig_0>
-47.5333

>  <SCORE.INTRA.VDW>
-0.792303

>  <SCORE.INTRA.VDW.0>
-0.287413

>  <SCORE.INTRA.norm>
-0.620663

>  <SCORE.RESTR>
0

>  <SCORE.RESTR.CAVITY>
0

>  <SCORE.RESTR.norm>
0

>  <SCORE.SYSTEM>
0

>  <SCORE.SYSTEM.CONST>
0

>  <SCORE.SYSTEM.DIHEDRAL>
0

>  <SCORE.SYSTEM.SOLV>
0

>  <SCORE.SYSTEM.norm>
0

>  <SCORE.heavy>
14

>  <SCORE.norm>
-0.523644

>  <RMSD>
52.700

$$$$
ligand
 OpenBabel11021811493D
libRbt.so/2013.1/901 2013/11/27
 14 13  0  0  0  0  0  0  0  0999 V2000
   -0.4271    8.5016   12.0051 N   0  0  0  0  0  0  0  0  0  0  0  0
   -0.7994    8.8674   10.6561 C   0  0  0  0  0  0  0  0  0  0  0  0
   -0.6228    7.6434    9.7340 C   0  0  0  0  0  0  0  0  0  0  0  0
   -0.9712    7.9151    8.2624 C   0  0  0  0  0  0  0  0  0  0  0  0
   -0.1486    8.9298    7.5862 N   0  0  0  0  0  0  0  0  0  0  0  0
    1.1616    8.6500    7.0015 C   0  0  0  0  0  0  0  0  0  0  0  0
    2.2244    8.3249    8.0461 C   0  0  0  0  0  0  0  0  0  0  0  0
    3.6131    8.0715    7.4504 C   0  0  0  0  0  0  0  0  0  0  0  0
    4.6298    7.6542    8.5195 C   0  0  0  0  0  0  0  0  0  0  0  0
    5.9300    7.4320    7.8903 N   0  0  0  0  0  0  0  0  0  0  0  0
    7.0755    6.8079    8.5550 C   0  0  0  0  0  0  0  0  0  0  0  0
    8.3481    6.8325    7.6970 C   0  0  0  0  0  0  0  0  0  0  0  0
    9.5175    6.1465    8.4108 C   0  0  0  0  0  0  0  0  0  0  0  0
   10.6363    6.0070    7.4835 N   0  0  0  0  0  0  0  0  0  0  0  0
  1  2  1  0  0  0  0
  2  3  1  0  0  0  0
  3  4  1  0  0  0  0
  4  5  1  0  0  0  0
  5  6  1  0  0  0  0
  6  7  1  0  0  0  0
  7  8  1  0  0  0  0
  8  9  1  0  0  0  0
  9 10  1  0  0  0  0
 10 11  1  0  0  0  0
 11 12  1  0  0  0  0
 12 13  1  0  0  0  0
 13 14  1  0  0  0  0
M  END
>  <CHROM.1>
-179.21311445,62.06084657,82.73203453,-67.88037230,-178.22838729,-176.06596390
-179.83866775,-169.08747304,-174.28035058,-178.82944584,171.14510871,3.58320472
7.69882320,8.52118822,-3.01243420,0.22145049,-1.45042455

>  <Name>
ligand

>  <RI>
0

>  <Rbt.Current_Directory>
/home/itssahil/PROJECTS/Mol_Feturizer/New_Systems/rnas/4FAW

>  <Rbt.Executable>
rbdock ($Id: //depot/dev/client3/rdock/2013.1/src/exe/rbdock.cxx#4 $)

>  <Rbt.Library>
libRbt.so (2013.1, Build901 2013/11/27)

>  <Rbt.Parameter_File>
/export/apps/rDock/src/rDock_2013.1_src/data/scripts/dock_solv.prm

>  <Rbt.Receptor>
prm/blind_docking_20.prm

>  <SCORE>
-10.3921

>  <SCORE.INTER>
0.126419

>  <SCORE.INTER.CONST>
1

>  <SCORE.INTER.POLAR>
0

>  <SCORE.INTER.ROT>
11

>  <SCORE.INTER.SOLV>
9.5159

>  <SCORE.INTER.VDW>
-14.021

>  <SCORE.INTER.norm>
0.00902996

>  <SCORE.INTRA>
-10.5185

>  <SCORE.INTRA.DIHEDRAL>
-18.1592

>  <SCORE.INTRA.DIHEDRAL.0>
19.1003

>  <SCORE.INTRA.POLAR>
0

>  <SCORE.INTRA.POLAR.0>
0

>  <SCORE.INTRA.REPUL>
0

>  <SCORE.INTRA.REPUL.0>
0

>  <SCORE.INTRA.SOLV>
-1.19723

>  <SCORE.INTRA.SOLV.lig_0>
-47.5333

>  <SCORE.INTRA.VDW>
-0.840256

>  <SCORE.INTRA.VDW.0>
-0.287413

>  <SCORE.INTRA.norm>
-0.75132

>  <SCORE.RESTR>
0

>  <SCORE.RESTR.CAVITY>
0

>  <SCORE.RESTR.norm>
0

>  <SCORE.SYSTEM>
0

>  <SCORE.SYSTEM.CONST>
0

>  <SCORE.SYSTEM.DIHEDRAL>
0

>  <SCORE.SYSTEM.SOLV>
0

>  <SCORE.SYSTEM.norm>
0

>  <SCORE.heavy>
14

>  <SCORE.norm>
-0.74229

>  <RMSD>
52.883

$$$$
ligand
 OpenBabel11021811493D
libRbt.so/2013.1/901 2013/11/27
 14 13  0  0  0  0  0  0  0  0999 V2000
   -2.3081    4.7974    7.5148 N   0  0  0  0  0  0  0  0  0  0  0  0
   -1.4838    5.9611    7.2725 C   0  0  0  0  0  0  0  0  0  0  0  0
   -2.2196    7.2165    7.7846 C   0  0  0  0  0  0  0  0  0  0  0  0
   -1.4717    8.5315    7.5156 C   0  0  0  0  0  0  0  0  0  0  0  0
   -0.1405    8.6485    8.1303 N   0  0  0  0  0  0  0  0  0  0  0  0
    1.1071    8.3967    7.4111 C   0  0  0  0  0  0  0  0  0  0  0  0
    2.3064    8.2262    8.3379 C   0  0  0  0  0  0  0  0  0  0  0  0
    3.6259    7.9880    7.5965 C   0  0  0  0  0  0  0  0  0  0  0  0
    4.7670    7.6274    8.5550 C   0  0  0  0  0  0  0  0  0  0  0  0
    6.0021    7.4536    7.7935 N   0  0  0  0  0  0  0  0  0  0  0  0
    7.2238    6.8465    8.3248 C   0  0  0  0  0  0  0  0  0  0  0  0
    8.4859    7.2920    7.5731 C   0  0  0  0  0  0  0  0  0  0  0  0
    9.7531    6.7284    8.2244 C   0  0  0  0  0  0  0  0  0  0  0  0
    9.7715    5.2766    8.0719 N   0  0  0  0  0  0  0  0  0  0  0  0
  1  2  1  0  0  0  0
  2  3  1  0  0  0  0
  3  4  1  0  0  0  0
  4  5  1  0  0  0  0
  5  6  1  0  0  0  0
  6  7  1  0  0  0  0
  7  8  1  0  0  0  0
  8  9  1  0  0  0  0
  9 10  1  0  0  0  0
 10 11  1  0  0  0  0
 11 12  1  0  0  0  0
 12 13  1  0  0  0  0
 13 14  1  0  0  0  0
M  END
>  <CHROM.1>
-176.97562439,-60.50022020,98.68517622,-164.89395694,-178.90179847,-171.99651261
-178.28084889,-166.95999572,-156.32163781,175.40807416,66.64363013,3.24417943
7.21388003,7.86471677,3.10179921,-0.04603252,0.07198941

>  <Name>
ligand

>  <RI>
0

>  <Rbt.Current_Directory>
/home/itssahil/PROJECTS/Mol_Feturizer/New_Systems/rnas/4FAW

>  <Rbt.Executable>
rbdock ($Id: //depot/dev/client3/rdock/2013.1/src/exe/rbdock.cxx#4 $)

>  <Rbt.Library>
libRbt.so (2013.1, Build901 2013/11/27)

>  <Rbt.Parameter_File>
/export/apps/rDock/src/rDock_2013.1_src/data/scripts/dock_solv.prm

>  <Rbt.Receptor>
prm/blind_docking_20.prm

>  <SCORE>
-9.27841

>  <SCORE.INTER>
0.378956

>  <SCORE.INTER.CONST>
1

>  <SCORE.INTER.POLAR>
0

>  <SCORE.INTER.ROT>
11

>  <SCORE.INTER.SOLV>
14.7884

>  <SCORE.INTER.VDW>
-15.6102

>  <SCORE.INTER.norm>
0.0270683

>  <SCORE.INTRA>
-9.66123

>  <SCORE.INTRA.DIHEDRAL>
-16.9585

>  <SCORE.INTRA.DIHEDRAL.0>
19.1003

>  <SCORE.INTRA.POLAR>
0

>  <SCORE.INTRA.POLAR.0>
0

>  <SCORE.INTRA.REPUL>
0

>  <SCORE.INTRA.REPUL.0>
0

>  <SCORE.INTRA.SOLV>
-0.448642

>  <SCORE.INTRA.SOLV.lig_0>
-47.5333

>  <SCORE.INTRA.VDW>
-0.957666

>  <SCORE.INTRA.VDW.0>
-0.287413

>  <SCORE.INTRA.norm>
-0.690088

>  <SCORE.RESTR>
0.00386278

>  <SCORE.RESTR.CAVITY>
0.00386278

>  <SCORE.RESTR.norm>
0.000275913

>  <SCORE.SYSTEM>
0

>  <SCORE.SYSTEM.CONST>
0

>  <SCORE.SYSTEM.DIHEDRAL>
0

>  <SCORE.SYSTEM.SOLV>
0

>  <SCORE.SYSTEM.norm>
0

>  <SCORE.heavy>
14

>  <SCORE.norm>
-0.662744

>  <RMSD>
53.008

$$$$
ligand
 OpenBabel11021811493D
libRbt.so/2013.1/901 2013/11/27
 14 13  0  0  0  0  0  0  0  0999 V2000
   -1.0047    7.0589   13.4405 N   0  0  0  0  0  0  0  0  0  0  0  0
   -1.1854    6.7760   12.0335 C   0  0  0  0  0  0  0  0  0  0  0  0
   -0.2966    7.7294   11.2085 C   0  0  0  0  0  0  0  0  0  0  0  0
   -0.4979    7.6126    9.6897 C   0  0  0  0  0  0  0  0  0  0  0  0
    0.3364    8.4981    8.8630 N   0  0  0  0  0  0  0  0  0  0  0  0
    1.7977    8.4581    8.8564 C   0  0  0  0  0  0  0  0  0  0  0  0
    2.3872    8.4123    7.4505 C   0  0  0  0  0  0  0  0  0  0  0  0
    3.9120    8.2640    7.4290 C   0  0  0  0  0  0  0  0  0  0  0  0
    4.3683    6.9285    8.0284 C   0  0  0  0  0  0  0  0  0  0  0  0
    5.8252    6.8385    7.9571 N   0  0  0  0  0  0  0  0  0  0  0  0
    6.6362    5.9038    8.7394 C   0  0  0  0  0  0  0  0  0  0  0  0
    7.9607    5.5445    8.0518 C   0  0  0  0  0  0  0  0  0  0  0  0
    8.9051    6.7495    7.9923 C   0  0  0  0  0  0  0  0  0  0  0  0
   10.1857    6.3339    7.4277 N   0  0  0  0  0  0  0  0  0  0  0  0
  1  2  1  0  0  0  0
  2  3  1  0  0  0  0
  3  4  1  0  0  0  0
  4  5  1  0  0  0  0
  5  6  1  0  0  0  0
  6  7  1  0  0  0  0
  7  8  1  0  0  0  0
  8  9  1  0  0  0  0
  9 10  1  0  0  0  0
 10 11  1  0  0  0  0
 11 12  1  0  0  0  0
 12 13  1  0  0  0  0
 13 14  1  0  0  0  0
M  END
>  <CHROM.1>
-174.69619746,-179.62277237,60.86071637,130.97359503,-175.65861927,64.22887955
179.00529394,162.57792177,152.95359336,67.88123699,175.57126142,3.52344148
7.22202255,9.08327345,-2.88794212,0.28611551,-1.08823947

>  <Name>
ligand

>  <RI>
0

>  <Rbt.Current_Directory>
/home/itssahil/PROJECTS/Mol_Feturizer/New_Systems/rnas/4FAW

>  <Rbt.Executable>
rbdock ($Id: //depot/dev/client3/rdock/2013.1/src/exe/rbdock.cxx#4 $)

>  <Rbt.Library>
libRbt.so (2013.1, Build901 2013/11/27)

>  <Rbt.Parameter_File>
/export/apps/rDock/src/rDock_2013.1_src/data/scripts/dock_solv.prm

>  <Rbt.Receptor>
prm/blind_docking_20.prm

>  <SCORE>
-8.43691

>  <SCORE.INTER>
0.641665

>  <SCORE.INTER.CONST>
1

>  <SCORE.INTER.POLAR>
0

>  <SCORE.INTER.ROT>
11

>  <SCORE.INTER.SOLV>
11.1892

>  <SCORE.INTER.VDW>
-14.2353

>  <SCORE.INTER.norm>
0.0458332

>  <SCORE.INTRA>
-9.07858

>  <SCORE.INTRA.DIHEDRAL>
-16.6944

>  <SCORE.INTRA.DIHEDRAL.0>
19.1003

>  <SCORE.INTRA.POLAR>
0

>  <SCORE.INTRA.POLAR.0>
0

>  <SCORE.INTRA.REPUL>
0

>  <SCORE.INTRA.REPUL.0>
0

>  <SCORE.INTRA.SOLV>
-0.994122

>  <SCORE.INTRA.SOLV.lig_0>
-47.5333

>  <SCORE.INTRA.VDW>
-0.234318

>  <SCORE.INTRA.VDW.0>
-0.287413

>  <SCORE.INTRA.norm>
-0.64847

>  <SCORE.RESTR>
0

>  <SCORE.RESTR.CAVITY>
0

>  <SCORE.RESTR.norm>
0

>  <SCORE.SYSTEM>
0

>  <SCORE.SYSTEM.CONST>
0

>  <SCORE.SYSTEM.DIHEDRAL>
0

>  <SCORE.SYSTEM.SOLV>
0

>  <SCORE.SYSTEM.norm>
0

>  <SCORE.heavy>
14

>  <SCORE.norm>
-0.602637

>  <RMSD>
53.027

$$$$
ligand
 OpenBabel11021811493D
libRbt.so/2013.1/901 2013/11/27
 14 13  0  0  0  0  0  0  0  0999 V2000
   -2.7008    5.5293    8.1706 N   0  0  0  0  0  0  0  0  0  0  0  0
   -2.6986    6.7403    7.3796 C   0  0  0  0  0  0  0  0  0  0  0  0
   -1.5762    6.6526    6.3251 C   0  0  0  0  0  0  0  0  0  0  0  0
   -0.1683    6.5051    6.9227 C   0  0  0  0  0  0  0  0  0  0  0  0
    0.2606    7.5844    7.8253 N   0  0  0  0  0  0  0  0  0  0  0  0
    0.9293    8.8018    7.3693 C   0  0  0  0  0  0  0  0  0  0  0  0
    2.3373    8.5474    6.8410 C   0  0  0  0  0  0  0  0  0  0  0  0
    3.2707    7.8997    7.8689 C   0  0  0  0  0  0  0  0  0  0  0  0
    4.6427    7.5671    7.2706 C   0  0  0  0  0  0  0  0  0  0  0  0
    5.4189    6.7956    8.2390 N   0  0  0  0  0  0  0  0  0  0  0  0
    6.8151    7.0674    8.5856 C   0  0  0  0  0  0  0  0  0  0  0  0
    7.8033    6.1767    7.8198 C   0  0  0  0  0  0  0  0  0  0  0  0
    9.2461    6.4246    8.2719 C   0  0  0  0  0  0  0  0  0  0  0  0
   10.1412    5.5252    7.5498 N   0  0  0  0  0  0  0  0  0  0  0  0
  1  2  1  0  0  0  0
  2  3  1  0  0  0  0
  3  4  1  0  0  0  0
  4  5  1  0  0  0  0
  5  6  1  0  0  0  0
  6  7  1  0  0  0  0
  7  8  1  0  0  0  0
  8  9  1  0  0  0  0
  9 10  1  0  0  0  0
 10 11  1  0  0  0  0
 11 12  1  0  0  0  0
 12 13  1  0  0  0  0
 13 14  1  0  0  0  0
M  END
>  <CHROM.1>
-60.54296366,-58.81926546,-88.24291654,-68.40150173,-58.59525373,175.84061768
-172.48275220,-133.26247229,-97.42139075,-176.33880402,178.09335622,3.12290035
6.98719698,7.60266119,3.08691918,-0.05978182,-0.14692377

>  <Name>
ligand

>  <RI>
0

>  <Rbt.Current_Directory>
/home/itssahil/PROJECTS/Mol_Feturizer/New_Systems/rnas/4FAW

>  <Rbt.Executable>
rbdock ($Id: //depot/dev/client3/rdock/2013.1/src/exe/rbdock.cxx#4 $)

>  <Rbt.Library>
libRbt.so (2013.1, Build901 2013/11/27)

>  <Rbt.Parameter_File>
/export/apps/rDock/src/rDock_2013.1_src/data/scripts/dock_solv.prm

>  <Rbt.Receptor>
prm/blind_docking_20.prm

>  <SCORE>
-7.74862

>  <SCORE.INTER>
0.634972

>  <SCORE.INTER.CONST>
1

>  <SCORE.INTER.POLAR>
0

>  <SCORE.INTER.ROT>
11

>  <SCORE.INTER.SOLV>
9.60091

>  <SCORE.INTER.VDW>
-13.7103

>  <SCORE.INTER.norm>
0.0453551

>  <SCORE.INTRA>
-8.3836

>  <SCORE.INTRA.DIHEDRAL>
-16.2485

>  <SCORE.INTRA.DIHEDRAL.0>
19.1003

>  <SCORE.INTRA.POLAR>
0

>  <SCORE.INTRA.POLAR.0>
0

>  <SCORE.INTRA.REPUL>
0

>  <SCORE.INTRA.REPUL.0>
0

>  <SCORE.INTRA.SOLV>
0.701697

>  <SCORE.INTRA.SOLV.lig_0>
-47.5333

>  <SCORE.INTRA.VDW>
-0.610209

>  <SCORE.INTRA.VDW.0>
-0.287413

>  <SCORE.INTRA.norm>
-0.598828

>  <SCORE.RESTR>
0

>  <SCORE.RESTR.CAVITY>
0

>  <SCORE.RESTR.norm>
0

>  <SCORE.SYSTEM>
0

>  <SCORE.SYSTEM.CONST>
0

>  <SCORE.SYSTEM.DIHEDRAL>
0

>  <SCORE.SYSTEM.SOLV>
0

>  <SCORE.SYSTEM.norm>
0

>  <SCORE.heavy>
14

>  <SCORE.norm>
-0.553473

>  <RMSD>
53.062

$$$$
ligand
 OpenBabel11021811493D
libRbt.so/2013.1/901 2013/11/27
 14 13  0  0  0  0  0  0  0  0999 V2000
    9.6018    6.4944    7.0245 N   0  0  0  0  0  0  0  0  0  0  0  0
    9.3718    6.2744    8.4354 C   0  0  0  0  0  0  0  0  0  0  0  0
    7.8598    6.0879    8.6775 C   0  0  0  0  0  0  0  0  0  0  0  0
    6.9991    7.2602    8.1815 C   0  0  0  0  0  0  0  0  0  0  0  0
    5.5444    7.0878    8.3144 N   0  0  0  0  0  0  0  0  0  0  0  0
    4.5649    7.9013    7.5962 C   0  0  0  0  0  0  0  0  0  0  0  0
    3.1767    7.8593    8.2268 C   0  0  0  0  0  0  0  0  0  0  0  0
    2.1001    8.5549    7.3873 C   0  0  0  0  0  0  0  0  0  0  0  0
    0.7064    8.4171    8.0113 C   0  0  0  0  0  0  0  0  0  0  0  0
    0.6991    9.0560    9.3256 N   0  0  0  0  0  0  0  0  0  0  0  0
   -0.1876    8.6749   10.4265 C   0  0  0  0  0  0  0  0  0  0  0  0
    0.3489    7.4889   11.2401 C   0  0  0  0  0  0  0  0  0  0  0  0
   -0.5504    7.1828   12.4423 C   0  0  0  0  0  0  0  0  0  0  0  0
   -0.5520    8.3266   13.3495 N   0  0  0  0  0  0  0  0  0  0  0  0
  1  2  1  0  0  0  0
  2  3  1  0  0  0  0
  3  4  1  0  0  0  0
  4  5  1  0  0  0  0
  5  6  1  0  0  0  0
  6  7  1  0  0  0  0
  7  8  1  0  0  0  0
  8  9  1  0  0  0  0
  9 10  1  0  0  0  0
 10 11  1  0  0  0  0
 11 12  1  0  0  0  0
 12 13  1  0  0  0  0
 13 14  1  0  0  0  0
M  END
>  <CHROM.1>
-56.64183111,176.27129662,-163.09836172,-160.84169713,-172.43882918,176.50030491
61.67719378,-152.87601259,83.78518537,175.86106106,-63.09017516,3.54867159
7.61897973,9.18836515,-0.29295254,-0.28187299,1.86582844

>  <Name>
ligand

>  <RI>
0

>  <Rbt.Current_Directory>
/home/itssahil/PROJECTS/Mol_Feturizer/New_Systems/rnas/4FAW

>  <Rbt.Executable>
rbdock ($Id: //depot/dev/client3/rdock/2013.1/src/exe/rbdock.cxx#4 $)

>  <Rbt.Library>
libRbt.so (2013.1, Build901 2013/11/27)

>  <Rbt.Parameter_File>
/export/apps/rDock/src/rDock_2013.1_src/data/scripts/dock_solv.prm

>  <Rbt.Receptor>
prm/blind_docking_20.prm

>  <SCORE>
-9.91412

>  <SCORE.INTER>
-1.07152

>  <SCORE.INTER.CONST>
1

>  <SCORE.INTER.POLAR>
0

>  <SCORE.INTER.ROT>
11

>  <SCORE.INTER.SOLV>
10.2666

>  <SCORE.INTER.VDW>
-15.0699

>  <SCORE.INTER.norm>
-0.0765368

>  <SCORE.INTRA>
-8.8437

>  <SCORE.INTRA.DIHEDRAL>
-17.2138

>  <SCORE.INTRA.DIHEDRAL.0>
19.1003

>  <SCORE.INTRA.POLAR>
0

>  <SCORE.INTRA.POLAR.0>
0

>  <SCORE.INTRA.REPUL>
0

>  <SCORE.INTRA.REPUL.0>
0

>  <SCORE.INTRA.SOLV>
0.610417

>  <SCORE.INTRA.SOLV.lig_0>
-47.5333

>  <SCORE.INTRA.VDW>
-0.542007

>  <SCORE.INTRA.VDW.0>
-0.287413

>  <SCORE.INTRA.norm>
-0.631693

>  <SCORE.RESTR>
0.00109226

>  <SCORE.RESTR.CAVITY>
0.00109226

>  <SCORE.RESTR.norm>
7.80186e-05

>  <SCORE.SYSTEM>
0

>  <SCORE.SYSTEM.CONST>
0

>  <SCORE.SYSTEM.DIHEDRAL>
0

>  <SCORE.SYSTEM.SOLV>
0

>  <SCORE.SYSTEM.norm>
0

>  <SCORE.heavy>
14

>  <SCORE.norm>
-0.708152

>  <RMSD>
53.066

$$$$
ligand
 OpenBabel11021811493D
libRbt.so/2013.1/901 2013/11/27
 14 13  0  0  0  0  0  0  0  0999 V2000
    8.5951    7.2061    7.3068 N   0  0  0  0  0  0  0  0  0  0  0  0
    8.4357    6.3328    8.4487 C   0  0  0  0  0  0  0  0  0  0  0  0
    7.0944    5.5808    8.3261 C   0  0  0  0  0  0  0  0  0  0  0  0
    5.8583    6.4783    8.4920 C   0  0  0  0  0  0  0  0  0  0  0  0
    5.7406    7.5897    7.5357 N   0  0  0  0  0  0  0  0  0  0  0  0
    4.5295    7.8694    6.7664 C   0  0  0  0  0  0  0  0  0  0  0  0
    3.3266    8.1971    7.6449 C   0  0  0  0  0  0  0  0  0  0  0  0
    2.0980    8.6605    6.8554 C   0  0  0  0  0  0  0  0  0  0  0  0
    0.9091    8.9716    7.7721 C   0  0  0  0  0  0  0  0  0  0  0  0
    0.4793    7.7451    8.4405 N   0  0  0  0  0  0  0  0  0  0  0  0
   -0.4958    7.6948    9.5314 C   0  0  0  0  0  0  0  0  0  0  0  0
    0.0914    8.1446   10.8764 C   0  0  0  0  0  0  0  0  0  0  0  0
   -0.9614    8.1017   11.9889 C   0  0  0  0  0  0  0  0  0  0  0  0
   -0.3667    8.5710   13.2368 N   0  0  0  0  0  0  0  0  0  0  0  0
  1  2  1  0  0  0  0
  2  3  1  0  0  0  0
  3  4  1  0  0  0  0
  4  5  1  0  0  0  0
  5  6  1  0  0  0  0
  6  7  1  0  0  0  0
  7  8  1  0  0  0  0
  8  9  1  0  0  0  0
  9 10  1  0  0  0  0
 10 11  1  0  0  0  0
 11 12  1  0  0  0  0
 12 13  1  0  0  0  0
 13 14  1  0  0  0  0
M  END
>  <CHROM.1>
-68.83778654,58.98248622,129.85327914,61.52042178,172.86499870,179.65356311
-64.40270127,170.59272273,-76.52704535,179.05098532,-178.48402297,3.23799572
7.65305909,8.80144270,-0.32185152,-0.27172880,1.78722162

>  <Name>
ligand

>  <RI>
0

>  <Rbt.Current_Directory>
/home/itssahil/PROJECTS/Mol_Feturizer/New_Systems/rnas/4FAW

>  <Rbt.Executable>
rbdock ($Id: //depot/dev/client3/rdock/2013.1/src/exe/rbdock.cxx#4 $)

>  <Rbt.Library>
libRbt.so (2013.1, Build901 2013/11/27)

>  <Rbt.Parameter_File>
/export/apps/rDock/src/rDock_2013.1_src/data/scripts/dock_solv.prm

>  <Rbt.Receptor>
prm/blind_docking_20.prm

>  <SCORE>
-6.38679

>  <SCORE.INTER>
1.78218

>  <SCORE.INTER.CONST>
1

>  <SCORE.INTER.POLAR>
0

>  <SCORE.INTER.ROT>
11

>  <SCORE.INTER.SOLV>
10.2538

>  <SCORE.INTER.VDW>
-13.1632

>  <SCORE.INTER.norm>
0.127298

>  <SCORE.INTRA>
-8.16897

>  <SCORE.INTRA.DIHEDRAL>
-17.1241

>  <SCORE.INTRA.DIHEDRAL.0>
19.1003

>  <SCORE.INTRA.POLAR>
0

>  <SCORE.INTRA.POLAR.0>
0

>  <SCORE.INTRA.REPUL>
0

>  <SCORE.INTRA.REPUL.0>
0

>  <SCORE.INTRA.SOLV>
1.77354

>  <SCORE.INTRA.SOLV.lig_0>
-47.5333

>  <SCORE.INTRA.VDW>
-0.493713

>  <SCORE.INTRA.VDW.0>
-0.287413

>  <SCORE.INTRA.norm>
-0.583498

>  <SCORE.RESTR>
0

>  <SCORE.RESTR.CAVITY>
0

>  <SCORE.RESTR.norm>
0

>  <SCORE.SYSTEM>
0

>  <SCORE.SYSTEM.CONST>
0

>  <SCORE.SYSTEM.DIHEDRAL>
0

>  <SCORE.SYSTEM.SOLV>
0

>  <SCORE.SYSTEM.norm>
0

>  <SCORE.heavy>
14

>  <SCORE.norm>
-0.456199

>  <RMSD>
53.299

$$$$
ligand
 OpenBabel11021811493D
libRbt.so/2013.1/901 2013/11/27
 14 13  0  0  0  0  0  0  0  0999 V2000
   -0.9941    5.8925    4.4635 N   0  0  0  0  0  0  0  0  0  0  0  0
   -1.1143    6.8749    5.5183 C   0  0  0  0  0  0  0  0  0  0  0  0
   -0.6399    6.2503    6.8466 C   0  0  0  0  0  0  0  0  0  0  0  0
   -0.7182    7.2047    8.0482 C   0  0  0  0  0  0  0  0  0  0  0  0
    0.0122    8.4736    7.9069 N   0  0  0  0  0  0  0  0  0  0  0  0
    1.4322    8.6282    8.2178 C   0  0  0  0  0  0  0  0  0  0  0  0
    2.2801    8.9506    6.9917 C   0  0  0  0  0  0  0  0  0  0  0  0
    2.4889    7.7538    6.0580 C   0  0  0  0  0  0  0  0  0  0  0  0
    3.2791    6.6275    6.7348 C   0  0  0  0  0  0  0  0  0  0  0  0
    4.6038    7.1209    7.1057 N   0  0  0  0  0  0  0  0  0  0  0  0
    5.2611    6.8466    8.3848 C   0  0  0  0  0  0  0  0  0  0  0  0
    6.7820    7.0458    8.3276 C   0  0  0  0  0  0  0  0  0  0  0  0
    7.4458    6.0230    7.3997 C   0  0  0  0  0  0  0  0  0  0  0  0
    8.8935    6.2082    7.4314 N   0  0  0  0  0  0  0  0  0  0  0  0
  1  2  1  0  0  0  0
  2  3  1  0  0  0  0
  3  4  1  0  0  0  0
  4  5  1  0  0  0  0
  5  6  1  0  0  0  0
  6  7  1  0  0  0  0
  7  8  1  0  0  0  0
  8  9  1  0  0  0  0
  9 10  1  0  0  0  0
 10 11  1  0  0  0  0
 11 12  1  0  0  0  0
 12 13  1  0  0  0  0
 13 14  1  0  0  0  0
M  END
>  <CHROM.1>
179.87253625,-56.31496745,-85.54089012,114.60153394,-73.70794291,-63.89119408
-61.37888042,136.80473552,159.73439667,-65.83340960,-177.12128538,2.78643985
7.13585442,7.10266822,-3.06963074,-0.15465493,0.85530700

>  <Name>
ligand

>  <RI>
0

>  <Rbt.Current_Directory>
/home/itssahil/PROJECTS/Mol_Feturizer/New_Systems/rnas/4FAW

>  <Rbt.Executable>
rbdock ($Id: //depot/dev/client3/rdock/2013.1/src/exe/rbdock.cxx#4 $)

>  <Rbt.Library>
libRbt.so (2013.1, Build901 2013/11/27)

>  <Rbt.Parameter_File>
/export/apps/rDock/src/rDock_2013.1_src/data/scripts/dock_solv.prm

>  <Rbt.Receptor>
prm/blind_docking_20.prm

>  <SCORE>
-4.83666

>  <SCORE.INTER>
3.57444

>  <SCORE.INTER.CONST>
1

>  <SCORE.INTER.POLAR>
0

>  <SCORE.INTER.ROT>
11

>  <SCORE.INTER.SOLV>
7.78253

>  <SCORE.INTER.VDW>
-11.1446

>  <SCORE.INTER.norm>
0.255317

>  <SCORE.INTRA>
-8.41136

>  <SCORE.INTRA.DIHEDRAL>
-15.2116

>  <SCORE.INTRA.DIHEDRAL.0>
19.1003

>  <SCORE.INTRA.POLAR>
0

>  <SCORE.INTRA.POLAR.0>
0

>  <SCORE.INTRA.REPUL>
0

>  <SCORE.INTRA.REPUL.0>
0

>  <SCORE.INTRA.SOLV>
0.662275

>  <SCORE.INTRA.SOLV.lig_0>
-47.5333

>  <SCORE.INTRA.VDW>
-1.13668

>  <SCORE.INTRA.VDW.0>
-0.287413

>  <SCORE.INTRA.norm>
-0.600812

>  <SCORE.RESTR>
0.000258456

>  <SCORE.RESTR.CAVITY>
0.000258456

>  <SCORE.RESTR.norm>
1.84611e-05

>  <SCORE.SYSTEM>
0

>  <SCORE.SYSTEM.CONST>
0

>  <SCORE.SYSTEM.DIHEDRAL>
0

>  <SCORE.SYSTEM.SOLV>
0

>  <SCORE.SYSTEM.norm>
0

>  <SCORE.heavy>
14

>  <SCORE.norm>
-0.345476

>  <RMSD>
53.318

$$$$
ligand
 OpenBabel11021811493D
libRbt.so/2013.1/901 2013/11/27
 14 13  0  0  0  0  0  0  0  0999 V2000
    9.7233    6.1398    7.4223 N   0  0  0  0  0  0  0  0  0  0  0  0
    8.6366    7.0884    7.5292 C   0  0  0  0  0  0  0  0  0  0  0  0
    7.5322    6.4920    8.4261 C   0  0  0  0  0  0  0  0  0  0  0  0
    6.2224    7.2953    8.4209 C   0  0  0  0  0  0  0  0  0  0  0  0
    5.5024    7.3382    7.1389 N   0  0  0  0  0  0  0  0  0  0  0  0
    4.2908    8.1256    6.9181 C   0  0  0  0  0  0  0  0  0  0  0  0
    3.2444    7.9301    8.0104 C   0  0  0  0  0  0  0  0  0  0  0  0
    1.8277    8.3249    7.5809 C   0  0  0  0  0  0  0  0  0  0  0  0
    1.2463    7.3491    6.5510 C   0  0  0  0  0  0  0  0  0  0  0  0
   -0.1702    7.6464    6.3483 N   0  0  0  0  0  0  0  0  0  0  0  0
   -1.2271    6.6355    6.2828 C   0  0  0  0  0  0  0  0  0  0  0  0
   -1.4680    5.9374    7.6285 C   0  0  0  0  0  0  0  0  0  0  0  0
   -2.6558    4.9725    7.5535 C   0  0  0  0  0  0  0  0  0  0  0  0
   -3.8883    5.7345    7.3758 N   0  0  0  0  0  0  0  0  0  0  0  0
  1  2  1  0  0  0  0
  2  3  1  0  0  0  0
  3  4  1  0  0  0  0
  4  5  1  0  0  0  0
  5  6  1  0  0  0  0
  6  7  1  0  0  0  0
  7  8  1  0  0  0  0
  8  9  1  0  0  0  0
  9 10  1  0  0  0  0
 10 11  1  0  0  0  0
 11 12  1  0  0  0  0
 12 13  1  0  0  0  0
 13 14  1  0  0  0  0
M  END
>  <CHROM.1>
-169.91089921,65.24163387,-175.67172750,-48.43830153,-159.69998827,70.07101422
170.73511756,-135.59619134,68.26931987,175.23305452,-67.73276859,2.77260234
6.92935115,7.37061228,-0.05198421,0.08248770,2.82327627

>  <Name>
ligand

>  <RI>
0

>  <Rbt.Current_Directory>
/home/itssahil/PROJECTS/Mol_Feturizer/New_Systems/rnas/4FAW

>  <Rbt.Executable>
rbdock ($Id: //depot/dev/client3/rdock/2013.1/src/exe/rbdock.cxx#4 $)

>  <Rbt.Library>
libRbt.so (2013.1, Build901 2013/11/27)

>  <Rbt.Parameter_File>
/export/apps/rDock/src/rDock_2013.1_src/data/scripts/dock_solv.prm

>  <Rbt.Receptor>
prm/blind_docking_20.prm

>  <SCORE>
-9.44187

>  <SCORE.INTER>
-2.12717

>  <SCORE.INTER.CONST>
1

>  <SCORE.INTER.POLAR>
0

>  <SCORE.INTER.ROT>
11

>  <SCORE.INTER.SOLV>
10.0039

>  <SCORE.INTER.VDW>
-15.6861

>  <SCORE.INTER.norm>
-0.151941

>  <SCORE.INTRA>
-7.3327

>  <SCORE.INTRA.DIHEDRAL>
-14.9722

>  <SCORE.INTRA.DIHEDRAL.0>
19.1003

>  <SCORE.INTRA.POLAR>
0

>  <SCORE.INTRA.POLAR.0>
0

>  <SCORE.INTRA.REPUL>
0

>  <SCORE.INTRA.REPUL.0>
0

>  <SCORE.INTRA.SOLV>
-0.199639

>  <SCORE.INTRA.SOLV.lig_0>
-47.5333

>  <SCORE.INTRA.VDW>
0.253192

>  <SCORE.INTRA.VDW.0>
-0.287413

>  <SCORE.INTRA.norm>
-0.523764

>  <SCORE.RESTR>
0.0179997

>  <SCORE.RESTR.CAVITY>
0.0179997

>  <SCORE.RESTR.norm>
0.00128569

>  <SCORE.SYSTEM>
0

>  <SCORE.SYSTEM.CONST>
0

>  <SCORE.SYSTEM.DIHEDRAL>
0

>  <SCORE.SYSTEM.SOLV>
0

>  <SCORE.SYSTEM.norm>
0

>  <SCORE.heavy>
14

>  <SCORE.norm>
-0.67442

>  <RMSD>
53.383

$$$$
ligand
 OpenBabel11021811493D
libRbt.so/2013.1/901 2013/11/27
 14 13  0  0  0  0  0  0  0  0999 V2000
    9.4801    6.4541    6.9641 N   0  0  0  0  0  0  0  0  0  0  0  0
    9.3001    6.4551    8.3993 C   0  0  0  0  0  0  0  0  0  0  0  0
    7.8425    6.0695    8.7256 C   0  0  0  0  0  0  0  0  0  0  0  0
    6.8046    7.1029    8.2612 C   0  0  0  0  0  0  0  0  0  0  0  0
    5.3958    6.7314    8.4637 N   0  0  0  0  0  0  0  0  0  0  0  0
    4.2747    7.6239    8.1749 C   0  0  0  0  0  0  0  0  0  0  0  0
    3.5678    8.1204    9.4319 C   0  0  0  0  0  0  0  0  0  0  0  0
    2.0514    8.2644    9.2667 C   0  0  0  0  0  0  0  0  0  0  0  0
    1.3670    8.6762   10.5755 C   0  0  0  0  0  0  0  0  0  0  0  0
    0.0602    8.0281   10.6631 N   0  0  0  0  0  0  0  0  0  0  0  0
   -0.9569    8.0699    9.6108 C   0  0  0  0  0  0  0  0  0  0  0  0
   -2.0276    6.9820    9.7737 C   0  0  0  0  0  0  0  0  0  0  0  0
   -2.9338    6.8999    8.5410 C   0  0  0  0  0  0  0  0  0  0  0  0
   -2.1637    6.3992    7.4062 N   0  0  0  0  0  0  0  0  0  0  0  0
  1  2  1  0  0  0  0
  2  3  1  0  0  0  0
  3  4  1  0  0  0  0
  4  5  1  0  0  0  0
  5  6  1  0  0  0  0
  6  7  1  0  0  0  0
  7  8  1  0  0  0  0
  8  9  1  0  0  0  0
  9 10  1  0  0  0  0
 10 11  1  0  0  0  0
 11 12  1  0  0  0  0
 12 13  1  0  0  0  0
 13 14  1  0  0  0  0
M  END
>  <CHROM.1>
-66.20879230,175.72150773,175.40677491,-109.71884198,-143.86641745,176.24764697
-144.56689066,-51.62624755,162.50907448,-170.37626892,68.03615159,3.00437194
7.27709258,8.87576857,0.13947658,-0.00393717,-2.19409900

>  <Name>
ligand

>  <RI>
0

>  <Rbt.Current_Directory>
/home/itssahil/PROJECTS/Mol_Feturizer/New_Systems/rnas/4FAW

>  <Rbt.Executable>
rbdock ($Id: //depot/dev/client3/rdock/2013.1/src/exe/rbdock.cxx#4 $)

>  <Rbt.Library>
libRbt.so (2013.1, Build901 2013/11/27)

>  <Rbt.Parameter_File>
/export/apps/rDock/src/rDock_2013.1_src/data/scripts/dock_solv.prm

>  <Rbt.Receptor>
prm/blind_docking_20.prm

>  <SCORE>
-6.18082

>  <SCORE.INTER>
-1.34856

>  <SCORE.INTER.CONST>
1

>  <SCORE.INTER.POLAR>
0

>  <SCORE.INTER.ROT>
11

>  <SCORE.INTER.SOLV>
8.88419

>  <SCORE.INTER.VDW>
-14.7938

>  <SCORE.INTER.norm>
-0.0963255

>  <SCORE.INTRA>
-4.83227

>  <SCORE.INTRA.DIHEDRAL>
-9.65462

>  <SCORE.INTRA.DIHEDRAL.0>
19.1003

>  <SCORE.INTRA.POLAR>
0

>  <SCORE.INTRA.POLAR.0>
0

>  <SCORE.INTRA.REPUL>
0

>  <SCORE.INTRA.REPUL.0>
0

>  <SCORE.INTRA.SOLV>
0.08385

>  <SCORE.INTRA.SOLV.lig_0>
-47.5333

>  <SCORE.INTRA.VDW>
-0.0468791

>  <SCORE.INTRA.VDW.0>
-0.287413

>  <SCORE.INTRA.norm>
-0.345162

>  <SCORE.RESTR>
0

>  <SCORE.RESTR.CAVITY>
0

>  <SCORE.RESTR.norm>
0

>  <SCORE.SYSTEM>
0

>  <SCORE.SYSTEM.CONST>
0

>  <SCORE.SYSTEM.DIHEDRAL>
0

>  <SCORE.SYSTEM.SOLV>
0

>  <SCORE.SYSTEM.norm>
0

>  <SCORE.heavy>
14

>  <SCORE.norm>
-0.441487

>  <RMSD>
53.428

$$$$
ligand
 OpenBabel11021811493D
libRbt.so/2013.1/901 2013/11/27
 14 13  0  0  0  0  0  0  0  0999 V2000
   19.3307    5.2572   34.4231 N   0  0  0  0  0  0  0  0  0  0  0  0
   19.1008    6.1956   35.4996 C   0  0  0  0  0  0  0  0  0  0  0  0
   19.8892    7.4910   35.2173 C   0  0  0  0  0  0  0  0  0  0  0  0
   19.7525    8.5568   36.3157 C   0  0  0  0  0  0  0  0  0  0  0  0
   18.3781    8.9639   36.6457 N   0  0  0  0  0  0  0  0  0  0  0  0
   17.4657    9.5828   35.6858 C   0  0  0  0  0  0  0  0  0  0  0  0
   16.6389   10.7126   36.2909 C   0  0  0  0  0  0  0  0  0  0  0  0
   15.6013   10.2348   37.3120 C   0  0  0  0  0  0  0  0  0  0  0  0
   14.7152   11.3822   37.8112 C   0  0  0  0  0  0  0  0  0  0  0  0
   13.9880   11.9586   36.6822 N   0  0  0  0  0  0  0  0  0  0  0  0
   13.1807   13.1779   36.7531 C   0  0  0  0  0  0  0  0  0  0  0  0
   12.8946   13.7840   35.3722 C   0  0  0  0  0  0  0  0  0  0  0  0
   14.1833   14.2548   34.6900 C   0  0  0  0  0  0  0  0  0  0  0  0
   15.0289   13.0999   34.4026 N   0  0  0  0  0  0  0  0  0  0  0  0
  1  2  1  0  0  0  0
  2  3  1  0  0  0  0
  3  4  1  0  0  0  0
  4  5  1  0  0  0  0
  5  6  1  0  0  0  0
  6  7  1  0  0  0  0
  7  8  1  0  0  0  0
  8  9  1  0  0  0  0
  9 10  1  0  0  0  0
 10 11  1  0  0  0  0
 11 12  1  0  0  0  0
 12 13  1  0  0  0  0
 13 14  1  0  0  0  0
M  END
>  <CHROM.1>
-178.49930409,-55.73642883,-61.22530814,-139.62000364,-68.89080856,-175.32642653
60.92877490,-171.86284622,162.27209924,-64.36882085,65.49111656,16.43904340
10.33249739,35.93598033,-0.32372129,0.79586568,-1.06410468

>  <Name>
ligand

>  <RI>
0

>  <Rbt.Current_Directory>
/home/itssahil/PROJECTS/Mol_Feturizer/New_Systems/rnas/4FAW

>  <Rbt.Executable>
rbdock ($Id: //depot/dev/client3/rdock/2013.1/src/exe/rbdock.cxx#4 $)

>  <Rbt.Library>
libRbt.so (2013.1, Build901 2013/11/27)

>  <Rbt.Parameter_File>
/export/apps/rDock/src/rDock_2013.1_src/data/scripts/dock_solv.prm

>  <Rbt.Receptor>
prm/blind_docking_100.prm

>  <SCORE>
-10.7202

>  <SCORE.INTER>
-3.31167

>  <SCORE.INTER.CONST>
1

>  <SCORE.INTER.POLAR>
0

>  <SCORE.INTER.ROT>
11

>  <SCORE.INTER.SOLV>
16.3323

>  <SCORE.INTER.VDW>
-18.5852

>  <SCORE.INTER.norm>
-0.236548

>  <SCORE.INTRA>
-7.40851

>  <SCORE.INTRA.DIHEDRAL>
-17.2444

>  <SCORE.INTRA.DIHEDRAL.0>
19.1003

>  <SCORE.INTRA.POLAR>
0

>  <SCORE.INTRA.POLAR.0>
0

>  <SCORE.INTRA.REPUL>
0

>  <SCORE.INTRA.REPUL.0>
0

>  <SCORE.INTRA.SOLV>
4.17325

>  <SCORE.INTRA.SOLV.lig_0>
-47.5333

>  <SCORE.INTRA.VDW>
-0.872924

>  <SCORE.INTRA.VDW.0>
-0.287413

>  <SCORE.INTRA.norm>
-0.529179

>  <SCORE.RESTR>
0

>  <SCORE.RESTR.CAVITY>
0

>  <SCORE.RESTR.norm>
0

>  <SCORE.SYSTEM>
0

>  <SCORE.SYSTEM.CONST>
0

>  <SCORE.SYSTEM.DIHEDRAL>
0

>  <SCORE.SYSTEM.SOLV>
0

>  <SCORE.SYSTEM.norm>
0

>  <SCORE.heavy>
14

>  <SCORE.norm>
-0.765727

>  <RMSD>
53.655

$$$$
ligand
 OpenBabel11021811493D
libRbt.so/2013.1/901 2013/11/27
 14 13  0  0  0  0  0  0  0  0999 V2000
   19.8427    5.9734   34.5282 N   0  0  0  0  0  0  0  0  0  0  0  0
   18.7483    5.0291   34.4749 C   0  0  0  0  0  0  0  0  0  0  0  0
   17.8363    5.2434   35.7004 C   0  0  0  0  0  0  0  0  0  0  0  0
   17.2495    6.6599   35.8017 C   0  0  0  0  0  0  0  0  0  0  0  0
   16.5182    7.1364   34.6177 N   0  0  0  0  0  0  0  0  0  0  0  0
   15.8333    8.4263   34.5555 C   0  0  0  0  0  0  0  0  0  0  0  0
   16.7676    9.6100   34.7839 C   0  0  0  0  0  0  0  0  0  0  0  0
   16.0918   10.9714   34.5911 C   0  0  0  0  0  0  0  0  0  0  0  0
   15.0607   11.2620   35.6881 C   0  0  0  0  0  0  0  0  0  0  0  0
   14.3884   12.5266   35.3977 N   0  0  0  0  0  0  0  0  0  0  0  0
   13.6169   13.2974   36.3745 C   0  0  0  0  0  0  0  0  0  0  0  0
   12.2080   13.6492   35.8769 C   0  0  0  0  0  0  0  0  0  0  0  0
   11.4621   14.5293   36.8853 C   0  0  0  0  0  0  0  0  0  0  0  0
   11.3147   13.8051   38.1443 N   0  0  0  0  0  0  0  0  0  0  0  0
  1  2  1  0  0  0  0
  2  3  1  0  0  0  0
  3  4  1  0  0  0  0
  4  5  1  0  0  0  0
  5  6  1  0  0  0  0
  6  7  1  0  0  0  0
  7  8  1  0  0  0  0
  8  9  1  0  0  0  0
  9 10  1  0  0  0  0
 10 11  1  0  0  0  0
 11 12  1  0  0  0  0
 12 13  1  0  0  0  0
 13 14  1  0  0  0  0
M  END
>  <CHROM.1>
58.72759817,54.52016018,176.69478627,59.40382026,174.55205002,68.74461488
-176.11835423,-162.99255575,-127.76723712,-176.40534188,-61.29998402,15.49558710
9.86567303,35.52995831,-0.70904310,0.67023774,-0.39967950

>  <Name>
ligand

>  <RI>
0

>  <Rbt.Current_Directory>
/home/itssahil/PROJECTS/Mol_Feturizer/New_Systems/rnas/4FAW

>  <Rbt.Executable>
rbdock ($Id: //depot/dev/client3/rdock/2013.1/src/exe/rbdock.cxx#4 $)

>  <Rbt.Library>
libRbt.so (2013.1, Build901 2013/11/27)

>  <Rbt.Parameter_File>
/export/apps/rDock/src/rDock_2013.1_src/data/scripts/dock_solv.prm

>  <Rbt.Receptor>
prm/blind_docking_100.prm

>  <SCORE>
-11.3085

>  <SCORE.INTER>
-3.56876

>  <SCORE.INTER.CONST>
1

>  <SCORE.INTER.POLAR>
0

>  <SCORE.INTER.ROT>
11

>  <SCORE.INTER.SOLV>
11.0869

>  <SCORE.INTER.VDW>
-17.0081

>  <SCORE.INTER.norm>
-0.254912

>  <SCORE.INTRA>
-7.73978

>  <SCORE.INTRA.DIHEDRAL>
-17.0598

>  <SCORE.INTRA.DIHEDRAL.0>
19.1003

>  <SCORE.INTRA.POLAR>
0

>  <SCORE.INTRA.POLAR.0>
0

>  <SCORE.INTRA.REPUL>
0

>  <SCORE.INTRA.REPUL.0>
0

>  <SCORE.INTRA.SOLV>
1.43465

>  <SCORE.INTRA.SOLV.lig_0>
-47.5333

>  <SCORE.INTRA.VDW>
0.0727989

>  <SCORE.INTRA.VDW.0>
-0.287413

>  <SCORE.INTRA.norm>
-0.552842

>  <SCORE.RESTR>
0

>  <SCORE.RESTR.CAVITY>
0

>  <SCORE.RESTR.norm>
0

>  <SCORE.SYSTEM>
0

>  <SCORE.SYSTEM.CONST>
0

>  <SCORE.SYSTEM.DIHEDRAL>
0

>  <SCORE.SYSTEM.SOLV>
0

>  <SCORE.SYSTEM.norm>
0

>  <SCORE.heavy>
14

>  <SCORE.norm>
-0.807753

>  <RMSD>
54.065

$$$$
ligand
 OpenBabel11021811493D
libRbt.so/2013.1/901 2013/11/27
 14 13  0  0  0  0  0  0  0  0999 V2000
    0.0826    9.4401   13.5110 N   0  0  0  0  0  0  0  0  0  0  0  0
    0.4402    8.9846   12.1855 C   0  0  0  0  0  0  0  0  0  0  0  0
   -0.5722    7.9139   11.7294 C   0  0  0  0  0  0  0  0  0  0  0  0
   -0.4005    7.4754   10.2667 C   0  0  0  0  0  0  0  0  0  0  0  0
   -0.5930    8.5267    9.2561 N   0  0  0  0  0  0  0  0  0  0  0  0
   -0.0553    8.4516    7.8989 C   0  0  0  0  0  0  0  0  0  0  0  0
    1.4305    8.7884    7.8259 C   0  0  0  0  0  0  0  0  0  0  0  0
    2.0342    8.6021    6.4301 C   0  0  0  0  0  0  0  0  0  0  0  0
    3.4908    9.0765    6.3656 C   0  0  0  0  0  0  0  0  0  0  0  0
    4.2554    8.4385    7.4351 N   0  0  0  0  0  0  0  0  0  0  0  0
    5.3365    7.4753    7.2188 C   0  0  0  0  0  0  0  0  0  0  0  0
    6.2040    7.2632    8.4674 C   0  0  0  0  0  0  0  0  0  0  0  0
    7.2113    6.1270    8.2623 C   0  0  0  0  0  0  0  0  0  0  0  0
    6.4921    4.8814    8.0122 N   0  0  0  0  0  0  0  0  0  0  0  0
  1  2  1  0  0  0  0
  2  3  1  0  0  0  0
  3  4  1  0  0  0  0
  4  5  1  0  0  0  0
  5  6  1  0  0  0  0
  6  7  1  0  0  0  0
  7  8  1  0  0  0  0
  8  9  1  0  0  0  0
  9 10  1  0  0  0  0
 10 11  1  0  0  0  0
 11 12  1  0  0  0  0
 12 13  1  0  0  0  0
 13 14  1  0  0  0  0
M  END
>  <CHROM.1>
172.88565835,-62.18269946,158.69043770,-78.46096236,175.23894529,174.54292994
52.55913754,114.03329971,164.32175861,172.90449959,-61.36005279,2.52546287
7.96038956,8.91867579,-2.68887668,0.36784631,-1.39712456

>  <Name>
ligand

>  <RI>
0

>  <Rbt.Current_Directory>
/home/itssahil/PROJECTS/Mol_Feturizer/New_Systems/rnas/4FAW

>  <Rbt.Executable>
rbdock ($Id: //depot/dev/client3/rdock/2013.1/src/exe/rbdock.cxx#4 $)

>  <Rbt.Library>
libRbt.so (2013.1, Build901 2013/11/27)

>  <Rbt.Parameter_File>
/export/apps/rDock/src/rDock_2013.1_src/data/scripts/dock_solv.prm

>  <Rbt.Receptor>
prm/blind_docking_20.prm

>  <SCORE>
-5.27034

>  <SCORE.INTER>
3.2581

>  <SCORE.INTER.CONST>
1

>  <SCORE.INTER.POLAR>
0

>  <SCORE.INTER.ROT>
11

>  <SCORE.INTER.SOLV>
10.5513

>  <SCORE.INTER.VDW>
-12.2784

>  <SCORE.INTER.norm>
0.232721

>  <SCORE.INTRA>
-8.54832

>  <SCORE.INTRA.DIHEDRAL>
-16.3241

>  <SCORE.INTRA.DIHEDRAL.0>
19.1003

>  <SCORE.INTRA.POLAR>
0

>  <SCORE.INTRA.POLAR.0>
0

>  <SCORE.INTRA.REPUL>
0

>  <SCORE.INTRA.REPUL.0>
0

>  <SCORE.INTRA.SOLV>
0.18071

>  <SCORE.INTRA.SOLV.lig_0>
-47.5333

>  <SCORE.INTRA.VDW>
-0.476644

>  <SCORE.INTRA.VDW.0>
-0.287413

>  <SCORE.INTRA.norm>
-0.610594

>  <SCORE.RESTR>
0.0198803

>  <SCORE.RESTR.CAVITY>
0.0198803

>  <SCORE.RESTR.norm>
0.00142002

>  <SCORE.SYSTEM>
0

>  <SCORE.SYSTEM.CONST>
0

>  <SCORE.SYSTEM.DIHEDRAL>
0

>  <SCORE.SYSTEM.SOLV>
0

>  <SCORE.SYSTEM.norm>
0

>  <SCORE.heavy>
14

>  <SCORE.norm>
-0.376453

>  <RMSD>
54.069

$$$$
ligand
 OpenBabel11021811493D
libRbt.so/2013.1/901 2013/11/27
 14 13  0  0  0  0  0  0  0  0999 V2000
    6.9034   22.2674   24.6139 N   0  0  0  0  0  0  0  0  0  0  0  0
    7.4897   21.4800   23.5516 C   0  0  0  0  0  0  0  0  0  0  0  0
    8.0845   20.1885   24.1497 C   0  0  0  0  0  0  0  0  0  0  0  0
    9.2656   20.4283   25.1029 C   0  0  0  0  0  0  0  0  0  0  0  0
   10.4442   21.0798   24.5111 N   0  0  0  0  0  0  0  0  0  0  0  0
   11.7027   21.2791   25.2275 C   0  0  0  0  0  0  0  0  0  0  0  0
   12.7876   21.9134   24.3632 C   0  0  0  0  0  0  0  0  0  0  0  0
   12.4453   23.3301   23.8903 C   0  0  0  0  0  0  0  0  0  0  0  0
   13.5836   23.9547   23.0748 C   0  0  0  0  0  0  0  0  0  0  0  0
   13.1923   25.2959   22.6460 N   0  0  0  0  0  0  0  0  0  0  0  0
   13.9856   26.1446   21.7550 C   0  0  0  0  0  0  0  0  0  0  0  0
   13.5995   25.9827   20.2782 C   0  0  0  0  0  0  0  0  0  0  0  0
   14.3204   27.0072   19.3960 C   0  0  0  0  0  0  0  0  0  0  0  0
   15.7526   26.7241   19.3963 N   0  0  0  0  0  0  0  0  0  0  0  0
  1  2  1  0  0  0  0
  2  3  1  0  0  0  0
  3  4  1  0  0  0  0
  4  5  1  0  0  0  0
  5  6  1  0  0  0  0
  6  7  1  0  0  0  0
  7  8  1  0  0  0  0
  8  9  1  0  0  0  0
  9 10  1  0  0  0  0
 10 11  1  0  0  0  0
 11 12  1  0  0  0  0
 12 13  1  0  0  0  0
 13 14  1  0  0  0  0
M  END
>  <CHROM.1>
-65.21803727,-61.32512248,-174.25222806,176.99397027,63.65209658,177.60517128
179.55350870,-174.65731038,92.51999917,172.81658257,66.68047924,11.68268271
23.36236007,22.99697959,2.29502172,0.15553453,2.34562474

>  <Name>
ligand

>  <RI>
0

>  <Rbt.Current_Directory>
/home/itssahil/PROJECTS/Mol_Feturizer/New_Systems/rnas/4FAW

>  <Rbt.Executable>
rbdock ($Id: //depot/dev/client3/rdock/2013.1/src/exe/rbdock.cxx#4 $)

>  <Rbt.Library>
libRbt.so (2013.1, Build901 2013/11/27)

>  <Rbt.Parameter_File>
/export/apps/rDock/src/rDock_2013.1_src/data/scripts/dock_solv.prm

>  <Rbt.Receptor>
prm/blind_docking_40.prm

>  <SCORE>
-15.1622

>  <SCORE.INTER>
-6.04101

>  <SCORE.INTER.CONST>
1

>  <SCORE.INTER.POLAR>
0

>  <SCORE.INTER.ROT>
11

>  <SCORE.INTER.SOLV>
15.8594

>  <SCORE.INTER.VDW>
-20.2471

>  <SCORE.INTER.norm>
-0.431501

>  <SCORE.INTRA>
-9.12118

>  <SCORE.INTRA.DIHEDRAL>
-17.8195

>  <SCORE.INTRA.DIHEDRAL.0>
19.1003

>  <SCORE.INTRA.POLAR>
0

>  <SCORE.INTRA.POLAR.0>
0

>  <SCORE.INTRA.REPUL>
0

>  <SCORE.INTRA.REPUL.0>
0

>  <SCORE.INTRA.SOLV>
1.20409

>  <SCORE.INTRA.SOLV.lig_0>
-47.5333

>  <SCORE.INTRA.VDW>
-0.813466

>  <SCORE.INTRA.VDW.0>
-0.287413

>  <SCORE.INTRA.norm>
-0.651513

>  <SCORE.RESTR>
0

>  <SCORE.RESTR.CAVITY>
0

>  <SCORE.RESTR.norm>
0

>  <SCORE.SYSTEM>
0

>  <SCORE.SYSTEM.CONST>
0

>  <SCORE.SYSTEM.DIHEDRAL>
0

>  <SCORE.SYSTEM.SOLV>
0

>  <SCORE.SYSTEM.norm>
0

>  <SCORE.heavy>
14

>  <SCORE.norm>
-1.08301

>  <RMSD>
54.086

$$$$
ligand
 OpenBabel11021811493D
libRbt.so/2013.1/901 2013/11/27
 14 13  0  0  0  0  0  0  0  0999 V2000
    6.6506   20.1605   24.3693 N   0  0  0  0  0  0  0  0  0  0  0  0
    7.9919   19.8304   24.7986 C   0  0  0  0  0  0  0  0  0  0  0  0
    8.9026   21.0594   24.5996 C   0  0  0  0  0  0  0  0  0  0  0  0
   10.3691   20.8194   24.9904 C   0  0  0  0  0  0  0  0  0  0  0  0
   11.2821   21.9532   24.7790 N   0  0  0  0  0  0  0  0  0  0  0  0
   12.7210   21.8042   24.5690 C   0  0  0  0  0  0  0  0  0  0  0  0
   13.4002   23.1028   24.1460 C   0  0  0  0  0  0  0  0  0  0  0  0
   12.7788   23.7428   22.9004 C   0  0  0  0  0  0  0  0  0  0  0  0
   13.5764   24.9615   22.4214 C   0  0  0  0  0  0  0  0  0  0  0  0
   12.8965   25.5660   21.2777 N   0  0  0  0  0  0  0  0  0  0  0  0
   13.4916   26.5749   20.3994 C   0  0  0  0  0  0  0  0  0  0  0  0
   12.4468   27.5045   19.7665 C   0  0  0  0  0  0  0  0  0  0  0  0
   13.1060   28.5635   18.8768 C   0  0  0  0  0  0  0  0  0  0  0  0
   12.0799   29.4532   18.3413 N   0  0  0  0  0  0  0  0  0  0  0  0
  1  2  1  0  0  0  0
  2  3  1  0  0  0  0
  3  4  1  0  0  0  0
  4  5  1  0  0  0  0
  5  6  1  0  0  0  0
  6  7  1  0  0  0  0
  7  8  1  0  0  0  0
  8  9  1  0  0  0  0
  9 10  1  0  0  0  0
 10 11  1  0  0  0  0
 11 12  1  0  0  0  0
 12 13  1  0  0  0  0
 13 14  1  0  0  0  0
M  END
>  <CHROM.1>
-178.57331791,178.25169967,-154.69517245,170.41748557,-55.15821487,-174.00902886
-177.05566712,-167.33997224,-151.87246863,178.87653318,-177.78290378,11.54986415
23.93530163,22.58840563,1.98049639,0.21779213,2.42244361

>  <Name>
ligand

>  <RI>
0

>  <Rbt.Current_Directory>
/home/itssahil/PROJECTS/Mol_Feturizer/New_Systems/rnas/4FAW

>  <Rbt.Executable>
rbdock ($Id: //depot/dev/client3/rdock/2013.1/src/exe/rbdock.cxx#4 $)

>  <Rbt.Library>
libRbt.so (2013.1, Build901 2013/11/27)

>  <Rbt.Parameter_File>
/export/apps/rDock/src/rDock_2013.1_src/data/scripts/dock_solv.prm

>  <Rbt.Receptor>
prm/blind_docking_40.prm

>  <SCORE>
-14.7163

>  <SCORE.INTER>
-4.46789

>  <SCORE.INTER.CONST>
1

>  <SCORE.INTER.POLAR>
0

>  <SCORE.INTER.ROT>
11

>  <SCORE.INTER.SOLV>
13.1433

>  <SCORE.INTER.VDW>
-18.293

>  <SCORE.INTER.norm>
-0.319135

>  <SCORE.INTRA>
-10.2484

>  <SCORE.INTRA.DIHEDRAL>
-17.5912

>  <SCORE.INTRA.DIHEDRAL.0>
19.1003

>  <SCORE.INTRA.POLAR>
0

>  <SCORE.INTRA.POLAR.0>
0

>  <SCORE.INTRA.REPUL>
0

>  <SCORE.INTRA.REPUL.0>
0

>  <SCORE.INTRA.SOLV>
-1.09954

>  <SCORE.INTRA.SOLV.lig_0>
-47.5333

>  <SCORE.INTRA.VDW>
-0.903019

>  <SCORE.INTRA.VDW.0>
-0.287413

>  <SCORE.INTRA.norm>
-0.732028

>  <SCORE.RESTR>
0

>  <SCORE.RESTR.CAVITY>
0

>  <SCORE.RESTR.norm>
0

>  <SCORE.SYSTEM>
0

>  <SCORE.SYSTEM.CONST>
0

>  <SCORE.SYSTEM.DIHEDRAL>
0

>  <SCORE.SYSTEM.SOLV>
0

>  <SCORE.SYSTEM.norm>
0

>  <SCORE.heavy>
14

>  <SCORE.norm>
-1.05116

>  <RMSD>
54.194

$$$$
ligand
 OpenBabel11021811493D
libRbt.so/2013.1/901 2013/11/27
 14 13  0  0  0  0  0  0  0  0999 V2000
   -2.5419    5.5451   11.5874 N   0  0  0  0  0  0  0  0  0  0  0  0
   -1.8118    6.7027   12.0555 C   0  0  0  0  0  0  0  0  0  0  0  0
   -1.3948    7.5608   10.8434 C   0  0  0  0  0  0  0  0  0  0  0  0
   -0.6652    8.8597   11.2196 C   0  0  0  0  0  0  0  0  0  0  0  0
    0.6061    8.6944   11.9407 N   0  0  0  0  0  0  0  0  0  0  0  0
    1.9131    8.9777   11.3504 C   0  0  0  0  0  0  0  0  0  0  0  0
    2.1472    8.2398   10.0362 C   0  0  0  0  0  0  0  0  0  0  0  0
    3.5957    8.3111    9.5420 C   0  0  0  0  0  0  0  0  0  0  0  0
    3.7513    7.7299    8.1317 C   0  0  0  0  0  0  0  0  0  0  0  0
    5.1439    7.8564    7.7070 N   0  0  0  0  0  0  0  0  0  0  0  0
    6.2719    7.1875    8.3577 C   0  0  0  0  0  0  0  0  0  0  0  0
    5.9725    5.7245    8.7130 C   0  0  0  0  0  0  0  0  0  0  0  0
    5.5104    4.9338    7.4847 C   0  0  0  0  0  0  0  0  0  0  0  0
    5.1403    3.5811    7.8905 N   0  0  0  0  0  0  0  0  0  0  0  0
  1  2  1  0  0  0  0
  2  3  1  0  0  0  0
  3  4  1  0  0  0  0
  4  5  1  0  0  0  0
  5  6  1  0  0  0  0
  6  7  1  0  0  0  0
  7  8  1  0  0  0  0
  8  9  1  0  0  0  0
  9 10  1  0  0  0  0
 10 11  1  0  0  0  0
 11 12  1  0  0  0  0
 12 13  1  0  0  0  0
 13 14  1  0  0  0  0
M  END
>  <CHROM.1>
177.28434193,61.62366216,109.35988824,-53.89114277,-169.02974109,-172.05555001
178.64486724,63.70059234,43.09332816,54.79511954,-175.66964181,2.40289524
7.13633654,9.77568723,2.84894516,0.43073309,0.24166196

>  <Name>
ligand

>  <RI>
0

>  <Rbt.Current_Directory>
/home/itssahil/PROJECTS/Mol_Feturizer/New_Systems/rnas/4FAW

>  <Rbt.Executable>
rbdock ($Id: //depot/dev/client3/rdock/2013.1/src/exe/rbdock.cxx#4 $)

>  <Rbt.Library>
libRbt.so (2013.1, Build901 2013/11/27)

>  <Rbt.Parameter_File>
/export/apps/rDock/src/rDock_2013.1_src/data/scripts/dock_solv.prm

>  <Rbt.Receptor>
prm/blind_docking_20.prm

>  <SCORE>
-6.03962

>  <SCORE.INTER>
1.9036

>  <SCORE.INTER.CONST>
1

>  <SCORE.INTER.POLAR>
0

>  <SCORE.INTER.ROT>
11

>  <SCORE.INTER.SOLV>
17.8919

>  <SCORE.INTER.VDW>
-15.6282

>  <SCORE.INTER.norm>
0.135972

>  <SCORE.INTRA>
-7.96578

>  <SCORE.INTRA.DIHEDRAL>
-16.8081

>  <SCORE.INTRA.DIHEDRAL.0>
19.1003

>  <SCORE.INTRA.POLAR>
0

>  <SCORE.INTRA.POLAR.0>
0

>  <SCORE.INTRA.REPUL>
0

>  <SCORE.INTRA.REPUL.0>
0

>  <SCORE.INTRA.SOLV>
-0.460532

>  <SCORE.INTRA.SOLV.lig_0>
-47.5333

>  <SCORE.INTRA.VDW>
0.668546

>  <SCORE.INTRA.VDW.0>
-0.287413

>  <SCORE.INTRA.norm>
-0.568984

>  <SCORE.RESTR>
0.0225558

>  <SCORE.RESTR.CAVITY>
0.0225558

>  <SCORE.RESTR.norm>
0.00161113

>  <SCORE.SYSTEM>
0

>  <SCORE.SYSTEM.CONST>
0

>  <SCORE.SYSTEM.DIHEDRAL>
0

>  <SCORE.SYSTEM.SOLV>
0

>  <SCORE.SYSTEM.norm>
0

>  <SCORE.heavy>
14

>  <SCORE.norm>
-0.431402

>  <RMSD>
54.213

$$$$
ligand
 OpenBabel11021811493D
libRbt.so/2013.1/901 2013/11/27
 14 13  0  0  0  0  0  0  0  0999 V2000
   -2.8966    6.2181    6.4528 N   0  0  0  0  0  0  0  0  0  0  0  0
   -2.4530    5.4544    7.5982 C   0  0  0  0  0  0  0  0  0  0  0  0
   -2.4048    6.3778    8.8329 C   0  0  0  0  0  0  0  0  0  0  0  0
   -1.4749    7.5901    8.6697 C   0  0  0  0  0  0  0  0  0  0  0  0
   -0.0463    7.2834    8.5007 N   0  0  0  0  0  0  0  0  0  0  0  0
    0.9663    8.2920    8.1936 C   0  0  0  0  0  0  0  0  0  0  0  0
    1.0462    8.6244    6.7072 C   0  0  0  0  0  0  0  0  0  0  0  0
    2.2509    9.4957    6.3370 C   0  0  0  0  0  0  0  0  0  0  0  0
    3.5679    8.7132    6.4019 C   0  0  0  0  0  0  0  0  0  0  0  0
    3.8637    8.3779    7.7932 N   0  0  0  0  0  0  0  0  0  0  0  0
    5.0937    7.7239    8.2436 C   0  0  0  0  0  0  0  0  0  0  0  0
    5.0387    6.1956    8.1109 C   0  0  0  0  0  0  0  0  0  0  0  0
    6.3536    5.5477    8.5570 C   0  0  0  0  0  0  0  0  0  0  0  0
    7.4253    5.9548    7.6531 N   0  0  0  0  0  0  0  0  0  0  0  0
  1  2  1  0  0  0  0
  2  3  1  0  0  0  0
  3  4  1  0  0  0  0
  4  5  1  0  0  0  0
  5  6  1  0  0  0  0
  6  7  1  0  0  0  0
  7  8  1  0  0  0  0
  8  9  1  0  0  0  0
  9 10  1  0  0  0  0
 10 11  1  0  0  0  0
 11 12  1  0  0  0  0
 12 13  1  0  0  0  0
 13 14  1  0  0  0  0
M  END
>  <CHROM.1>
-58.73460935,-63.79522061,173.40130970,-82.56892212,-170.24915653,72.34259315
-68.15055187,-175.02996689,-83.91705267,178.54592983,-64.97753314,1.88068718
7.27506203,7.71801847,-3.13061644,-0.01330355,-0.40994450

>  <Name>
ligand

>  <RI>
0

>  <Rbt.Current_Directory>
/home/itssahil/PROJECTS/Mol_Feturizer/New_Systems/rnas/4FAW

>  <Rbt.Executable>
rbdock ($Id: //depot/dev/client3/rdock/2013.1/src/exe/rbdock.cxx#4 $)

>  <Rbt.Library>
libRbt.so (2013.1, Build901 2013/11/27)

>  <Rbt.Parameter_File>
/export/apps/rDock/src/rDock_2013.1_src/data/scripts/dock_solv.prm

>  <Rbt.Receptor>
prm/blind_docking_20.prm

>  <SCORE>
-5.85222

>  <SCORE.INTER>
1.68442

>  <SCORE.INTER.CONST>
1

>  <SCORE.INTER.POLAR>
0

>  <SCORE.INTER.ROT>
11

>  <SCORE.INTER.SOLV>
9.21557

>  <SCORE.INTER.VDW>
-12.8822

>  <SCORE.INTER.norm>
0.120316

>  <SCORE.INTRA>
-7.53664

>  <SCORE.INTRA.DIHEDRAL>
-16.882

>  <SCORE.INTRA.DIHEDRAL.0>
19.1003

>  <SCORE.INTRA.POLAR>
0

>  <SCORE.INTRA.POLAR.0>
0

>  <SCORE.INTRA.REPUL>
0

>  <SCORE.INTRA.REPUL.0>
0

>  <SCORE.INTRA.SOLV>
2.29956

>  <SCORE.INTRA.SOLV.lig_0>
-47.5333

>  <SCORE.INTRA.VDW>
-0.245412

>  <SCORE.INTRA.VDW.0>
-0.287413

>  <SCORE.INTRA.norm>
-0.538332

>  <SCORE.RESTR>
0

>  <SCORE.RESTR.CAVITY>
0

>  <SCORE.RESTR.norm>
0

>  <SCORE.SYSTEM>
0

>  <SCORE.SYSTEM.CONST>
0

>  <SCORE.SYSTEM.DIHEDRAL>
0

>  <SCORE.SYSTEM.SOLV>
0

>  <SCORE.SYSTEM.norm>
0

>  <SCORE.heavy>
14

>  <SCORE.norm>
-0.418016

>  <RMSD>
54.340

$$$$
ligand
 OpenBabel11021811493D
libRbt.so/2013.1/901 2013/11/27
 14 13  0  0  0  0  0  0  0  0999 V2000
   -0.0370    7.8413   12.4356 N   0  0  0  0  0  0  0  0  0  0  0  0
   -0.0136    7.4702   11.0378 C   0  0  0  0  0  0  0  0  0  0  0  0
    0.5984    8.6253   10.2188 C   0  0  0  0  0  0  0  0  0  0  0  0
    2.0958    8.8506   10.4798 C   0  0  0  0  0  0  0  0  0  0  0  0
    3.0053    7.8558    9.8910 N   0  0  0  0  0  0  0  0  0  0  0  0
    3.7715    8.0851    8.6674 C   0  0  0  0  0  0  0  0  0  0  0  0
    3.1366    7.4458    7.4368 C   0  0  0  0  0  0  0  0  0  0  0  0
    1.7149    7.9412    7.1524 C   0  0  0  0  0  0  0  0  0  0  0  0
    1.0158    7.0977    6.0797 C   0  0  0  0  0  0  0  0  0  0  0  0
    1.7518    7.2073    4.8220 N   0  0  0  0  0  0  0  0  0  0  0  0
    1.4792    6.4017    3.6303 C   0  0  0  0  0  0  0  0  0  0  0  0
    2.5574    6.5546    2.5485 C   0  0  0  0  0  0  0  0  0  0  0  0
    2.2166    5.7355    1.2993 C   0  0  0  0  0  0  0  0  0  0  0  0
    2.2303    4.3144    1.6333 N   0  0  0  0  0  0  0  0  0  0  0  0
  1  2  1  0  0  0  0
  2  3  1  0  0  0  0
  3  4  1  0  0  0  0
  4  5  1  0  0  0  0
  5  6  1  0  0  0  0
  6  7  1  0  0  0  0
  7  8  1  0  0  0  0
  8  9  1  0  0  0  0
  9 10  1  0  0  0  0
 10 11  1  0  0  0  0
 11 12  1  0  0  0  0
 12 13  1  0  0  0  0
 13 14  1  0  0  0  0
M  END
>  <CHROM.1>
68.32289871,74.08929395,101.59796411,-99.95715299,58.78342768,-169.31214332
-62.23424365,171.56236999,-169.90083938,-178.09443194,-64.88348033,1.82311628
7.24492131,6.95223034,1.68143919,0.27620366,1.27080491

>  <Name>
ligand

>  <RI>
0

>  <Rbt.Current_Directory>
/home/itssahil/PROJECTS/Mol_Feturizer/New_Systems/rnas/4FAW

>  <Rbt.Executable>
rbdock ($Id: //depot/dev/client3/rdock/2013.1/src/exe/rbdock.cxx#4 $)

>  <Rbt.Library>
libRbt.so (2013.1, Build901 2013/11/27)

>  <Rbt.Parameter_File>
/export/apps/rDock/src/rDock_2013.1_src/data/scripts/dock_solv.prm

>  <Rbt.Receptor>
prm/blind_docking_20.prm

>  <SCORE>
-4.15974

>  <SCORE.INTER>
3.7707

>  <SCORE.INTER.CONST>
1

>  <SCORE.INTER.POLAR>
0

>  <SCORE.INTER.ROT>
11

>  <SCORE.INTER.SOLV>
12.971

>  <SCORE.INTER.VDW>
-12.7432

>  <SCORE.INTER.norm>
0.269336

>  <SCORE.INTRA>
-7.93044

>  <SCORE.INTRA.DIHEDRAL>
-15.5493

>  <SCORE.INTRA.DIHEDRAL.0>
19.1003

>  <SCORE.INTRA.POLAR>
0

>  <SCORE.INTRA.POLAR.0>
0

>  <SCORE.INTRA.REPUL>
0

>  <SCORE.INTRA.REPUL.0>
0

>  <SCORE.INTRA.SOLV>
1.42107

>  <SCORE.INTRA.SOLV.lig_0>
-47.5333

>  <SCORE.INTRA.VDW>
-0.866312

>  <SCORE.INTRA.VDW.0>
-0.287413

>  <SCORE.INTRA.norm>
-0.56646

>  <SCORE.RESTR>
0

>  <SCORE.RESTR.CAVITY>
0

>  <SCORE.RESTR.norm>
0

>  <SCORE.SYSTEM>
0

>  <SCORE.SYSTEM.CONST>
0

>  <SCORE.SYSTEM.DIHEDRAL>
0

>  <SCORE.SYSTEM.SOLV>
0

>  <SCORE.SYSTEM.norm>
0

>  <SCORE.heavy>
14

>  <SCORE.norm>
-0.297124

>  <RMSD>
54.368

$$$$
ligand
 OpenBabel11021811493D
libRbt.so/2013.1/901 2013/11/27
 14 13  0  0  0  0  0  0  0  0999 V2000
   13.1361   27.6694   20.2308 N   0  0  0  0  0  0  0  0  0  0  0  0
   13.9933   26.5137   20.0838 C   0  0  0  0  0  0  0  0  0  0  0  0
   14.2166   25.8712   21.4683 C   0  0  0  0  0  0  0  0  0  0  0  0
   12.9548   25.2352   22.0721 C   0  0  0  0  0  0  0  0  0  0  0  0
   13.1308   24.5755   23.3749 N   0  0  0  0  0  0  0  0  0  0  0  0
   13.9139   23.3557   23.5642 C   0  0  0  0  0  0  0  0  0  0  0  0
   13.2920   22.3980   24.5753 C   0  0  0  0  0  0  0  0  0  0  0  0
   11.8935   21.9121   24.1807 C   0  0  0  0  0  0  0  0  0  0  0  0
   11.2717   21.0146   25.2571 C   0  0  0  0  0  0  0  0  0  0  0  0
    9.9300   20.6148   24.8380 N   0  0  0  0  0  0  0  0  0  0  0  0
    9.0697   19.6942   25.5836 C   0  0  0  0  0  0  0  0  0  0  0  0
    7.7161   19.4577   24.8994 C   0  0  0  0  0  0  0  0  0  0  0  0
    6.8334   18.5101   25.7183 C   0  0  0  0  0  0  0  0  0  0  0  0
    5.5451   18.3500   25.0505 N   0  0  0  0  0  0  0  0  0  0  0  0
  1  2  1  0  0  0  0
  2  3  1  0  0  0  0
  3  4  1  0  0  0  0
  4  5  1  0  0  0  0
  5  6  1  0  0  0  0
  6  7  1  0  0  0  0
  7  8  1  0  0  0  0
  8  9  1  0  0  0  0
  9 10  1  0  0  0  0
 10 11  1  0  0  0  0
 11 12  1  0  0  0  0
 12 13  1  0  0  0  0
 13 14  1  0  0  0  0
M  END
>  <CHROM.1>
67.61678864,178.25850308,-67.71174928,-141.93088072,60.55607426,-176.84290993
178.52420302,176.33809251,-179.86550001,-179.00509670,178.22324325,11.20722718
22.51219570,23.63560870,0.87652785,-0.29020269,-0.75330137

>  <Name>
ligand

>  <RI>
0

>  <Rbt.Current_Directory>
/home/itssahil/PROJECTS/Mol_Feturizer/New_Systems/rnas/4FAW

>  <Rbt.Executable>
rbdock ($Id: //depot/dev/client3/rdock/2013.1/src/exe/rbdock.cxx#4 $)

>  <Rbt.Library>
libRbt.so (2013.1, Build901 2013/11/27)

>  <Rbt.Parameter_File>
/export/apps/rDock/src/rDock_2013.1_src/data/scripts/dock_solv.prm

>  <Rbt.Receptor>
prm/blind_docking_40.prm

>  <SCORE>
-15.785

>  <SCORE.INTER>
-5.8685

>  <SCORE.INTER.CONST>
1

>  <SCORE.INTER.POLAR>
0

>  <SCORE.INTER.ROT>
11

>  <SCORE.INTER.SOLV>
13.4544

>  <SCORE.INTER.VDW>
-19.3304

>  <SCORE.INTER.norm>
-0.419178

>  <SCORE.INTRA>
-9.91654

>  <SCORE.INTRA.DIHEDRAL>
-17.9002

>  <SCORE.INTRA.DIHEDRAL.0>
19.1003

>  <SCORE.INTRA.POLAR>
0

>  <SCORE.INTRA.POLAR.0>
0

>  <SCORE.INTRA.REPUL>
0

>  <SCORE.INTRA.REPUL.0>
0

>  <SCORE.INTRA.SOLV>
-0.450376

>  <SCORE.INTRA.SOLV.lig_0>
-47.5333

>  <SCORE.INTRA.VDW>
-0.741257

>  <SCORE.INTRA.VDW.0>
-0.287413

>  <SCORE.INTRA.norm>
-0.708324

>  <SCORE.RESTR>
0

>  <SCORE.RESTR.CAVITY>
0

>  <SCORE.RESTR.norm>
0

>  <SCORE.SYSTEM>
0

>  <SCORE.SYSTEM.CONST>
0

>  <SCORE.SYSTEM.DIHEDRAL>
0

>  <SCORE.SYSTEM.SOLV>
0

>  <SCORE.SYSTEM.norm>
0

>  <SCORE.heavy>
14

>  <SCORE.norm>
-1.1275

>  <RMSD>
54.428

$$$$
ligand
 OpenBabel11021811493D
libRbt.so/2013.1/901 2013/11/27
 14 13  0  0  0  0  0  0  0  0999 V2000
   13.7839   27.6395   20.5346 N   0  0  0  0  0  0  0  0  0  0  0  0
   13.7259   26.2281   20.2235 C   0  0  0  0  0  0  0  0  0  0  0  0
   12.4655   25.6195   20.8720 C   0  0  0  0  0  0  0  0  0  0  0  0
   12.4863   25.6318   22.4084 C   0  0  0  0  0  0  0  0  0  0  0  0
   13.5829   24.8823   23.0402 N   0  0  0  0  0  0  0  0  0  0  0  0
   13.5703   23.4321   23.2240 C   0  0  0  0  0  0  0  0  0  0  0  0
   12.3790   22.9444   24.0421 C   0  0  0  0  0  0  0  0  0  0  0  0
   12.4954   21.4820   24.4840 C   0  0  0  0  0  0  0  0  0  0  0  0
   11.2545   21.0131   25.2528 C   0  0  0  0  0  0  0  0  0  0  0  0
   10.1347   20.8718   24.3245 N   0  0  0  0  0  0  0  0  0  0  0  0
    8.7999   21.4309   24.5462 C   0  0  0  0  0  0  0  0  0  0  0  0
    7.9886   20.6423   25.5835 C   0  0  0  0  0  0  0  0  0  0  0  0
    7.8063   19.1816   25.1584 C   0  0  0  0  0  0  0  0  0  0  0  0
    6.9879   18.4876   26.1483 N   0  0  0  0  0  0  0  0  0  0  0  0
  1  2  1  0  0  0  0
  2  3  1  0  0  0  0
  3  4  1  0  0  0  0
  4  5  1  0  0  0  0
  5  6  1  0  0  0  0
  6  7  1  0  0  0  0
  7  8  1  0  0  0  0
  8  9  1  0  0  0  0
  9 10  1  0  0  0  0
 10 11  1  0  0  0  0
 11 12  1  0  0  0  0
 12 13  1  0  0  0  0
 13 14  1  0  0  0  0
M  END
>  <CHROM.1>
-65.62091207,-60.55439660,-80.54927927,-58.06959003,-168.31728353,-177.63174596
71.78853923,-130.92153061,-75.21103423,-59.20200224,-177.85629692,11.24726660
22.82045248,23.56019874,0.96408540,-0.15567279,-0.68782960

>  <Name>
ligand

>  <RI>
0

>  <Rbt.Current_Directory>
/home/itssahil/PROJECTS/Mol_Feturizer/New_Systems/rnas/4FAW

>  <Rbt.Executable>
rbdock ($Id: //depot/dev/client3/rdock/2013.1/src/exe/rbdock.cxx#4 $)

>  <Rbt.Library>
libRbt.so (2013.1, Build901 2013/11/27)

>  <Rbt.Parameter_File>
/export/apps/rDock/src/rDock_2013.1_src/data/scripts/dock_solv.prm

>  <Rbt.Receptor>
prm/blind_docking_40.prm

>  <SCORE>
-13.7977

>  <SCORE.INTER>
-5.7008

>  <SCORE.INTER.CONST>
1

>  <SCORE.INTER.POLAR>
0

>  <SCORE.INTER.ROT>
11

>  <SCORE.INTER.SOLV>
13.883

>  <SCORE.INTER.VDW>
-19.3615

>  <SCORE.INTER.norm>
-0.4072

>  <SCORE.INTRA>
-8.09691

>  <SCORE.INTRA.DIHEDRAL>
-16.3243

>  <SCORE.INTRA.DIHEDRAL.0>
19.1003

>  <SCORE.INTRA.POLAR>
0

>  <SCORE.INTRA.POLAR.0>
0

>  <SCORE.INTRA.REPUL>
0

>  <SCORE.INTRA.REPUL.0>
0

>  <SCORE.INTRA.SOLV>
0.912047

>  <SCORE.INTRA.SOLV.lig_0>
-47.5333

>  <SCORE.INTRA.VDW>
-0.390764

>  <SCORE.INTRA.VDW.0>
-0.287413

>  <SCORE.INTRA.norm>
-0.578351

>  <SCORE.RESTR>
0

>  <SCORE.RESTR.CAVITY>
0

>  <SCORE.RESTR.norm>
0

>  <SCORE.SYSTEM>
0

>  <SCORE.SYSTEM.CONST>
0

>  <SCORE.SYSTEM.DIHEDRAL>
0

>  <SCORE.SYSTEM.SOLV>
0

>  <SCORE.SYSTEM.norm>
0

>  <SCORE.heavy>
14

>  <SCORE.norm>
-0.985551

>  <RMSD>
54.433

$$$$
ligand
 OpenBabel11021811493D
libRbt.so/2013.1/901 2013/11/27
 14 13  0  0  0  0  0  0  0  0999 V2000
   11.6866   13.3510   22.6777 N   0  0  0  0  0  0  0  0  0  0  0  0
   12.0966   13.0210   24.0250 C   0  0  0  0  0  0  0  0  0  0  0  0
   10.9093   12.3780   24.7709 C   0  0  0  0  0  0  0  0  0  0  0  0
   11.1683   12.1370   26.2662 C   0  0  0  0  0  0  0  0  0  0  0  0
   10.1567   11.3341   26.9702 N   0  0  0  0  0  0  0  0  0  0  0  0
    8.7448   11.7041   27.0525 C   0  0  0  0  0  0  0  0  0  0  0  0
    8.4708   12.7858   28.0922 C   0  0  0  0  0  0  0  0  0  0  0  0
    9.0369   14.1583   27.7136 C   0  0  0  0  0  0  0  0  0  0  0  0
    8.6135   15.2484   28.7053 C   0  0  0  0  0  0  0  0  0  0  0  0
    9.1991   16.5247   28.3007 N   0  0  0  0  0  0  0  0  0  0  0  0
    8.4501   17.6203   27.6824 C   0  0  0  0  0  0  0  0  0  0  0  0
    8.5206   17.5992   26.1492 C   0  0  0  0  0  0  0  0  0  0  0  0
    7.8643   18.8435   25.5419 C   0  0  0  0  0  0  0  0  0  0  0  0
    6.4382   18.8401   25.8541 N   0  0  0  0  0  0  0  0  0  0  0  0
  1  2  1  0  0  0  0
  2  3  1  0  0  0  0
  3  4  1  0  0  0  0
  4  5  1  0  0  0  0
  5  6  1  0  0  0  0
  6  7  1  0  0  0  0
  7  8  1  0  0  0  0
  8  9  1  0  0  0  0
  9 10  1  0  0  0  0
 10 11  1  0  0  0  0
 11 12  1  0  0  0  0
 12 13  1  0  0  0  0
 13 14  1  0  0  0  0
M  END
>  <CHROM.1>
-173.01027198,-170.54790579,-58.80203905,-78.42902402,69.09831606,173.85419041
179.19877490,105.87437248,-94.79477368,-173.49352583,-64.39330924,9.38256505
14.68168036,26.41460738,-0.62200605,0.98383423,-0.63973863

>  <Name>
ligand

>  <RI>
0

>  <Rbt.Current_Directory>
/home/itssahil/PROJECTS/Mol_Feturizer/New_Systems/rnas/4FAW

>  <Rbt.Executable>
rbdock ($Id: //depot/dev/client3/rdock/2013.1/src/exe/rbdock.cxx#4 $)

>  <Rbt.Library>
libRbt.so (2013.1, Build901 2013/11/27)

>  <Rbt.Parameter_File>
/export/apps/rDock/src/rDock_2013.1_src/data/scripts/dock_solv.prm

>  <Rbt.Receptor>
prm/blind_docking_60.prm

>  <SCORE>
-7.6923

>  <SCORE.INTER>
0.970161

>  <SCORE.INTER.CONST>
1

>  <SCORE.INTER.POLAR>
0

>  <SCORE.INTER.ROT>
11

>  <SCORE.INTER.SOLV>
15.4273

>  <SCORE.INTER.VDW>
-15.429

>  <SCORE.INTER.norm>
0.0692972

>  <SCORE.INTRA>
-8.66246

>  <SCORE.INTRA.DIHEDRAL>
-15.8365

>  <SCORE.INTRA.DIHEDRAL.0>
19.1003

>  <SCORE.INTRA.POLAR>
0

>  <SCORE.INTRA.POLAR.0>
0

>  <SCORE.INTRA.REPUL>
0

>  <SCORE.INTRA.REPUL.0>
0

>  <SCORE.INTRA.SOLV>
-0.418905

>  <SCORE.INTRA.SOLV.lig_0>
-47.5333

>  <SCORE.INTRA.VDW>
-0.53478

>  <SCORE.INTRA.VDW.0>
-0.287413

>  <SCORE.INTRA.norm>
-0.618747

>  <SCORE.RESTR>
0

>  <SCORE.RESTR.CAVITY>
0

>  <SCORE.RESTR.norm>
0

>  <SCORE.SYSTEM>
0

>  <SCORE.SYSTEM.CONST>
0

>  <SCORE.SYSTEM.DIHEDRAL>
0

>  <SCORE.SYSTEM.SOLV>
0

>  <SCORE.SYSTEM.norm>
0

>  <SCORE.heavy>
14

>  <SCORE.norm>
-0.54945

>  <RMSD>
54.643

$$$$
ligand
 OpenBabel11021811493D
libRbt.so/2013.1/901 2013/11/27
 14 13  0  0  0  0  0  0  0  0999 V2000
    5.7186   20.2179   23.4744 N   0  0  0  0  0  0  0  0  0  0  0  0
    6.9730   19.5107   23.3384 C   0  0  0  0  0  0  0  0  0  0  0  0
    7.5316   19.1989   24.7421 C   0  0  0  0  0  0  0  0  0  0  0  0
    7.8835   20.4477   25.5653 C   0  0  0  0  0  0  0  0  0  0  0  0
    8.8967   21.3376   24.9778 N   0  0  0  0  0  0  0  0  0  0  0  0
   10.3038   20.9718   24.8262 C   0  0  0  0  0  0  0  0  0  0  0  0
   11.2031   22.1677   24.5306 C   0  0  0  0  0  0  0  0  0  0  0  0
   12.6667   21.7885   24.2824 C   0  0  0  0  0  0  0  0  0  0  0  0
   13.5417   23.0186   24.0136 C   0  0  0  0  0  0  0  0  0  0  0  0
   13.0425   23.7189   22.8321 N   0  0  0  0  0  0  0  0  0  0  0  0
   13.4468   25.0697   22.4379 C   0  0  0  0  0  0  0  0  0  0  0  0
   12.6516   25.6032   21.2382 C   0  0  0  0  0  0  0  0  0  0  0  0
   13.0538   27.0414   20.8954 C   0  0  0  0  0  0  0  0  0  0  0  0
   14.4468   27.0638   20.4591 N   0  0  0  0  0  0  0  0  0  0  0  0
  1  2  1  0  0  0  0
  2  3  1  0  0  0  0
  3  4  1  0  0  0  0
  4  5  1  0  0  0  0
  5  6  1  0  0  0  0
  6  7  1  0  0  0  0
  7  8  1  0  0  0  0
  8  9  1  0  0  0  0
  9 10  1  0  0  0  0
 10 11  1  0  0  0  0
 11 12  1  0  0  0  0
 12 13  1  0  0  0  0
 13 14  1  0  0  0  0
M  END
>  <CHROM.1>
-63.72985229,-59.85325258,-68.12951747,-165.25487395,-176.38341529,-178.99773354
-59.94300397,166.80540691,-174.00388513,177.30513379,64.61351887,10.81156186
22.65383870,23.40117202,2.37452525,0.31046898,2.37460818

>  <Name>
ligand

>  <RI>
0

>  <Rbt.Current_Directory>
/home/itssahil/PROJECTS/Mol_Feturizer/New_Systems/rnas/4FAW

>  <Rbt.Executable>
rbdock ($Id: //depot/dev/client3/rdock/2013.1/src/exe/rbdock.cxx#4 $)

>  <Rbt.Library>
libRbt.so (2013.1, Build901 2013/11/27)

>  <Rbt.Parameter_File>
/export/apps/rDock/src/rDock_2013.1_src/data/scripts/dock_solv.prm

>  <Rbt.Receptor>
prm/blind_docking_40.prm

>  <SCORE>
-14.6563

>  <SCORE.INTER>
-5.59823

>  <SCORE.INTER.CONST>
1

>  <SCORE.INTER.POLAR>
0

>  <SCORE.INTER.ROT>
11

>  <SCORE.INTER.SOLV>
12.2317

>  <SCORE.INTER.VDW>
-18.7427

>  <SCORE.INTER.norm>
-0.399873

>  <SCORE.INTRA>
-9.05804

>  <SCORE.INTRA.DIHEDRAL>
-18.4961

>  <SCORE.INTRA.DIHEDRAL.0>
19.1003

>  <SCORE.INTRA.POLAR>
0

>  <SCORE.INTRA.POLAR.0>
0

>  <SCORE.INTRA.REPUL>
0

>  <SCORE.INTRA.REPUL.0>
0

>  <SCORE.INTRA.SOLV>
1.43268

>  <SCORE.INTRA.SOLV.lig_0>
-47.5333

>  <SCORE.INTRA.VDW>
-0.526331

>  <SCORE.INTRA.VDW.0>
-0.287413

>  <SCORE.INTRA.norm>
-0.647003

>  <SCORE.RESTR>
0

>  <SCORE.RESTR.CAVITY>
0

>  <SCORE.RESTR.norm>
0

>  <SCORE.SYSTEM>
0

>  <SCORE.SYSTEM.CONST>
0

>  <SCORE.SYSTEM.DIHEDRAL>
0

>  <SCORE.SYSTEM.SOLV>
0

>  <SCORE.SYSTEM.norm>
0

>  <SCORE.heavy>
14

>  <SCORE.norm>
-1.04688

>  <RMSD>
54.666

$$$$
ligand
 OpenBabel11021811493D
libRbt.so/2013.1/901 2013/11/27
 14 13  0  0  0  0  0  0  0  0999 V2000
    6.3215   22.1850   24.1600 N   0  0  0  0  0  0  0  0  0  0  0  0
    7.0392   22.1544   25.4155 C   0  0  0  0  0  0  0  0  0  0  0  0
    7.6394   20.7481   25.6198 C   0  0  0  0  0  0  0  0  0  0  0  0
    8.6528   20.3389   24.5397 C   0  0  0  0  0  0  0  0  0  0  0  0
    9.8825   21.1437   24.4774 N   0  0  0  0  0  0  0  0  0  0  0  0
   11.0518   20.8998   25.3200 C   0  0  0  0  0  0  0  0  0  0  0  0
   12.1559   21.9334   25.1225 C   0  0  0  0  0  0  0  0  0  0  0  0
   12.7343   21.9501   23.7038 C   0  0  0  0  0  0  0  0  0  0  0  0
   13.7765   23.0596   23.5208 C   0  0  0  0  0  0  0  0  0  0  0  0
   13.1100   24.3597   23.5518 N   0  0  0  0  0  0  0  0  0  0  0  0
   12.7516   25.1349   22.3627 C   0  0  0  0  0  0  0  0  0  0  0  0
   13.9761   25.6908   21.6226 C   0  0  0  0  0  0  0  0  0  0  0  0
   13.5669   26.4562   20.3599 C   0  0  0  0  0  0  0  0  0  0  0  0
   12.8784   27.6859   20.7408 N   0  0  0  0  0  0  0  0  0  0  0  0
  1  2  1  0  0  0  0
  2  3  1  0  0  0  0
  3  4  1  0  0  0  0
  4  5  1  0  0  0  0
  5  6  1  0  0  0  0
  6  7  1  0  0  0  0
  7  8  1  0  0  0  0
  8  9  1  0  0  0  0
  9 10  1  0  0  0  0
 10 11  1  0  0  0  0
 11 12  1  0  0  0  0
 12 13  1  0  0  0  0
 13 14  1  0  0  0  0
M  END
>  <CHROM.1>
61.63474312,64.35802486,84.33174438,-176.13912296,-62.42092048,176.37633461
-69.49571347,-99.35055623,-69.08143724,178.12034880,68.76527073,11.11000631
23.12402855,23.60853143,2.31084064,-0.03607643,2.53906669

>  <Name>
ligand

>  <RI>
0

>  <Rbt.Current_Directory>
/home/itssahil/PROJECTS/Mol_Feturizer/New_Systems/rnas/4FAW

>  <Rbt.Executable>
rbdock ($Id: //depot/dev/client3/rdock/2013.1/src/exe/rbdock.cxx#4 $)

>  <Rbt.Library>
libRbt.so (2013.1, Build901 2013/11/27)

>  <Rbt.Parameter_File>
/export/apps/rDock/src/rDock_2013.1_src/data/scripts/dock_solv.prm

>  <Rbt.Receptor>
prm/blind_docking_40.prm

>  <SCORE>
-14.9886

>  <SCORE.INTER>
-6.81893

>  <SCORE.INTER.CONST>
1

>  <SCORE.INTER.POLAR>
0

>  <SCORE.INTER.ROT>
11

>  <SCORE.INTER.SOLV>
13.1974

>  <SCORE.INTER.VDW>
-19.8784

>  <SCORE.INTER.norm>
-0.487066

>  <SCORE.INTRA>
-8.16969

>  <SCORE.INTRA.DIHEDRAL>
-16.923

>  <SCORE.INTRA.DIHEDRAL.0>
19.1003

>  <SCORE.INTRA.POLAR>
0

>  <SCORE.INTRA.POLAR.0>
0

>  <SCORE.INTRA.REPUL>
0

>  <SCORE.INTRA.REPUL.0>
0

>  <SCORE.INTRA.SOLV>
1.65022

>  <SCORE.INTRA.SOLV.lig_0>
-47.5333

>  <SCORE.INTRA.VDW>
-0.533284

>  <SCORE.INTRA.VDW.0>
-0.287413

>  <SCORE.INTRA.norm>
-0.583549

>  <SCORE.RESTR>
0

>  <SCORE.RESTR.CAVITY>
0

>  <SCORE.RESTR.norm>
0

>  <SCORE.SYSTEM>
0

>  <SCORE.SYSTEM.CONST>
0

>  <SCORE.SYSTEM.DIHEDRAL>
0

>  <SCORE.SYSTEM.SOLV>
0

>  <SCORE.SYSTEM.norm>
0

>  <SCORE.heavy>
14

>  <SCORE.norm>
-1.07062

>  <RMSD>
54.694

$$$$
ligand
 OpenBabel11021811493D
libRbt.so/2013.1/901 2013/11/27
 14 13  0  0  0  0  0  0  0  0999 V2000
   11.4956   14.3229   37.3432 N   0  0  0  0  0  0  0  0  0  0  0  0
   11.3715   13.4266   38.4716 C   0  0  0  0  0  0  0  0  0  0  0  0
   12.7786   13.0930   39.0087 C   0  0  0  0  0  0  0  0  0  0  0  0
   13.5950   12.1711   38.0897 C   0  0  0  0  0  0  0  0  0  0  0  0
   14.0150   12.7547   36.8065 N   0  0  0  0  0  0  0  0  0  0  0  0
   14.4946   11.9616   35.6760 C   0  0  0  0  0  0  0  0  0  0  0  0
   15.9677   11.5842   35.7938 C   0  0  0  0  0  0  0  0  0  0  0  0
   16.4839   10.7516   34.6158 C   0  0  0  0  0  0  0  0  0  0  0  0
   15.8383    9.3617   34.5673 C   0  0  0  0  0  0  0  0  0  0  0  0
   16.3181    8.5656   35.6950 N   0  0  0  0  0  0  0  0  0  0  0  0
   16.4871    7.1116   35.6695 C   0  0  0  0  0  0  0  0  0  0  0  0
   17.9576    6.6846   35.5614 C   0  0  0  0  0  0  0  0  0  0  0  0
   18.0971    5.1589   35.5401 C   0  0  0  0  0  0  0  0  0  0  0  0
   17.5225    4.6373   34.3036 N   0  0  0  0  0  0  0  0  0  0  0  0
  1  2  1  0  0  0  0
  2  3  1  0  0  0  0
  3  4  1  0  0  0  0
  4  5  1  0  0  0  0
  5  6  1  0  0  0  0
  6  7  1  0  0  0  0
  7  8  1  0  0  0  0
  8  9  1  0  0  0  0
  9 10  1  0  0  0  0
 10 11  1  0  0  0  0
 11 12  1  0  0  0  0
 12 13  1  0  0  0  0
 13 14  1  0  0  0  0
M  END
>  <CHROM.1>
-71.54338716,68.16332818,-164.15399523,-82.03037496,179.96042324,-66.77444506
-69.18315035,-148.69565416,104.65175461,179.88580102,67.28125604,15.17318826
10.11326384,36.22451776,-2.53002218,-0.84825530,2.68564519

>  <Name>
ligand

>  <RI>
0

>  <Rbt.Current_Directory>
/home/itssahil/PROJECTS/Mol_Feturizer/New_Systems/rnas/4FAW

>  <Rbt.Executable>
rbdock ($Id: //depot/dev/client3/rdock/2013.1/src/exe/rbdock.cxx#4 $)

>  <Rbt.Library>
libRbt.so (2013.1, Build901 2013/11/27)

>  <Rbt.Parameter_File>
/export/apps/rDock/src/rDock_2013.1_src/data/scripts/dock_solv.prm

>  <Rbt.Receptor>
prm/blind_docking_60.prm

>  <SCORE>
-8.69954

>  <SCORE.INTER>
-1.77824

>  <SCORE.INTER.CONST>
1

>  <SCORE.INTER.POLAR>
0

>  <SCORE.INTER.ROT>
11

>  <SCORE.INTER.SOLV>
12.2199

>  <SCORE.INTER.VDW>
-16.1921

>  <SCORE.INTER.norm>
-0.127017

>  <SCORE.INTRA>
-6.92131

>  <SCORE.INTRA.DIHEDRAL>
-15.4522

>  <SCORE.INTRA.DIHEDRAL.0>
19.1003

>  <SCORE.INTRA.POLAR>
0

>  <SCORE.INTRA.POLAR.0>
0

>  <SCORE.INTRA.REPUL>
0

>  <SCORE.INTRA.REPUL.0>
0

>  <SCORE.INTRA.SOLV>
2.58574

>  <SCORE.INTRA.SOLV.lig_0>
-47.5333

>  <SCORE.INTRA.VDW>
-0.488064

>  <SCORE.INTRA.VDW.0>
-0.287413

>  <SCORE.INTRA.norm>
-0.494379

>  <SCORE.RESTR>
0

>  <SCORE.RESTR.CAVITY>
0

>  <SCORE.RESTR.norm>
0

>  <SCORE.SYSTEM>
0

>  <SCORE.SYSTEM.CONST>
0

>  <SCORE.SYSTEM.DIHEDRAL>
0

>  <SCORE.SYSTEM.SOLV>
0

>  <SCORE.SYSTEM.norm>
0

>  <SCORE.heavy>
14

>  <SCORE.norm>
-0.621396

>  <RMSD>
54.816

$$$$
ligand
 OpenBabel11021811493D
libRbt.so/2013.1/901 2013/11/27
 14 13  0  0  0  0  0  0  0  0999 V2000
   17.2852    4.8206   34.4070 N   0  0  0  0  0  0  0  0  0  0  0  0
   17.7882    5.3803   35.6422 C   0  0  0  0  0  0  0  0  0  0  0  0
   17.2397    6.8125   35.8079 C   0  0  0  0  0  0  0  0  0  0  0  0
   17.6477    7.7716   34.6788 C   0  0  0  0  0  0  0  0  0  0  0  0
   17.3875    9.1982   34.9250 N   0  0  0  0  0  0  0  0  0  0  0  0
   16.0507    9.7524   35.1318 C   0  0  0  0  0  0  0  0  0  0  0  0
   16.0184   11.2756   35.0612 C   0  0  0  0  0  0  0  0  0  0  0  0
   14.6816   11.8821   35.5002 C   0  0  0  0  0  0  0  0  0  0  0  0
   14.6744   13.4101   35.3742 C   0  0  0  0  0  0  0  0  0  0  0  0
   13.5263   13.9502   36.0993 N   0  0  0  0  0  0  0  0  0  0  0  0
   12.1301   13.7472   35.7083 C   0  0  0  0  0  0  0  0  0  0  0  0
   11.1446   14.5201   36.5957 C   0  0  0  0  0  0  0  0  0  0  0  0
   11.0804   13.9283   38.0076 C   0  0  0  0  0  0  0  0  0  0  0  0
   12.3098   14.2526   38.7250 N   0  0  0  0  0  0  0  0  0  0  0  0
  1  2  1  0  0  0  0
  2  3  1  0  0  0  0
  3  4  1  0  0  0  0
  4  5  1  0  0  0  0
  5  6  1  0  0  0  0
  6  7  1  0  0  0  0
  7  8  1  0  0  0  0
  8  9  1  0  0  0  0
  9 10  1  0  0  0  0
 10 11  1  0  0  0  0
 11 12  1  0  0  0  0
 12 13  1  0  0  0  0
 13 14  1  0  0  0  0
M  END
>  <CHROM.1>
-60.39231455,-167.95467427,-62.09994559,-167.38815679,-170.52762675,-178.24104631
-166.26905953,-67.39820118,-175.62668829,-69.94217182,72.38222846,14.92596012
10.76449404,35.83307064,0.75772340,-0.68679645,2.79769552

>  <Name>
ligand

>  <RI>
0

>  <Rbt.Current_Directory>
/home/itssahil/PROJECTS/Mol_Feturizer/New_Systems/rnas/4FAW

>  <Rbt.Executable>
rbdock ($Id: //depot/dev/client3/rdock/2013.1/src/exe/rbdock.cxx#4 $)

>  <Rbt.Library>
libRbt.so (2013.1, Build901 2013/11/27)

>  <Rbt.Parameter_File>
/export/apps/rDock/src/rDock_2013.1_src/data/scripts/dock_solv.prm

>  <Rbt.Receptor>
prm/blind_docking_80.prm

>  <SCORE>
-11.9165

>  <SCORE.INTER>
-4.3929

>  <SCORE.INTER.CONST>
1

>  <SCORE.INTER.POLAR>
0

>  <SCORE.INTER.ROT>
11

>  <SCORE.INTER.SOLV>
11.2811

>  <SCORE.INTER.VDW>
-17.6223

>  <SCORE.INTER.norm>
-0.313779

>  <SCORE.INTRA>
-7.5236

>  <SCORE.INTRA.DIHEDRAL>
-16.4246

>  <SCORE.INTRA.DIHEDRAL.0>
19.1003

>  <SCORE.INTRA.POLAR>
0

>  <SCORE.INTRA.POLAR.0>
0

>  <SCORE.INTRA.REPUL>
0

>  <SCORE.INTRA.REPUL.0>
0

>  <SCORE.INTRA.SOLV>
2.0499

>  <SCORE.INTRA.SOLV.lig_0>
-47.5333

>  <SCORE.INTRA.VDW>
-0.336235

>  <SCORE.INTRA.VDW.0>
-0.287413

>  <SCORE.INTRA.norm>
-0.5374

>  <SCORE.RESTR>
0

>  <SCORE.RESTR.CAVITY>
0

>  <SCORE.RESTR.norm>
0

>  <SCORE.SYSTEM>
0

>  <SCORE.SYSTEM.CONST>
0

>  <SCORE.SYSTEM.DIHEDRAL>
0

>  <SCORE.SYSTEM.SOLV>
0

>  <SCORE.SYSTEM.norm>
0

>  <SCORE.heavy>
14

>  <SCORE.norm>
-0.851179

>  <RMSD>
54.828

$$$$
ligand
 OpenBabel11021811493D
libRbt.so/2013.1/901 2013/11/27
 14 13  0  0  0  0  0  0  0  0999 V2000
   18.1670    5.9146   34.4456 N   0  0  0  0  0  0  0  0  0  0  0  0
   18.5544    6.6236   35.6454 C   0  0  0  0  0  0  0  0  0  0  0  0
   18.2881    8.1304   35.4496 C   0  0  0  0  0  0  0  0  0  0  0  0
   16.8049    8.4821   35.2562 C   0  0  0  0  0  0  0  0  0  0  0  0
   16.5084    9.9047   35.0284 N   0  0  0  0  0  0  0  0  0  0  0  0
   16.8121   10.9587   35.9948 C   0  0  0  0  0  0  0  0  0  0  0  0
   16.3750   12.3426   35.5257 C   0  0  0  0  0  0  0  0  0  0  0  0
   14.8664   12.4611   35.2857 C   0  0  0  0  0  0  0  0  0  0  0  0
   14.4386   13.9090   35.0186 C   0  0  0  0  0  0  0  0  0  0  0  0
   12.9794   13.9891   35.0109 N   0  0  0  0  0  0  0  0  0  0  0  0
   12.1148   13.4436   36.0589 C   0  0  0  0  0  0  0  0  0  0  0  0
   11.0852   14.4604   36.5708 C   0  0  0  0  0  0  0  0  0  0  0  0
   11.7191   15.4538   37.5502 C   0  0  0  0  0  0  0  0  0  0  0  0
   12.1668   14.7399   38.7423 N   0  0  0  0  0  0  0  0  0  0  0  0
  1  2  1  0  0  0  0
  2  3  1  0  0  0  0
  3  4  1  0  0  0  0
  4  5  1  0  0  0  0
  5  6  1  0  0  0  0
  6  7  1  0  0  0  0
  7  8  1  0  0  0  0
  8  9  1  0  0  0  0
  9 10  1  0  0  0  0
 10 11  1  0  0  0  0
 11 12  1  0  0  0  0
 12 13  1  0  0  0  0
 13 14  1  0  0  0  0
M  END
>  <CHROM.1>
63.62018918,-178.36069462,-61.35749390,-178.72494159,60.97392977,171.55089467
-171.02303311,50.10869138,129.63163386,-78.56842214,-64.47603388,15.06290732
11.48681132,35.82737288,0.48335894,-0.78625784,2.43580402

>  <Name>
ligand

>  <RI>
0

>  <Rbt.Current_Directory>
/home/itssahil/PROJECTS/Mol_Feturizer/New_Systems/rnas/4FAW

>  <Rbt.Executable>
rbdock ($Id: //depot/dev/client3/rdock/2013.1/src/exe/rbdock.cxx#4 $)

>  <Rbt.Library>
libRbt.so (2013.1, Build901 2013/11/27)

>  <Rbt.Parameter_File>
/export/apps/rDock/src/rDock_2013.1_src/data/scripts/dock_solv.prm

>  <Rbt.Receptor>
prm/blind_docking_80.prm

>  <SCORE>
-12.501

>  <SCORE.INTER>
-5.40513

>  <SCORE.INTER.CONST>
1

>  <SCORE.INTER.POLAR>
0

>  <SCORE.INTER.ROT>
11

>  <SCORE.INTER.SOLV>
11.0244

>  <SCORE.INTER.VDW>
-18.2115

>  <SCORE.INTER.norm>
-0.386081

>  <SCORE.INTRA>
-7.09588

>  <SCORE.INTRA.DIHEDRAL>
-15.9561

>  <SCORE.INTRA.DIHEDRAL.0>
19.1003

>  <SCORE.INTRA.POLAR>
0

>  <SCORE.INTRA.POLAR.0>
0

>  <SCORE.INTRA.REPUL>
0

>  <SCORE.INTRA.REPUL.0>
0

>  <SCORE.INTRA.SOLV>
1.27937

>  <SCORE.INTRA.SOLV.lig_0>
-47.5333

>  <SCORE.INTRA.VDW>
0.242469

>  <SCORE.INTRA.VDW.0>
-0.287413

>  <SCORE.INTRA.norm>
-0.506849

>  <SCORE.RESTR>
0

>  <SCORE.RESTR.CAVITY>
0

>  <SCORE.RESTR.norm>
0

>  <SCORE.SYSTEM>
0

>  <SCORE.SYSTEM.CONST>
0

>  <SCORE.SYSTEM.DIHEDRAL>
0

>  <SCORE.SYSTEM.SOLV>
0

>  <SCORE.SYSTEM.norm>
0

>  <SCORE.heavy>
14

>  <SCORE.norm>
-0.89293

>  <RMSD>
54.830

$$$$
ligand
 OpenBabel11021811493D
libRbt.so/2013.1/901 2013/11/27
 14 13  0  0  0  0  0  0  0  0999 V2000
    5.4665   19.3860   23.1626 N   0  0  0  0  0  0  0  0  0  0  0  0
    6.4687   19.2587   24.1977 C   0  0  0  0  0  0  0  0  0  0  0  0
    7.6776   20.1486   23.8423 C   0  0  0  0  0  0  0  0  0  0  0  0
    8.8023   20.1208   24.8889 C   0  0  0  0  0  0  0  0  0  0  0  0
   10.0026   20.9048   24.5602 N   0  0  0  0  0  0  0  0  0  0  0  0
   11.2018   20.9360   25.3957 C   0  0  0  0  0  0  0  0  0  0  0  0
   12.1559   22.0678   25.0284 C   0  0  0  0  0  0  0  0  0  0  0  0
   12.7779   21.9186   23.6361 C   0  0  0  0  0  0  0  0  0  0  0  0
   13.7813   23.0373   23.3318 C   0  0  0  0  0  0  0  0  0  0  0  0
   13.0616   24.2953   23.1448 N   0  0  0  0  0  0  0  0  0  0  0  0
   13.3347   25.2538   22.0723 C   0  0  0  0  0  0  0  0  0  0  0  0
   12.1835   26.2450   21.8519 C   0  0  0  0  0  0  0  0  0  0  0  0
   10.8954   25.5241   21.4412 C   0  0  0  0  0  0  0  0  0  0  0  0
    9.8396   26.5076   21.2192 N   0  0  0  0  0  0  0  0  0  0  0  0
  1  2  1  0  0  0  0
  2  3  1  0  0  0  0
  3  4  1  0  0  0  0
  4  5  1  0  0  0  0
  5  6  1  0  0  0  0
  6  7  1  0  0  0  0
  7  8  1  0  0  0  0
  8  9  1  0  0  0  0
  9 10  1  0  0  0  0
 10 11  1  0  0  0  0
 11 12  1  0  0  0  0
 12 13  1  0  0  0  0
 13 14  1  0  0  0  0
M  END
>  <CHROM.1>
178.75032775,177.18886641,-176.34844398,-165.84791851,-65.83855286,-177.21389812
-70.51966630,-135.79359739,162.30083440,-61.44346313,-178.93869572,10.54677831
22.54308314,23.41252268,2.32872739,0.26406920,2.56514892

>  <Name>
ligand

>  <RI>
0

>  <Rbt.Current_Directory>
/home/itssahil/PROJECTS/Mol_Feturizer/New_Systems/rnas/4FAW

>  <Rbt.Executable>
rbdock ($Id: //depot/dev/client3/rdock/2013.1/src/exe/rbdock.cxx#4 $)

>  <Rbt.Library>
libRbt.so (2013.1, Build901 2013/11/27)

>  <Rbt.Parameter_File>
/export/apps/rDock/src/rDock_2013.1_src/data/scripts/dock_solv.prm

>  <Rbt.Receptor>
prm/blind_docking_40.prm

>  <SCORE>
-14.4974

>  <SCORE.INTER>
-4.76805

>  <SCORE.INTER.CONST>
1

>  <SCORE.INTER.POLAR>
0

>  <SCORE.INTER.ROT>
11

>  <SCORE.INTER.SOLV>
12.8693

>  <SCORE.INTER.VDW>
-18.4018

>  <SCORE.INTER.norm>
-0.340575

>  <SCORE.INTRA>
-9.7294

>  <SCORE.INTRA.DIHEDRAL>
-17.0695

>  <SCORE.INTRA.DIHEDRAL.0>
19.1003

>  <SCORE.INTRA.POLAR>
0

>  <SCORE.INTRA.POLAR.0>
0

>  <SCORE.INTRA.REPUL>
0

>  <SCORE.INTRA.REPUL.0>
0

>  <SCORE.INTRA.SOLV>
-0.430224

>  <SCORE.INTRA.SOLV.lig_0>
-47.5333

>  <SCORE.INTRA.VDW>
-0.979527

>  <SCORE.INTRA.VDW.0>
-0.287413

>  <SCORE.INTRA.norm>
-0.694957

>  <SCORE.RESTR>
0

>  <SCORE.RESTR.CAVITY>
0

>  <SCORE.RESTR.norm>
0

>  <SCORE.SYSTEM>
0

>  <SCORE.SYSTEM.CONST>
0

>  <SCORE.SYSTEM.DIHEDRAL>
0

>  <SCORE.SYSTEM.SOLV>
0

>  <SCORE.SYSTEM.norm>
0

>  <SCORE.heavy>
14

>  <SCORE.norm>
-1.03553

>  <RMSD>
54.837

$$$$
ligand
 OpenBabel11021811493D
libRbt.so/2013.1/901 2013/11/27
 14 13  0  0  0  0  0  0  0  0999 V2000
    6.0848   20.8792   23.0675 N   0  0  0  0  0  0  0  0  0  0  0  0
    7.3698   21.0855   23.6986 C   0  0  0  0  0  0  0  0  0  0  0  0
    7.6720   19.8937   24.6301 C   0  0  0  0  0  0  0  0  0  0  0  0
    9.0198   19.9984   25.3606 C   0  0  0  0  0  0  0  0  0  0  0  0
    9.3568   18.8743   26.2473 N   0  0  0  0  0  0  0  0  0  0  0  0
   10.7021   18.6262   26.7626 C   0  0  0  0  0  0  0  0  0  0  0  0
   10.8572   17.2424   27.3851 C   0  0  0  0  0  0  0  0  0  0  0  0
   10.5287   16.0963   26.4228 C   0  0  0  0  0  0  0  0  0  0  0  0
   10.8961   14.7288   27.0107 C   0  0  0  0  0  0  0  0  0  0  0  0
   10.6615   13.6920   26.0079 N   0  0  0  0  0  0  0  0  0  0  0  0
   10.9881   12.2763   26.1887 C   0  0  0  0  0  0  0  0  0  0  0  0
    9.7900   11.4451   26.6681 C   0  0  0  0  0  0  0  0  0  0  0  0
    9.3434   11.8654   28.0722 C   0  0  0  0  0  0  0  0  0  0  0  0
    8.1747   11.0828   28.4633 N   0  0  0  0  0  0  0  0  0  0  0  0
  1  2  1  0  0  0  0
  2  3  1  0  0  0  0
  3  4  1  0  0  0  0
  4  5  1  0  0  0  0
  5  6  1  0  0  0  0
  6  7  1  0  0  0  0
  7  8  1  0  0  0  0
  8  9  1  0  0  0  0
  9 10  1  0  0  0  0
 10 11  1  0  0  0  0
 11 12  1  0  0  0  0
 12 13  1  0  0  0  0
 13 14  1  0  0  0  0
M  END
>  <CHROM.1>
179.94038284,-179.25662937,164.40724633,-166.74426520,57.86155488,171.39689147
-175.42155751,175.64724678,95.71919296,-65.27993906,177.94214445,9.38926278
16.27050926,26.14189931,1.82162575,-0.45835528,-0.21670197

>  <Name>
ligand

>  <RI>
0

>  <Rbt.Current_Directory>
/home/itssahil/PROJECTS/Mol_Feturizer/New_Systems/rnas/4FAW

>  <Rbt.Executable>
rbdock ($Id: //depot/dev/client3/rdock/2013.1/src/exe/rbdock.cxx#4 $)

>  <Rbt.Library>
libRbt.so (2013.1, Build901 2013/11/27)

>  <Rbt.Parameter_File>
/export/apps/rDock/src/rDock_2013.1_src/data/scripts/dock_solv.prm

>  <Rbt.Receptor>
prm/blind_docking_80.prm

>  <SCORE>
-12.0036

>  <SCORE.INTER>
-1.99489

>  <SCORE.INTER.CONST>
1

>  <SCORE.INTER.POLAR>
0

>  <SCORE.INTER.ROT>
11

>  <SCORE.INTER.SOLV>
11.5228

>  <SCORE.INTER.VDW>
-16.1042

>  <SCORE.INTER.norm>
-0.142492

>  <SCORE.INTRA>
-10.0087

>  <SCORE.INTRA.DIHEDRAL>
-17.4555

>  <SCORE.INTRA.DIHEDRAL.0>
19.1003

>  <SCORE.INTRA.POLAR>
0

>  <SCORE.INTRA.POLAR.0>
0

>  <SCORE.INTRA.REPUL>
0

>  <SCORE.INTRA.REPUL.0>
0

>  <SCORE.INTRA.SOLV>
-0.748967

>  <SCORE.INTRA.SOLV.lig_0>
-47.5333

>  <SCORE.INTRA.VDW>
-0.906475

>  <SCORE.INTRA.VDW.0>
-0.287413

>  <SCORE.INTRA.norm>
-0.714909

>  <SCORE.RESTR>
0

>  <SCORE.RESTR.CAVITY>
0

>  <SCORE.RESTR.norm>
0

>  <SCORE.SYSTEM>
0

>  <SCORE.SYSTEM.CONST>
0

>  <SCORE.SYSTEM.DIHEDRAL>
0

>  <SCORE.SYSTEM.SOLV>
0

>  <SCORE.SYSTEM.norm>
0

>  <SCORE.heavy>
14

>  <SCORE.norm>
-0.857401

>  <RMSD>
54.847

$$$$
ligand
 OpenBabel11021811493D
libRbt.so/2013.1/901 2013/11/27
 14 13  0  0  0  0  0  0  0  0999 V2000
    5.4969   19.2595   22.8732 N   0  0  0  0  0  0  0  0  0  0  0  0
    6.2182   19.9738   23.9035 C   0  0  0  0  0  0  0  0  0  0  0  0
    7.1627   20.9978   23.2411 C   0  0  0  0  0  0  0  0  0  0  0  0
    7.9124   21.8928   24.2401 C   0  0  0  0  0  0  0  0  0  0  0  0
    8.8287   21.1996   25.1586 N   0  0  0  0  0  0  0  0  0  0  0  0
   10.1827   20.7882   24.7921 C   0  0  0  0  0  0  0  0  0  0  0  0
   11.1578   21.9575   24.7008 C   0  0  0  0  0  0  0  0  0  0  0  0
   12.5718   21.5458   24.2785 C   0  0  0  0  0  0  0  0  0  0  0  0
   13.5416   22.7334   24.2819 C   0  0  0  0  0  0  0  0  0  0  0  0
   13.1037   23.7187   23.2955 N   0  0  0  0  0  0  0  0  0  0  0  0
   13.9969   24.6465   22.5992 C   0  0  0  0  0  0  0  0  0  0  0  0
   13.2959   25.9458   22.1788 C   0  0  0  0  0  0  0  0  0  0  0  0
   12.1622   25.6734   21.1847 C   0  0  0  0  0  0  0  0  0  0  0  0
   11.5272   26.9354   20.8166 N   0  0  0  0  0  0  0  0  0  0  0  0
  1  2  1  0  0  0  0
  2  3  1  0  0  0  0
  3  4  1  0  0  0  0
  4  5  1  0  0  0  0
  5  6  1  0  0  0  0
  6  7  1  0  0  0  0
  7  8  1  0  0  0  0
  8  9  1  0  0  0  0
  9 10  1  0  0  0  0
 10 11  1  0  0  0  0
 11 12  1  0  0  0  0
 12 13  1  0  0  0  0
 13 14  1  0  0  0  0
M  END
>  <CHROM.1>
175.80522993,62.76749143,81.11916844,73.56520341,-178.35130238,-176.48488409
-63.08783667,-152.19612019,-152.29470553,-62.42726699,179.94985118,10.51164720
22.66195509,23.39618030,2.49467994,0.28546198,2.47193957

>  <Name>
ligand

>  <RI>
0

>  <Rbt.Current_Directory>
/home/itssahil/PROJECTS/Mol_Feturizer/New_Systems/rnas/4FAW

>  <Rbt.Executable>
rbdock ($Id: //depot/dev/client3/rdock/2013.1/src/exe/rbdock.cxx#4 $)

>  <Rbt.Library>
libRbt.so (2013.1, Build901 2013/11/27)

>  <Rbt.Parameter_File>
/export/apps/rDock/src/rDock_2013.1_src/data/scripts/dock_solv.prm

>  <Rbt.Receptor>
prm/blind_docking_40.prm

>  <SCORE>
-13.4058

>  <SCORE.INTER>
-3.79856

>  <SCORE.INTER.CONST>
1

>  <SCORE.INTER.POLAR>
0

>  <SCORE.INTER.ROT>
11

>  <SCORE.INTER.SOLV>
12.6832

>  <SCORE.INTER.VDW>
-17.6934

>  <SCORE.INTER.norm>
-0.271326

>  <SCORE.INTRA>
-9.60722

>  <SCORE.INTRA.DIHEDRAL>
-17.3496

>  <SCORE.INTRA.DIHEDRAL.0>
19.1003

>  <SCORE.INTRA.POLAR>
0

>  <SCORE.INTRA.POLAR.0>
0

>  <SCORE.INTRA.REPUL>
0

>  <SCORE.INTRA.REPUL.0>
0

>  <SCORE.INTRA.SOLV>
-0.434181

>  <SCORE.INTRA.SOLV.lig_0>
-47.5333

>  <SCORE.INTRA.VDW>
-0.715326

>  <SCORE.INTRA.VDW.0>
-0.287413

>  <SCORE.INTRA.norm>
-0.68623

>  <SCORE.RESTR>
0

>  <SCORE.RESTR.CAVITY>
0

>  <SCORE.RESTR.norm>
0

>  <SCORE.SYSTEM>
0

>  <SCORE.SYSTEM.CONST>
0

>  <SCORE.SYSTEM.DIHEDRAL>
0

>  <SCORE.SYSTEM.SOLV>
0

>  <SCORE.SYSTEM.norm>
0

>  <SCORE.heavy>
14

>  <SCORE.norm>
-0.957555

>  <RMSD>
54.871

$$$$
ligand
 OpenBabel11021811493D
libRbt.so/2013.1/901 2013/11/27
 14 13  0  0  0  0  0  0  0  0999 V2000
   10.9500   25.2613   23.1988 N   0  0  0  0  0  0  0  0  0  0  0  0
   11.6689   25.3863   21.9500 C   0  0  0  0  0  0  0  0  0  0  0  0
   13.1737   25.5485   22.2477 C   0  0  0  0  0  0  0  0  0  0  0  0
   13.8425   24.2774   22.7937 C   0  0  0  0  0  0  0  0  0  0  0  0
   13.3059   23.7667   24.0645 N   0  0  0  0  0  0  0  0  0  0  0  0
   13.5234   22.4030   24.5441 C   0  0  0  0  0  0  0  0  0  0  0  0
   12.3818   21.4560   24.1888 C   0  0  0  0  0  0  0  0  0  0  0  0
   11.1022   21.7085   24.9928 C   0  0  0  0  0  0  0  0  0  0  0  0
    9.9742   20.7494   24.5945 C   0  0  0  0  0  0  0  0  0  0  0  0
    8.8424   20.9303   25.5011 N   0  0  0  0  0  0  0  0  0  0  0  0
    7.5781   20.1986   25.4031 C   0  0  0  0  0  0  0  0  0  0  0  0
    7.7750   18.6793   25.3066 C   0  0  0  0  0  0  0  0  0  0  0  0
    8.4967   18.1292   26.5412 C   0  0  0  0  0  0  0  0  0  0  0  0
    7.6348   18.2738   27.7106 N   0  0  0  0  0  0  0  0  0  0  0  0
  1  2  1  0  0  0  0
  2  3  1  0  0  0  0
  3  4  1  0  0  0  0
  4  5  1  0  0  0  0
  5  6  1  0  0  0  0
  6  7  1  0  0  0  0
  7  8  1  0  0  0  0
  8  9  1  0  0  0  0
  9 10  1  0  0  0  0
 10 11  1  0  0  0  0
 11 12  1  0  0  0  0
 12 13  1  0  0  0  0
 13 14  1  0  0  0  0
M  END
>  <CHROM.1>
70.02751948,-60.69952302,161.72888934,-95.30588130,-71.86113193,179.27356865
173.20506070,178.73352966,50.80745274,60.46769824,66.85038856,10.73233400
21.91196391,24.50241993,0.94476584,-0.03169844,-0.55499864

>  <Name>
ligand

>  <RI>
0

>  <Rbt.Current_Directory>
/home/itssahil/PROJECTS/Mol_Feturizer/New_Systems/rnas/4FAW

>  <Rbt.Executable>
rbdock ($Id: //depot/dev/client3/rdock/2013.1/src/exe/rbdock.cxx#4 $)

>  <Rbt.Library>
libRbt.so (2013.1, Build901 2013/11/27)

>  <Rbt.Parameter_File>
/export/apps/rDock/src/rDock_2013.1_src/data/scripts/dock_solv.prm

>  <Rbt.Receptor>
prm/blind_docking_40.prm

>  <SCORE>
-10.893

>  <SCORE.INTER>
-3.95465

>  <SCORE.INTER.CONST>
1

>  <SCORE.INTER.POLAR>
0

>  <SCORE.INTER.ROT>
11

>  <SCORE.INTER.SOLV>
13.7055

>  <SCORE.INTER.VDW>
-18.1383

>  <SCORE.INTER.norm>
-0.282475

>  <SCORE.INTRA>
-6.93831

>  <SCORE.INTRA.DIHEDRAL>
-16.7715

>  <SCORE.INTRA.DIHEDRAL.0>
19.1003

>  <SCORE.INTRA.POLAR>
0

>  <SCORE.INTRA.POLAR.0>
0

>  <SCORE.INTRA.REPUL>
0

>  <SCORE.INTRA.REPUL.0>
0

>  <SCORE.INTRA.SOLV>
4.31926

>  <SCORE.INTRA.SOLV.lig_0>
-47.5333

>  <SCORE.INTRA.VDW>
-0.712184

>  <SCORE.INTRA.VDW.0>
-0.287413

>  <SCORE.INTRA.norm>
-0.495594

>  <SCORE.RESTR>
0

>  <SCORE.RESTR.CAVITY>
0

>  <SCORE.RESTR.norm>
0

>  <SCORE.SYSTEM>
0

>  <SCORE.SYSTEM.CONST>
0

>  <SCORE.SYSTEM.DIHEDRAL>
0

>  <SCORE.SYSTEM.SOLV>
0

>  <SCORE.SYSTEM.norm>
0

>  <SCORE.heavy>
14

>  <SCORE.norm>
-0.778069

>  <RMSD>
54.905

$$$$
ligand
 OpenBabel11021811493D
libRbt.so/2013.1/901 2013/11/27
 14 13  0  0  0  0  0  0  0  0999 V2000
    6.5035   19.4689   24.1556 N   0  0  0  0  0  0  0  0  0  0  0  0
    7.1482   20.5323   24.8942 C   0  0  0  0  0  0  0  0  0  0  0  0
    8.6035   20.1234   25.2016 C   0  0  0  0  0  0  0  0  0  0  0  0
    8.7268   18.8775   26.0924 C   0  0  0  0  0  0  0  0  0  0  0  0
   10.0881   18.5385   26.5346 N   0  0  0  0  0  0  0  0  0  0  0  0
   10.4147   17.3333   27.2947 C   0  0  0  0  0  0  0  0  0  0  0  0
   10.5156   16.0864   26.4223 C   0  0  0  0  0  0  0  0  0  0  0  0
   10.8445   14.8127   27.2079 C   0  0  0  0  0  0  0  0  0  0  0  0
   11.1076   13.6185   26.2830 C   0  0  0  0  0  0  0  0  0  0  0  0
    9.9444   13.4058   25.4243 N   0  0  0  0  0  0  0  0  0  0  0  0
    9.6183   12.1366   24.7714 C   0  0  0  0  0  0  0  0  0  0  0  0
    8.9307   11.1405   25.7155 C   0  0  0  0  0  0  0  0  0  0  0  0
    7.5653   11.6593   26.1781 C   0  0  0  0  0  0  0  0  0  0  0  0
    6.9602   10.6885   27.0852 N   0  0  0  0  0  0  0  0  0  0  0  0
  1  2  1  0  0  0  0
  2  3  1  0  0  0  0
  3  4  1  0  0  0  0
  4  5  1  0  0  0  0
  5  6  1  0  0  0  0
  6  7  1  0  0  0  0
  7  8  1  0  0  0  0
  8  9  1  0  0  0  0
  9 10  1  0  0  0  0
 10 11  1  0  0  0  0
 11 12  1  0  0  0  0
 12 13  1  0  0  0  0
 13 14  1  0  0  0  0
M  END
>  <CHROM.1>
-62.60213445,-173.44213044,-174.91334001,79.56993667,-179.45437999,-172.95956242
-57.07956845,-157.45459615,80.16617825,64.34996871,-179.25014899,9.06967373
15.60162609,25.94726172,1.64794732,-0.35971583,-0.05944060

>  <Name>
ligand

>  <RI>
0

>  <Rbt.Current_Directory>
/home/itssahil/PROJECTS/Mol_Feturizer/New_Systems/rnas/4FAW

>  <Rbt.Executable>
rbdock ($Id: //depot/dev/client3/rdock/2013.1/src/exe/rbdock.cxx#4 $)

>  <Rbt.Library>
libRbt.so (2013.1, Build901 2013/11/27)

>  <Rbt.Parameter_File>
/export/apps/rDock/src/rDock_2013.1_src/data/scripts/dock_solv.prm

>  <Rbt.Receptor>
prm/blind_docking_40.prm

>  <SCORE>
-11.9925

>  <SCORE.INTER>
-2.67815

>  <SCORE.INTER.CONST>
1

>  <SCORE.INTER.POLAR>
0

>  <SCORE.INTER.ROT>
11

>  <SCORE.INTER.SOLV>
11.4557

>  <SCORE.INTER.VDW>
-16.5373

>  <SCORE.INTER.norm>
-0.191296

>  <SCORE.INTRA>
-9.31435

>  <SCORE.INTRA.DIHEDRAL>
-17.6156

>  <SCORE.INTRA.DIHEDRAL.0>
19.1003

>  <SCORE.INTRA.POLAR>
0

>  <SCORE.INTRA.POLAR.0>
0

>  <SCORE.INTRA.REPUL>
0

>  <SCORE.INTRA.REPUL.0>
0

>  <SCORE.INTRA.SOLV>
-0.0254045

>  <SCORE.INTRA.SOLV.lig_0>
-47.5333

>  <SCORE.INTRA.VDW>
-0.49387

>  <SCORE.INTRA.VDW.0>
-0.287413

>  <SCORE.INTRA.norm>
-0.665311

>  <SCORE.RESTR>
0

>  <SCORE.RESTR.CAVITY>
0

>  <SCORE.RESTR.norm>
0

>  <SCORE.SYSTEM>
0

>  <SCORE.SYSTEM.CONST>
0

>  <SCORE.SYSTEM.DIHEDRAL>
0

>  <SCORE.SYSTEM.SOLV>
0

>  <SCORE.SYSTEM.norm>
0

>  <SCORE.heavy>
14

>  <SCORE.norm>
-0.856607

>  <RMSD>
54.908

$$$$
ligand
 OpenBabel11021811493D
libRbt.so/2013.1/901 2013/11/27
 14 13  0  0  0  0  0  0  0  0999 V2000
    8.6230   10.7803   26.2970 N   0  0  0  0  0  0  0  0  0  0  0  0
    9.0791   11.9953   25.6583 C   0  0  0  0  0  0  0  0  0  0  0  0
   10.6033   11.9083   25.4375 C   0  0  0  0  0  0  0  0  0  0  0  0
   11.2418   13.2239   24.9659 C   0  0  0  0  0  0  0  0  0  0  0  0
   11.1634   14.3486   25.9106 N   0  0  0  0  0  0  0  0  0  0  0  0
   10.0375   15.2791   25.9683 C   0  0  0  0  0  0  0  0  0  0  0  0
   10.1098   16.2308   27.1580 C   0  0  0  0  0  0  0  0  0  0  0  0
    8.9139   17.1836   27.2554 C   0  0  0  0  0  0  0  0  0  0  0  0
    8.9631   18.2794   26.1841 C   0  0  0  0  0  0  0  0  0  0  0  0
    7.7401   19.0765   26.2506 N   0  0  0  0  0  0  0  0  0  0  0  0
    7.2495   19.9318   25.1683 C   0  0  0  0  0  0  0  0  0  0  0  0
    6.7110   19.1316   23.9742 C   0  0  0  0  0  0  0  0  0  0  0  0
    6.2467   20.0568   22.8445 C   0  0  0  0  0  0  0  0  0  0  0  0
    5.6946   19.2541   21.7572 N   0  0  0  0  0  0  0  0  0  0  0  0
  1  2  1  0  0  0  0
  2  3  1  0  0  0  0
  3  4  1  0  0  0  0
  4  5  1  0  0  0  0
  5  6  1  0  0  0  0
  6  7  1  0  0  0  0
  7  8  1  0  0  0  0
  8  9  1  0  0  0  0
  9 10  1  0  0  0  0
 10 11  1  0  0  0  0
 11 12  1  0  0  0  0
 12 13  1  0  0  0  0
 13 14  1  0  0  0  0
M  END
>  <CHROM.1>
-171.00368515,63.69202823,-87.85887656,171.93060551,-178.23376165,-73.04444355
174.82151628,-161.03372433,71.15222260,-178.24782940,-177.71912029,8.74136646
16.19157245,25.34512715,0.85387888,0.88955514,-2.80771711

>  <Name>
ligand

>  <RI>
0

>  <Rbt.Current_Directory>
/home/itssahil/PROJECTS/Mol_Feturizer/New_Systems/rnas/4FAW

>  <Rbt.Executable>
rbdock ($Id: //depot/dev/client3/rdock/2013.1/src/exe/rbdock.cxx#4 $)

>  <Rbt.Library>
libRbt.so (2013.1, Build901 2013/11/27)

>  <Rbt.Parameter_File>
/export/apps/rDock/src/rDock_2013.1_src/data/scripts/dock_solv.prm

>  <Rbt.Receptor>
prm/blind_docking_40.prm

>  <SCORE>
-10.06

>  <SCORE.INTER>
-0.469098

>  <SCORE.INTER.CONST>
1

>  <SCORE.INTER.POLAR>
0

>  <SCORE.INTER.ROT>
11

>  <SCORE.INTER.SOLV>
12.6044

>  <SCORE.INTER.VDW>
-15.4475

>  <SCORE.INTER.norm>
-0.033507

>  <SCORE.INTRA>
-9.59092

>  <SCORE.INTRA.DIHEDRAL>
-16.9606

>  <SCORE.INTRA.DIHEDRAL.0>
19.1003

>  <SCORE.INTRA.POLAR>
0

>  <SCORE.INTRA.POLAR.0>
0

>  <SCORE.INTRA.REPUL>
0

>  <SCORE.INTRA.REPUL.0>
0

>  <SCORE.INTRA.SOLV>
-1.01406

>  <SCORE.INTRA.SOLV.lig_0>
-47.5333

>  <SCORE.INTRA.VDW>
-0.603575

>  <SCORE.INTRA.VDW.0>
-0.287413

>  <SCORE.INTRA.norm>
-0.685066

>  <SCORE.RESTR>
0

>  <SCORE.RESTR.CAVITY>
0

>  <SCORE.RESTR.norm>
0

>  <SCORE.SYSTEM>
0

>  <SCORE.SYSTEM.CONST>
0

>  <SCORE.SYSTEM.DIHEDRAL>
0

>  <SCORE.SYSTEM.SOLV>
0

>  <SCORE.SYSTEM.norm>
0

>  <SCORE.heavy>
14

>  <SCORE.norm>
-0.718573

>  <RMSD>
54.972

$$$$
ligand
 OpenBabel11021811493D
libRbt.so/2013.1/901 2013/11/27
 14 13  0  0  0  0  0  0  0  0999 V2000
   10.8181   16.2474   38.3165 N   0  0  0  0  0  0  0  0  0  0  0  0
   11.8223   15.3126   37.8582 C   0  0  0  0  0  0  0  0  0  0  0  0
   11.2682   14.5277   36.6514 C   0  0  0  0  0  0  0  0  0  0  0  0
   12.2446   13.4865   36.0826 C   0  0  0  0  0  0  0  0  0  0  0  0
   13.5288   14.0121   35.5946 N   0  0  0  0  0  0  0  0  0  0  0  0
   14.3254   13.3631   34.5549 C   0  0  0  0  0  0  0  0  0  0  0  0
   14.8478   11.9920   34.9716 C   0  0  0  0  0  0  0  0  0  0  0  0
   16.0619   12.0553   35.9039 C   0  0  0  0  0  0  0  0  0  0  0  0
   16.3317   10.7103   36.5888 C   0  0  0  0  0  0  0  0  0  0  0  0
   16.6960    9.7179   35.5798 N   0  0  0  0  0  0  0  0  0  0  0  0
   16.6472    8.2695   35.7877 C   0  0  0  0  0  0  0  0  0  0  0  0
   17.7881    7.5271   35.0780 C   0  0  0  0  0  0  0  0  0  0  0  0
   17.6987    6.0146   35.3065 C   0  0  0  0  0  0  0  0  0  0  0  0
   18.7472    5.3464   34.5414 N   0  0  0  0  0  0  0  0  0  0  0  0
  1  2  1  0  0  0  0
  2  3  1  0  0  0  0
  3  4  1  0  0  0  0
  4  5  1  0  0  0  0
  5  6  1  0  0  0  0
  6  7  1  0  0  0  0
  7  8  1  0  0  0  0
  8  9  1  0  0  0  0
  9 10  1  0  0  0  0
 10 11  1  0  0  0  0
 11 12  1  0  0  0  0
 12 13  1  0  0  0  0
 13 14  1  0  0  0  0
M  END
>  <CHROM.1>
-179.36247595,-59.88024146,-153.22919944,-64.56104951,-77.94626250,165.04850148
64.62711026,-161.52951089,-143.81226150,-179.49236901,176.20797187,14.91612497
11.32732631,35.91538202,2.62343294,0.83147646,-0.68865146

>  <Name>
ligand

>  <RI>
0

>  <Rbt.Current_Directory>
/home/itssahil/PROJECTS/Mol_Feturizer/New_Systems/rnas/4FAW

>  <Rbt.Executable>
rbdock ($Id: //depot/dev/client3/rdock/2013.1/src/exe/rbdock.cxx#4 $)

>  <Rbt.Library>
libRbt.so (2013.1, Build901 2013/11/27)

>  <Rbt.Parameter_File>
/export/apps/rDock/src/rDock_2013.1_src/data/scripts/dock_solv.prm

>  <Rbt.Receptor>
prm/blind_docking_80.prm

>  <SCORE>
-14.7373

>  <SCORE.INTER>
-6.05563

>  <SCORE.INTER.CONST>
1

>  <SCORE.INTER.POLAR>
0

>  <SCORE.INTER.ROT>
11

>  <SCORE.INTER.SOLV>
10.1018

>  <SCORE.INTER.VDW>
-18.3377

>  <SCORE.INTER.norm>
-0.432545

>  <SCORE.INTRA>
-8.68162

>  <SCORE.INTRA.DIHEDRAL>
-15.3743

>  <SCORE.INTRA.DIHEDRAL.0>
19.1003

>  <SCORE.INTRA.POLAR>
0

>  <SCORE.INTRA.POLAR.0>
0

>  <SCORE.INTRA.REPUL>
0

>  <SCORE.INTRA.REPUL.0>
0

>  <SCORE.INTRA.SOLV>
-0.48849

>  <SCORE.INTRA.SOLV.lig_0>
-47.5333

>  <SCORE.INTRA.VDW>
-0.750243

>  <SCORE.INTRA.VDW.0>
-0.287413

>  <SCORE.INTRA.norm>
-0.620116

>  <SCORE.RESTR>
0

>  <SCORE.RESTR.CAVITY>
0

>  <SCORE.RESTR.norm>
0

>  <SCORE.SYSTEM>
0

>  <SCORE.SYSTEM.CONST>
0

>  <SCORE.SYSTEM.DIHEDRAL>
0

>  <SCORE.SYSTEM.SOLV>
0

>  <SCORE.SYSTEM.norm>
0

>  <SCORE.heavy>
14

>  <SCORE.norm>
-1.05266

>  <RMSD>
54.976

$$$$
ligand
 OpenBabel11021811493D
libRbt.so/2013.1/901 2013/11/27
 14 13  0  0  0  0  0  0  0  0999 V2000
   10.1895   25.9099   21.3492 N   0  0  0  0  0  0  0  0  0  0  0  0
   11.1760   25.4013   22.2767 C   0  0  0  0  0  0  0  0  0  0  0  0
   12.5544   25.3768   21.5846 C   0  0  0  0  0  0  0  0  0  0  0  0
   13.6821   24.8078   22.4595 C   0  0  0  0  0  0  0  0  0  0  0  0
   13.4913   23.4283   22.9330 N   0  0  0  0  0  0  0  0  0  0  0  0
   13.6338   23.0264   24.3313 C   0  0  0  0  0  0  0  0  0  0  0  0
   12.7750   21.8200   24.6962 C   0  0  0  0  0  0  0  0  0  0  0  0
   11.2745   22.0494   24.4881 C   0  0  0  0  0  0  0  0  0  0  0  0
   10.4426   20.8334   24.9125 C   0  0  0  0  0  0  0  0  0  0  0  0
    9.0426   21.0571   24.5580 N   0  0  0  0  0  0  0  0  0  0  0  0
    7.9908   20.0437   24.6592 C   0  0  0  0  0  0  0  0  0  0  0  0
    7.3734   19.9640   26.0623 C   0  0  0  0  0  0  0  0  0  0  0  0
    6.3181   18.8564   26.1470 C   0  0  0  0  0  0  0  0  0  0  0  0
    6.9750   17.5548   26.0731 N   0  0  0  0  0  0  0  0  0  0  0  0
  1  2  1  0  0  0  0
  2  3  1  0  0  0  0
  3  4  1  0  0  0  0
  4  5  1  0  0  0  0
  5  6  1  0  0  0  0
  6  7  1  0  0  0  0
  7  8  1  0  0  0  0
  8  9  1  0  0  0  0
  9 10  1  0  0  0  0
 10 11  1  0  0  0  0
 11 12  1  0  0  0  0
 12 13  1  0  0  0  0
 13 14  1  0  0  0  0
M  END
>  <CHROM.1>
-178.03724104,59.11024801,-129.51124664,151.76206791,-59.86659417,-177.96832473
-173.97205704,171.97534921,85.18867570,-177.68847099,69.87625248,10.49445144
22.15214772,24.03803906,0.89270963,-0.10037474,-0.61346907

>  <Name>
ligand

>  <RI>
0

>  <Rbt.Current_Directory>
/home/itssahil/PROJECTS/Mol_Feturizer/New_Systems/rnas/4FAW

>  <Rbt.Executable>
rbdock ($Id: //depot/dev/client3/rdock/2013.1/src/exe/rbdock.cxx#4 $)

>  <Rbt.Library>
libRbt.so (2013.1, Build901 2013/11/27)

>  <Rbt.Parameter_File>
/export/apps/rDock/src/rDock_2013.1_src/data/scripts/dock_solv.prm

>  <Rbt.Receptor>
prm/blind_docking_40.prm

>  <SCORE>
-13.6649

>  <SCORE.INTER>
-4.32431

>  <SCORE.INTER.CONST>
1

>  <SCORE.INTER.POLAR>
0

>  <SCORE.INTER.ROT>
11

>  <SCORE.INTER.SOLV>
14.9316

>  <SCORE.INTER.VDW>
-18.7934

>  <SCORE.INTER.norm>
-0.308879

>  <SCORE.INTRA>
-9.34061

>  <SCORE.INTRA.DIHEDRAL>
-16.3735

>  <SCORE.INTRA.DIHEDRAL.0>
19.1003

>  <SCORE.INTRA.POLAR>
0

>  <SCORE.INTRA.POLAR.0>
0

>  <SCORE.INTRA.REPUL>
0

>  <SCORE.INTRA.REPUL.0>
0

>  <SCORE.INTRA.SOLV>
-0.0781277

>  <SCORE.INTRA.SOLV.lig_0>
-47.5333

>  <SCORE.INTRA.VDW>
-1.11477

>  <SCORE.INTRA.VDW.0>
-0.287413

>  <SCORE.INTRA.norm>
-0.667186

>  <SCORE.RESTR>
0

>  <SCORE.RESTR.CAVITY>
0

>  <SCORE.RESTR.norm>
0

>  <SCORE.SYSTEM>
0

>  <SCORE.SYSTEM.CONST>
0

>  <SCORE.SYSTEM.DIHEDRAL>
0

>  <SCORE.SYSTEM.SOLV>
0

>  <SCORE.SYSTEM.norm>
0

>  <SCORE.heavy>
14

>  <SCORE.norm>
-0.976065

>  <RMSD>
54.988

$$$$
ligand
 OpenBabel11021811493D
libRbt.so/2013.1/901 2013/11/27
 14 13  0  0  0  0  0  0  0  0999 V2000
   -1.9718    7.2330    7.6424 N   0  0  0  0  0  0  0  0  0  0  0  0
   -0.9420    7.3481    8.6516 C   0  0  0  0  0  0  0  0  0  0  0  0
   -1.6060    7.5278   10.0323 C   0  0  0  0  0  0  0  0  0  0  0  0
   -0.6073    7.6641   11.1921 C   0  0  0  0  0  0  0  0  0  0  0  0
    0.2647    8.8480   11.1507 N   0  0  0  0  0  0  0  0  0  0  0  0
    1.7156    8.7781   10.9869 C   0  0  0  0  0  0  0  0  0  0  0  0
    2.1381    8.3348    9.5900 C   0  0  0  0  0  0  0  0  0  0  0  0
    3.6505    8.1424    9.4385 C   0  0  0  0  0  0  0  0  0  0  0  0
    4.0357    7.7100    8.0188 C   0  0  0  0  0  0  0  0  0  0  0  0
    3.7978    8.8166    7.0944 N   0  0  0  0  0  0  0  0  0  0  0  0
    2.5209    9.0783    6.4276 C   0  0  0  0  0  0  0  0  0  0  0  0
    2.4937    8.5793    4.9762 C   0  0  0  0  0  0  0  0  0  0  0  0
    2.6788    7.0601    4.9033 C   0  0  0  0  0  0  0  0  0  0  0  0
    2.5743    6.6256    3.5135 N   0  0  0  0  0  0  0  0  0  0  0  0
  1  2  1  0  0  0  0
  2  3  1  0  0  0  0
  3  4  1  0  0  0  0
  4  5  1  0  0  0  0
  5  6  1  0  0  0  0
  6  7  1  0  0  0  0
  7  8  1  0  0  0  0
  8  9  1  0  0  0  0
  9 10  1  0  0  0  0
 10 11  1  0  0  0  0
 11 12  1  0  0  0  0
 12 13  1  0  0  0  0
 13 14  1  0  0  0  0
M  END
>  <CHROM.1>
-179.91349713,63.78015292,-114.87545743,70.14293595,-175.10443260,-179.46818822
68.71744688,-87.41689219,-100.26067552,62.01261763,176.99352763,1.48178233
7.98190588,8.11591485,2.15054180,0.22511919,1.37615960

>  <Name>
ligand

>  <RI>
0

>  <Rbt.Current_Directory>
/home/itssahil/PROJECTS/Mol_Feturizer/New_Systems/rnas/4FAW

>  <Rbt.Executable>
rbdock ($Id: //depot/dev/client3/rdock/2013.1/src/exe/rbdock.cxx#4 $)

>  <Rbt.Library>
libRbt.so (2013.1, Build901 2013/11/27)

>  <Rbt.Parameter_File>
/export/apps/rDock/src/rDock_2013.1_src/data/scripts/dock_solv.prm

>  <Rbt.Receptor>
prm/blind_docking_20.prm

>  <SCORE>
-5.79939

>  <SCORE.INTER>
3.27768

>  <SCORE.INTER.CONST>
1

>  <SCORE.INTER.POLAR>
0

>  <SCORE.INTER.ROT>
11

>  <SCORE.INTER.SOLV>
6.98539

>  <SCORE.INTER.VDW>
-11.0767

>  <SCORE.INTER.norm>
0.23412

>  <SCORE.INTRA>
-9.07707

>  <SCORE.INTRA.DIHEDRAL>
-15.9357

>  <SCORE.INTRA.DIHEDRAL.0>
19.1003

>  <SCORE.INTRA.POLAR>
0

>  <SCORE.INTRA.POLAR.0>
0

>  <SCORE.INTRA.REPUL>
0

>  <SCORE.INTRA.REPUL.0>
0

>  <SCORE.INTRA.SOLV>
-0.418542

>  <SCORE.INTRA.SOLV.lig_0>
-47.5333

>  <SCORE.INTRA.VDW>
-0.899939

>  <SCORE.INTRA.VDW.0>
-0.287413

>  <SCORE.INTRA.norm>
-0.648362

>  <SCORE.RESTR>
0

>  <SCORE.RESTR.CAVITY>
0

>  <SCORE.RESTR.norm>
0

>  <SCORE.SYSTEM>
0

>  <SCORE.SYSTEM.CONST>
0

>  <SCORE.SYSTEM.DIHEDRAL>
0

>  <SCORE.SYSTEM.SOLV>
0

>  <SCORE.SYSTEM.norm>
0

>  <SCORE.heavy>
14

>  <SCORE.norm>
-0.414242

>  <RMSD>
54.998

$$$$
ligand
 OpenBabel11021811493D
libRbt.so/2013.1/901 2013/11/27
 14 13  0  0  0  0  0  0  0  0999 V2000
    9.1070   11.8654   26.7715 N   0  0  0  0  0  0  0  0  0  0  0  0
    9.1216   11.7565   25.3293 C   0  0  0  0  0  0  0  0  0  0  0  0
   10.4922   12.2277   24.8012 C   0  0  0  0  0  0  0  0  0  0  0  0
   10.7615   13.7256   25.0134 C   0  0  0  0  0  0  0  0  0  0  0  0
   10.8557   14.1674   26.4133 N   0  0  0  0  0  0  0  0  0  0  0  0
   10.9470   15.5702   26.8139 C   0  0  0  0  0  0  0  0  0  0  0  0
    9.6570   16.3463   26.5688 C   0  0  0  0  0  0  0  0  0  0  0  0
    9.7606   17.8346   26.9173 C   0  0  0  0  0  0  0  0  0  0  0  0
    8.4710   18.5943   26.5843 C   0  0  0  0  0  0  0  0  0  0  0  0
    8.2253   18.5234   25.1455 N   0  0  0  0  0  0  0  0  0  0  0  0
    7.0920   19.1549   24.4671 C   0  0  0  0  0  0  0  0  0  0  0  0
    7.3949   20.5886   24.0101 C   0  0  0  0  0  0  0  0  0  0  0  0
    7.5699   21.5315   25.2051 C   0  0  0  0  0  0  0  0  0  0  0  0
    7.7079   22.9029   24.7239 N   0  0  0  0  0  0  0  0  0  0  0  0
  1  2  1  0  0  0  0
  2  3  1  0  0  0  0
  3  4  1  0  0  0  0
  4  5  1  0  0  0  0
  5  6  1  0  0  0  0
  6  7  1  0  0  0  0
  7  8  1  0  0  0  0
  8  9  1  0  0  0  0
  9 10  1  0  0  0  0
 10 11  1  0  0  0  0
 11 12  1  0  0  0  0
 12 13  1  0  0  0  0
 13 14  1  0  0  0  0
M  END
>  <CHROM.1>
-66.64349632,64.51129214,-172.42547726,69.31607551,-177.04833380,176.81757152
-62.29536707,-179.02948156,89.63739924,-67.66490353,-173.77696915,9.08315763
16.77061325,25.62599853,1.15664838,0.80643815,-2.94265657

>  <Name>
ligand

>  <RI>
0

>  <Rbt.Current_Directory>
/home/itssahil/PROJECTS/Mol_Feturizer/New_Systems/rnas/4FAW

>  <Rbt.Executable>
rbdock ($Id: //depot/dev/client3/rdock/2013.1/src/exe/rbdock.cxx#4 $)

>  <Rbt.Library>
libRbt.so (2013.1, Build901 2013/11/27)

>  <Rbt.Parameter_File>
/export/apps/rDock/src/rDock_2013.1_src/data/scripts/dock_solv.prm

>  <Rbt.Receptor>
prm/blind_docking_80.prm

>  <SCORE>
-11.2038

>  <SCORE.INTER>
-2.77369

>  <SCORE.INTER.CONST>
1

>  <SCORE.INTER.POLAR>
0

>  <SCORE.INTER.ROT>
11

>  <SCORE.INTER.SOLV>
12.9735

>  <SCORE.INTER.VDW>
-17.107

>  <SCORE.INTER.norm>
-0.19812

>  <SCORE.INTRA>
-8.43013

>  <SCORE.INTRA.DIHEDRAL>
-17.6927

>  <SCORE.INTRA.DIHEDRAL.0>
19.1003

>  <SCORE.INTRA.POLAR>
0

>  <SCORE.INTRA.POLAR.0>
0

>  <SCORE.INTRA.REPUL>
0

>  <SCORE.INTRA.REPUL.0>
0

>  <SCORE.INTRA.SOLV>
2.2089

>  <SCORE.INTRA.SOLV.lig_0>
-47.5333

>  <SCORE.INTRA.VDW>
-0.688212

>  <SCORE.INTRA.VDW.0>
-0.287413

>  <SCORE.INTRA.norm>
-0.602152

>  <SCORE.RESTR>
0

>  <SCORE.RESTR.CAVITY>
0

>  <SCORE.RESTR.norm>
0

>  <SCORE.SYSTEM>
0

>  <SCORE.SYSTEM.CONST>
0

>  <SCORE.SYSTEM.DIHEDRAL>
0

>  <SCORE.SYSTEM.SOLV>
0

>  <SCORE.SYSTEM.norm>
0

>  <SCORE.heavy>
14

>  <SCORE.norm>
-0.800273

>  <RMSD>
55.013

$$$$
ligand
 OpenBabel11021811493D
libRbt.so/2013.1/901 2013/11/27
 14 13  0  0  0  0  0  0  0  0999 V2000
   11.1008   13.9551   26.0318 N   0  0  0  0  0  0  0  0  0  0  0  0
   10.1744   15.0573   25.8937 C   0  0  0  0  0  0  0  0  0  0  0  0
    9.2306   15.0796   27.1136 C   0  0  0  0  0  0  0  0  0  0  0  0
    8.0949   16.1089   27.0054 C   0  0  0  0  0  0  0  0  0  0  0  0
    8.5036   17.5211   27.0536 N   0  0  0  0  0  0  0  0  0  0  0  0
    7.5585   18.6362   27.0702 C   0  0  0  0  0  0  0  0  0  0  0  0
    7.1617   19.1032   25.6735 C   0  0  0  0  0  0  0  0  0  0  0  0
    7.8777   20.3823   25.2276 C   0  0  0  0  0  0  0  0  0  0  0  0
    9.3921   20.1791   25.1004 C   0  0  0  0  0  0  0  0  0  0  0  0
   10.0134   21.4286   24.6663 N   0  0  0  0  0  0  0  0  0  0  0  0
   11.4582   21.6509   24.5872 C   0  0  0  0  0  0  0  0  0  0  0  0
   11.8205   23.1118   24.2858 C   0  0  0  0  0  0  0  0  0  0  0  0
   13.3379   23.3051   24.1973 C   0  0  0  0  0  0  0  0  0  0  0  0
   13.8345   22.6855   22.9723 N   0  0  0  0  0  0  0  0  0  0  0  0
  1  2  1  0  0  0  0
  2  3  1  0  0  0  0
  3  4  1  0  0  0  0
  4  5  1  0  0  0  0
  5  6  1  0  0  0  0
  6  7  1  0  0  0  0
  7  8  1  0  0  0  0
  8  9  1  0  0  0  0
  9 10  1  0  0  0  0
 10 11  1  0  0  0  0
 11 12  1  0  0  0  0
 12 13  1  0  0  0  0
 13 14  1  0  0  0  0
M  END
>  <CHROM.1>
-173.33894399,-68.07883288,-175.06836117,-88.14226315,-101.95806208,64.04429544
179.67748190,172.66244419,-172.10524710,-179.47183465,71.40720795,9.96811376
19.15759120,25.49145932,-2.00496382,0.29806977,-0.22795944

>  <Name>
ligand

>  <RI>
0

>  <Rbt.Current_Directory>
/home/itssahil/PROJECTS/Mol_Feturizer/New_Systems/rnas/4FAW

>  <Rbt.Executable>
rbdock ($Id: //depot/dev/client3/rdock/2013.1/src/exe/rbdock.cxx#4 $)

>  <Rbt.Library>
libRbt.so (2013.1, Build901 2013/11/27)

>  <Rbt.Parameter_File>
/export/apps/rDock/src/rDock_2013.1_src/data/scripts/dock_solv.prm

>  <Rbt.Receptor>
prm/blind_docking_40.prm

>  <SCORE>
-7.98667

>  <SCORE.INTER>
-0.966343

>  <SCORE.INTER.CONST>
1

>  <SCORE.INTER.POLAR>
0

>  <SCORE.INTER.ROT>
11

>  <SCORE.INTER.SOLV>
20.0075

>  <SCORE.INTER.VDW>
-18.2467

>  <SCORE.INTER.norm>
-0.0690245

>  <SCORE.INTRA>
-7.02033

>  <SCORE.INTRA.DIHEDRAL>
-13.11

>  <SCORE.INTRA.DIHEDRAL.0>
19.1003

>  <SCORE.INTRA.POLAR>
0

>  <SCORE.INTRA.POLAR.0>
0

>  <SCORE.INTRA.REPUL>
0

>  <SCORE.INTRA.REPUL.0>
0

>  <SCORE.INTRA.SOLV>
0.158446

>  <SCORE.INTRA.SOLV.lig_0>
-47.5333

>  <SCORE.INTRA.VDW>
-0.544566

>  <SCORE.INTRA.VDW.0>
-0.287413

>  <SCORE.INTRA.norm>
-0.501452

>  <SCORE.RESTR>
0

>  <SCORE.RESTR.CAVITY>
0

>  <SCORE.RESTR.norm>
0

>  <SCORE.SYSTEM>
0

>  <SCORE.SYSTEM.CONST>
0

>  <SCORE.SYSTEM.DIHEDRAL>
0

>  <SCORE.SYSTEM.SOLV>
0

>  <SCORE.SYSTEM.norm>
0

>  <SCORE.heavy>
14

>  <SCORE.norm>
-0.570477

>  <RMSD>
55.018

$$$$
ligand
 OpenBabel11021811493D
libRbt.so/2013.1/901 2013/11/27
 14 13  0  0  0  0  0  0  0  0999 V2000
    6.0915   19.6560   23.7519 N   0  0  0  0  0  0  0  0  0  0  0  0
    7.1304   20.6619   23.7853 C   0  0  0  0  0  0  0  0  0  0  0  0
    8.3493   20.1036   24.5483 C   0  0  0  0  0  0  0  0  0  0  0  0
    9.5416   21.0708   24.6131 C   0  0  0  0  0  0  0  0  0  0  0  0
   10.7473   20.5572   25.2809 N   0  0  0  0  0  0  0  0  0  0  0  0
   11.9314   21.3712   25.5498 C   0  0  0  0  0  0  0  0  0  0  0  0
   12.6144   21.8691   24.2801 C   0  0  0  0  0  0  0  0  0  0  0  0
   13.7360   22.8794   24.5425 C   0  0  0  0  0  0  0  0  0  0  0  0
   14.2389   23.5292   23.2480 C   0  0  0  0  0  0  0  0  0  0  0  0
   13.1311   24.2195   22.5908 N   0  0  0  0  0  0  0  0  0  0  0  0
   12.3386   25.2859   23.2059 C   0  0  0  0  0  0  0  0  0  0  0  0
   10.9187   24.8350   23.5758 C   0  0  0  0  0  0  0  0  0  0  0  0
   10.1013   25.9888   24.1660 C   0  0  0  0  0  0  0  0  0  0  0  0
    8.7422   25.5301   24.4378 N   0  0  0  0  0  0  0  0  0  0  0  0
  1  2  1  0  0  0  0
  2  3  1  0  0  0  0
  3  4  1  0  0  0  0
  4  5  1  0  0  0  0
  5  6  1  0  0  0  0
  6  7  1  0  0  0  0
  7  8  1  0  0  0  0
  8  9  1  0  0  0  0
  9 10  1  0  0  0  0
 10 11  1  0  0  0  0
 11 12  1  0  0  0  0
 12 13  1  0  0  0  0
 13 14  1  0  0  0  0
M  END
>  <CHROM.1>
178.19945038,-177.43580510,-174.01351818,-63.56250033,171.93866821,-170.52437286
59.44862583,58.12970035,-107.97783297,-177.78675618,177.13567074,10.68703848
22.68276537,24.11263048,2.48298190,0.01864397,2.95412705

>  <Name>
ligand

>  <RI>
0

>  <Rbt.Current_Directory>
/home/itssahil/PROJECTS/Mol_Feturizer/New_Systems/rnas/4FAW

>  <Rbt.Executable>
rbdock ($Id: //depot/dev/client3/rdock/2013.1/src/exe/rbdock.cxx#4 $)

>  <Rbt.Library>
libRbt.so (2013.1, Build901 2013/11/27)

>  <Rbt.Parameter_File>
/export/apps/rDock/src/rDock_2013.1_src/data/scripts/dock_solv.prm

>  <Rbt.Receptor>
prm/blind_docking_40.prm

>  <SCORE>
-14.8834

>  <SCORE.INTER>
-5.29662

>  <SCORE.INTER.CONST>
1

>  <SCORE.INTER.POLAR>
0

>  <SCORE.INTER.ROT>
11

>  <SCORE.INTER.SOLV>
15.589

>  <SCORE.INTER.VDW>
-19.6607

>  <SCORE.INTER.norm>
-0.37833

>  <SCORE.INTRA>
-9.58673

>  <SCORE.INTRA.DIHEDRAL>
-17.2739

>  <SCORE.INTRA.DIHEDRAL.0>
19.1003

>  <SCORE.INTRA.POLAR>
0

>  <SCORE.INTRA.POLAR.0>
0

>  <SCORE.INTRA.REPUL>
0

>  <SCORE.INTRA.REPUL.0>
0

>  <SCORE.INTRA.SOLV>
-0.875742

>  <SCORE.INTRA.SOLV.lig_0>
-47.5333

>  <SCORE.INTRA.VDW>
-0.511919

>  <SCORE.INTRA.VDW.0>
-0.287413

>  <SCORE.INTRA.norm>
-0.684767

>  <SCORE.RESTR>
0

>  <SCORE.RESTR.CAVITY>
0

>  <SCORE.RESTR.norm>
0

>  <SCORE.SYSTEM>
0

>  <SCORE.SYSTEM.CONST>
0

>  <SCORE.SYSTEM.DIHEDRAL>
0

>  <SCORE.SYSTEM.SOLV>
0

>  <SCORE.SYSTEM.norm>
0

>  <SCORE.heavy>
14

>  <SCORE.norm>
-1.0631

>  <RMSD>
55.052

$$$$
ligand
 OpenBabel11021811493D
libRbt.so/2013.1/901 2013/11/27
 14 13  0  0  0  0  0  0  0  0999 V2000
   18.6355    6.7854   34.4437 N   0  0  0  0  0  0  0  0  0  0  0  0
   18.1396    7.3087   35.6977 C   0  0  0  0  0  0  0  0  0  0  0  0
   16.5984    7.2439   35.6977 C   0  0  0  0  0  0  0  0  0  0  0  0
   15.9300    8.2812   34.7822 C   0  0  0  0  0  0  0  0  0  0  0  0
   16.0040    9.6784   35.2362 N   0  0  0  0  0  0  0  0  0  0  0  0
   16.6136   10.7518   34.4532 C   0  0  0  0  0  0  0  0  0  0  0  0
   16.2828   12.1418   34.9867 C   0  0  0  0  0  0  0  0  0  0  0  0
   14.7956   12.4978   34.8913 C   0  0  0  0  0  0  0  0  0  0  0  0
   14.5027   13.8973   35.4449 C   0  0  0  0  0  0  0  0  0  0  0  0
   13.0645   14.1499   35.3860 N   0  0  0  0  0  0  0  0  0  0  0  0
   12.0724   13.4891   36.2359 C   0  0  0  0  0  0  0  0  0  0  0  0
   11.8247   14.2361   37.5538 C   0  0  0  0  0  0  0  0  0  0  0  0
   11.1783   15.6035   37.3088 C   0  0  0  0  0  0  0  0  0  0  0  0
   10.8772   16.2335   38.5908 N   0  0  0  0  0  0  0  0  0  0  0  0
  1  2  1  0  0  0  0
  2  3  1  0  0  0  0
  3  4  1  0  0  0  0
  4  5  1  0  0  0  0
  5  6  1  0  0  0  0
  6  7  1  0  0  0  0
  7  8  1  0  0  0  0
  8  9  1  0  0  0  0
  9 10  1  0  0  0  0
 10 11  1  0  0  0  0
 11 12  1  0  0  0  0
 12 13  1  0  0  0  0
 13 14  1  0  0  0  0
M  END
>  <CHROM.1>
-72.74317167,-71.05649849,121.56958937,166.74714500,-64.91164445,179.63621064
-177.25102850,70.46508713,89.15917561,65.82056007,176.05094092,14.75141564
11.59269403,35.76486858,0.66743057,-0.70332001,2.74199274

>  <Name>
ligand

>  <RI>
0

>  <Rbt.Current_Directory>
/home/itssahil/PROJECTS/Mol_Feturizer/New_Systems/rnas/4FAW

>  <Rbt.Executable>
rbdock ($Id: //depot/dev/client3/rdock/2013.1/src/exe/rbdock.cxx#4 $)

>  <Rbt.Library>
libRbt.so (2013.1, Build901 2013/11/27)

>  <Rbt.Parameter_File>
/export/apps/rDock/src/rDock_2013.1_src/data/scripts/dock_solv.prm

>  <Rbt.Receptor>
prm/blind_docking_60.prm

>  <SCORE>
-11.6732

>  <SCORE.INTER>
-3.35099

>  <SCORE.INTER.CONST>
1

>  <SCORE.INTER.POLAR>
0

>  <SCORE.INTER.ROT>
11

>  <SCORE.INTER.SOLV>
10.5846

>  <SCORE.INTER.VDW>
-16.6955

>  <SCORE.INTER.norm>
-0.239357

>  <SCORE.INTRA>
-8.32223

>  <SCORE.INTRA.DIHEDRAL>
-15.7547

>  <SCORE.INTRA.DIHEDRAL.0>
19.1003

>  <SCORE.INTRA.POLAR>
0

>  <SCORE.INTRA.POLAR.0>
0

>  <SCORE.INTRA.REPUL>
0

>  <SCORE.INTRA.REPUL.0>
0

>  <SCORE.INTRA.SOLV>
0.643084

>  <SCORE.INTRA.SOLV.lig_0>
-47.5333

>  <SCORE.INTRA.VDW>
-0.766433

>  <SCORE.INTRA.VDW.0>
-0.287413

>  <SCORE.INTRA.norm>
-0.594445

>  <SCORE.RESTR>
0

>  <SCORE.RESTR.CAVITY>
0

>  <SCORE.RESTR.norm>
0

>  <SCORE.SYSTEM>
0

>  <SCORE.SYSTEM.CONST>
0

>  <SCORE.SYSTEM.DIHEDRAL>
0

>  <SCORE.SYSTEM.SOLV>
0

>  <SCORE.SYSTEM.norm>
0

>  <SCORE.heavy>
14

>  <SCORE.norm>
-0.833802

>  <RMSD>
55.052

$$$$
ligand
 OpenBabel11021811493D
libRbt.so/2013.1/901 2013/11/27
 14 13  0  0  0  0  0  0  0  0999 V2000
    5.2437   21.5061   24.2588 N   0  0  0  0  0  0  0  0  0  0  0  0
    5.8249   21.9143   25.5188 C   0  0  0  0  0  0  0  0  0  0  0  0
    7.3566   22.0083   25.3615 C   0  0  0  0  0  0  0  0  0  0  0  0
    8.0333   20.6693   25.0294 C   0  0  0  0  0  0  0  0  0  0  0  0
    7.8960   19.6133   26.0442 N   0  0  0  0  0  0  0  0  0  0  0  0
    8.2070   18.2069   25.7947 C   0  0  0  0  0  0  0  0  0  0  0  0
    8.2402   17.3679   27.0679 C   0  0  0  0  0  0  0  0  0  0  0  0
    8.4986   15.8790   26.8151 C   0  0  0  0  0  0  0  0  0  0  0  0
    9.9091   15.6246   26.2704 C   0  0  0  0  0  0  0  0  0  0  0  0
   10.0525   14.2080   25.9412 N   0  0  0  0  0  0  0  0  0  0  0  0
   11.3333   13.5043   25.8522 C   0  0  0  0  0  0  0  0  0  0  0  0
   11.3032   12.3360   24.8569 C   0  0  0  0  0  0  0  0  0  0  0  0
   11.1412   12.8323   23.4164 C   0  0  0  0  0  0  0  0  0  0  0  0
   12.3560   13.5296   23.0049 N   0  0  0  0  0  0  0  0  0  0  0  0
  1  2  1  0  0  0  0
  2  3  1  0  0  0  0
  3  4  1  0  0  0  0
  4  5  1  0  0  0  0
  5  6  1  0  0  0  0
  6  7  1  0  0  0  0
  7  8  1  0  0  0  0
  8  9  1  0  0  0  0
  9 10  1  0  0  0  0
 10 11  1  0  0  0  0
 11 12  1  0  0  0  0
 12 13  1  0  0  0  0
 13 14  1  0  0  0  0
M  END
>  <CHROM.1>
-63.13881552,-62.20065576,166.12743072,168.90258209,177.22723066,66.73660010
-175.09258352,-157.46972304,-150.63304547,67.18646027,68.75422301,8.95686948
17.08565526,25.37396414,-2.72772380,-0.99569837,2.13032623

>  <Name>
ligand

>  <RI>
0

>  <Rbt.Current_Directory>
/home/itssahil/PROJECTS/Mol_Feturizer/New_Systems/rnas/4FAW

>  <Rbt.Executable>
rbdock ($Id: //depot/dev/client3/rdock/2013.1/src/exe/rbdock.cxx#4 $)

>  <Rbt.Library>
libRbt.so (2013.1, Build901 2013/11/27)

>  <Rbt.Parameter_File>
/export/apps/rDock/src/rDock_2013.1_src/data/scripts/dock_solv.prm

>  <Rbt.Receptor>
prm/blind_docking_40.prm

>  <SCORE>
-9.93302

>  <SCORE.INTER>
-1.97154

>  <SCORE.INTER.CONST>
1

>  <SCORE.INTER.POLAR>
0

>  <SCORE.INTER.ROT>
11

>  <SCORE.INTER.SOLV>
16.4492

>  <SCORE.INTER.VDW>
-17.7308

>  <SCORE.INTER.norm>
-0.140824

>  <SCORE.INTRA>
-7.96148

>  <SCORE.INTRA.DIHEDRAL>
-17.0575

>  <SCORE.INTRA.DIHEDRAL.0>
19.1003

>  <SCORE.INTRA.POLAR>
0

>  <SCORE.INTRA.POLAR.0>
0

>  <SCORE.INTRA.REPUL>
0

>  <SCORE.INTRA.REPUL.0>
0

>  <SCORE.INTRA.SOLV>
2.04313

>  <SCORE.INTRA.SOLV.lig_0>
-47.5333

>  <SCORE.INTRA.VDW>
-0.454295

>  <SCORE.INTRA.VDW.0>
-0.287413

>  <SCORE.INTRA.norm>
-0.568677

>  <SCORE.RESTR>
0

>  <SCORE.RESTR.CAVITY>
0

>  <SCORE.RESTR.norm>
0

>  <SCORE.SYSTEM>
0

>  <SCORE.SYSTEM.CONST>
0

>  <SCORE.SYSTEM.DIHEDRAL>
0

>  <SCORE.SYSTEM.SOLV>
0

>  <SCORE.SYSTEM.norm>
0

>  <SCORE.heavy>
14

>  <SCORE.norm>
-0.709501

>  <RMSD>
55.093

$$$$
ligand
 OpenBabel11021811493D
libRbt.so/2013.1/901 2013/11/27
 14 13  0  0  0  0  0  0  0  0999 V2000
   10.9540   13.6041   40.0218 N   0  0  0  0  0  0  0  0  0  0  0  0
   11.4667   13.2039   38.7299 C   0  0  0  0  0  0  0  0  0  0  0  0
   11.1951   14.3276   37.7086 C   0  0  0  0  0  0  0  0  0  0  0  0
   11.6705   14.0043   36.2837 C   0  0  0  0  0  0  0  0  0  0  0  0
   13.1142   13.7699   36.1279 N   0  0  0  0  0  0  0  0  0  0  0  0
   13.7594   13.5272   34.8388 C   0  0  0  0  0  0  0  0  0  0  0  0
   15.2115   13.0801   34.9728 C   0  0  0  0  0  0  0  0  0  0  0  0
   15.3750   11.7284   35.6753 C   0  0  0  0  0  0  0  0  0  0  0  0
   16.8364   11.2649   35.6973 C   0  0  0  0  0  0  0  0  0  0  0  0
   16.9159    9.9439   36.3172 N   0  0  0  0  0  0  0  0  0  0  0  0
   18.0054    8.9908   36.0981 C   0  0  0  0  0  0  0  0  0  0  0  0
   19.2623    9.3252   36.9133 C   0  0  0  0  0  0  0  0  0  0  0  0
   20.3625    8.2806   36.6988 C   0  0  0  0  0  0  0  0  0  0  0  0
   20.7629    8.2801   35.2949 N   0  0  0  0  0  0  0  0  0  0  0  0
  1  2  1  0  0  0  0
  2  3  1  0  0  0  0
  3  4  1  0  0  0  0
  4  5  1  0  0  0  0
  5  6  1  0  0  0  0
  6  7  1  0  0  0  0
  7  8  1  0  0  0  0
  8  9  1  0  0  0  0
  9 10  1  0  0  0  0
 10 11  1  0  0  0  0
 11 12  1  0  0  0  0
 12 13  1  0  0  0  0
 13 14  1  0  0  0  0
M  END
>  <CHROM.1>
-178.75290463,-61.24942817,-176.30704386,-170.15380878,64.16159468,175.72449125
-177.13215799,157.05450561,78.88775164,177.94023308,62.36838453,15.34937723
11.66659937,36.52685150,3.06908276,0.58527620,-1.14261183

>  <Name>
ligand

>  <RI>
0

>  <Rbt.Current_Directory>
/home/itssahil/PROJECTS/Mol_Feturizer/New_Systems/rnas/4FAW

>  <Rbt.Executable>
rbdock ($Id: //depot/dev/client3/rdock/2013.1/src/exe/rbdock.cxx#4 $)

>  <Rbt.Library>
libRbt.so (2013.1, Build901 2013/11/27)

>  <Rbt.Parameter_File>
/export/apps/rDock/src/rDock_2013.1_src/data/scripts/dock_solv.prm

>  <Rbt.Receptor>
prm/blind_docking_80.prm

>  <SCORE>
-16.9987

>  <SCORE.INTER>
-7.16645

>  <SCORE.INTER.CONST>
1

>  <SCORE.INTER.POLAR>
0

>  <SCORE.INTER.ROT>
11

>  <SCORE.INTER.SOLV>
12.6205

>  <SCORE.INTER.VDW>
-19.9178

>  <SCORE.INTER.norm>
-0.51189

>  <SCORE.INTRA>
-9.83222

>  <SCORE.INTRA.DIHEDRAL>
-18.1358

>  <SCORE.INTRA.DIHEDRAL.0>
19.1003

>  <SCORE.INTRA.POLAR>
0

>  <SCORE.INTRA.POLAR.0>
0

>  <SCORE.INTRA.REPUL>
0

>  <SCORE.INTRA.REPUL.0>
0

>  <SCORE.INTRA.SOLV>
-0.0297555

>  <SCORE.INTRA.SOLV.lig_0>
-47.5333

>  <SCORE.INTRA.VDW>
-0.749426

>  <SCORE.INTRA.VDW.0>
-0.287413

>  <SCORE.INTRA.norm>
-0.702301

>  <SCORE.RESTR>
0

>  <SCORE.RESTR.CAVITY>
0

>  <SCORE.RESTR.norm>
0

>  <SCORE.SYSTEM>
0

>  <SCORE.SYSTEM.CONST>
0

>  <SCORE.SYSTEM.DIHEDRAL>
0

>  <SCORE.SYSTEM.SOLV>
0

>  <SCORE.SYSTEM.norm>
0

>  <SCORE.heavy>
14

>  <SCORE.norm>
-1.21419

>  <RMSD>
55.102

$$$$
ligand
 OpenBabel11021811493D
libRbt.so/2013.1/901 2013/11/27
 14 13  0  0  0  0  0  0  0  0999 V2000
    6.4324   20.8724   25.4415 N   0  0  0  0  0  0  0  0  0  0  0  0
    7.8124   20.4540   25.3292 C   0  0  0  0  0  0  0  0  0  0  0  0
    7.8923   18.9239   25.5078 C   0  0  0  0  0  0  0  0  0  0  0  0
    7.4868   18.4369   26.9076 C   0  0  0  0  0  0  0  0  0  0  0  0
    7.5483   16.9831   27.1228 N   0  0  0  0  0  0  0  0  0  0  0  0
    8.7589   16.2781   27.5405 C   0  0  0  0  0  0  0  0  0  0  0  0
    9.8966   16.3959   26.5315 C   0  0  0  0  0  0  0  0  0  0  0  0
   11.1445   15.5952   26.9174 C   0  0  0  0  0  0  0  0  0  0  0  0
   10.9371   14.0864   26.7403 C   0  0  0  0  0  0  0  0  0  0  0  0
   10.6390   13.8001   25.3386 N   0  0  0  0  0  0  0  0  0  0  0  0
   10.5309   12.4538   24.7735 C   0  0  0  0  0  0  0  0  0  0  0  0
    9.1890   11.7801   25.0920 C   0  0  0  0  0  0  0  0  0  0  0  0
    9.0789   11.4277   26.5790 C   0  0  0  0  0  0  0  0  0  0  0  0
    7.7963   10.7767   26.8289 N   0  0  0  0  0  0  0  0  0  0  0  0
  1  2  1  0  0  0  0
  2  3  1  0  0  0  0
  3  4  1  0  0  0  0
  4  5  1  0  0  0  0
  5  6  1  0  0  0  0
  6  7  1  0  0  0  0
  7  8  1  0  0  0  0
  8  9  1  0  0  0  0
  9 10  1  0  0  0  0
 10 11  1  0  0  0  0
 11 12  1  0  0  0  0
 12 13  1  0  0  0  0
 13 14  1  0  0  0  0
M  END
>  <CHROM.1>
-65.07881764,-179.99199850,86.46877188,-62.13092715,-176.66409479,72.83583905
60.58473437,172.85005744,78.30310116,-69.56904321,-179.32769487,8.93916251
15.59028347,26.18933919,1.84379262,0.09586143,-0.03413024

>  <Name>
ligand

>  <RI>
0

>  <Rbt.Current_Directory>
/home/itssahil/PROJECTS/Mol_Feturizer/New_Systems/rnas/4FAW

>  <Rbt.Executable>
rbdock ($Id: //depot/dev/client3/rdock/2013.1/src/exe/rbdock.cxx#4 $)

>  <Rbt.Library>
libRbt.so (2013.1, Build901 2013/11/27)

>  <Rbt.Parameter_File>
/export/apps/rDock/src/rDock_2013.1_src/data/scripts/dock_solv.prm

>  <Rbt.Receptor>
prm/blind_docking_100.prm

>  <SCORE>
-10.7683

>  <SCORE.INTER>
-2.37646

>  <SCORE.INTER.CONST>
1

>  <SCORE.INTER.POLAR>
0

>  <SCORE.INTER.ROT>
11

>  <SCORE.INTER.SOLV>
9.52553

>  <SCORE.INTER.VDW>
-15.6928

>  <SCORE.INTER.norm>
-0.169747

>  <SCORE.INTRA>
-8.39181

>  <SCORE.INTRA.DIHEDRAL>
-17.1636

>  <SCORE.INTRA.DIHEDRAL.0>
19.1003

>  <SCORE.INTRA.POLAR>
0

>  <SCORE.INTRA.POLAR.0>
0

>  <SCORE.INTRA.REPUL>
0

>  <SCORE.INTRA.REPUL.0>
0

>  <SCORE.INTRA.SOLV>
0.295317

>  <SCORE.INTRA.SOLV.lig_0>
-47.5333

>  <SCORE.INTRA.VDW>
0.042303

>  <SCORE.INTRA.VDW.0>
-0.287413

>  <SCORE.INTRA.norm>
-0.599415

>  <SCORE.RESTR>
0

>  <SCORE.RESTR.CAVITY>
0

>  <SCORE.RESTR.norm>
0

>  <SCORE.SYSTEM>
0

>  <SCORE.SYSTEM.CONST>
0

>  <SCORE.SYSTEM.DIHEDRAL>
0

>  <SCORE.SYSTEM.SOLV>
0

>  <SCORE.SYSTEM.norm>
0

>  <SCORE.heavy>
14

>  <SCORE.norm>
-0.769163

>  <RMSD>
55.108

$$$$
ligand
 OpenBabel11021811493D
libRbt.so/2013.1/901 2013/11/27
 14 13  0  0  0  0  0  0  0  0999 V2000
    7.2863   11.2292   28.0365 N   0  0  0  0  0  0  0  0  0  0  0  0
    8.6507   11.4893   28.4401 C   0  0  0  0  0  0  0  0  0  0  0  0
    9.6067   11.0020   27.3319 C   0  0  0  0  0  0  0  0  0  0  0  0
    9.4752   11.7743   26.0101 C   0  0  0  0  0  0  0  0  0  0  0  0
    9.7047   13.2250   26.0902 N   0  0  0  0  0  0  0  0  0  0  0  0
   11.0335   13.8309   26.1551 C   0  0  0  0  0  0  0  0  0  0  0  0
   11.0497   15.1545   26.9127 C   0  0  0  0  0  0  0  0  0  0  0  0
   10.0076   16.1604   26.4130 C   0  0  0  0  0  0  0  0  0  0  0  0
   10.0506   17.4734   27.2036 C   0  0  0  0  0  0  0  0  0  0  0  0
    8.9635   18.3425   26.7580 N   0  0  0  0  0  0  0  0  0  0  0  0
    9.0982   19.3758   25.7296 C   0  0  0  0  0  0  0  0  0  0  0  0
    7.8086   20.1822   25.5228 C   0  0  0  0  0  0  0  0  0  0  0  0
    7.9634   21.2049   24.3925 C   0  0  0  0  0  0  0  0  0  0  0  0
    6.7247   21.9652   24.2541 N   0  0  0  0  0  0  0  0  0  0  0  0
  1  2  1  0  0  0  0
  2  3  1  0  0  0  0
  3  4  1  0  0  0  0
  4  5  1  0  0  0  0
  5  6  1  0  0  0  0
  6  7  1  0  0  0  0
  7  8  1  0  0  0  0
  8  9  1  0  0  0  0
  9 10  1  0  0  0  0
 10 11  1  0  0  0  0
 11 12  1  0  0  0  0
 12 13  1  0  0  0  0
 13 14  1  0  0  0  0
M  END
>  <CHROM.1>
65.10790719,58.41703591,78.58092800,-150.63295179,-52.15475578,179.69471894
-175.19814125,-94.23760247,-176.90838363,-177.10998932,-178.75029389,9.10205563
15.88628974,26.37505087,1.43567035,-0.00915885,2.90217269

>  <Name>
ligand

>  <RI>
0

>  <Rbt.Current_Directory>
/home/itssahil/PROJECTS/Mol_Feturizer/New_Systems/rnas/4FAW

>  <Rbt.Executable>
rbdock ($Id: //depot/dev/client3/rdock/2013.1/src/exe/rbdock.cxx#4 $)

>  <Rbt.Library>
libRbt.so (2013.1, Build901 2013/11/27)

>  <Rbt.Parameter_File>
/export/apps/rDock/src/rDock_2013.1_src/data/scripts/dock_solv.prm

>  <Rbt.Receptor>
prm/blind_docking_60.prm

>  <SCORE>
-11.4436

>  <SCORE.INTER>
-2.45591

>  <SCORE.INTER.CONST>
1

>  <SCORE.INTER.POLAR>
0

>  <SCORE.INTER.ROT>
11

>  <SCORE.INTER.SOLV>
8.4439

>  <SCORE.INTER.VDW>
-15.3852

>  <SCORE.INTER.norm>
-0.175422

>  <SCORE.INTRA>
-8.98767

>  <SCORE.INTRA.DIHEDRAL>
-17.0563

>  <SCORE.INTRA.DIHEDRAL.0>
19.1003

>  <SCORE.INTRA.POLAR>
0

>  <SCORE.INTRA.POLAR.0>
0

>  <SCORE.INTRA.REPUL>
0

>  <SCORE.INTRA.REPUL.0>
0

>  <SCORE.INTRA.SOLV>
0.614828

>  <SCORE.INTRA.SOLV.lig_0>
-47.5333

>  <SCORE.INTRA.VDW>
-0.766955

>  <SCORE.INTRA.VDW.0>
-0.287413

>  <SCORE.INTRA.norm>
-0.641977

>  <SCORE.RESTR>
0

>  <SCORE.RESTR.CAVITY>
0

>  <SCORE.RESTR.norm>
0

>  <SCORE.SYSTEM>
0

>  <SCORE.SYSTEM.CONST>
0

>  <SCORE.SYSTEM.DIHEDRAL>
0

>  <SCORE.SYSTEM.SOLV>
0

>  <SCORE.SYSTEM.norm>
0

>  <SCORE.heavy>
14

>  <SCORE.norm>
-0.817399

>  <RMSD>
55.138

$$$$
ligand
 OpenBabel11021811493D
libRbt.so/2013.1/901 2013/11/27
 14 13  0  0  0  0  0  0  0  0999 V2000
   -1.3856    5.9975    4.5971 N   0  0  0  0  0  0  0  0  0  0  0  0
   -1.0914    5.6210    3.2319 C   0  0  0  0  0  0  0  0  0  0  0  0
    0.3640    5.1163    3.1498 C   0  0  0  0  0  0  0  0  0  0  0  0
    1.4134    6.1731    3.5279 C   0  0  0  0  0  0  0  0  0  0  0  0
    1.3465    6.6769    4.9083 N   0  0  0  0  0  0  0  0  0  0  0  0
    2.4359    7.4041    5.5572 C   0  0  0  0  0  0  0  0  0  0  0  0
    2.2949    7.4611    7.0749 C   0  0  0  0  0  0  0  0  0  0  0  0
    3.4289    8.2229    7.7684 C   0  0  0  0  0  0  0  0  0  0  0  0
    3.3547    8.1001    9.2949 C   0  0  0  0  0  0  0  0  0  0  0  0
    2.0029    8.4294    9.7418 N   0  0  0  0  0  0  0  0  0  0  0  0
    1.6295    8.6797   11.1352 C   0  0  0  0  0  0  0  0  0  0  0  0
    0.1139    8.8266   11.3285 C   0  0  0  0  0  0  0  0  0  0  0  0
   -0.6109    7.4962   11.0998 C   0  0  0  0  0  0  0  0  0  0  0  0
   -0.4579    6.6520   12.2810 N   0  0  0  0  0  0  0  0  0  0  0  0
  1  2  1  0  0  0  0
  2  3  1  0  0  0  0
  3  4  1  0  0  0  0
  4  5  1  0  0  0  0
  5  6  1  0  0  0  0
  6  7  1  0  0  0  0
  7  8  1  0  0  0  0
  8  9  1  0  0  0  0
  9 10  1  0  0  0  0
 10 11  1  0  0  0  0
 11 12  1  0  0  0  0
 12 13  1  0  0  0  0
 13 14  1  0  0  0  0
M  END
>  <CHROM.1>
-61.99978382,62.34297724,163.61624414,-163.28289022,-179.88914724,-172.38681536
-50.32589539,-167.20248063,-172.74523451,68.70512927,78.30284634,1.06020117
7.20416179,7.47817794,1.65274237,-0.36124162,-1.82475720

>  <Name>
ligand

>  <RI>
0

>  <Rbt.Current_Directory>
/home/itssahil/PROJECTS/Mol_Feturizer/New_Systems/rnas/4FAW

>  <Rbt.Executable>
rbdock ($Id: //depot/dev/client3/rdock/2013.1/src/exe/rbdock.cxx#4 $)

>  <Rbt.Library>
libRbt.so (2013.1, Build901 2013/11/27)

>  <Rbt.Parameter_File>
/export/apps/rDock/src/rDock_2013.1_src/data/scripts/dock_solv.prm

>  <Rbt.Receptor>
prm/blind_docking_20.prm

>  <SCORE>
-4.48379

>  <SCORE.INTER>
2.78873

>  <SCORE.INTER.CONST>
1

>  <SCORE.INTER.POLAR>
0

>  <SCORE.INTER.ROT>
11

>  <SCORE.INTER.SOLV>
13.8936

>  <SCORE.INTER.VDW>
-13.7054

>  <SCORE.INTER.norm>
0.199195

>  <SCORE.INTRA>
-7.27252

>  <SCORE.INTRA.DIHEDRAL>
-16.4272

>  <SCORE.INTRA.DIHEDRAL.0>
19.1003

>  <SCORE.INTRA.POLAR>
0

>  <SCORE.INTRA.POLAR.0>
0

>  <SCORE.INTRA.REPUL>
0

>  <SCORE.INTRA.REPUL.0>
0

>  <SCORE.INTRA.SOLV>
3.23794

>  <SCORE.INTRA.SOLV.lig_0>
-47.5333

>  <SCORE.INTRA.VDW>
-0.677875

>  <SCORE.INTRA.VDW.0>
-0.287413

>  <SCORE.INTRA.norm>
-0.519466

>  <SCORE.RESTR>
0

>  <SCORE.RESTR.CAVITY>
0

>  <SCORE.RESTR.norm>
0

>  <SCORE.SYSTEM>
0

>  <SCORE.SYSTEM.CONST>
0

>  <SCORE.SYSTEM.DIHEDRAL>
0

>  <SCORE.SYSTEM.SOLV>
0

>  <SCORE.SYSTEM.norm>
0

>  <SCORE.heavy>
14

>  <SCORE.norm>
-0.320271

>  <RMSD>
55.159

$$$$
ligand
 OpenBabel11021811493D
libRbt.so/2013.1/901 2013/11/27
 14 13  0  0  0  0  0  0  0  0999 V2000
    8.8521   11.4769   25.1734 N   0  0  0  0  0  0  0  0  0  0  0  0
    8.1008   10.7442   26.1688 C   0  0  0  0  0  0  0  0  0  0  0  0
    8.9658   10.5814   27.4356 C   0  0  0  0  0  0  0  0  0  0  0  0
    9.2391   11.8984   28.1783 C   0  0  0  0  0  0  0  0  0  0  0  0
    9.9854   12.9166   27.4233 N   0  0  0  0  0  0  0  0  0  0  0  0
    9.9514   14.3435   27.7389 C   0  0  0  0  0  0  0  0  0  0  0  0
   10.7523   15.1915   26.7561 C   0  0  0  0  0  0  0  0  0  0  0  0
   10.5395   16.6987   26.9307 C   0  0  0  0  0  0  0  0  0  0  0  0
    9.1151   17.1253   26.5565 C   0  0  0  0  0  0  0  0  0  0  0  0
    8.9875   18.5731   26.7095 N   0  0  0  0  0  0  0  0  0  0  0  0
    8.9947   19.5268   25.5987 C   0  0  0  0  0  0  0  0  0  0  0  0
    7.5829   19.9125   25.1357 C   0  0  0  0  0  0  0  0  0  0  0  0
    6.8355   18.7072   24.5557 C   0  0  0  0  0  0  0  0  0  0  0  0
    5.5176   19.1315   24.0928 N   0  0  0  0  0  0  0  0  0  0  0  0
  1  2  1  0  0  0  0
  2  3  1  0  0  0  0
  3  4  1  0  0  0  0
  4  5  1  0  0  0  0
  5  6  1  0  0  0  0
  6  7  1  0  0  0  0
  7  8  1  0  0  0  0
  8  9  1  0  0  0  0
  9 10  1  0  0  0  0
 10 11  1  0  0  0  0
 11 12  1  0  0  0  0
 12 13  1  0  0  0  0
 13 14  1  0  0  0  0
M  END
>  <CHROM.1>
67.75374158,-61.94052095,158.14377343,-176.84496510,170.37582449,-67.42910387
-178.48602723,102.96808528,95.90500574,-64.50705847,-178.26169324,8.81589043
15.48767433,26.31832933,1.33653846,0.61810890,3.05018511

>  <Name>
ligand

>  <RI>
0

>  <Rbt.Current_Directory>
/home/itssahil/PROJECTS/Mol_Feturizer/New_Systems/rnas/4FAW

>  <Rbt.Executable>
rbdock ($Id: //depot/dev/client3/rdock/2013.1/src/exe/rbdock.cxx#4 $)

>  <Rbt.Library>
libRbt.so (2013.1, Build901 2013/11/27)

>  <Rbt.Parameter_File>
/export/apps/rDock/src/rDock_2013.1_src/data/scripts/dock_solv.prm

>  <Rbt.Receptor>
prm/blind_docking_80.prm

>  <SCORE>
-8.66234

>  <SCORE.INTER>
-1.13277

>  <SCORE.INTER.CONST>
1

>  <SCORE.INTER.POLAR>
0

>  <SCORE.INTER.ROT>
11

>  <SCORE.INTER.SOLV>
11.6653

>  <SCORE.INTER.VDW>
-15.577

>  <SCORE.INTER.norm>
-0.0809122

>  <SCORE.INTRA>
-7.52957

>  <SCORE.INTRA.DIHEDRAL>
-16.0741

>  <SCORE.INTRA.DIHEDRAL.0>
19.1003

>  <SCORE.INTRA.POLAR>
0

>  <SCORE.INTRA.POLAR.0>
0

>  <SCORE.INTRA.REPUL>
0

>  <SCORE.INTRA.REPUL.0>
0

>  <SCORE.INTRA.SOLV>
2.16222

>  <SCORE.INTRA.SOLV.lig_0>
-47.5333

>  <SCORE.INTRA.VDW>
-0.57363

>  <SCORE.INTRA.VDW.0>
-0.287413

>  <SCORE.INTRA.norm>
-0.537826

>  <SCORE.RESTR>
0

>  <SCORE.RESTR.CAVITY>
0

>  <SCORE.RESTR.norm>
0

>  <SCORE.SYSTEM>
0

>  <SCORE.SYSTEM.CONST>
0

>  <SCORE.SYSTEM.DIHEDRAL>
0

>  <SCORE.SYSTEM.SOLV>
0

>  <SCORE.SYSTEM.norm>
0

>  <SCORE.heavy>
14

>  <SCORE.norm>
-0.618738

>  <RMSD>
55.234

$$$$
ligand
 OpenBabel11021811493D
libRbt.so/2013.1/901 2013/11/27
 14 13  0  0  0  0  0  0  0  0999 V2000
   -2.3736    6.4830    6.6501 N   0  0  0  0  0  0  0  0  0  0  0  0
   -1.1885    6.6624    5.8405 C   0  0  0  0  0  0  0  0  0  0  0  0
   -1.4385    6.0653    4.4403 C   0  0  0  0  0  0  0  0  0  0  0  0
   -0.2399    6.1873    3.4866 C   0  0  0  0  0  0  0  0  0  0  0  0
    1.0096    5.5610    3.9450 N   0  0  0  0  0  0  0  0  0  0  0  0
    2.3384    6.0178    3.5416 C   0  0  0  0  0  0  0  0  0  0  0  0
    3.0336    6.8519    4.6127 C   0  0  0  0  0  0  0  0  0  0  0  0
    2.3544    8.1994    4.8780 C   0  0  0  0  0  0  0  0  0  0  0  0
    3.0570    8.9885    5.9891 C   0  0  0  0  0  0  0  0  0  0  0  0
    2.7052    8.4153    7.2866 N   0  0  0  0  0  0  0  0  0  0  0  0
    1.3798    8.5091    7.9012 C   0  0  0  0  0  0  0  0  0  0  0  0
    1.4290    8.4557    9.4345 C   0  0  0  0  0  0  0  0  0  0  0  0
    0.0314    8.6041   10.0446 C   0  0  0  0  0  0  0  0  0  0  0  0
    0.1248    8.5081   11.4983 N   0  0  0  0  0  0  0  0  0  0  0  0
  1  2  1  0  0  0  0
  2  3  1  0  0  0  0
  3  4  1  0  0  0  0
  4  5  1  0  0  0  0
  5  6  1  0  0  0  0
  6  7  1  0  0  0  0
  7  8  1  0  0  0  0
  8  9  1  0  0  0  0
  9 10  1  0  0  0  0
 10 11  1  0  0  0  0
 11 12  1  0  0  0  0
 12 13  1  0  0  0  0
 13 14  1  0  0  0  0
M  END
>  <CHROM.1>
-179.58668780,58.26862245,-152.34396697,101.79750503,-66.76211638,178.26329550
-76.19470083,-70.09682796,-152.34709510,178.07270893,178.36208888,0.87325325
7.39355411,6.39596807,1.60452143,0.33354799,1.19274385

>  <Name>
ligand

>  <RI>
0

>  <Rbt.Current_Directory>
/home/itssahil/PROJECTS/Mol_Feturizer/New_Systems/rnas/4FAW

>  <Rbt.Executable>
rbdock ($Id: //depot/dev/client3/rdock/2013.1/src/exe/rbdock.cxx#4 $)

>  <Rbt.Library>
libRbt.so (2013.1, Build901 2013/11/27)

>  <Rbt.Parameter_File>
/export/apps/rDock/src/rDock_2013.1_src/data/scripts/dock_solv.prm

>  <Rbt.Receptor>
prm/blind_docking_20.prm

>  <SCORE>
-4.54627

>  <SCORE.INTER>
4.96739

>  <SCORE.INTER.CONST>
1

>  <SCORE.INTER.POLAR>
0

>  <SCORE.INTER.ROT>
11

>  <SCORE.INTER.SOLV>
8.80413

>  <SCORE.INTER.VDW>
-10.5564

>  <SCORE.INTER.norm>
0.354814

>  <SCORE.INTRA>
-9.51366

>  <SCORE.INTRA.DIHEDRAL>
-15.8637

>  <SCORE.INTRA.DIHEDRAL.0>
19.1003

>  <SCORE.INTRA.POLAR>
0

>  <SCORE.INTRA.POLAR.0>
0

>  <SCORE.INTRA.REPUL>
0

>  <SCORE.INTRA.REPUL.0>
0

>  <SCORE.INTRA.SOLV>
-0.181541

>  <SCORE.INTRA.SOLV.lig_0>
-47.5333

>  <SCORE.INTRA.VDW>
-1.49103

>  <SCORE.INTRA.VDW.0>
-0.287413

>  <SCORE.INTRA.norm>
-0.679547

>  <SCORE.RESTR>
0

>  <SCORE.RESTR.CAVITY>
0

>  <SCORE.RESTR.norm>
0

>  <SCORE.SYSTEM>
0

>  <SCORE.SYSTEM.CONST>
0

>  <SCORE.SYSTEM.DIHEDRAL>
0

>  <SCORE.SYSTEM.SOLV>
0

>  <SCORE.SYSTEM.norm>
0

>  <SCORE.heavy>
14

>  <SCORE.norm>
-0.324733

>  <RMSD>
55.237

$$$$
ligand
 OpenBabel11021811493D
libRbt.so/2013.1/901 2013/11/27
 14 13  0  0  0  0  0  0  0  0999 V2000
   19.8968    7.2862   35.7099 N   0  0  0  0  0  0  0  0  0  0  0  0
   20.4225    8.5200   36.2517 C   0  0  0  0  0  0  0  0  0  0  0  0
   19.3180    9.2251   37.0658 C   0  0  0  0  0  0  0  0  0  0  0  0
   18.0675    9.5785   36.2458 C   0  0  0  0  0  0  0  0  0  0  0  0
   17.0749   10.4257   36.9245 N   0  0  0  0  0  0  0  0  0  0  0  0
   15.8891   10.9689   36.2645 C   0  0  0  0  0  0  0  0  0  0  0  0
   16.1792   12.2326   35.4612 C   0  0  0  0  0  0  0  0  0  0  0  0
   14.9358   12.8417   34.8051 C   0  0  0  0  0  0  0  0  0  0  0  0
   14.0240   13.5289   35.8284 C   0  0  0  0  0  0  0  0  0  0  0  0
   13.4372   12.5202   36.7082 N   0  0  0  0  0  0  0  0  0  0  0  0
   13.1162   12.7386   38.1198 C   0  0  0  0  0  0  0  0  0  0  0  0
   11.6612   13.1759   38.3391 C   0  0  0  0  0  0  0  0  0  0  0  0
   11.3611   13.3956   39.8255 C   0  0  0  0  0  0  0  0  0  0  0  0
    9.9522   13.7416   39.9891 N   0  0  0  0  0  0  0  0  0  0  0  0
  1  2  1  0  0  0  0
  2  3  1  0  0  0  0
  3  4  1  0  0  0  0
  4  5  1  0  0  0  0
  5  6  1  0  0  0  0
  6  7  1  0  0  0  0
  7  8  1  0  0  0  0
  8  9  1  0  0  0  0
  9 10  1  0  0  0  0
 10 11  1  0  0  0  0
 11 12  1  0  0  0  0
 12 13  1  0  0  0  0
 13 14  1  0  0  0  0
M  END
>  <CHROM.1>
-59.94970790,-171.24310141,173.91621508,-81.69897785,-177.91629050,73.34475279
-67.80057714,147.10963027,93.81488287,-179.97796876,-177.09387805,15.38123590
11.44157235,36.96689032,0.01471189,-0.59585799,2.08761937

>  <Name>
ligand

>  <RI>
0

>  <Rbt.Current_Directory>
/home/itssahil/PROJECTS/Mol_Feturizer/New_Systems/rnas/4FAW

>  <Rbt.Executable>
rbdock ($Id: //depot/dev/client3/rdock/2013.1/src/exe/rbdock.cxx#4 $)

>  <Rbt.Library>
libRbt.so (2013.1, Build901 2013/11/27)

>  <Rbt.Parameter_File>
/export/apps/rDock/src/rDock_2013.1_src/data/scripts/dock_solv.prm

>  <Rbt.Receptor>
prm/blind_docking_60.prm

>  <SCORE>
-11.8524

>  <SCORE.INTER>
-3.68794

>  <SCORE.INTER.CONST>
1

>  <SCORE.INTER.POLAR>
0

>  <SCORE.INTER.ROT>
11

>  <SCORE.INTER.SOLV>
13.1209

>  <SCORE.INTER.VDW>
-17.7656

>  <SCORE.INTER.norm>
-0.263424

>  <SCORE.INTRA>
-8.16443

>  <SCORE.INTRA.DIHEDRAL>
-16.0358

>  <SCORE.INTRA.DIHEDRAL.0>
19.1003

>  <SCORE.INTRA.POLAR>
0

>  <SCORE.INTRA.POLAR.0>
0

>  <SCORE.INTRA.REPUL>
0

>  <SCORE.INTRA.REPUL.0>
0

>  <SCORE.INTRA.SOLV>
0.357332

>  <SCORE.INTRA.SOLV.lig_0>
-47.5333

>  <SCORE.INTRA.VDW>
-0.325204

>  <SCORE.INTRA.VDW.0>
-0.287413

>  <SCORE.INTRA.norm>
-0.583174

>  <SCORE.RESTR>
0

>  <SCORE.RESTR.CAVITY>
0

>  <SCORE.RESTR.norm>
0

>  <SCORE.SYSTEM>
0

>  <SCORE.SYSTEM.CONST>
0

>  <SCORE.SYSTEM.DIHEDRAL>
0

>  <SCORE.SYSTEM.SOLV>
0

>  <SCORE.SYSTEM.norm>
0

>  <SCORE.heavy>
14

>  <SCORE.norm>
-0.846598

>  <RMSD>
55.344

$$$$
ligand
 OpenBabel11021811493D
libRbt.so/2013.1/901 2013/11/27
 14 13  0  0  0  0  0  0  0  0999 V2000
    6.5403    9.4945   27.4435 N   0  0  0  0  0  0  0  0  0  0  0  0
    7.3414   10.6539   27.1176 C   0  0  0  0  0  0  0  0  0  0  0  0
    8.8065   10.3841   27.5180 C   0  0  0  0  0  0  0  0  0  0  0  0
    9.7237   11.6105   27.3929 C   0  0  0  0  0  0  0  0  0  0  0  0
    9.8953   12.1460   26.0338 N   0  0  0  0  0  0  0  0  0  0  0  0
   11.0699   12.9035   25.6055 C   0  0  0  0  0  0  0  0  0  0  0  0
   11.2560   14.2046   26.3794 C   0  0  0  0  0  0  0  0  0  0  0  0
   10.1332   15.2214   26.1493 C   0  0  0  0  0  0  0  0  0  0  0  0
   10.3757   16.5285   26.9132 C   0  0  0  0  0  0  0  0  0  0  0  0
    9.2715   17.4508   26.6571 N   0  0  0  0  0  0  0  0  0  0  0  0
    7.9804   17.4082   27.3461 C   0  0  0  0  0  0  0  0  0  0  0  0
    7.8962   18.3994   28.5152 C   0  0  0  0  0  0  0  0  0  0  0  0
    8.9171   18.0643   29.6075 C   0  0  0  0  0  0  0  0  0  0  0  0
    8.7502   18.9873   30.7261 N   0  0  0  0  0  0  0  0  0  0  0  0
  1  2  1  0  0  0  0
  2  3  1  0  0  0  0
  3  4  1  0  0  0  0
  4  5  1  0  0  0  0
  5  6  1  0  0  0  0
  6  7  1  0  0  0  0
  7  8  1  0  0  0  0
  8  9  1  0  0  0  0
  9 10  1  0  0  0  0
 10 11  1  0  0  0  0
 11 12  1  0  0  0  0
 12 13  1  0  0  0  0
 13 14  1  0  0  0  0
M  END
>  <CHROM.1>
-172.34865012,-63.29520268,-154.37991625,-61.95242104,-64.89939676,-178.44525236
-179.78488591,81.34721517,97.26405531,-63.15677495,-176.96276575,9.14002874
14.53265318,27.38596319,1.61322482,-0.66799624,-2.88435170

>  <Name>
ligand

>  <RI>
0

>  <Rbt.Current_Directory>
/home/itssahil/PROJECTS/Mol_Feturizer/New_Systems/rnas/4FAW

>  <Rbt.Executable>
rbdock ($Id: //depot/dev/client3/rdock/2013.1/src/exe/rbdock.cxx#4 $)

>  <Rbt.Library>
libRbt.so (2013.1, Build901 2013/11/27)

>  <Rbt.Parameter_File>
/export/apps/rDock/src/rDock_2013.1_src/data/scripts/dock_solv.prm

>  <Rbt.Receptor>
prm/blind_docking_40.prm

>  <SCORE>
-9.96855

>  <SCORE.INTER>
-0.657866

>  <SCORE.INTER.CONST>
1

>  <SCORE.INTER.POLAR>
0

>  <SCORE.INTER.ROT>
11

>  <SCORE.INTER.SOLV>
12.8332

>  <SCORE.INTER.VDW>
-15.6496

>  <SCORE.INTER.norm>
-0.0469905

>  <SCORE.INTRA>
-9.31068

>  <SCORE.INTRA.DIHEDRAL>
-17.0409

>  <SCORE.INTRA.DIHEDRAL.0>
19.1003

>  <SCORE.INTRA.POLAR>
0

>  <SCORE.INTRA.POLAR.0>
0

>  <SCORE.INTRA.REPUL>
0

>  <SCORE.INTRA.REPUL.0>
0

>  <SCORE.INTRA.SOLV>
-0.493581

>  <SCORE.INTRA.SOLV.lig_0>
-47.5333

>  <SCORE.INTRA.VDW>
-0.543446

>  <SCORE.INTRA.VDW.0>
-0.287413

>  <SCORE.INTRA.norm>
-0.665049

>  <SCORE.RESTR>
0

>  <SCORE.RESTR.CAVITY>
0

>  <SCORE.RESTR.norm>
0

>  <SCORE.SYSTEM>
0

>  <SCORE.SYSTEM.CONST>
0

>  <SCORE.SYSTEM.DIHEDRAL>
0

>  <SCORE.SYSTEM.SOLV>
0

>  <SCORE.SYSTEM.norm>
0

>  <SCORE.heavy>
14

>  <SCORE.norm>
-0.712039

>  <RMSD>
55.369

$$$$
ligand
 OpenBabel11021811493D
libRbt.so/2013.1/901 2013/11/27
 14 13  0  0  0  0  0  0  0  0999 V2000
   17.5677    5.3924   34.6742 N   0  0  0  0  0  0  0  0  0  0  0  0
   17.8023    6.5226   35.5458 C   0  0  0  0  0  0  0  0  0  0  0  0
   17.0585    7.7535   34.9878 C   0  0  0  0  0  0  0  0  0  0  0  0
   17.3332    9.0524   35.7613 C   0  0  0  0  0  0  0  0  0  0  0  0
   16.6180   10.2457   35.2838 N   0  0  0  0  0  0  0  0  0  0  0  0
   16.9159   11.6028   35.7384 C   0  0  0  0  0  0  0  0  0  0  0  0
   15.9090   12.6340   35.2394 C   0  0  0  0  0  0  0  0  0  0  0  0
   14.4827   12.3934   35.7445 C   0  0  0  0  0  0  0  0  0  0  0  0
   13.5173   13.4931   35.2866 C   0  0  0  0  0  0  0  0  0  0  0  0
   12.1760   13.1987   35.7864 N   0  0  0  0  0  0  0  0  0  0  0  0
   11.1531   14.2103   36.0578 C   0  0  0  0  0  0  0  0  0  0  0  0
   11.3420   14.8988   37.4167 C   0  0  0  0  0  0  0  0  0  0  0  0
   11.2561   13.8936   38.5699 C   0  0  0  0  0  0  0  0  0  0  0  0
   11.3733   14.6029   39.8405 N   0  0  0  0  0  0  0  0  0  0  0  0
  1  2  1  0  0  0  0
  2  3  1  0  0  0  0
  3  4  1  0  0  0  0
  4  5  1  0  0  0  0
  5  6  1  0  0  0  0
  6  7  1  0  0  0  0
  7  8  1  0  0  0  0
  8  9  1  0  0  0  0
  9 10  1  0  0  0  0
 10 11  1  0  0  0  0
 11 12  1  0  0  0  0
 12 13  1  0  0  0  0
 13 14  1  0  0  0  0
M  END
>  <CHROM.1>
-174.83825237,-178.54510679,-169.27831435,-172.03440023,62.47504243,176.78764477
179.36752977,152.90780535,-80.92004087,-60.97402300,-177.14673094,14.60758181
11.42124215,36.13795989,0.56044660,-0.73366539,2.65677175

>  <Name>
ligand

>  <RI>
0

>  <Rbt.Current_Directory>
/home/itssahil/PROJECTS/Mol_Feturizer/New_Systems/rnas/4FAW

>  <Rbt.Executable>
rbdock ($Id: //depot/dev/client3/rdock/2013.1/src/exe/rbdock.cxx#4 $)

>  <Rbt.Library>
libRbt.so (2013.1, Build901 2013/11/27)

>  <Rbt.Parameter_File>
/export/apps/rDock/src/rDock_2013.1_src/data/scripts/dock_solv.prm

>  <Rbt.Receptor>
prm/blind_docking_100.prm

>  <SCORE>
-15.0263

>  <SCORE.INTER>
-4.78506

>  <SCORE.INTER.CONST>
1

>  <SCORE.INTER.POLAR>
0

>  <SCORE.INTER.ROT>
11

>  <SCORE.INTER.SOLV>
10.6095

>  <SCORE.INTER.VDW>
-17.6599

>  <SCORE.INTER.norm>
-0.34179

>  <SCORE.INTRA>
-10.2412

>  <SCORE.INTRA.DIHEDRAL>
-17.9121

>  <SCORE.INTRA.DIHEDRAL.0>
19.1003

>  <SCORE.INTRA.POLAR>
0

>  <SCORE.INTRA.POLAR.0>
0

>  <SCORE.INTRA.REPUL>
0

>  <SCORE.INTRA.REPUL.0>
0

>  <SCORE.INTRA.SOLV>
-0.763734

>  <SCORE.INTRA.SOLV.lig_0>
-47.5333

>  <SCORE.INTRA.VDW>
-0.903308

>  <SCORE.INTRA.VDW.0>
-0.287413

>  <SCORE.INTRA.norm>
-0.731515

>  <SCORE.RESTR>
0

>  <SCORE.RESTR.CAVITY>
0

>  <SCORE.RESTR.norm>
0

>  <SCORE.SYSTEM>
0

>  <SCORE.SYSTEM.CONST>
0

>  <SCORE.SYSTEM.DIHEDRAL>
0

>  <SCORE.SYSTEM.SOLV>
0

>  <SCORE.SYSTEM.norm>
0

>  <SCORE.heavy>
14

>  <SCORE.norm>
-1.07331

>  <RMSD>
55.378

$$$$
ligand
 OpenBabel11021811493D
libRbt.so/2013.1/901 2013/11/27
 14 13  0  0  0  0  0  0  0  0999 V2000
   11.0786   15.0796   40.1084 N   0  0  0  0  0  0  0  0  0  0  0  0
   10.6261   14.6189   38.8141 C   0  0  0  0  0  0  0  0  0  0  0  0
   11.8189   14.6096   37.8361 C   0  0  0  0  0  0  0  0  0  0  0  0
   11.4628   14.1256   36.4219 C   0  0  0  0  0  0  0  0  0  0  0  0
   12.6010   13.8815   35.5228 N   0  0  0  0  0  0  0  0  0  0  0  0
   13.6521   12.9031   35.7965 C   0  0  0  0  0  0  0  0  0  0  0  0
   14.8278   13.0039   34.8301 C   0  0  0  0  0  0  0  0  0  0  0  0
   15.9388   11.9858   35.1070 C   0  0  0  0  0  0  0  0  0  0  0  0
   15.4567   10.5427   34.9169 C   0  0  0  0  0  0  0  0  0  0  0  0
   16.5446    9.6223   35.2409 N   0  0  0  0  0  0  0  0  0  0  0  0
   16.3897    8.1730   35.3781 C   0  0  0  0  0  0  0  0  0  0  0  0
   17.7334    7.4347   35.4529 C   0  0  0  0  0  0  0  0  0  0  0  0
   17.5341    5.9184   35.5460 C   0  0  0  0  0  0  0  0  0  0  0  0
   18.8348    5.2561   35.5145 N   0  0  0  0  0  0  0  0  0  0  0  0
  1  2  1  0  0  0  0
  2  3  1  0  0  0  0
  3  4  1  0  0  0  0
  4  5  1  0  0  0  0
  5  6  1  0  0  0  0
  6  7  1  0  0  0  0
  7  8  1  0  0  0  0
  8  9  1  0  0  0  0
  9 10  1  0  0  0  0
 10 11  1  0  0  0  0
 11 12  1  0  0  0  0
 12 13  1  0  0  0  0
 13 14  1  0  0  0  0
M  END
>  <CHROM.1>
179.57300629,-169.98956964,60.53353885,-170.58947621,179.87945353,63.70763963
-178.00332212,169.86545609,168.91644148,-177.98872945,175.82361083,14.60702924
11.22548129,36.17741971,2.81391952,0.87568527,-0.83640754

>  <Name>
ligand

>  <RI>
0

>  <Rbt.Current_Directory>
/home/itssahil/PROJECTS/Mol_Feturizer/New_Systems/rnas/4FAW

>  <Rbt.Executable>
rbdock ($Id: //depot/dev/client3/rdock/2013.1/src/exe/rbdock.cxx#4 $)

>  <Rbt.Library>
libRbt.so (2013.1, Build901 2013/11/27)

>  <Rbt.Parameter_File>
/export/apps/rDock/src/rDock_2013.1_src/data/scripts/dock_solv.prm

>  <Rbt.Receptor>
prm/blind_docking_100.prm

>  <SCORE>
-14.2359

>  <SCORE.INTER>
-4.22583

>  <SCORE.INTER.CONST>
1

>  <SCORE.INTER.POLAR>
0

>  <SCORE.INTER.ROT>
11

>  <SCORE.INTER.SOLV>
12.6162

>  <SCORE.INTER.VDW>
-17.956

>  <SCORE.INTER.norm>
-0.301845

>  <SCORE.INTRA>
-10.0101

>  <SCORE.INTRA.DIHEDRAL>
-18.3231

>  <SCORE.INTRA.DIHEDRAL.0>
19.1003

>  <SCORE.INTRA.POLAR>
0

>  <SCORE.INTRA.POLAR.0>
0

>  <SCORE.INTRA.REPUL>
0

>  <SCORE.INTRA.REPUL.0>
0

>  <SCORE.INTRA.SOLV>
-1.29236

>  <SCORE.INTRA.SOLV.lig_0>
-47.5333

>  <SCORE.INTRA.VDW>
-0.202306

>  <SCORE.INTRA.VDW.0>
-0.287413

>  <SCORE.INTRA.norm>
-0.715004

>  <SCORE.RESTR>
0

>  <SCORE.RESTR.CAVITY>
0

>  <SCORE.RESTR.norm>
0

>  <SCORE.SYSTEM>
0

>  <SCORE.SYSTEM.CONST>
0

>  <SCORE.SYSTEM.DIHEDRAL>
0

>  <SCORE.SYSTEM.SOLV>
0

>  <SCORE.SYSTEM.norm>
0

>  <SCORE.heavy>
14

>  <SCORE.norm>
-1.01685

>  <RMSD>
55.383

$$$$
ligand
 OpenBabel11021811493D
libRbt.so/2013.1/901 2013/11/27
 14 13  0  0  0  0  0  0  0  0999 V2000
   13.3941   13.6044   40.4834 N   0  0  0  0  0  0  0  0  0  0  0  0
   12.0841   13.6670   39.8732 C   0  0  0  0  0  0  0  0  0  0  0  0
   11.9458   12.5163   38.8552 C   0  0  0  0  0  0  0  0  0  0  0  0
   12.9001   12.6259   37.6559 C   0  0  0  0  0  0  0  0  0  0  0  0
   12.7203   13.8088   36.8003 N   0  0  0  0  0  0  0  0  0  0  0  0
   12.9543   13.8060   35.3573 C   0  0  0  0  0  0  0  0  0  0  0  0
   14.4269   13.6512   34.9916 C   0  0  0  0  0  0  0  0  0  0  0  0
   14.9706   12.2372   35.2203 C   0  0  0  0  0  0  0  0  0  0  0  0
   16.4875   12.1634   35.0095 C   0  0  0  0  0  0  0  0  0  0  0  0
   16.9123   10.7653   35.0346 N   0  0  0  0  0  0  0  0  0  0  0  0
   16.8834    9.9125   36.2243 C   0  0  0  0  0  0  0  0  0  0  0  0
   17.7624    8.6622   36.0824 C   0  0  0  0  0  0  0  0  0  0  0  0
   19.2386    8.9842   36.3371 C   0  0  0  0  0  0  0  0  0  0  0  0
   20.0484    7.8042   36.0493 N   0  0  0  0  0  0  0  0  0  0  0  0
  1  2  1  0  0  0  0
  2  3  1  0  0  0  0
  3  4  1  0  0  0  0
  4  5  1  0  0  0  0
  5  6  1  0  0  0  0
  6  7  1  0  0  0  0
  7  8  1  0  0  0  0
  8  9  1  0  0  0  0
  9 10  1  0  0  0  0
 10 11  1  0  0  0  0
 11 12  1  0  0  0  0
 12 13  1  0  0  0  0
 13 14  1  0  0  0  0
M  END
>  <CHROM.1>
-65.13362531,-62.33787208,-146.98407313,-68.84902198,73.07247231,-172.87914227
-171.21764925,-68.08090512,-162.43455239,80.06379139,-173.86413903,15.19467231
11.72927453,36.71228914,-3.02875033,0.69229977,-1.25253377

>  <Name>
ligand

>  <RI>
0

>  <Rbt.Current_Directory>
/home/itssahil/PROJECTS/Mol_Feturizer/New_Systems/rnas/4FAW

>  <Rbt.Executable>
rbdock ($Id: //depot/dev/client3/rdock/2013.1/src/exe/rbdock.cxx#4 $)

>  <Rbt.Library>
libRbt.so (2013.1, Build901 2013/11/27)

>  <Rbt.Parameter_File>
/export/apps/rDock/src/rDock_2013.1_src/data/scripts/dock_solv.prm

>  <Rbt.Receptor>
prm/blind_docking_100.prm

>  <SCORE>
-10.9041

>  <SCORE.INTER>
-3.27853

>  <SCORE.INTER.CONST>
1

>  <SCORE.INTER.POLAR>
0

>  <SCORE.INTER.ROT>
11

>  <SCORE.INTER.SOLV>
13.9224

>  <SCORE.INTER.VDW>
-17.7598

>  <SCORE.INTER.norm>
-0.23418

>  <SCORE.INTRA>
-7.62553

>  <SCORE.INTRA.DIHEDRAL>
-15.2858

>  <SCORE.INTRA.DIHEDRAL.0>
19.1003

>  <SCORE.INTRA.POLAR>
0

>  <SCORE.INTRA.POLAR.0>
0

>  <SCORE.INTRA.REPUL>
0

>  <SCORE.INTRA.REPUL.0>
0

>  <SCORE.INTRA.SOLV>
0.708253

>  <SCORE.INTRA.SOLV.lig_0>
-47.5333

>  <SCORE.INTRA.VDW>
-0.336738

>  <SCORE.INTRA.VDW.0>
-0.287413

>  <SCORE.INTRA.norm>
-0.544681

>  <SCORE.RESTR>
0

>  <SCORE.RESTR.CAVITY>
0

>  <SCORE.RESTR.norm>
0

>  <SCORE.SYSTEM>
0

>  <SCORE.SYSTEM.CONST>
0

>  <SCORE.SYSTEM.DIHEDRAL>
0

>  <SCORE.SYSTEM.SOLV>
0

>  <SCORE.SYSTEM.norm>
0

>  <SCORE.heavy>
14

>  <SCORE.norm>
-0.778861

>  <RMSD>
55.387

$$$$
ligand
 OpenBabel11021811493D
libRbt.so/2013.1/901 2013/11/27
 14 13  0  0  0  0  0  0  0  0999 V2000
   -2.3011    6.1934    7.8156 N   0  0  0  0  0  0  0  0  0  0  0  0
   -0.9677    6.7491    7.7415 C   0  0  0  0  0  0  0  0  0  0  0  0
   -0.8569    7.6292    6.4795 C   0  0  0  0  0  0  0  0  0  0  0  0
    0.5063    8.3195    6.3177 C   0  0  0  0  0  0  0  0  0  0  0  0
    1.6572    7.4256    6.1179 N   0  0  0  0  0  0  0  0  0  0  0  0
    2.9924    7.8959    5.7531 C   0  0  0  0  0  0  0  0  0  0  0  0
    3.7387    8.5367    6.9187 C   0  0  0  0  0  0  0  0  0  0  0  0
    4.0719    7.5558    8.0476 C   0  0  0  0  0  0  0  0  0  0  0  0
    3.5955    8.0666    9.4125 C   0  0  0  0  0  0  0  0  0  0  0  0
    2.1389    8.1843    9.4038 N   0  0  0  0  0  0  0  0  0  0  0  0
    1.3451    8.7221   10.5101 C   0  0  0  0  0  0  0  0  0  0  0  0
    0.5456    7.6409   11.2504 C   0  0  0  0  0  0  0  0  0  0  0  0
   -0.3036    8.2440   12.3741 C   0  0  0  0  0  0  0  0  0  0  0  0
   -1.3748    9.0482   11.7934 N   0  0  0  0  0  0  0  0  0  0  0  0
  1  2  1  0  0  0  0
  2  3  1  0  0  0  0
  3  4  1  0  0  0  0
  4  5  1  0  0  0  0
  5  6  1  0  0  0  0
  6  7  1  0  0  0  0
  7  8  1  0  0  0  0
  8  9  1  0  0  0  0
  9 10  1  0  0  0  0
 10 11  1  0  0  0  0
 11 12  1  0  0  0  0
 12 13  1  0  0  0  0
 13 14  1  0  0  0  0
M  END
>  <CHROM.1>
177.88695176,64.33593868,170.76803222,75.43769583,65.63406300,-127.58181480
63.01306980,-175.96943182,-108.41592532,-178.34308794,68.71460766,1.05666026
7.87230117,8.56675255,2.19120091,0.17631722,1.38927772

>  <Name>
ligand

>  <RI>
0

>  <Rbt.Current_Directory>
/home/itssahil/PROJECTS/Mol_Feturizer/New_Systems/rnas/4FAW

>  <Rbt.Executable>
rbdock ($Id: //depot/dev/client3/rdock/2013.1/src/exe/rbdock.cxx#4 $)

>  <Rbt.Library>
libRbt.so (2013.1, Build901 2013/11/27)

>  <Rbt.Parameter_File>
/export/apps/rDock/src/rDock_2013.1_src/data/scripts/dock_solv.prm

>  <Rbt.Receptor>
prm/blind_docking_20.prm

>  <SCORE>
-4.26506

>  <SCORE.INTER>
2.12798

>  <SCORE.INTER.CONST>
1

>  <SCORE.INTER.POLAR>
0

>  <SCORE.INTER.ROT>
11

>  <SCORE.INTER.SOLV>
7.07556

>  <SCORE.INTER.VDW>
-11.8732

>  <SCORE.INTER.norm>
0.151998

>  <SCORE.INTRA>
-6.39304

>  <SCORE.INTRA.DIHEDRAL>
-11.3238

>  <SCORE.INTRA.DIHEDRAL.0>
19.1003

>  <SCORE.INTRA.POLAR>
0

>  <SCORE.INTRA.POLAR.0>
0

>  <SCORE.INTRA.REPUL>
0

>  <SCORE.INTRA.REPUL.0>
0

>  <SCORE.INTRA.SOLV>
2.15485

>  <SCORE.INTRA.SOLV.lig_0>
-47.5333

>  <SCORE.INTRA.VDW>
-1.80859

>  <SCORE.INTRA.VDW.0>
-0.287413

>  <SCORE.INTRA.norm>
-0.456646

>  <SCORE.RESTR>
0

>  <SCORE.RESTR.CAVITY>
0

>  <SCORE.RESTR.norm>
0

>  <SCORE.SYSTEM>
0

>  <SCORE.SYSTEM.CONST>
0

>  <SCORE.SYSTEM.DIHEDRAL>
0

>  <SCORE.SYSTEM.SOLV>
0

>  <SCORE.SYSTEM.norm>
0

>  <SCORE.heavy>
14

>  <SCORE.norm>
-0.304647

>  <RMSD>
55.396

$$$$
ligand
 OpenBabel11021811493D
libRbt.so/2013.1/901 2013/11/27
 14 13  0  0  0  0  0  0  0  0999 V2000
   -0.9268    6.4831    5.6145 N   0  0  0  0  0  0  0  0  0  0  0  0
   -1.1824    6.1370    6.9955 C   0  0  0  0  0  0  0  0  0  0  0  0
   -2.0563    7.2340    7.6376 C   0  0  0  0  0  0  0  0  0  0  0  0
   -2.2920    7.0424    9.1438 C   0  0  0  0  0  0  0  0  0  0  0  0
   -1.0818    6.9553    9.9754 N   0  0  0  0  0  0  0  0  0  0  0  0
   -0.0406    7.9812    9.9977 C   0  0  0  0  0  0  0  0  0  0  0  0
    0.7613    7.9897   11.2951 C   0  0  0  0  0  0  0  0  0  0  0  0
    1.7457    9.1591   11.4004 C   0  0  0  0  0  0  0  0  0  0  0  0
    3.0925    8.8380   10.7418 C   0  0  0  0  0  0  0  0  0  0  0  0
    2.8693    8.4344    9.3551 N   0  0  0  0  0  0  0  0  0  0  0  0
    3.8657    7.7648    8.5171 C   0  0  0  0  0  0  0  0  0  0  0  0
    3.4097    7.6075    7.0599 C   0  0  0  0  0  0  0  0  0  0  0  0
    3.1840    8.9691    6.3943 C   0  0  0  0  0  0  0  0  0  0  0  0
    2.8476    8.7707    4.9876 N   0  0  0  0  0  0  0  0  0  0  0  0
  1  2  1  0  0  0  0
  2  3  1  0  0  0  0
  3  4  1  0  0  0  0
  4  5  1  0  0  0  0
  5  6  1  0  0  0  0
  6  7  1  0  0  0  0
  7  8  1  0  0  0  0
  8  9  1  0  0  0  0
  9 10  1  0  0  0  0
 10 11  1  0  0  0  0
 11 12  1  0  0  0  0
 12 13  1  0  0  0  0
 13 14  1  0  0  0  0
M  END
>  <CHROM.1>
-174.79421939,56.85993735,55.70000981,155.33124451,-173.32876944,-86.30065181
55.26560280,-165.13843171,-173.37329090,62.23318802,175.90106093,1.01402537
7.81194068,8.50869540,-3.06858211,0.32048848,1.42542155

>  <Name>
ligand

>  <RI>
0

>  <Rbt.Current_Directory>
/home/itssahil/PROJECTS/Mol_Feturizer/New_Systems/rnas/4FAW

>  <Rbt.Executable>
rbdock ($Id: //depot/dev/client3/rdock/2013.1/src/exe/rbdock.cxx#4 $)

>  <Rbt.Library>
libRbt.so (2013.1, Build901 2013/11/27)

>  <Rbt.Parameter_File>
/export/apps/rDock/src/rDock_2013.1_src/data/scripts/dock_solv.prm

>  <Rbt.Receptor>
prm/blind_docking_20.prm

>  <SCORE>
-5.36404

>  <SCORE.INTER>
2.9819

>  <SCORE.INTER.CONST>
1

>  <SCORE.INTER.POLAR>
0

>  <SCORE.INTER.ROT>
11

>  <SCORE.INTER.SOLV>
9.41508

>  <SCORE.INTER.VDW>
-12.0838

>  <SCORE.INTER.norm>
0.212993

>  <SCORE.INTRA>
-8.34753

>  <SCORE.INTRA.DIHEDRAL>
-15.4988

>  <SCORE.INTRA.DIHEDRAL.0>
19.1003

>  <SCORE.INTRA.POLAR>
0

>  <SCORE.INTRA.POLAR.0>
0

>  <SCORE.INTRA.REPUL>
0

>  <SCORE.INTRA.REPUL.0>
0

>  <SCORE.INTRA.SOLV>
0.195

>  <SCORE.INTRA.SOLV.lig_0>
-47.5333

>  <SCORE.INTRA.VDW>
-0.695642

>  <SCORE.INTRA.VDW.0>
-0.287413

>  <SCORE.INTRA.norm>
-0.596252

>  <SCORE.RESTR>
0.00159288

>  <SCORE.RESTR.CAVITY>
0.00159288

>  <SCORE.RESTR.norm>
0.000113777

>  <SCORE.SYSTEM>
0

>  <SCORE.SYSTEM.CONST>
0

>  <SCORE.SYSTEM.DIHEDRAL>
0

>  <SCORE.SYSTEM.SOLV>
0

>  <SCORE.SYSTEM.norm>
0

>  <SCORE.heavy>
14

>  <SCORE.norm>
-0.383145

>  <RMSD>
55.415

$$$$
ligand
 OpenBabel11021811493D
libRbt.so/2013.1/901 2013/11/27
 14 13  0  0  0  0  0  0  0  0999 V2000
   10.7625   13.5953   40.0598 N   0  0  0  0  0  0  0  0  0  0  0  0
   11.1856   13.2060   38.7326 C   0  0  0  0  0  0  0  0  0  0  0  0
   11.0509   14.4154   37.7846 C   0  0  0  0  0  0  0  0  0  0  0  0
   11.4336   14.1122   36.3277 C   0  0  0  0  0  0  0  0  0  0  0  0
   12.8286   13.7028   36.1039 N   0  0  0  0  0  0  0  0  0  0  0  0
   13.5126   13.8313   34.8183 C   0  0  0  0  0  0  0  0  0  0  0  0
   14.9231   13.2511   34.8320 C   0  0  0  0  0  0  0  0  0  0  0  0
   14.9582   11.7267   34.9825 C   0  0  0  0  0  0  0  0  0  0  0  0
   16.3913   11.1818   34.9829 C   0  0  0  0  0  0  0  0  0  0  0  0
   16.3544    9.7228   34.9089 N   0  0  0  0  0  0  0  0  0  0  0  0
   16.2676    8.8368   36.0712 C   0  0  0  0  0  0  0  0  0  0  0  0
   16.6801    7.3932   35.7519 C   0  0  0  0  0  0  0  0  0  0  0  0
   18.1668    7.3026   35.3927 C   0  0  0  0  0  0  0  0  0  0  0  0
   18.4787    5.9435   34.9605 N   0  0  0  0  0  0  0  0  0  0  0  0
  1  2  1  0  0  0  0
  2  3  1  0  0  0  0
  3  4  1  0  0  0  0
  4  5  1  0  0  0  0
  5  6  1  0  0  0  0
  6  7  1  0  0  0  0
  7  8  1  0  0  0  0
  8  9  1  0  0  0  0
  9 10  1  0  0  0  0
 10 11  1  0  0  0  0
 11 12  1  0  0  0  0
 12 13  1  0  0  0  0
 13 14  1  0  0  0  0
M  END
>  <CHROM.1>
-178.27409951,-62.13767234,-157.35681928,-176.29807676,67.70634119,179.63632892
-170.84172346,-87.97656281,-162.09007877,65.95498287,-174.00564765,14.49952508
11.30176460,36.12194515,2.77638215,0.78098261,-0.70952112

>  <Name>
ligand

>  <RI>
0

>  <Rbt.Current_Directory>
/home/itssahil/PROJECTS/Mol_Feturizer/New_Systems/rnas/4FAW

>  <Rbt.Executable>
rbdock ($Id: //depot/dev/client3/rdock/2013.1/src/exe/rbdock.cxx#4 $)

>  <Rbt.Library>
libRbt.so (2013.1, Build901 2013/11/27)

>  <Rbt.Parameter_File>
/export/apps/rDock/src/rDock_2013.1_src/data/scripts/dock_solv.prm

>  <Rbt.Receptor>
prm/blind_docking_100.prm

>  <SCORE>
-14.3101

>  <SCORE.INTER>
-4.57982

>  <SCORE.INTER.CONST>
1

>  <SCORE.INTER.POLAR>
0

>  <SCORE.INTER.ROT>
11

>  <SCORE.INTER.SOLV>
9.66018

>  <SCORE.INTER.VDW>
-17.2066

>  <SCORE.INTER.norm>
-0.32713

>  <SCORE.INTRA>
-9.73024

>  <SCORE.INTRA.DIHEDRAL>
-17.103

>  <SCORE.INTRA.DIHEDRAL.0>
19.1003

>  <SCORE.INTRA.POLAR>
0

>  <SCORE.INTRA.POLAR.0>
0

>  <SCORE.INTRA.REPUL>
0

>  <SCORE.INTRA.REPUL.0>
0

>  <SCORE.INTRA.SOLV>
-0.486085

>  <SCORE.INTRA.SOLV.lig_0>
-47.5333

>  <SCORE.INTRA.VDW>
-0.935689

>  <SCORE.INTRA.VDW.0>
-0.287413

>  <SCORE.INTRA.norm>
-0.695017

>  <SCORE.RESTR>
0

>  <SCORE.RESTR.CAVITY>
0

>  <SCORE.RESTR.norm>
0

>  <SCORE.SYSTEM>
0

>  <SCORE.SYSTEM.CONST>
0

>  <SCORE.SYSTEM.DIHEDRAL>
0

>  <SCORE.SYSTEM.SOLV>
0

>  <SCORE.SYSTEM.norm>
0

>  <SCORE.heavy>
14

>  <SCORE.norm>
-1.02215

>  <RMSD>
55.427

$$$$
ligand
 OpenBabel11021811493D
libRbt.so/2013.1/901 2013/11/27
 14 13  0  0  0  0  0  0  0  0999 V2000
   10.5446   15.5669   39.6511 N   0  0  0  0  0  0  0  0  0  0  0  0
   11.1070   16.3103   38.5451 C   0  0  0  0  0  0  0  0  0  0  0  0
   11.3157   15.3572   37.3503 C   0  0  0  0  0  0  0  0  0  0  0  0
   12.3380   14.2407   37.6135 C   0  0  0  0  0  0  0  0  0  0  0  0
   12.6062   13.3384   36.4833 N   0  0  0  0  0  0  0  0  0  0  0  0
   13.2648   13.7622   35.2490 C   0  0  0  0  0  0  0  0  0  0  0  0
   14.3334   12.7823   34.7756 C   0  0  0  0  0  0  0  0  0  0  0  0
   15.6084   12.8074   35.6249 C   0  0  0  0  0  0  0  0  0  0  0  0
   16.6462   11.7910   35.1342 C   0  0  0  0  0  0  0  0  0  0  0  0
   16.2243   10.4452   35.5168 N   0  0  0  0  0  0  0  0  0  0  0  0
   17.0163    9.2344   35.2934 C   0  0  0  0  0  0  0  0  0  0  0  0
   18.2651    9.1668   36.1835 C   0  0  0  0  0  0  0  0  0  0  0  0
   19.1618    7.9849   35.8006 C   0  0  0  0  0  0  0  0  0  0  0  0
   20.3687    8.0066   36.6217 N   0  0  0  0  0  0  0  0  0  0  0  0
  1  2  1  0  0  0  0
  2  3  1  0  0  0  0
  3  4  1  0  0  0  0
  4  5  1  0  0  0  0
  5  6  1  0  0  0  0
  6  7  1  0  0  0  0
  7  8  1  0  0  0  0
  8  9  1  0  0  0  0
  9 10  1  0  0  0  0
 10 11  1  0  0  0  0
 11 12  1  0  0  0  0
 12 13  1  0  0  0  0
 13 14  1  0  0  0  0
M  END
>  <CHROM.1>
-63.98764652,-177.77649562,66.71709609,135.18846906,-73.09433935,178.90553427
-74.45556371,-175.65698778,69.83727269,-172.70099385,176.83312025,14.91431911
12.19973273,36.41708978,-2.97908524,0.73548424,-1.49913657

>  <Name>
ligand

>  <RI>
0

>  <Rbt.Current_Directory>
/home/itssahil/PROJECTS/Mol_Feturizer/New_Systems/rnas/4FAW

>  <Rbt.Executable>
rbdock ($Id: //depot/dev/client3/rdock/2013.1/src/exe/rbdock.cxx#4 $)

>  <Rbt.Library>
libRbt.so (2013.1, Build901 2013/11/27)

>  <Rbt.Parameter_File>
/export/apps/rDock/src/rDock_2013.1_src/data/scripts/dock_solv.prm

>  <Rbt.Receptor>
prm/blind_docking_60.prm

>  <SCORE>
-12.5438

>  <SCORE.INTER>
-3.77538

>  <SCORE.INTER.CONST>
1

>  <SCORE.INTER.POLAR>
0

>  <SCORE.INTER.ROT>
11

>  <SCORE.INTER.SOLV>
13.6405

>  <SCORE.INTER.VDW>
-17.9971

>  <SCORE.INTER.norm>
-0.26967

>  <SCORE.INTRA>
-8.76842

>  <SCORE.INTRA.DIHEDRAL>
-16.2524

>  <SCORE.INTRA.DIHEDRAL.0>
19.1003

>  <SCORE.INTRA.POLAR>
0

>  <SCORE.INTRA.POLAR.0>
0

>  <SCORE.INTRA.REPUL>
0

>  <SCORE.INTRA.REPUL.0>
0

>  <SCORE.INTRA.SOLV>
-0.126202

>  <SCORE.INTRA.SOLV.lig_0>
-47.5333

>  <SCORE.INTRA.VDW>
-0.579123

>  <SCORE.INTRA.VDW.0>
-0.287413

>  <SCORE.INTRA.norm>
-0.626316

>  <SCORE.RESTR>
0

>  <SCORE.RESTR.CAVITY>
0

>  <SCORE.RESTR.norm>
0

>  <SCORE.SYSTEM>
0

>  <SCORE.SYSTEM.CONST>
0

>  <SCORE.SYSTEM.DIHEDRAL>
0

>  <SCORE.SYSTEM.SOLV>
0

>  <SCORE.SYSTEM.norm>
0

>  <SCORE.heavy>
14

>  <SCORE.norm>
-0.895986

>  <RMSD>
55.456

$$$$
ligand
 OpenBabel11021811493D
libRbt.so/2013.1/901 2013/11/27
 14 13  0  0  0  0  0  0  0  0999 V2000
   11.2762   14.5515   40.0720 N   0  0  0  0  0  0  0  0  0  0  0  0
   11.8138   14.7628   38.7459 C   0  0  0  0  0  0  0  0  0  0  0  0
   10.9327   14.0212   37.7197 C   0  0  0  0  0  0  0  0  0  0  0  0
   11.4294   14.1382   36.2704 C   0  0  0  0  0  0  0  0  0  0  0  0
   12.7447   13.5408   35.9939 N   0  0  0  0  0  0  0  0  0  0  0  0
   13.6865   14.0775   35.0131 C   0  0  0  0  0  0  0  0  0  0  0  0
   14.7788   13.0848   34.6289 C   0  0  0  0  0  0  0  0  0  0  0  0
   15.6119   12.5981   35.8191 C   0  0  0  0  0  0  0  0  0  0  0  0
   16.7606   11.6820   35.3806 C   0  0  0  0  0  0  0  0  0  0  0  0
   16.2139   10.5222   34.6794 N   0  0  0  0  0  0  0  0  0  0  0  0
   15.6177    9.3601   35.3409 C   0  0  0  0  0  0  0  0  0  0  0  0
   16.6425    8.2598   35.6499 C   0  0  0  0  0  0  0  0  0  0  0  0
   17.3061    7.7382   34.3712 C   0  0  0  0  0  0  0  0  0  0  0  0
   18.2402    6.6692   34.7116 N   0  0  0  0  0  0  0  0  0  0  0  0
  1  2  1  0  0  0  0
  2  3  1  0  0  0  0
  3  4  1  0  0  0  0
  4  5  1  0  0  0  0
  5  6  1  0  0  0  0
  6  7  1  0  0  0  0
  7  8  1  0  0  0  0
  8  9  1  0  0  0  0
  9 10  1  0  0  0  0
 10 11  1  0  0  0  0
 11 12  1  0  0  0  0
 12 13  1  0  0  0  0
 13 14  1  0  0  0  0
M  END
>  <CHROM.1>
-178.32112626,63.47730717,-146.89422043,-163.65898307,-58.20507970,-175.90815155
-59.17432891,-79.08886407,-90.23643855,-60.31065544,-178.31510253,14.50387058
11.78636714,36.02820196,2.83248732,0.84635608,-0.71066860

>  <Name>
ligand

>  <RI>
0

>  <Rbt.Current_Directory>
/home/itssahil/PROJECTS/Mol_Feturizer/New_Systems/rnas/4FAW

>  <Rbt.Executable>
rbdock ($Id: //depot/dev/client3/rdock/2013.1/src/exe/rbdock.cxx#4 $)

>  <Rbt.Library>
libRbt.so (2013.1, Build901 2013/11/27)

>  <Rbt.Parameter_File>
/export/apps/rDock/src/rDock_2013.1_src/data/scripts/dock_solv.prm

>  <Rbt.Receptor>
prm/blind_docking_80.prm

>  <SCORE>
-13.3839

>  <SCORE.INTER>
-4.15976

>  <SCORE.INTER.CONST>
1

>  <SCORE.INTER.POLAR>
0

>  <SCORE.INTER.ROT>
11

>  <SCORE.INTER.SOLV>
9.04316

>  <SCORE.INTER.VDW>
-16.7209

>  <SCORE.INTER.norm>
-0.297125

>  <SCORE.INTRA>
-9.22416

>  <SCORE.INTRA.DIHEDRAL>
-17.1616

>  <SCORE.INTRA.DIHEDRAL.0>
19.1003

>  <SCORE.INTRA.POLAR>
0

>  <SCORE.INTRA.POLAR.0>
0

>  <SCORE.INTRA.REPUL>
0

>  <SCORE.INTRA.REPUL.0>
0

>  <SCORE.INTRA.SOLV>
-0.0172187

>  <SCORE.INTRA.SOLV.lig_0>
-47.5333

>  <SCORE.INTRA.VDW>
-0.634772

>  <SCORE.INTRA.VDW.0>
-0.287413

>  <SCORE.INTRA.norm>
-0.658869

>  <SCORE.RESTR>
0

>  <SCORE.RESTR.CAVITY>
0

>  <SCORE.RESTR.norm>
0

>  <SCORE.SYSTEM>
0

>  <SCORE.SYSTEM.CONST>
0

>  <SCORE.SYSTEM.DIHEDRAL>
0

>  <SCORE.SYSTEM.SOLV>
0

>  <SCORE.SYSTEM.norm>
0

>  <SCORE.heavy>
14

>  <SCORE.norm>
-0.955994

>  <RMSD>
55.457

$$$$
ligand
 OpenBabel11021811493D
libRbt.so/2013.1/901 2013/11/27
 14 13  0  0  0  0  0  0  0  0999 V2000
    7.5969   10.4566   26.9485 N   0  0  0  0  0  0  0  0  0  0  0  0
    7.6516   11.4861   25.9340 C   0  0  0  0  0  0  0  0  0  0  0  0
    9.0639   11.5096   25.3140 C   0  0  0  0  0  0  0  0  0  0  0  0
   10.1767   11.8721   26.3097 C   0  0  0  0  0  0  0  0  0  0  0  0
   10.0462   13.1814   26.9672 N   0  0  0  0  0  0  0  0  0  0  0  0
    9.9841   14.4484   26.2406 C   0  0  0  0  0  0  0  0  0  0  0  0
    9.4720   15.6026   27.0961 C   0  0  0  0  0  0  0  0  0  0  0  0
    9.0972   16.8478   26.2858 C   0  0  0  0  0  0  0  0  0  0  0  0
    8.6053   17.9904   27.1820 C   0  0  0  0  0  0  0  0  0  0  0  0
    8.1323   19.0919   26.3461 N   0  0  0  0  0  0  0  0  0  0  0  0
    8.9880   19.8903   25.4665 C   0  0  0  0  0  0  0  0  0  0  0  0
    8.1883   20.7596   24.4862 C   0  0  0  0  0  0  0  0  0  0  0  0
    7.3730   21.8277   25.2223 C   0  0  0  0  0  0  0  0  0  0  0  0
    6.6925   22.6750   24.2475 N   0  0  0  0  0  0  0  0  0  0  0  0
  1  2  1  0  0  0  0
  2  3  1  0  0  0  0
  3  4  1  0  0  0  0
  4  5  1  0  0  0  0
  5  6  1  0  0  0  0
  6  7  1  0  0  0  0
  7  8  1  0  0  0  0
  8  9  1  0  0  0  0
  9 10  1  0  0  0  0
 10 11  1  0  0  0  0
 11 12  1  0  0  0  0
 12 13  1  0  0  0  0
 13 14  1  0  0  0  0
M  END
>  <CHROM.1>
-62.99553907,-58.95425664,-58.74648596,164.18171506,-166.77703787,-179.24173076
-174.06008991,-65.75580916,167.22810453,65.10423671,176.77491261,8.64792772
16.25992524,26.00327125,1.42952497,0.49668466,3.07885877

>  <Name>
ligand

>  <RI>
0

>  <Rbt.Current_Directory>
/home/itssahil/PROJECTS/Mol_Feturizer/New_Systems/rnas/4FAW

>  <Rbt.Executable>
rbdock ($Id: //depot/dev/client3/rdock/2013.1/src/exe/rbdock.cxx#4 $)

>  <Rbt.Library>
libRbt.so (2013.1, Build901 2013/11/27)

>  <Rbt.Parameter_File>
/export/apps/rDock/src/rDock_2013.1_src/data/scripts/dock_solv.prm

>  <Rbt.Receptor>
prm/blind_docking_60.prm

>  <SCORE>
-9.98204

>  <SCORE.INTER>
-1.02433

>  <SCORE.INTER.CONST>
1

>  <SCORE.INTER.POLAR>
0

>  <SCORE.INTER.ROT>
11

>  <SCORE.INTER.SOLV>
10.4243

>  <SCORE.INTER.VDW>
-15.091

>  <SCORE.INTER.norm>
-0.0731662

>  <SCORE.INTRA>
-8.95771

>  <SCORE.INTRA.DIHEDRAL>
-17.8029

>  <SCORE.INTRA.DIHEDRAL.0>
19.1003

>  <SCORE.INTRA.POLAR>
0

>  <SCORE.INTRA.POLAR.0>
0

>  <SCORE.INTRA.REPUL>
0

>  <SCORE.INTRA.REPUL.0>
0

>  <SCORE.INTRA.SOLV>
0.577238

>  <SCORE.INTRA.SOLV.lig_0>
-47.5333

>  <SCORE.INTRA.VDW>
-0.344887

>  <SCORE.INTRA.VDW.0>
-0.287413

>  <SCORE.INTRA.norm>
-0.639836

>  <SCORE.RESTR>
0

>  <SCORE.RESTR.CAVITY>
0

>  <SCORE.RESTR.norm>
0

>  <SCORE.SYSTEM>
0

>  <SCORE.SYSTEM.CONST>
0

>  <SCORE.SYSTEM.DIHEDRAL>
0

>  <SCORE.SYSTEM.SOLV>
0

>  <SCORE.SYSTEM.norm>
0

>  <SCORE.heavy>
14

>  <SCORE.norm>
-0.713003

>  <RMSD>
55.459

$$$$
ligand
 OpenBabel11021811493D
libRbt.so/2013.1/901 2013/11/27
 14 13  0  0  0  0  0  0  0  0999 V2000
    5.1500   18.7842   20.4310 N   0  0  0  0  0  0  0  0  0  0  0  0
    4.6682   17.7517   21.3222 C   0  0  0  0  0  0  0  0  0  0  0  0
    4.8331   18.2262   22.7807 C   0  0  0  0  0  0  0  0  0  0  0  0
    6.2918   18.4740   23.1952 C   0  0  0  0  0  0  0  0  0  0  0  0
    6.4880   19.0509   24.5340 N   0  0  0  0  0  0  0  0  0  0  0  0
    7.7239   19.7058   24.9590 C   0  0  0  0  0  0  0  0  0  0  0  0
    8.1871   20.7913   23.9927 C   0  0  0  0  0  0  0  0  0  0  0  0
    9.3095   21.6719   24.5514 C   0  0  0  0  0  0  0  0  0  0  0  0
   10.5845   20.8683   24.8333 C   0  0  0  0  0  0  0  0  0  0  0  0
   11.6178   21.7646   25.3476 N   0  0  0  0  0  0  0  0  0  0  0  0
   12.9369   21.9434   24.7381 C   0  0  0  0  0  0  0  0  0  0  0  0
   12.8853   22.7468   23.4311 C   0  0  0  0  0  0  0  0  0  0  0  0
   12.3051   24.1467   23.6575 C   0  0  0  0  0  0  0  0  0  0  0  0
   12.2737   24.8689   22.3892 N   0  0  0  0  0  0  0  0  0  0  0  0
  1  2  1  0  0  0  0
  2  3  1  0  0  0  0
  3  4  1  0  0  0  0
  4  5  1  0  0  0  0
  5  6  1  0  0  0  0
  6  7  1  0  0  0  0
  7  8  1  0  0  0  0
  8  9  1  0  0  0  0
  9 10  1  0  0  0  0
 10 11  1  0  0  0  0
 11 12  1  0  0  0  0
 12 13  1  0  0  0  0
 13 14  1  0  0  0  0
M  END
>  <CHROM.1>
-62.54649739,174.32138616,-161.79411041,51.86783798,168.44751862,62.88468469
179.35200217,-122.78494438,73.03184921,59.70724890,-179.87533296,8.94680469
20.77090758,23.58323668,3.07171699,0.61567279,2.01527942

>  <Name>
ligand

>  <RI>
0

>  <Rbt.Current_Directory>
/home/itssahil/PROJECTS/Mol_Feturizer/New_Systems/rnas/4FAW

>  <Rbt.Executable>
rbdock ($Id: //depot/dev/client3/rdock/2013.1/src/exe/rbdock.cxx#4 $)

>  <Rbt.Library>
libRbt.so (2013.1, Build901 2013/11/27)

>  <Rbt.Parameter_File>
/export/apps/rDock/src/rDock_2013.1_src/data/scripts/dock_solv.prm

>  <Rbt.Receptor>
prm/blind_docking_60.prm

>  <SCORE>
-10.3635

>  <SCORE.INTER>
-2.12645

>  <SCORE.INTER.CONST>
1

>  <SCORE.INTER.POLAR>
0

>  <SCORE.INTER.ROT>
11

>  <SCORE.INTER.SOLV>
16.966

>  <SCORE.INTER.VDW>
-18.0063

>  <SCORE.INTER.norm>
-0.151889

>  <SCORE.INTRA>
-8.2371

>  <SCORE.INTRA.DIHEDRAL>
-16.7941

>  <SCORE.INTRA.DIHEDRAL.0>
19.1003

>  <SCORE.INTRA.POLAR>
0

>  <SCORE.INTRA.POLAR.0>
0

>  <SCORE.INTRA.REPUL>
0

>  <SCORE.INTRA.REPUL.0>
0

>  <SCORE.INTRA.SOLV>
-0.144765

>  <SCORE.INTRA.SOLV.lig_0>
-47.5333

>  <SCORE.INTRA.VDW>
0.232323

>  <SCORE.INTRA.VDW.0>
-0.287413

>  <SCORE.INTRA.norm>
-0.588364

>  <SCORE.RESTR>
0

>  <SCORE.RESTR.CAVITY>
0

>  <SCORE.RESTR.norm>
0

>  <SCORE.SYSTEM>
0

>  <SCORE.SYSTEM.CONST>
0

>  <SCORE.SYSTEM.DIHEDRAL>
0

>  <SCORE.SYSTEM.SOLV>
0

>  <SCORE.SYSTEM.norm>
0

>  <SCORE.heavy>
14

>  <SCORE.norm>
-0.740253

>  <RMSD>
55.478

$$$$
ligand
 OpenBabel11021811493D
libRbt.so/2013.1/901 2013/11/27
 14 13  0  0  0  0  0  0  0  0999 V2000
   17.6014    7.9940   32.3646 N   0  0  0  0  0  0  0  0  0  0  0  0
   17.5061    8.8223   33.5465 C   0  0  0  0  0  0  0  0  0  0  0  0
   16.6724    8.0846   34.6143 C   0  0  0  0  0  0  0  0  0  0  0  0
   16.5130    8.8630   35.9294 C   0  0  0  0  0  0  0  0  0  0  0  0
   15.7476   10.1161   35.8433 N   0  0  0  0  0  0  0  0  0  0  0  0
   16.3490   11.4418   35.9765 C   0  0  0  0  0  0  0  0  0  0  0  0
   15.3193   12.5669   35.9807 C   0  0  0  0  0  0  0  0  0  0  0  0
   14.5377   12.6883   34.6685 C   0  0  0  0  0  0  0  0  0  0  0  0
   13.6467   13.9358   34.6433 C   0  0  0  0  0  0  0  0  0  0  0  0
   12.5319   13.7533   35.5705 N   0  0  0  0  0  0  0  0  0  0  0  0
   12.4682   14.3338   36.9130 C   0  0  0  0  0  0  0  0  0  0  0  0
   11.1733   13.9762   37.6558 C   0  0  0  0  0  0  0  0  0  0  0  0
   11.1278   14.6231   39.0440 C   0  0  0  0  0  0  0  0  0  0  0  0
    9.9208   14.1891   39.7412 N   0  0  0  0  0  0  0  0  0  0  0  0
  1  2  1  0  0  0  0
  2  3  1  0  0  0  0
  3  4  1  0  0  0  0
  4  5  1  0  0  0  0
  5  6  1  0  0  0  0
  6  7  1  0  0  0  0
  7  8  1  0  0  0  0
  8  9  1  0  0  0  0
  9 10  1  0  0  0  0
 10 11  1  0  0  0  0
 11 12  1  0  0  0  0
 12 13  1  0  0  0  0
 13 14  1  0  0  0  0
M  END
>  <CHROM.1>
179.35829038,65.31345342,-109.79185128,-174.51222324,-63.75420684,-172.57999687
-70.75239984,100.77590357,179.74692418,-178.82949294,-176.54091979,14.36554998
11.81356682,35.89226267,-0.07918136,0.86380040,-0.84332266

>  <Name>
ligand

>  <RI>
0

>  <Rbt.Current_Directory>
/home/itssahil/PROJECTS/Mol_Feturizer/New_Systems/rnas/4FAW

>  <Rbt.Executable>
rbdock ($Id: //depot/dev/client3/rdock/2013.1/src/exe/rbdock.cxx#4 $)

>  <Rbt.Library>
libRbt.so (2013.1, Build901 2013/11/27)

>  <Rbt.Parameter_File>
/export/apps/rDock/src/rDock_2013.1_src/data/scripts/dock_solv.prm

>  <Rbt.Receptor>
prm/blind_docking_80.prm

>  <SCORE>
-11.9321

>  <SCORE.INTER>
-2.45248

>  <SCORE.INTER.CONST>
1

>  <SCORE.INTER.POLAR>
0

>  <SCORE.INTER.ROT>
11

>  <SCORE.INTER.SOLV>
10.7662

>  <SCORE.INTER.VDW>
-16.1571

>  <SCORE.INTER.norm>
-0.175177

>  <SCORE.INTRA>
-9.4796

>  <SCORE.INTRA.DIHEDRAL>
-16.1733

>  <SCORE.INTRA.DIHEDRAL.0>
19.1003

>  <SCORE.INTRA.POLAR>
0

>  <SCORE.INTRA.POLAR.0>
0

>  <SCORE.INTRA.REPUL>
0

>  <SCORE.INTRA.REPUL.0>
0

>  <SCORE.INTRA.SOLV>
-0.498996

>  <SCORE.INTRA.SOLV.lig_0>
-47.5333

>  <SCORE.INTRA.VDW>
-1.14344

>  <SCORE.INTRA.VDW.0>
-0.287413

>  <SCORE.INTRA.norm>
-0.677114

>  <SCORE.RESTR>
0

>  <SCORE.RESTR.CAVITY>
0

>  <SCORE.RESTR.norm>
0

>  <SCORE.SYSTEM>
0

>  <SCORE.SYSTEM.CONST>
0

>  <SCORE.SYSTEM.DIHEDRAL>
0

>  <SCORE.SYSTEM.SOLV>
0

>  <SCORE.SYSTEM.norm>
0

>  <SCORE.heavy>
14

>  <SCORE.norm>
-0.852291

>  <RMSD>
55.493

$$$$
ligand
 OpenBabel11021811493D
libRbt.so/2013.1/901 2013/11/27
 14 13  0  0  0  0  0  0  0  0999 V2000
   -2.5603    7.0401   11.0491 N   0  0  0  0  0  0  0  0  0  0  0  0
   -1.8810    6.1788   11.9919 C   0  0  0  0  0  0  0  0  0  0  0  0
   -0.9254    7.0287   12.8545 C   0  0  0  0  0  0  0  0  0  0  0  0
    0.2177    7.6811   12.0616 C   0  0  0  0  0  0  0  0  0  0  0  0
   -0.1777    8.7439   11.1248 N   0  0  0  0  0  0  0  0  0  0  0  0
   -0.0360    8.6367    9.6738 C   0  0  0  0  0  0  0  0  0  0  0  0
    1.4143    8.4905    9.2248 C   0  0  0  0  0  0  0  0  0  0  0  0
    1.5856    8.4627    7.7025 C   0  0  0  0  0  0  0  0  0  0  0  0
    3.0313    8.1587    7.2920 C   0  0  0  0  0  0  0  0  0  0  0  0
    3.0978    7.9924    5.8417 N   0  0  0  0  0  0  0  0  0  0  0  0
    2.3585    6.9766    5.0900 C   0  0  0  0  0  0  0  0  0  0  0  0
    2.9992    6.6564    3.7324 C   0  0  0  0  0  0  0  0  0  0  0  0
    2.1310    5.6922    2.9175 C   0  0  0  0  0  0  0  0  0  0  0  0
    0.8634    6.3392    2.5918 N   0  0  0  0  0  0  0  0  0  0  0  0
  1  2  1  0  0  0  0
  2  3  1  0  0  0  0
  3  4  1  0  0  0  0
  4  5  1  0  0  0  0
  5  6  1  0  0  0  0
  6  7  1  0  0  0  0
  7  8  1  0  0  0  0
  8  9  1  0  0  0  0
  9 10  1  0  0  0  0
 10 11  1  0  0  0  0
 11 12  1  0  0  0  0
 12 13  1  0  0  0  0
 13 14  1  0  0  0  0
M  END
>  <CHROM.1>
-64.43145790,68.50520845,-114.60762525,-62.51660128,-176.48356843,-173.62318750
173.47245787,-60.06415093,-157.26924440,-174.57006488,64.45959319,0.86583960
7.43411214,8.08221540,2.04301357,0.56326112,1.21333399

>  <Name>
ligand

>  <RI>
0

>  <Rbt.Current_Directory>
/home/itssahil/PROJECTS/Mol_Feturizer/New_Systems/rnas/4FAW

>  <Rbt.Executable>
rbdock ($Id: //depot/dev/client3/rdock/2013.1/src/exe/rbdock.cxx#4 $)

>  <Rbt.Library>
libRbt.so (2013.1, Build901 2013/11/27)

>  <Rbt.Parameter_File>
/export/apps/rDock/src/rDock_2013.1_src/data/scripts/dock_solv.prm

>  <Rbt.Receptor>
prm/blind_docking_20.prm

>  <SCORE>
-3.99525

>  <SCORE.INTER>
3.06023

>  <SCORE.INTER.CONST>
1

>  <SCORE.INTER.POLAR>
0

>  <SCORE.INTER.ROT>
11

>  <SCORE.INTER.SOLV>
6.28828

>  <SCORE.INTER.VDW>
-10.9893

>  <SCORE.INTER.norm>
0.218588

>  <SCORE.INTRA>
-7.05547

>  <SCORE.INTRA.DIHEDRAL>
-16.6376

>  <SCORE.INTRA.DIHEDRAL.0>
19.1003

>  <SCORE.INTRA.POLAR>
0

>  <SCORE.INTRA.POLAR.0>
0

>  <SCORE.INTRA.REPUL>
0

>  <SCORE.INTRA.REPUL.0>
0

>  <SCORE.INTRA.SOLV>
2.85712

>  <SCORE.INTRA.SOLV.lig_0>
-47.5333

>  <SCORE.INTRA.VDW>
-0.165213

>  <SCORE.INTRA.VDW.0>
-0.287413

>  <SCORE.INTRA.norm>
-0.503962

>  <SCORE.RESTR>
0

>  <SCORE.RESTR.CAVITY>
0

>  <SCORE.RESTR.norm>
0

>  <SCORE.SYSTEM>
0

>  <SCORE.SYSTEM.CONST>
0

>  <SCORE.SYSTEM.DIHEDRAL>
0

>  <SCORE.SYSTEM.SOLV>
0

>  <SCORE.SYSTEM.norm>
0

>  <SCORE.heavy>
14

>  <SCORE.norm>
-0.285375

>  <RMSD>
55.534

$$$$
ligand
 OpenBabel11021811493D
libRbt.so/2013.1/901 2013/11/27
 14 13  0  0  0  0  0  0  0  0999 V2000
   21.0474    8.0201   36.9142 N   0  0  0  0  0  0  0  0  0  0  0  0
   19.7573    8.0929   36.2643 C   0  0  0  0  0  0  0  0  0  0  0  0
   19.0106    9.3472   36.7632 C   0  0  0  0  0  0  0  0  0  0  0  0
   17.6203    9.5363   36.1370 C   0  0  0  0  0  0  0  0  0  0  0  0
   16.9880   10.8448   36.3643 N   0  0  0  0  0  0  0  0  0  0  0  0
   15.8310   11.3255   35.6111 C   0  0  0  0  0  0  0  0  0  0  0  0
   15.7044   12.8454   35.6171 C   0  0  0  0  0  0  0  0  0  0  0  0
   14.4865   13.3628   34.8447 C   0  0  0  0  0  0  0  0  0  0  0  0
   13.1720   13.0580   35.5727 C   0  0  0  0  0  0  0  0  0  0  0  0
   13.1174   13.8257   36.8150 N   0  0  0  0  0  0  0  0  0  0  0  0
   11.9822   13.8250   37.7395 C   0  0  0  0  0  0  0  0  0  0  0  0
   11.9558   12.5890   38.6494 C   0  0  0  0  0  0  0  0  0  0  0  0
   10.6564   12.5174   39.4582 C   0  0  0  0  0  0  0  0  0  0  0  0
   10.5915   13.6540   40.3721 N   0  0  0  0  0  0  0  0  0  0  0  0
  1  2  1  0  0  0  0
  2  3  1  0  0  0  0
  3  4  1  0  0  0  0
  4  5  1  0  0  0  0
  5  6  1  0  0  0  0
  6  7  1  0  0  0  0
  7  8  1  0  0  0  0
  8  9  1  0  0  0  0
  9 10  1  0  0  0  0
 10 11  1  0  0  0  0
 11 12  1  0  0  0  0
 12 13  1  0  0  0  0
 13 14  1  0  0  0  0
M  END
>  <CHROM.1>
179.82392467,-167.94745861,165.40320391,-157.11499496,-179.33453665,71.09243798
66.71878102,177.42105105,79.54969922,-171.80257052,-64.63810256,15.13708667
11.63174672,36.93705650,0.06302082,-0.55810438,2.11011694

>  <Name>
ligand

>  <RI>
0

>  <Rbt.Current_Directory>
/home/itssahil/PROJECTS/Mol_Feturizer/New_Systems/rnas/4FAW

>  <Rbt.Executable>
rbdock ($Id: //depot/dev/client3/rdock/2013.1/src/exe/rbdock.cxx#4 $)

>  <Rbt.Library>
libRbt.so (2013.1, Build901 2013/11/27)

>  <Rbt.Parameter_File>
/export/apps/rDock/src/rDock_2013.1_src/data/scripts/dock_solv.prm

>  <Rbt.Receptor>
prm/blind_docking_60.prm

>  <SCORE>
-13.056

>  <SCORE.INTER>
-4.26684

>  <SCORE.INTER.CONST>
1

>  <SCORE.INTER.POLAR>
0

>  <SCORE.INTER.ROT>
11

>  <SCORE.INTER.SOLV>
16.1772

>  <SCORE.INTER.VDW>
-19.1703

>  <SCORE.INTER.norm>
-0.304774

>  <SCORE.INTRA>
-8.78919

>  <SCORE.INTRA.DIHEDRAL>
-16.723

>  <SCORE.INTRA.DIHEDRAL.0>
19.1003

>  <SCORE.INTRA.POLAR>
0

>  <SCORE.INTRA.POLAR.0>
0

>  <SCORE.INTRA.REPUL>
0

>  <SCORE.INTRA.REPUL.0>
0

>  <SCORE.INTRA.SOLV>
-0.0912853

>  <SCORE.INTRA.SOLV.lig_0>
-47.5333

>  <SCORE.INTRA.VDW>
-0.382032

>  <SCORE.INTRA.VDW.0>
-0.287413

>  <SCORE.INTRA.norm>
-0.6278

>  <SCORE.RESTR>
0

>  <SCORE.RESTR.CAVITY>
0

>  <SCORE.RESTR.norm>
0

>  <SCORE.SYSTEM>
0

>  <SCORE.SYSTEM.CONST>
0

>  <SCORE.SYSTEM.DIHEDRAL>
0

>  <SCORE.SYSTEM.SOLV>
0

>  <SCORE.SYSTEM.norm>
0

>  <SCORE.heavy>
14

>  <SCORE.norm>
-0.932574

>  <RMSD>
55.536

$$$$
ligand
 OpenBabel11021811493D
libRbt.so/2013.1/901 2013/11/27
 14 13  0  0  0  0  0  0  0  0999 V2000
   11.6056   14.1437   40.0374 N   0  0  0  0  0  0  0  0  0  0  0  0
   11.7071   13.6370   38.6864 C   0  0  0  0  0  0  0  0  0  0  0  0
   11.2067   14.7157   37.7037 C   0  0  0  0  0  0  0  0  0  0  0  0
   11.1937   14.2642   36.2350 C   0  0  0  0  0  0  0  0  0  0  0  0
   12.5079   13.9696   35.6438 N   0  0  0  0  0  0  0  0  0  0  0  0
   13.2656   12.7512   35.9235 C   0  0  0  0  0  0  0  0  0  0  0  0
   14.3578   12.4780   34.8946 C   0  0  0  0  0  0  0  0  0  0  0  0
   14.9648   11.0752   35.0017 C   0  0  0  0  0  0  0  0  0  0  0  0
   15.8230   10.9148   36.2621 C   0  0  0  0  0  0  0  0  0  0  0  0
   16.0871    9.4957   36.4905 N   0  0  0  0  0  0  0  0  0  0  0  0
   16.8730    8.6453   35.5947 C   0  0  0  0  0  0  0  0  0  0  0  0
   16.6857    7.1483   35.8781 C   0  0  0  0  0  0  0  0  0  0  0  0
   17.5094    6.2890   34.9133 C   0  0  0  0  0  0  0  0  0  0  0  0
   18.9309    6.5265   35.1461 N   0  0  0  0  0  0  0  0  0  0  0  0
  1  2  1  0  0  0  0
  2  3  1  0  0  0  0
  3  4  1  0  0  0  0
  4  5  1  0  0  0  0
  5  6  1  0  0  0  0
  6  7  1  0  0  0  0
  7  8  1  0  0  0  0
  8  9  1  0  0  0  0
  9 10  1  0  0  0  0
 10 11  1  0  0  0  0
 11 12  1  0  0  0  0
 12 13  1  0  0  0  0
 13 14  1  0  0  0  0
M  END
>  <CHROM.1>
-176.82137143,-64.76644305,75.86153132,162.30934113,-168.09333196,-70.38512457
165.62745977,64.98756706,-165.03184658,179.36305748,65.14375310,14.47975929
11.14677300,36.31483655,3.13716491,0.88944129,-1.24921009

>  <Name>
ligand

>  <RI>
0

>  <Rbt.Current_Directory>
/home/itssahil/PROJECTS/Mol_Feturizer/New_Systems/rnas/4FAW

>  <Rbt.Executable>
rbdock ($Id: //depot/dev/client3/rdock/2013.1/src/exe/rbdock.cxx#4 $)

>  <Rbt.Library>
libRbt.so (2013.1, Build901 2013/11/27)

>  <Rbt.Parameter_File>
/export/apps/rDock/src/rDock_2013.1_src/data/scripts/dock_solv.prm

>  <Rbt.Receptor>
prm/blind_docking_80.prm

>  <SCORE>
-11.4841

>  <SCORE.INTER>
-3.18716

>  <SCORE.INTER.CONST>
1

>  <SCORE.INTER.POLAR>
0

>  <SCORE.INTER.ROT>
11

>  <SCORE.INTER.SOLV>
10.4625

>  <SCORE.INTER.VDW>
-16.5456

>  <SCORE.INTER.norm>
-0.227654

>  <SCORE.INTRA>
-8.2969

>  <SCORE.INTRA.DIHEDRAL>
-16.5396

>  <SCORE.INTRA.DIHEDRAL.0>
19.1003

>  <SCORE.INTRA.POLAR>
0

>  <SCORE.INTRA.POLAR.0>
0

>  <SCORE.INTRA.REPUL>
0

>  <SCORE.INTRA.REPUL.0>
0

>  <SCORE.INTRA.SOLV>
-0.174841

>  <SCORE.INTRA.SOLV.lig_0>
-47.5333

>  <SCORE.INTRA.VDW>
0.06031

>  <SCORE.INTRA.VDW.0>
-0.287413

>  <SCORE.INTRA.norm>
-0.592636

>  <SCORE.RESTR>
0

>  <SCORE.RESTR.CAVITY>
0

>  <SCORE.RESTR.norm>
0

>  <SCORE.SYSTEM>
0

>  <SCORE.SYSTEM.CONST>
0

>  <SCORE.SYSTEM.DIHEDRAL>
0

>  <SCORE.SYSTEM.SOLV>
0

>  <SCORE.SYSTEM.norm>
0

>  <SCORE.heavy>
14

>  <SCORE.norm>
-0.82029

>  <RMSD>
55.540

$$$$
ligand
 OpenBabel11021811493D
libRbt.so/2013.1/901 2013/11/27
 14 13  0  0  0  0  0  0  0  0999 V2000
    9.6047   13.2658   39.6070 N   0  0  0  0  0  0  0  0  0  0  0  0
   10.5037   13.7167   38.5675 C   0  0  0  0  0  0  0  0  0  0  0  0
   11.7890   12.8646   38.6069 C   0  0  0  0  0  0  0  0  0  0  0  0
   12.8679   13.3160   37.6102 C   0  0  0  0  0  0  0  0  0  0  0  0
   12.5138   13.2005   36.1873 N   0  0  0  0  0  0  0  0  0  0  0  0
   13.3595   13.6925   35.1012 C   0  0  0  0  0  0  0  0  0  0  0  0
   14.5037   12.7438   34.7589 C   0  0  0  0  0  0  0  0  0  0  0  0
   15.6076   12.7055   35.8208 C   0  0  0  0  0  0  0  0  0  0  0  0
   16.7510   11.7625   35.4279 C   0  0  0  0  0  0  0  0  0  0  0  0
   16.2905   10.3787   35.5203 N   0  0  0  0  0  0  0  0  0  0  0  0
   17.1751    9.2129   35.5623 C   0  0  0  0  0  0  0  0  0  0  0  0
   16.4103    7.8828   35.5166 C   0  0  0  0  0  0  0  0  0  0  0  0
   17.3609    6.6866   35.6312 C   0  0  0  0  0  0  0  0  0  0  0  0
   18.2267    6.6416   34.4566 N   0  0  0  0  0  0  0  0  0  0  0  0
  1  2  1  0  0  0  0
  2  3  1  0  0  0  0
  3  4  1  0  0  0  0
  4  5  1  0  0  0  0
  5  6  1  0  0  0  0
  6  7  1  0  0  0  0
  7  8  1  0  0  0  0
  8  9  1  0  0  0  0
  9 10  1  0  0  0  0
 10 11  1  0  0  0  0
 11 12  1  0  0  0  0
 12 13  1  0  0  0  0
 13 14  1  0  0  0  0
M  END
>  <CHROM.1>
-175.84973794,-64.14063914,174.20648078,80.14824597,-71.80550841,-178.88561879
-71.07588632,-163.37465954,-174.18279728,-177.21661936,-65.36956600,14.49759809
11.29092334,36.31243001,2.66957909,0.66588147,-0.39256443

>  <Name>
ligand

>  <RI>
0

>  <Rbt.Current_Directory>
/home/itssahil/PROJECTS/Mol_Feturizer/New_Systems/rnas/4FAW

>  <Rbt.Executable>
rbdock ($Id: //depot/dev/client3/rdock/2013.1/src/exe/rbdock.cxx#4 $)

>  <Rbt.Library>
libRbt.so (2013.1, Build901 2013/11/27)

>  <Rbt.Parameter_File>
/export/apps/rDock/src/rDock_2013.1_src/data/scripts/dock_solv.prm

>  <Rbt.Receptor>
prm/blind_docking_80.prm

>  <SCORE>
-13.0348

>  <SCORE.INTER>
-3.76995

>  <SCORE.INTER.CONST>
1

>  <SCORE.INTER.POLAR>
0

>  <SCORE.INTER.ROT>
11

>  <SCORE.INTER.SOLV>
10.1391

>  <SCORE.INTER.VDW>
-16.8263

>  <SCORE.INTER.norm>
-0.269282

>  <SCORE.INTRA>
-9.26838

>  <SCORE.INTRA.DIHEDRAL>
-17.2936

>  <SCORE.INTRA.DIHEDRAL.0>
19.1003

>  <SCORE.INTRA.POLAR>
0

>  <SCORE.INTRA.POLAR.0>
0

>  <SCORE.INTRA.REPUL>
0

>  <SCORE.INTRA.REPUL.0>
0

>  <SCORE.INTRA.SOLV>
0.236525

>  <SCORE.INTRA.SOLV.lig_0>
-47.5333

>  <SCORE.INTRA.VDW>
-0.73983

>  <SCORE.INTRA.VDW.0>
-0.287413

>  <SCORE.INTRA.norm>
-0.662027

>  <SCORE.RESTR>
0.00348578

>  <SCORE.RESTR.CAVITY>
0.00348578

>  <SCORE.RESTR.norm>
0.000248984

>  <SCORE.SYSTEM>
0

>  <SCORE.SYSTEM.CONST>
0

>  <SCORE.SYSTEM.DIHEDRAL>
0

>  <SCORE.SYSTEM.SOLV>
0

>  <SCORE.SYSTEM.norm>
0

>  <SCORE.heavy>
14

>  <SCORE.norm>
-0.93106

>  <RMSD>
55.549

$$$$
ligand
 OpenBabel11021811493D
libRbt.so/2013.1/901 2013/11/27
 14 13  0  0  0  0  0  0  0  0999 V2000
    2.0473   12.0727   13.7186 N   0  0  0  0  0  0  0  0  0  0  0  0
    0.9575   11.7938   14.6278 C   0  0  0  0  0  0  0  0  0  0  0  0
   -0.0835   10.9088   13.9118 C   0  0  0  0  0  0  0  0  0  0  0  0
    0.4093    9.4850   13.6102 C   0  0  0  0  0  0  0  0  0  0  0  0
   -0.5150    8.6364   12.8428 N   0  0  0  0  0  0  0  0  0  0  0  0
   -0.1495    7.9626   11.5980 C   0  0  0  0  0  0  0  0  0  0  0  0
   -0.5014    8.7731   10.3549 C   0  0  0  0  0  0  0  0  0  0  0  0
    0.1694    8.2590    9.0769 C   0  0  0  0  0  0  0  0  0  0  0  0
    1.6878    8.4706    9.0994 C   0  0  0  0  0  0  0  0  0  0  0  0
    2.2549    8.0448    7.8216 N   0  0  0  0  0  0  0  0  0  0  0  0
    3.6751    8.1302    7.4766 C   0  0  0  0  0  0  0  0  0  0  0  0
    3.9261    8.9004    6.1728 C   0  0  0  0  0  0  0  0  0  0  0  0
    3.3480    8.1574    4.9639 C   0  0  0  0  0  0  0  0  0  0  0  0
    1.8912    8.2499    4.9899 N   0  0  0  0  0  0  0  0  0  0  0  0
  1  2  1  0  0  0  0
  2  3  1  0  0  0  0
  3  4  1  0  0  0  0
  4  5  1  0  0  0  0
  5  6  1  0  0  0  0
  6  7  1  0  0  0  0
  7  8  1  0  0  0  0
  8  9  1  0  0  0  0
  9 10  1  0  0  0  0
 10 11  1  0  0  0  0
 11 12  1  0  0  0  0
 12 13  1  0  0  0  0
 13 14  1  0  0  0  0
M  END
>  <CHROM.1>
68.29536835,-175.78681013,125.31632515,-93.52680286,165.84847245,-68.06571881
-176.19191012,178.63574781,-125.41515454,-65.92021056,72.25907677,1.36549154
9.13172143,10.01901352,-1.93605245,-0.61154399,-2.07589419

>  <Name>
ligand

>  <RI>
0

>  <Rbt.Current_Directory>
/home/itssahil/PROJECTS/Mol_Feturizer/New_Systems/rnas/4FAW

>  <Rbt.Executable>
rbdock ($Id: //depot/dev/client3/rdock/2013.1/src/exe/rbdock.cxx#4 $)

>  <Rbt.Library>
libRbt.so (2013.1, Build901 2013/11/27)

>  <Rbt.Parameter_File>
/export/apps/rDock/src/rDock_2013.1_src/data/scripts/dock_solv.prm

>  <Rbt.Receptor>
prm/blind_docking_20.prm

>  <SCORE>
-2.78958

>  <SCORE.INTER>
3.62351

>  <SCORE.INTER.CONST>
1

>  <SCORE.INTER.POLAR>
0

>  <SCORE.INTER.ROT>
11

>  <SCORE.INTER.SOLV>
8.93085

>  <SCORE.INTER.VDW>
-11.4946

>  <SCORE.INTER.norm>
0.258822

>  <SCORE.INTRA>
-6.42333

>  <SCORE.INTRA.DIHEDRAL>
-13.9845

>  <SCORE.INTRA.DIHEDRAL.0>
19.1003

>  <SCORE.INTRA.POLAR>
0

>  <SCORE.INTRA.POLAR.0>
0

>  <SCORE.INTRA.REPUL>
0

>  <SCORE.INTRA.REPUL.0>
0

>  <SCORE.INTRA.SOLV>
2.4582

>  <SCORE.INTRA.SOLV.lig_0>
-47.5333

>  <SCORE.INTRA.VDW>
-0.660183

>  <SCORE.INTRA.VDW.0>
-0.287413

>  <SCORE.INTRA.norm>
-0.458809

>  <SCORE.RESTR>
0.0102313

>  <SCORE.RESTR.CAVITY>
0.0102313

>  <SCORE.RESTR.norm>
0.00073081

>  <SCORE.SYSTEM>
0

>  <SCORE.SYSTEM.CONST>
0

>  <SCORE.SYSTEM.DIHEDRAL>
0

>  <SCORE.SYSTEM.SOLV>
0

>  <SCORE.SYSTEM.norm>
0

>  <SCORE.heavy>
14

>  <SCORE.norm>
-0.199256

>  <RMSD>
55.554

$$$$
ligand
 OpenBabel11021811493D
libRbt.so/2013.1/901 2013/11/27
 14 13  0  0  0  0  0  0  0  0999 V2000
    0.8209   10.6848   13.7209 N   0  0  0  0  0  0  0  0  0  0  0  0
   -0.0334    9.5315   13.5412 C   0  0  0  0  0  0  0  0  0  0  0  0
    0.2921    8.8683   12.1870 C   0  0  0  0  0  0  0  0  0  0  0  0
   -0.7017    7.7714   11.7745 C   0  0  0  0  0  0  0  0  0  0  0  0
   -0.4112    7.0886   10.5044 N   0  0  0  0  0  0  0  0  0  0  0  0
   -0.4150    7.7604    9.2061 C   0  0  0  0  0  0  0  0  0  0  0  0
    0.9273    8.3960    8.8590 C   0  0  0  0  0  0  0  0  0  0  0  0
    1.1111    8.6627    7.3614 C   0  0  0  0  0  0  0  0  0  0  0  0
    1.2906    7.3654    6.5642 C   0  0  0  0  0  0  0  0  0  0  0  0
    1.5591    7.6904    5.1649 N   0  0  0  0  0  0  0  0  0  0  0  0
    2.1076    6.7491    4.1869 C   0  0  0  0  0  0  0  0  0  0  0  0
    1.0210    5.9453    3.4594 C   0  0  0  0  0  0  0  0  0  0  0  0
    1.6286    4.9909    2.4261 C   0  0  0  0  0  0  0  0  0  0  0  0
    2.3515    5.7630    1.4198 N   0  0  0  0  0  0  0  0  0  0  0  0
  1  2  1  0  0  0  0
  2  3  1  0  0  0  0
  3  4  1  0  0  0  0
  4  5  1  0  0  0  0
  5  6  1  0  0  0  0
  6  7  1  0  0  0  0
  7  8  1  0  0  0  0
  8  9  1  0  0  0  0
  9 10  1  0  0  0  0
 10 11  1  0  0  0  0
 11 12  1  0  0  0  0
 12 13  1  0  0  0  0
 13 14  1  0  0  0  0
M  END
>  <CHROM.1>
-170.48941037,-178.56422607,-63.99989199,87.04140571,159.73600433,-70.65264423
-175.83757815,163.96218828,89.08505313,178.91818751,-61.28694770,0.82478425
7.66192092,7.88404673,-1.84081654,-0.89224986,-2.09622474

>  <Name>
ligand

>  <RI>
0

>  <Rbt.Current_Directory>
/home/itssahil/PROJECTS/Mol_Feturizer/New_Systems/rnas/4FAW

>  <Rbt.Executable>
rbdock ($Id: //depot/dev/client3/rdock/2013.1/src/exe/rbdock.cxx#4 $)

>  <Rbt.Library>
libRbt.so (2013.1, Build901 2013/11/27)

>  <Rbt.Parameter_File>
/export/apps/rDock/src/rDock_2013.1_src/data/scripts/dock_solv.prm

>  <Rbt.Receptor>
prm/blind_docking_20.prm

>  <SCORE>
-2.63898

>  <SCORE.INTER>
5.43071

>  <SCORE.INTER.CONST>
1

>  <SCORE.INTER.POLAR>
0

>  <SCORE.INTER.ROT>
11

>  <SCORE.INTER.SOLV>
9.2801

>  <SCORE.INTER.VDW>
-10.4062

>  <SCORE.INTER.norm>
0.387908

>  <SCORE.INTRA>
-8.07043

>  <SCORE.INTRA.DIHEDRAL>
-15.5132

>  <SCORE.INTRA.DIHEDRAL.0>
19.1003

>  <SCORE.INTRA.POLAR>
0

>  <SCORE.INTRA.POLAR.0>
0

>  <SCORE.INTRA.REPUL>
0

>  <SCORE.INTRA.REPUL.0>
0

>  <SCORE.INTRA.SOLV>
-0.412687

>  <SCORE.INTRA.SOLV.lig_0>
-47.5333

>  <SCORE.INTRA.VDW>
-0.107481

>  <SCORE.INTRA.VDW.0>
-0.287413

>  <SCORE.INTRA.norm>
-0.576459

>  <SCORE.RESTR>
0.000737911

>  <SCORE.RESTR.CAVITY>
0.000737911

>  <SCORE.RESTR.norm>
5.27079e-05

>  <SCORE.SYSTEM>
0

>  <SCORE.SYSTEM.CONST>
0

>  <SCORE.SYSTEM.DIHEDRAL>
0

>  <SCORE.SYSTEM.SOLV>
0

>  <SCORE.SYSTEM.norm>
0

>  <SCORE.heavy>
14

>  <SCORE.norm>
-0.188498

>  <RMSD>
55.559

$$$$
ligand
 OpenBabel11021811493D
libRbt.so/2013.1/901 2013/11/27
 14 13  0  0  0  0  0  0  0  0999 V2000
    9.8581   14.5175   39.5290 N   0  0  0  0  0  0  0  0  0  0  0  0
   10.1458   13.1459   39.1711 C   0  0  0  0  0  0  0  0  0  0  0  0
   11.5860   13.0579   38.6255 C   0  0  0  0  0  0  0  0  0  0  0  0
   11.7836   13.7546   37.2703 C   0  0  0  0  0  0  0  0  0  0  0  0
   13.1330   13.6602   36.6924 N   0  0  0  0  0  0  0  0  0  0  0  0
   13.4022   13.7019   35.2562 C   0  0  0  0  0  0  0  0  0  0  0  0
   14.6702   12.9503   34.8644 C   0  0  0  0  0  0  0  0  0  0  0  0
   14.6727   11.4817   35.3011 C   0  0  0  0  0  0  0  0  0  0  0  0
   15.9600   10.7602   34.8847 C   0  0  0  0  0  0  0  0  0  0  0  0
   15.9054    9.3722   35.3387 N   0  0  0  0  0  0  0  0  0  0  0  0
   16.8766    8.3412   34.9682 C   0  0  0  0  0  0  0  0  0  0  0  0
   16.6801    7.0314   35.7441 C   0  0  0  0  0  0  0  0  0  0  0  0
   17.6612    5.9515   35.2764 C   0  0  0  0  0  0  0  0  0  0  0  0
   19.0240    6.3616   35.6015 N   0  0  0  0  0  0  0  0  0  0  0  0
  1  2  1  0  0  0  0
  2  3  1  0  0  0  0
  3  4  1  0  0  0  0
  4  5  1  0  0  0  0
  5  6  1  0  0  0  0
  6  7  1  0  0  0  0
  7  8  1  0  0  0  0
  8  9  1  0  0  0  0
  9 10  1  0  0  0  0
 10 11  1  0  0  0  0
 11 12  1  0  0  0  0
 12 13  1  0  0  0  0
 13 14  1  0  0  0  0
M  END
>  <CHROM.1>
-68.31481376,-178.20236836,152.02064008,-152.28596161,56.63074687,179.77961092
179.51640291,171.52830387,172.04749761,176.81510930,65.23713150,14.38274400
11.00632772,36.32292719,2.71683082,0.75906858,-0.57988059

>  <Name>
ligand

>  <RI>
0

>  <Rbt.Current_Directory>
/home/itssahil/PROJECTS/Mol_Feturizer/New_Systems/rnas/4FAW

>  <Rbt.Executable>
rbdock ($Id: //depot/dev/client3/rdock/2013.1/src/exe/rbdock.cxx#4 $)

>  <Rbt.Library>
libRbt.so (2013.1, Build901 2013/11/27)

>  <Rbt.Parameter_File>
/export/apps/rDock/src/rDock_2013.1_src/data/scripts/dock_solv.prm

>  <Rbt.Receptor>
prm/blind_docking_80.prm

>  <SCORE>
-13.0341

>  <SCORE.INTER>
-3.70164

>  <SCORE.INTER.CONST>
1

>  <SCORE.INTER.POLAR>
0

>  <SCORE.INTER.ROT>
11

>  <SCORE.INTER.SOLV>
11.0681

>  <SCORE.INTER.VDW>
-17.0905

>  <SCORE.INTER.norm>
-0.264403

>  <SCORE.INTRA>
-9.33242

>  <SCORE.INTRA.DIHEDRAL>
-17.471

>  <SCORE.INTRA.DIHEDRAL.0>
19.1003

>  <SCORE.INTRA.POLAR>
0

>  <SCORE.INTRA.POLAR.0>
0

>  <SCORE.INTRA.REPUL>
0

>  <SCORE.INTRA.REPUL.0>
0

>  <SCORE.INTRA.SOLV>
0.312602

>  <SCORE.INTRA.SOLV.lig_0>
-47.5333

>  <SCORE.INTRA.VDW>
-0.753222

>  <SCORE.INTRA.VDW.0>
-0.287413

>  <SCORE.INTRA.norm>
-0.666601

>  <SCORE.RESTR>
0

>  <SCORE.RESTR.CAVITY>
0

>  <SCORE.RESTR.norm>
0

>  <SCORE.SYSTEM>
0

>  <SCORE.SYSTEM.CONST>
0

>  <SCORE.SYSTEM.DIHEDRAL>
0

>  <SCORE.SYSTEM.SOLV>
0

>  <SCORE.SYSTEM.norm>
0

>  <SCORE.heavy>
14

>  <SCORE.norm>
-0.931004

>  <RMSD>
55.602

$$$$
ligand
 OpenBabel11021811493D
libRbt.so/2013.1/901 2013/11/27
 14 13  0  0  0  0  0  0  0  0999 V2000
    4.2041   20.9696   25.1426 N   0  0  0  0  0  0  0  0  0  0  0  0
    5.4942   21.5882   25.3550 C   0  0  0  0  0  0  0  0  0  0  0  0
    6.3812   21.3440   24.1168 C   0  0  0  0  0  0  0  0  0  0  0  0
    7.8174   21.8699   24.2644 C   0  0  0  0  0  0  0  0  0  0  0  0
    8.6207   21.2490   25.3287 N   0  0  0  0  0  0  0  0  0  0  0  0
    8.9822   19.8326   25.3469 C   0  0  0  0  0  0  0  0  0  0  0  0
    8.0927   19.0013   26.2656 C   0  0  0  0  0  0  0  0  0  0  0  0
    8.4295   17.5066   26.2579 C   0  0  0  0  0  0  0  0  0  0  0  0
    9.7896   17.2204   26.9051 C   0  0  0  0  0  0  0  0  0  0  0  0
   10.0449   15.7817   26.8791 N   0  0  0  0  0  0  0  0  0  0  0  0
   10.2507   14.9994   25.6589 C   0  0  0  0  0  0  0  0  0  0  0  0
   10.2184   13.4853   25.9095 C   0  0  0  0  0  0  0  0  0  0  0  0
   10.3648   12.6987   24.6028 C   0  0  0  0  0  0  0  0  0  0  0  0
   11.6798   12.9600   24.0249 N   0  0  0  0  0  0  0  0  0  0  0  0
  1  2  1  0  0  0  0
  2  3  1  0  0  0  0
  3  4  1  0  0  0  0
  4  5  1  0  0  0  0
  5  6  1  0  0  0  0
  6  7  1  0  0  0  0
  7  8  1  0  0  0  0
  8  9  1  0  0  0  0
  9 10  1  0  0  0  0
 10 11  1  0  0  0  0
 11 12  1  0  0  0  0
 12 13  1  0  0  0  0
 13 14  1  0  0  0  0
M  END
>  <CHROM.1>
-175.85502663,62.73564310,63.03320721,-99.83694479,178.02206809,68.48337002
179.41263029,66.15310566,-168.55440701,177.07920739,64.26821205,8.59785348
17.89340637,25.43276413,2.08551983,-0.18829354,0.06138097

>  <Name>
ligand

>  <RI>
0

>  <Rbt.Current_Directory>
/home/itssahil/PROJECTS/Mol_Feturizer/New_Systems/rnas/4FAW

>  <Rbt.Executable>
rbdock ($Id: //depot/dev/client3/rdock/2013.1/src/exe/rbdock.cxx#4 $)

>  <Rbt.Library>
libRbt.so (2013.1, Build901 2013/11/27)

>  <Rbt.Parameter_File>
/export/apps/rDock/src/rDock_2013.1_src/data/scripts/dock_solv.prm

>  <Rbt.Receptor>
prm/blind_docking_60.prm

>  <SCORE>
-9.41285

>  <SCORE.INTER>
-0.458555

>  <SCORE.INTER.CONST>
1

>  <SCORE.INTER.POLAR>
0

>  <SCORE.INTER.ROT>
11

>  <SCORE.INTER.SOLV>
16.2987

>  <SCORE.INTER.VDW>
-16.6719

>  <SCORE.INTER.norm>
-0.032754

>  <SCORE.INTRA>
-8.95429

>  <SCORE.INTRA.DIHEDRAL>
-17.5549

>  <SCORE.INTRA.DIHEDRAL.0>
19.1003

>  <SCORE.INTRA.POLAR>
0

>  <SCORE.INTRA.POLAR.0>
0

>  <SCORE.INTRA.REPUL>
0

>  <SCORE.INTRA.REPUL.0>
0

>  <SCORE.INTRA.SOLV>
-0.0926659

>  <SCORE.INTRA.SOLV.lig_0>
-47.5333

>  <SCORE.INTRA.VDW>
-0.130506

>  <SCORE.INTRA.VDW.0>
-0.287413

>  <SCORE.INTRA.norm>
-0.639592

>  <SCORE.RESTR>
0

>  <SCORE.RESTR.CAVITY>
0

>  <SCORE.RESTR.norm>
0

>  <SCORE.SYSTEM>
0

>  <SCORE.SYSTEM.CONST>
0

>  <SCORE.SYSTEM.DIHEDRAL>
0

>  <SCORE.SYSTEM.SOLV>
0

>  <SCORE.SYSTEM.norm>
0

>  <SCORE.heavy>
14

>  <SCORE.norm>
-0.672346

>  <RMSD>
55.623

$$$$
ligand
 OpenBabel11021811493D
libRbt.so/2013.1/901 2013/11/27
 14 13  0  0  0  0  0  0  0  0999 V2000
   17.2694    8.1207   33.6044 N   0  0  0  0  0  0  0  0  0  0  0  0
   16.2796    7.4966   34.4546 C   0  0  0  0  0  0  0  0  0  0  0  0
   16.4221    8.0516   35.8869 C   0  0  0  0  0  0  0  0  0  0  0  0
   15.9680    9.5116   36.0385 C   0  0  0  0  0  0  0  0  0  0  0  0
   16.7061   10.4986   35.2356 N   0  0  0  0  0  0  0  0  0  0  0  0
   16.8618   11.9003   35.6206 C   0  0  0  0  0  0  0  0  0  0  0  0
   15.7188   12.7841   35.1318 C   0  0  0  0  0  0  0  0  0  0  0  0
   14.4018   12.5536   35.8800 C   0  0  0  0  0  0  0  0  0  0  0  0
   13.3379   13.5919   35.5046 C   0  0  0  0  0  0  0  0  0  0  0  0
   12.1208   13.3372   36.2723 N   0  0  0  0  0  0  0  0  0  0  0  0
   11.9971   13.5345   37.7177 C   0  0  0  0  0  0  0  0  0  0  0  0
   12.4370   12.3061   38.5263 C   0  0  0  0  0  0  0  0  0  0  0  0
   12.1247   12.4763   40.0167 C   0  0  0  0  0  0  0  0  0  0  0  0
   12.8901   13.6008   40.5466 N   0  0  0  0  0  0  0  0  0  0  0  0
  1  2  1  0  0  0  0
  2  3  1  0  0  0  0
  3  4  1  0  0  0  0
  4  5  1  0  0  0  0
  5  6  1  0  0  0  0
  6  7  1  0  0  0  0
  7  8  1  0  0  0  0
  8  9  1  0  0  0  0
  9 10  1  0  0  0  0
 10 11  1  0  0  0  0
 11 12  1  0  0  0  0
 12 13  1  0  0  0  0
 13 14  1  0  0  0  0
M  END
>  <CHROM.1>
70.89080074,-61.22824265,-152.41866787,-87.85139579,71.75683594,171.74993275
-178.68108004,68.97690634,-86.84061999,-172.56836469,-63.19375367,14.60960268
11.41171365,36.45977909,0.13582543,-0.93239992,2.44947865

>  <Name>
ligand

>  <RI>
0

>  <Rbt.Current_Directory>
/home/itssahil/PROJECTS/Mol_Feturizer/New_Systems/rnas/4FAW

>  <Rbt.Executable>
rbdock ($Id: //depot/dev/client3/rdock/2013.1/src/exe/rbdock.cxx#4 $)

>  <Rbt.Library>
libRbt.so (2013.1, Build901 2013/11/27)

>  <Rbt.Parameter_File>
/export/apps/rDock/src/rDock_2013.1_src/data/scripts/dock_solv.prm

>  <Rbt.Receptor>
prm/blind_docking_60.prm

>  <SCORE>
-10.0074

>  <SCORE.INTER>
-2.58775

>  <SCORE.INTER.CONST>
1

>  <SCORE.INTER.POLAR>
0

>  <SCORE.INTER.ROT>
11

>  <SCORE.INTER.SOLV>
10.5558

>  <SCORE.INTER.VDW>
-16.1771

>  <SCORE.INTER.norm>
-0.18484

>  <SCORE.INTRA>
-7.41964

>  <SCORE.INTRA.DIHEDRAL>
-15.9957

>  <SCORE.INTRA.DIHEDRAL.0>
19.1003

>  <SCORE.INTRA.POLAR>
0

>  <SCORE.INTRA.POLAR.0>
0

>  <SCORE.INTRA.REPUL>
0

>  <SCORE.INTRA.REPUL.0>
0

>  <SCORE.INTRA.SOLV>
2.22818

>  <SCORE.INTRA.SOLV.lig_0>
-47.5333

>  <SCORE.INTRA.VDW>
-0.5359

>  <SCORE.INTRA.VDW.0>
-0.287413

>  <SCORE.INTRA.norm>
-0.529974

>  <SCORE.RESTR>
0

>  <SCORE.RESTR.CAVITY>
0

>  <SCORE.RESTR.norm>
0

>  <SCORE.SYSTEM>
0

>  <SCORE.SYSTEM.CONST>
0

>  <SCORE.SYSTEM.DIHEDRAL>
0

>  <SCORE.SYSTEM.SOLV>
0

>  <SCORE.SYSTEM.norm>
0

>  <SCORE.heavy>
14

>  <SCORE.norm>
-0.714814

>  <RMSD>
55.628

$$$$
ligand
 OpenBabel11021811493D
libRbt.so/2013.1/901 2013/11/27
 14 13  0  0  0  0  0  0  0  0999 V2000
   10.5462   15.6872   39.6081 N   0  0  0  0  0  0  0  0  0  0  0  0
   11.0902   16.3858   38.4644 C   0  0  0  0  0  0  0  0  0  0  0  0
   11.2650   15.3891   37.3001 C   0  0  0  0  0  0  0  0  0  0  0  0
   12.2855   14.2750   37.5801 C   0  0  0  0  0  0  0  0  0  0  0  0
   12.6163   13.4078   36.4390 N   0  0  0  0  0  0  0  0  0  0  0  0
   13.3337   13.8712   35.2526 C   0  0  0  0  0  0  0  0  0  0  0  0
   14.3688   12.8693   34.7515 C   0  0  0  0  0  0  0  0  0  0  0  0
   15.5672   12.7032   35.6915 C   0  0  0  0  0  0  0  0  0  0  0  0
   16.6371   11.7771   35.1010 C   0  0  0  0  0  0  0  0  0  0  0  0
   16.1306   10.4065   35.0762 N   0  0  0  0  0  0  0  0  0  0  0  0
   16.5523    9.3853   34.1156 C   0  0  0  0  0  0  0  0  0  0  0  0
   15.9600    8.0019   34.4183 C   0  0  0  0  0  0  0  0  0  0  0  0
   16.5602    7.4035   35.6947 C   0  0  0  0  0  0  0  0  0  0  0  0
   17.9782    7.1299   35.4810 N   0  0  0  0  0  0  0  0  0  0  0  0
  1  2  1  0  0  0  0
  2  3  1  0  0  0  0
  3  4  1  0  0  0  0
  4  5  1  0  0  0  0
  5  6  1  0  0  0  0
  6  7  1  0  0  0  0
  7  8  1  0  0  0  0
  8  9  1  0  0  0  0
  9 10  1  0  0  0  0
 10 11  1  0  0  0  0
 11 12  1  0  0  0  0
 12 13  1  0  0  0  0
 13 14  1  0  0  0  0
M  END
>  <CHROM.1>
-64.07779933,-172.24228857,67.03086478,138.96303852,-68.78168750,-175.34679007
-69.65839467,152.09212949,174.15413668,-69.32365273,-66.08955838,14.34939063
12.04963591,36.06933327,2.66629939,0.85642650,-0.56232437

>  <Name>
ligand

>  <RI>
0

>  <Rbt.Current_Directory>
/home/itssahil/PROJECTS/Mol_Feturizer/New_Systems/rnas/4FAW

>  <Rbt.Executable>
rbdock ($Id: //depot/dev/client3/rdock/2013.1/src/exe/rbdock.cxx#4 $)

>  <Rbt.Library>
libRbt.so (2013.1, Build901 2013/11/27)

>  <Rbt.Parameter_File>
/export/apps/rDock/src/rDock_2013.1_src/data/scripts/dock_solv.prm

>  <Rbt.Receptor>
prm/blind_docking_100.prm

>  <SCORE>
-12.3307

>  <SCORE.INTER>
-4.3268

>  <SCORE.INTER.CONST>
1

>  <SCORE.INTER.POLAR>
0

>  <SCORE.INTER.ROT>
11

>  <SCORE.INTER.SOLV>
10.9209

>  <SCORE.INTER.VDW>
-17.4582

>  <SCORE.INTER.norm>
-0.309057

>  <SCORE.INTRA>
-8.00389

>  <SCORE.INTRA.DIHEDRAL>
-16.0988

>  <SCORE.INTRA.DIHEDRAL.0>
19.1003

>  <SCORE.INTRA.POLAR>
0

>  <SCORE.INTRA.POLAR.0>
0

>  <SCORE.INTRA.REPUL>
0

>  <SCORE.INTRA.REPUL.0>
0

>  <SCORE.INTRA.SOLV>
1.47616

>  <SCORE.INTRA.SOLV.lig_0>
-47.5333

>  <SCORE.INTRA.VDW>
-0.692567

>  <SCORE.INTRA.VDW.0>
-0.287413

>  <SCORE.INTRA.norm>
-0.571706

>  <SCORE.RESTR>
0

>  <SCORE.RESTR.CAVITY>
0

>  <SCORE.RESTR.norm>
0

>  <SCORE.SYSTEM>
0

>  <SCORE.SYSTEM.CONST>
0

>  <SCORE.SYSTEM.DIHEDRAL>
0

>  <SCORE.SYSTEM.SOLV>
0

>  <SCORE.SYSTEM.norm>
0

>  <SCORE.heavy>
14

>  <SCORE.norm>
-0.880763

>  <RMSD>
55.645

$$$$
ligand
 OpenBabel11021811493D
libRbt.so/2013.1/901 2013/11/27
 14 13  0  0  0  0  0  0  0  0999 V2000
   11.9965   12.9210   39.8322 N   0  0  0  0  0  0  0  0  0  0  0  0
   10.9167   12.9822   38.8717 C   0  0  0  0  0  0  0  0  0  0  0  0
   10.9357   14.3598   38.1778 C   0  0  0  0  0  0  0  0  0  0  0  0
   12.1449   14.5772   37.2550 C   0  0  0  0  0  0  0  0  0  0  0  0
   12.1960   13.7276   36.0554 N   0  0  0  0  0  0  0  0  0  0  0  0
   13.3831   13.5877   35.2138 C   0  0  0  0  0  0  0  0  0  0  0  0
   14.5307   12.8684   35.9152 C   0  0  0  0  0  0  0  0  0  0  0  0
   15.6890   12.5041   34.9808 C   0  0  0  0  0  0  0  0  0  0  0  0
   16.9065   11.9800   35.7516 C   0  0  0  0  0  0  0  0  0  0  0  0
   16.5102   10.8256   36.5553 N   0  0  0  0  0  0  0  0  0  0  0  0
   16.1341    9.5226   36.0038 C   0  0  0  0  0  0  0  0  0  0  0  0
   17.3468    8.6327   35.6980 C   0  0  0  0  0  0  0  0  0  0  0  0
   16.9148    7.2562   35.1821 C   0  0  0  0  0  0  0  0  0  0  0  0
   18.0993    6.4668   34.8577 N   0  0  0  0  0  0  0  0  0  0  0  0
  1  2  1  0  0  0  0
  2  3  1  0  0  0  0
  3  4  1  0  0  0  0
  4  5  1  0  0  0  0
  5  6  1  0  0  0  0
  6  7  1  0  0  0  0
  7  8  1  0  0  0  0
  8  9  1  0  0  0  0
  9 10  1  0  0  0  0
 10 11  1  0  0  0  0
 11 12  1  0  0  0  0
 12 13  1  0  0  0  0
 13 14  1  0  0  0  0
M  END
>  <CHROM.1>
68.55694566,66.70076544,-166.87280627,67.53597449,170.24835667,171.28002119
56.96657725,69.19613280,83.55672340,177.45673122,177.84870280,14.55023628
11.58681008,36.45345126,2.69328224,0.72594472,-0.52535594

>  <Name>
ligand

>  <RI>
0

>  <Rbt.Current_Directory>
/home/itssahil/PROJECTS/Mol_Feturizer/New_Systems/rnas/4FAW

>  <Rbt.Executable>
rbdock ($Id: //depot/dev/client3/rdock/2013.1/src/exe/rbdock.cxx#4 $)

>  <Rbt.Library>
libRbt.so (2013.1, Build901 2013/11/27)

>  <Rbt.Parameter_File>
/export/apps/rDock/src/rDock_2013.1_src/data/scripts/dock_solv.prm

>  <Rbt.Receptor>
prm/blind_docking_60.prm

>  <SCORE>
-12.5424

>  <SCORE.INTER>
-3.85616

>  <SCORE.INTER.CONST>
1

>  <SCORE.INTER.POLAR>
0

>  <SCORE.INTER.ROT>
11

>  <SCORE.INTER.SOLV>
10.1056

>  <SCORE.INTER.VDW>
-16.8727

>  <SCORE.INTER.norm>
-0.27544

>  <SCORE.INTRA>
-8.68626

>  <SCORE.INTRA.DIHEDRAL>
-17.2657

>  <SCORE.INTRA.DIHEDRAL.0>
19.1003

>  <SCORE.INTRA.POLAR>
0

>  <SCORE.INTRA.POLAR.0>
0

>  <SCORE.INTRA.REPUL>
0

>  <SCORE.INTRA.REPUL.0>
0

>  <SCORE.INTRA.SOLV>
0.442734

>  <SCORE.INTRA.SOLV.lig_0>
-47.5333

>  <SCORE.INTRA.VDW>
-0.274786

>  <SCORE.INTRA.VDW.0>
-0.287413

>  <SCORE.INTRA.norm>
-0.620447

>  <SCORE.RESTR>
0

>  <SCORE.RESTR.CAVITY>
0

>  <SCORE.RESTR.norm>
0

>  <SCORE.SYSTEM>
0

>  <SCORE.SYSTEM.CONST>
0

>  <SCORE.SYSTEM.DIHEDRAL>
0

>  <SCORE.SYSTEM.SOLV>
0

>  <SCORE.SYSTEM.norm>
0

>  <SCORE.heavy>
14

>  <SCORE.norm>
-0.895887

>  <RMSD>
55.653

$$$$
ligand
 OpenBabel11021811493D
libRbt.so/2013.1/901 2013/11/27
 14 13  0  0  0  0  0  0  0  0999 V2000
    8.6605   18.0840   29.9202 N   0  0  0  0  0  0  0  0  0  0  0  0
    7.5755   18.2421   28.9768 C   0  0  0  0  0  0  0  0  0  0  0  0
    7.9403   17.5218   27.6624 C   0  0  0  0  0  0  0  0  0  0  0  0
    6.8848   17.6703   26.5556 C   0  0  0  0  0  0  0  0  0  0  0  0
    6.5762   19.0488   26.1456 N   0  0  0  0  0  0  0  0  0  0  0  0
    7.3156   19.7691   25.1105 C   0  0  0  0  0  0  0  0  0  0  0  0
    8.7766   20.0080   25.4773 C   0  0  0  0  0  0  0  0  0  0  0  0
    9.4981   20.9703   24.5281 C   0  0  0  0  0  0  0  0  0  0  0  0
   10.9717   21.1564   24.9087 C   0  0  0  0  0  0  0  0  0  0  0  0
   11.5395   22.2513   24.1249 N   0  0  0  0  0  0  0  0  0  0  0  0
   12.9338   22.3172   23.6834 C   0  0  0  0  0  0  0  0  0  0  0  0
   13.4391   23.7572   23.5185 C   0  0  0  0  0  0  0  0  0  0  0  0
   12.5547   24.5532   22.5531 C   0  0  0  0  0  0  0  0  0  0  0  0
   13.0785   25.9097   22.4231 N   0  0  0  0  0  0  0  0  0  0  0  0
  1  2  1  0  0  0  0
  2  3  1  0  0  0  0
  3  4  1  0  0  0  0
  4  5  1  0  0  0  0
  5  6  1  0  0  0  0
  6  7  1  0  0  0  0
  7  8  1  0  0  0  0
  8  9  1  0  0  0  0
  9 10  1  0  0  0  0
 10 11  1  0  0  0  0
 11 12  1  0  0  0  0
 12 13  1  0  0  0  0
 13 14  1  0  0  0  0
M  END
>  <CHROM.1>
-177.53664128,58.76066703,87.66408429,-63.87069408,-169.67843175,-178.53985276
-170.07494062,-147.81594386,-151.65470908,-56.14399051,-179.66469124,9.83886472
20.80402118,25.39905110,-2.26895924,-0.46288489,-1.02405740

>  <Name>
ligand

>  <RI>
0

>  <Rbt.Current_Directory>
/home/itssahil/PROJECTS/Mol_Feturizer/New_Systems/rnas/4FAW

>  <Rbt.Executable>
rbdock ($Id: //depot/dev/client3/rdock/2013.1/src/exe/rbdock.cxx#4 $)

>  <Rbt.Library>
libRbt.so (2013.1, Build901 2013/11/27)

>  <Rbt.Parameter_File>
/export/apps/rDock/src/rDock_2013.1_src/data/scripts/dock_solv.prm

>  <Rbt.Receptor>
prm/blind_docking_60.prm

>  <SCORE>
-12.7373

>  <SCORE.INTER>
-3.42367

>  <SCORE.INTER.CONST>
1

>  <SCORE.INTER.POLAR>
0

>  <SCORE.INTER.ROT>
11

>  <SCORE.INTER.SOLV>
14.4938

>  <SCORE.INTER.VDW>
-18.0471

>  <SCORE.INTER.norm>
-0.244548

>  <SCORE.INTRA>
-9.31365

>  <SCORE.INTRA.DIHEDRAL>
-16.4928

>  <SCORE.INTRA.DIHEDRAL.0>
19.1003

>  <SCORE.INTRA.POLAR>
0

>  <SCORE.INTRA.POLAR.0>
0

>  <SCORE.INTRA.REPUL>
0

>  <SCORE.INTRA.REPUL.0>
0

>  <SCORE.INTRA.SOLV>
-0.752534

>  <SCORE.INTRA.SOLV.lig_0>
-47.5333

>  <SCORE.INTRA.VDW>
-0.690967

>  <SCORE.INTRA.VDW.0>
-0.287413

>  <SCORE.INTRA.norm>
-0.665261

>  <SCORE.RESTR>
0

>  <SCORE.RESTR.CAVITY>
0

>  <SCORE.RESTR.norm>
0

>  <SCORE.SYSTEM>
0

>  <SCORE.SYSTEM.CONST>
0

>  <SCORE.SYSTEM.DIHEDRAL>
0

>  <SCORE.SYSTEM.SOLV>
0

>  <SCORE.SYSTEM.norm>
0

>  <SCORE.heavy>
14

>  <SCORE.norm>
-0.909808

>  <RMSD>
55.665

$$$$
ligand
 OpenBabel11021811493D
libRbt.so/2013.1/901 2013/11/27
 14 13  0  0  0  0  0  0  0  0999 V2000
    7.2613   23.7948   24.0831 N   0  0  0  0  0  0  0  0  0  0  0  0
    6.8321   23.2851   25.3669 C   0  0  0  0  0  0  0  0  0  0  0  0
    6.8299   21.7431   25.3228 C   0  0  0  0  0  0  0  0  0  0  0  0
    8.2266   21.1211   25.1703 C   0  0  0  0  0  0  0  0  0  0  0  0
    8.2647   19.6564   25.0402 N   0  0  0  0  0  0  0  0  0  0  0  0
    7.7354   18.7410   26.0496 C   0  0  0  0  0  0  0  0  0  0  0  0
    8.5926   17.4926   26.2315 C   0  0  0  0  0  0  0  0  0  0  0  0
    9.9127   17.7560   26.9631 C   0  0  0  0  0  0  0  0  0  0  0  0
   10.8696   16.5615   26.8707 C   0  0  0  0  0  0  0  0  0  0  0  0
   10.1782   15.3522   27.3128 N   0  0  0  0  0  0  0  0  0  0  0  0
   10.6269   13.9892   27.0227 C   0  0  0  0  0  0  0  0  0  0  0  0
    9.4950   12.9566   27.1173 C   0  0  0  0  0  0  0  0  0  0  0  0
   10.0241   11.5291   26.9446 C   0  0  0  0  0  0  0  0  0  0  0  0
    8.9083   10.5892   26.9982 N   0  0  0  0  0  0  0  0  0  0  0  0
  1  2  1  0  0  0  0
  2  3  1  0  0  0  0
  3  4  1  0  0  0  0
  4  5  1  0  0  0  0
  5  6  1  0  0  0  0
  6  7  1  0  0  0  0
  7  8  1  0  0  0  0
  8  9  1  0  0  0  0
  9 10  1  0  0  0  0
 10 11  1  0  0  0  0
 11 12  1  0  0  0  0
 12 13  1  0  0  0  0
 13 14  1  0  0  0  0
M  END
>  <CHROM.1>
66.22153801,-176.36759939,-59.11371954,-141.80895140,72.99008255,-168.03912828
-52.74006627,162.27010211,-157.96598238,-174.40137574,-178.16067417,8.83989393
17.46918857,26.17825659,1.83135274,-0.34301240,-0.12064010

>  <Name>
ligand

>  <RI>
0

>  <Rbt.Current_Directory>
/home/itssahil/PROJECTS/Mol_Feturizer/New_Systems/rnas/4FAW

>  <Rbt.Executable>
rbdock ($Id: //depot/dev/client3/rdock/2013.1/src/exe/rbdock.cxx#4 $)

>  <Rbt.Library>
libRbt.so (2013.1, Build901 2013/11/27)

>  <Rbt.Parameter_File>
/export/apps/rDock/src/rDock_2013.1_src/data/scripts/dock_solv.prm

>  <Rbt.Receptor>
prm/blind_docking_80.prm

>  <SCORE>
-9.63013

>  <SCORE.INTER>
-1.19041

>  <SCORE.INTER.CONST>
1

>  <SCORE.INTER.POLAR>
0

>  <SCORE.INTER.ROT>
11

>  <SCORE.INTER.SOLV>
12.6224

>  <SCORE.INTER.VDW>
-15.9344

>  <SCORE.INTER.norm>
-0.0850296

>  <SCORE.INTRA>
-8.43971

>  <SCORE.INTRA.DIHEDRAL>
-15.9354

>  <SCORE.INTRA.DIHEDRAL.0>
19.1003

>  <SCORE.INTRA.POLAR>
0

>  <SCORE.INTRA.POLAR.0>
0

>  <SCORE.INTRA.REPUL>
0

>  <SCORE.INTRA.REPUL.0>
0

>  <SCORE.INTRA.SOLV>
0.0144842

>  <SCORE.INTRA.SOLV.lig_0>
-47.5333

>  <SCORE.INTRA.VDW>
-0.47927

>  <SCORE.INTRA.VDW.0>
-0.287413

>  <SCORE.INTRA.norm>
-0.602837

>  <SCORE.RESTR>
0

>  <SCORE.RESTR.CAVITY>
0

>  <SCORE.RESTR.norm>
0

>  <SCORE.SYSTEM>
0

>  <SCORE.SYSTEM.CONST>
0

>  <SCORE.SYSTEM.DIHEDRAL>
0

>  <SCORE.SYSTEM.SOLV>
0

>  <SCORE.SYSTEM.norm>
0

>  <SCORE.heavy>
14

>  <SCORE.norm>
-0.687866

>  <RMSD>
55.672

$$$$
ligand
 OpenBabel11021811493D
libRbt.so/2013.1/901 2013/11/27
 14 13  0  0  0  0  0  0  0  0999 V2000
   10.9478   13.7854   25.0850 N   0  0  0  0  0  0  0  0  0  0  0  0
   11.2591   13.7909   26.4975 C   0  0  0  0  0  0  0  0  0  0  0  0
   10.3622   14.8252   27.2082 C   0  0  0  0  0  0  0  0  0  0  0  0
   10.7003   16.2845   26.8660 C   0  0  0  0  0  0  0  0  0  0  0  0
    9.8673   17.3053   27.5198 N   0  0  0  0  0  0  0  0  0  0  0  0
    8.5696   17.7403   27.0063 C   0  0  0  0  0  0  0  0  0  0  0  0
    8.6851   18.6730   25.8050 C   0  0  0  0  0  0  0  0  0  0  0  0
    7.3335   19.0577   25.1946 C   0  0  0  0  0  0  0  0  0  0  0  0
    7.4953   19.9064   23.9280 C   0  0  0  0  0  0  0  0  0  0  0  0
    6.1752   20.2438   23.3995 N   0  0  0  0  0  0  0  0  0  0  0  0
    5.9443   20.9509   22.1385 C   0  0  0  0  0  0  0  0  0  0  0  0
    6.3827   22.4211   22.1910 C   0  0  0  0  0  0  0  0  0  0  0  0
    6.1139   23.1328   20.8611 C   0  0  0  0  0  0  0  0  0  0  0  0
    6.5618   24.5192   20.9545 N   0  0  0  0  0  0  0  0  0  0  0  0
  1  2  1  0  0  0  0
  2  3  1  0  0  0  0
  3  4  1  0  0  0  0
  4  5  1  0  0  0  0
  5  6  1  0  0  0  0
  6  7  1  0  0  0  0
  7  8  1  0  0  0  0
  8  9  1  0  0  0  0
  9 10  1  0  0  0  0
 10 11  1  0  0  0  0
 11 12  1  0  0  0  0
 12 13  1  0  0  0  0
 13 14  1  0  0  0  0
M  END
>  <CHROM.1>
-69.70538263,179.87387225,-84.23042680,-76.03078755,175.90774302,-175.61496955
-179.76547406,-174.74347190,-69.30210558,-179.43099239,-179.28369391,8.31410767
18.75968253,24.61837180,-0.41219453,1.08307353,-1.69112074

>  <Name>
ligand

>  <RI>
0

>  <Rbt.Current_Directory>
/home/itssahil/PROJECTS/Mol_Feturizer/New_Systems/rnas/4FAW

>  <Rbt.Executable>
rbdock ($Id: //depot/dev/client3/rdock/2013.1/src/exe/rbdock.cxx#4 $)

>  <Rbt.Library>
libRbt.so (2013.1, Build901 2013/11/27)

>  <Rbt.Parameter_File>
/export/apps/rDock/src/rDock_2013.1_src/data/scripts/dock_solv.prm

>  <Rbt.Receptor>
prm/blind_docking_100.prm

>  <SCORE>
-8.82318

>  <SCORE.INTER>
1.1388

>  <SCORE.INTER.CONST>
1

>  <SCORE.INTER.POLAR>
0

>  <SCORE.INTER.ROT>
11

>  <SCORE.INTER.SOLV>
10.2511

>  <SCORE.INTER.VDW>
-13.5912

>  <SCORE.INTER.norm>
0.0813427

>  <SCORE.INTRA>
-9.96198

>  <SCORE.INTRA.DIHEDRAL>
-17.8916

>  <SCORE.INTRA.DIHEDRAL.0>
19.1003

>  <SCORE.INTRA.POLAR>
0

>  <SCORE.INTRA.POLAR.0>
0

>  <SCORE.INTRA.REPUL>
0

>  <SCORE.INTRA.REPUL.0>
0

>  <SCORE.INTRA.SOLV>
-0.864809

>  <SCORE.INTRA.SOLV.lig_0>
-47.5333

>  <SCORE.INTRA.VDW>
-0.583759

>  <SCORE.INTRA.VDW.0>
-0.287413

>  <SCORE.INTRA.norm>
-0.71157

>  <SCORE.RESTR>
0

>  <SCORE.RESTR.CAVITY>
0

>  <SCORE.RESTR.norm>
0

>  <SCORE.SYSTEM>
0

>  <SCORE.SYSTEM.CONST>
0

>  <SCORE.SYSTEM.DIHEDRAL>
0

>  <SCORE.SYSTEM.SOLV>
0

>  <SCORE.SYSTEM.norm>
0

>  <SCORE.heavy>
14

>  <SCORE.norm>
-0.630227

>  <RMSD>
55.713

$$$$
ligand
 OpenBabel11021811493D
libRbt.so/2013.1/901 2013/11/27
 14 13  0  0  0  0  0  0  0  0999 V2000
    3.1285    8.1472    5.0082 N   0  0  0  0  0  0  0  0  0  0  0  0
    3.8797    8.3063    6.2340 C   0  0  0  0  0  0  0  0  0  0  0  0
    2.9794    7.9336    7.4299 C   0  0  0  0  0  0  0  0  0  0  0  0
    3.6524    8.1178    8.7989 C   0  0  0  0  0  0  0  0  0  0  0  0
    2.8099    7.8323    9.9703 N   0  0  0  0  0  0  0  0  0  0  0  0
    1.5678    8.5443   10.2657 C   0  0  0  0  0  0  0  0  0  0  0  0
    1.0814    8.3286   11.6951 C   0  0  0  0  0  0  0  0  0  0  0  0
   -0.2493    9.0232   12.0020 C   0  0  0  0  0  0  0  0  0  0  0  0
   -1.4483    8.2293   11.4702 C   0  0  0  0  0  0  0  0  0  0  0  0
   -1.4174    8.2265   10.0091 N   0  0  0  0  0  0  0  0  0  0  0  0
   -1.8189    7.0924    9.1748 C   0  0  0  0  0  0  0  0  0  0  0  0
   -1.3297    7.2168    7.7251 C   0  0  0  0  0  0  0  0  0  0  0  0
   -1.8151    6.0431    6.8682 C   0  0  0  0  0  0  0  0  0  0  0  0
   -1.4315    6.2674    5.4776 N   0  0  0  0  0  0  0  0  0  0  0  0
  1  2  1  0  0  0  0
  2  3  1  0  0  0  0
  3  4  1  0  0  0  0
  4  5  1  0  0  0  0
  5  6  1  0  0  0  0
  6  7  1  0  0  0  0
  7  8  1  0  0  0  0
  8  9  1  0  0  0  0
  9 10  1  0  0  0  0
 10 11  1  0  0  0  0
 11 12  1  0  0  0  0
 12 13  1  0  0  0  0
 13 14  1  0  0  0  0
M  END
>  <CHROM.1>
-177.67076185,177.33158243,-60.04111094,-164.84290127,-177.66861826,79.64890926
-66.86135426,143.54318138,-164.17951733,-177.69763203,174.81046475,0.68487464
7.80784811,8.72395267,0.84179697,-0.23636719,-1.82985139

>  <Name>
ligand

>  <RI>
0

>  <Rbt.Current_Directory>
/home/itssahil/PROJECTS/Mol_Feturizer/New_Systems/rnas/4FAW

>  <Rbt.Executable>
rbdock ($Id: //depot/dev/client3/rdock/2013.1/src/exe/rbdock.cxx#4 $)

>  <Rbt.Library>
libRbt.so (2013.1, Build901 2013/11/27)

>  <Rbt.Parameter_File>
/export/apps/rDock/src/rDock_2013.1_src/data/scripts/dock_solv.prm

>  <Rbt.Receptor>
prm/blind_docking_20.prm

>  <SCORE>
-6.64271

>  <SCORE.INTER>
2.55049

>  <SCORE.INTER.CONST>
1

>  <SCORE.INTER.POLAR>
0

>  <SCORE.INTER.ROT>
11

>  <SCORE.INTER.SOLV>
8.02128

>  <SCORE.INTER.VDW>
-11.9068

>  <SCORE.INTER.norm>
0.182178

>  <SCORE.INTRA>
-9.19321

>  <SCORE.INTRA.DIHEDRAL>
-16.0808

>  <SCORE.INTRA.DIHEDRAL.0>
19.1003

>  <SCORE.INTRA.POLAR>
0

>  <SCORE.INTRA.POLAR.0>
0

>  <SCORE.INTRA.REPUL>
0

>  <SCORE.INTRA.REPUL.0>
0

>  <SCORE.INTRA.SOLV>
-0.445282

>  <SCORE.INTRA.SOLV.lig_0>
-47.5333

>  <SCORE.INTRA.VDW>
-0.930187

>  <SCORE.INTRA.VDW.0>
-0.287413

>  <SCORE.INTRA.norm>
-0.656658

>  <SCORE.RESTR>
0

>  <SCORE.RESTR.CAVITY>
0

>  <SCORE.RESTR.norm>
0

>  <SCORE.SYSTEM>
0

>  <SCORE.SYSTEM.CONST>
0

>  <SCORE.SYSTEM.DIHEDRAL>
0

>  <SCORE.SYSTEM.SOLV>
0

>  <SCORE.SYSTEM.norm>
0

>  <SCORE.heavy>
14

>  <SCORE.norm>
-0.474479

>  <RMSD>
55.763

$$$$
ligand
 OpenBabel11021811493D
libRbt.so/2013.1/901 2013/11/27
 14 13  0  0  0  0  0  0  0  0999 V2000
   18.7835    8.4489   36.3101 N   0  0  0  0  0  0  0  0  0  0  0  0
   18.0818    7.4586   35.5232 C   0  0  0  0  0  0  0  0  0  0  0  0
   16.5672    7.7441   35.5865 C   0  0  0  0  0  0  0  0  0  0  0  0
   16.1596    9.0910   34.9695 C   0  0  0  0  0  0  0  0  0  0  0  0
   16.6484   10.2896   35.6681 N   0  0  0  0  0  0  0  0  0  0  0  0
   16.3920   11.6537   35.2095 C   0  0  0  0  0  0  0  0  0  0  0  0
   14.9258   12.0573   35.3270 C   0  0  0  0  0  0  0  0  0  0  0  0
   14.6422   13.4851   34.8491 C   0  0  0  0  0  0  0  0  0  0  0  0
   13.1634   13.8598   35.0029 C   0  0  0  0  0  0  0  0  0  0  0  0
   12.8094   13.8614   36.4208 N   0  0  0  0  0  0  0  0  0  0  0  0
   11.4399   13.9423   36.9321 C   0  0  0  0  0  0  0  0  0  0  0  0
   11.3512   13.6788   38.4417 C   0  0  0  0  0  0  0  0  0  0  0  0
    9.8950   13.5729   38.9065 C   0  0  0  0  0  0  0  0  0  0  0  0
    9.8619   13.3522   40.3492 N   0  0  0  0  0  0  0  0  0  0  0  0
  1  2  1  0  0  0  0
  2  3  1  0  0  0  0
  3  4  1  0  0  0  0
  4  5  1  0  0  0  0
  5  6  1  0  0  0  0
  6  7  1  0  0  0  0
  7  8  1  0  0  0  0
  8  9  1  0  0  0  0
  9 10  1  0  0  0  0
 10 11  1  0  0  0  0
 11 12  1  0  0  0  0
 12 13  1  0  0  0  0
 13 14  1  0  0  0  0
M  END
>  <CHROM.1>
63.44504335,-66.12551471,178.33277067,68.27818215,-179.97853095,-179.13245616
64.18031742,-168.81027321,169.99039296,-171.88475626,-178.76625324,14.33717095
11.60689282,36.39226773,0.25480609,-0.68529791,2.44919757

>  <Name>
ligand

>  <RI>
0

>  <Rbt.Current_Directory>
/home/itssahil/PROJECTS/Mol_Feturizer/New_Systems/rnas/4FAW

>  <Rbt.Executable>
rbdock ($Id: //depot/dev/client3/rdock/2013.1/src/exe/rbdock.cxx#4 $)

>  <Rbt.Library>
libRbt.so (2013.1, Build901 2013/11/27)

>  <Rbt.Parameter_File>
/export/apps/rDock/src/rDock_2013.1_src/data/scripts/dock_solv.prm

>  <Rbt.Receptor>
prm/blind_docking_60.prm

>  <SCORE>
-12.8687

>  <SCORE.INTER>
-3.89541

>  <SCORE.INTER.CONST>
1

>  <SCORE.INTER.POLAR>
0

>  <SCORE.INTER.ROT>
11

>  <SCORE.INTER.SOLV>
11.1821

>  <SCORE.INTER.VDW>
-17.2576

>  <SCORE.INTER.norm>
-0.278244

>  <SCORE.INTRA>
-8.97326

>  <SCORE.INTRA.DIHEDRAL>
-18.3562

>  <SCORE.INTRA.DIHEDRAL.0>
19.1003

>  <SCORE.INTRA.POLAR>
0

>  <SCORE.INTRA.POLAR.0>
0

>  <SCORE.INTRA.REPUL>
0

>  <SCORE.INTRA.REPUL.0>
0

>  <SCORE.INTRA.SOLV>
1.79719

>  <SCORE.INTRA.SOLV.lig_0>
-47.5333

>  <SCORE.INTRA.VDW>
-0.693736

>  <SCORE.INTRA.VDW.0>
-0.287413

>  <SCORE.INTRA.norm>
-0.640947

>  <SCORE.RESTR>
0

>  <SCORE.RESTR.CAVITY>
0

>  <SCORE.RESTR.norm>
0

>  <SCORE.SYSTEM>
0

>  <SCORE.SYSTEM.CONST>
0

>  <SCORE.SYSTEM.DIHEDRAL>
0

>  <SCORE.SYSTEM.SOLV>
0

>  <SCORE.SYSTEM.norm>
0

>  <SCORE.heavy>
14

>  <SCORE.norm>
-0.919191

>  <RMSD>
55.770

$$$$
ligand
 OpenBabel11021811493D
libRbt.so/2013.1/901 2013/11/27
 14 13  0  0  0  0  0  0  0  0999 V2000
   10.0709   12.5888   25.7688 N   0  0  0  0  0  0  0  0  0  0  0  0
   10.8514   13.5750   26.4833 C   0  0  0  0  0  0  0  0  0  0  0  0
   10.2776   14.9778   26.1962 C   0  0  0  0  0  0  0  0  0  0  0  0
   10.9904   16.1102   26.9515 C   0  0  0  0  0  0  0  0  0  0  0  0
   10.5078   17.4709   26.6698 N   0  0  0  0  0  0  0  0  0  0  0  0
    9.1374   17.9116   26.9244 C   0  0  0  0  0  0  0  0  0  0  0  0
    8.5398   18.7029   25.7655 C   0  0  0  0  0  0  0  0  0  0  0  0
    9.3210   19.9760   25.4244 C   0  0  0  0  0  0  0  0  0  0  0  0
    8.6534   20.7762   24.2997 C   0  0  0  0  0  0  0  0  0  0  0  0
    7.3477   21.2512   24.7528 N   0  0  0  0  0  0  0  0  0  0  0  0
    6.3884   21.9661   23.9090 C   0  0  0  0  0  0  0  0  0  0  0  0
    6.8140   23.4116   23.6162 C   0  0  0  0  0  0  0  0  0  0  0  0
    5.8480   24.0926   22.6413 C   0  0  0  0  0  0  0  0  0  0  0  0
    6.2920   25.4616   22.3964 N   0  0  0  0  0  0  0  0  0  0  0  0
  1  2  1  0  0  0  0
  2  3  1  0  0  0  0
  3  4  1  0  0  0  0
  4  5  1  0  0  0  0
  5  6  1  0  0  0  0
  6  7  1  0  0  0  0
  7  8  1  0  0  0  0
  8  9  1  0  0  0  0
  9 10  1  0  0  0  0
 10 11  1  0  0  0  0
 11 12  1  0  0  0  0
 12 13  1  0  0  0  0
 13 14  1  0  0  0  0
M  END
>  <CHROM.1>
177.53068941,177.84523856,60.62402824,-134.51522231,-59.89017367,-177.33560988
64.34402000,-175.31879889,-73.15620175,175.40218763,179.90249124,8.64573730
19.16230600,25.12861745,0.98653531,0.81452924,-3.03370343

>  <Name>
ligand

>  <RI>
0

>  <Rbt.Current_Directory>
/home/itssahil/PROJECTS/Mol_Feturizer/New_Systems/rnas/4FAW

>  <Rbt.Executable>
rbdock ($Id: //depot/dev/client3/rdock/2013.1/src/exe/rbdock.cxx#4 $)

>  <Rbt.Library>
libRbt.so (2013.1, Build901 2013/11/27)

>  <Rbt.Parameter_File>
/export/apps/rDock/src/rDock_2013.1_src/data/scripts/dock_solv.prm

>  <Rbt.Receptor>
prm/blind_docking_80.prm

>  <SCORE>
-9.30477

>  <SCORE.INTER>
0.369871

>  <SCORE.INTER.CONST>
1

>  <SCORE.INTER.POLAR>
0

>  <SCORE.INTER.ROT>
11

>  <SCORE.INTER.SOLV>
12.5112

>  <SCORE.INTER.VDW>
-14.8571

>  <SCORE.INTER.norm>
0.0264194

>  <SCORE.INTRA>
-9.67823

>  <SCORE.INTRA.DIHEDRAL>
-17.6893

>  <SCORE.INTRA.DIHEDRAL.0>
19.1003

>  <SCORE.INTRA.POLAR>
0

>  <SCORE.INTRA.POLAR.0>
0

>  <SCORE.INTRA.REPUL>
0

>  <SCORE.INTRA.REPUL.0>
0

>  <SCORE.INTRA.SOLV>
-0.693209

>  <SCORE.INTRA.SOLV.lig_0>
-47.5333

>  <SCORE.INTRA.VDW>
-0.486978

>  <SCORE.INTRA.VDW.0>
-0.287413

>  <SCORE.INTRA.norm>
-0.691302

>  <SCORE.RESTR>
0.00359159

>  <SCORE.RESTR.CAVITY>
0.00359159

>  <SCORE.RESTR.norm>
0.000256542

>  <SCORE.SYSTEM>
0

>  <SCORE.SYSTEM.CONST>
0

>  <SCORE.SYSTEM.DIHEDRAL>
0

>  <SCORE.SYSTEM.SOLV>
0

>  <SCORE.SYSTEM.norm>
0

>  <SCORE.heavy>
14

>  <SCORE.norm>
-0.664626

>  <RMSD>
55.812

$$$$
ligand
 OpenBabel11021811493D
libRbt.so/2013.1/901 2013/11/27
 14 13  0  0  0  0  0  0  0  0999 V2000
    8.2786   19.0878   33.0353 N   0  0  0  0  0  0  0  0  0  0  0  0
    8.0558   20.0512   31.9796 C   0  0  0  0  0  0  0  0  0  0  0  0
    8.1155   19.3302   30.6172 C   0  0  0  0  0  0  0  0  0  0  0  0
    9.5216   18.8496   30.2264 C   0  0  0  0  0  0  0  0  0  0  0  0
    9.6315   18.1880   28.9173 N   0  0  0  0  0  0  0  0  0  0  0  0
   10.8519   18.1856   28.1125 C   0  0  0  0  0  0  0  0  0  0  0  0
   10.7195   17.3711   26.8298 C   0  0  0  0  0  0  0  0  0  0  0  0
   10.4157   15.8891   27.0726 C   0  0  0  0  0  0  0  0  0  0  0  0
   10.3404   15.0955   25.7629 C   0  0  0  0  0  0  0  0  0  0  0  0
   10.0323   13.6983   26.0605 N   0  0  0  0  0  0  0  0  0  0  0  0
   10.1260   12.6052   25.0911 C   0  0  0  0  0  0  0  0  0  0  0  0
    8.9625   11.6100   25.2013 C   0  0  0  0  0  0  0  0  0  0  0  0
    8.8843   10.9937   26.6019 C   0  0  0  0  0  0  0  0  0  0  0  0
    7.6964   10.1501   26.6942 N   0  0  0  0  0  0  0  0  0  0  0  0
  1  2  1  0  0  0  0
  2  3  1  0  0  0  0
  3  4  1  0  0  0  0
  4  5  1  0  0  0  0
  5  6  1  0  0  0  0
  6  7  1  0  0  0  0
  7  8  1  0  0  0  0
  8  9  1  0  0  0  0
  9 10  1  0  0  0  0
 10 11  1  0  0  0  0
 11 12  1  0  0  0  0
 12 13  1  0  0  0  0
 13 14  1  0  0  0  0
M  END
>  <CHROM.1>
-69.90994385,-178.42971400,152.23814604,177.17448200,-61.06142245,-177.93645865
-179.29074213,-168.15496411,-139.13351432,-58.37350860,174.92701606,9.40247963
15.79346083,28.01420773,1.63613072,0.89677630,0.55989131

>  <Name>
ligand

>  <RI>
0

>  <Rbt.Current_Directory>
/home/itssahil/PROJECTS/Mol_Feturizer/New_Systems/rnas/4FAW

>  <Rbt.Executable>
rbdock ($Id: //depot/dev/client3/rdock/2013.1/src/exe/rbdock.cxx#4 $)

>  <Rbt.Library>
libRbt.so (2013.1, Build901 2013/11/27)

>  <Rbt.Parameter_File>
/export/apps/rDock/src/rDock_2013.1_src/data/scripts/dock_solv.prm

>  <Rbt.Receptor>
prm/blind_docking_80.prm

>  <SCORE>
-11.3741

>  <SCORE.INTER>
-2.02704

>  <SCORE.INTER.CONST>
1

>  <SCORE.INTER.POLAR>
0

>  <SCORE.INTER.ROT>
11

>  <SCORE.INTER.SOLV>
17.2693

>  <SCORE.INTER.VDW>
-18.0411

>  <SCORE.INTER.norm>
-0.144789

>  <SCORE.INTRA>
-9.34704

>  <SCORE.INTRA.DIHEDRAL>
-17.0255

>  <SCORE.INTRA.DIHEDRAL.0>
19.1003

>  <SCORE.INTRA.POLAR>
0

>  <SCORE.INTRA.POLAR.0>
0

>  <SCORE.INTRA.REPUL>
0

>  <SCORE.INTRA.REPUL.0>
0

>  <SCORE.INTRA.SOLV>
-0.0436508

>  <SCORE.INTRA.SOLV.lig_0>
-47.5333

>  <SCORE.INTRA.VDW>
-0.812463

>  <SCORE.INTRA.VDW.0>
-0.287413

>  <SCORE.INTRA.norm>
-0.667646

>  <SCORE.RESTR>
0

>  <SCORE.RESTR.CAVITY>
0

>  <SCORE.RESTR.norm>
0

>  <SCORE.SYSTEM>
0

>  <SCORE.SYSTEM.CONST>
0

>  <SCORE.SYSTEM.DIHEDRAL>
0

>  <SCORE.SYSTEM.SOLV>
0

>  <SCORE.SYSTEM.norm>
0

>  <SCORE.heavy>
14

>  <SCORE.norm>
-0.812435

>  <RMSD>
55.824

$$$$
ligand
 OpenBabel11021811493D
libRbt.so/2013.1/901 2013/11/27
 14 13  0  0  0  0  0  0  0  0999 V2000
   -2.6940    6.1830    8.7637 N   0  0  0  0  0  0  0  0  0  0  0  0
   -2.5917    5.3914    7.5574 C   0  0  0  0  0  0  0  0  0  0  0  0
   -1.6856    6.1251    6.5473 C   0  0  0  0  0  0  0  0  0  0  0  0
   -0.2157    6.2236    6.9842 C   0  0  0  0  0  0  0  0  0  0  0  0
    0.6764    6.9543    6.0711 N   0  0  0  0  0  0  0  0  0  0  0  0
    1.6299    7.9703    6.5132 C   0  0  0  0  0  0  0  0  0  0  0  0
    3.0327    7.4151    6.7373 C   0  0  0  0  0  0  0  0  0  0  0  0
    3.8402    8.1918    7.7825 C   0  0  0  0  0  0  0  0  0  0  0  0
    3.2852    7.9976    9.1985 C   0  0  0  0  0  0  0  0  0  0  0  0
    2.0045    8.6917    9.3158 N   0  0  0  0  0  0  0  0  0  0  0  0
    0.8158    8.1324    9.9619 C   0  0  0  0  0  0  0  0  0  0  0  0
    0.7783    8.3986   11.4732 C   0  0  0  0  0  0  0  0  0  0  0  0
   -0.4804    7.8055   12.1147 C   0  0  0  0  0  0  0  0  0  0  0  0
   -0.5894    8.2757   13.4925 N   0  0  0  0  0  0  0  0  0  0  0  0
  1  2  1  0  0  0  0
  2  3  1  0  0  0  0
  3  4  1  0  0  0  0
  4  5  1  0  0  0  0
  5  6  1  0  0  0  0
  6  7  1  0  0  0  0
  7  8  1  0  0  0  0
  8  9  1  0  0  0  0
  9 10  1  0  0  0  0
 10 11  1  0  0  0  0
 11 12  1  0  0  0  0
 12 13  1  0  0  0  0
 13 14  1  0  0  0  0
M  END
>  <CHROM.1>
66.99273923,-178.08032342,133.22375929,95.18363512,-152.16358184,69.22363328
-70.59927634,136.29640519,87.23731755,179.75116754,-170.31524647,0.55787388
7.41110559,8.75067983,1.69649313,0.36494746,1.29570967

>  <Name>
ligand

>  <RI>
0

>  <Rbt.Current_Directory>
/home/itssahil/PROJECTS/Mol_Feturizer/New_Systems/rnas/4FAW

>  <Rbt.Executable>
rbdock ($Id: //depot/dev/client3/rdock/2013.1/src/exe/rbdock.cxx#4 $)

>  <Rbt.Library>
libRbt.so (2013.1, Build901 2013/11/27)

>  <Rbt.Parameter_File>
/export/apps/rDock/src/rDock_2013.1_src/data/scripts/dock_solv.prm

>  <Rbt.Receptor>
prm/blind_docking_20.prm

>  <SCORE>
-5.96304

>  <SCORE.INTER>
0.0829692

>  <SCORE.INTER.CONST>
1

>  <SCORE.INTER.POLAR>
0

>  <SCORE.INTER.ROT>
11

>  <SCORE.INTER.SOLV>
9.18894

>  <SCORE.INTER.VDW>
-13.941

>  <SCORE.INTER.norm>
0.00592637

>  <SCORE.INTRA>
-6.04601

>  <SCORE.INTRA.DIHEDRAL>
-12.013

>  <SCORE.INTRA.DIHEDRAL.0>
19.1003

>  <SCORE.INTRA.POLAR>
0

>  <SCORE.INTRA.POLAR.0>
0

>  <SCORE.INTRA.REPUL>
0

>  <SCORE.INTRA.REPUL.0>
0

>  <SCORE.INTRA.SOLV>
1.69751

>  <SCORE.INTRA.SOLV.lig_0>
-47.5333

>  <SCORE.INTRA.VDW>
-0.888278

>  <SCORE.INTRA.VDW.0>
-0.287413

>  <SCORE.INTRA.norm>
-0.431858

>  <SCORE.RESTR>
0

>  <SCORE.RESTR.CAVITY>
0

>  <SCORE.RESTR.norm>
0

>  <SCORE.SYSTEM>
0

>  <SCORE.SYSTEM.CONST>
0

>  <SCORE.SYSTEM.DIHEDRAL>
0

>  <SCORE.SYSTEM.SOLV>
0

>  <SCORE.SYSTEM.norm>
0

>  <SCORE.heavy>
14

>  <SCORE.norm>
-0.425932

>  <RMSD>
55.858

$$$$
ligand
 OpenBabel11021811493D
libRbt.so/2013.1/901 2013/11/27
 14 13  0  0  0  0  0  0  0  0999 V2000
   11.6801   13.0536   23.9254 N   0  0  0  0  0  0  0  0  0  0  0  0
   11.8316   11.9061   24.7929 C   0  0  0  0  0  0  0  0  0  0  0  0
   11.2323   12.2358   26.1756 C   0  0  0  0  0  0  0  0  0  0  0  0
    9.7172   12.4906   26.1545 C   0  0  0  0  0  0  0  0  0  0  0  0
    9.1201   12.9082   27.4323 N   0  0  0  0  0  0  0  0  0  0  0  0
    7.8107   13.5489   27.5417 C   0  0  0  0  0  0  0  0  0  0  0  0
    7.6450   14.3526   28.8274 C   0  0  0  0  0  0  0  0  0  0  0  0
    6.3714   15.2038   28.8591 C   0  0  0  0  0  0  0  0  0  0  0  0
    6.2681   16.0364   30.1424 C   0  0  0  0  0  0  0  0  0  0  0  0
    7.4312   16.9155   30.2440 N   0  0  0  0  0  0  0  0  0  0  0  0
    7.4733   18.2931   29.7501 C   0  0  0  0  0  0  0  0  0  0  0  0
    7.6373   18.3748   28.2261 C   0  0  0  0  0  0  0  0  0  0  0  0
    8.9897   17.8110   27.7780 C   0  0  0  0  0  0  0  0  0  0  0  0
    9.1454   18.0108   26.3402 N   0  0  0  0  0  0  0  0  0  0  0  0
  1  2  1  0  0  0  0
  2  3  1  0  0  0  0
  3  4  1  0  0  0  0
  4  5  1  0  0  0  0
  5  6  1  0  0  0  0
  6  7  1  0  0  0  0
  7  8  1  0  0  0  0
  8  9  1  0  0  0  0
  9 10  1  0  0  0  0
 10 11  1  0  0  0  0
 11 12  1  0  0  0  0
 12 13  1  0  0  0  0
 13 14  1  0  0  0  0
M  END
>  <CHROM.1>
64.18748491,-175.55148487,162.18389494,-157.73305844,171.00402206,-177.81301286
59.03148185,92.90411565,-76.97212035,-64.90983519,-175.34424957,8.73928766
15.08145734,27.58521835,-0.73380234,0.81208272,0.00153591

>  <Name>
ligand

>  <RI>
0

>  <Rbt.Current_Directory>
/home/itssahil/PROJECTS/Mol_Feturizer/New_Systems/rnas/4FAW

>  <Rbt.Executable>
rbdock ($Id: //depot/dev/client3/rdock/2013.1/src/exe/rbdock.cxx#4 $)

>  <Rbt.Library>
libRbt.so (2013.1, Build901 2013/11/27)

>  <Rbt.Parameter_File>
/export/apps/rDock/src/rDock_2013.1_src/data/scripts/dock_solv.prm

>  <Rbt.Receptor>
prm/blind_docking_60.prm

>  <SCORE>
-5.30706

>  <SCORE.INTER>
4.17744

>  <SCORE.INTER.CONST>
1

>  <SCORE.INTER.POLAR>
0

>  <SCORE.INTER.ROT>
11

>  <SCORE.INTER.SOLV>
15.0956

>  <SCORE.INTER.VDW>
-13.1802

>  <SCORE.INTER.norm>
0.298389

>  <SCORE.INTRA>
-9.4845

>  <SCORE.INTRA.DIHEDRAL>
-16.9443

>  <SCORE.INTRA.DIHEDRAL.0>
19.1003

>  <SCORE.INTRA.POLAR>
0

>  <SCORE.INTRA.POLAR.0>
0

>  <SCORE.INTRA.REPUL>
0

>  <SCORE.INTRA.REPUL.0>
0

>  <SCORE.INTRA.SOLV>
0.0304464

>  <SCORE.INTRA.SOLV.lig_0>
-47.5333

>  <SCORE.INTRA.VDW>
-1.02755

>  <SCORE.INTRA.VDW.0>
-0.287413

>  <SCORE.INTRA.norm>
-0.677464

>  <SCORE.RESTR>
0

>  <SCORE.RESTR.CAVITY>
0

>  <SCORE.RESTR.norm>
0

>  <SCORE.SYSTEM>
0

>  <SCORE.SYSTEM.CONST>
0

>  <SCORE.SYSTEM.DIHEDRAL>
0

>  <SCORE.SYSTEM.SOLV>
0

>  <SCORE.SYSTEM.norm>
0

>  <SCORE.heavy>
14

>  <SCORE.norm>
-0.379076

>  <RMSD>
55.874

$$$$
ligand
 OpenBabel11021811493D
libRbt.so/2013.1/901 2013/11/27
 14 13  0  0  0  0  0  0  0  0999 V2000
   10.5575   16.7622   40.4392 N   0  0  0  0  0  0  0  0  0  0  0  0
   10.3235   15.9059   39.2973 C   0  0  0  0  0  0  0  0  0  0  0  0
   11.6638   15.6429   38.5803 C   0  0  0  0  0  0  0  0  0  0  0  0
   11.5613   14.6544   37.4084 C   0  0  0  0  0  0  0  0  0  0  0  0
   12.8263   14.3302   36.7315 N   0  0  0  0  0  0  0  0  0  0  0  0
   12.9018   13.7795   35.3794 C   0  0  0  0  0  0  0  0  0  0  0  0
   14.3336   13.5429   34.9103 C   0  0  0  0  0  0  0  0  0  0  0  0
   15.0402   12.4007   35.6476 C   0  0  0  0  0  0  0  0  0  0  0  0
   16.4544   12.1560   35.1082 C   0  0  0  0  0  0  0  0  0  0  0  0
   17.0540   11.0271   35.8165 N   0  0  0  0  0  0  0  0  0  0  0  0
   16.6420    9.6321   35.6502 C   0  0  0  0  0  0  0  0  0  0  0  0
   17.8167    8.6486   35.7459 C   0  0  0  0  0  0  0  0  0  0  0  0
   17.3582    7.2053   35.5132 C   0  0  0  0  0  0  0  0  0  0  0  0
   18.5161    6.3170   35.5526 N   0  0  0  0  0  0  0  0  0  0  0  0
  1  2  1  0  0  0  0
  2  3  1  0  0  0  0
  3  4  1  0  0  0  0
  4  5  1  0  0  0  0
  5  6  1  0  0  0  0
  6  7  1  0  0  0  0
  7  8  1  0  0  0  0
  8  9  1  0  0  0  0
  9 10  1  0  0  0  0
 10 11  1  0  0  0  0
 11 12  1  0  0  0  0
 12 13  1  0  0  0  0
 13 14  1  0  0  0  0
M  END
>  <CHROM.1>
175.55576822,-177.50333699,-159.71167218,179.61697324,69.35871125,177.60499128
-177.93932926,70.89102552,144.61318592,-177.78285262,177.40043268,14.50343304
12.28613635,36.55552096,2.94099827,0.87934683,-0.91590948

>  <Name>
ligand

>  <RI>
0

>  <Rbt.Current_Directory>
/home/itssahil/PROJECTS/Mol_Feturizer/New_Systems/rnas/4FAW

>  <Rbt.Executable>
rbdock ($Id: //depot/dev/client3/rdock/2013.1/src/exe/rbdock.cxx#4 $)

>  <Rbt.Library>
libRbt.so (2013.1, Build901 2013/11/27)

>  <Rbt.Parameter_File>
/export/apps/rDock/src/rDock_2013.1_src/data/scripts/dock_solv.prm

>  <Rbt.Receptor>
prm/blind_docking_80.prm

>  <SCORE>
-13.7639

>  <SCORE.INTER>
-3.75543

>  <SCORE.INTER.CONST>
1

>  <SCORE.INTER.POLAR>
0

>  <SCORE.INTER.ROT>
11

>  <SCORE.INTER.SOLV>
12.5539

>  <SCORE.INTER.VDW>
-17.6216

>  <SCORE.INTER.norm>
-0.268245

>  <SCORE.INTRA>
-10.0085

>  <SCORE.INTRA.DIHEDRAL>
-17.4235

>  <SCORE.INTRA.DIHEDRAL.0>
19.1003

>  <SCORE.INTRA.POLAR>
0

>  <SCORE.INTRA.POLAR.0>
0

>  <SCORE.INTRA.REPUL>
0

>  <SCORE.INTRA.REPUL.0>
0

>  <SCORE.INTRA.SOLV>
-1.17293

>  <SCORE.INTRA.SOLV.lig_0>
-47.5333

>  <SCORE.INTRA.VDW>
-0.71027

>  <SCORE.INTRA.VDW.0>
-0.287413

>  <SCORE.INTRA.norm>
-0.714891

>  <SCORE.RESTR>
0

>  <SCORE.RESTR.CAVITY>
0

>  <SCORE.RESTR.norm>
0

>  <SCORE.SYSTEM>
0

>  <SCORE.SYSTEM.CONST>
0

>  <SCORE.SYSTEM.DIHEDRAL>
0

>  <SCORE.SYSTEM.SOLV>
0

>  <SCORE.SYSTEM.norm>
0

>  <SCORE.heavy>
14

>  <SCORE.norm>
-0.983136

>  <RMSD>
55.902

$$$$
ligand
 OpenBabel11021811493D
libRbt.so/2013.1/901 2013/11/27
 14 13  0  0  0  0  0  0  0  0999 V2000
    2.4065    5.5451    0.4158 N   0  0  0  0  0  0  0  0  0  0  0  0
    1.9729    4.4782    1.2909 C   0  0  0  0  0  0  0  0  0  0  0  0
    2.5950    4.6860    2.6871 C   0  0  0  0  0  0  0  0  0  0  0  0
    2.0941    5.9445    3.4126 C   0  0  0  0  0  0  0  0  0  0  0  0
    0.7085    5.8920    3.9034 N   0  0  0  0  0  0  0  0  0  0  0  0
    0.0235    7.0298    4.5144 C   0  0  0  0  0  0  0  0  0  0  0  0
    0.5367    7.3544    5.9135 C   0  0  0  0  0  0  0  0  0  0  0  0
   -0.1937    8.5256    6.5786 C   0  0  0  0  0  0  0  0  0  0  0  0
    0.3533    8.8233    7.9797 C   0  0  0  0  0  0  0  0  0  0  0  0
    0.1079    7.6746    8.8492 N   0  0  0  0  0  0  0  0  0  0  0  0
   -1.2214    7.1802    9.2124 C   0  0  0  0  0  0  0  0  0  0  0  0
   -1.4601    7.1720   10.7287 C   0  0  0  0  0  0  0  0  0  0  0  0
   -2.7758    6.4719   11.0841 C   0  0  0  0  0  0  0  0  0  0  0  0
   -2.9857    6.5389   12.5273 N   0  0  0  0  0  0  0  0  0  0  0  0
  1  2  1  0  0  0  0
  2  3  1  0  0  0  0
  3  4  1  0  0  0  0
  4  5  1  0  0  0  0
  5  6  1  0  0  0  0
  6  7  1  0  0  0  0
  7  8  1  0  0  0  0
  8  9  1  0  0  0  0
  9 10  1  0  0  0  0
 10 11  1  0  0  0  0
 11 12  1  0  0  0  0
 12 13  1  0  0  0  0
 13 14  1  0  0  0  0
M  END
>  <CHROM.1>
65.81875756,71.60532824,-174.63261169,-72.15993793,-178.72145530,-179.81655533
-63.75690126,-63.26853915,-121.63006493,-172.09811450,-177.62790153,0.15445739
6.66556320,6.36409623,0.60059254,-1.06434190,-2.67540288

>  <Name>
ligand

>  <RI>
0

>  <Rbt.Current_Directory>
/home/itssahil/PROJECTS/Mol_Feturizer/New_Systems/rnas/4FAW

>  <Rbt.Executable>
rbdock ($Id: //depot/dev/client3/rdock/2013.1/src/exe/rbdock.cxx#4 $)

>  <Rbt.Library>
libRbt.so (2013.1, Build901 2013/11/27)

>  <Rbt.Parameter_File>
/export/apps/rDock/src/rDock_2013.1_src/data/scripts/dock_solv.prm

>  <Rbt.Receptor>
prm/blind_docking_20.prm

>  <SCORE>
-3.46136

>  <SCORE.INTER>
5.06559

>  <SCORE.INTER.CONST>
1

>  <SCORE.INTER.POLAR>
0

>  <SCORE.INTER.ROT>
11

>  <SCORE.INTER.SOLV>
11.7681

>  <SCORE.INTER.VDW>
-11.479

>  <SCORE.INTER.norm>
0.361828

>  <SCORE.INTRA>
-8.52695

>  <SCORE.INTRA.DIHEDRAL>
-16.8178

>  <SCORE.INTRA.DIHEDRAL.0>
19.1003

>  <SCORE.INTRA.POLAR>
0

>  <SCORE.INTRA.POLAR.0>
0

>  <SCORE.INTRA.REPUL>
0

>  <SCORE.INTRA.REPUL.0>
0

>  <SCORE.INTRA.SOLV>
0.366089

>  <SCORE.INTRA.SOLV.lig_0>
-47.5333

>  <SCORE.INTRA.VDW>
-0.301105

>  <SCORE.INTRA.VDW.0>
-0.287413

>  <SCORE.INTRA.norm>
-0.609068

>  <SCORE.RESTR>
0

>  <SCORE.RESTR.CAVITY>
0

>  <SCORE.RESTR.norm>
0

>  <SCORE.SYSTEM>
0

>  <SCORE.SYSTEM.CONST>
0

>  <SCORE.SYSTEM.DIHEDRAL>
0

>  <SCORE.SYSTEM.SOLV>
0

>  <SCORE.SYSTEM.norm>
0

>  <SCORE.heavy>
14

>  <SCORE.norm>
-0.24724

>  <RMSD>
55.966

$$$$
ligand
 OpenBabel11021811493D
libRbt.so/2013.1/901 2013/11/27
 14 13  0  0  0  0  0  0  0  0999 V2000
   -2.4466    5.9228    6.6908 N   0  0  0  0  0  0  0  0  0  0  0  0
   -2.1055    5.7148    8.0810 C   0  0  0  0  0  0  0  0  0  0  0  0
   -3.0833    6.5150    8.9660 C   0  0  0  0  0  0  0  0  0  0  0  0
   -2.7792    6.4268   10.4696 C   0  0  0  0  0  0  0  0  0  0  0  0
   -1.4865    6.9845   10.8954 N   0  0  0  0  0  0  0  0  0  0  0  0
   -0.8934    8.1869   10.3128 C   0  0  0  0  0  0  0  0  0  0  0  0
    0.4930    7.9441    9.7253 C   0  0  0  0  0  0  0  0  0  0  0  0
    0.8077    8.8242    8.5112 C   0  0  0  0  0  0  0  0  0  0  0  0
    2.1477    8.4540    7.8645 C   0  0  0  0  0  0  0  0  0  0  0  0
    2.3871    9.3240    6.7150 N   0  0  0  0  0  0  0  0  0  0  0  0
    3.4900    9.1579    5.7665 C   0  0  0  0  0  0  0  0  0  0  0  0
    3.0563    8.4743    4.4624 C   0  0  0  0  0  0  0  0  0  0  0  0
    2.6225    7.0254    4.7077 C   0  0  0  0  0  0  0  0  0  0  0  0
    2.2337    6.4149    3.4398 N   0  0  0  0  0  0  0  0  0  0  0  0
  1  2  1  0  0  0  0
  2  3  1  0  0  0  0
  3  4  1  0  0  0  0
  4  5  1  0  0  0  0
  5  6  1  0  0  0  0
  6  7  1  0  0  0  0
  7  8  1  0  0  0  0
  8  9  1  0  0  0  0
  9 10  1  0  0  0  0
 10 11  1  0  0  0  0
 11 12  1  0  0  0  0
 12 13  1  0  0  0  0
 13 14  1  0  0  0  0
M  END
>  <CHROM.1>
-177.22994464,63.17614716,37.15534073,-122.37603323,147.97179401,-174.24120474
179.85585355,-172.57639978,100.41743156,-65.82222474,-179.40851788,0.31746941
7.52654309,7.61513882,2.57634319,0.56575645,1.14591976

>  <Name>
ligand

>  <RI>
0

>  <Rbt.Current_Directory>
/home/itssahil/PROJECTS/Mol_Feturizer/New_Systems/rnas/4FAW

>  <Rbt.Executable>
rbdock ($Id: //depot/dev/client3/rdock/2013.1/src/exe/rbdock.cxx#4 $)

>  <Rbt.Library>
libRbt.so (2013.1, Build901 2013/11/27)

>  <Rbt.Parameter_File>
/export/apps/rDock/src/rDock_2013.1_src/data/scripts/dock_solv.prm

>  <Rbt.Receptor>
prm/blind_docking_20.prm

>  <SCORE>
-2.02273

>  <SCORE.INTER>
5.70265

>  <SCORE.INTER.CONST>
1

>  <SCORE.INTER.POLAR>
0

>  <SCORE.INTER.ROT>
11

>  <SCORE.INTER.SOLV>
9.20572

>  <SCORE.INTER.VDW>
-10.2001

>  <SCORE.INTER.norm>
0.407332

>  <SCORE.INTRA>
-7.72538

>  <SCORE.INTRA.DIHEDRAL>
-13.1822

>  <SCORE.INTRA.DIHEDRAL.0>
19.1003

>  <SCORE.INTRA.POLAR>
0

>  <SCORE.INTRA.POLAR.0>
0

>  <SCORE.INTRA.REPUL>
0

>  <SCORE.INTRA.REPUL.0>
0

>  <SCORE.INTRA.SOLV>
-0.68714

>  <SCORE.INTRA.SOLV.lig_0>
-47.5333

>  <SCORE.INTRA.VDW>
-0.79073

>  <SCORE.INTRA.VDW.0>
-0.287413

>  <SCORE.INTRA.norm>
-0.551813

>  <SCORE.RESTR>
0

>  <SCORE.RESTR.CAVITY>
0

>  <SCORE.RESTR.norm>
0

>  <SCORE.SYSTEM>
0

>  <SCORE.SYSTEM.CONST>
0

>  <SCORE.SYSTEM.DIHEDRAL>
0

>  <SCORE.SYSTEM.SOLV>
0

>  <SCORE.SYSTEM.norm>
0

>  <SCORE.heavy>
14

>  <SCORE.norm>
-0.144481

>  <RMSD>
56.011

$$$$
ligand
 OpenBabel11021811493D
libRbt.so/2013.1/901 2013/11/27
 14 13  0  0  0  0  0  0  0  0999 V2000
   -2.3949    6.3313   12.2471 N   0  0  0  0  0  0  0  0  0  0  0  0
   -1.0357    6.7322   11.9575 C   0  0  0  0  0  0  0  0  0  0  0  0
   -0.5844    7.7765   12.9994 C   0  0  0  0  0  0  0  0  0  0  0  0
    0.8243    8.3375   12.7511 C   0  0  0  0  0  0  0  0  0  0  0  0
    0.9831    9.1570   11.5400 N   0  0  0  0  0  0  0  0  0  0  0  0
    1.4949    8.6369   10.2733 C   0  0  0  0  0  0  0  0  0  0  0  0
    0.4296    8.5630    9.1843 C   0  0  0  0  0  0  0  0  0  0  0  0
    0.9877    8.2046    7.8031 C   0  0  0  0  0  0  0  0  0  0  0  0
   -0.1157    8.1166    6.7422 C   0  0  0  0  0  0  0  0  0  0  0  0
    0.4921    7.9360    5.4255 N   0  0  0  0  0  0  0  0  0  0  0  0
    0.9170    6.6456    4.8798 C   0  0  0  0  0  0  0  0  0  0  0  0
    0.0914    6.2138    3.6599 C   0  0  0  0  0  0  0  0  0  0  0  0
    0.6794    4.9616    3.0013 C   0  0  0  0  0  0  0  0  0  0  0  0
    1.9814    5.2836    2.4247 N   0  0  0  0  0  0  0  0  0  0  0  0
  1  2  1  0  0  0  0
  2  3  1  0  0  0  0
  3  4  1  0  0  0  0
  4  5  1  0  0  0  0
  5  6  1  0  0  0  0
  6  7  1  0  0  0  0
  7  8  1  0  0  0  0
  8  9  1  0  0  0  0
  9 10  1  0  0  0  0
 10 11  1  0  0  0  0
 11 12  1  0  0  0  0
 12 13  1  0  0  0  0
 13 14  1  0  0  0  0
M  END
>  <CHROM.1>
-176.88259283,66.77805218,-96.91334162,110.54573730,172.05649829,179.01621171
173.10772385,83.53300240,113.87217980,172.29230070,-66.58020523,0.33932408
7.34979308,8.20649167,1.76229483,0.81430450,1.22255461

>  <Name>
ligand

>  <RI>
0

>  <Rbt.Current_Directory>
/home/itssahil/PROJECTS/Mol_Feturizer/New_Systems/rnas/4FAW

>  <Rbt.Executable>
rbdock ($Id: //depot/dev/client3/rdock/2013.1/src/exe/rbdock.cxx#4 $)

>  <Rbt.Library>
libRbt.so (2013.1, Build901 2013/11/27)

>  <Rbt.Parameter_File>
/export/apps/rDock/src/rDock_2013.1_src/data/scripts/dock_solv.prm

>  <Rbt.Receptor>
prm/blind_docking_20.prm

>  <SCORE>
-5.83529

>  <SCORE.INTER>
2.64982

>  <SCORE.INTER.CONST>
1

>  <SCORE.INTER.POLAR>
0

>  <SCORE.INTER.ROT>
11

>  <SCORE.INTER.SOLV>
10.4527

>  <SCORE.INTER.VDW>
-12.651

>  <SCORE.INTER.norm>
0.189273

>  <SCORE.INTRA>
-8.48511

>  <SCORE.INTRA.DIHEDRAL>
-14.5801

>  <SCORE.INTRA.DIHEDRAL.0>
19.1003

>  <SCORE.INTRA.POLAR>
0

>  <SCORE.INTRA.POLAR.0>
0

>  <SCORE.INTRA.REPUL>
0

>  <SCORE.INTRA.REPUL.0>
0

>  <SCORE.INTRA.SOLV>
-0.374161

>  <SCORE.INTRA.SOLV.lig_0>
-47.5333

>  <SCORE.INTRA.VDW>
-1.008

>  <SCORE.INTRA.VDW.0>
-0.287413

>  <SCORE.INTRA.norm>
-0.606079

>  <SCORE.RESTR>
0

>  <SCORE.RESTR.CAVITY>
0

>  <SCORE.RESTR.norm>
0

>  <SCORE.SYSTEM>
0

>  <SCORE.SYSTEM.CONST>
0

>  <SCORE.SYSTEM.DIHEDRAL>
0

>  <SCORE.SYSTEM.SOLV>
0

>  <SCORE.SYSTEM.norm>
0

>  <SCORE.heavy>
14

>  <SCORE.norm>
-0.416806

>  <RMSD>
56.018

$$$$
ligand
 OpenBabel11021811493D
libRbt.so/2013.1/901 2013/11/27
 14 13  0  0  0  0  0  0  0  0999 V2000
    1.8181    5.0366    2.5215 N   0  0  0  0  0  0  0  0  0  0  0  0
    0.5896    5.2512    3.2543 C   0  0  0  0  0  0  0  0  0  0  0  0
    0.6445    6.6327    3.9384 C   0  0  0  0  0  0  0  0  0  0  0  0
   -0.6072    6.9711    4.7630 C   0  0  0  0  0  0  0  0  0  0  0  0
   -0.8002    6.1802    5.9881 N   0  0  0  0  0  0  0  0  0  0  0  0
   -2.1083    5.7359    6.4660 C   0  0  0  0  0  0  0  0  0  0  0  0
   -2.2120    5.7135    7.9875 C   0  0  0  0  0  0  0  0  0  0  0  0
   -2.3864    7.1020    8.6112 C   0  0  0  0  0  0  0  0  0  0  0  0
   -1.1356    7.9716    8.4373 C   0  0  0  0  0  0  0  0  0  0  0  0
   -0.0322    7.3902    9.1989 N   0  0  0  0  0  0  0  0  0  0  0  0
    0.3916    7.8482   10.5233 C   0  0  0  0  0  0  0  0  0  0  0  0
    1.5560    8.8466   10.4639 C   0  0  0  0  0  0  0  0  0  0  0  0
    2.7888    8.2293    9.7954 C   0  0  0  0  0  0  0  0  0  0  0  0
    2.5476    8.0983    8.3615 N   0  0  0  0  0  0  0  0  0  0  0  0
  1  2  1  0  0  0  0
  2  3  1  0  0  0  0
  3  4  1  0  0  0  0
  4  5  1  0  0  0  0
  5  6  1  0  0  0  0
  6  7  1  0  0  0  0
  7  8  1  0  0  0  0
  8  9  1  0  0  0  0
  9 10  1  0  0  0  0
 10 11  1  0  0  0  0
 11 12  1  0  0  0  0
 12 13  1  0  0  0  0
 13 14  1  0  0  0  0
M  END
>  <CHROM.1>
-179.45961325,69.08436646,-142.69784581,-145.42081139,76.46830959,-67.35224398
-65.79576041,-99.14801830,-95.61518018,-59.95836651,72.31511253,0.07498134
6.92920393,7.16527520,-1.63754712,0.24356580,1.21599906

>  <Name>
ligand

>  <RI>
0

>  <Rbt.Current_Directory>
/home/itssahil/PROJECTS/Mol_Feturizer/New_Systems/rnas/4FAW

>  <Rbt.Executable>
rbdock ($Id: //depot/dev/client3/rdock/2013.1/src/exe/rbdock.cxx#4 $)

>  <Rbt.Library>
libRbt.so (2013.1, Build901 2013/11/27)

>  <Rbt.Parameter_File>
/export/apps/rDock/src/rDock_2013.1_src/data/scripts/dock_solv.prm

>  <Rbt.Receptor>
prm/blind_docking_20.prm

>  <SCORE>
-3.22564

>  <SCORE.INTER>
2.36307

>  <SCORE.INTER.CONST>
1

>  <SCORE.INTER.POLAR>
0

>  <SCORE.INTER.ROT>
11

>  <SCORE.INTER.SOLV>
11.1991

>  <SCORE.INTER.VDW>
-13.091

>  <SCORE.INTER.norm>
0.16879

>  <SCORE.INTRA>
-5.59591

>  <SCORE.INTRA.DIHEDRAL>
-13.7078

>  <SCORE.INTRA.DIHEDRAL.0>
19.1003

>  <SCORE.INTRA.POLAR>
0

>  <SCORE.INTRA.POLAR.0>
0

>  <SCORE.INTRA.REPUL>
0.0126097

>  <SCORE.INTRA.REPUL.0>
0

>  <SCORE.INTRA.SOLV>
3.98172

>  <SCORE.INTRA.SOLV.lig_0>
-47.5333

>  <SCORE.INTRA.VDW>
-0.79592

>  <SCORE.INTRA.VDW.0>
-0.287413

>  <SCORE.INTRA.norm>
-0.399708

>  <SCORE.RESTR>
0.00720569

>  <SCORE.RESTR.CAVITY>
0.00720569

>  <SCORE.RESTR.norm>
0.000514692

>  <SCORE.SYSTEM>
0

>  <SCORE.SYSTEM.CONST>
0

>  <SCORE.SYSTEM.DIHEDRAL>
0

>  <SCORE.SYSTEM.SOLV>
0

>  <SCORE.SYSTEM.norm>
0

>  <SCORE.heavy>
14

>  <SCORE.norm>
-0.230403

>  <RMSD>
56.056

$$$$
ligand
 OpenBabel11021811493D
libRbt.so/2013.1/901 2013/11/27
 14 13  0  0  0  0  0  0  0  0999 V2000
    2.0488    6.1679    1.6725 N   0  0  0  0  0  0  0  0  0  0  0  0
    1.9059    5.0536    2.5836 C   0  0  0  0  0  0  0  0  0  0  0  0
    0.4215    4.9116    2.9787 C   0  0  0  0  0  0  0  0  0  0  0  0
   -0.1419    6.1249    3.7347 C   0  0  0  0  0  0  0  0  0  0  0  0
   -1.4865    5.9553    4.3066 N   0  0  0  0  0  0  0  0  0  0  0  0
   -1.9280    6.6035    5.5402 C   0  0  0  0  0  0  0  0  0  0  0  0
   -1.2035    6.0864    6.7787 C   0  0  0  0  0  0  0  0  0  0  0  0
    0.2766    6.4788    6.8324 C   0  0  0  0  0  0  0  0  0  0  0  0
    0.4832    7.8575    7.4706 C   0  0  0  0  0  0  0  0  0  0  0  0
    0.1766    7.7812    8.8974 N   0  0  0  0  0  0  0  0  0  0  0  0
    0.4005    8.8688    9.8516 C   0  0  0  0  0  0  0  0  0  0  0  0
    0.8987    8.3713   11.2157 C   0  0  0  0  0  0  0  0  0  0  0  0
   -0.0946    7.3930   11.8512 C   0  0  0  0  0  0  0  0  0  0  0  0
   -1.3777    8.0622   12.0437 N   0  0  0  0  0  0  0  0  0  0  0  0
  1  2  1  0  0  0  0
  2  3  1  0  0  0  0
  3  4  1  0  0  0  0
  4  5  1  0  0  0  0
  5  6  1  0  0  0  0
  6  7  1  0  0  0  0
  7  8  1  0  0  0  0
  8  9  1  0  0  0  0
  9 10  1  0  0  0  0
 10 11  1  0  0  0  0
 11 12  1  0  0  0  0
 12 13  1  0  0  0  0
 13 14  1  0  0  0  0
M  END
>  <CHROM.1>
-62.76798320,-171.18646647,147.88760650,-67.29869065,68.76310358,86.41727853
69.52177268,173.10659145,-141.75783681,-58.77299773,-60.10090467,0.02719966
6.83679471,6.83988873,-1.47367111,0.21115917,1.25678824

>  <Name>
ligand

>  <RI>
0

>  <Rbt.Current_Directory>
/home/itssahil/PROJECTS/Mol_Feturizer/New_Systems/rnas/4FAW

>  <Rbt.Executable>
rbdock ($Id: //depot/dev/client3/rdock/2013.1/src/exe/rbdock.cxx#4 $)

>  <Rbt.Library>
libRbt.so (2013.1, Build901 2013/11/27)

>  <Rbt.Parameter_File>
/export/apps/rDock/src/rDock_2013.1_src/data/scripts/dock_solv.prm

>  <Rbt.Receptor>
prm/blind_docking_20.prm

>  <SCORE>
-5.7806

>  <SCORE.INTER>
0.30142

>  <SCORE.INTER.CONST>
1

>  <SCORE.INTER.POLAR>
0

>  <SCORE.INTER.ROT>
11

>  <SCORE.INTER.SOLV>
7.22413

>  <SCORE.INTER.VDW>
-13.1404

>  <SCORE.INTER.norm>
0.02153

>  <SCORE.INTRA>
-6.08434

>  <SCORE.INTRA.DIHEDRAL>
-14.067

>  <SCORE.INTRA.DIHEDRAL.0>
19.1003

>  <SCORE.INTRA.POLAR>
0

>  <SCORE.INTRA.POLAR.0>
0

>  <SCORE.INTRA.REPUL>
0

>  <SCORE.INTRA.REPUL.0>
0

>  <SCORE.INTRA.SOLV>
2.06935

>  <SCORE.INTRA.SOLV.lig_0>
-47.5333

>  <SCORE.INTRA.VDW>
-0.085499

>  <SCORE.INTRA.VDW.0>
-0.287413

>  <SCORE.INTRA.norm>
-0.434596

>  <SCORE.RESTR>
0.00232598

>  <SCORE.RESTR.CAVITY>
0.00232598

>  <SCORE.RESTR.norm>
0.000166141

>  <SCORE.SYSTEM>
0

>  <SCORE.SYSTEM.CONST>
0

>  <SCORE.SYSTEM.DIHEDRAL>
0

>  <SCORE.SYSTEM.SOLV>
0

>  <SCORE.SYSTEM.norm>
0

>  <SCORE.heavy>
14

>  <SCORE.norm>
-0.4129

>  <RMSD>
56.087

$$$$
ligand
 OpenBabel11021811493D
libRbt.so/2013.1/901 2013/11/27
 14 13  0  0  0  0  0  0  0  0999 V2000
   10.8942   11.9479   25.0149 N   0  0  0  0  0  0  0  0  0  0  0  0
   11.2317   13.3014   25.3976 C   0  0  0  0  0  0  0  0  0  0  0  0
    9.9716   13.9990   25.9499 C   0  0  0  0  0  0  0  0  0  0  0  0
   10.1964   15.4639   26.3557 C   0  0  0  0  0  0  0  0  0  0  0  0
    9.0303   16.1573   26.9240 N   0  0  0  0  0  0  0  0  0  0  0  0
    9.0882   17.5017   27.4951 C   0  0  0  0  0  0  0  0  0  0  0  0
    9.1853   18.5960   26.4371 C   0  0  0  0  0  0  0  0  0  0  0  0
    7.9103   18.7580   25.6030 C   0  0  0  0  0  0  0  0  0  0  0  0
    8.0362   19.8874   24.5737 C   0  0  0  0  0  0  0  0  0  0  0  0
    8.2200   21.1589   25.2703 N   0  0  0  0  0  0  0  0  0  0  0  0
    7.3922   22.3473   25.0564 C   0  0  0  0  0  0  0  0  0  0  0  0
    6.0259   22.2542   25.7498 C   0  0  0  0  0  0  0  0  0  0  0  0
    5.0982   21.2711   25.0283 C   0  0  0  0  0  0  0  0  0  0  0  0
    3.8307   21.1845   25.7475 N   0  0  0  0  0  0  0  0  0  0  0  0
  1  2  1  0  0  0  0
  2  3  1  0  0  0  0
  3  4  1  0  0  0  0
  4  5  1  0  0  0  0
  5  6  1  0  0  0  0
  6  7  1  0  0  0  0
  7  8  1  0  0  0  0
  8  9  1  0  0  0  0
  9 10  1  0  0  0  0
 10 11  1  0  0  0  0
 11 12  1  0  0  0  0
 12 13  1  0  0  0  0
 13 14  1  0  0  0  0
M  END
>  <CHROM.1>
-178.37886858,-178.32052968,173.31518095,75.13268590,68.78621263,178.69595551
-63.05673460,-126.44432131,77.16805125,-72.96323478,178.17873594,8.29378567
18.13082354,25.75739120,1.05327776,0.04165422,3.10996656

>  <Name>
ligand

>  <RI>
0

>  <Rbt.Current_Directory>
/home/itssahil/PROJECTS/Mol_Feturizer/New_Systems/rnas/4FAW

>  <Rbt.Executable>
rbdock ($Id: //depot/dev/client3/rdock/2013.1/src/exe/rbdock.cxx#4 $)

>  <Rbt.Library>
libRbt.so (2013.1, Build901 2013/11/27)

>  <Rbt.Parameter_File>
/export/apps/rDock/src/rDock_2013.1_src/data/scripts/dock_solv.prm

>  <Rbt.Receptor>
prm/blind_docking_40.prm

>  <SCORE>
-9.2122

>  <SCORE.INTER>
-0.0439166

>  <SCORE.INTER.CONST>
1

>  <SCORE.INTER.POLAR>
0

>  <SCORE.INTER.ROT>
11

>  <SCORE.INTER.SOLV>
16.266

>  <SCORE.INTER.VDW>
-16.3846

>  <SCORE.INTER.norm>
-0.0031369

>  <SCORE.INTRA>
-9.16828

>  <SCORE.INTRA.DIHEDRAL>
-16.5183

>  <SCORE.INTRA.DIHEDRAL.0>
19.1003

>  <SCORE.INTRA.POLAR>
0

>  <SCORE.INTRA.POLAR.0>
0

>  <SCORE.INTRA.REPUL>
0

>  <SCORE.INTRA.REPUL.0>
0

>  <SCORE.INTRA.SOLV>
-0.346169

>  <SCORE.INTRA.SOLV.lig_0>
-47.5333

>  <SCORE.INTRA.VDW>
-0.73603

>  <SCORE.INTRA.VDW.0>
-0.287413

>  <SCORE.INTRA.norm>
-0.654877

>  <SCORE.RESTR>
0

>  <SCORE.RESTR.CAVITY>
0

>  <SCORE.RESTR.norm>
0

>  <SCORE.SYSTEM>
0

>  <SCORE.SYSTEM.CONST>
0

>  <SCORE.SYSTEM.DIHEDRAL>
0

>  <SCORE.SYSTEM.SOLV>
0

>  <SCORE.SYSTEM.norm>
0

>  <SCORE.heavy>
14

>  <SCORE.norm>
-0.658014

>  <RMSD>
56.094

$$$$
ligand
 OpenBabel11021811493D
libRbt.so/2013.1/901 2013/11/27
 14 13  0  0  0  0  0  0  0  0999 V2000
    7.1373   10.3708   27.3064 N   0  0  0  0  0  0  0  0  0  0  0  0
    8.5788   10.3378   27.4216 C   0  0  0  0  0  0  0  0  0  0  0  0
    9.1290   11.7727   27.2880 C   0  0  0  0  0  0  0  0  0  0  0  0
    8.6482   12.7306   28.3891 C   0  0  0  0  0  0  0  0  0  0  0  0
    9.0133   14.1444   28.2124 N   0  0  0  0  0  0  0  0  0  0  0  0
    8.3934   15.2388   28.9575 C   0  0  0  0  0  0  0  0  0  0  0  0
    8.7233   16.6132   28.3845 C   0  0  0  0  0  0  0  0  0  0  0  0
    8.2309   16.8134   26.9475 C   0  0  0  0  0  0  0  0  0  0  0  0
    8.4498   18.2503   26.4596 C   0  0  0  0  0  0  0  0  0  0  0  0
    7.9195   18.3875   25.1048 N   0  0  0  0  0  0  0  0  0  0  0  0
    7.4093   19.6373   24.5380 C   0  0  0  0  0  0  0  0  0  0  0  0
    8.5025   20.6998   24.3582 C   0  0  0  0  0  0  0  0  0  0  0  0
    7.9255   22.0087   23.8091 C   0  0  0  0  0  0  0  0  0  0  0  0
    7.0265   22.5946   24.7989 N   0  0  0  0  0  0  0  0  0  0  0  0
  1  2  1  0  0  0  0
  2  3  1  0  0  0  0
  3  4  1  0  0  0  0
  4  5  1  0  0  0  0
  5  6  1  0  0  0  0
  6  7  1  0  0  0  0
  7  8  1  0  0  0  0
  8  9  1  0  0  0  0
  9 10  1  0  0  0  0
 10 11  1  0  0  0  0
 11 12  1  0  0  0  0
 12 13  1  0  0  0  0
 13 14  1  0  0  0  0
M  END
>  <CHROM.1>
62.25572982,-172.84481587,164.79850220,-167.52857558,61.62114509,174.01871673
-178.06656014,151.85616011,66.40356267,-178.04249175,65.70528515,8.22070687
16.40000142,26.56977109,1.33240137,1.29050716,3.03811099

>  <Name>
ligand

>  <RI>
0

>  <Rbt.Current_Directory>
/home/itssahil/PROJECTS/Mol_Feturizer/New_Systems/rnas/4FAW

>  <Rbt.Executable>
rbdock ($Id: //depot/dev/client3/rdock/2013.1/src/exe/rbdock.cxx#4 $)

>  <Rbt.Library>
libRbt.so (2013.1, Build901 2013/11/27)

>  <Rbt.Parameter_File>
/export/apps/rDock/src/rDock_2013.1_src/data/scripts/dock_solv.prm

>  <Rbt.Receptor>
prm/blind_docking_40.prm

>  <SCORE>
-7.15906

>  <SCORE.INTER>
1.92518

>  <SCORE.INTER.CONST>
1

>  <SCORE.INTER.POLAR>
0

>  <SCORE.INTER.ROT>
11

>  <SCORE.INTER.SOLV>
9.12426

>  <SCORE.INTER.VDW>
-12.6913

>  <SCORE.INTER.norm>
0.137513

>  <SCORE.INTRA>
-9.08424

>  <SCORE.INTRA.DIHEDRAL>
-17.7012

>  <SCORE.INTRA.DIHEDRAL.0>
19.1003

>  <SCORE.INTRA.POLAR>
0

>  <SCORE.INTRA.POLAR.0>
0

>  <SCORE.INTRA.REPUL>
0

>  <SCORE.INTRA.REPUL.0>
0

>  <SCORE.INTRA.SOLV>
0.452516

>  <SCORE.INTRA.SOLV.lig_0>
-47.5333

>  <SCORE.INTRA.VDW>
-0.459914

>  <SCORE.INTRA.VDW.0>
-0.287413

>  <SCORE.INTRA.norm>
-0.648874

>  <SCORE.RESTR>
0

>  <SCORE.RESTR.CAVITY>
0

>  <SCORE.RESTR.norm>
0

>  <SCORE.SYSTEM>
0

>  <SCORE.SYSTEM.CONST>
0

>  <SCORE.SYSTEM.DIHEDRAL>
0

>  <SCORE.SYSTEM.SOLV>
0

>  <SCORE.SYSTEM.norm>
0

>  <SCORE.heavy>
14

>  <SCORE.norm>
-0.511361

>  <RMSD>
56.103

$$$$
ligand
 OpenBabel11021811493D
libRbt.so/2013.1/901 2013/11/27
 14 13  0  0  0  0  0  0  0  0999 V2000
    5.1175   23.1841   22.4135 N   0  0  0  0  0  0  0  0  0  0  0  0
    5.2338   21.7440   22.3444 C   0  0  0  0  0  0  0  0  0  0  0  0
    4.1575   21.1065   23.2469 C   0  0  0  0  0  0  0  0  0  0  0  0
    4.3357   21.4123   24.7422 C   0  0  0  0  0  0  0  0  0  0  0  0
    5.6405   21.0531   25.3183 N   0  0  0  0  0  0  0  0  0  0  0  0
    6.2143   19.7105   25.2458 C   0  0  0  0  0  0  0  0  0  0  0  0
    7.7001   19.6770   25.5890 C   0  0  0  0  0  0  0  0  0  0  0  0
    8.5570   20.5785   24.6944 C   0  0  0  0  0  0  0  0  0  0  0  0
   10.0302   20.5772   25.1195 C   0  0  0  0  0  0  0  0  0  0  0  0
   10.7730   21.5271   24.2939 N   0  0  0  0  0  0  0  0  0  0  0  0
   12.1871   21.8573   24.4807 C   0  0  0  0  0  0  0  0  0  0  0  0
   12.6726   22.9581   23.5274 C   0  0  0  0  0  0  0  0  0  0  0  0
   14.1495   23.2911   23.7634 C   0  0  0  0  0  0  0  0  0  0  0  0
   14.5672   24.3305   22.8272 N   0  0  0  0  0  0  0  0  0  0  0  0
  1  2  1  0  0  0  0
  2  3  1  0  0  0  0
  3  4  1  0  0  0  0
  4  5  1  0  0  0  0
  5  6  1  0  0  0  0
  6  7  1  0  0  0  0
  7  8  1  0  0  0  0
  8  9  1  0  0  0  0
  9 10  1  0  0  0  0
 10 11  1  0  0  0  0
 11 12  1  0  0  0  0
 12 13  1  0  0  0  0
 13 14  1  0  0  0  0
M  END
>  <CHROM.1>
-64.75602732,-55.50942639,-55.36608839,165.18199784,-57.85120117,176.83584481
-175.86212893,175.55579114,-176.03091811,179.22161841,179.44197817,8.66670689
21.64300632,24.11491586,2.95683281,0.12178217,2.39075827

>  <Name>
ligand

>  <RI>
0

>  <Rbt.Current_Directory>
/home/itssahil/PROJECTS/Mol_Feturizer/New_Systems/rnas/4FAW

>  <Rbt.Executable>
rbdock ($Id: //depot/dev/client3/rdock/2013.1/src/exe/rbdock.cxx#4 $)

>  <Rbt.Library>
libRbt.so (2013.1, Build901 2013/11/27)

>  <Rbt.Parameter_File>
/export/apps/rDock/src/rDock_2013.1_src/data/scripts/dock_solv.prm

>  <Rbt.Receptor>
prm/blind_docking_100.prm

>  <SCORE>
-11.529

>  <SCORE.INTER>
-1.82861

>  <SCORE.INTER.CONST>
1

>  <SCORE.INTER.POLAR>
0

>  <SCORE.INTER.ROT>
11

>  <SCORE.INTER.SOLV>
19.0904

>  <SCORE.INTER.VDW>
-18.5159

>  <SCORE.INTER.norm>
-0.130615

>  <SCORE.INTRA>
-9.70037

>  <SCORE.INTRA.DIHEDRAL>
-18.5935

>  <SCORE.INTRA.DIHEDRAL.0>
19.1003

>  <SCORE.INTRA.POLAR>
0

>  <SCORE.INTRA.POLAR.0>
0

>  <SCORE.INTRA.REPUL>
0

>  <SCORE.INTRA.REPUL.0>
0

>  <SCORE.INTRA.SOLV>
0.7231

>  <SCORE.INTRA.SOLV.lig_0>
-47.5333

>  <SCORE.INTRA.VDW>
-0.765154

>  <SCORE.INTRA.VDW.0>
-0.287413

>  <SCORE.INTRA.norm>
-0.692884

>  <SCORE.RESTR>
0

>  <SCORE.RESTR.CAVITY>
0

>  <SCORE.RESTR.norm>
0

>  <SCORE.SYSTEM>
0

>  <SCORE.SYSTEM.CONST>
0

>  <SCORE.SYSTEM.DIHEDRAL>
0

>  <SCORE.SYSTEM.SOLV>
0

>  <SCORE.SYSTEM.norm>
0

>  <SCORE.heavy>
14

>  <SCORE.norm>
-0.823499

>  <RMSD>
56.206

$$$$
ligand
 OpenBabel11021811493D
libRbt.so/2013.1/901 2013/11/27
 14 13  0  0  0  0  0  0  0  0999 V2000
   -1.3019    6.2114    5.6311 N   0  0  0  0  0  0  0  0  0  0  0  0
   -1.5050    6.7164    6.9712 C   0  0  0  0  0  0  0  0  0  0  0  0
   -2.6761    5.9551    7.6257 C   0  0  0  0  0  0  0  0  0  0  0  0
   -3.0846    6.5021    9.0023 C   0  0  0  0  0  0  0  0  0  0  0  0
   -2.0397    6.4769   10.0373 N   0  0  0  0  0  0  0  0  0  0  0  0
   -2.3090    6.6584   11.4626 C   0  0  0  0  0  0  0  0  0  0  0  0
   -1.0523    6.5754   12.3228 C   0  0  0  0  0  0  0  0  0  0  0  0
   -0.0746    7.7326   12.0942 C   0  0  0  0  0  0  0  0  0  0  0  0
    0.5207    7.7117   10.6814 C   0  0  0  0  0  0  0  0  0  0  0  0
    1.5717    8.7225   10.5840 N   0  0  0  0  0  0  0  0  0  0  0  0
    2.9552    8.4435   10.1951 C   0  0  0  0  0  0  0  0  0  0  0  0
    3.0927    8.0638    8.7141 C   0  0  0  0  0  0  0  0  0  0  0  0
    4.5252    7.6379    8.3764 C   0  0  0  0  0  0  0  0  0  0  0  0
    4.5808    7.1809    6.9910 N   0  0  0  0  0  0  0  0  0  0  0  0
  1  2  1  0  0  0  0
  2  3  1  0  0  0  0
  3  4  1  0  0  0  0
  4  5  1  0  0  0  0
  5  6  1  0  0  0  0
  6  7  1  0  0  0  0
  7  8  1  0  0  0  0
  8  9  1  0  0  0  0
  9 10  1  0  0  0  0
 10 11  1  0  0  0  0
 11 12  1  0  0  0  0
 12 13  1  0  0  0  0
 13 14  1  0  0  0  0
M  END
>  <CHROM.1>
-173.97578221,-60.17149559,-165.41512054,179.47939317,67.25249028,-65.72085760
-172.43275751,123.27826291,69.85202622,-174.07521336,175.28264127,0.22860099
7.18491724,9.33534995,3.06127742,0.24738731,1.38515826

>  <Name>
ligand

>  <RI>
0

>  <Rbt.Current_Directory>
/home/itssahil/PROJECTS/Mol_Feturizer/New_Systems/rnas/4FAW

>  <Rbt.Executable>
rbdock ($Id: //depot/dev/client3/rdock/2013.1/src/exe/rbdock.cxx#4 $)

>  <Rbt.Library>
libRbt.so (2013.1, Build901 2013/11/27)

>  <Rbt.Parameter_File>
/export/apps/rDock/src/rDock_2013.1_src/data/scripts/dock_solv.prm

>  <Rbt.Receptor>
prm/blind_docking_20.prm

>  <SCORE>
-8.98081

>  <SCORE.INTER>
-0.183658

>  <SCORE.INTER.CONST>
1

>  <SCORE.INTER.POLAR>
0

>  <SCORE.INTER.ROT>
11

>  <SCORE.INTER.SOLV>
9.87009

>  <SCORE.INTER.VDW>
-14.3458

>  <SCORE.INTER.norm>
-0.0131184

>  <SCORE.INTRA>
-8.79715

>  <SCORE.INTRA.DIHEDRAL>
-16.7657

>  <SCORE.INTRA.DIHEDRAL.0>
19.1003

>  <SCORE.INTRA.POLAR>
0

>  <SCORE.INTRA.POLAR.0>
0

>  <SCORE.INTRA.REPUL>
0

>  <SCORE.INTRA.REPUL.0>
0

>  <SCORE.INTRA.SOLV>
-0.128427

>  <SCORE.INTRA.SOLV.lig_0>
-47.5333

>  <SCORE.INTRA.VDW>
-0.350067

>  <SCORE.INTRA.VDW.0>
-0.287413

>  <SCORE.INTRA.norm>
-0.628368

>  <SCORE.RESTR>
0

>  <SCORE.RESTR.CAVITY>
0

>  <SCORE.RESTR.norm>
0

>  <SCORE.SYSTEM>
0

>  <SCORE.SYSTEM.CONST>
0

>  <SCORE.SYSTEM.DIHEDRAL>
0

>  <SCORE.SYSTEM.SOLV>
0

>  <SCORE.SYSTEM.norm>
0

>  <SCORE.heavy>
14

>  <SCORE.norm>
-0.641486

>  <RMSD>
56.219

$$$$
ligand
 OpenBabel11021811493D
libRbt.so/2013.1/901 2013/11/27
 14 13  0  0  0  0  0  0  0  0999 V2000
    9.1060   11.4021   27.0836 N   0  0  0  0  0  0  0  0  0  0  0  0
   10.1515   12.3449   26.7514 C   0  0  0  0  0  0  0  0  0  0  0  0
    9.6750   13.7703   27.0987 C   0  0  0  0  0  0  0  0  0  0  0  0
   10.6661   14.8744   26.6990 C   0  0  0  0  0  0  0  0  0  0  0  0
   10.2520   16.2507   27.0120 N   0  0  0  0  0  0  0  0  0  0  0  0
    9.0323   16.8661   26.4919 C   0  0  0  0  0  0  0  0  0  0  0  0
    9.1361   18.3825   26.3649 C   0  0  0  0  0  0  0  0  0  0  0  0
    7.8389   19.0492   25.8956 C   0  0  0  0  0  0  0  0  0  0  0  0
    8.0134   20.5569   25.6781 C   0  0  0  0  0  0  0  0  0  0  0  0
    6.7035   21.1708   25.4707 N   0  0  0  0  0  0  0  0  0  0  0  0
    6.3207   22.4931   25.9692 C   0  0  0  0  0  0  0  0  0  0  0  0
    6.7745   23.6321   25.0457 C   0  0  0  0  0  0  0  0  0  0  0  0
    6.1090   23.5350   23.6690 C   0  0  0  0  0  0  0  0  0  0  0  0
    6.6083   24.6070   22.8130 N   0  0  0  0  0  0  0  0  0  0  0  0
  1  2  1  0  0  0  0
  2  3  1  0  0  0  0
  3  4  1  0  0  0  0
  4  5  1  0  0  0  0
  5  6  1  0  0  0  0
  6  7  1  0  0  0  0
  7  8  1  0  0  0  0
  8  9  1  0  0  0  0
  9 10  1  0  0  0  0
 10 11  1  0  0  0  0
 11 12  1  0  0  0  0
 12 13  1  0  0  0  0
 13 14  1  0  0  0  0
M  END
>  <CHROM.1>
-175.97991818,-179.99087027,-59.20814276,-151.99673461,-176.75676916,-175.65673518
-169.82102880,143.15316113,83.39932772,62.86953039,-177.90399419,8.31344193
18.49543850,25.86029627,1.21669925,0.48548989,3.06292027

>  <Name>
ligand

>  <RI>
0

>  <Rbt.Current_Directory>
/home/itssahil/PROJECTS/Mol_Feturizer/New_Systems/rnas/4FAW

>  <Rbt.Executable>
rbdock ($Id: //depot/dev/client3/rdock/2013.1/src/exe/rbdock.cxx#4 $)

>  <Rbt.Library>
libRbt.so (2013.1, Build901 2013/11/27)

>  <Rbt.Parameter_File>
/export/apps/rDock/src/rDock_2013.1_src/data/scripts/dock_solv.prm

>  <Rbt.Receptor>
prm/blind_docking_60.prm

>  <SCORE>
-10.3689

>  <SCORE.INTER>
-0.842884

>  <SCORE.INTER.CONST>
1

>  <SCORE.INTER.POLAR>
0

>  <SCORE.INTER.ROT>
11

>  <SCORE.INTER.SOLV>
10.2552

>  <SCORE.INTER.VDW>
-14.9137

>  <SCORE.INTER.norm>
-0.060206

>  <SCORE.INTRA>
-9.52602

>  <SCORE.INTRA.DIHEDRAL>
-16.7453

>  <SCORE.INTRA.DIHEDRAL.0>
19.1003

>  <SCORE.INTRA.POLAR>
0

>  <SCORE.INTRA.POLAR.0>
0

>  <SCORE.INTRA.REPUL>
0

>  <SCORE.INTRA.REPUL.0>
0

>  <SCORE.INTRA.SOLV>
-1.11521

>  <SCORE.INTRA.SOLV.lig_0>
-47.5333

>  <SCORE.INTRA.VDW>
-0.595778

>  <SCORE.INTRA.VDW.0>
-0.287413

>  <SCORE.INTRA.norm>
-0.68043

>  <SCORE.RESTR>
0

>  <SCORE.RESTR.CAVITY>
0

>  <SCORE.RESTR.norm>
0

>  <SCORE.SYSTEM>
0

>  <SCORE.SYSTEM.CONST>
0

>  <SCORE.SYSTEM.DIHEDRAL>
0

>  <SCORE.SYSTEM.SOLV>
0

>  <SCORE.SYSTEM.norm>
0

>  <SCORE.heavy>
14

>  <SCORE.norm>
-0.740636

>  <RMSD>
56.246

$$$$
ligand
 OpenBabel11021811493D
libRbt.so/2013.1/901 2013/11/27
 14 13  0  0  0  0  0  0  0  0999 V2000
    2.7978    6.0478    1.4968 N   0  0  0  0  0  0  0  0  0  0  0  0
    1.8756    4.9457    1.6617 C   0  0  0  0  0  0  0  0  0  0  0  0
    1.4452    4.8644    3.1408 C   0  0  0  0  0  0  0  0  0  0  0  0
    0.6433    6.0822    3.6254 C   0  0  0  0  0  0  0  0  0  0  0  0
    0.2941    6.0918    5.0542 N   0  0  0  0  0  0  0  0  0  0  0  0
   -0.6215    7.0593    5.6563 C   0  0  0  0  0  0  0  0  0  0  0  0
   -2.0492    6.5360    5.7752 C   0  0  0  0  0  0  0  0  0  0  0  0
   -2.2320    5.4992    6.8884 C   0  0  0  0  0  0  0  0  0  0  0  0
   -2.4582    6.1565    8.2550 C   0  0  0  0  0  0  0  0  0  0  0  0
   -1.2528    6.8834    8.6478 N   0  0  0  0  0  0  0  0  0  0  0  0
   -1.1068    7.6294    9.8991 C   0  0  0  0  0  0  0  0  0  0  0  0
    0.3588    7.9166   10.2537 C   0  0  0  0  0  0  0  0  0  0  0  0
    0.4751    8.6770   11.5789 C   0  0  0  0  0  0  0  0  0  0  0  0
   -0.1088    7.8753   12.6501 N   0  0  0  0  0  0  0  0  0  0  0  0
  1  2  1  0  0  0  0
  2  3  1  0  0  0  0
  3  4  1  0  0  0  0
  4  5  1  0  0  0  0
  5  6  1  0  0  0  0
  6  7  1  0  0  0  0
  7  8  1  0  0  0  0
  8  9  1  0  0  0  0
  9 10  1  0  0  0  0
 10 11  1  0  0  0  0
 11 12  1  0  0  0  0
 12 13  1  0  0  0  0
 13 14  1  0  0  0  0
M  END
>  <CHROM.1>
64.76382453,-175.82545993,-170.87960506,95.93338113,74.12162677,83.93848933
-65.41409344,-179.78782361,162.08221794,-179.04631932,60.21700262,-0.13875008
6.59026651,6.75587248,-1.33582493,0.24103720,1.25213020

>  <Name>
ligand

>  <RI>
0

>  <Rbt.Current_Directory>
/home/itssahil/PROJECTS/Mol_Feturizer/New_Systems/rnas/4FAW

>  <Rbt.Executable>
rbdock ($Id: //depot/dev/client3/rdock/2013.1/src/exe/rbdock.cxx#4 $)

>  <Rbt.Library>
libRbt.so (2013.1, Build901 2013/11/27)

>  <Rbt.Parameter_File>
/export/apps/rDock/src/rDock_2013.1_src/data/scripts/dock_solv.prm

>  <Rbt.Receptor>
prm/blind_docking_20.prm

>  <SCORE>
-6.07921

>  <SCORE.INTER>
1.12809

>  <SCORE.INTER.CONST>
1

>  <SCORE.INTER.POLAR>
0

>  <SCORE.INTER.ROT>
11

>  <SCORE.INTER.SOLV>
8.07088

>  <SCORE.INTER.VDW>
-12.8716

>  <SCORE.INTER.norm>
0.0805776

>  <SCORE.INTRA>
-7.2073

>  <SCORE.INTRA.DIHEDRAL>
-14.9139

>  <SCORE.INTRA.DIHEDRAL.0>
19.1003

>  <SCORE.INTRA.POLAR>
0

>  <SCORE.INTRA.POLAR.0>
0

>  <SCORE.INTRA.REPUL>
0

>  <SCORE.INTRA.REPUL.0>
0

>  <SCORE.INTRA.SOLV>
1.63906

>  <SCORE.INTRA.SOLV.lig_0>
-47.5333

>  <SCORE.INTRA.VDW>
-0.569883

>  <SCORE.INTRA.VDW.0>
-0.287413

>  <SCORE.INTRA.norm>
-0.514807

>  <SCORE.RESTR>
0

>  <SCORE.RESTR.CAVITY>
0

>  <SCORE.RESTR.norm>
0

>  <SCORE.SYSTEM>
0

>  <SCORE.SYSTEM.CONST>
0

>  <SCORE.SYSTEM.DIHEDRAL>
0

>  <SCORE.SYSTEM.SOLV>
0

>  <SCORE.SYSTEM.norm>
0

>  <SCORE.heavy>
14

>  <SCORE.norm>
-0.434229

>  <RMSD>
56.247

$$$$
ligand
 OpenBabel11021811493D
libRbt.so/2013.1/901 2013/11/27
 14 13  0  0  0  0  0  0  0  0999 V2000
   -0.4975    8.0125   13.0360 N   0  0  0  0  0  0  0  0  0  0  0  0
   -1.3027    6.9316   12.5111 C   0  0  0  0  0  0  0  0  0  0  0  0
   -1.7854    7.3035   11.0940 C   0  0  0  0  0  0  0  0  0  0  0  0
   -2.6500    6.2233   10.4256 C   0  0  0  0  0  0  0  0  0  0  0  0
   -3.0063    6.4675    9.0196 N   0  0  0  0  0  0  0  0  0  0  0  0
   -2.6679    5.5543    7.9294 C   0  0  0  0  0  0  0  0  0  0  0  0
   -1.2895    5.8210    7.3334 C   0  0  0  0  0  0  0  0  0  0  0  0
   -1.1782    7.1758    6.6267 C   0  0  0  0  0  0  0  0  0  0  0  0
    0.1904    7.3671    5.9624 C   0  0  0  0  0  0  0  0  0  0  0  0
    1.2142    7.5094    6.9954 N   0  0  0  0  0  0  0  0  0  0  0  0
    2.3491    8.4309    6.9149 C   0  0  0  0  0  0  0  0  0  0  0  0
    3.5072    8.0319    7.8400 C   0  0  0  0  0  0  0  0  0  0  0  0
    4.1274    6.6965    7.4159 C   0  0  0  0  0  0  0  0  0  0  0  0
    5.2443    6.3786    8.3006 N   0  0  0  0  0  0  0  0  0  0  0  0
  1  2  1  0  0  0  0
  2  3  1  0  0  0  0
  3  4  1  0  0  0  0
  4  5  1  0  0  0  0
  5  6  1  0  0  0  0
  6  7  1  0  0  0  0
  7  8  1  0  0  0  0
  8  9  1  0  0  0  0
  9 10  1  0  0  0  0
 10 11  1  0  0  0  0
 11 12  1  0  0  0  0
 12 13  1  0  0  0  0
 13 14  1  0  0  0  0
M  END
>  <CHROM.1>
179.71655118,-173.37542425,121.55546753,-87.54442986,-65.59423934,-176.22975021
-69.01895124,-141.25130949,-159.03956108,65.10374100,178.46325809,0.16083641
6.99309907,8.67150666,-2.62562775,-0.15476533,-1.66432284

>  <Name>
ligand

>  <RI>
0

>  <Rbt.Current_Directory>
/home/itssahil/PROJECTS/Mol_Feturizer/New_Systems/rnas/4FAW

>  <Rbt.Executable>
rbdock ($Id: //depot/dev/client3/rdock/2013.1/src/exe/rbdock.cxx#4 $)

>  <Rbt.Library>
libRbt.so (2013.1, Build901 2013/11/27)

>  <Rbt.Parameter_File>
/export/apps/rDock/src/rDock_2013.1_src/data/scripts/dock_solv.prm

>  <Rbt.Receptor>
prm/blind_docking_20.prm

>  <SCORE>
-6.58622

>  <SCORE.INTER>
2.44569

>  <SCORE.INTER.CONST>
1

>  <SCORE.INTER.POLAR>
0

>  <SCORE.INTER.ROT>
11

>  <SCORE.INTER.SOLV>
6.51663

>  <SCORE.INTER.VDW>
-11.4751

>  <SCORE.INTER.norm>
0.174692

>  <SCORE.INTRA>
-9.03191

>  <SCORE.INTRA.DIHEDRAL>
-15.4368

>  <SCORE.INTRA.DIHEDRAL.0>
19.1003

>  <SCORE.INTRA.POLAR>
0

>  <SCORE.INTRA.POLAR.0>
0

>  <SCORE.INTRA.REPUL>
0

>  <SCORE.INTRA.REPUL.0>
0

>  <SCORE.INTRA.SOLV>
-0.47183

>  <SCORE.INTRA.SOLV.lig_0>
-47.5333

>  <SCORE.INTRA.VDW>
-1.0776

>  <SCORE.INTRA.VDW.0>
-0.287413

>  <SCORE.INTRA.norm>
-0.645136

>  <SCORE.RESTR>
0

>  <SCORE.RESTR.CAVITY>
0

>  <SCORE.RESTR.norm>
0

>  <SCORE.SYSTEM>
0

>  <SCORE.SYSTEM.CONST>
0

>  <SCORE.SYSTEM.DIHEDRAL>
0

>  <SCORE.SYSTEM.SOLV>
0

>  <SCORE.SYSTEM.norm>
0

>  <SCORE.heavy>
14

>  <SCORE.norm>
-0.470444

>  <RMSD>
56.286

$$$$
ligand
 OpenBabel11021811493D
libRbt.so/2013.1/901 2013/11/27
 14 13  0  0  0  0  0  0  0  0999 V2000
    6.2648    9.3209   30.3039 N   0  0  0  0  0  0  0  0  0  0  0  0
    6.7183   10.6918   30.2209 C   0  0  0  0  0  0  0  0  0  0  0  0
    8.0260   10.7426   29.4042 C   0  0  0  0  0  0  0  0  0  0  0  0
    8.5716   12.1625   29.1871 C   0  0  0  0  0  0  0  0  0  0  0  0
    7.6900   13.0820   28.4517 N   0  0  0  0  0  0  0  0  0  0  0  0
    7.7742   14.5378   28.5538 C   0  0  0  0  0  0  0  0  0  0  0  0
    8.9345   15.1259   27.7576 C   0  0  0  0  0  0  0  0  0  0  0  0
    8.9014   16.6548   27.6632 C   0  0  0  0  0  0  0  0  0  0  0  0
   10.0660   17.2049   26.8314 C   0  0  0  0  0  0  0  0  0  0  0  0
    9.8700   18.6362   26.6112 N   0  0  0  0  0  0  0  0  0  0  0  0
    8.8477   19.2062   25.7317 C   0  0  0  0  0  0  0  0  0  0  0  0
    9.3181   20.4825   25.0204 C   0  0  0  0  0  0  0  0  0  0  0  0
    8.2908   20.9588   23.9882 C   0  0  0  0  0  0  0  0  0  0  0  0
    7.0586   21.3404   24.6718 N   0  0  0  0  0  0  0  0  0  0  0  0
  1  2  1  0  0  0  0
  2  3  1  0  0  0  0
  3  4  1  0  0  0  0
  4  5  1  0  0  0  0
  5  6  1  0  0  0  0
  6  7  1  0  0  0  0
  7  8  1  0  0  0  0
  8  9  1  0  0  0  0
  9 10  1  0  0  0  0
 10 11  1  0  0  0  0
 11 12  1  0  0  0  0
 12 13  1  0  0  0  0
 13 14  1  0  0  0  0
M  END
>  <CHROM.1>
177.14660814,-60.92892558,156.93685033,77.15752845,170.43480217,-178.79177517
171.60325774,-71.09957552,-145.12480889,173.32360607,64.40196685,8.30966692
15.72486489,27.45690832,1.70115333,0.14180231,2.66473937

>  <Name>
ligand

>  <RI>
0

>  <Rbt.Current_Directory>
/home/itssahil/PROJECTS/Mol_Feturizer/New_Systems/rnas/4FAW

>  <Rbt.Executable>
rbdock ($Id: //depot/dev/client3/rdock/2013.1/src/exe/rbdock.cxx#4 $)

>  <Rbt.Library>
libRbt.so (2013.1, Build901 2013/11/27)

>  <Rbt.Parameter_File>
/export/apps/rDock/src/rDock_2013.1_src/data/scripts/dock_solv.prm

>  <Rbt.Receptor>
prm/blind_docking_80.prm

>  <SCORE>
-8.88414

>  <SCORE.INTER>
0.143776

>  <SCORE.INTER.CONST>
1

>  <SCORE.INTER.POLAR>
0

>  <SCORE.INTER.ROT>
11

>  <SCORE.INTER.SOLV>
10.1413

>  <SCORE.INTER.VDW>
-14.2179

>  <SCORE.INTER.norm>
0.0102697

>  <SCORE.INTRA>
-9.02792

>  <SCORE.INTRA.DIHEDRAL>
-16.7557

>  <SCORE.INTRA.DIHEDRAL.0>
19.1003

>  <SCORE.INTRA.POLAR>
0

>  <SCORE.INTRA.POLAR.0>
0

>  <SCORE.INTRA.REPUL>
0

>  <SCORE.INTRA.REPUL.0>
0

>  <SCORE.INTRA.SOLV>
-0.429306

>  <SCORE.INTRA.SOLV.lig_0>
-47.5333

>  <SCORE.INTRA.VDW>
-0.435402

>  <SCORE.INTRA.VDW.0>
-0.287413

>  <SCORE.INTRA.norm>
-0.644851

>  <SCORE.RESTR>
0

>  <SCORE.RESTR.CAVITY>
0

>  <SCORE.RESTR.norm>
0

>  <SCORE.SYSTEM>
0

>  <SCORE.SYSTEM.CONST>
0

>  <SCORE.SYSTEM.DIHEDRAL>
0

>  <SCORE.SYSTEM.SOLV>
0

>  <SCORE.SYSTEM.norm>
0

>  <SCORE.heavy>
14

>  <SCORE.norm>
-0.634582

>  <RMSD>
56.309

$$$$
ligand
 OpenBabel11021811493D
libRbt.so/2013.1/901 2013/11/27
 14 13  0  0  0  0  0  0  0  0999 V2000
    7.9834   17.8265   27.0641 N   0  0  0  0  0  0  0  0  0  0  0  0
    8.2278   18.7331   25.9639 C   0  0  0  0  0  0  0  0  0  0  0  0
    7.4571   20.0463   26.2111 C   0  0  0  0  0  0  0  0  0  0  0  0
    7.6100   21.0811   25.0855 C   0  0  0  0  0  0  0  0  0  0  0  0
    6.8848   22.3465   25.2759 N   0  0  0  0  0  0  0  0  0  0  0  0
    6.4843   23.2223   24.1761 C   0  0  0  0  0  0  0  0  0  0  0  0
    7.6670   23.8988   23.4907 C   0  0  0  0  0  0  0  0  0  0  0  0
    8.4143   24.8880   24.3910 C   0  0  0  0  0  0  0  0  0  0  0  0
    9.5751   25.5697   23.6570 C   0  0  0  0  0  0  0  0  0  0  0  0
   10.5863   24.5708   23.3175 N   0  0  0  0  0  0  0  0  0  0  0  0
   11.3220   23.7709   24.2986 C   0  0  0  0  0  0  0  0  0  0  0  0
   12.2915   22.7744   23.6480 C   0  0  0  0  0  0  0  0  0  0  0  0
   12.9604   21.8791   24.6962 C   0  0  0  0  0  0  0  0  0  0  0  0
   11.9405   21.0916   25.3823 N   0  0  0  0  0  0  0  0  0  0  0  0
  1  2  1  0  0  0  0
  2  3  1  0  0  0  0
  3  4  1  0  0  0  0
  4  5  1  0  0  0  0
  5  6  1  0  0  0  0
  6  7  1  0  0  0  0
  7  8  1  0  0  0  0
  8  9  1  0  0  0  0
  9 10  1  0  0  0  0
 10 11  1  0  0  0  0
 11 12  1  0  0  0  0
 12 13  1  0  0  0  0
 13 14  1  0  0  0  0
M  END
>  <CHROM.1>
-178.49385151,179.65217733,-156.24717430,-68.94834963,-65.79845951,-178.71063454
-65.36845084,-61.56770083,178.34460599,-175.46499962,62.06529801,9.24313171
22.26455578,24.76106513,-2.04120037,0.07012970,-0.41648648

>  <Name>
ligand

>  <RI>
0

>  <Rbt.Current_Directory>
/home/itssahil/PROJECTS/Mol_Feturizer/New_Systems/rnas/4FAW

>  <Rbt.Executable>
rbdock ($Id: //depot/dev/client3/rdock/2013.1/src/exe/rbdock.cxx#4 $)

>  <Rbt.Library>
libRbt.so (2013.1, Build901 2013/11/27)

>  <Rbt.Parameter_File>
/export/apps/rDock/src/rDock_2013.1_src/data/scripts/dock_solv.prm

>  <Rbt.Receptor>
prm/blind_docking_40.prm

>  <SCORE>
-8.88405

>  <SCORE.INTER>
0.353369

>  <SCORE.INTER.CONST>
1

>  <SCORE.INTER.POLAR>
0

>  <SCORE.INTER.ROT>
11

>  <SCORE.INTER.SOLV>
14.0873

>  <SCORE.INTER.VDW>
-15.3935

>  <SCORE.INTER.norm>
0.0252406

>  <SCORE.INTRA>
-9.23742

>  <SCORE.INTRA.DIHEDRAL>
-18.2801

>  <SCORE.INTRA.DIHEDRAL.0>
19.1003

>  <SCORE.INTRA.POLAR>
0

>  <SCORE.INTRA.POLAR.0>
0

>  <SCORE.INTRA.REPUL>
0

>  <SCORE.INTRA.REPUL.0>
0

>  <SCORE.INTRA.SOLV>
0.60447

>  <SCORE.INTRA.SOLV.lig_0>
-47.5333

>  <SCORE.INTRA.VDW>
-0.399623

>  <SCORE.INTRA.VDW.0>
-0.287413

>  <SCORE.INTRA.norm>
-0.659815

>  <SCORE.RESTR>
0

>  <SCORE.RESTR.CAVITY>
0

>  <SCORE.RESTR.norm>
0

>  <SCORE.SYSTEM>
0

>  <SCORE.SYSTEM.CONST>
0

>  <SCORE.SYSTEM.DIHEDRAL>
0

>  <SCORE.SYSTEM.SOLV>
0

>  <SCORE.SYSTEM.norm>
0

>  <SCORE.heavy>
14

>  <SCORE.norm>
-0.634575

>  <RMSD>
56.316

$$$$
ligand
 OpenBabel11021811493D
libRbt.so/2013.1/901 2013/11/27
 14 13  0  0  0  0  0  0  0  0999 V2000
    8.3114   11.7086   27.2380 N   0  0  0  0  0  0  0  0  0  0  0  0
    8.1624   12.4739   28.4563 C   0  0  0  0  0  0  0  0  0  0  0  0
    9.5073   13.1484   28.7965 C   0  0  0  0  0  0  0  0  0  0  0  0
    9.9522   14.2050   27.7734 C   0  0  0  0  0  0  0  0  0  0  0  0
    9.1036   15.4027   27.6794 N   0  0  0  0  0  0  0  0  0  0  0  0
    9.2923   16.4507   26.6779 C   0  0  0  0  0  0  0  0  0  0  0  0
    8.3664   17.6454   26.8823 C   0  0  0  0  0  0  0  0  0  0  0  0
    8.5582   18.7552   25.8435 C   0  0  0  0  0  0  0  0  0  0  0  0
    7.6401   19.9546   26.1072 C   0  0  0  0  0  0  0  0  0  0  0  0
    7.8533   20.9641   25.0723 N   0  0  0  0  0  0  0  0  0  0  0  0
    7.2522   22.2990   25.0816 C   0  0  0  0  0  0  0  0  0  0  0  0
    7.6891   23.1574   23.8864 C   0  0  0  0  0  0  0  0  0  0  0  0
    7.0316   24.5409   23.9211 C   0  0  0  0  0  0  0  0  0  0  0  0
    7.3927   25.2793   22.7146 N   0  0  0  0  0  0  0  0  0  0  0  0
  1  2  1  0  0  0  0
  2  3  1  0  0  0  0
  3  4  1  0  0  0  0
  4  5  1  0  0  0  0
  5  6  1  0  0  0  0
  6  7  1  0  0  0  0
  7  8  1  0  0  0  0
  8  9  1  0  0  0  0
  9 10  1  0  0  0  0
 10 11  1  0  0  0  0
 11 12  1  0  0  0  0
 12 13  1  0  0  0  0
 13 14  1  0  0  0  0
M  END
>  <CHROM.1>
65.37256591,65.74636489,-173.85262840,-174.40677709,179.70494605,-178.30031192
-178.99217514,-173.29510398,178.29116135,179.46358381,-175.56405485,8.29382738
18.28464405,26.15237183,1.40197049,0.58633293,2.86639360

>  <Name>
ligand

>  <RI>
0

>  <Rbt.Current_Directory>
/home/itssahil/PROJECTS/Mol_Feturizer/New_Systems/rnas/4FAW

>  <Rbt.Executable>
rbdock ($Id: //depot/dev/client3/rdock/2013.1/src/exe/rbdock.cxx#4 $)

>  <Rbt.Library>
libRbt.so (2013.1, Build901 2013/11/27)

>  <Rbt.Parameter_File>
/export/apps/rDock/src/rDock_2013.1_src/data/scripts/dock_solv.prm

>  <Rbt.Receptor>
prm/blind_docking_40.prm

>  <SCORE>
-9.23439

>  <SCORE.INTER>
1.02709

>  <SCORE.INTER.CONST>
1

>  <SCORE.INTER.POLAR>
0

>  <SCORE.INTER.ROT>
11

>  <SCORE.INTER.SOLV>
7.11582

>  <SCORE.INTER.VDW>
-12.6205

>  <SCORE.INTER.norm>
0.0733639

>  <SCORE.INTRA>
-10.2615

>  <SCORE.INTRA.DIHEDRAL>
-18.681

>  <SCORE.INTRA.DIHEDRAL.0>
19.1003

>  <SCORE.INTRA.POLAR>
0

>  <SCORE.INTRA.POLAR.0>
0

>  <SCORE.INTRA.REPUL>
0

>  <SCORE.INTRA.REPUL.0>
0

>  <SCORE.INTRA.SOLV>
0.0592349

>  <SCORE.INTRA.SOLV.lig_0>
-47.5333

>  <SCORE.INTRA.VDW>
-0.950591

>  <SCORE.INTRA.VDW.0>
-0.287413

>  <SCORE.INTRA.norm>
-0.732963

>  <SCORE.RESTR>
0

>  <SCORE.RESTR.CAVITY>
0

>  <SCORE.RESTR.norm>
0

>  <SCORE.SYSTEM>
0

>  <SCORE.SYSTEM.CONST>
0

>  <SCORE.SYSTEM.DIHEDRAL>
0

>  <SCORE.SYSTEM.SOLV>
0

>  <SCORE.SYSTEM.norm>
0

>  <SCORE.heavy>
14

>  <SCORE.norm>
-0.659599

>  <RMSD>
56.361

$$$$
ligand
 OpenBabel11021811493D
libRbt.so/2013.1/901 2013/11/27
 14 13  0  0  0  0  0  0  0  0999 V2000
   11.3802   20.9567   31.8856 N   0  0  0  0  0  0  0  0  0  0  0  0
   11.5096   19.7838   31.0492 C   0  0  0  0  0  0  0  0  0  0  0  0
   12.3378   20.1442   29.7987 C   0  0  0  0  0  0  0  0  0  0  0  0
   12.3931   19.0284   28.7437 C   0  0  0  0  0  0  0  0  0  0  0  0
   11.0933   18.5048   28.2966 N   0  0  0  0  0  0  0  0  0  0  0  0
   10.9143   17.7194   27.0767 C   0  0  0  0  0  0  0  0  0  0  0  0
    9.5007   17.1675   26.9240 C   0  0  0  0  0  0  0  0  0  0  0  0
    8.4096   18.2384   27.0257 C   0  0  0  0  0  0  0  0  0  0  0  0
    8.4300   19.1955   25.8280 C   0  0  0  0  0  0  0  0  0  0  0  0
    7.4777   20.2798   26.0587 N   0  0  0  0  0  0  0  0  0  0  0  0
    7.2274   21.3754   25.1204 C   0  0  0  0  0  0  0  0  0  0  0  0
    6.7216   22.6487   25.8127 C   0  0  0  0  0  0  0  0  0  0  0  0
    6.5127   23.7864   24.8079 C   0  0  0  0  0  0  0  0  0  0  0  0
    7.7725   24.0677   24.1259 N   0  0  0  0  0  0  0  0  0  0  0  0
  1  2  1  0  0  0  0
  2  3  1  0  0  0  0
  3  4  1  0  0  0  0
  4  5  1  0  0  0  0
  5  6  1  0  0  0  0
  6  7  1  0  0  0  0
  7  8  1  0  0  0  0
  8  9  1  0  0  0  0
  9 10  1  0  0  0  0
 10 11  1  0  0  0  0
 11 12  1  0  0  0  0
 12 13  1  0  0  0  0
 13 14  1  0  0  0  0
M  END
>  <CHROM.1>
-172.54623053,53.60609386,163.16368748,173.54742530,53.59053292,68.58432811
-173.37417122,-179.73658877,-153.77673312,178.20595663,-58.68793830,9.40573930
20.20660705,27.32517840,-0.22404193,-0.88815391,0.32369064

>  <Name>
ligand

>  <RI>
0

>  <Rbt.Current_Directory>
/home/itssahil/PROJECTS/Mol_Feturizer/New_Systems/rnas/4FAW

>  <Rbt.Executable>
rbdock ($Id: //depot/dev/client3/rdock/2013.1/src/exe/rbdock.cxx#4 $)

>  <Rbt.Library>
libRbt.so (2013.1, Build901 2013/11/27)

>  <Rbt.Parameter_File>
/export/apps/rDock/src/rDock_2013.1_src/data/scripts/dock_solv.prm

>  <Rbt.Receptor>
prm/blind_docking_100.prm

>  <SCORE>
-14.199

>  <SCORE.INTER>
-5.43846

>  <SCORE.INTER.CONST>
1

>  <SCORE.INTER.POLAR>
0

>  <SCORE.INTER.ROT>
11

>  <SCORE.INTER.SOLV>
17.6218

>  <SCORE.INTER.VDW>
-20.4329

>  <SCORE.INTER.norm>
-0.388461

>  <SCORE.INTRA>
-8.76059

>  <SCORE.INTRA.DIHEDRAL>
-17.364

>  <SCORE.INTRA.DIHEDRAL.0>
19.1003

>  <SCORE.INTRA.POLAR>
0

>  <SCORE.INTRA.POLAR.0>
0

>  <SCORE.INTRA.REPUL>
0

>  <SCORE.INTRA.REPUL.0>
0

>  <SCORE.INTRA.SOLV>
0.544149

>  <SCORE.INTRA.SOLV.lig_0>
-47.5333

>  <SCORE.INTRA.VDW>
-0.350658

>  <SCORE.INTRA.VDW.0>
-0.287413

>  <SCORE.INTRA.norm>
-0.625757

>  <SCORE.RESTR>
0

>  <SCORE.RESTR.CAVITY>
0

>  <SCORE.RESTR.norm>
0

>  <SCORE.SYSTEM>
0

>  <SCORE.SYSTEM.CONST>
0

>  <SCORE.SYSTEM.DIHEDRAL>
0

>  <SCORE.SYSTEM.SOLV>
0

>  <SCORE.SYSTEM.norm>
0

>  <SCORE.heavy>
14

>  <SCORE.norm>
-1.01422

>  <RMSD>
56.507

$$$$
ligand
 OpenBabel11021811493D
libRbt.so/2013.1/901 2013/11/27
 14 13  0  0  0  0  0  0  0  0999 V2000
    4.0551    7.5579    6.4919 N   0  0  0  0  0  0  0  0  0  0  0  0
    2.7341    8.1109    6.6954 C   0  0  0  0  0  0  0  0  0  0  0  0
    2.2561    8.7717    5.3861 C   0  0  0  0  0  0  0  0  0  0  0  0
    2.0984    7.7913    4.2135 C   0  0  0  0  0  0  0  0  0  0  0  0
    1.0828    6.7417    4.3884 N   0  0  0  0  0  0  0  0  0  0  0  0
   -0.2574    6.8088    3.8084 C   0  0  0  0  0  0  0  0  0  0  0  0
   -1.2868    5.9978    4.5887 C   0  0  0  0  0  0  0  0  0  0  0  0
   -1.5687    6.5496    5.9900 C   0  0  0  0  0  0  0  0  0  0  0  0
   -2.4340    5.5947    6.8207 C   0  0  0  0  0  0  0  0  0  0  0  0
   -2.8835    6.2782    8.0317 N   0  0  0  0  0  0  0  0  0  0  0  0
   -2.0184    6.6072    9.1661 C   0  0  0  0  0  0  0  0  0  0  0  0
   -2.7170    6.4241   10.5206 C   0  0  0  0  0  0  0  0  0  0  0  0
   -1.7403    6.6204   11.6848 C   0  0  0  0  0  0  0  0  0  0  0  0
   -1.3045    8.0133   11.7218 N   0  0  0  0  0  0  0  0  0  0  0  0
  1  2  1  0  0  0  0
  2  3  1  0  0  0  0
  3  4  1  0  0  0  0
  4  5  1  0  0  0  0
  5  6  1  0  0  0  0
  6  7  1  0  0  0  0
  7  8  1  0  0  0  0
  8  9  1  0  0  0  0
  9 10  1  0  0  0  0
 10 11  1  0  0  0  0
 11 12  1  0  0  0  0
 12 13  1  0  0  0  0
 13 14  1  0  0  0  0
M  END
>  <CHROM.1>
63.11295820,63.30499219,99.73085631,-154.12141823,66.63226670,-171.05689322
-169.01749859,-71.96435941,-141.62800149,173.47538800,66.62766814,-0.28480345
6.99047945,7.10750078,-0.88676501,0.37594177,1.42142264

>  <Name>
ligand

>  <RI>
0

>  <Rbt.Current_Directory>
/home/itssahil/PROJECTS/Mol_Feturizer/New_Systems/rnas/4FAW

>  <Rbt.Executable>
rbdock ($Id: //depot/dev/client3/rdock/2013.1/src/exe/rbdock.cxx#4 $)

>  <Rbt.Library>
libRbt.so (2013.1, Build901 2013/11/27)

>  <Rbt.Parameter_File>
/export/apps/rDock/src/rDock_2013.1_src/data/scripts/dock_solv.prm

>  <Rbt.Receptor>
prm/blind_docking_20.prm

>  <SCORE>
-4.16002

>  <SCORE.INTER>
3.66601

>  <SCORE.INTER.CONST>
1

>  <SCORE.INTER.POLAR>
0

>  <SCORE.INTER.ROT>
11

>  <SCORE.INTER.SOLV>
3.52505

>  <SCORE.INTER.VDW>
-9.66434

>  <SCORE.INTER.norm>
0.261858

>  <SCORE.INTRA>
-7.82603

>  <SCORE.INTRA.DIHEDRAL>
-15.4277

>  <SCORE.INTRA.DIHEDRAL.0>
19.1003

>  <SCORE.INTRA.POLAR>
0

>  <SCORE.INTRA.POLAR.0>
0

>  <SCORE.INTRA.REPUL>
0

>  <SCORE.INTRA.REPUL.0>
0

>  <SCORE.INTRA.SOLV>
1.23701

>  <SCORE.INTRA.SOLV.lig_0>
-47.5333

>  <SCORE.INTRA.VDW>
-0.730692

>  <SCORE.INTRA.VDW.0>
-0.287413

>  <SCORE.INTRA.norm>
-0.559002

>  <SCORE.RESTR>
0

>  <SCORE.RESTR.CAVITY>
0

>  <SCORE.RESTR.norm>
0

>  <SCORE.SYSTEM>
0

>  <SCORE.SYSTEM.CONST>
0

>  <SCORE.SYSTEM.DIHEDRAL>
0

>  <SCORE.SYSTEM.SOLV>
0

>  <SCORE.SYSTEM.norm>
0

>  <SCORE.heavy>
14

>  <SCORE.norm>
-0.297144

>  <RMSD>
56.544

$$$$
ligand
 OpenBabel11021811493D
libRbt.so/2013.1/901 2013/11/27
 14 13  0  0  0  0  0  0  0  0999 V2000
   13.0050   20.2525   30.7052 N   0  0  0  0  0  0  0  0  0  0  0  0
   12.0737   19.3091   30.1265 C   0  0  0  0  0  0  0  0  0  0  0  0
   10.6521   19.6269   30.6340 C   0  0  0  0  0  0  0  0  0  0  0  0
    9.5809   18.6371   30.1503 C   0  0  0  0  0  0  0  0  0  0  0  0
    9.5240   18.4144   28.6974 N   0  0  0  0  0  0  0  0  0  0  0  0
    8.5095   17.5883   28.0453 C   0  0  0  0  0  0  0  0  0  0  0  0
    7.2726   18.3785   27.6305 C   0  0  0  0  0  0  0  0  0  0  0  0
    7.5646   19.4858   26.6126 C   0  0  0  0  0  0  0  0  0  0  0  0
    8.0311   18.9204   25.2659 C   0  0  0  0  0  0  0  0  0  0  0  0
    6.9712   18.0916   24.6956 N   0  0  0  0  0  0  0  0  0  0  0  0
    6.0216   18.5462   23.6783 C   0  0  0  0  0  0  0  0  0  0  0  0
    6.6591   18.6876   22.2891 C   0  0  0  0  0  0  0  0  0  0  0  0
    5.6616   19.2481   21.2702 C   0  0  0  0  0  0  0  0  0  0  0  0
    5.2569   20.5907   21.6766 N   0  0  0  0  0  0  0  0  0  0  0  0
  1  2  1  0  0  0  0
  2  3  1  0  0  0  0
  3  4  1  0  0  0  0
  4  5  1  0  0  0  0
  5  6  1  0  0  0  0
  6  7  1  0  0  0  0
  7  8  1  0  0  0  0
  8  9  1  0  0  0  0
  9 10  1  0  0  0  0
 10 11  1  0  0  0  0
 11 12  1  0  0  0  0
 12 13  1  0  0  0  0
 13 14  1  0  0  0  0
M  END
>  <CHROM.1>
-176.62269688,-52.79643125,-175.24128132,90.37844290,61.60187932,65.73323134
61.81792662,98.21556518,73.19230868,-176.42284858,62.64893231,8.34156960
18.98394911,26.53414524,-0.83561255,-0.59555657,-1.11111307

>  <Name>
ligand

>  <RI>
0

>  <Rbt.Current_Directory>
/home/itssahil/PROJECTS/Mol_Feturizer/New_Systems/rnas/4FAW

>  <Rbt.Executable>
rbdock ($Id: //depot/dev/client3/rdock/2013.1/src/exe/rbdock.cxx#4 $)

>  <Rbt.Library>
libRbt.so (2013.1, Build901 2013/11/27)

>  <Rbt.Parameter_File>
/export/apps/rDock/src/rDock_2013.1_src/data/scripts/dock_solv.prm

>  <Rbt.Receptor>
prm/blind_docking_100.prm

>  <SCORE>
-7.53437

>  <SCORE.INTER>
0.536734

>  <SCORE.INTER.CONST>
1

>  <SCORE.INTER.POLAR>
0

>  <SCORE.INTER.ROT>
11

>  <SCORE.INTER.SOLV>
16.2847

>  <SCORE.INTER.VDW>
-16.0037

>  <SCORE.INTER.norm>
0.0383381

>  <SCORE.INTRA>
-8.07111

>  <SCORE.INTRA.DIHEDRAL>
-17.0113

>  <SCORE.INTRA.DIHEDRAL.0>
19.1003

>  <SCORE.INTRA.POLAR>
0

>  <SCORE.INTRA.POLAR.0>
0

>  <SCORE.INTRA.REPUL>
0

>  <SCORE.INTRA.REPUL.0>
0

>  <SCORE.INTRA.SOLV>
0.946146

>  <SCORE.INTRA.SOLV.lig_0>
-47.5333

>  <SCORE.INTRA.VDW>
-0.0385269

>  <SCORE.INTRA.VDW.0>
-0.287413

>  <SCORE.INTRA.norm>
-0.576508

>  <SCORE.RESTR>
0

>  <SCORE.RESTR.CAVITY>
0

>  <SCORE.RESTR.norm>
0

>  <SCORE.SYSTEM>
0

>  <SCORE.SYSTEM.CONST>
0

>  <SCORE.SYSTEM.DIHEDRAL>
0

>  <SCORE.SYSTEM.SOLV>
0

>  <SCORE.SYSTEM.norm>
0

>  <SCORE.heavy>
14

>  <SCORE.norm>
-0.538169

>  <RMSD>
56.612

$$$$
ligand
 OpenBabel11021811493D
libRbt.so/2013.1/901 2013/11/27
 14 13  0  0  0  0  0  0  0  0999 V2000
    8.1058   20.3165   33.1384 N   0  0  0  0  0  0  0  0  0  0  0  0
    7.8381   19.3144   32.1302 C   0  0  0  0  0  0  0  0  0  0  0  0
    8.7988   19.5245   30.9418 C   0  0  0  0  0  0  0  0  0  0  0  0
    8.6178   18.5063   29.8053 C   0  0  0  0  0  0  0  0  0  0  0  0
    7.2914   18.4850   29.1697 N   0  0  0  0  0  0  0  0  0  0  0  0
    6.9908   17.7357   27.9511 C   0  0  0  0  0  0  0  0  0  0  0  0
    7.2557   18.5340   26.6787 C   0  0  0  0  0  0  0  0  0  0  0  0
    8.7373   18.8506   26.4503 C   0  0  0  0  0  0  0  0  0  0  0  0
    8.9421   19.8469   25.3029 C   0  0  0  0  0  0  0  0  0  0  0  0
   10.3141   20.3489   25.3369 N   0  0  0  0  0  0  0  0  0  0  0  0
   10.7902   21.5088   24.5809 C   0  0  0  0  0  0  0  0  0  0  0  0
   12.3029   21.7297   24.7190 C   0  0  0  0  0  0  0  0  0  0  0  0
   12.7662   22.9481   23.9137 C   0  0  0  0  0  0  0  0  0  0  0  0
   14.2018   23.1356   24.1016 N   0  0  0  0  0  0  0  0  0  0  0  0
  1  2  1  0  0  0  0
  2  3  1  0  0  0  0
  3  4  1  0  0  0  0
  4  5  1  0  0  0  0
  5  6  1  0  0  0  0
  6  7  1  0  0  0  0
  7  8  1  0  0  0  0
  8  9  1  0  0  0  0
  9 10  1  0  0  0  0
 10 11  1  0  0  0  0
 11 12  1  0  0  0  0
 12 13  1  0  0  0  0
 13 14  1  0  0  0  0
M  END
>  <CHROM.1>
179.49786739,60.30208789,170.46670789,-88.48901787,66.42650394,-170.32166390
166.67903569,-166.68632627,-175.07615494,179.87686405,178.66242292,9.49643977
20.05586964,27.44411753,-2.34342673,-0.70149720,-1.68622745

>  <Name>
ligand

>  <RI>
0

>  <Rbt.Current_Directory>
/home/itssahil/PROJECTS/Mol_Feturizer/New_Systems/rnas/4FAW

>  <Rbt.Executable>
rbdock ($Id: //depot/dev/client3/rdock/2013.1/src/exe/rbdock.cxx#4 $)

>  <Rbt.Library>
libRbt.so (2013.1, Build901 2013/11/27)

>  <Rbt.Parameter_File>
/export/apps/rDock/src/rDock_2013.1_src/data/scripts/dock_solv.prm

>  <Rbt.Receptor>
prm/blind_docking_100.prm

>  <SCORE>
-13.307

>  <SCORE.INTER>
-3.34502

>  <SCORE.INTER.CONST>
1

>  <SCORE.INTER.POLAR>
0

>  <SCORE.INTER.ROT>
11

>  <SCORE.INTER.SOLV>
21.5527

>  <SCORE.INTER.VDW>
-20.3476

>  <SCORE.INTER.norm>
-0.23893

>  <SCORE.INTRA>
-9.96197

>  <SCORE.INTRA.DIHEDRAL>
-17.1227

>  <SCORE.INTRA.DIHEDRAL.0>
19.1003

>  <SCORE.INTRA.POLAR>
0

>  <SCORE.INTRA.POLAR.0>
0

>  <SCORE.INTRA.REPUL>
0

>  <SCORE.INTRA.REPUL.0>
0

>  <SCORE.INTRA.SOLV>
-0.821755

>  <SCORE.INTRA.SOLV.lig_0>
-47.5333

>  <SCORE.INTRA.VDW>
-0.989748

>  <SCORE.INTRA.VDW.0>
-0.287413

>  <SCORE.INTRA.norm>
-0.711569

>  <SCORE.RESTR>
0

>  <SCORE.RESTR.CAVITY>
0

>  <SCORE.RESTR.norm>
0

>  <SCORE.SYSTEM>
0

>  <SCORE.SYSTEM.CONST>
0

>  <SCORE.SYSTEM.DIHEDRAL>
0

>  <SCORE.SYSTEM.SOLV>
0

>  <SCORE.SYSTEM.norm>
0

>  <SCORE.heavy>
14

>  <SCORE.norm>
-0.950499

>  <RMSD>
56.630

$$$$
ligand
 OpenBabel11021811493D
libRbt.so/2013.1/901 2013/11/27
 14 13  0  0  0  0  0  0  0  0999 V2000
    2.3788   19.9702   25.0292 N   0  0  0  0  0  0  0  0  0  0  0  0
    3.5935   20.3361   25.7240 C   0  0  0  0  0  0  0  0  0  0  0  0
    4.5678   20.9941   24.7254 C   0  0  0  0  0  0  0  0  0  0  0  0
    5.9819   21.2132   25.2852 C   0  0  0  0  0  0  0  0  0  0  0  0
    6.7168   19.9963   25.6628 N   0  0  0  0  0  0  0  0  0  0  0  0
    8.1758   19.9099   25.6942 C   0  0  0  0  0  0  0  0  0  0  0  0
    8.6847   18.6622   26.4086 C   0  0  0  0  0  0  0  0  0  0  0  0
   10.2078   18.6261   26.5707 C   0  0  0  0  0  0  0  0  0  0  0  0
   10.6757   17.3803   27.3322 C   0  0  0  0  0  0  0  0  0  0  0  0
   10.2859   16.1839   26.5890 N   0  0  0  0  0  0  0  0  0  0  0  0
   10.3597   14.8205   27.1173 C   0  0  0  0  0  0  0  0  0  0  0  0
    9.3081   14.5438   28.2007 C   0  0  0  0  0  0  0  0  0  0  0  0
    9.4595   13.1334   28.7800 C   0  0  0  0  0  0  0  0  0  0  0  0
    9.2371   12.1497   27.7244 N   0  0  0  0  0  0  0  0  0  0  0  0
  1  2  1  0  0  0  0
  2  3  1  0  0  0  0
  3  4  1  0  0  0  0
  4  5  1  0  0  0  0
  5  6  1  0  0  0  0
  6  7  1  0  0  0  0
  7  8  1  0  0  0  0
  8  9  1  0  0  0  0
  9 10  1  0  0  0  0
 10 11  1  0  0  0  0
 11 12  1  0  0  0  0
 12 13  1  0  0  0  0
 13 14  1  0  0  0  0
M  END
>  <CHROM.1>
-170.24790378,62.45974386,154.51652983,167.09068568,-174.31730912,178.15976918
61.01529385,-169.02411486,70.95244109,-177.13174973,-62.49380460,7.83121036
17.70882083,26.48893225,2.23723589,-0.10074072,-0.30134456

>  <Name>
ligand

>  <RI>
0

>  <Rbt.Current_Directory>
/home/itssahil/PROJECTS/Mol_Feturizer/New_Systems/rnas/4FAW

>  <Rbt.Executable>
rbdock ($Id: //depot/dev/client3/rdock/2013.1/src/exe/rbdock.cxx#4 $)

>  <Rbt.Library>
libRbt.so (2013.1, Build901 2013/11/27)

>  <Rbt.Parameter_File>
/export/apps/rDock/src/rDock_2013.1_src/data/scripts/dock_solv.prm

>  <Rbt.Receptor>
prm/blind_docking_100.prm

>  <SCORE>
-9.10282

>  <SCORE.INTER>
0.285116

>  <SCORE.INTER.CONST>
1

>  <SCORE.INTER.POLAR>
0

>  <SCORE.INTER.ROT>
11

>  <SCORE.INTER.SOLV>
11.0085

>  <SCORE.INTER.VDW>
-14.4128

>  <SCORE.INTER.norm>
0.0203655

>  <SCORE.INTRA>
-9.38794

>  <SCORE.INTRA.DIHEDRAL>
-17.7478

>  <SCORE.INTRA.DIHEDRAL.0>
19.1003

>  <SCORE.INTRA.POLAR>
0

>  <SCORE.INTRA.POLAR.0>
0

>  <SCORE.INTRA.REPUL>
0

>  <SCORE.INTRA.REPUL.0>
0

>  <SCORE.INTRA.SOLV>
0.0591411

>  <SCORE.INTRA.SOLV.lig_0>
-47.5333

>  <SCORE.INTRA.VDW>
-0.543628

>  <SCORE.INTRA.VDW.0>
-0.287413

>  <SCORE.INTRA.norm>
-0.670567

>  <SCORE.RESTR>
0

>  <SCORE.RESTR.CAVITY>
0

>  <SCORE.RESTR.norm>
0

>  <SCORE.SYSTEM>
0

>  <SCORE.SYSTEM.CONST>
0

>  <SCORE.SYSTEM.DIHEDRAL>
0

>  <SCORE.SYSTEM.SOLV>
0

>  <SCORE.SYSTEM.norm>
0

>  <SCORE.heavy>
14

>  <SCORE.norm>
-0.650202

>  <RMSD>
56.657

$$$$
ligand
 OpenBabel11021811493D
libRbt.so/2013.1/901 2013/11/27
 14 13  0  0  0  0  0  0  0  0999 V2000
    3.0600   14.8414   20.1890 N   0  0  0  0  0  0  0  0  0  0  0  0
    4.3771   15.3687   19.9072 C   0  0  0  0  0  0  0  0  0  0  0  0
    4.4800   16.7996   20.4740 C   0  0  0  0  0  0  0  0  0  0  0  0
    5.8522   17.4578   20.2617 C   0  0  0  0  0  0  0  0  0  0  0  0
    6.0361   18.7734   20.8933 N   0  0  0  0  0  0  0  0  0  0  0  0
    5.1264   19.9003   20.6939 C   0  0  0  0  0  0  0  0  0  0  0  0
    5.6963   21.2234   21.1949 C   0  0  0  0  0  0  0  0  0  0  0  0
    5.9414   21.2526   22.7070 C   0  0  0  0  0  0  0  0  0  0  0  0
    7.1175   20.3580   23.1163 C   0  0  0  0  0  0  0  0  0  0  0  0
    7.4062   20.5570   24.5350 N   0  0  0  0  0  0  0  0  0  0  0  0
    8.5568   19.9820   25.2343 C   0  0  0  0  0  0  0  0  0  0  0  0
    8.2824   18.5710   25.7726 C   0  0  0  0  0  0  0  0  0  0  0  0
    7.1699   18.5806   26.8261 C   0  0  0  0  0  0  0  0  0  0  0  0
    7.0123   17.2376   27.3764 N   0  0  0  0  0  0  0  0  0  0  0  0
  1  2  1  0  0  0  0
  2  3  1  0  0  0  0
  3  4  1  0  0  0  0
  4  5  1  0  0  0  0
  5  6  1  0  0  0  0
  6  7  1  0  0  0  0
  7  8  1  0  0  0  0
  8  9  1  0  0  0  0
  9 10  1  0  0  0  0
 10 11  1  0  0  0  0
 11 12  1  0  0  0  0
 12 13  1  0  0  0  0
 13 14  1  0  0  0  0
M  END
>  <CHROM.1>
178.75230987,-174.60023122,-53.37178706,-167.05029387,-63.50130209,70.60479174
172.96234507,-172.83583611,-87.02595592,-63.23464490,-175.92895503,6.15115501
18.63628178,22.79851341,2.98020153,-1.08408264,-0.61802421

>  <Name>
ligand

>  <RI>
0

>  <Rbt.Current_Directory>
/home/itssahil/PROJECTS/Mol_Feturizer/New_Systems/rnas/4FAW

>  <Rbt.Executable>
rbdock ($Id: //depot/dev/client3/rdock/2013.1/src/exe/rbdock.cxx#4 $)

>  <Rbt.Library>
libRbt.so (2013.1, Build901 2013/11/27)

>  <Rbt.Parameter_File>
/export/apps/rDock/src/rDock_2013.1_src/data/scripts/dock_solv.prm

>  <Rbt.Receptor>
prm/blind_docking_100.prm

>  <SCORE>
-8.82841

>  <SCORE.INTER>
0.0433049

>  <SCORE.INTER.CONST>
1

>  <SCORE.INTER.POLAR>
0

>  <SCORE.INTER.ROT>
11

>  <SCORE.INTER.SOLV>
7.93018

>  <SCORE.INTER.VDW>
-13.5479

>  <SCORE.INTER.norm>
0.0030932

>  <SCORE.INTRA>
-8.87171

>  <SCORE.INTRA.DIHEDRAL>
-17.4745

>  <SCORE.INTRA.DIHEDRAL.0>
19.1003

>  <SCORE.INTRA.POLAR>
0

>  <SCORE.INTRA.POLAR.0>
0

>  <SCORE.INTRA.REPUL>
0

>  <SCORE.INTRA.REPUL.0>
0

>  <SCORE.INTRA.SOLV>
-0.0914093

>  <SCORE.INTRA.SOLV.lig_0>
-47.5333

>  <SCORE.INTRA.VDW>
-0.0887621

>  <SCORE.INTRA.VDW.0>
-0.287413

>  <SCORE.INTRA.norm>
-0.633694

>  <SCORE.RESTR>
0

>  <SCORE.RESTR.CAVITY>
0

>  <SCORE.RESTR.norm>
0

>  <SCORE.SYSTEM>
0

>  <SCORE.SYSTEM.CONST>
0

>  <SCORE.SYSTEM.DIHEDRAL>
0

>  <SCORE.SYSTEM.SOLV>
0

>  <SCORE.SYSTEM.norm>
0

>  <SCORE.heavy>
14

>  <SCORE.norm>
-0.630601

>  <RMSD>
56.799

$$$$
ligand
 OpenBabel11021811493D
libRbt.so/2013.1/901 2013/11/27
 14 13  0  0  0  0  0  0  0  0999 V2000
   10.6364   13.4298   26.3858 N   0  0  0  0  0  0  0  0  0  0  0  0
   10.8642   14.7432   26.9472 C   0  0  0  0  0  0  0  0  0  0  0  0
    9.8333   15.7291   26.3600 C   0  0  0  0  0  0  0  0  0  0  0  0
    9.9791   17.1677   26.8797 C   0  0  0  0  0  0  0  0  0  0  0  0
    9.0205   18.1440   26.3398 N   0  0  0  0  0  0  0  0  0  0  0  0
    9.4105   19.4415   25.7908 C   0  0  0  0  0  0  0  0  0  0  0  0
    8.2637   20.1619   25.0891 C   0  0  0  0  0  0  0  0  0  0  0  0
    8.6900   21.4544   24.3855 C   0  0  0  0  0  0  0  0  0  0  0  0
    7.5077   22.1569   23.7076 C   0  0  0  0  0  0  0  0  0  0  0  0
    6.6603   22.7713   24.7274 N   0  0  0  0  0  0  0  0  0  0  0  0
    5.7201   22.0361   25.5754 C   0  0  0  0  0  0  0  0  0  0  0  0
    4.5932   21.3683   24.7753 C   0  0  0  0  0  0  0  0  0  0  0  0
    3.6134   20.6331   25.6957 C   0  0  0  0  0  0  0  0  0  0  0  0
    2.6728   19.8639   24.8864 N   0  0  0  0  0  0  0  0  0  0  0  0
  1  2  1  0  0  0  0
  2  3  1  0  0  0  0
  3  4  1  0  0  0  0
  4  5  1  0  0  0  0
  5  6  1  0  0  0  0
  6  7  1  0  0  0  0
  7  8  1  0  0  0  0
  8  9  1  0  0  0  0
  9 10  1  0  0  0  0
 10 11  1  0  0  0  0
 11 12  1  0  0  0  0
 12 13  1  0  0  0  0
 13 14  1  0  0  0  0
M  END
>  <CHROM.1>
-179.75071353,179.66512693,-130.63991455,170.37255660,-174.08740994,-179.30552338
73.29929992,-76.76023997,-63.39872409,-178.83304319,-172.17855683,7.67626776
19.22178695,25.53894876,0.89441490,-0.01708509,2.85841558

>  <Name>
ligand

>  <RI>
0

>  <Rbt.Current_Directory>
/home/itssahil/PROJECTS/Mol_Feturizer/New_Systems/rnas/4FAW

>  <Rbt.Executable>
rbdock ($Id: //depot/dev/client3/rdock/2013.1/src/exe/rbdock.cxx#4 $)

>  <Rbt.Library>
libRbt.so (2013.1, Build901 2013/11/27)

>  <Rbt.Parameter_File>
/export/apps/rDock/src/rDock_2013.1_src/data/scripts/dock_solv.prm

>  <Rbt.Receptor>
prm/blind_docking_100.prm

>  <SCORE>
-10.9316

>  <SCORE.INTER>
-1.62385

>  <SCORE.INTER.CONST>
1

>  <SCORE.INTER.POLAR>
0

>  <SCORE.INTER.ROT>
11

>  <SCORE.INTER.SOLV>
12.3915

>  <SCORE.INTER.VDW>
-16.1464

>  <SCORE.INTER.norm>
-0.115989

>  <SCORE.INTRA>
-9.30772

>  <SCORE.INTRA.DIHEDRAL>
-16.6805

>  <SCORE.INTRA.DIHEDRAL.0>
19.1003

>  <SCORE.INTRA.POLAR>
0

>  <SCORE.INTRA.POLAR.0>
0

>  <SCORE.INTRA.REPUL>
0

>  <SCORE.INTRA.REPUL.0>
0

>  <SCORE.INTRA.SOLV>
-1.13989

>  <SCORE.INTRA.SOLV.lig_0>
-47.5333

>  <SCORE.INTRA.VDW>
-0.397505

>  <SCORE.INTRA.VDW.0>
-0.287413

>  <SCORE.INTRA.norm>
-0.664837

>  <SCORE.RESTR>
0

>  <SCORE.RESTR.CAVITY>
0

>  <SCORE.RESTR.norm>
0

>  <SCORE.SYSTEM>
0

>  <SCORE.SYSTEM.CONST>
0

>  <SCORE.SYSTEM.DIHEDRAL>
0

>  <SCORE.SYSTEM.SOLV>
0

>  <SCORE.SYSTEM.norm>
0

>  <SCORE.heavy>
14

>  <SCORE.norm>
-0.780826

>  <RMSD>
56.808

$$$$
ligand
 OpenBabel11021811493D
libRbt.so/2013.1/901 2013/11/27
 14 13  0  0  0  0  0  0  0  0999 V2000
   13.9983   19.4972   29.6632 N   0  0  0  0  0  0  0  0  0  0  0  0
   13.2118   20.1985   30.6540 C   0  0  0  0  0  0  0  0  0  0  0  0
   11.7744   19.6388   30.6464 C   0  0  0  0  0  0  0  0  0  0  0  0
   10.8086   20.3862   31.5790 C   0  0  0  0  0  0  0  0  0  0  0  0
    9.4953   19.7549   31.7802 N   0  0  0  0  0  0  0  0  0  0  0  0
    8.4656   19.6834   30.7450 C   0  0  0  0  0  0  0  0  0  0  0  0
    8.7030   18.5576   29.7437 C   0  0  0  0  0  0  0  0  0  0  0  0
    7.7434   18.5859   28.5497 C   0  0  0  0  0  0  0  0  0  0  0  0
    8.0797   17.5046   27.5159 C   0  0  0  0  0  0  0  0  0  0  0  0
    7.2254   17.6743   26.3425 N   0  0  0  0  0  0  0  0  0  0  0  0
    7.4783   18.6338   25.2661 C   0  0  0  0  0  0  0  0  0  0  0  0
    6.5113   18.4725   24.0849 C   0  0  0  0  0  0  0  0  0  0  0  0
    6.7888   19.5072   22.9894 C   0  0  0  0  0  0  0  0  0  0  0  0
    6.4635   20.8401   23.4885 N   0  0  0  0  0  0  0  0  0  0  0  0
  1  2  1  0  0  0  0
  2  3  1  0  0  0  0
  3  4  1  0  0  0  0
  4  5  1  0  0  0  0
  5  6  1  0  0  0  0
  6  7  1  0  0  0  0
  7  8  1  0  0  0  0
  8  9  1  0  0  0  0
  9 10  1  0  0  0  0
 10 11  1  0  0  0  0
 11 12  1  0  0  0  0
 12 13  1  0  0  0  0
 13 14  1  0  0  0  0
M  END
>  <CHROM.1>
-175.18213624,-170.00784199,-70.38870007,80.35475825,-172.19923070,175.74173641
-173.97998331,81.43488362,173.02502335,178.99623001,-67.23749092,9.05329141
19.20954236,28.07500327,-0.91601174,-0.25566643,-1.48761285

>  <Name>
ligand

>  <RI>
0

>  <Rbt.Current_Directory>
/home/itssahil/PROJECTS/Mol_Feturizer/New_Systems/rnas/4FAW

>  <Rbt.Executable>
rbdock ($Id: //depot/dev/client3/rdock/2013.1/src/exe/rbdock.cxx#4 $)

>  <Rbt.Library>
libRbt.so (2013.1, Build901 2013/11/27)

>  <Rbt.Parameter_File>
/export/apps/rDock/src/rDock_2013.1_src/data/scripts/dock_solv.prm

>  <Rbt.Receptor>
prm/blind_docking_40.prm

>  <SCORE>
-12.412

>  <SCORE.INTER>
-2.91165

>  <SCORE.INTER.CONST>
1

>  <SCORE.INTER.POLAR>
0

>  <SCORE.INTER.ROT>
11

>  <SCORE.INTER.SOLV>
18.5576

>  <SCORE.INTER.VDW>
-19.0603

>  <SCORE.INTER.norm>
-0.207975

>  <SCORE.INTRA>
-9.50039

>  <SCORE.INTRA.DIHEDRAL>
-17.2297

>  <SCORE.INTRA.DIHEDRAL.0>
19.1003

>  <SCORE.INTRA.POLAR>
0

>  <SCORE.INTRA.POLAR.0>
0

>  <SCORE.INTRA.REPUL>
0

>  <SCORE.INTRA.REPUL.0>
0

>  <SCORE.INTRA.SOLV>
-0.751922

>  <SCORE.INTRA.SOLV.lig_0>
-47.5333

>  <SCORE.INTRA.VDW>
-0.509599

>  <SCORE.INTRA.VDW.0>
-0.287413

>  <SCORE.INTRA.norm>
-0.678599

>  <SCORE.RESTR>
0

>  <SCORE.RESTR.CAVITY>
0

>  <SCORE.RESTR.norm>
0

>  <SCORE.SYSTEM>
0

>  <SCORE.SYSTEM.CONST>
0

>  <SCORE.SYSTEM.DIHEDRAL>
0

>  <SCORE.SYSTEM.SOLV>
0

>  <SCORE.SYSTEM.norm>
0

>  <SCORE.heavy>
14

>  <SCORE.norm>
-0.886575

>  <RMSD>
56.856

$$$$
ligand
 OpenBabel11021811493D
libRbt.so/2013.1/901 2013/11/27
 14 13  0  0  0  0  0  0  0  0999 V2000
    8.4345   24.6282   17.0516 N   0  0  0  0  0  0  0  0  0  0  0  0
    7.7208   25.0559   18.2348 C   0  0  0  0  0  0  0  0  0  0  0  0
    7.2311   23.8129   19.0059 C   0  0  0  0  0  0  0  0  0  0  0  0
    6.3074   24.1371   20.1904 C   0  0  0  0  0  0  0  0  0  0  0  0
    6.9285   24.8679   21.3056 N   0  0  0  0  0  0  0  0  0  0  0  0
    7.7567   24.2311   22.3281 C   0  0  0  0  0  0  0  0  0  0  0  0
    6.9416   23.4627   23.3632 C   0  0  0  0  0  0  0  0  0  0  0  0
    7.7964   22.6169   24.3127 C   0  0  0  0  0  0  0  0  0  0  0  0
    6.9384   21.8113   25.2953 C   0  0  0  0  0  0  0  0  0  0  0  0
    7.7874   20.8654   26.0164 N   0  0  0  0  0  0  0  0  0  0  0  0
    8.3851   19.6689   25.4209 C   0  0  0  0  0  0  0  0  0  0  0  0
    8.6067   18.5432   26.4407 C   0  0  0  0  0  0  0  0  0  0  0  0
    7.2810   18.0622   27.0398 C   0  0  0  0  0  0  0  0  0  0  0  0
    7.5493   17.0626   28.0695 N   0  0  0  0  0  0  0  0  0  0  0  0
  1  2  1  0  0  0  0
  2  3  1  0  0  0  0
  3  4  1  0  0  0  0
  4  5  1  0  0  0  0
  5  6  1  0  0  0  0
  6  7  1  0  0  0  0
  7  8  1  0  0  0  0
  8  9  1  0  0  0  0
  9 10  1  0  0  0  0
 10 11  1  0  0  0  0
 11 12  1  0  0  0  0
 12 13  1  0  0  0  0
 13 14  1  0  0  0  0
M  END
>  <CHROM.1>
-172.75280044,-66.17757462,-79.69855236,-76.58195269,171.19432024,-177.38951560
170.62618122,-71.49299823,-151.32656593,62.40631156,-175.97279254,7.54744611
22.05910907,23.14821962,-1.66241747,-1.23702794,2.13269649

>  <Name>
ligand

>  <RI>
0

>  <Rbt.Current_Directory>
/home/itssahil/PROJECTS/Mol_Feturizer/New_Systems/rnas/4FAW

>  <Rbt.Executable>
rbdock ($Id: //depot/dev/client3/rdock/2013.1/src/exe/rbdock.cxx#4 $)

>  <Rbt.Library>
libRbt.so (2013.1, Build901 2013/11/27)

>  <Rbt.Parameter_File>
/export/apps/rDock/src/rDock_2013.1_src/data/scripts/dock_solv.prm

>  <Rbt.Receptor>
prm/blind_docking_40.prm

>  <SCORE>
-7.1916

>  <SCORE.INTER>
2.20486

>  <SCORE.INTER.CONST>
1

>  <SCORE.INTER.POLAR>
0

>  <SCORE.INTER.ROT>
11

>  <SCORE.INTER.SOLV>
13.8781

>  <SCORE.INTER.VDW>
-14.0895

>  <SCORE.INTER.norm>
0.15749

>  <SCORE.INTRA>
-9.39646

>  <SCORE.INTRA.DIHEDRAL>
-16.8674

>  <SCORE.INTRA.DIHEDRAL.0>
19.1003

>  <SCORE.INTRA.POLAR>
0

>  <SCORE.INTRA.POLAR.0>
0

>  <SCORE.INTRA.REPUL>
0

>  <SCORE.INTRA.REPUL.0>
0

>  <SCORE.INTRA.SOLV>
-0.799112

>  <SCORE.INTRA.SOLV.lig_0>
-47.5333

>  <SCORE.INTRA.VDW>
-0.563199

>  <SCORE.INTRA.VDW.0>
-0.287413

>  <SCORE.INTRA.norm>
-0.671176

>  <SCORE.RESTR>
0

>  <SCORE.RESTR.CAVITY>
0

>  <SCORE.RESTR.norm>
0

>  <SCORE.SYSTEM>
0

>  <SCORE.SYSTEM.CONST>
0

>  <SCORE.SYSTEM.DIHEDRAL>
0

>  <SCORE.SYSTEM.SOLV>
0

>  <SCORE.SYSTEM.norm>
0

>  <SCORE.heavy>
14

>  <SCORE.norm>
-0.513686

>  <RMSD>
56.856

$$$$
ligand
 OpenBabel11021811493D
libRbt.so/2013.1/901 2013/11/27
 14 13  0  0  0  0  0  0  0  0999 V2000
   -0.7250    8.6876   11.9461 N   0  0  0  0  0  0  0  0  0  0  0  0
   -0.2076    7.3667   11.6638 C   0  0  0  0  0  0  0  0  0  0  0  0
   -1.1497    6.3129   12.2814 C   0  0  0  0  0  0  0  0  0  0  0  0
   -2.5173    6.2154   11.5879 C   0  0  0  0  0  0  0  0  0  0  0  0
   -2.4976    5.7370   10.1971 N   0  0  0  0  0  0  0  0  0  0  0  0
   -3.0318    6.5016    9.0714 C   0  0  0  0  0  0  0  0  0  0  0  0
   -3.2349    5.6561    7.8183 C   0  0  0  0  0  0  0  0  0  0  0  0
   -1.9295    5.3027    7.0982 C   0  0  0  0  0  0  0  0  0  0  0  0
   -1.3144    6.5177    6.3937 C   0  0  0  0  0  0  0  0  0  0  0  0
   -0.1332    6.0957    5.6438 N   0  0  0  0  0  0  0  0  0  0  0  0
    0.4140    6.8112    4.4897 C   0  0  0  0  0  0  0  0  0  0  0  0
    1.2212    5.9017    3.5529 C   0  0  0  0  0  0  0  0  0  0  0  0
    1.8031    6.6884    2.3739 C   0  0  0  0  0  0  0  0  0  0  0  0
    2.6080    5.7952    1.5458 N   0  0  0  0  0  0  0  0  0  0  0  0
  1  2  1  0  0  0  0
  2  3  1  0  0  0  0
  3  4  1  0  0  0  0
  4  5  1  0  0  0  0
  5  6  1  0  0  0  0
  6  7  1  0  0  0  0
  7  8  1  0  0  0  0
  8  9  1  0  0  0  0
  9 10  1  0  0  0  0
 10 11  1  0  0  0  0
 11 12  1  0  0  0  0
 12 13  1  0  0  0  0
 13 14  1  0  0  0  0
M  END
>  <CHROM.1>
69.28898316,65.47606180,-122.12572489,-164.52037907,-74.39545273,-71.79731754
-175.68423907,156.22543052,-155.16774264,-178.78549998,177.55062424,-0.76413091
6.39920778,7.54751045,-1.96799075,-0.41783457,-1.81084723

>  <Name>
ligand

>  <RI>
0

>  <Rbt.Current_Directory>
/home/itssahil/PROJECTS/Mol_Feturizer/New_Systems/rnas/4FAW

>  <Rbt.Executable>
rbdock ($Id: //depot/dev/client3/rdock/2013.1/src/exe/rbdock.cxx#4 $)

>  <Rbt.Library>
libRbt.so (2013.1, Build901 2013/11/27)

>  <Rbt.Parameter_File>
/export/apps/rDock/src/rDock_2013.1_src/data/scripts/dock_solv.prm

>  <Rbt.Receptor>
prm/blind_docking_20.prm

>  <SCORE>
-6.8545

>  <SCORE.INTER>
1.05571

>  <SCORE.INTER.CONST>
1

>  <SCORE.INTER.POLAR>
0

>  <SCORE.INTER.ROT>
11

>  <SCORE.INTER.SOLV>
7.0848

>  <SCORE.INTER.VDW>
-12.5911

>  <SCORE.INTER.norm>
0.0754081

>  <SCORE.INTRA>
-7.95652

>  <SCORE.INTRA.DIHEDRAL>
-15.0258

>  <SCORE.INTRA.DIHEDRAL.0>
19.1003

>  <SCORE.INTRA.POLAR>
0

>  <SCORE.INTRA.POLAR.0>
0

>  <SCORE.INTRA.REPUL>
0

>  <SCORE.INTRA.REPUL.0>
0

>  <SCORE.INTRA.SOLV>
0.80923

>  <SCORE.INTRA.SOLV.lig_0>
-47.5333

>  <SCORE.INTRA.VDW>
-0.84822

>  <SCORE.INTRA.VDW.0>
-0.287413

>  <SCORE.INTRA.norm>
-0.568323

>  <SCORE.RESTR>
0.0463064

>  <SCORE.RESTR.CAVITY>
0.0463064

>  <SCORE.RESTR.norm>
0.0033076

>  <SCORE.SYSTEM>
0

>  <SCORE.SYSTEM.CONST>
0

>  <SCORE.SYSTEM.DIHEDRAL>
0

>  <SCORE.SYSTEM.SOLV>
0

>  <SCORE.SYSTEM.norm>
0

>  <SCORE.heavy>
14

>  <SCORE.norm>
-0.489607

>  <RMSD>
56.961

$$$$
ligand
 OpenBabel11021811493D
libRbt.so/2013.1/901 2013/11/27
 14 13  0  0  0  0  0  0  0  0999 V2000
    3.5063    8.5831    7.6532 N   0  0  0  0  0  0  0  0  0  0  0  0
    2.4648    7.6849    7.2051 C   0  0  0  0  0  0  0  0  0  0  0  0
    1.4140    8.4868    6.4100 C   0  0  0  0  0  0  0  0  0  0  0  0
    0.2577    7.6333    5.8664 C   0  0  0  0  0  0  0  0  0  0  0  0
   -0.6167    7.0204    6.8781 N   0  0  0  0  0  0  0  0  0  0  0  0
   -1.6377    6.0218    6.5662 C   0  0  0  0  0  0  0  0  0  0  0  0
   -2.9601    6.2763    7.2825 C   0  0  0  0  0  0  0  0  0  0  0  0
   -2.9051    6.0006    8.7886 C   0  0  0  0  0  0  0  0  0  0  0  0
   -2.0983    7.0667    9.5392 C   0  0  0  0  0  0  0  0  0  0  0  0
   -2.3530    6.9459   10.9732 N   0  0  0  0  0  0  0  0  0  0  0  0
   -1.3725    6.4707   11.9511 C   0  0  0  0  0  0  0  0  0  0  0  0
   -0.1848    7.4287   12.1176 C   0  0  0  0  0  0  0  0  0  0  0  0
   -0.6339    8.7860   12.6687 C   0  0  0  0  0  0  0  0  0  0  0  0
    0.5327    9.6445   12.8513 N   0  0  0  0  0  0  0  0  0  0  0  0
  1  2  1  0  0  0  0
  2  3  1  0  0  0  0
  3  4  1  0  0  0  0
  4  5  1  0  0  0  0
  5  6  1  0  0  0  0
  6  7  1  0  0  0  0
  7  8  1  0  0  0  0
  8  9  1  0  0  0  0
  9 10  1  0  0  0  0
 10 11  1  0  0  0  0
 11 12  1  0  0  0  0
 12 13  1  0  0  0  0
 13 14  1  0  0  0  0
M  END
>  <CHROM.1>
179.40319543,65.35412473,-170.49814767,-136.09120035,-71.42496842,72.14199911
166.06984217,110.02079730,66.80057167,63.31976717,178.11944164,-0.47078515
7.43187058,9.05343874,-1.25818500,0.44794524,1.36505546

>  <Name>
ligand

>  <RI>
0

>  <Rbt.Current_Directory>
/home/itssahil/PROJECTS/Mol_Feturizer/New_Systems/rnas/4FAW

>  <Rbt.Executable>
rbdock ($Id: //depot/dev/client3/rdock/2013.1/src/exe/rbdock.cxx#4 $)

>  <Rbt.Library>
libRbt.so (2013.1, Build901 2013/11/27)

>  <Rbt.Parameter_File>
/export/apps/rDock/src/rDock_2013.1_src/data/scripts/dock_solv.prm

>  <Rbt.Receptor>
prm/blind_docking_20.prm

>  <SCORE>
-3.04588

>  <SCORE.INTER>
5.01171

>  <SCORE.INTER.CONST>
1

>  <SCORE.INTER.POLAR>
0

>  <SCORE.INTER.ROT>
11

>  <SCORE.INTER.SOLV>
9.03596

>  <SCORE.INTER.VDW>
-10.6042

>  <SCORE.INTER.norm>
0.357979

>  <SCORE.INTRA>
-8.05915

>  <SCORE.INTRA.DIHEDRAL>
-14.9273

>  <SCORE.INTRA.DIHEDRAL.0>
19.1003

>  <SCORE.INTRA.POLAR>
0

>  <SCORE.INTRA.POLAR.0>
0

>  <SCORE.INTRA.REPUL>
0

>  <SCORE.INTRA.REPUL.0>
0

>  <SCORE.INTRA.SOLV>
0.0317511

>  <SCORE.INTRA.SOLV.lig_0>
-47.5333

>  <SCORE.INTRA.VDW>
-0.611373

>  <SCORE.INTRA.VDW.0>
-0.287413

>  <SCORE.INTRA.norm>
-0.575653

>  <SCORE.RESTR>
0.00155325

>  <SCORE.RESTR.CAVITY>
0.00155325

>  <SCORE.RESTR.norm>
0.000110947

>  <SCORE.SYSTEM>
0

>  <SCORE.SYSTEM.CONST>
0

>  <SCORE.SYSTEM.DIHEDRAL>
0

>  <SCORE.SYSTEM.SOLV>
0

>  <SCORE.SYSTEM.norm>
0

>  <SCORE.heavy>
14

>  <SCORE.norm>
-0.217563

>  <RMSD>
56.985

$$$$
ligand
 OpenBabel11021811493D
libRbt.so/2013.1/901 2013/11/27
 14 13  0  0  0  0  0  0  0  0999 V2000
    1.0395    6.2968    4.2909 N   0  0  0  0  0  0  0  0  0  0  0  0
   -0.2263    6.7850    3.7893 C   0  0  0  0  0  0  0  0  0  0  0  0
   -1.3734    6.0491    4.5118 C   0  0  0  0  0  0  0  0  0  0  0  0
   -1.4429    6.3307    6.0208 C   0  0  0  0  0  0  0  0  0  0  0  0
   -2.4934    5.6126    6.7586 N   0  0  0  0  0  0  0  0  0  0  0  0
   -3.1706    6.1557    7.9348 C   0  0  0  0  0  0  0  0  0  0  0  0
   -2.2651    6.2394    9.1594 C   0  0  0  0  0  0  0  0  0  0  0  0
   -3.0176    6.5411   10.4594 C   0  0  0  0  0  0  0  0  0  0  0  0
   -2.1045    6.4469   11.6875 C   0  0  0  0  0  0  0  0  0  0  0  0
   -1.1174    7.5235   11.6404 N   0  0  0  0  0  0  0  0  0  0  0  0
    0.2075    7.4058   11.0287 C   0  0  0  0  0  0  0  0  0  0  0  0
    0.9717    8.7368   11.0020 C   0  0  0  0  0  0  0  0  0  0  0  0
    2.3342    8.5860   10.3174 C   0  0  0  0  0  0  0  0  0  0  0  0
    2.1348    8.2528    8.9101 N   0  0  0  0  0  0  0  0  0  0  0  0
  1  2  1  0  0  0  0
  2  3  1  0  0  0  0
  3  4  1  0  0  0  0
  4  5  1  0  0  0  0
  5  6  1  0  0  0  0
  6  7  1  0  0  0  0
  7  8  1  0  0  0  0
  8  9  1  0  0  0  0
  9 10  1  0  0  0  0
 10 11  1  0  0  0  0
 11 12  1  0  0  0  0
 12 13  1  0  0  0  0
 13 14  1  0  0  0  0
M  END
>  <CHROM.1>
64.46908940,-177.94278405,-148.33176508,-69.81815216,-168.63056792,172.96542784
67.25302662,-91.61664260,174.15395072,-178.25370264,65.06349514,-0.75193980
6.92586215,8.39385720,-1.65630342,0.40217540,1.39102052

>  <Name>
ligand

>  <RI>
0

>  <Rbt.Current_Directory>
/home/itssahil/PROJECTS/Mol_Feturizer/New_Systems/rnas/4FAW

>  <Rbt.Executable>
rbdock ($Id: //depot/dev/client3/rdock/2013.1/src/exe/rbdock.cxx#4 $)

>  <Rbt.Library>
libRbt.so (2013.1, Build901 2013/11/27)

>  <Rbt.Parameter_File>
/export/apps/rDock/src/rDock_2013.1_src/data/scripts/dock_solv.prm

>  <Rbt.Receptor>
prm/blind_docking_20.prm

>  <SCORE>
-5.96757

>  <SCORE.INTER>
2.53017

>  <SCORE.INTER.CONST>
1

>  <SCORE.INTER.POLAR>
0

>  <SCORE.INTER.ROT>
11

>  <SCORE.INTER.SOLV>
11.12

>  <SCORE.INTER.VDW>
-12.9532

>  <SCORE.INTER.norm>
0.180726

>  <SCORE.INTRA>
-8.49774

>  <SCORE.INTRA.DIHEDRAL>
-16.616

>  <SCORE.INTRA.DIHEDRAL.0>
19.1003

>  <SCORE.INTRA.POLAR>
0

>  <SCORE.INTRA.POLAR.0>
0

>  <SCORE.INTRA.REPUL>
0

>  <SCORE.INTRA.REPUL.0>
0

>  <SCORE.INTRA.SOLV>
0.395516

>  <SCORE.INTRA.SOLV.lig_0>
-47.5333

>  <SCORE.INTRA.VDW>
-0.387512

>  <SCORE.INTRA.VDW.0>
-0.287413

>  <SCORE.INTRA.norm>
-0.606982

>  <SCORE.RESTR>
0

>  <SCORE.RESTR.CAVITY>
0

>  <SCORE.RESTR.norm>
0

>  <SCORE.SYSTEM>
0

>  <SCORE.SYSTEM.CONST>
0

>  <SCORE.SYSTEM.DIHEDRAL>
0

>  <SCORE.SYSTEM.SOLV>
0

>  <SCORE.SYSTEM.norm>
0

>  <SCORE.heavy>
14

>  <SCORE.norm>
-0.426255

>  <RMSD>
57.029

$$$$
ligand
 OpenBabel11021811493D
libRbt.so/2013.1/901 2013/11/27
 14 13  0  0  0  0  0  0  0  0999 V2000
   13.2736   19.8557   30.1184 N   0  0  0  0  0  0  0  0  0  0  0  0
   11.9153   19.6417   29.6697 C   0  0  0  0  0  0  0  0  0  0  0  0
   10.9917   19.5147   30.8987 C   0  0  0  0  0  0  0  0  0  0  0  0
    9.5141   19.2813   30.5476 C   0  0  0  0  0  0  0  0  0  0  0  0
    9.2145   18.0277   29.8388 N   0  0  0  0  0  0  0  0  0  0  0  0
    9.2405   17.8958   28.3832 C   0  0  0  0  0  0  0  0  0  0  0  0
    8.0860   18.6190   27.6975 C   0  0  0  0  0  0  0  0  0  0  0  0
    8.2550   18.7440   26.1798 C   0  0  0  0  0  0  0  0  0  0  0  0
    7.2848   19.7659   25.5754 C   0  0  0  0  0  0  0  0  0  0  0  0
    7.4730   21.0584   26.2309 N   0  0  0  0  0  0  0  0  0  0  0  0
    6.7452   22.2789   25.8788 C   0  0  0  0  0  0  0  0  0  0  0  0
    7.2346   22.9067   24.5663 C   0  0  0  0  0  0  0  0  0  0  0  0
    6.5430   24.2467   24.2950 C   0  0  0  0  0  0  0  0  0  0  0  0
    7.0040   24.7796   23.0164 N   0  0  0  0  0  0  0  0  0  0  0  0
  1  2  1  0  0  0  0
  2  3  1  0  0  0  0
  3  4  1  0  0  0  0
  4  5  1  0  0  0  0
  5  6  1  0  0  0  0
  6  7  1  0  0  0  0
  7  8  1  0  0  0  0
  8  9  1  0  0  0  0
  9 10  1  0  0  0  0
 10 11  1  0  0  0  0
 11 12  1  0  0  0  0
 12 13  1  0  0  0  0
 13 14  1  0  0  0  0
M  END
>  <CHROM.1>
-179.91012762,63.37683385,-88.72206066,-70.98480530,167.81537422,-165.42089254
56.54731237,177.96685348,-74.72835232,-174.75843999,-177.96918894,8.76946465
20.47238016,27.34975603,-0.90164990,-0.65749670,-0.47502506

>  <Name>
ligand

>  <RI>
0

>  <Rbt.Current_Directory>
/home/itssahil/PROJECTS/Mol_Feturizer/New_Systems/rnas/4FAW

>  <Rbt.Executable>
rbdock ($Id: //depot/dev/client3/rdock/2013.1/src/exe/rbdock.cxx#4 $)

>  <Rbt.Library>
libRbt.so (2013.1, Build901 2013/11/27)

>  <Rbt.Parameter_File>
/export/apps/rDock/src/rDock_2013.1_src/data/scripts/dock_solv.prm

>  <Rbt.Receptor>
prm/blind_docking_40.prm

>  <SCORE>
-10.9312

>  <SCORE.INTER>
-1.68449

>  <SCORE.INTER.CONST>
1

>  <SCORE.INTER.POLAR>
0

>  <SCORE.INTER.ROT>
11

>  <SCORE.INTER.SOLV>
16.2479

>  <SCORE.INTER.VDW>
-17.4723

>  <SCORE.INTER.norm>
-0.120321

>  <SCORE.INTRA>
-9.24673

>  <SCORE.INTRA.DIHEDRAL>
-16.6719

>  <SCORE.INTRA.DIHEDRAL.0>
19.1003

>  <SCORE.INTRA.POLAR>
0

>  <SCORE.INTRA.POLAR.0>
0

>  <SCORE.INTRA.REPUL>
0

>  <SCORE.INTRA.REPUL.0>
0

>  <SCORE.INTRA.SOLV>
-0.675177

>  <SCORE.INTRA.SOLV.lig_0>
-47.5333

>  <SCORE.INTRA.VDW>
-0.573212

>  <SCORE.INTRA.VDW.0>
-0.287413

>  <SCORE.INTRA.norm>
-0.660481

>  <SCORE.RESTR>
0

>  <SCORE.RESTR.CAVITY>
0

>  <SCORE.RESTR.norm>
0

>  <SCORE.SYSTEM>
0

>  <SCORE.SYSTEM.CONST>
0

>  <SCORE.SYSTEM.DIHEDRAL>
0

>  <SCORE.SYSTEM.SOLV>
0

>  <SCORE.SYSTEM.norm>
0

>  <SCORE.heavy>
14

>  <SCORE.norm>
-0.780801

>  <RMSD>
57.126

$$$$
ligand
 OpenBabel11021811493D
libRbt.so/2013.1/901 2013/11/27
 14 13  0  0  0  0  0  0  0  0999 V2000
    9.4351   12.6573   42.0235 N   0  0  0  0  0  0  0  0  0  0  0  0
   10.2830   13.4668   41.1762 C   0  0  0  0  0  0  0  0  0  0  0  0
    9.9456   13.1766   39.6992 C   0  0  0  0  0  0  0  0  0  0  0  0
   10.7894   13.9792   38.6968 C   0  0  0  0  0  0  0  0  0  0  0  0
   10.4882   13.7474   37.2759 N   0  0  0  0  0  0  0  0  0  0  0  0
   11.3501   14.1950   36.1832 C   0  0  0  0  0  0  0  0  0  0  0  0
   12.7055   13.4957   36.1672 C   0  0  0  0  0  0  0  0  0  0  0  0
   13.5677   13.8563   34.9532 C   0  0  0  0  0  0  0  0  0  0  0  0
   14.9730   13.2500   35.0455 C   0  0  0  0  0  0  0  0  0  0  0  0
   14.8684   11.7938   35.1109 N   0  0  0  0  0  0  0  0  0  0  0  0
   15.9406   10.9064   35.5654 C   0  0  0  0  0  0  0  0  0  0  0  0
   15.8665    9.5100   34.9324 C   0  0  0  0  0  0  0  0  0  0  0  0
   16.9957    8.6060   35.4377 C   0  0  0  0  0  0  0  0  0  0  0  0
   16.9655    7.3406   34.7103 N   0  0  0  0  0  0  0  0  0  0  0  0
  1  2  1  0  0  0  0
  2  3  1  0  0  0  0
  3  4  1  0  0  0  0
  4  5  1  0  0  0  0
  5  6  1  0  0  0  0
  6  7  1  0  0  0  0
  7  8  1  0  0  0  0
  8  9  1  0  0  0  0
  9 10  1  0  0  0  0
 10 11  1  0  0  0  0
 11 12  1  0  0  0  0
 12 13  1  0  0  0  0
 13 14  1  0  0  0  0
M  END
>  <CHROM.1>
-179.83124729,-179.18982575,-166.89306452,65.65478720,174.53835358,174.10750736
60.21740067,-162.51762835,-152.14049472,-179.57380517,-174.28990827,13.15538190
12.14181925,36.92680361,-3.07314732,0.79255381,-0.77657461

>  <Name>
ligand

>  <RI>
0

>  <Rbt.Current_Directory>
/home/itssahil/PROJECTS/Mol_Feturizer/New_Systems/rnas/4FAW

>  <Rbt.Executable>
rbdock ($Id: //depot/dev/client3/rdock/2013.1/src/exe/rbdock.cxx#4 $)

>  <Rbt.Library>
libRbt.so (2013.1, Build901 2013/11/27)

>  <Rbt.Parameter_File>
/export/apps/rDock/src/rDock_2013.1_src/data/scripts/dock_solv.prm

>  <Rbt.Receptor>
prm/blind_docking_60.prm

>  <SCORE>
-13.2313

>  <SCORE.INTER>
-3.1867

>  <SCORE.INTER.CONST>
1

>  <SCORE.INTER.POLAR>
0

>  <SCORE.INTER.ROT>
11

>  <SCORE.INTER.SOLV>
10.1616

>  <SCORE.INTER.VDW>
-16.445

>  <SCORE.INTER.norm>
-0.227621

>  <SCORE.INTRA>
-10.0446

>  <SCORE.INTRA.DIHEDRAL>
-17.7887

>  <SCORE.INTRA.DIHEDRAL.0>
19.1003

>  <SCORE.INTRA.POLAR>
0

>  <SCORE.INTRA.POLAR.0>
0

>  <SCORE.INTRA.REPUL>
0

>  <SCORE.INTRA.REPUL.0>
0

>  <SCORE.INTRA.SOLV>
-1.07885

>  <SCORE.INTRA.SOLV.lig_0>
-47.5333

>  <SCORE.INTRA.VDW>
-0.610846

>  <SCORE.INTRA.VDW.0>
-0.287413

>  <SCORE.INTRA.norm>
-0.717474

>  <SCORE.RESTR>
0

>  <SCORE.RESTR.CAVITY>
0

>  <SCORE.RESTR.norm>
0

>  <SCORE.SYSTEM>
0

>  <SCORE.SYSTEM.CONST>
0

>  <SCORE.SYSTEM.DIHEDRAL>
0

>  <SCORE.SYSTEM.SOLV>
0

>  <SCORE.SYSTEM.norm>
0

>  <SCORE.heavy>
14

>  <SCORE.norm>
-0.945095

>  <RMSD>
57.148

$$$$
ligand
 OpenBabel11021811493D
libRbt.so/2013.1/901 2013/11/27
 14 13  0  0  0  0  0  0  0  0999 V2000
    3.5181   13.9441   19.7000 N   0  0  0  0  0  0  0  0  0  0  0  0
    4.6802   14.8032   19.7619 C   0  0  0  0  0  0  0  0  0  0  0  0
    4.2409   16.2162   20.1977 C   0  0  0  0  0  0  0  0  0  0  0  0
    5.3977   17.2206   20.3164 C   0  0  0  0  0  0  0  0  0  0  0  0
    5.0647   18.5102   20.9406 N   0  0  0  0  0  0  0  0  0  0  0  0
    5.9976   19.2724   21.7687 C   0  0  0  0  0  0  0  0  0  0  0  0
    6.3858   18.5470   23.0529 C   0  0  0  0  0  0  0  0  0  0  0  0
    7.1715   19.4196   24.0372 C   0  0  0  0  0  0  0  0  0  0  0  0
    6.3015   20.5258   24.6458 C   0  0  0  0  0  0  0  0  0  0  0  0
    7.1151   21.3420   25.5445 N   0  0  0  0  0  0  0  0  0  0  0  0
    6.7271   22.6631   26.0421 C   0  0  0  0  0  0  0  0  0  0  0  0
    6.6408   23.7170   24.9293 C   0  0  0  0  0  0  0  0  0  0  0  0
    7.9769   23.8651   24.1942 C   0  0  0  0  0  0  0  0  0  0  0  0
    7.8409   24.8646   23.1388 N   0  0  0  0  0  0  0  0  0  0  0  0
  1  2  1  0  0  0  0
  2  3  1  0  0  0  0
  3  4  1  0  0  0  0
  4  5  1  0  0  0  0
  5  6  1  0  0  0  0
  6  7  1  0  0  0  0
  7  8  1  0  0  0  0
  8  9  1  0  0  0  0
  9 10  1  0  0  0  0
 10 11  1  0  0  0  0
 11 12  1  0  0  0  0
 12 13  1  0  0  0  0
 13 14  1  0  0  0  0
M  END
>  <CHROM.1>
179.30836381,-170.19783235,146.32926097,-64.18951699,-170.38135074,69.06191785
-178.48315991,164.25004029,-65.67446634,-58.47954503,179.37204831,6.07571065
19.63647950,22.73373556,3.03170181,-1.26295297,-1.14077533

>  <Name>
ligand

>  <RI>
0

>  <Rbt.Current_Directory>
/home/itssahil/PROJECTS/Mol_Feturizer/New_Systems/rnas/4FAW

>  <Rbt.Executable>
rbdock ($Id: //depot/dev/client3/rdock/2013.1/src/exe/rbdock.cxx#4 $)

>  <Rbt.Library>
libRbt.so (2013.1, Build901 2013/11/27)

>  <Rbt.Parameter_File>
/export/apps/rDock/src/rDock_2013.1_src/data/scripts/dock_solv.prm

>  <Rbt.Receptor>
prm/blind_docking_100.prm

>  <SCORE>
-10.5485

>  <SCORE.INTER>
-1.40582

>  <SCORE.INTER.CONST>
1

>  <SCORE.INTER.POLAR>
0

>  <SCORE.INTER.ROT>
11

>  <SCORE.INTER.SOLV>
9.5886

>  <SCORE.INTER.VDW>
-15.0667

>  <SCORE.INTER.norm>
-0.100416

>  <SCORE.INTRA>
-9.14266

>  <SCORE.INTRA.DIHEDRAL>
-17.0953

>  <SCORE.INTRA.DIHEDRAL.0>
19.1003

>  <SCORE.INTRA.POLAR>
0

>  <SCORE.INTRA.POLAR.0>
0

>  <SCORE.INTRA.REPUL>
0

>  <SCORE.INTRA.REPUL.0>
0

>  <SCORE.INTRA.SOLV>
-0.878692

>  <SCORE.INTRA.SOLV.lig_0>
-47.5333

>  <SCORE.INTRA.VDW>
-0.155682

>  <SCORE.INTRA.VDW.0>
-0.287413

>  <SCORE.INTRA.norm>
-0.653047

>  <SCORE.RESTR>
0

>  <SCORE.RESTR.CAVITY>
0

>  <SCORE.RESTR.norm>
0

>  <SCORE.SYSTEM>
0

>  <SCORE.SYSTEM.CONST>
0

>  <SCORE.SYSTEM.DIHEDRAL>
0

>  <SCORE.SYSTEM.SOLV>
0

>  <SCORE.SYSTEM.norm>
0

>  <SCORE.heavy>
14

>  <SCORE.norm>
-0.753463

>  <RMSD>
57.279

$$$$
ligand
 OpenBabel11021811493D
libRbt.so/2013.1/901 2013/11/27
 14 13  0  0  0  0  0  0  0  0999 V2000
   17.4346    9.0802   35.7982 N   0  0  0  0  0  0  0  0  0  0  0  0
   17.4182   10.3168   36.5482 C   0  0  0  0  0  0  0  0  0  0  0  0
   16.6908   11.3983   35.7231 C   0  0  0  0  0  0  0  0  0  0  0  0
   15.1973   11.1140   35.5002 C   0  0  0  0  0  0  0  0  0  0  0  0
   14.5078   12.0112   34.5604 N   0  0  0  0  0  0  0  0  0  0  0  0
   14.4558   13.4634   34.7196 C   0  0  0  0  0  0  0  0  0  0  0  0
   13.0934   13.9641   35.1884 C   0  0  0  0  0  0  0  0  0  0  0  0
   12.7175   13.4921   36.5967 C   0  0  0  0  0  0  0  0  0  0  0  0
   11.3360   14.0015   37.0242 C   0  0  0  0  0  0  0  0  0  0  0  0
   11.0126   13.4714   38.3470 N   0  0  0  0  0  0  0  0  0  0  0  0
    9.6540   13.2025   38.8218 C   0  0  0  0  0  0  0  0  0  0  0  0
    9.6160   12.1953   39.9795 C   0  0  0  0  0  0  0  0  0  0  0  0
   10.3606   12.7273   41.2085 C   0  0  0  0  0  0  0  0  0  0  0  0
   10.3708   11.7035   42.2492 N   0  0  0  0  0  0  0  0  0  0  0  0
  1  2  1  0  0  0  0
  2  3  1  0  0  0  0
  3  4  1  0  0  0  0
  4  5  1  0  0  0  0
  5  6  1  0  0  0  0
  6  7  1  0  0  0  0
  7  8  1  0  0  0  0
  8  9  1  0  0  0  0
  9 10  1  0  0  0  0
 10 11  1  0  0  0  0
 11 12  1  0  0  0  0
 12 13  1  0  0  0  0
 13 14  1  0  0  0  0
M  END
>  <CHROM.1>
65.69500667,-171.50144968,-57.23969997,-105.59767886,65.18015113,-179.30508472
177.56590898,-150.63857564,158.41584368,62.49225724,-176.38790887,13.13315966
12.29612995,37.30447289,-0.40214264,-0.57115057,2.13023740

>  <Name>
ligand

>  <RI>
0

>  <Rbt.Current_Directory>
/home/itssahil/PROJECTS/Mol_Feturizer/New_Systems/rnas/4FAW

>  <Rbt.Executable>
rbdock ($Id: //depot/dev/client3/rdock/2013.1/src/exe/rbdock.cxx#4 $)

>  <Rbt.Library>
libRbt.so (2013.1, Build901 2013/11/27)

>  <Rbt.Parameter_File>
/export/apps/rDock/src/rDock_2013.1_src/data/scripts/dock_solv.prm

>  <Rbt.Receptor>
prm/blind_docking_60.prm

>  <SCORE>
-13.1974

>  <SCORE.INTER>
-4.26982

>  <SCORE.INTER.CONST>
1

>  <SCORE.INTER.POLAR>
0

>  <SCORE.INTER.ROT>
11

>  <SCORE.INTER.SOLV>
12.3764

>  <SCORE.INTER.VDW>
-17.9054

>  <SCORE.INTER.norm>
-0.304987

>  <SCORE.INTRA>
-8.92759

>  <SCORE.INTRA.DIHEDRAL>
-16.5442

>  <SCORE.INTRA.DIHEDRAL.0>
19.1003

>  <SCORE.INTRA.POLAR>
0

>  <SCORE.INTRA.POLAR.0>
0

>  <SCORE.INTRA.REPUL>
0

>  <SCORE.INTRA.REPUL.0>
0

>  <SCORE.INTRA.SOLV>
0.00202662

>  <SCORE.INTRA.SOLV.lig_0>
-47.5333

>  <SCORE.INTRA.VDW>
-0.656527

>  <SCORE.INTRA.VDW.0>
-0.287413

>  <SCORE.INTRA.norm>
-0.637685

>  <SCORE.RESTR>
0

>  <SCORE.RESTR.CAVITY>
0

>  <SCORE.RESTR.norm>
0

>  <SCORE.SYSTEM>
0

>  <SCORE.SYSTEM.CONST>
0

>  <SCORE.SYSTEM.DIHEDRAL>
0

>  <SCORE.SYSTEM.SOLV>
0

>  <SCORE.SYSTEM.norm>
0

>  <SCORE.heavy>
14

>  <SCORE.norm>
-0.942672

>  <RMSD>
57.429

$$$$
ligand
 OpenBabel11021811493D
libRbt.so/2013.1/901 2013/11/27
 14 13  0  0  0  0  0  0  0  0999 V2000
   12.8661   21.8260   24.9263 N   0  0  0  0  0  0  0  0  0  0  0  0
   11.6274   22.3524   24.3964 C   0  0  0  0  0  0  0  0  0  0  0  0
   11.8210   23.8420   24.0455 C   0  0  0  0  0  0  0  0  0  0  0  0
   10.5509   24.5298   23.5210 C   0  0  0  0  0  0  0  0  0  0  0  0
    9.3979   24.5281   24.4344 N   0  0  0  0  0  0  0  0  0  0  0  0
    8.0288   24.8130   24.0086 C   0  0  0  0  0  0  0  0  0  0  0  0
    7.1957   23.5533   23.7955 C   0  0  0  0  0  0  0  0  0  0  0  0
    5.9011   23.7988   23.0136 C   0  0  0  0  0  0  0  0  0  0  0  0
    5.0962   22.5091   22.8145 C   0  0  0  0  0  0  0  0  0  0  0  0
    4.2639   22.2713   23.9919 N   0  0  0  0  0  0  0  0  0  0  0  0
    4.6606   21.4441   25.1328 C   0  0  0  0  0  0  0  0  0  0  0  0
    3.4604   20.8990   25.9193 C   0  0  0  0  0  0  0  0  0  0  0  0
    2.6674   19.8798   25.0945 C   0  0  0  0  0  0  0  0  0  0  0  0
    3.4577   18.6621   24.9396 N   0  0  0  0  0  0  0  0  0  0  0  0
  1  2  1  0  0  0  0
  2  3  1  0  0  0  0
  3  4  1  0  0  0  0
  4  5  1  0  0  0  0
  5  6  1  0  0  0  0
  6  7  1  0  0  0  0
  7  8  1  0  0  0  0
  8  9  1  0  0  0  0
  9 10  1  0  0  0  0
 10 11  1  0  0  0  0
 11 12  1  0  0  0  0
 12 13  1  0  0  0  0
 13 14  1  0  0  0  0
M  END
>  <CHROM.1>
-177.75099376,59.49441096,-163.71741207,99.45088423,-164.99760269,179.71878611
84.73976657,-93.27964344,-156.38423739,67.69783093,69.84760670,7.21383114
22.49376019,24.28801857,-0.35413775,0.07670006,2.73184976

>  <Name>
ligand

>  <RI>
0

>  <Rbt.Current_Directory>
/home/itssahil/PROJECTS/Mol_Feturizer/New_Systems/rnas/4FAW

>  <Rbt.Executable>
rbdock ($Id: //depot/dev/client3/rdock/2013.1/src/exe/rbdock.cxx#4 $)

>  <Rbt.Library>
libRbt.so (2013.1, Build901 2013/11/27)

>  <Rbt.Parameter_File>
/export/apps/rDock/src/rDock_2013.1_src/data/scripts/dock_solv.prm

>  <Rbt.Receptor>
prm/blind_docking_60.prm

>  <SCORE>
-7.18189

>  <SCORE.INTER>
0.266784

>  <SCORE.INTER.CONST>
1

>  <SCORE.INTER.POLAR>
0

>  <SCORE.INTER.ROT>
11

>  <SCORE.INTER.SOLV>
13.4832

>  <SCORE.INTER.VDW>
-15.2499

>  <SCORE.INTER.norm>
0.019056

>  <SCORE.INTRA>
-7.44867

>  <SCORE.INTRA.DIHEDRAL>
-13.4861

>  <SCORE.INTRA.DIHEDRAL.0>
19.1003

>  <SCORE.INTRA.POLAR>
0

>  <SCORE.INTRA.POLAR.0>
0

>  <SCORE.INTRA.REPUL>
0

>  <SCORE.INTRA.REPUL.0>
0

>  <SCORE.INTRA.SOLV>
0.64375

>  <SCORE.INTRA.SOLV.lig_0>
-47.5333

>  <SCORE.INTRA.VDW>
-1.0275

>  <SCORE.INTRA.VDW.0>
-0.287413

>  <SCORE.INTRA.norm>
-0.532048

>  <SCORE.RESTR>
0

>  <SCORE.RESTR.CAVITY>
0

>  <SCORE.RESTR.norm>
0

>  <SCORE.SYSTEM>
0

>  <SCORE.SYSTEM.CONST>
0

>  <SCORE.SYSTEM.DIHEDRAL>
0

>  <SCORE.SYSTEM.SOLV>
0

>  <SCORE.SYSTEM.norm>
0

>  <SCORE.heavy>
14

>  <SCORE.norm>
-0.512992

>  <RMSD>
57.819

$$$$
ligand
 OpenBabel11021811493D
libRbt.so/2013.1/901 2013/11/27
 14 13  0  0  0  0  0  0  0  0999 V2000
   16.9031    7.9247   34.8150 N   0  0  0  0  0  0  0  0  0  0  0  0
   15.8520    8.8058   34.3556 C   0  0  0  0  0  0  0  0  0  0  0  0
   15.8920   10.1107   35.1772 C   0  0  0  0  0  0  0  0  0  0  0  0
   14.7875   11.1138   34.8097 C   0  0  0  0  0  0  0  0  0  0  0  0
   14.8038   12.3843   35.5506 N   0  0  0  0  0  0  0  0  0  0  0  0
   14.0698   12.6037   36.7957 C   0  0  0  0  0  0  0  0  0  0  0  0
   14.5261   11.6879   37.9268 C   0  0  0  0  0  0  0  0  0  0  0  0
   13.9199   12.0452   39.2879 C   0  0  0  0  0  0  0  0  0  0  0  0
   12.3962   11.8750   39.3013 C   0  0  0  0  0  0  0  0  0  0  0  0
   11.8721   12.3088   40.5946 N   0  0  0  0  0  0  0  0  0  0  0  0
   11.9627   11.5269   41.8291 C   0  0  0  0  0  0  0  0  0  0  0  0
   10.6571   10.7939   42.1671 C   0  0  0  0  0  0  0  0  0  0  0  0
   10.7784   10.0111   43.4787 C   0  0  0  0  0  0  0  0  0  0  0  0
   10.9505   10.9460   44.5866 N   0  0  0  0  0  0  0  0  0  0  0  0
  1  2  1  0  0  0  0
  2  3  1  0  0  0  0
  3  4  1  0  0  0  0
  4  5  1  0  0  0  0
  5  6  1  0  0  0  0
  6  7  1  0  0  0  0
  7  8  1  0  0  0  0
  8  9  1  0  0  0  0
  9 10  1  0  0  0  0
 10 11  1  0  0  0  0
 11 12  1  0  0  0  0
 12 13  1  0  0  0  0
 13 14  1  0  0  0  0
M  END
>  <CHROM.1>
-178.12581850,-178.84230257,-91.08961084,62.14597460,171.28094445,63.85083273
-176.51095020,-76.46139618,-100.52099828,-178.78869663,65.79617153,13.52646419
11.00988610,38.61960904,-0.28121496,-1.02555743,2.68875843

>  <Name>
ligand

>  <RI>
0

>  <Rbt.Current_Directory>
/home/itssahil/PROJECTS/Mol_Feturizer/New_Systems/rnas/4FAW

>  <Rbt.Executable>
rbdock ($Id: //depot/dev/client3/rdock/2013.1/src/exe/rbdock.cxx#4 $)

>  <Rbt.Library>
libRbt.so (2013.1, Build901 2013/11/27)

>  <Rbt.Parameter_File>
/export/apps/rDock/src/rDock_2013.1_src/data/scripts/dock_solv.prm

>  <Rbt.Receptor>
prm/blind_docking_60.prm

>  <SCORE>
-8.65802

>  <SCORE.INTER>
-0.209246

>  <SCORE.INTER.CONST>
1

>  <SCORE.INTER.POLAR>
0

>  <SCORE.INTER.ROT>
11

>  <SCORE.INTER.SOLV>
9.45512

>  <SCORE.INTER.VDW>
-14.2245

>  <SCORE.INTER.norm>
-0.0149461

>  <SCORE.INTRA>
-8.44878

>  <SCORE.INTRA.DIHEDRAL>
-16.7983

>  <SCORE.INTRA.DIHEDRAL.0>
19.1003

>  <SCORE.INTRA.POLAR>
0

>  <SCORE.INTRA.POLAR.0>
0

>  <SCORE.INTRA.REPUL>
0

>  <SCORE.INTRA.REPUL.0>
0

>  <SCORE.INTRA.SOLV>
-0.53103

>  <SCORE.INTRA.SOLV.lig_0>
-47.5333

>  <SCORE.INTRA.VDW>
0.215871

>  <SCORE.INTRA.VDW.0>
-0.287413

>  <SCORE.INTRA.norm>
-0.603484

>  <SCORE.RESTR>
0

>  <SCORE.RESTR.CAVITY>
0

>  <SCORE.RESTR.norm>
0

>  <SCORE.SYSTEM>
0

>  <SCORE.SYSTEM.CONST>
0

>  <SCORE.SYSTEM.DIHEDRAL>
0

>  <SCORE.SYSTEM.SOLV>
0

>  <SCORE.SYSTEM.norm>
0

>  <SCORE.heavy>
14

>  <SCORE.norm>
-0.61843

>  <RMSD>
57.839

$$$$
ligand
 OpenBabel11021811493D
libRbt.so/2013.1/901 2013/11/27
 14 13  0  0  0  0  0  0  0  0999 V2000
    6.3881   24.4594   22.6713 N   0  0  0  0  0  0  0  0  0  0  0  0
    6.0219   23.5153   23.7041 C   0  0  0  0  0  0  0  0  0  0  0  0
    6.9424   23.7201   24.9248 C   0  0  0  0  0  0  0  0  0  0  0  0
    6.6043   22.8158   26.1202 C   0  0  0  0  0  0  0  0  0  0  0  0
    6.5832   21.3711   25.8447 N   0  0  0  0  0  0  0  0  0  0  0  0
    7.7757   20.5940   25.5115 C   0  0  0  0  0  0  0  0  0  0  0  0
    7.4763   19.3948   24.6178 C   0  0  0  0  0  0  0  0  0  0  0  0
    6.8998   19.7770   23.2507 C   0  0  0  0  0  0  0  0  0  0  0  0
    6.5369   18.5440   22.4147 C   0  0  0  0  0  0  0  0  0  0  0  0
    6.0337   18.9738   21.1117 N   0  0  0  0  0  0  0  0  0  0  0  0
    4.7332   19.6103   20.8953 C   0  0  0  0  0  0  0  0  0  0  0  0
    3.5980   18.5952   20.7021 C   0  0  0  0  0  0  0  0  0  0  0  0
    3.3695   17.7637   21.9686 C   0  0  0  0  0  0  0  0  0  0  0  0
    2.2545   16.8467   21.7512 N   0  0  0  0  0  0  0  0  0  0  0  0
  1  2  1  0  0  0  0
  2  3  1  0  0  0  0
  3  4  1  0  0  0  0
  4  5  1  0  0  0  0
  5  6  1  0  0  0  0
  6  7  1  0  0  0  0
  7  8  1  0  0  0  0
  8  9  1  0  0  0  0
  9 10  1  0  0  0  0
 10 11  1  0  0  0  0
 11 12  1  0  0  0  0
 12 13  1  0  0  0  0
 13 14  1  0  0  0  0
M  END
>  <CHROM.1>
177.16034696,55.65499191,67.67798875,-150.66566835,62.22431794,-176.68435682
-178.24323066,-71.57118745,-86.45085936,64.65355086,178.12288278,5.80145079
20.42723519,23.24935596,0.72534000,-0.92553790,-0.10909214

>  <Name>
ligand

>  <RI>
0

>  <Rbt.Current_Directory>
/home/itssahil/PROJECTS/Mol_Feturizer/New_Systems/rnas/4FAW

>  <Rbt.Executable>
rbdock ($Id: //depot/dev/client3/rdock/2013.1/src/exe/rbdock.cxx#4 $)

>  <Rbt.Library>
libRbt.so (2013.1, Build901 2013/11/27)

>  <Rbt.Parameter_File>
/export/apps/rDock/src/rDock_2013.1_src/data/scripts/dock_solv.prm

>  <Rbt.Receptor>
prm/blind_docking_40.prm

>  <SCORE>
-10.7016

>  <SCORE.INTER>
-0.899631

>  <SCORE.INTER.CONST>
1

>  <SCORE.INTER.POLAR>
0

>  <SCORE.INTER.ROT>
11

>  <SCORE.INTER.SOLV>
7.59489

>  <SCORE.INTER.VDW>
-14.0647

>  <SCORE.INTER.norm>
-0.0642593

>  <SCORE.INTRA>
-9.80196

>  <SCORE.INTRA.DIHEDRAL>
-17.6047

>  <SCORE.INTRA.DIHEDRAL.0>
19.1003

>  <SCORE.INTRA.POLAR>
0

>  <SCORE.INTRA.POLAR.0>
0

>  <SCORE.INTRA.REPUL>
0

>  <SCORE.INTRA.REPUL.0>
0

>  <SCORE.INTRA.SOLV>
-0.405047

>  <SCORE.INTRA.SOLV.lig_0>
-47.5333

>  <SCORE.INTRA.VDW>
-0.797092

>  <SCORE.INTRA.VDW.0>
-0.287413

>  <SCORE.INTRA.norm>
-0.70014

>  <SCORE.RESTR>
0

>  <SCORE.RESTR.CAVITY>
0

>  <SCORE.RESTR.norm>
0

>  <SCORE.SYSTEM>
0

>  <SCORE.SYSTEM.CONST>
0

>  <SCORE.SYSTEM.DIHEDRAL>
0

>  <SCORE.SYSTEM.SOLV>
0

>  <SCORE.SYSTEM.norm>
0

>  <SCORE.heavy>
14

>  <SCORE.norm>
-0.764399

>  <RMSD>
57.925

$$$$
ligand
 OpenBabel11021811493D
libRbt.so/2013.1/901 2013/11/27
 14 13  0  0  0  0  0  0  0  0999 V2000
    2.8161   15.0618   19.8703 N   0  0  0  0  0  0  0  0  0  0  0  0
    2.8739   16.5050   19.7929 C   0  0  0  0  0  0  0  0  0  0  0  0
    2.9834   17.0832   21.2188 C   0  0  0  0  0  0  0  0  0  0  0  0
    3.0382   18.6180   21.2675 C   0  0  0  0  0  0  0  0  0  0  0  0
    3.1365   19.2132   22.6090 N   0  0  0  0  0  0  0  0  0  0  0  0
    3.3906   20.6330   22.8470 C   0  0  0  0  0  0  0  0  0  0  0  0
    4.8062   21.0574   22.4699 C   0  0  0  0  0  0  0  0  0  0  0  0
    5.1599   22.4797   22.9167 C   0  0  0  0  0  0  0  0  0  0  0  0
    6.5756   22.8822   22.4867 C   0  0  0  0  0  0  0  0  0  0  0  0
    7.5416   21.9571   23.0754 N   0  0  0  0  0  0  0  0  0  0  0  0
    8.0621   22.0610   24.4398 C   0  0  0  0  0  0  0  0  0  0  0  0
    7.3854   21.0841   25.4114 C   0  0  0  0  0  0  0  0  0  0  0  0
    7.6648   19.6278   25.0256 C   0  0  0  0  0  0  0  0  0  0  0  0
    6.9570   18.7394   25.9428 N   0  0  0  0  0  0  0  0  0  0  0  0
  1  2  1  0  0  0  0
  2  3  1  0  0  0  0
  3  4  1  0  0  0  0
  4  5  1  0  0  0  0
  5  6  1  0  0  0  0
  6  7  1  0  0  0  0
  7  8  1  0  0  0  0
  8  9  1  0  0  0  0
  9 10  1  0  0  0  0
 10 11  1  0  0  0  0
 11 12  1  0  0  0  0
 12 13  1  0  0  0  0
 13 14  1  0  0  0  0
M  END
>  <CHROM.1>
-179.41032932,179.72186341,170.94211660,-69.59484445,-170.82110096,-178.45882903
-59.66865313,-82.47711447,101.15021090,63.78253675,-177.65808997,5.17084732
19.78634489,22.81239707,-2.56838244,-0.78933056,-0.16649223

>  <Name>
ligand

>  <RI>
0

>  <Rbt.Current_Directory>
/home/itssahil/PROJECTS/Mol_Feturizer/New_Systems/rnas/4FAW

>  <Rbt.Executable>
rbdock ($Id: //depot/dev/client3/rdock/2013.1/src/exe/rbdock.cxx#4 $)

>  <Rbt.Library>
libRbt.so (2013.1, Build901 2013/11/27)

>  <Rbt.Parameter_File>
/export/apps/rDock/src/rDock_2013.1_src/data/scripts/dock_solv.prm

>  <Rbt.Receptor>
prm/blind_docking_100.prm

>  <SCORE>
-6.99853

>  <SCORE.INTER>
2.88935

>  <SCORE.INTER.CONST>
1

>  <SCORE.INTER.POLAR>
0

>  <SCORE.INTER.ROT>
11

>  <SCORE.INTER.SOLV>
8.49489

>  <SCORE.INTER.VDW>
-11.8387

>  <SCORE.INTER.norm>
0.206382

>  <SCORE.INTRA>
-9.88788

>  <SCORE.INTRA.DIHEDRAL>
-17.2602

>  <SCORE.INTRA.DIHEDRAL.0>
19.1003

>  <SCORE.INTRA.POLAR>
0

>  <SCORE.INTRA.POLAR.0>
0

>  <SCORE.INTRA.REPUL>
0

>  <SCORE.INTRA.REPUL.0>
0

>  <SCORE.INTRA.SOLV>
-0.716675

>  <SCORE.INTRA.SOLV.lig_0>
-47.5333

>  <SCORE.INTRA.VDW>
-0.899449

>  <SCORE.INTRA.VDW.0>
-0.287413

>  <SCORE.INTRA.norm>
-0.706277

>  <SCORE.RESTR>
0

>  <SCORE.RESTR.CAVITY>
0

>  <SCORE.RESTR.norm>
0

>  <SCORE.SYSTEM>
0

>  <SCORE.SYSTEM.CONST>
0

>  <SCORE.SYSTEM.DIHEDRAL>
0

>  <SCORE.SYSTEM.SOLV>
0

>  <SCORE.SYSTEM.norm>
0

>  <SCORE.heavy>
14

>  <SCORE.norm>
-0.499895

>  <RMSD>
58.008

$$$$
ligand
 OpenBabel11021811493D
libRbt.so/2013.1/901 2013/11/27
 14 13  0  0  0  0  0  0  0  0999 V2000
    7.6577   22.5027   35.9653 N   0  0  0  0  0  0  0  0  0  0  0  0
    8.8844   22.8811   35.2988 C   0  0  0  0  0  0  0  0  0  0  0  0
    8.9186   22.2341   33.8988 C   0  0  0  0  0  0  0  0  0  0  0  0
    9.0228   20.7013   33.9220 C   0  0  0  0  0  0  0  0  0  0  0  0
    8.9332   20.0334   32.6145 N   0  0  0  0  0  0  0  0  0  0  0  0
    7.6846   19.8765   31.8706 C   0  0  0  0  0  0  0  0  0  0  0  0
    7.7131   18.7027   30.8971 C   0  0  0  0  0  0  0  0  0  0  0  0
    8.8443   18.7871   29.8672 C   0  0  0  0  0  0  0  0  0  0  0  0
    8.7303   17.6948   28.7972 C   0  0  0  0  0  0  0  0  0  0  0  0
    9.9248   17.7153   27.9554 N   0  0  0  0  0  0  0  0  0  0  0  0
   10.1313   16.8534   26.7902 C   0  0  0  0  0  0  0  0  0  0  0  0
   10.3451   15.3812   27.1686 C   0  0  0  0  0  0  0  0  0  0  0  0
   10.4716   14.4963   25.9242 C   0  0  0  0  0  0  0  0  0  0  0  0
   10.6169   13.1026   26.3336 N   0  0  0  0  0  0  0  0  0  0  0  0
  1  2  1  0  0  0  0
  2  3  1  0  0  0  0
  3  4  1  0  0  0  0
  4  5  1  0  0  0  0
  5  6  1  0  0  0  0
  6  7  1  0  0  0  0
  7  8  1  0  0  0  0
  8  9  1  0  0  0  0
  9 10  1  0  0  0  0
 10 11  1  0  0  0  0
 11 12  1  0  0  0  0
 12 13  1  0  0  0  0
 13 14  1  0  0  0  0
M  END
>  <CHROM.1>
-66.57157796,174.55789528,-74.58144474,-155.77965235,-57.64791505,-172.45258595
-172.49324278,-176.88255805,-69.91491903,176.50183229,-177.64266664,9.13413027
18.64030864,30.52160124,-2.33434511,1.31894908,-1.53422504

>  <Name>
ligand

>  <RI>
0

>  <Rbt.Current_Directory>
/home/itssahil/PROJECTS/Mol_Feturizer/New_Systems/rnas/4FAW

>  <Rbt.Executable>
rbdock ($Id: //depot/dev/client3/rdock/2013.1/src/exe/rbdock.cxx#4 $)

>  <Rbt.Library>
libRbt.so (2013.1, Build901 2013/11/27)

>  <Rbt.Parameter_File>
/export/apps/rDock/src/rDock_2013.1_src/data/scripts/dock_solv.prm

>  <Rbt.Receptor>
prm/blind_docking_60.prm

>  <SCORE>
-11.4832

>  <SCORE.INTER>
-1.927

>  <SCORE.INTER.CONST>
1

>  <SCORE.INTER.POLAR>
0

>  <SCORE.INTER.ROT>
11

>  <SCORE.INTER.SOLV>
11.8005

>  <SCORE.INTER.VDW>
-16.1515

>  <SCORE.INTER.norm>
-0.137643

>  <SCORE.INTRA>
-9.55622

>  <SCORE.INTRA.DIHEDRAL>
-17.6181

>  <SCORE.INTRA.DIHEDRAL.0>
19.1003

>  <SCORE.INTRA.POLAR>
0

>  <SCORE.INTRA.POLAR.0>
0

>  <SCORE.INTRA.REPUL>
0

>  <SCORE.INTRA.REPUL.0>
0

>  <SCORE.INTRA.SOLV>
-0.392785

>  <SCORE.INTRA.SOLV.lig_0>
-47.5333

>  <SCORE.INTRA.VDW>
-0.550764

>  <SCORE.INTRA.VDW.0>
-0.287413

>  <SCORE.INTRA.norm>
-0.682587

>  <SCORE.RESTR>
0

>  <SCORE.RESTR.CAVITY>
0

>  <SCORE.RESTR.norm>
0

>  <SCORE.SYSTEM>
0

>  <SCORE.SYSTEM.CONST>
0

>  <SCORE.SYSTEM.DIHEDRAL>
0

>  <SCORE.SYSTEM.SOLV>
0

>  <SCORE.SYSTEM.norm>
0

>  <SCORE.heavy>
14

>  <SCORE.norm>
-0.82023

>  <RMSD>
58.087

$$$$
ligand
 OpenBabel11021811493D
libRbt.so/2013.1/901 2013/11/27
 14 13  0  0  0  0  0  0  0  0999 V2000
    6.9461   20.5799   34.6269 N   0  0  0  0  0  0  0  0  0  0  0  0
    7.0100   20.5187   33.1831 C   0  0  0  0  0  0  0  0  0  0  0  0
    8.3438   19.8671   32.7639 C   0  0  0  0  0  0  0  0  0  0  0  0
    8.5338   19.7569   31.2431 C   0  0  0  0  0  0  0  0  0  0  0  0
    7.5344   18.9469   30.5298 N   0  0  0  0  0  0  0  0  0  0  0  0
    7.7338   18.4205   29.1807 C   0  0  0  0  0  0  0  0  0  0  0  0
    8.6398   17.1940   29.1463 C   0  0  0  0  0  0  0  0  0  0  0  0
    8.9239   16.6805   27.7311 C   0  0  0  0  0  0  0  0  0  0  0  0
    9.8089   17.6473   26.9355 C   0  0  0  0  0  0  0  0  0  0  0  0
    9.0112   18.7958   26.5109 N   0  0  0  0  0  0  0  0  0  0  0  0
    7.9593   18.7427   25.4940 C   0  0  0  0  0  0  0  0  0  0  0  0
    7.8512   20.0399   24.6805 C   0  0  0  0  0  0  0  0  0  0  0  0
    7.4490   21.2238   25.5661 C   0  0  0  0  0  0  0  0  0  0  0  0
    7.2746   22.4122   24.7362 N   0  0  0  0  0  0  0  0  0  0  0  0
  1  2  1  0  0  0  0
  2  3  1  0  0  0  0
  3  4  1  0  0  0  0
  4  5  1  0  0  0  0
  5  6  1  0  0  0  0
  6  7  1  0  0  0  0
  7  8  1  0  0  0  0
  8  9  1  0  0  0  0
  9 10  1  0  0  0  0
 10 11  1  0  0  0  0
 11 12  1  0  0  0  0
 12 13  1  0  0  0  0
 13 14  1  0  0  0  0
M  END
>  <CHROM.1>
-179.50912491,-60.90508073,-162.49991396,77.47076747,-176.62518833,69.12179615
-75.39742678,-70.13659361,-146.94287435,-63.51916540,-176.34055751,8.07300691
19.34439251,28.73757021,1.76155420,-1.17299617,1.72513911

>  <Name>
ligand

>  <RI>
0

>  <Rbt.Current_Directory>
/home/itssahil/PROJECTS/Mol_Feturizer/New_Systems/rnas/4FAW

>  <Rbt.Executable>
rbdock ($Id: //depot/dev/client3/rdock/2013.1/src/exe/rbdock.cxx#4 $)

>  <Rbt.Library>
libRbt.so (2013.1, Build901 2013/11/27)

>  <Rbt.Parameter_File>
/export/apps/rDock/src/rDock_2013.1_src/data/scripts/dock_solv.prm

>  <Rbt.Receptor>
prm/blind_docking_100.prm

>  <SCORE>
-9.32109

>  <SCORE.INTER>
-0.831419

>  <SCORE.INTER.CONST>
1

>  <SCORE.INTER.POLAR>
0

>  <SCORE.INTER.ROT>
11

>  <SCORE.INTER.SOLV>
10.9035

>  <SCORE.INTER.VDW>
-15.1221

>  <SCORE.INTER.norm>
-0.0593871

>  <SCORE.INTRA>
-8.48967

>  <SCORE.INTRA.DIHEDRAL>
-16.5173

>  <SCORE.INTRA.DIHEDRAL.0>
19.1003

>  <SCORE.INTRA.POLAR>
0

>  <SCORE.INTRA.POLAR.0>
0

>  <SCORE.INTRA.REPUL>
0

>  <SCORE.INTRA.REPUL.0>
0

>  <SCORE.INTRA.SOLV>
0.151397

>  <SCORE.INTRA.SOLV.lig_0>
-47.5333

>  <SCORE.INTRA.VDW>
-0.306708

>  <SCORE.INTRA.VDW.0>
-0.287413

>  <SCORE.INTRA.norm>
-0.606405

>  <SCORE.RESTR>
0

>  <SCORE.RESTR.CAVITY>
0

>  <SCORE.RESTR.norm>
0

>  <SCORE.SYSTEM>
0

>  <SCORE.SYSTEM.CONST>
0

>  <SCORE.SYSTEM.DIHEDRAL>
0

>  <SCORE.SYSTEM.SOLV>
0

>  <SCORE.SYSTEM.norm>
0

>  <SCORE.heavy>
14

>  <SCORE.norm>
-0.665792

>  <RMSD>
58.098

$$$$
ligand
 OpenBabel11021811493D
libRbt.so/2013.1/901 2013/11/27
 14 13  0  0  0  0  0  0  0  0999 V2000
    2.9169   17.4802   21.2293 N   0  0  0  0  0  0  0  0  0  0  0  0
    2.6591   18.7086   21.9482 C   0  0  0  0  0  0  0  0  0  0  0  0
    2.7425   18.4336   23.4638 C   0  0  0  0  0  0  0  0  0  0  0  0
    2.4191   19.6549   24.3384 C   0  0  0  0  0  0  0  0  0  0  0  0
    3.3471   20.7901   24.2217 N   0  0  0  0  0  0  0  0  0  0  0  0
    4.4977   20.9875   25.1016 C   0  0  0  0  0  0  0  0  0  0  0  0
    5.2733   22.2639   24.7927 C   0  0  0  0  0  0  0  0  0  0  0  0
    6.4771   22.4885   25.7135 C   0  0  0  0  0  0  0  0  0  0  0  0
    7.6547   21.5749   25.3535 C   0  0  0  0  0  0  0  0  0  0  0  0
    7.3489   20.2064   25.7652 N   0  0  0  0  0  0  0  0  0  0  0  0
    8.3391   19.1334   25.8727 C   0  0  0  0  0  0  0  0  0  0  0  0
    7.7071   17.7676   26.1750 C   0  0  0  0  0  0  0  0  0  0  0  0
    8.7748   16.6809   26.3382 C   0  0  0  0  0  0  0  0  0  0  0  0
    9.5775   16.9647   27.5241 N   0  0  0  0  0  0  0  0  0  0  0  0
  1  2  1  0  0  0  0
  2  3  1  0  0  0  0
  3  4  1  0  0  0  0
  4  5  1  0  0  0  0
  5  6  1  0  0  0  0
  6  7  1  0  0  0  0
  7  8  1  0  0  0  0
  8  9  1  0  0  0  0
  9 10  1  0  0  0  0
 10 11  1  0  0  0  0
 11 12  1  0  0  0  0
 12 13  1  0  0  0  0
 13 14  1  0  0  0  0
M  END
>  <CHROM.1>
-177.22499676,-64.17820717,-93.32238350,-178.30858932,179.62382073,75.63117850
-72.94399048,-164.98434153,-173.58424925,-177.63793619,65.76038665,5.69530159
19.50991643,24.84562054,3.11671446,-0.56285535,0.18509071

>  <Name>
ligand

>  <RI>
0

>  <Rbt.Current_Directory>
/home/itssahil/PROJECTS/Mol_Feturizer/New_Systems/rnas/4FAW

>  <Rbt.Executable>
rbdock ($Id: //depot/dev/client3/rdock/2013.1/src/exe/rbdock.cxx#4 $)

>  <Rbt.Library>
libRbt.so (2013.1, Build901 2013/11/27)

>  <Rbt.Parameter_File>
/export/apps/rDock/src/rDock_2013.1_src/data/scripts/dock_solv.prm

>  <Rbt.Receptor>
prm/blind_docking_40.prm

>  <SCORE>
-7.34477

>  <SCORE.INTER>
1.25747

>  <SCORE.INTER.CONST>
1

>  <SCORE.INTER.POLAR>
0

>  <SCORE.INTER.ROT>
11

>  <SCORE.INTER.SOLV>
8.38384

>  <SCORE.INTER.VDW>
-12.8896

>  <SCORE.INTER.norm>
0.0898195

>  <SCORE.INTRA>
-8.60224

>  <SCORE.INTRA.DIHEDRAL>
-16.3645

>  <SCORE.INTRA.DIHEDRAL.0>
19.1003

>  <SCORE.INTRA.POLAR>
0

>  <SCORE.INTRA.POLAR.0>
0

>  <SCORE.INTRA.REPUL>
0

>  <SCORE.INTRA.REPUL.0>
0

>  <SCORE.INTRA.SOLV>
0.558516

>  <SCORE.INTRA.SOLV.lig_0>
-47.5333

>  <SCORE.INTRA.VDW>
-0.699242

>  <SCORE.INTRA.VDW.0>
-0.287413

>  <SCORE.INTRA.norm>
-0.614446

>  <SCORE.RESTR>
0

>  <SCORE.RESTR.CAVITY>
0

>  <SCORE.RESTR.norm>
0

>  <SCORE.SYSTEM>
0

>  <SCORE.SYSTEM.CONST>
0

>  <SCORE.SYSTEM.DIHEDRAL>
0

>  <SCORE.SYSTEM.SOLV>
0

>  <SCORE.SYSTEM.norm>
0

>  <SCORE.heavy>
14

>  <SCORE.norm>
-0.524626

>  <RMSD>
58.243

$$$$
ligand
 OpenBabel11021811493D
libRbt.so/2013.1/901 2013/11/27
 14 13  0  0  0  0  0  0  0  0999 V2000
    7.0654   20.6419   35.9161 N   0  0  0  0  0  0  0  0  0  0  0  0
    6.2739   20.1784   34.7977 C   0  0  0  0  0  0  0  0  0  0  0  0
    6.6777   20.9642   33.5332 C   0  0  0  0  0  0  0  0  0  0  0  0
    8.0980   20.6566   33.0342 C   0  0  0  0  0  0  0  0  0  0  0  0
    8.3201   19.2905   32.5362 N   0  0  0  0  0  0  0  0  0  0  0  0
    7.7012   18.7622   31.3218 C   0  0  0  0  0  0  0  0  0  0  0  0
    8.2547   19.3913   30.0474 C   0  0  0  0  0  0  0  0  0  0  0  0
    7.6367   18.8249   28.7649 C   0  0  0  0  0  0  0  0  0  0  0  0
    8.1679   17.4235   28.4410 C   0  0  0  0  0  0  0  0  0  0  0  0
    9.5820   17.5126   28.0834 N   0  0  0  0  0  0  0  0  0  0  0  0
   10.2115   16.7544   27.0007 C   0  0  0  0  0  0  0  0  0  0  0  0
   10.0397   15.2371   27.1578 C   0  0  0  0  0  0  0  0  0  0  0  0
   10.6946   14.4770   25.9998 C   0  0  0  0  0  0  0  0  0  0  0  0
   10.4635   13.0454   26.1680 N   0  0  0  0  0  0  0  0  0  0  0  0
  1  2  1  0  0  0  0
  2  3  1  0  0  0  0
  3  4  1  0  0  0  0
  4  5  1  0  0  0  0
  5  6  1  0  0  0  0
  6  7  1  0  0  0  0
  7  8  1  0  0  0  0
  8  9  1  0  0  0  0
  9 10  1  0  0  0  0
 10 11  1  0  0  0  0
 11 12  1  0  0  0  0
 12 13  1  0  0  0  0
 13 14  1  0  0  0  0
M  END
>  <CHROM.1>
67.99499620,66.12667890,67.25254397,70.02549751,178.73824707,-74.63918559
-67.67836803,-139.44098986,-57.08317117,179.28989500,-177.96684784,8.51321745
18.08306386,30.19996415,-2.59652914,1.19281157,-1.20289672

>  <Name>
ligand

>  <RI>
0

>  <Rbt.Current_Directory>
/home/itssahil/PROJECTS/Mol_Feturizer/New_Systems/rnas/4FAW

>  <Rbt.Executable>
rbdock ($Id: //depot/dev/client3/rdock/2013.1/src/exe/rbdock.cxx#4 $)

>  <Rbt.Library>
libRbt.so (2013.1, Build901 2013/11/27)

>  <Rbt.Parameter_File>
/export/apps/rDock/src/rDock_2013.1_src/data/scripts/dock_solv.prm

>  <Rbt.Receptor>
prm/blind_docking_60.prm

>  <SCORE>
-7.5856

>  <SCORE.INTER>
0.334022

>  <SCORE.INTER.CONST>
1

>  <SCORE.INTER.POLAR>
0

>  <SCORE.INTER.ROT>
11

>  <SCORE.INTER.SOLV>
10.7067

>  <SCORE.INTER.VDW>
-14.2796

>  <SCORE.INTER.norm>
0.0238587

>  <SCORE.INTRA>
-7.91962

>  <SCORE.INTRA.DIHEDRAL>
-16.5762

>  <SCORE.INTRA.DIHEDRAL.0>
19.1003

>  <SCORE.INTRA.POLAR>
0

>  <SCORE.INTRA.POLAR.0>
0

>  <SCORE.INTRA.REPUL>
0

>  <SCORE.INTRA.REPUL.0>
0

>  <SCORE.INTRA.SOLV>
0.628201

>  <SCORE.INTRA.SOLV.lig_0>
-47.5333

>  <SCORE.INTRA.VDW>
0.0543988

>  <SCORE.INTRA.VDW.0>
-0.287413

>  <SCORE.INTRA.norm>
-0.565687

>  <SCORE.RESTR>
0

>  <SCORE.RESTR.CAVITY>
0

>  <SCORE.RESTR.norm>
0

>  <SCORE.SYSTEM>
0

>  <SCORE.SYSTEM.CONST>
0

>  <SCORE.SYSTEM.DIHEDRAL>
0

>  <SCORE.SYSTEM.SOLV>
0

>  <SCORE.SYSTEM.norm>
0

>  <SCORE.heavy>
14

>  <SCORE.norm>
-0.541828

>  <RMSD>
58.254

$$$$
ligand
 OpenBabel11021811493D
libRbt.so/2013.1/901 2013/11/27
 14 13  0  0  0  0  0  0  0  0999 V2000
    8.6794   18.2511   27.1279 N   0  0  0  0  0  0  0  0  0  0  0  0
    9.5972   17.2623   27.6496 C   0  0  0  0  0  0  0  0  0  0  0  0
   11.0161   17.5638   27.1249 C   0  0  0  0  0  0  0  0  0  0  0  0
   11.6665   18.8023   27.7605 C   0  0  0  0  0  0  0  0  0  0  0  0
   12.1765   18.6268   29.1290 N   0  0  0  0  0  0  0  0  0  0  0  0
   12.1047   19.6629   30.1577 C   0  0  0  0  0  0  0  0  0  0  0  0
   10.7589   19.7003   30.8744 C   0  0  0  0  0  0  0  0  0  0  0  0
   10.6769   20.7676   31.9706 C   0  0  0  0  0  0  0  0  0  0  0  0
    9.3507   20.7035   32.7375 C   0  0  0  0  0  0  0  0  0  0  0  0
    9.3691   21.6860   33.8191 N   0  0  0  0  0  0  0  0  0  0  0  0
    8.2989   21.8530   34.8041 C   0  0  0  0  0  0  0  0  0  0  0  0
    8.7549   22.6164   36.0554 C   0  0  0  0  0  0  0  0  0  0  0  0
    9.0179   24.0935   35.7447 C   0  0  0  0  0  0  0  0  0  0  0  0
    7.7725   24.7295   35.3253 N   0  0  0  0  0  0  0  0  0  0  0  0
  1  2  1  0  0  0  0
  2  3  1  0  0  0  0
  3  4  1  0  0  0  0
  4  5  1  0  0  0  0
  5  6  1  0  0  0  0
  6  7  1  0  0  0  0
  7  8  1  0  0  0  0
  8  9  1  0  0  0  0
  9 10  1  0  0  0  0
 10 11  1  0  0  0  0
 11 12  1  0  0  0  0
 12 13  1  0  0  0  0
 13 14  1  0  0  0  0
M  END
>  <CHROM.1>
72.04643684,76.09059758,-143.23073367,83.39792614,179.10216941,-175.66608532
176.44113186,-176.40805543,161.76760141,69.98448579,63.48888940,9.94590519
20.45120329,31.44865849,1.33840701,0.06164188,-2.15471039

>  <Name>
ligand

>  <RI>
0

>  <Rbt.Current_Directory>
/home/itssahil/PROJECTS/Mol_Feturizer/New_Systems/rnas/4FAW

>  <Rbt.Executable>
rbdock ($Id: //depot/dev/client3/rdock/2013.1/src/exe/rbdock.cxx#4 $)

>  <Rbt.Library>
libRbt.so (2013.1, Build901 2013/11/27)

>  <Rbt.Parameter_File>
/export/apps/rDock/src/rDock_2013.1_src/data/scripts/dock_solv.prm

>  <Rbt.Receptor>
prm/blind_docking_80.prm

>  <SCORE>
-12.4847

>  <SCORE.INTER>
-4.45444

>  <SCORE.INTER.CONST>
1

>  <SCORE.INTER.POLAR>
0

>  <SCORE.INTER.ROT>
11

>  <SCORE.INTER.SOLV>
18.9057

>  <SCORE.INTER.VDW>
-20.2049

>  <SCORE.INTER.norm>
-0.318174

>  <SCORE.INTRA>
-8.03028

>  <SCORE.INTRA.DIHEDRAL>
-15.6337

>  <SCORE.INTRA.DIHEDRAL.0>
19.1003

>  <SCORE.INTRA.POLAR>
0

>  <SCORE.INTRA.POLAR.0>
0

>  <SCORE.INTRA.REPUL>
0

>  <SCORE.INTRA.REPUL.0>
0

>  <SCORE.INTRA.SOLV>
1.51255

>  <SCORE.INTRA.SOLV.lig_0>
-47.5333

>  <SCORE.INTRA.VDW>
-0.969708

>  <SCORE.INTRA.VDW.0>
-0.287413

>  <SCORE.INTRA.norm>
-0.573591

>  <SCORE.RESTR>
0

>  <SCORE.RESTR.CAVITY>
0

>  <SCORE.RESTR.norm>
0

>  <SCORE.SYSTEM>
0

>  <SCORE.SYSTEM.CONST>
0

>  <SCORE.SYSTEM.DIHEDRAL>
0

>  <SCORE.SYSTEM.SOLV>
0

>  <SCORE.SYSTEM.norm>
0

>  <SCORE.heavy>
14

>  <SCORE.norm>
-0.891766

>  <RMSD>
58.465

$$$$
ligand
 OpenBabel11021811493D
libRbt.so/2013.1/901 2013/11/27
 14 13  0  0  0  0  0  0  0  0999 V2000
    3.6407   20.9824   23.4597 N   0  0  0  0  0  0  0  0  0  0  0  0
    4.1420   21.3419   24.7680 C   0  0  0  0  0  0  0  0  0  0  0  0
    3.2879   20.6428   25.8456 C   0  0  0  0  0  0  0  0  0  0  0  0
    3.4270   19.1126   25.8567 C   0  0  0  0  0  0  0  0  0  0  0  0
    4.7015   18.5891   26.3717 N   0  0  0  0  0  0  0  0  0  0  0  0
    5.9092   18.4576   25.5587 C   0  0  0  0  0  0  0  0  0  0  0  0
    6.8356   19.6644   25.6664 C   0  0  0  0  0  0  0  0  0  0  0  0
    8.1068   19.5396   24.8202 C   0  0  0  0  0  0  0  0  0  0  0  0
    8.9833   20.7944   24.9108 C   0  0  0  0  0  0  0  0  0  0  0  0
    8.2882   21.9167   24.2839 N   0  0  0  0  0  0  0  0  0  0  0  0
    7.3900   22.8326   24.9894 C   0  0  0  0  0  0  0  0  0  0  0  0
    7.0447   24.0808   24.1655 C   0  0  0  0  0  0  0  0  0  0  0  0
    8.3004   24.8874   23.8189 C   0  0  0  0  0  0  0  0  0  0  0  0
    7.9286   26.0299   22.9895 N   0  0  0  0  0  0  0  0  0  0  0  0
  1  2  1  0  0  0  0
  2  3  1  0  0  0  0
  3  4  1  0  0  0  0
  4  5  1  0  0  0  0
  5  6  1  0  0  0  0
  6  7  1  0  0  0  0
  7  8  1  0  0  0  0
  8  9  1  0  0  0  0
  9 10  1  0  0  0  0
 10 11  1  0  0  0  0
 11 12  1  0  0  0  0
 12 13  1  0  0  0  0
 13 14  1  0  0  0  0
M  END
>  <CHROM.1>
66.62118121,72.25522132,-83.84223606,93.95775781,179.93672037,177.68941205
-66.80951720,90.18078538,167.57263954,-60.37725545,177.60375886,6.28476484
21.34779357,24.82201071,2.15490492,-0.01122348,2.80357003

>  <Name>
ligand

>  <RI>
0

>  <Rbt.Current_Directory>
/home/itssahil/PROJECTS/Mol_Feturizer/New_Systems/rnas/4FAW

>  <Rbt.Executable>
rbdock ($Id: //depot/dev/client3/rdock/2013.1/src/exe/rbdock.cxx#4 $)

>  <Rbt.Library>
libRbt.so (2013.1, Build901 2013/11/27)

>  <Rbt.Parameter_File>
/export/apps/rDock/src/rDock_2013.1_src/data/scripts/dock_solv.prm

>  <Rbt.Receptor>
prm/blind_docking_40.prm

>  <SCORE>
-8.22326

>  <SCORE.INTER>
0.107821

>  <SCORE.INTER.CONST>
1

>  <SCORE.INTER.POLAR>
0

>  <SCORE.INTER.ROT>
11

>  <SCORE.INTER.SOLV>
9.26483

>  <SCORE.INTER.VDW>
-13.9497

>  <SCORE.INTER.norm>
0.00770149

>  <SCORE.INTRA>
-8.33108

>  <SCORE.INTRA.DIHEDRAL>
-16.3073

>  <SCORE.INTRA.DIHEDRAL.0>
19.1003

>  <SCORE.INTRA.POLAR>
0

>  <SCORE.INTRA.POLAR.0>
0

>  <SCORE.INTRA.REPUL>
0

>  <SCORE.INTRA.REPUL.0>
0

>  <SCORE.INTRA.SOLV>
2.05727

>  <SCORE.INTRA.SOLV.lig_0>
-47.5333

>  <SCORE.INTRA.VDW>
-1.20606

>  <SCORE.INTRA.VDW.0>
-0.287413

>  <SCORE.INTRA.norm>
-0.595077

>  <SCORE.RESTR>
0

>  <SCORE.RESTR.CAVITY>
0

>  <SCORE.RESTR.norm>
0

>  <SCORE.SYSTEM>
0

>  <SCORE.SYSTEM.CONST>
0

>  <SCORE.SYSTEM.DIHEDRAL>
0

>  <SCORE.SYSTEM.SOLV>
0

>  <SCORE.SYSTEM.norm>
0

>  <SCORE.heavy>
14

>  <SCORE.norm>
-0.587376

>  <RMSD>
58.491

$$$$
ligand
 OpenBabel11021811493D
libRbt.so/2013.1/901 2013/11/27
 14 13  0  0  0  0  0  0  0  0999 V2000
    9.1870   17.7921   26.7715 N   0  0  0  0  0  0  0  0  0  0  0  0
    9.9897   18.0913   27.9370 C   0  0  0  0  0  0  0  0  0  0  0  0
   11.4484   18.3325   27.4970 C   0  0  0  0  0  0  0  0  0  0  0  0
   12.4056   18.6503   28.6563 C   0  0  0  0  0  0  0  0  0  0  0  0
   12.1660   19.9227   29.3542 N   0  0  0  0  0  0  0  0  0  0  0  0
   12.1734   20.0605   30.8095 C   0  0  0  0  0  0  0  0  0  0  0  0
   10.8044   20.4122   31.3828 C   0  0  0  0  0  0  0  0  0  0  0  0
    9.7174   19.3850   31.0499 C   0  0  0  0  0  0  0  0  0  0  0  0
    8.3296   19.8469   31.5098 C   0  0  0  0  0  0  0  0  0  0  0  0
    8.3045   19.9253   32.9688 N   0  0  0  0  0  0  0  0  0  0  0  0
    7.0995   20.1677   33.7642 C   0  0  0  0  0  0  0  0  0  0  0  0
    6.5919   21.6119   33.6516 C   0  0  0  0  0  0  0  0  0  0  0  0
    5.2956   21.8127   34.4435 C   0  0  0  0  0  0  0  0  0  0  0  0
    5.5658   21.6369   35.8674 N   0  0  0  0  0  0  0  0  0  0  0  0
  1  2  1  0  0  0  0
  2  3  1  0  0  0  0
  3  4  1  0  0  0  0
  4  5  1  0  0  0  0
  5  6  1  0  0  0  0
  6  7  1  0  0  0  0
  7  8  1  0  0  0  0
  8  9  1  0  0  0  0
  9 10  1  0  0  0  0
 10 11  1  0  0  0  0
 11 12  1  0  0  0  0
 12 13  1  0  0  0  0
 13 14  1  0  0  0  0
M  END
>  <CHROM.1>
-179.53490367,-66.27695903,135.27762745,-113.64639949,58.55932857,-173.76257204
-65.34369900,-171.93601332,-71.87211137,177.37543197,65.28475484,9.22007798
19.83199760,31.11876900,0.92443830,-0.10703366,-2.05026819

>  <Name>
ligand

>  <RI>
0

>  <Rbt.Current_Directory>
/home/itssahil/PROJECTS/Mol_Feturizer/New_Systems/rnas/4FAW

>  <Rbt.Executable>
rbdock ($Id: //depot/dev/client3/rdock/2013.1/src/exe/rbdock.cxx#4 $)

>  <Rbt.Library>
libRbt.so (2013.1, Build901 2013/11/27)

>  <Rbt.Parameter_File>
/export/apps/rDock/src/rDock_2013.1_src/data/scripts/dock_solv.prm

>  <Rbt.Receptor>
prm/blind_docking_60.prm

>  <SCORE>
-14.0773

>  <SCORE.INTER>
-5.23515

>  <SCORE.INTER.CONST>
1

>  <SCORE.INTER.POLAR>
0

>  <SCORE.INTER.ROT>
11

>  <SCORE.INTER.SOLV>
16.2727

>  <SCORE.INTER.VDW>
-19.8477

>  <SCORE.INTER.norm>
-0.373939

>  <SCORE.INTRA>
-8.8421

>  <SCORE.INTRA.DIHEDRAL>
-16.1938

>  <SCORE.INTRA.DIHEDRAL.0>
19.1003

>  <SCORE.INTRA.POLAR>
0

>  <SCORE.INTRA.POLAR.0>
0

>  <SCORE.INTRA.REPUL>
0

>  <SCORE.INTRA.REPUL.0>
0

>  <SCORE.INTRA.SOLV>
0.448778

>  <SCORE.INTRA.SOLV.lig_0>
-47.5333

>  <SCORE.INTRA.VDW>
-0.969613

>  <SCORE.INTRA.VDW.0>
-0.287413

>  <SCORE.INTRA.norm>
-0.631579

>  <SCORE.RESTR>
0

>  <SCORE.RESTR.CAVITY>
0

>  <SCORE.RESTR.norm>
0

>  <SCORE.SYSTEM>
0

>  <SCORE.SYSTEM.CONST>
0

>  <SCORE.SYSTEM.DIHEDRAL>
0

>  <SCORE.SYSTEM.SOLV>
0

>  <SCORE.SYSTEM.norm>
0

>  <SCORE.heavy>
14

>  <SCORE.norm>
-1.00552

>  <RMSD>
58.668

$$$$
ligand
 OpenBabel11021811493D
libRbt.so/2013.1/901 2013/11/27
 14 13  0  0  0  0  0  0  0  0999 V2000
    4.7509   20.8568   34.7753 N   0  0  0  0  0  0  0  0  0  0  0  0
    5.9850   20.1023   34.7693 C   0  0  0  0  0  0  0  0  0  0  0  0
    6.6024   20.1556   33.3567 C   0  0  0  0  0  0  0  0  0  0  0  0
    7.9655   19.4553   33.2445 C   0  0  0  0  0  0  0  0  0  0  0  0
    8.5779   19.4560   31.9071 N   0  0  0  0  0  0  0  0  0  0  0  0
    7.9090   18.9463   30.7114 C   0  0  0  0  0  0  0  0  0  0  0  0
    8.8777   18.3589   29.6901 C   0  0  0  0  0  0  0  0  0  0  0  0
    8.1920   17.8379   28.4229 C   0  0  0  0  0  0  0  0  0  0  0  0
    7.2795   16.6406   28.7138 C   0  0  0  0  0  0  0  0  0  0  0  0
    8.0947   15.4987   29.1225 N   0  0  0  0  0  0  0  0  0  0  0  0
    9.0289   14.7918   28.2444 C   0  0  0  0  0  0  0  0  0  0  0  0
    9.5932   13.5138   28.8803 C   0  0  0  0  0  0  0  0  0  0  0  0
    8.5314   12.4120   28.9586 C   0  0  0  0  0  0  0  0  0  0  0  0
    8.2852   11.8807   27.6212 N   0  0  0  0  0  0  0  0  0  0  0  0
  1  2  1  0  0  0  0
  2  3  1  0  0  0  0
  3  4  1  0  0  0  0
  4  5  1  0  0  0  0
  5  6  1  0  0  0  0
  6  7  1  0  0  0  0
  7  8  1  0  0  0  0
  8  9  1  0  0  0  0
  9 10  1  0  0  0  0
 10 11  1  0  0  0  0
 11 12  1  0  0  0  0
 12 13  1  0  0  0  0
 13 14  1  0  0  0  0
M  END
>  <CHROM.1>
176.60662847,178.70637386,-55.19795914,-148.90852832,-179.21086226,-65.33443627
-67.16223325,-67.02006585,-171.65914780,71.84618741,72.80117516,7.83398576
17.13627829,30.60119064,2.09120097,1.04348322,0.22196360

>  <Name>
ligand

>  <RI>
0

>  <Rbt.Current_Directory>
/home/itssahil/PROJECTS/Mol_Feturizer/New_Systems/rnas/4FAW

>  <Rbt.Executable>
rbdock ($Id: //depot/dev/client3/rdock/2013.1/src/exe/rbdock.cxx#4 $)

>  <Rbt.Library>
libRbt.so (2013.1, Build901 2013/11/27)

>  <Rbt.Parameter_File>
/export/apps/rDock/src/rDock_2013.1_src/data/scripts/dock_solv.prm

>  <Rbt.Receptor>
prm/blind_docking_60.prm

>  <SCORE>
-6.85128

>  <SCORE.INTER>
1.09098

>  <SCORE.INTER.CONST>
1

>  <SCORE.INTER.POLAR>
0

>  <SCORE.INTER.ROT>
11

>  <SCORE.INTER.SOLV>
8.43424

>  <SCORE.INTER.VDW>
-13.0174

>  <SCORE.INTER.norm>
0.0779274

>  <SCORE.INTRA>
-7.94226

>  <SCORE.INTRA.DIHEDRAL>
-16.877

>  <SCORE.INTRA.DIHEDRAL.0>
19.1003

>  <SCORE.INTRA.POLAR>
0

>  <SCORE.INTRA.POLAR.0>
0

>  <SCORE.INTRA.REPUL>
0

>  <SCORE.INTRA.REPUL.0>
0

>  <SCORE.INTRA.SOLV>
0.57014

>  <SCORE.INTRA.SOLV.lig_0>
-47.5333

>  <SCORE.INTRA.VDW>
0.211189

>  <SCORE.INTRA.VDW.0>
-0.287413

>  <SCORE.INTRA.norm>
-0.567304

>  <SCORE.RESTR>
0

>  <SCORE.RESTR.CAVITY>
0

>  <SCORE.RESTR.norm>
0

>  <SCORE.SYSTEM>
0

>  <SCORE.SYSTEM.CONST>
0

>  <SCORE.SYSTEM.DIHEDRAL>
0

>  <SCORE.SYSTEM.SOLV>
0

>  <SCORE.SYSTEM.norm>
0

>  <SCORE.heavy>
14

>  <SCORE.norm>
-0.489377

>  <RMSD>
58.743

$$$$
ligand
 OpenBabel11021811493D
libRbt.so/2013.1/901 2013/11/27
 14 13  0  0  0  0  0  0  0  0999 V2000
   10.4786   13.2533   26.0419 N   0  0  0  0  0  0  0  0  0  0  0  0
   10.3647   14.6652   25.7489 C   0  0  0  0  0  0  0  0  0  0  0  0
   10.4385   15.4622   27.0675 C   0  0  0  0  0  0  0  0  0  0  0  0
   10.3443   16.9847   26.8828 C   0  0  0  0  0  0  0  0  0  0  0  0
   10.3694   17.7825   28.1182 N   0  0  0  0  0  0  0  0  0  0  0  0
    9.1732   18.1166   28.8893 C   0  0  0  0  0  0  0  0  0  0  0  0
    9.4889   18.8140   30.2086 C   0  0  0  0  0  0  0  0  0  0  0  0
    8.2529   19.3829   30.9130 C   0  0  0  0  0  0  0  0  0  0  0  0
    8.6144   20.0978   32.2203 C   0  0  0  0  0  0  0  0  0  0  0  0
    7.4209   20.7401   32.7668 N   0  0  0  0  0  0  0  0  0  0  0  0
    6.3185   20.0255   33.4130 C   0  0  0  0  0  0  0  0  0  0  0  0
    5.0775   20.9052   33.6184 C   0  0  0  0  0  0  0  0  0  0  0  0
    3.9404   20.1222   34.2830 C   0  0  0  0  0  0  0  0  0  0  0  0
    2.7790   20.9930   34.4384 N   0  0  0  0  0  0  0  0  0  0  0  0
  1  2  1  0  0  0  0
  2  3  1  0  0  0  0
  3  4  1  0  0  0  0
  4  5  1  0  0  0  0
  5  6  1  0  0  0  0
  6  7  1  0  0  0  0
  7  8  1  0  0  0  0
  8  9  1  0  0  0  0
  9 10  1  0  0  0  0
 10 11  1  0  0  0  0
 11 12  1  0  0  0  0
 12 13  1  0  0  0  0
 13 14  1  0  0  0  0
M  END
>  <CHROM.1>
179.33296310,178.21238332,-87.88663617,173.37871790,170.12078071,-178.93210883
173.89203621,73.88514192,-167.73369655,179.41283952,-179.15406814,8.07593880
18.38188039,30.32929693,0.96344265,-0.40213218,-2.47037119

>  <Name>
ligand

>  <RI>
0

>  <Rbt.Current_Directory>
/home/itssahil/PROJECTS/Mol_Feturizer/New_Systems/rnas/4FAW

>  <Rbt.Executable>
rbdock ($Id: //depot/dev/client3/rdock/2013.1/src/exe/rbdock.cxx#4 $)

>  <Rbt.Library>
libRbt.so (2013.1, Build901 2013/11/27)

>  <Rbt.Parameter_File>
/export/apps/rDock/src/rDock_2013.1_src/data/scripts/dock_solv.prm

>  <Rbt.Receptor>
prm/blind_docking_60.prm

>  <SCORE>
-11.5752

>  <SCORE.INTER>
-1.24329

>  <SCORE.INTER.CONST>
1

>  <SCORE.INTER.POLAR>
0

>  <SCORE.INTER.ROT>
11

>  <SCORE.INTER.SOLV>
15.0157

>  <SCORE.INTER.VDW>
-16.7674

>  <SCORE.INTER.norm>
-0.0888065

>  <SCORE.INTRA>
-10.3319

>  <SCORE.INTRA.DIHEDRAL>
-17.736

>  <SCORE.INTRA.DIHEDRAL.0>
19.1003

>  <SCORE.INTRA.POLAR>
0

>  <SCORE.INTRA.POLAR.0>
0

>  <SCORE.INTRA.REPUL>
0

>  <SCORE.INTRA.REPUL.0>
0

>  <SCORE.INTRA.SOLV>
-1.50521

>  <SCORE.INTRA.SOLV.lig_0>
-47.5333

>  <SCORE.INTRA.VDW>
-0.711304

>  <SCORE.INTRA.VDW.0>
-0.287413

>  <SCORE.INTRA.norm>
-0.737995

>  <SCORE.RESTR>
0

>  <SCORE.RESTR.CAVITY>
0

>  <SCORE.RESTR.norm>
0

>  <SCORE.SYSTEM>
0

>  <SCORE.SYSTEM.CONST>
0

>  <SCORE.SYSTEM.DIHEDRAL>
0

>  <SCORE.SYSTEM.SOLV>
0

>  <SCORE.SYSTEM.norm>
0

>  <SCORE.heavy>
14

>  <SCORE.norm>
-0.826801

>  <RMSD>
58.758

$$$$
ligand
 OpenBabel11021811493D
libRbt.so/2013.1/901 2013/11/27
 14 13  0  0  0  0  0  0  0  0999 V2000
    4.0425   18.6752   21.1251 N   0  0  0  0  0  0  0  0  0  0  0  0
    3.1129   19.1470   22.1278 C   0  0  0  0  0  0  0  0  0  0  0  0
    3.4234   18.4536   23.4703 C   0  0  0  0  0  0  0  0  0  0  0  0
    2.4734   18.8490   24.6115 C   0  0  0  0  0  0  0  0  0  0  0  0
    2.4883   20.2692   24.9942 N   0  0  0  0  0  0  0  0  0  0  0  0
    3.5437   20.8778   25.8021 C   0  0  0  0  0  0  0  0  0  0  0  0
    4.7114   21.3941   24.9678 C   0  0  0  0  0  0  0  0  0  0  0  0
    5.8854   21.9083   25.8073 C   0  0  0  0  0  0  0  0  0  0  0  0
    7.0796   22.3167   24.9366 C   0  0  0  0  0  0  0  0  0  0  0  0
    6.7542   23.5444   24.2138 N   0  0  0  0  0  0  0  0  0  0  0  0
    7.7423   24.4162   23.5758 C   0  0  0  0  0  0  0  0  0  0  0  0
    8.7613   24.9894   24.5705 C   0  0  0  0  0  0  0  0  0  0  0  0
    9.7467   25.9369   23.8784 C   0  0  0  0  0  0  0  0  0  0  0  0
   10.5478   25.1848   22.9172 N   0  0  0  0  0  0  0  0  0  0  0  0
  1  2  1  0  0  0  0
  2  3  1  0  0  0  0
  3  4  1  0  0  0  0
  4  5  1  0  0  0  0
  5  6  1  0  0  0  0
  6  7  1  0  0  0  0
  7  8  1  0  0  0  0
  8  9  1  0  0  0  0
  9 10  1  0  0  0  0
 10 11  1  0  0  0  0
 11 12  1  0  0  0  0
 12 13  1  0  0  0  0
 13 14  1  0  0  0  0
M  END
>  <CHROM.1>
-178.50272054,-62.30407889,-76.92464634,88.18983759,-174.27944387,175.57978813
71.05848326,163.05361504,-60.51886987,-177.87378259,-64.65869102,5.73654939
21.85443176,24.07162847,-2.80830873,0.69936232,1.11256433

>  <Name>
ligand

>  <RI>
0

>  <Rbt.Current_Directory>
/home/itssahil/PROJECTS/Mol_Feturizer/New_Systems/rnas/4FAW

>  <Rbt.Executable>
rbdock ($Id: //depot/dev/client3/rdock/2013.1/src/exe/rbdock.cxx#4 $)

>  <Rbt.Library>
libRbt.so (2013.1, Build901 2013/11/27)

>  <Rbt.Parameter_File>
/export/apps/rDock/src/rDock_2013.1_src/data/scripts/dock_solv.prm

>  <Rbt.Receptor>
prm/blind_docking_40.prm

>  <SCORE>
-6.43753

>  <SCORE.INTER>
2.84388

>  <SCORE.INTER.CONST>
1

>  <SCORE.INTER.POLAR>
0

>  <SCORE.INTER.ROT>
11

>  <SCORE.INTER.SOLV>
7.20967

>  <SCORE.INTER.VDW>
-11.4406

>  <SCORE.INTER.norm>
0.203135

>  <SCORE.INTRA>
-9.28141

>  <SCORE.INTRA.DIHEDRAL>
-17.3335

>  <SCORE.INTRA.DIHEDRAL.0>
19.1003

>  <SCORE.INTRA.POLAR>
0

>  <SCORE.INTRA.POLAR.0>
0

>  <SCORE.INTRA.REPUL>
0

>  <SCORE.INTRA.REPUL.0>
0

>  <SCORE.INTRA.SOLV>
-0.0558173

>  <SCORE.INTRA.SOLV.lig_0>
-47.5333

>  <SCORE.INTRA.VDW>
-0.586735

>  <SCORE.INTRA.VDW.0>
-0.287413

>  <SCORE.INTRA.norm>
-0.662958

>  <SCORE.RESTR>
0

>  <SCORE.RESTR.CAVITY>
0

>  <SCORE.RESTR.norm>
0

>  <SCORE.SYSTEM>
0

>  <SCORE.SYSTEM.CONST>
0

>  <SCORE.SYSTEM.DIHEDRAL>
0

>  <SCORE.SYSTEM.SOLV>
0

>  <SCORE.SYSTEM.norm>
0

>  <SCORE.heavy>
14

>  <SCORE.norm>
-0.459823

>  <RMSD>
58.787

$$$$
ligand
 OpenBabel11021811493D
libRbt.so/2013.1/901 2013/11/27
 14 13  0  0  0  0  0  0  0  0999 V2000
    7.3183   19.1889   32.6833 N   0  0  0  0  0  0  0  0  0  0  0  0
    7.6344   18.6087   33.9701 C   0  0  0  0  0  0  0  0  0  0  0  0
    8.0327   19.7340   34.9471 C   0  0  0  0  0  0  0  0  0  0  0  0
    8.4590   19.2330   36.3358 C   0  0  0  0  0  0  0  0  0  0  0  0
    9.7497   18.5300   36.3946 N   0  0  0  0  0  0  0  0  0  0  0  0
   10.1181   17.6041   37.4642 C   0  0  0  0  0  0  0  0  0  0  0  0
   11.6265   17.4785   37.6517 C   0  0  0  0  0  0  0  0  0  0  0  0
   12.0319   16.3933   38.6546 C   0  0  0  0  0  0  0  0  0  0  0  0
   11.7204   14.9849   38.1349 C   0  0  0  0  0  0  0  0  0  0  0  0
   12.5079   14.7280   36.9310 N   0  0  0  0  0  0  0  0  0  0  0  0
   12.2449   13.6411   35.9860 C   0  0  0  0  0  0  0  0  0  0  0  0
   13.4722   12.7509   35.7456 C   0  0  0  0  0  0  0  0  0  0  0  0
   14.5687   13.5035   34.9848 C   0  0  0  0  0  0  0  0  0  0  0  0
   15.7208   12.6258   34.8016 N   0  0  0  0  0  0  0  0  0  0  0  0
  1  2  1  0  0  0  0
  2  3  1  0  0  0  0
  3  4  1  0  0  0  0
  4  5  1  0  0  0  0
  5  6  1  0  0  0  0
  6  7  1  0  0  0  0
  7  8  1  0  0  0  0
  8  9  1  0  0  0  0
  9 10  1  0  0  0  0
 10 11  1  0  0  0  0
 11 12  1  0  0  0  0
 12 13  1  0  0  0  0
 13 14  1  0  0  0  0
M  END
>  <CHROM.1>
-177.16744683,70.57306129,-158.29731804,-155.14452624,-173.27094331,68.07830428
63.05332133,-164.50492860,-125.58909207,-68.50587666,178.99810027,11.08601471
16.35750919,36.04928885,3.07595992,-0.78078157,1.29854829

>  <Name>
ligand

>  <RI>
0

>  <Rbt.Current_Directory>
/home/itssahil/PROJECTS/Mol_Feturizer/New_Systems/rnas/4FAW

>  <Rbt.Executable>
rbdock ($Id: //depot/dev/client3/rdock/2013.1/src/exe/rbdock.cxx#4 $)

>  <Rbt.Library>
libRbt.so (2013.1, Build901 2013/11/27)

>  <Rbt.Parameter_File>
/export/apps/rDock/src/rDock_2013.1_src/data/scripts/dock_solv.prm

>  <Rbt.Receptor>
prm/blind_docking_100.prm

>  <SCORE>
-12.3813

>  <SCORE.INTER>
-3.76856

>  <SCORE.INTER.CONST>
1

>  <SCORE.INTER.POLAR>
0

>  <SCORE.INTER.ROT>
11

>  <SCORE.INTER.SOLV>
19.8063

>  <SCORE.INTER.VDW>
-20.0478

>  <SCORE.INTER.norm>
-0.269183

>  <SCORE.INTRA>
-8.61272

>  <SCORE.INTRA.DIHEDRAL>
-15.7612

>  <SCORE.INTRA.DIHEDRAL.0>
19.1003

>  <SCORE.INTRA.POLAR>
0

>  <SCORE.INTRA.POLAR.0>
0

>  <SCORE.INTRA.REPUL>
0

>  <SCORE.INTRA.REPUL.0>
0

>  <SCORE.INTRA.SOLV>
-0.204943

>  <SCORE.INTRA.SOLV.lig_0>
-47.5333

>  <SCORE.INTRA.VDW>
-0.629654

>  <SCORE.INTRA.VDW.0>
-0.287413

>  <SCORE.INTRA.norm>
-0.615194

>  <SCORE.RESTR>
0

>  <SCORE.RESTR.CAVITY>
0

>  <SCORE.RESTR.norm>
0

>  <SCORE.SYSTEM>
0

>  <SCORE.SYSTEM.CONST>
0

>  <SCORE.SYSTEM.DIHEDRAL>
0

>  <SCORE.SYSTEM.SOLV>
0

>  <SCORE.SYSTEM.norm>
0

>  <SCORE.heavy>
14

>  <SCORE.norm>
-0.884377

>  <RMSD>
58.890

$$$$
ligand
 OpenBabel11021811493D
libRbt.so/2013.1/901 2013/11/27
 14 13  0  0  0  0  0  0  0  0999 V2000
   10.3257   26.1389   23.5388 N   0  0  0  0  0  0  0  0  0  0  0  0
    8.9839   26.4038   23.0681 C   0  0  0  0  0  0  0  0  0  0  0  0
    7.9794   25.6240   23.9413 C   0  0  0  0  0  0  0  0  0  0  0  0
    8.1086   24.0970   23.8290 C   0  0  0  0  0  0  0  0  0  0  0  0
    7.1375   23.3131   24.6075 N   0  0  0  0  0  0  0  0  0  0  0  0
    7.1144   21.8517   24.6346 C   0  0  0  0  0  0  0  0  0  0  0  0
    5.9788   21.2883   25.4827 C   0  0  0  0  0  0  0  0  0  0  0  0
    4.5848   21.6214   24.9410 C   0  0  0  0  0  0  0  0  0  0  0  0
    3.4720   21.0331   25.8165 C   0  0  0  0  0  0  0  0  0  0  0  0
    3.5694   19.5750   25.8081 N   0  0  0  0  0  0  0  0  0  0  0  0
    3.2428   18.7301   24.6579 C   0  0  0  0  0  0  0  0  0  0  0  0
    3.4384   17.2345   24.9429 C   0  0  0  0  0  0  0  0  0  0  0  0
    3.1857   16.3886   23.6906 C   0  0  0  0  0  0  0  0  0  0  0  0
    1.7968   16.5485   23.2703 N   0  0  0  0  0  0  0  0  0  0  0  0
  1  2  1  0  0  0  0
  2  3  1  0  0  0  0
  3  4  1  0  0  0  0
  4  5  1  0  0  0  0
  5  6  1  0  0  0  0
  6  7  1  0  0  0  0
  7  8  1  0  0  0  0
  8  9  1  0  0  0  0
  9 10  1  0  0  0  0
 10 11  1  0  0  0  0
 11 12  1  0  0  0  0
 12 13  1  0  0  0  0
 13 14  1  0  0  0  0
M  END
>  <CHROM.1>
-64.68481532,-177.85638053,-179.40531170,-178.07573404,64.25162553,179.74879887
-62.80505799,-71.06561480,-179.90620165,-175.89504088,-62.72405489,5.63698966
21.41772555,24.44501255,-0.63980744,-0.72197633,-2.50355035

>  <Name>
ligand

>  <RI>
0

>  <Rbt.Current_Directory>
/home/itssahil/PROJECTS/Mol_Feturizer/New_Systems/rnas/4FAW

>  <Rbt.Executable>
rbdock ($Id: //depot/dev/client3/rdock/2013.1/src/exe/rbdock.cxx#4 $)

>  <Rbt.Library>
libRbt.so (2013.1, Build901 2013/11/27)

>  <Rbt.Parameter_File>
/export/apps/rDock/src/rDock_2013.1_src/data/scripts/dock_solv.prm

>  <Rbt.Receptor>
prm/blind_docking_40.prm

>  <SCORE>
-5.53358

>  <SCORE.INTER>
3.80006

>  <SCORE.INTER.CONST>
1

>  <SCORE.INTER.POLAR>
0

>  <SCORE.INTER.ROT>
11

>  <SCORE.INTER.SOLV>
3.41501

>  <SCORE.INTER.VDW>
-9.5383

>  <SCORE.INTER.norm>
0.271433

>  <SCORE.INTRA>
-9.33364

>  <SCORE.INTRA.DIHEDRAL>
-18.7095

>  <SCORE.INTRA.DIHEDRAL.0>
19.1003

>  <SCORE.INTRA.POLAR>
0

>  <SCORE.INTRA.POLAR.0>
0

>  <SCORE.INTRA.REPUL>
0

>  <SCORE.INTRA.REPUL.0>
0

>  <SCORE.INTRA.SOLV>
0.770048

>  <SCORE.INTRA.SOLV.lig_0>
-47.5333

>  <SCORE.INTRA.VDW>
-0.363935

>  <SCORE.INTRA.VDW.0>
-0.287413

>  <SCORE.INTRA.norm>
-0.666689

>  <SCORE.RESTR>
0

>  <SCORE.RESTR.CAVITY>
0

>  <SCORE.RESTR.norm>
0

>  <SCORE.SYSTEM>
0

>  <SCORE.SYSTEM.CONST>
0

>  <SCORE.SYSTEM.DIHEDRAL>
0

>  <SCORE.SYSTEM.SOLV>
0

>  <SCORE.SYSTEM.norm>
0

>  <SCORE.heavy>
14

>  <SCORE.norm>
-0.395256

>  <RMSD>
58.944

$$$$
ligand
 OpenBabel11021811493D
libRbt.so/2013.1/901 2013/11/27
 14 13  0  0  0  0  0  0  0  0999 V2000
   11.1184   25.1377   22.7188 N   0  0  0  0  0  0  0  0  0  0  0  0
   10.3386   24.9166   23.9167 C   0  0  0  0  0  0  0  0  0  0  0  0
    8.8687   24.6639   23.5228 C   0  0  0  0  0  0  0  0  0  0  0  0
    7.9400   24.3943   24.7169 C   0  0  0  0  0  0  0  0  0  0  0  0
    6.5568   24.0230   24.3815 N   0  0  0  0  0  0  0  0  0  0  0  0
    5.9566   22.7376   24.7341 C   0  0  0  0  0  0  0  0  0  0  0  0
    4.8328   22.3243   23.7893 C   0  0  0  0  0  0  0  0  0  0  0  0
    4.2658   20.9314   24.0824 C   0  0  0  0  0  0  0  0  0  0  0  0
    3.4754   20.8971   25.3958 C   0  0  0  0  0  0  0  0  0  0  0  0
    3.0811   19.5205   25.6875 N   0  0  0  0  0  0  0  0  0  0  0  0
    2.4002   18.6359   24.7402 C   0  0  0  0  0  0  0  0  0  0  0  0
    1.0598   19.2035   24.2529 C   0  0  0  0  0  0  0  0  0  0  0  0
    0.3148   18.1980   23.3689 C   0  0  0  0  0  0  0  0  0  0  0  0
    1.0953   17.9428   22.1618 N   0  0  0  0  0  0  0  0  0  0  0  0
  1  2  1  0  0  0  0
  2  3  1  0  0  0  0
  3  4  1  0  0  0  0
  4  5  1  0  0  0  0
  5  6  1  0  0  0  0
  6  7  1  0  0  0  0
  7  8  1  0  0  0  0
  8  9  1  0  0  0  0
  9 10  1  0  0  0  0
 10 11  1  0  0  0  0
 11 12  1  0  0  0  0
 12 13  1  0  0  0  0
 13 14  1  0  0  0  0
M  END
>  <CHROM.1>
179.17084203,-174.44842711,117.73428975,-153.48496348,175.62568969,69.68343735
-174.18193187,-51.13821526,-58.64792940,-174.65855610,-63.62344813,5.09301473
21.68047225,24.10511844,-0.16318091,-0.63049686,-1.87671637

>  <Name>
ligand

>  <RI>
0

>  <Rbt.Current_Directory>
/home/itssahil/PROJECTS/Mol_Feturizer/New_Systems/rnas/4FAW

>  <Rbt.Executable>
rbdock ($Id: //depot/dev/client3/rdock/2013.1/src/exe/rbdock.cxx#4 $)

>  <Rbt.Library>
libRbt.so (2013.1, Build901 2013/11/27)

>  <Rbt.Parameter_File>
/export/apps/rDock/src/rDock_2013.1_src/data/scripts/dock_solv.prm

>  <Rbt.Receptor>
prm/blind_docking_40.prm

>  <SCORE>
-6.89074

>  <SCORE.INTER>
0.984319

>  <SCORE.INTER.CONST>
1

>  <SCORE.INTER.POLAR>
0

>  <SCORE.INTER.ROT>
11

>  <SCORE.INTER.SOLV>
8.75795

>  <SCORE.INTER.VDW>
-13.1964

>  <SCORE.INTER.norm>
0.0703085

>  <SCORE.INTRA>
-7.87505

>  <SCORE.INTRA.DIHEDRAL>
-16.4892

>  <SCORE.INTRA.DIHEDRAL.0>
19.1003

>  <SCORE.INTRA.POLAR>
0

>  <SCORE.INTRA.POLAR.0>
0

>  <SCORE.INTRA.REPUL>
0

>  <SCORE.INTRA.REPUL.0>
0

>  <SCORE.INTRA.SOLV>
-0.549059

>  <SCORE.INTRA.SOLV.lig_0>
-47.5333

>  <SCORE.INTRA.VDW>
0.644081

>  <SCORE.INTRA.VDW.0>
-0.287413

>  <SCORE.INTRA.norm>
-0.562504

>  <SCORE.RESTR>
0

>  <SCORE.RESTR.CAVITY>
0

>  <SCORE.RESTR.norm>
0

>  <SCORE.SYSTEM>
0

>  <SCORE.SYSTEM.CONST>
0

>  <SCORE.SYSTEM.DIHEDRAL>
0

>  <SCORE.SYSTEM.SOLV>
0

>  <SCORE.SYSTEM.norm>
0

>  <SCORE.heavy>
14

>  <SCORE.norm>
-0.492195

>  <RMSD>
59.297

$$$$
ligand
 OpenBabel11021811493D
libRbt.so/2013.1/901 2013/11/27
 14 13  0  0  0  0  0  0  0  0999 V2000
    6.6424   26.2596   22.0110 N   0  0  0  0  0  0  0  0  0  0  0  0
    6.6441   25.3310   23.1200 C   0  0  0  0  0  0  0  0  0  0  0  0
    7.9695   24.5417   23.1155 C   0  0  0  0  0  0  0  0  0  0  0  0
    8.0935   23.5237   24.2598 C   0  0  0  0  0  0  0  0  0  0  0  0
    7.1147   22.4258   24.2492 N   0  0  0  0  0  0  0  0  0  0  0  0
    5.8059   22.5031   24.8958 C   0  0  0  0  0  0  0  0  0  0  0  0
    5.0582   21.1738   24.8908 C   0  0  0  0  0  0  0  0  0  0  0  0
    3.7274   21.2154   25.6490 C   0  0  0  0  0  0  0  0  0  0  0  0
    3.0609   19.8363   25.7168 C   0  0  0  0  0  0  0  0  0  0  0  0
    2.5993   19.4557   24.3835 N   0  0  0  0  0  0  0  0  0  0  0  0
    1.9046   18.2047   24.0737 C   0  0  0  0  0  0  0  0  0  0  0  0
    1.2383   18.2201   22.6909 C   0  0  0  0  0  0  0  0  0  0  0  0
    2.2730   18.3856   21.5731 C   0  0  0  0  0  0  0  0  0  0  0  0
    3.0936   17.1810   21.4903 N   0  0  0  0  0  0  0  0  0  0  0  0
  1  2  1  0  0  0  0
  2  3  1  0  0  0  0
  3  4  1  0  0  0  0
  4  5  1  0  0  0  0
  5  6  1  0  0  0  0
  6  7  1  0  0  0  0
  7  8  1  0  0  0  0
  8  9  1  0  0  0  0
  9 10  1  0  0  0  0
 10 11  1  0  0  0  0
 11 12  1  0  0  0  0
 12 13  1  0  0  0  0
 13 14  1  0  0  0  0
M  END
>  <CHROM.1>
179.61589727,63.53204751,-88.56323339,-172.64197858,176.03296266,-175.45160960
-69.35696858,-179.42357872,165.81165533,62.20914707,68.46955824,4.65886931
21.30410082,23.72310982,-0.00256931,-0.89731439,-1.53336133

>  <Name>
ligand

>  <RI>
0

>  <Rbt.Current_Directory>
/home/itssahil/PROJECTS/Mol_Feturizer/New_Systems/rnas/4FAW

>  <Rbt.Executable>
rbdock ($Id: //depot/dev/client3/rdock/2013.1/src/exe/rbdock.cxx#4 $)

>  <Rbt.Library>
libRbt.so (2013.1, Build901 2013/11/27)

>  <Rbt.Parameter_File>
/export/apps/rDock/src/rDock_2013.1_src/data/scripts/dock_solv.prm

>  <Rbt.Receptor>
prm/blind_docking_40.prm

>  <SCORE>
-6.91032

>  <SCORE.INTER>
2.33324

>  <SCORE.INTER.CONST>
1

>  <SCORE.INTER.POLAR>
0

>  <SCORE.INTER.ROT>
11

>  <SCORE.INTER.SOLV>
4.65798

>  <SCORE.INTER.VDW>
-10.9305

>  <SCORE.INTER.norm>
0.16666

>  <SCORE.INTRA>
-9.24356

>  <SCORE.INTRA.DIHEDRAL>
-17.5397

>  <SCORE.INTRA.DIHEDRAL.0>
19.1003

>  <SCORE.INTRA.POLAR>
0

>  <SCORE.INTRA.POLAR.0>
0

>  <SCORE.INTRA.REPUL>
0

>  <SCORE.INTRA.REPUL.0>
0

>  <SCORE.INTRA.SOLV>
0.843745

>  <SCORE.INTRA.SOLV.lig_0>
-47.5333

>  <SCORE.INTRA.VDW>
-0.895592

>  <SCORE.INTRA.VDW.0>
-0.287413

>  <SCORE.INTRA.norm>
-0.660254

>  <SCORE.RESTR>
0

>  <SCORE.RESTR.CAVITY>
0

>  <SCORE.RESTR.norm>
0

>  <SCORE.SYSTEM>
0

>  <SCORE.SYSTEM.CONST>
0

>  <SCORE.SYSTEM.DIHEDRAL>
0

>  <SCORE.SYSTEM.SOLV>
0

>  <SCORE.SYSTEM.norm>
0

>  <SCORE.heavy>
14

>  <SCORE.norm>
-0.493594

>  <RMSD>
59.401

$$$$
ligand
 OpenBabel11021811493D
libRbt.so/2013.1/901 2013/11/27
 14 13  0  0  0  0  0  0  0  0999 V2000
    9.9518   15.4823   27.0614 N   0  0  0  0  0  0  0  0  0  0  0  0
   10.5808   16.7793   26.9421 C   0  0  0  0  0  0  0  0  0  0  0  0
    9.4885   17.8584   26.7934 C   0  0  0  0  0  0  0  0  0  0  0  0
    8.5722   17.9921   28.0196 C   0  0  0  0  0  0  0  0  0  0  0  0
    9.2068   18.5143   29.2395 N   0  0  0  0  0  0  0  0  0  0  0  0
    8.4631   18.8876   30.4414 C   0  0  0  0  0  0  0  0  0  0  0  0
    9.2460   19.8170   31.3632 C   0  0  0  0  0  0  0  0  0  0  0  0
    8.4771   20.2195   32.6258 C   0  0  0  0  0  0  0  0  0  0  0  0
    9.2661   21.2123   33.4875 C   0  0  0  0  0  0  0  0  0  0  0  0
    8.5042   21.5153   34.6972 N   0  0  0  0  0  0  0  0  0  0  0  0
    8.0107   22.8470   35.0530 C   0  0  0  0  0  0  0  0  0  0  0  0
    9.1007   23.7451   35.6545 C   0  0  0  0  0  0  0  0  0  0  0  0
    8.5118   25.0495   36.2016 C   0  0  0  0  0  0  0  0  0  0  0  0
    7.6305   24.7490   37.3260 N   0  0  0  0  0  0  0  0  0  0  0  0
  1  2  1  0  0  0  0
  2  3  1  0  0  0  0
  3  4  1  0  0  0  0
  4  5  1  0  0  0  0
  5  6  1  0  0  0  0
  6  7  1  0  0  0  0
  7  8  1  0  0  0  0
  8  9  1  0  0  0  0
  9 10  1  0  0  0  0
 10 11  1  0  0  0  0
 11 12  1  0  0  0  0
 12 13  1  0  0  0  0
 13 14  1  0  0  0  0
M  END
>  <CHROM.1>
63.88531808,67.56126812,171.04673919,-160.46017039,179.85849899,-176.90007891
-177.82255146,-117.95686787,-79.08361912,-171.68921521,65.19742856,8.92934035
20.33358085,31.77889875,1.11377086,-1.30105821,-2.68272496

>  <Name>
ligand

>  <RI>
0

>  <Rbt.Current_Directory>
/home/itssahil/PROJECTS/Mol_Feturizer/New_Systems/rnas/4FAW

>  <Rbt.Executable>
rbdock ($Id: //depot/dev/client3/rdock/2013.1/src/exe/rbdock.cxx#4 $)

>  <Rbt.Library>
libRbt.so (2013.1, Build901 2013/11/27)

>  <Rbt.Parameter_File>
/export/apps/rDock/src/rDock_2013.1_src/data/scripts/dock_solv.prm

>  <Rbt.Receptor>
prm/blind_docking_60.prm

>  <SCORE>
-12.5074

>  <SCORE.INTER>
-4.00915

>  <SCORE.INTER.CONST>
1

>  <SCORE.INTER.POLAR>
0

>  <SCORE.INTER.ROT>
11

>  <SCORE.INTER.SOLV>
14.4082

>  <SCORE.INTER.VDW>
-18.4088

>  <SCORE.INTER.norm>
-0.286368

>  <SCORE.INTRA>
-8.49825

>  <SCORE.INTRA.DIHEDRAL>
-16.5886

>  <SCORE.INTRA.DIHEDRAL.0>
19.1003

>  <SCORE.INTRA.POLAR>
0

>  <SCORE.INTRA.POLAR.0>
0

>  <SCORE.INTRA.REPUL>
0

>  <SCORE.INTRA.REPUL.0>
0

>  <SCORE.INTRA.SOLV>
0.916403

>  <SCORE.INTRA.SOLV.lig_0>
-47.5333

>  <SCORE.INTRA.VDW>
-0.662138

>  <SCORE.INTRA.VDW.0>
-0.287413

>  <SCORE.INTRA.norm>
-0.607018

>  <SCORE.RESTR>
0

>  <SCORE.RESTR.CAVITY>
0

>  <SCORE.RESTR.norm>
0

>  <SCORE.SYSTEM>
0

>  <SCORE.SYSTEM.CONST>
0

>  <SCORE.SYSTEM.DIHEDRAL>
0

>  <SCORE.SYSTEM.SOLV>
0

>  <SCORE.SYSTEM.norm>
0

>  <SCORE.heavy>
14

>  <SCORE.norm>
-0.893386

>  <RMSD>
59.415

$$$$
ligand
 OpenBabel11021811493D
libRbt.so/2013.1/901 2013/11/27
 14 13  0  0  0  0  0  0  0  0999 V2000
    0.8595   16.8932   23.2246 N   0  0  0  0  0  0  0  0  0  0  0  0
    0.4385   17.7603   24.3030 C   0  0  0  0  0  0  0  0  0  0  0  0
    0.7111   19.2263   23.9080 C   0  0  0  0  0  0  0  0  0  0  0  0
    2.2024   19.5662   23.7613 C   0  0  0  0  0  0  0  0  0  0  0  0
    2.9931   19.5275   25.0010 N   0  0  0  0  0  0  0  0  0  0  0  0
    3.3000   20.7114   25.8016 C   0  0  0  0  0  0  0  0  0  0  0  0
    4.5717   21.4231   25.3517 C   0  0  0  0  0  0  0  0  0  0  0  0
    4.4840   21.9993   23.9347 C   0  0  0  0  0  0  0  0  0  0  0  0
    5.8166   22.6030   23.4760 C   0  0  0  0  0  0  0  0  0  0  0  0
    5.6907   23.0598   22.0935 N   0  0  0  0  0  0  0  0  0  0  0  0
    6.7545   22.9698   21.0917 C   0  0  0  0  0  0  0  0  0  0  0  0
    6.6615   24.0685   20.0238 C   0  0  0  0  0  0  0  0  0  0  0  0
    7.8001   23.9559   19.0046 C   0  0  0  0  0  0  0  0  0  0  0  0
    7.7172   25.0668   18.0611 N   0  0  0  0  0  0  0  0  0  0  0  0
  1  2  1  0  0  0  0
  2  3  1  0  0  0  0
  3  4  1  0  0  0  0
  4  5  1  0  0  0  0
  5  6  1  0  0  0  0
  6  7  1  0  0  0  0
  7  8  1  0  0  0  0
  8  9  1  0  0  0  0
  9 10  1  0  0  0  0
 10 11  1  0  0  0  0
 11 12  1  0  0  0  0
 12 13  1  0  0  0  0
 13 14  1  0  0  0  0
M  END
>  <CHROM.1>
-65.79686975,-66.89692223,-96.87785007,-87.82130617,63.92199122,-175.26147866
176.57498447,-143.40517240,-151.44084613,179.19455399,-176.52158084,4.28575295
21.34516443,22.78860549,2.64095680,0.77926969,1.52582559

>  <Name>
ligand

>  <RI>
0

>  <Rbt.Current_Directory>
/home/itssahil/PROJECTS/Mol_Feturizer/New_Systems/rnas/4FAW

>  <Rbt.Executable>
rbdock ($Id: //depot/dev/client3/rdock/2013.1/src/exe/rbdock.cxx#4 $)

>  <Rbt.Library>
libRbt.so (2013.1, Build901 2013/11/27)

>  <Rbt.Parameter_File>
/export/apps/rDock/src/rDock_2013.1_src/data/scripts/dock_solv.prm

>  <Rbt.Receptor>
prm/blind_docking_40.prm

>  <SCORE>
-10.0664

>  <SCORE.INTER>
-1.52907

>  <SCORE.INTER.CONST>
1

>  <SCORE.INTER.POLAR>
0

>  <SCORE.INTER.ROT>
11

>  <SCORE.INTER.SOLV>
8.85473

>  <SCORE.INTER.VDW>
-14.9043

>  <SCORE.INTER.norm>
-0.109219

>  <SCORE.INTRA>
-8.54417

>  <SCORE.INTRA.DIHEDRAL>
-15.8511

>  <SCORE.INTRA.DIHEDRAL.0>
19.1003

>  <SCORE.INTRA.POLAR>
0

>  <SCORE.INTRA.POLAR.0>
0

>  <SCORE.INTRA.REPUL>
0

>  <SCORE.INTRA.REPUL.0>
0

>  <SCORE.INTRA.SOLV>
0.39612

>  <SCORE.INTRA.SOLV.lig_0>
-47.5333

>  <SCORE.INTRA.VDW>
-0.816682

>  <SCORE.INTRA.VDW.0>
-0.287413

>  <SCORE.INTRA.norm>
-0.610298

>  <SCORE.RESTR>
0.00680435

>  <SCORE.RESTR.CAVITY>
0.00680435

>  <SCORE.RESTR.norm>
0.000486025

>  <SCORE.SYSTEM>
0

>  <SCORE.SYSTEM.CONST>
0

>  <SCORE.SYSTEM.DIHEDRAL>
0

>  <SCORE.SYSTEM.SOLV>
0

>  <SCORE.SYSTEM.norm>
0

>  <SCORE.heavy>
14

>  <SCORE.norm>
-0.719031

>  <RMSD>
59.426

$$$$
ligand
 OpenBabel11021811493D
libRbt.so/2013.1/901 2013/11/27
 14 13  0  0  0  0  0  0  0  0999 V2000
    9.5979   24.9680   37.7908 N   0  0  0  0  0  0  0  0  0  0  0  0
    9.2762   25.0469   36.3828 C   0  0  0  0  0  0  0  0  0  0  0  0
    7.9627   24.2816   36.1214 C   0  0  0  0  0  0  0  0  0  0  0  0
    7.5658   24.2113   34.6386 C   0  0  0  0  0  0  0  0  0  0  0  0
    6.3490   23.4418   34.3370 N   0  0  0  0  0  0  0  0  0  0  0  0
    6.1942   22.0210   34.6439 C   0  0  0  0  0  0  0  0  0  0  0  0
    6.8010   21.1110   33.5809 C   0  0  0  0  0  0  0  0  0  0  0  0
    8.3233   21.2369   33.4617 C   0  0  0  0  0  0  0  0  0  0  0  0
    8.8897   20.3391   32.3553 C   0  0  0  0  0  0  0  0  0  0  0  0
   10.3330   20.5457   32.2558 N   0  0  0  0  0  0  0  0  0  0  0  0
   11.1281   20.2700   31.0577 C   0  0  0  0  0  0  0  0  0  0  0  0
   12.6305   20.1596   31.3523 C   0  0  0  0  0  0  0  0  0  0  0  0
   13.4407   19.9733   30.0653 C   0  0  0  0  0  0  0  0  0  0  0  0
   14.8605   19.8890   30.3947 N   0  0  0  0  0  0  0  0  0  0  0  0
  1  2  1  0  0  0  0
  2  3  1  0  0  0  0
  3  4  1  0  0  0  0
  4  5  1  0  0  0  0
  5  6  1  0  0  0  0
  6  7  1  0  0  0  0
  7  8  1  0  0  0  0
  8  9  1  0  0  0  0
  9 10  1  0  0  0  0
 10 11  1  0  0  0  0
 11 12  1  0  0  0  0
 12 13  1  0  0  0  0
 13 14  1  0  0  0  0
M  END
>  <CHROM.1>
-175.99389678,177.51537376,-60.29930536,-83.21305046,64.86267231,-178.26755346
177.67553524,-156.57554949,-162.25919743,-175.84173806,179.35951519,9.52486685
21.96384419,33.45977757,-2.26577066,-0.11323138,-2.33204049

>  <Name>
ligand

>  <RI>
0

>  <Rbt.Current_Directory>
/home/itssahil/PROJECTS/Mol_Feturizer/New_Systems/rnas/4FAW

>  <Rbt.Executable>
rbdock ($Id: //depot/dev/client3/rdock/2013.1/src/exe/rbdock.cxx#4 $)

>  <Rbt.Library>
libRbt.so (2013.1, Build901 2013/11/27)

>  <Rbt.Parameter_File>
/export/apps/rDock/src/rDock_2013.1_src/data/scripts/dock_solv.prm

>  <Rbt.Receptor>
prm/blind_docking_80.prm

>  <SCORE>
-16.4268

>  <SCORE.INTER>
-6.28081

>  <SCORE.INTER.CONST>
1

>  <SCORE.INTER.POLAR>
0

>  <SCORE.INTER.ROT>
11

>  <SCORE.INTER.SOLV>
24.2319

>  <SCORE.INTER.VDW>
-23.1978

>  <SCORE.INTER.norm>
-0.448629

>  <SCORE.INTRA>
-10.146

>  <SCORE.INTRA.DIHEDRAL>
-17.7983

>  <SCORE.INTRA.DIHEDRAL.0>
19.1003

>  <SCORE.INTRA.POLAR>
0

>  <SCORE.INTRA.POLAR.0>
0

>  <SCORE.INTRA.REPUL>
0

>  <SCORE.INTRA.REPUL.0>
0

>  <SCORE.INTRA.SOLV>
-1.13315

>  <SCORE.INTRA.SOLV.lig_0>
-47.5333

>  <SCORE.INTRA.VDW>
-0.680276

>  <SCORE.INTRA.VDW.0>
-0.287413

>  <SCORE.INTRA.norm>
-0.724713

>  <SCORE.RESTR>
0

>  <SCORE.RESTR.CAVITY>
0

>  <SCORE.RESTR.norm>
0

>  <SCORE.SYSTEM>
0

>  <SCORE.SYSTEM.CONST>
0

>  <SCORE.SYSTEM.DIHEDRAL>
0

>  <SCORE.SYSTEM.SOLV>
0

>  <SCORE.SYSTEM.norm>
0

>  <SCORE.heavy>
14

>  <SCORE.norm>
-1.17334

>  <RMSD>
60.365

$$$$
ligand
 OpenBabel11021811493D
libRbt.so/2013.1/901 2013/11/27
 14 13  0  0  0  0  0  0  0  0999 V2000
   10.3294   25.3141   37.3754 N   0  0  0  0  0  0  0  0  0  0  0  0
    9.5084   24.1792   37.0150 C   0  0  0  0  0  0  0  0  0  0  0  0
    8.4968   24.6109   35.9334 C   0  0  0  0  0  0  0  0  0  0  0  0
    7.5102   23.5060   35.5250 C   0  0  0  0  0  0  0  0  0  0  0  0
    8.1127   22.2718   34.9984 N   0  0  0  0  0  0  0  0  0  0  0  0
    9.1275   22.2526   33.9464 C   0  0  0  0  0  0  0  0  0  0  0  0
    9.2182   20.9097   33.2289 C   0  0  0  0  0  0  0  0  0  0  0  0
   10.3355   20.8473   32.1824 C   0  0  0  0  0  0  0  0  0  0  0  0
   10.2235   19.6018   31.2953 C   0  0  0  0  0  0  0  0  0  0  0  0
    8.9861   19.6688   30.5208 N   0  0  0  0  0  0  0  0  0  0  0  0
    7.8376   18.7823   30.7168 C   0  0  0  0  0  0  0  0  0  0  0  0
    7.6756   17.7581   29.5851 C   0  0  0  0  0  0  0  0  0  0  0  0
    6.4396   16.8783   29.7993 C   0  0  0  0  0  0  0  0  0  0  0  0
    6.3192   15.9342   28.6923 N   0  0  0  0  0  0  0  0  0  0  0  0
  1  2  1  0  0  0  0
  2  3  1  0  0  0  0
  3  4  1  0  0  0  0
  4  5  1  0  0  0  0
  5  6  1  0  0  0  0
  6  7  1  0  0  0  0
  7  8  1  0  0  0  0
  8  9  1  0  0  0  0
  9 10  1  0  0  0  0
 10 11  1  0  0  0  0
 11 12  1  0  0  0  0
 12 13  1  0  0  0  0
 13 14  1  0  0  0  0
M  END
>  <CHROM.1>
-176.65852428,-58.54193370,-49.62616798,-158.85298614,-176.45195671,-168.66612418
64.13764732,-111.43757865,-107.61473634,-178.14309211,179.30513880,8.58007920
20.89398521,32.91532587,-1.38301981,-0.22355755,-2.32237748

>  <Name>
ligand

>  <RI>
0

>  <Rbt.Current_Directory>
/home/itssahil/PROJECTS/Mol_Feturizer/New_Systems/rnas/4FAW

>  <Rbt.Executable>
rbdock ($Id: //depot/dev/client3/rdock/2013.1/src/exe/rbdock.cxx#4 $)

>  <Rbt.Library>
libRbt.so (2013.1, Build901 2013/11/27)

>  <Rbt.Parameter_File>
/export/apps/rDock/src/rDock_2013.1_src/data/scripts/dock_solv.prm

>  <Rbt.Receptor>
prm/blind_docking_80.prm

>  <SCORE>
-12.1602

>  <SCORE.INTER>
-3.33628

>  <SCORE.INTER.CONST>
1

>  <SCORE.INTER.POLAR>
0

>  <SCORE.INTER.ROT>
11

>  <SCORE.INTER.SOLV>
14.4787

>  <SCORE.INTER.VDW>
-17.9838

>  <SCORE.INTER.norm>
-0.238306

>  <SCORE.INTRA>
-8.82393

>  <SCORE.INTRA.DIHEDRAL>
-15.7631

>  <SCORE.INTRA.DIHEDRAL.0>
19.1003

>  <SCORE.INTRA.POLAR>
0

>  <SCORE.INTRA.POLAR.0>
0

>  <SCORE.INTRA.REPUL>
0

>  <SCORE.INTRA.REPUL.0>
0

>  <SCORE.INTRA.SOLV>
-0.720857

>  <SCORE.INTRA.SOLV.lig_0>
-47.5333

>  <SCORE.INTRA.VDW>
-0.581943

>  <SCORE.INTRA.VDW.0>
-0.287413

>  <SCORE.INTRA.norm>
-0.63028

>  <SCORE.RESTR>
0

>  <SCORE.RESTR.CAVITY>
0

>  <SCORE.RESTR.norm>
0

>  <SCORE.SYSTEM>
0

>  <SCORE.SYSTEM.CONST>
0

>  <SCORE.SYSTEM.DIHEDRAL>
0

>  <SCORE.SYSTEM.SOLV>
0

>  <SCORE.SYSTEM.norm>
0

>  <SCORE.heavy>
14

>  <SCORE.norm>
-0.868586

>  <RMSD>
60.414

$$$$
ligand
 OpenBabel11021811493D
libRbt.so/2013.1/901 2013/11/27
 14 13  0  0  0  0  0  0  0  0999 V2000
    8.1264   12.6283   43.6073 N   0  0  0  0  0  0  0  0  0  0  0  0
    9.1029   12.1169   42.6708 C   0  0  0  0  0  0  0  0  0  0  0  0
    9.9256   11.0060   43.3553 C   0  0  0  0  0  0  0  0  0  0  0  0
   11.0830   10.4689   42.4992 C   0  0  0  0  0  0  0  0  0  0  0  0
   12.1056   11.4537   42.1143 N   0  0  0  0  0  0  0  0  0  0  0  0
   13.3595   11.1001   41.4514 C   0  0  0  0  0  0  0  0  0  0  0  0
   13.6645   11.9793   40.2430 C   0  0  0  0  0  0  0  0  0  0  0  0
   14.0498   13.4159   40.6109 C   0  0  0  0  0  0  0  0  0  0  0  0
   12.8465   14.2236   41.1116 C   0  0  0  0  0  0  0  0  0  0  0  0
   11.8178   14.2530   40.0741 N   0  0  0  0  0  0  0  0  0  0  0  0
   11.8657   15.1053   38.8846 C   0  0  0  0  0  0  0  0  0  0  0  0
   11.5492   16.5755   39.1922 C   0  0  0  0  0  0  0  0  0  0  0  0
   11.5601   17.4282   37.9192 C   0  0  0  0  0  0  0  0  0  0  0  0
   10.4557   17.0223   37.0549 N   0  0  0  0  0  0  0  0  0  0  0  0
  1  2  1  0  0  0  0
  2  3  1  0  0  0  0
  3  4  1  0  0  0  0
  4  5  1  0  0  0  0
  5  6  1  0  0  0  0
  6  7  1  0  0  0  0
  7  8  1  0  0  0  0
  8  9  1  0  0  0  0
  9 10  1  0  0  0  0
 10 11  1  0  0  0  0
 11 12  1  0  0  0  0
 12 13  1  0  0  0  0
 13 14  1  0  0  0  0
M  END
>  <CHROM.1>
-174.80693868,60.55012773,171.90842878,132.28458916,70.83990569,-72.02019825
-58.82648199,-77.25648936,-74.96448903,-178.00325926,66.51230413,11.53695659
13.48392784,40.77065173,1.71051518,-0.33062235,2.47642796

>  <Name>
ligand

>  <RI>
0

>  <Rbt.Current_Directory>
/home/itssahil/PROJECTS/Mol_Feturizer/New_Systems/rnas/4FAW

>  <Rbt.Executable>
rbdock ($Id: //depot/dev/client3/rdock/2013.1/src/exe/rbdock.cxx#4 $)

>  <Rbt.Library>
libRbt.so (2013.1, Build901 2013/11/27)

>  <Rbt.Parameter_File>
/export/apps/rDock/src/rDock_2013.1_src/data/scripts/dock_solv.prm

>  <Rbt.Receptor>
prm/blind_docking_80.prm

>  <SCORE>
-7.38576

>  <SCORE.INTER>
0.331299

>  <SCORE.INTER.CONST>
1

>  <SCORE.INTER.POLAR>
0

>  <SCORE.INTER.ROT>
11

>  <SCORE.INTER.SOLV>
11.6736

>  <SCORE.INTER.VDW>
-14.6037

>  <SCORE.INTER.norm>
0.0236642

>  <SCORE.INTRA>
-7.71706

>  <SCORE.INTRA.DIHEDRAL>
-16.2627

>  <SCORE.INTRA.DIHEDRAL.0>
19.1003

>  <SCORE.INTRA.POLAR>
0

>  <SCORE.INTRA.POLAR.0>
0

>  <SCORE.INTRA.REPUL>
0

>  <SCORE.INTRA.REPUL.0>
0

>  <SCORE.INTRA.SOLV>
1.76317

>  <SCORE.INTRA.SOLV.lig_0>
-47.5333

>  <SCORE.INTRA.VDW>
-0.467276

>  <SCORE.INTRA.VDW.0>
-0.287413

>  <SCORE.INTRA.norm>
-0.551219

>  <SCORE.RESTR>
0

>  <SCORE.RESTR.CAVITY>
0

>  <SCORE.RESTR.norm>
0

>  <SCORE.SYSTEM>
0

>  <SCORE.SYSTEM.CONST>
0

>  <SCORE.SYSTEM.DIHEDRAL>
0

>  <SCORE.SYSTEM.SOLV>
0

>  <SCORE.SYSTEM.norm>
0

>  <SCORE.heavy>
14

>  <SCORE.norm>
-0.527554

>  <RMSD>
61.034

$$$$
ligand
 OpenBabel11021811493D
libRbt.so/2013.1/901 2013/11/27
 14 13  0  0  0  0  0  0  0  0999 V2000
   11.8504   14.6049   42.1213 N   0  0  0  0  0  0  0  0  0  0  0  0
   12.3295   14.7498   40.7642 C   0  0  0  0  0  0  0  0  0  0  0  0
   11.7101   16.0185   40.1428 C   0  0  0  0  0  0  0  0  0  0  0  0
   12.1245   16.2651   38.6838 C   0  0  0  0  0  0  0  0  0  0  0  0
   11.5142   17.4349   38.0336 N   0  0  0  0  0  0  0  0  0  0  0  0
   10.0783   17.5699   37.7954 C   0  0  0  0  0  0  0  0  0  0  0  0
    9.7544   18.2383   36.4633 C   0  0  0  0  0  0  0  0  0  0  0  0
    8.2581   18.4902   36.2509 C   0  0  0  0  0  0  0  0  0  0  0  0
    7.9608   19.0415   34.8514 C   0  0  0  0  0  0  0  0  0  0  0  0
    8.5660   20.3646   34.7137 N   0  0  0  0  0  0  0  0  0  0  0  0
    7.9731   21.6031   35.2217 C   0  0  0  0  0  0  0  0  0  0  0  0
    8.8536   22.8340   34.9649 C   0  0  0  0  0  0  0  0  0  0  0  0
    8.1857   24.1156   35.4740 C   0  0  0  0  0  0  0  0  0  0  0  0
    8.0640   24.0539   36.9275 N   0  0  0  0  0  0  0  0  0  0  0  0
  1  2  1  0  0  0  0
  2  3  1  0  0  0  0
  3  4  1  0  0  0  0
  4  5  1  0  0  0  0
  5  6  1  0  0  0  0
  6  7  1  0  0  0  0
  7  8  1  0  0  0  0
  8  9  1  0  0  0  0
  9 10  1  0  0  0  0
 10 11  1  0  0  0  0
 11 12  1  0  0  0  0
 12 13  1  0  0  0  0
 13 14  1  0  0  0  0
M  END
>  <CHROM.1>
-178.82518372,177.62192390,-63.36246108,-142.25805401,-175.28171172,-174.68079331
-65.21040609,-81.03425411,178.39299412,178.41941262,65.12868819,9.80153706
18.95596415,37.31463036,-0.57021079,-1.08418428,0.33226104

>  <Name>
ligand

>  <RI>
0

>  <Rbt.Current_Directory>
/home/itssahil/PROJECTS/Mol_Feturizer/New_Systems/rnas/4FAW

>  <Rbt.Executable>
rbdock ($Id: //depot/dev/client3/rdock/2013.1/src/exe/rbdock.cxx#4 $)

>  <Rbt.Library>
libRbt.so (2013.1, Build901 2013/11/27)

>  <Rbt.Parameter_File>
/export/apps/rDock/src/rDock_2013.1_src/data/scripts/dock_solv.prm

>  <Rbt.Receptor>
prm/blind_docking_60.prm

>  <SCORE>
-11.2866

>  <SCORE.INTER>
-1.94744

>  <SCORE.INTER.CONST>
1

>  <SCORE.INTER.POLAR>
0

>  <SCORE.INTER.ROT>
11

>  <SCORE.INTER.SOLV>
13.7809

>  <SCORE.INTER.VDW>
-16.8252

>  <SCORE.INTER.norm>
-0.139103

>  <SCORE.INTRA>
-9.33919

>  <SCORE.INTRA.DIHEDRAL>
-17.485

>  <SCORE.INTRA.DIHEDRAL.0>
19.1003

>  <SCORE.INTRA.POLAR>
0

>  <SCORE.INTRA.POLAR.0>
0

>  <SCORE.INTRA.REPUL>
0

>  <SCORE.INTRA.REPUL.0>
0

>  <SCORE.INTRA.SOLV>
-0.332786

>  <SCORE.INTRA.SOLV.lig_0>
-47.5333

>  <SCORE.INTRA.VDW>
-0.430294

>  <SCORE.INTRA.VDW.0>
-0.287413

>  <SCORE.INTRA.norm>
-0.667085

>  <SCORE.RESTR>
0

>  <SCORE.RESTR.CAVITY>
0

>  <SCORE.RESTR.norm>
0

>  <SCORE.SYSTEM>
0

>  <SCORE.SYSTEM.CONST>
0

>  <SCORE.SYSTEM.DIHEDRAL>
0

>  <SCORE.SYSTEM.SOLV>
0

>  <SCORE.SYSTEM.norm>
0

>  <SCORE.heavy>
14

>  <SCORE.norm>
-0.806188

>  <RMSD>
61.310

$$$$
ligand
 OpenBabel11021811493D
libRbt.so/2013.1/901 2013/11/27
 14 13  0  0  0  0  0  0  0  0999 V2000
   19.5225   13.6877   53.7689 N   0  0  0  0  0  0  0  0  0  0  0  0
   19.7350   13.7419   52.3392 C   0  0  0  0  0  0  0  0  0  0  0  0
   18.4902   14.3564   51.6666 C   0  0  0  0  0  0  0  0  0  0  0  0
   18.5648   14.3950   50.1323 C   0  0  0  0  0  0  0  0  0  0  0  0
   17.3829   14.9404   49.4472 N   0  0  0  0  0  0  0  0  0  0  0  0
   17.2850   15.0855   47.9959 C   0  0  0  0  0  0  0  0  0  0  0  0
   17.1240   13.7525   47.2722 C   0  0  0  0  0  0  0  0  0  0  0  0
   17.3230   13.8495   45.7561 C   0  0  0  0  0  0  0  0  0  0  0  0
   16.2011   14.6455   45.0787 C   0  0  0  0  0  0  0  0  0  0  0  0
   14.9683   13.8611   45.1031 N   0  0  0  0  0  0  0  0  0  0  0  0
   14.0813   13.6771   43.9530 C   0  0  0  0  0  0  0  0  0  0  0  0
   14.6117   12.6419   42.9513 C   0  0  0  0  0  0  0  0  0  0  0  0
   13.7092   12.5443   41.7170 C   0  0  0  0  0  0  0  0  0  0  0  0
   12.4087   12.0092   42.1090 N   0  0  0  0  0  0  0  0  0  0  0  0
  1  2  1  0  0  0  0
  2  3  1  0  0  0  0
  3  4  1  0  0  0  0
  4  5  1  0  0  0  0
  5  6  1  0  0  0  0
  6  7  1  0  0  0  0
  7  8  1  0  0  0  0
  8  9  1  0  0  0  0
  9 10  1  0  0  0  0
 10 11  1  0  0  0  0
 11 12  1  0  0  0  0
 12 13  1  0  0  0  0
 13 14  1  0  0  0  0
M  END
>  <CHROM.1>
-176.76573546,178.42405418,178.47506480,72.17464486,-167.50447189,-68.08224751
-71.04150244,-133.71210234,77.86056711,-176.12991600,-66.01471144,16.52931869
13.79921131,47.09195450,0.76503650,0.82984466,2.08671357

>  <Name>
ligand

>  <RI>
0

>  <Rbt.Current_Directory>
/home/itssahil/PROJECTS/Mol_Feturizer/New_Systems/rnas/4FAW

>  <Rbt.Executable>
rbdock ($Id: //depot/dev/client3/rdock/2013.1/src/exe/rbdock.cxx#4 $)

>  <Rbt.Library>
libRbt.so (2013.1, Build901 2013/11/27)

>  <Rbt.Parameter_File>
/export/apps/rDock/src/rDock_2013.1_src/data/scripts/dock_solv.prm

>  <Rbt.Receptor>
prm/blind_docking_80.prm

>  <SCORE>
-7.89013

>  <SCORE.INTER>
0.423614

>  <SCORE.INTER.CONST>
1

>  <SCORE.INTER.POLAR>
0

>  <SCORE.INTER.ROT>
11

>  <SCORE.INTER.SOLV>
8.13089

>  <SCORE.INTER.VDW>
-13.3612

>  <SCORE.INTER.norm>
0.0302582

>  <SCORE.INTRA>
-8.31375

>  <SCORE.INTRA.DIHEDRAL>
-16.1554

>  <SCORE.INTRA.DIHEDRAL.0>
19.1003

>  <SCORE.INTRA.POLAR>
0

>  <SCORE.INTRA.POLAR.0>
0

>  <SCORE.INTRA.REPUL>
0

>  <SCORE.INTRA.REPUL.0>
0

>  <SCORE.INTRA.SOLV>
-0.135843

>  <SCORE.INTRA.SOLV.lig_0>
-47.5333

>  <SCORE.INTRA.VDW>
-0.168133

>  <SCORE.INTRA.VDW.0>
-0.287413

>  <SCORE.INTRA.norm>
-0.593839

>  <SCORE.RESTR>
0

>  <SCORE.RESTR.CAVITY>
0

>  <SCORE.RESTR.norm>
0

>  <SCORE.SYSTEM>
0

>  <SCORE.SYSTEM.CONST>
0

>  <SCORE.SYSTEM.DIHEDRAL>
0

>  <SCORE.SYSTEM.SOLV>
0

>  <SCORE.SYSTEM.norm>
0

>  <SCORE.heavy>
14

>  <SCORE.norm>
-0.563581

>  <RMSD>
62.162

$$$$
ligand
 OpenBabel11021811493D
libRbt.so/2013.1/901 2013/11/27
 14 13  0  0  0  0  0  0  0  0999 V2000
   18.1108    8.9235   56.6867 N   0  0  0  0  0  0  0  0  0  0  0  0
   17.9185   10.1531   57.4238 C   0  0  0  0  0  0  0  0  0  0  0  0
   18.4841   11.3289   56.6009 C   0  0  0  0  0  0  0  0  0  0  0  0
   20.0068   11.2758   56.4019 C   0  0  0  0  0  0  0  0  0  0  0  0
   20.6014   12.4235   55.6998 N   0  0  0  0  0  0  0  0  0  0  0  0
   20.4131   12.6850   54.2739 C   0  0  0  0  0  0  0  0  0  0  0  0
   20.8322   14.0933   53.8649 C   0  0  0  0  0  0  0  0  0  0  0  0
   20.6152   14.3905   52.3775 C   0  0  0  0  0  0  0  0  0  0  0  0
   19.1276   14.4132   52.0068 C   0  0  0  0  0  0  0  0  0  0  0  0
   18.9888   14.6947   50.5795 N   0  0  0  0  0  0  0  0  0  0  0  0
   17.7331   14.5919   49.8337 C   0  0  0  0  0  0  0  0  0  0  0  0
   17.8663   15.0550   48.3763 C   0  0  0  0  0  0  0  0  0  0  0  0
   16.5216   14.9929   47.6445 C   0  0  0  0  0  0  0  0  0  0  0  0
   16.0997   13.6005   47.5238 N   0  0  0  0  0  0  0  0  0  0  0  0
  1  2  1  0  0  0  0
  2  3  1  0  0  0  0
  3  4  1  0  0  0  0
  4  5  1  0  0  0  0
  5  6  1  0  0  0  0
  6  7  1  0  0  0  0
  7  8  1  0  0  0  0
  8  9  1  0  0  0  0
  9 10  1  0  0  0  0
 10 11  1  0  0  0  0
 11 12  1  0  0  0  0
 12 13  1  0  0  0  0
 13 14  1  0  0  0  0
M  END
>  <CHROM.1>
-65.35320757,-176.08198432,-70.66997207,165.74531364,-178.89382612,66.53649027
-179.75160954,170.24132565,175.43796491,-177.46554090,-66.12218492,18.80866098
13.04468098,52.80678767,1.33462554,0.59276237,2.15019714

>  <Name>
ligand

>  <RI>
0

>  <Rbt.Current_Directory>
/home/itssahil/PROJECTS/Mol_Feturizer/New_Systems/rnas/4FAW

>  <Rbt.Executable>
rbdock ($Id: //depot/dev/client3/rdock/2013.1/src/exe/rbdock.cxx#4 $)

>  <Rbt.Library>
libRbt.so (2013.1, Build901 2013/11/27)

>  <Rbt.Parameter_File>
/export/apps/rDock/src/rDock_2013.1_src/data/scripts/dock_solv.prm

>  <Rbt.Receptor>
prm/blind_docking_80.prm

>  <SCORE>
-9.56236

>  <SCORE.INTER>
-0.282214

>  <SCORE.INTER.CONST>
1

>  <SCORE.INTER.POLAR>
0

>  <SCORE.INTER.ROT>
11

>  <SCORE.INTER.SOLV>
7.31812

>  <SCORE.INTER.VDW>
-13.5608

>  <SCORE.INTER.norm>
-0.0201582

>  <SCORE.INTRA>
-9.28014

>  <SCORE.INTRA.DIHEDRAL>
-18.2431

>  <SCORE.INTRA.DIHEDRAL.0>
19.1003

>  <SCORE.INTRA.POLAR>
0

>  <SCORE.INTRA.POLAR.0>
0

>  <SCORE.INTRA.REPUL>
0

>  <SCORE.INTRA.REPUL.0>
0

>  <SCORE.INTRA.SOLV>
0.113153

>  <SCORE.INTRA.SOLV.lig_0>
-47.5333

>  <SCORE.INTRA.VDW>
-0.215146

>  <SCORE.INTRA.VDW.0>
-0.287413

>  <SCORE.INTRA.norm>
-0.662867

>  <SCORE.RESTR>
0

>  <SCORE.RESTR.CAVITY>
0

>  <SCORE.RESTR.norm>
0

>  <SCORE.SYSTEM>
0

>  <SCORE.SYSTEM.CONST>
0

>  <SCORE.SYSTEM.DIHEDRAL>
0

>  <SCORE.SYSTEM.SOLV>
0

>  <SCORE.SYSTEM.norm>
0

>  <SCORE.heavy>
14

>  <SCORE.norm>
-0.683026

>  <RMSD>
65.163

$$$$
ligand
 OpenBabel11021811493D
libRbt.so/2013.1/901 2013/11/27
 14 13  0  0  0  0  0  0  0  0999 V2000
   15.2133   11.2132   67.8602 N   0  0  0  0  0  0  0  0  0  0  0  0
   14.7182   12.4847   68.3400 C   0  0  0  0  0  0  0  0  0  0  0  0
   15.8948   13.4765   68.4480 C   0  0  0  0  0  0  0  0  0  0  0  0
   16.4737   13.9082   67.0918 C   0  0  0  0  0  0  0  0  0  0  0  0
   15.5639   14.6658   66.2189 N   0  0  0  0  0  0  0  0  0  0  0  0
   15.6060   14.6041   64.7590 C   0  0  0  0  0  0  0  0  0  0  0  0
   14.2676   14.2158   64.1392 C   0  0  0  0  0  0  0  0  0  0  0  0
   14.3156   14.0742   62.6143 C   0  0  0  0  0  0  0  0  0  0  0  0
   12.9740   13.6066   62.0378 C   0  0  0  0  0  0  0  0  0  0  0  0
   11.9454   14.6003   62.3382 N   0  0  0  0  0  0  0  0  0  0  0  0
   10.5785   14.5611   61.8151 C   0  0  0  0  0  0  0  0  0  0  0  0
    9.6131   15.4568   62.6036 C   0  0  0  0  0  0  0  0  0  0  0  0
    9.9841   16.9370   62.4655 C   0  0  0  0  0  0  0  0  0  0  0  0
    9.0940   17.7393   63.2995 N   0  0  0  0  0  0  0  0  0  0  0  0
  1  2  1  0  0  0  0
  2  3  1  0  0  0  0
  3  4  1  0  0  0  0
  4  5  1  0  0  0  0
  5  6  1  0  0  0  0
  6  7  1  0  0  0  0
  7  8  1  0  0  0  0
  8  9  1  0  0  0  0
  9 10  1  0  0  0  0
 10 11  1  0  0  0  0
 11 12  1  0  0  0  0
 12 13  1  0  0  0  0
 13 14  1  0  0  0  0
M  END
>  <CHROM.1>
69.12305475,64.11751845,-148.52293555,124.68888040,-176.92065231,176.76929715
61.77696334,172.82395047,162.67351558,65.08996842,-176.34212791,13.30315164
14.39590862,64.57349594,0.64770127,-0.55171463,1.47312099

>  <Name>
ligand

>  <RI>
0

>  <Rbt.Current_Directory>
/home/itssahil/PROJECTS/Mol_Feturizer/New_Systems/rnas/4FAW

>  <Rbt.Executable>
rbdock ($Id: //depot/dev/client3/rdock/2013.1/src/exe/rbdock.cxx#4 $)

>  <Rbt.Library>
libRbt.so (2013.1, Build901 2013/11/27)

>  <Rbt.Parameter_File>
/export/apps/rDock/src/rDock_2013.1_src/data/scripts/dock_solv.prm

>  <Rbt.Receptor>
prm/blind_docking_100.prm

>  <SCORE>
-11.3879

>  <SCORE.INTER>
-2.61831

>  <SCORE.INTER.CONST>
1

>  <SCORE.INTER.POLAR>
0

>  <SCORE.INTER.ROT>
11

>  <SCORE.INTER.SOLV>
6.4684

>  <SCORE.INTER.VDW>
-14.835

>  <SCORE.INTER.norm>
-0.187022

>  <SCORE.INTRA>
-8.76962

>  <SCORE.INTRA.DIHEDRAL>
-16.3875

>  <SCORE.INTRA.DIHEDRAL.0>
19.1003

>  <SCORE.INTRA.POLAR>
0

>  <SCORE.INTRA.POLAR.0>
0

>  <SCORE.INTRA.REPUL>
0

>  <SCORE.INTRA.REPUL.0>
0

>  <SCORE.INTRA.SOLV>
0.836591

>  <SCORE.INTRA.SOLV.lig_0>
-47.5333

>  <SCORE.INTRA.VDW>
-0.994152

>  <SCORE.INTRA.VDW.0>
-0.287413

>  <SCORE.INTRA.norm>
-0.626401

>  <SCORE.RESTR>
0

>  <SCORE.RESTR.CAVITY>
0

>  <SCORE.RESTR.norm>
0

>  <SCORE.SYSTEM>
0

>  <SCORE.SYSTEM.CONST>
0

>  <SCORE.SYSTEM.DIHEDRAL>
0

>  <SCORE.SYSTEM.SOLV>
0

>  <SCORE.SYSTEM.norm>
0

>  <SCORE.heavy>
14

>  <SCORE.norm>
-0.813423

>  <RMSD>
78.017

$$$$
ligand
 OpenBabel11021811493D
libRbt.so/2013.1/901 2013/11/27
 14 13  0  0  0  0  0  0  0  0999 V2000
   17.9243   12.3108   69.9963 N   0  0  0  0  0  0  0  0  0  0  0  0
   17.8529   13.4495   69.1072 C   0  0  0  0  0  0  0  0  0  0  0  0
   16.7610   13.1951   68.0477 C   0  0  0  0  0  0  0  0  0  0  0  0
   16.5860   14.3448   67.0433 C   0  0  0  0  0  0  0  0  0  0  0  0
   15.5791   14.1298   65.9929 N   0  0  0  0  0  0  0  0  0  0  0  0
   15.5822   14.8364   64.7132 C   0  0  0  0  0  0  0  0  0  0  0  0
   14.9785   14.0169   63.5773 C   0  0  0  0  0  0  0  0  0  0  0  0
   13.4474   14.0571   63.5379 C   0  0  0  0  0  0  0  0  0  0  0  0
   12.9210   15.3926   62.9991 C   0  0  0  0  0  0  0  0  0  0  0  0
   11.4661   15.3261   62.8783 N   0  0  0  0  0  0  0  0  0  0  0  0
   10.7551   14.5882   61.8326 C   0  0  0  0  0  0  0  0  0  0  0  0
    9.2324   14.5996   62.0259 C   0  0  0  0  0  0  0  0  0  0  0  0
    8.8308   13.9297   63.3441 C   0  0  0  0  0  0  0  0  0  0  0  0
    9.1565   12.5078   63.2837 N   0  0  0  0  0  0  0  0  0  0  0  0
  1  2  1  0  0  0  0
  2  3  1  0  0  0  0
  3  4  1  0  0  0  0
  4  5  1  0  0  0  0
  5  6  1  0  0  0  0
  6  7  1  0  0  0  0
  7  8  1  0  0  0  0
  8  9  1  0  0  0  0
  9 10  1  0  0  0  0
 10 11  1  0  0  0  0
 11 12  1  0  0  0  0
 12 13  1  0  0  0  0
 13 14  1  0  0  0  0
M  END
>  <CHROM.1>
179.74872780,178.45394579,-157.47478445,150.13227365,81.56404815,74.94777342
175.16447740,-74.45884816,175.12969865,-61.56590962,-66.16650285,13.64814845
14.04908731,64.88397540,0.62102941,0.29271075,2.10750788

>  <Name>
ligand

>  <RI>
0

>  <Rbt.Current_Directory>
/home/itssahil/PROJECTS/Mol_Feturizer/New_Systems/rnas/4FAW

>  <Rbt.Executable>
rbdock ($Id: //depot/dev/client3/rdock/2013.1/src/exe/rbdock.cxx#4 $)

>  <Rbt.Library>
libRbt.so (2013.1, Build901 2013/11/27)

>  <Rbt.Parameter_File>
/export/apps/rDock/src/rDock_2013.1_src/data/scripts/dock_solv.prm

>  <Rbt.Receptor>
prm/blind_docking_80.prm

>  <SCORE>
-10.1291

>  <SCORE.INTER>
-2.46137

>  <SCORE.INTER.CONST>
1

>  <SCORE.INTER.POLAR>
0

>  <SCORE.INTER.ROT>
11

>  <SCORE.INTER.SOLV>
6.71701

>  <SCORE.INTER.VDW>
-14.8133

>  <SCORE.INTER.norm>
-0.175812

>  <SCORE.INTRA>
-7.66768

>  <SCORE.INTRA.DIHEDRAL>
-15.2304

>  <SCORE.INTRA.DIHEDRAL.0>
19.1003

>  <SCORE.INTRA.POLAR>
0

>  <SCORE.INTRA.POLAR.0>
0

>  <SCORE.INTRA.REPUL>
0

>  <SCORE.INTRA.REPUL.0>
0

>  <SCORE.INTRA.SOLV>
0.81149

>  <SCORE.INTRA.SOLV.lig_0>
-47.5333

>  <SCORE.INTRA.VDW>
-0.458213

>  <SCORE.INTRA.VDW.0>
-0.287413

>  <SCORE.INTRA.norm>
-0.547691

>  <SCORE.RESTR>
0

>  <SCORE.RESTR.CAVITY>
0

>  <SCORE.RESTR.norm>
0

>  <SCORE.SYSTEM>
0

>  <SCORE.SYSTEM.CONST>
0

>  <SCORE.SYSTEM.DIHEDRAL>
0

>  <SCORE.SYSTEM.SOLV>
0

>  <SCORE.SYSTEM.norm>
0

>  <SCORE.heavy>
14

>  <SCORE.norm>
-0.723504

>  <RMSD>
78.028

$$$$
ligand
 OpenBabel11021811493D
libRbt.so/2013.1/901 2013/11/27
 14 13  0  0  0  0  0  0  0  0999 V2000
    9.4072   13.5274   62.5216 N   0  0  0  0  0  0  0  0  0  0  0  0
   10.0103   14.5186   61.6580 C   0  0  0  0  0  0  0  0  0  0  0  0
   11.3152   15.0258   62.3057 C   0  0  0  0  0  0  0  0  0  0  0  0
   12.4176   13.9600   62.4059 C   0  0  0  0  0  0  0  0  0  0  0  0
   13.6530   14.3783   63.0859 N   0  0  0  0  0  0  0  0  0  0  0  0
   13.7340   14.6512   64.5197 C   0  0  0  0  0  0  0  0  0  0  0  0
   14.9628   15.4693   64.9032 C   0  0  0  0  0  0  0  0  0  0  0  0
   16.2846   14.7196   64.7073 C   0  0  0  0  0  0  0  0  0  0  0  0
   16.5557   13.7257   65.8428 C   0  0  0  0  0  0  0  0  0  0  0  0
   16.8958   14.4612   67.0590 N   0  0  0  0  0  0  0  0  0  0  0  0
   17.4572   13.8513   68.2657 C   0  0  0  0  0  0  0  0  0  0  0  0
   16.3886   13.2077   69.1602 C   0  0  0  0  0  0  0  0  0  0  0  0
   16.9810   12.7461   70.4958 C   0  0  0  0  0  0  0  0  0  0  0  0
   17.9506   11.6820   70.2535 N   0  0  0  0  0  0  0  0  0  0  0  0
  1  2  1  0  0  0  0
  2  3  1  0  0  0  0
  3  4  1  0  0  0  0
  4  5  1  0  0  0  0
  5  6  1  0  0  0  0
  6  7  1  0  0  0  0
  7  8  1  0  0  0  0
  8  9  1  0  0  0  0
  9 10  1  0  0  0  0
 10 11  1  0  0  0  0
 11 12  1  0  0  0  0
 12 13  1  0  0  0  0
 13 14  1  0  0  0  0
M  END
>  <CHROM.1>
66.22921155,-176.67587981,69.17351124,-161.95812722,-67.27258240,-78.51198859
-71.59628987,-167.93987927,-81.86876720,-172.43323904,-64.75349174,14.57243495
13.99478648,65.51307785,2.34935360,-0.32462242,-1.07339830

>  <Name>
ligand

>  <RI>
0

>  <Rbt.Current_Directory>
/home/itssahil/PROJECTS/Mol_Feturizer/New_Systems/rnas/4FAW

>  <Rbt.Executable>
rbdock ($Id: //depot/dev/client3/rdock/2013.1/src/exe/rbdock.cxx#4 $)

>  <Rbt.Library>
libRbt.so (2013.1, Build901 2013/11/27)

>  <Rbt.Parameter_File>
/export/apps/rDock/src/rDock_2013.1_src/data/scripts/dock_solv.prm

>  <Rbt.Receptor>
prm/blind_docking_80.prm

>  <SCORE>
-11.3862

>  <SCORE.INTER>
-3.55693

>  <SCORE.INTER.CONST>
1

>  <SCORE.INTER.POLAR>
0

>  <SCORE.INTER.ROT>
11

>  <SCORE.INTER.SOLV>
9.60706

>  <SCORE.INTER.VDW>
-16.507

>  <SCORE.INTER.norm>
-0.254066

>  <SCORE.INTRA>
-7.82932

>  <SCORE.INTRA.DIHEDRAL>
-15.8107

>  <SCORE.INTRA.DIHEDRAL.0>
19.1003

>  <SCORE.INTRA.POLAR>
0

>  <SCORE.INTRA.POLAR.0>
0

>  <SCORE.INTRA.REPUL>
0

>  <SCORE.INTRA.REPUL.0>
0

>  <SCORE.INTRA.SOLV>
0.954892

>  <SCORE.INTRA.SOLV.lig_0>
-47.5333

>  <SCORE.INTRA.VDW>
-0.401416

>  <SCORE.INTRA.VDW.0>
-0.287413

>  <SCORE.INTRA.norm>
-0.559237

>  <SCORE.RESTR>
0

>  <SCORE.RESTR.CAVITY>
0

>  <SCORE.RESTR.norm>
0

>  <SCORE.SYSTEM>
0

>  <SCORE.SYSTEM.CONST>
0

>  <SCORE.SYSTEM.DIHEDRAL>
0

>  <SCORE.SYSTEM.SOLV>
0

>  <SCORE.SYSTEM.norm>
0

>  <SCORE.heavy>
14

>  <SCORE.norm>
-0.813303

>  <RMSD>
78.047

$$$$
ligand
 OpenBabel11021811493D
libRbt.so/2013.1/901 2013/11/27
 14 13  0  0  0  0  0  0  0  0999 V2000
    9.5906   14.9828   62.9619 N   0  0  0  0  0  0  0  0  0  0  0  0
   10.7799   14.9714   62.1387 C   0  0  0  0  0  0  0  0  0  0  0  0
   11.9504   14.3798   62.9508 C   0  0  0  0  0  0  0  0  0  0  0  0
   13.2960   14.3965   62.2091 C   0  0  0  0  0  0  0  0  0  0  0  0
   14.4339   13.8098   62.9333 N   0  0  0  0  0  0  0  0  0  0  0  0
   14.8762   14.2659   64.2499 C   0  0  0  0  0  0  0  0  0  0  0  0
   16.3743   14.0852   64.4720 C   0  0  0  0  0  0  0  0  0  0  0  0
   16.8248   14.3986   65.9025 C   0  0  0  0  0  0  0  0  0  0  0  0
   16.2994   13.3686   66.9095 C   0  0  0  0  0  0  0  0  0  0  0  0
   16.8998   13.6208   68.2177 N   0  0  0  0  0  0  0  0  0  0  0  0
   16.4208   13.0413   69.4740 C   0  0  0  0  0  0  0  0  0  0  0  0
   17.5460   12.8174   70.4939 C   0  0  0  0  0  0  0  0  0  0  0  0
   18.1924   14.1417   70.9135 C   0  0  0  0  0  0  0  0  0  0  0  0
   19.2198   13.8824   71.9177 N   0  0  0  0  0  0  0  0  0  0  0  0
  1  2  1  0  0  0  0
  2  3  1  0  0  0  0
  3  4  1  0  0  0  0
  4  5  1  0  0  0  0
  5  6  1  0  0  0  0
  6  7  1  0  0  0  0
  7  8  1  0  0  0  0
  8  9  1  0  0  0  0
  9 10  1  0  0  0  0
 10 11  1  0  0  0  0
 11 12  1  0  0  0  0
 12 13  1  0  0  0  0
 13 14  1  0  0  0  0
M  END
>  <CHROM.1>
-176.35830073,-178.48521806,-57.11520821,-149.75949912,-172.98835307,68.48323135
172.75436881,165.73658712,148.96836930,63.20703083,177.92778616,15.19324739
14.01154848,66.12445872,2.23717372,0.09951859,-1.51661095

>  <Name>
ligand

>  <RI>
0

>  <Rbt.Current_Directory>
/home/itssahil/PROJECTS/Mol_Feturizer/New_Systems/rnas/4FAW

>  <Rbt.Executable>
rbdock ($Id: //depot/dev/client3/rdock/2013.1/src/exe/rbdock.cxx#4 $)

>  <Rbt.Library>
libRbt.so (2013.1, Build901 2013/11/27)

>  <Rbt.Parameter_File>
/export/apps/rDock/src/rDock_2013.1_src/data/scripts/dock_solv.prm

>  <Rbt.Receptor>
prm/blind_docking_100.prm

>  <SCORE>
-12.765

>  <SCORE.INTER>
-3.57422

>  <SCORE.INTER.CONST>
1

>  <SCORE.INTER.POLAR>
0

>  <SCORE.INTER.ROT>
11

>  <SCORE.INTER.SOLV>
10.2471

>  <SCORE.INTER.VDW>
-16.7318

>  <SCORE.INTER.norm>
-0.255301

>  <SCORE.INTRA>
-9.19081

>  <SCORE.INTRA.DIHEDRAL>
-16.903

>  <SCORE.INTRA.DIHEDRAL.0>
19.1003

>  <SCORE.INTRA.POLAR>
0

>  <SCORE.INTRA.POLAR.0>
0

>  <SCORE.INTRA.REPUL>
0

>  <SCORE.INTRA.REPUL.0>
0

>  <SCORE.INTRA.SOLV>
-0.975346

>  <SCORE.INTRA.SOLV.lig_0>
-47.5333

>  <SCORE.INTRA.VDW>
-0.251631

>  <SCORE.INTRA.VDW.0>
-0.287413

>  <SCORE.INTRA.norm>
-0.656486

>  <SCORE.RESTR>
0

>  <SCORE.RESTR.CAVITY>
0

>  <SCORE.RESTR.norm>
0

>  <SCORE.SYSTEM>
0

>  <SCORE.SYSTEM.CONST>
0

>  <SCORE.SYSTEM.DIHEDRAL>
0

>  <SCORE.SYSTEM.SOLV>
0

>  <SCORE.SYSTEM.norm>
0

>  <SCORE.heavy>
14

>  <SCORE.norm>
-0.911787

>  <RMSD>
78.256

$$$$
ligand
 OpenBabel11021811493D
libRbt.so/2013.1/901 2013/11/27
 14 13  0  0  0  0  0  0  0  0999 V2000
   15.3966   10.2944   69.2478 N   0  0  0  0  0  0  0  0  0  0  0  0
   14.1473   10.9742   69.5107 C   0  0  0  0  0  0  0  0  0  0  0  0
   13.7517   11.8013   68.2702 C   0  0  0  0  0  0  0  0  0  0  0  0
   14.7132   12.9588   67.9592 C   0  0  0  0  0  0  0  0  0  0  0  0
   14.3932   13.7536   66.7637 N   0  0  0  0  0  0  0  0  0  0  0  0
   15.3965   14.4643   65.9729 C   0  0  0  0  0  0  0  0  0  0  0  0
   14.9021   14.8399   64.5797 C   0  0  0  0  0  0  0  0  0  0  0  0
   14.4763   13.6353   63.7342 C   0  0  0  0  0  0  0  0  0  0  0  0
   14.1128   14.0389   62.3003 C   0  0  0  0  0  0  0  0  0  0  0  0
   12.9212   14.8845   62.3229 N   0  0  0  0  0  0  0  0  0  0  0  0
   11.5472   14.3798   62.2923 C   0  0  0  0  0  0  0  0  0  0  0  0
   10.5059   15.4962   62.1323 C   0  0  0  0  0  0  0  0  0  0  0  0
    9.0834   14.9300   62.0720 C   0  0  0  0  0  0  0  0  0  0  0  0
    8.1254   16.0308   62.0301 N   0  0  0  0  0  0  0  0  0  0  0  0
  1  2  1  0  0  0  0
  2  3  1  0  0  0  0
  3  4  1  0  0  0  0
  4  5  1  0  0  0  0
  5  6  1  0  0  0  0
  6  7  1  0  0  0  0
  7  8  1  0  0  0  0
  8  9  1  0  0  0  0
  9 10  1  0  0  0  0
 10 11  1  0  0  0  0
 11 12  1  0  0  0  0
 12 13  1  0  0  0  0
 13 14  1  0  0  0  0
M  END
>  <CHROM.1>
-65.63376790,178.49821089,-152.34683728,162.09786146,-59.24469081,-174.58770274
-65.62307954,-87.34774190,-172.11905698,178.70123984,175.40664810,13.10536805
13.74870561,64.94196495,1.02229569,0.01623466,2.07395067

>  <Name>
ligand

>  <RI>
0

>  <Rbt.Current_Directory>
/home/itssahil/PROJECTS/Mol_Feturizer/New_Systems/rnas/4FAW

>  <Rbt.Executable>
rbdock ($Id: //depot/dev/client3/rdock/2013.1/src/exe/rbdock.cxx#4 $)

>  <Rbt.Library>
libRbt.so (2013.1, Build901 2013/11/27)

>  <Rbt.Parameter_File>
/export/apps/rDock/src/rDock_2013.1_src/data/scripts/dock_solv.prm

>  <Rbt.Receptor>
prm/blind_docking_80.prm

>  <SCORE>
-12.5254

>  <SCORE.INTER>
-3.13026

>  <SCORE.INTER.CONST>
1

>  <SCORE.INTER.POLAR>
0

>  <SCORE.INTER.ROT>
11

>  <SCORE.INTER.SOLV>
11.3072

>  <SCORE.INTER.VDW>
-16.7893

>  <SCORE.INTER.norm>
-0.22359

>  <SCORE.INTRA>
-9.39512

>  <SCORE.INTRA.DIHEDRAL>
-17.3052

>  <SCORE.INTRA.DIHEDRAL.0>
19.1003

>  <SCORE.INTRA.POLAR>
0

>  <SCORE.INTRA.POLAR.0>
0

>  <SCORE.INTRA.REPUL>
0

>  <SCORE.INTRA.REPUL.0>
0

>  <SCORE.INTRA.SOLV>
-0.029492

>  <SCORE.INTRA.SOLV.lig_0>
-47.5333

>  <SCORE.INTRA.VDW>
-0.727779

>  <SCORE.INTRA.VDW.0>
-0.287413

>  <SCORE.INTRA.norm>
-0.67108

>  <SCORE.RESTR>
0

>  <SCORE.RESTR.CAVITY>
0

>  <SCORE.RESTR.norm>
0

>  <SCORE.SYSTEM>
0

>  <SCORE.SYSTEM.CONST>
0

>  <SCORE.SYSTEM.DIHEDRAL>
0

>  <SCORE.SYSTEM.SOLV>
0

>  <SCORE.SYSTEM.norm>
0

>  <SCORE.heavy>
14

>  <SCORE.norm>
-0.89467

>  <RMSD>
78.327

$$$$
ligand
 OpenBabel11021811493D
libRbt.so/2013.1/901 2013/11/27
 14 13  0  0  0  0  0  0  0  0999 V2000
    5.4113   18.7384   62.0142 N   0  0  0  0  0  0  0  0  0  0  0  0
    5.7402   17.8385   60.9307 C   0  0  0  0  0  0  0  0  0  0  0  0
    6.3657   16.5543   61.5131 C   0  0  0  0  0  0  0  0  0  0  0  0
    7.6812   16.7893   62.2716 C   0  0  0  0  0  0  0  0  0  0  0  0
    8.4275   15.5794   62.6495 N   0  0  0  0  0  0  0  0  0  0  0  0
    9.2285   14.7970   61.7098 C   0  0  0  0  0  0  0  0  0  0  0  0
   10.6463   14.5353   62.2075 C   0  0  0  0  0  0  0  0  0  0  0  0
   11.3970   15.8064   62.6177 C   0  0  0  0  0  0  0  0  0  0  0  0
   12.9077   15.5702   62.7323 C   0  0  0  0  0  0  0  0  0  0  0  0
   13.1588   14.5028   63.6983 N   0  0  0  0  0  0  0  0  0  0  0  0
   14.3970   13.7248   63.7692 C   0  0  0  0  0  0  0  0  0  0  0  0
   15.5329   14.4764   64.4771 C   0  0  0  0  0  0  0  0  0  0  0  0
   15.2400   14.6552   65.9703 C   0  0  0  0  0  0  0  0  0  0  0  0
   15.2287   13.3487   66.6216 N   0  0  0  0  0  0  0  0  0  0  0  0
  1  2  1  0  0  0  0
  2  3  1  0  0  0  0
  3  4  1  0  0  0  0
  4  5  1  0  0  0  0
  5  6  1  0  0  0  0
  6  7  1  0  0  0  0
  7  8  1  0  0  0  0
  8  9  1  0  0  0  0
  9 10  1  0  0  0  0
 10 11  1  0  0  0  0
 11 12  1  0  0  0  0
 12 13  1  0  0  0  0
 13 14  1  0  0  0  0
M  END
>  <CHROM.1>
-62.16403539,-170.20099933,76.82614417,128.77660735,-53.25910998,-163.98465879
-57.57699819,160.03576631,78.99653602,68.23400146,65.84674937,10.81172914
15.49403111,63.08421803,3.02574520,0.48357008,-2.14654014

>  <Name>
ligand

>  <RI>
0

>  <Rbt.Current_Directory>
/home/itssahil/PROJECTS/Mol_Feturizer/New_Systems/rnas/4FAW

>  <Rbt.Executable>
rbdock ($Id: //depot/dev/client3/rdock/2013.1/src/exe/rbdock.cxx#4 $)

>  <Rbt.Library>
libRbt.so (2013.1, Build901 2013/11/27)

>  <Rbt.Parameter_File>
/export/apps/rDock/src/rDock_2013.1_src/data/scripts/dock_solv.prm

>  <Rbt.Receptor>
prm/blind_docking_80.prm

>  <SCORE>
-11.1327

>  <SCORE.INTER>
-4.01477

>  <SCORE.INTER.CONST>
1

>  <SCORE.INTER.POLAR>
0

>  <SCORE.INTER.ROT>
11

>  <SCORE.INTER.SOLV>
5.32506

>  <SCORE.INTER.VDW>
-15.3849

>  <SCORE.INTER.norm>
-0.286769

>  <SCORE.INTRA>
-7.1179

>  <SCORE.INTRA.DIHEDRAL>
-15.2117

>  <SCORE.INTRA.DIHEDRAL.0>
19.1003

>  <SCORE.INTRA.POLAR>
0

>  <SCORE.INTRA.POLAR.0>
0

>  <SCORE.INTRA.REPUL>
0

>  <SCORE.INTRA.REPUL.0>
0

>  <SCORE.INTRA.SOLV>
1.65972

>  <SCORE.INTRA.SOLV.lig_0>
-47.5333

>  <SCORE.INTRA.VDW>
-0.341922

>  <SCORE.INTRA.VDW.0>
-0.287413

>  <SCORE.INTRA.norm>
-0.508421

>  <SCORE.RESTR>
0

>  <SCORE.RESTR.CAVITY>
0

>  <SCORE.RESTR.norm>
0

>  <SCORE.SYSTEM>
0

>  <SCORE.SYSTEM.CONST>
0

>  <SCORE.SYSTEM.DIHEDRAL>
0

>  <SCORE.SYSTEM.SOLV>
0

>  <SCORE.SYSTEM.norm>
0

>  <SCORE.heavy>
14

>  <SCORE.norm>
-0.79519

>  <RMSD>
78.356

$$$$
ligand
 OpenBabel11021811493D
libRbt.so/2013.1/901 2013/11/27
 14 13  0  0  0  0  0  0  0  0999 V2000
   19.3344   12.3475   72.0503 N   0  0  0  0  0  0  0  0  0  0  0  0
   17.9413   12.7304   71.9816 C   0  0  0  0  0  0  0  0  0  0  0  0
   17.4495   12.5877   70.5265 C   0  0  0  0  0  0  0  0  0  0  0  0
   18.1218   13.5576   69.5425 C   0  0  0  0  0  0  0  0  0  0  0  0
   17.7142   13.4271   68.1352 N   0  0  0  0  0  0  0  0  0  0  0  0
   17.1207   14.5159   67.3611 C   0  0  0  0  0  0  0  0  0  0  0  0
   16.5367   14.0528   66.0304 C   0  0  0  0  0  0  0  0  0  0  0  0
   15.4695   12.9630   66.1746 C   0  0  0  0  0  0  0  0  0  0  0  0
   14.9017   12.5311   64.8174 C   0  0  0  0  0  0  0  0  0  0  0  0
   14.2015   13.6580   64.2048 N   0  0  0  0  0  0  0  0  0  0  0  0
   14.0129   13.8308   62.7633 C   0  0  0  0  0  0  0  0  0  0  0  0
   13.0797   15.0004   62.4206 C   0  0  0  0  0  0  0  0  0  0  0  0
   11.6207   14.6666   62.7486 C   0  0  0  0  0  0  0  0  0  0  0  0
   11.4535   14.5975   64.1972 N   0  0  0  0  0  0  0  0  0  0  0  0
  1  2  1  0  0  0  0
  2  3  1  0  0  0  0
  3  4  1  0  0  0  0
  4  5  1  0  0  0  0
  5  6  1  0  0  0  0
  6  7  1  0  0  0  0
  7  8  1  0  0  0  0
  8  9  1  0  0  0  0
  9 10  1  0  0  0  0
 10 11  1  0  0  0  0
 11 12  1  0  0  0  0
 12 13  1  0  0  0  0
 13 14  1  0  0  0  0
M  END
>  <CHROM.1>
-65.58336958,178.11105873,121.40231151,-168.51361026,57.45870770,179.65635089
-64.36641757,153.87857642,172.16158630,-72.67702049,69.39037505,15.63985084
13.60477733,66.63936179,0.95671065,-0.05340786,1.71918844

>  <Name>
ligand

>  <RI>
0

>  <Rbt.Current_Directory>
/home/itssahil/PROJECTS/Mol_Feturizer/New_Systems/rnas/4FAW

>  <Rbt.Executable>
rbdock ($Id: //depot/dev/client3/rdock/2013.1/src/exe/rbdock.cxx#4 $)

>  <Rbt.Library>
libRbt.so (2013.1, Build901 2013/11/27)

>  <Rbt.Parameter_File>
/export/apps/rDock/src/rDock_2013.1_src/data/scripts/dock_solv.prm

>  <Rbt.Receptor>
prm/blind_docking_80.prm

>  <SCORE>
-7.66224

>  <SCORE.INTER>
-0.145984

>  <SCORE.INTER.CONST>
1

>  <SCORE.INTER.POLAR>
0

>  <SCORE.INTER.ROT>
11

>  <SCORE.INTER.SOLV>
4.21082

>  <SCORE.INTER.VDW>
-12.4343

>  <SCORE.INTER.norm>
-0.0104274

>  <SCORE.INTRA>
-7.51626

>  <SCORE.INTRA.DIHEDRAL>
-16.1276

>  <SCORE.INTRA.DIHEDRAL.0>
19.1003

>  <SCORE.INTRA.POLAR>
0

>  <SCORE.INTRA.POLAR.0>
0

>  <SCORE.INTRA.REPUL>
0

>  <SCORE.INTRA.REPUL.0>
0

>  <SCORE.INTRA.SOLV>
2.87046

>  <SCORE.INTRA.SOLV.lig_0>
-47.5333

>  <SCORE.INTRA.VDW>
-0.887691

>  <SCORE.INTRA.VDW.0>
-0.287413

>  <SCORE.INTRA.norm>
-0.536876

>  <SCORE.RESTR>
0

>  <SCORE.RESTR.CAVITY>
0

>  <SCORE.RESTR.norm>
0

>  <SCORE.SYSTEM>
0

>  <SCORE.SYSTEM.CONST>
0

>  <SCORE.SYSTEM.DIHEDRAL>
0

>  <SCORE.SYSTEM.SOLV>
0

>  <SCORE.SYSTEM.norm>
0

>  <SCORE.heavy>
14

>  <SCORE.norm>
-0.547303

>  <RMSD>
78.396

$$$$
ligand
 OpenBabel11021811493D
libRbt.so/2013.1/901 2013/11/27
 14 13  0  0  0  0  0  0  0  0999 V2000
   20.0804   14.3265   74.2339 N   0  0  0  0  0  0  0  0  0  0  0  0
   19.2662   13.5076   73.3630 C   0  0  0  0  0  0  0  0  0  0  0  0
   18.9971   14.2765   72.0530 C   0  0  0  0  0  0  0  0  0  0  0  0
   18.2146   13.4697   71.0053 C   0  0  0  0  0  0  0  0  0  0  0  0
   18.0180   14.1291   69.7052 N   0  0  0  0  0  0  0  0  0  0  0  0
   17.2800   13.5265   68.5964 C   0  0  0  0  0  0  0  0  0  0  0  0
   17.2679   14.3972   67.3442 C   0  0  0  0  0  0  0  0  0  0  0  0
   16.4829   13.7857   66.1792 C   0  0  0  0  0  0  0  0  0  0  0  0
   16.5814   14.6387   64.9089 C   0  0  0  0  0  0  0  0  0  0  0  0
   15.7191   14.0694   63.8755 N   0  0  0  0  0  0  0  0  0  0  0  0
   14.2976   14.3825   63.7184 C   0  0  0  0  0  0  0  0  0  0  0  0
   13.7241   13.8933   62.3813 C   0  0  0  0  0  0  0  0  0  0  0  0
   12.2667   14.3317   62.2037 C   0  0  0  0  0  0  0  0  0  0  0  0
   11.4569   13.7681   63.2797 N   0  0  0  0  0  0  0  0  0  0  0  0
  1  2  1  0  0  0  0
  2  3  1  0  0  0  0
  3  4  1  0  0  0  0
  4  5  1  0  0  0  0
  5  6  1  0  0  0  0
  6  7  1  0  0  0  0
  7  8  1  0  0  0  0
  8  9  1  0  0  0  0
  9 10  1  0  0  0  0
 10 11  1  0  0  0  0
 11 12  1  0  0  0  0
 12 13  1  0  0  0  0
 13 14  1  0  0  0  0
M  END
>  <CHROM.1>
176.22602872,-175.83394273,-178.91214366,-177.86155036,-179.28198722,-175.73535155
-174.95455428,86.92474315,167.18151550,-175.59518719,-60.46928520,16.40381335
14.03585998,67.34608040,1.02102185,0.14207121,1.67523596

>  <Name>
ligand

>  <RI>
0

>  <Rbt.Current_Directory>
/home/itssahil/PROJECTS/Mol_Feturizer/New_Systems/rnas/4FAW

>  <Rbt.Executable>
rbdock ($Id: //depot/dev/client3/rdock/2013.1/src/exe/rbdock.cxx#4 $)

>  <Rbt.Library>
libRbt.so (2013.1, Build901 2013/11/27)

>  <Rbt.Parameter_File>
/export/apps/rDock/src/rDock_2013.1_src/data/scripts/dock_solv.prm

>  <Rbt.Receptor>
prm/blind_docking_80.prm

>  <SCORE>
-14.638

>  <SCORE.INTER>
-4.63285

>  <SCORE.INTER.CONST>
1

>  <SCORE.INTER.POLAR>
0

>  <SCORE.INTER.ROT>
11

>  <SCORE.INTER.SOLV>
11.8049

>  <SCORE.INTER.VDW>
-17.9569

>  <SCORE.INTER.norm>
-0.330918

>  <SCORE.INTRA>
-10.0052

>  <SCORE.INTRA.DIHEDRAL>
-18.095

>  <SCORE.INTRA.DIHEDRAL.0>
19.1003

>  <SCORE.INTRA.POLAR>
0

>  <SCORE.INTRA.POLAR.0>
0

>  <SCORE.INTRA.REPUL>
0

>  <SCORE.INTRA.REPUL.0>
0

>  <SCORE.INTRA.SOLV>
-0.671484

>  <SCORE.INTRA.SOLV.lig_0>
-47.5333

>  <SCORE.INTRA.VDW>
-0.621959

>  <SCORE.INTRA.VDW.0>
-0.287413

>  <SCORE.INTRA.norm>
-0.714655

>  <SCORE.RESTR>
0

>  <SCORE.RESTR.CAVITY>
0

>  <SCORE.RESTR.norm>
0

>  <SCORE.SYSTEM>
0

>  <SCORE.SYSTEM.CONST>
0

>  <SCORE.SYSTEM.DIHEDRAL>
0

>  <SCORE.SYSTEM.SOLV>
0

>  <SCORE.SYSTEM.norm>
0

>  <SCORE.heavy>
14

>  <SCORE.norm>
-1.04557

>  <RMSD>
78.696

$$$$
ligand
 OpenBabel11021811493D
libRbt.so/2013.1/901 2013/11/27
 14 13  0  0  0  0  0  0  0  0999 V2000
   20.9204   12.3447   72.5724 N   0  0  0  0  0  0  0  0  0  0  0  0
   19.5043   12.1080   72.7482 C   0  0  0  0  0  0  0  0  0  0  0  0
   18.7786   13.4627   72.8807 C   0  0  0  0  0  0  0  0  0  0  0  0
   18.7242   14.2719   71.5756 C   0  0  0  0  0  0  0  0  0  0  0  0
   17.9573   13.6647   70.4771 N   0  0  0  0  0  0  0  0  0  0  0  0
   18.4398   13.5895   69.0992 C   0  0  0  0  0  0  0  0  0  0  0  0
   17.5913   12.6781   68.2185 C   0  0  0  0  0  0  0  0  0  0  0  0
   16.1814   13.2173   67.9560 C   0  0  0  0  0  0  0  0  0  0  0  0
   16.2012   14.4778   67.0833 C   0  0  0  0  0  0  0  0  0  0  0  0
   16.7014   14.1377   65.7529 N   0  0  0  0  0  0  0  0  0  0  0  0
   16.0108   14.4573   64.5022 C   0  0  0  0  0  0  0  0  0  0  0  0
   14.6735   13.7183   64.3544 C   0  0  0  0  0  0  0  0  0  0  0  0
   14.0203   14.0092   62.9993 C   0  0  0  0  0  0  0  0  0  0  0  0
   12.6960   13.3963   62.9584 N   0  0  0  0  0  0  0  0  0  0  0  0
  1  2  1  0  0  0  0
  2  3  1  0  0  0  0
  3  4  1  0  0  0  0
  4  5  1  0  0  0  0
  5  6  1  0  0  0  0
  6  7  1  0  0  0  0
  7  8  1  0  0  0  0
  8  9  1  0  0  0  0
  9 10  1  0  0  0  0
 10 11  1  0  0  0  0
 11 12  1  0  0  0  0
 12 13  1  0  0  0  0
 13 14  1  0  0  0  0
M  END
>  <CHROM.1>
70.53944139,64.17878670,-133.99514100,168.58692873,67.90768601,67.87178386
65.32989345,127.37196574,-65.27643081,-176.52293799,-174.36784838,17.02859367
13.53817579,68.08420733,-1.01665866,-0.19497108,-1.34580826

>  <Name>
ligand

>  <RI>
0

>  <Rbt.Current_Directory>
/home/itssahil/PROJECTS/Mol_Feturizer/New_Systems/rnas/4FAW

>  <Rbt.Executable>
rbdock ($Id: //depot/dev/client3/rdock/2013.1/src/exe/rbdock.cxx#4 $)

>  <Rbt.Library>
libRbt.so (2013.1, Build901 2013/11/27)

>  <Rbt.Parameter_File>
/export/apps/rDock/src/rDock_2013.1_src/data/scripts/dock_solv.prm

>  <Rbt.Receptor>
prm/blind_docking_80.prm

>  <SCORE>
-8.46812

>  <SCORE.INTER>
-0.890002

>  <SCORE.INTER.CONST>
1

>  <SCORE.INTER.POLAR>
0

>  <SCORE.INTER.ROT>
11

>  <SCORE.INTER.SOLV>
7.48854

>  <SCORE.INTER.VDW>
-14.0228

>  <SCORE.INTER.norm>
-0.0635716

>  <SCORE.INTRA>
-7.57811

>  <SCORE.INTRA.DIHEDRAL>
-15.5352

>  <SCORE.INTRA.DIHEDRAL.0>
19.1003

>  <SCORE.INTRA.POLAR>
0

>  <SCORE.INTRA.POLAR.0>
0

>  <SCORE.INTRA.REPUL>
0

>  <SCORE.INTRA.REPUL.0>
0

>  <SCORE.INTRA.SOLV>
1.29471

>  <SCORE.INTRA.SOLV.lig_0>
-47.5333

>  <SCORE.INTRA.VDW>
-0.45785

>  <SCORE.INTRA.VDW.0>
-0.287413

>  <SCORE.INTRA.norm>
-0.541294

>  <SCORE.RESTR>
0

>  <SCORE.RESTR.CAVITY>
0

>  <SCORE.RESTR.norm>
0

>  <SCORE.SYSTEM>
0

>  <SCORE.SYSTEM.CONST>
0

>  <SCORE.SYSTEM.DIHEDRAL>
0

>  <SCORE.SYSTEM.SOLV>
0

>  <SCORE.SYSTEM.norm>
0

>  <SCORE.heavy>
14

>  <SCORE.norm>
-0.604865

>  <RMSD>
78.933

$$$$
ligand
 OpenBabel11021811493D
libRbt.so/2013.1/901 2013/11/27
 14 13  0  0  0  0  0  0  0  0999 V2000
    4.1936   15.1987   64.2888 N   0  0  0  0  0  0  0  0  0  0  0  0
    4.4370   16.6207   64.1843 C   0  0  0  0  0  0  0  0  0  0  0  0
    5.8893   16.8514   63.7184 C   0  0  0  0  0  0  0  0  0  0  0  0
    6.1597   16.4040   62.2735 C   0  0  0  0  0  0  0  0  0  0  0  0
    7.5498   16.5369   61.8114 N   0  0  0  0  0  0  0  0  0  0  0  0
    8.6321   15.6523   62.2393 C   0  0  0  0  0  0  0  0  0  0  0  0
   10.0066   16.3087   62.1590 C   0  0  0  0  0  0  0  0  0  0  0  0
   11.1223   15.4765   62.7994 C   0  0  0  0  0  0  0  0  0  0  0  0
   12.4258   16.2719   62.9376 C   0  0  0  0  0  0  0  0  0  0  0  0
   13.3804   15.5025   63.7329 N   0  0  0  0  0  0  0  0  0  0  0  0
   13.9941   15.9754   64.9751 C   0  0  0  0  0  0  0  0  0  0  0  0
   14.8018   14.8853   65.6931 C   0  0  0  0  0  0  0  0  0  0  0  0
   16.0206   14.4577   64.8689 C   0  0  0  0  0  0  0  0  0  0  0  0
   16.6815   13.3352   65.5282 N   0  0  0  0  0  0  0  0  0  0  0  0
  1  2  1  0  0  0  0
  2  3  1  0  0  0  0
  3  4  1  0  0  0  0
  4  5  1  0  0  0  0
  5  6  1  0  0  0  0
  6  7  1  0  0  0  0
  7  8  1  0  0  0  0
  8  9  1  0  0  0  0
  9 10  1  0  0  0  0
 10 11  1  0  0  0  0
 11 12  1  0  0  0  0
 12 13  1  0  0  0  0
 13 14  1  0  0  0  0
M  END
>  <CHROM.1>
68.12681905,-176.75875099,73.77101048,-154.25899558,171.26409646,-169.20777946
171.40223110,-122.06670815,171.98759695,65.57391407,-174.58535161,10.37815393
15.67716137,63.65777197,2.92888592,0.08784240,-1.19379042

>  <Name>
ligand

>  <RI>
0

>  <Rbt.Current_Directory>
/home/itssahil/PROJECTS/Mol_Feturizer/New_Systems/rnas/4FAW

>  <Rbt.Executable>
rbdock ($Id: //depot/dev/client3/rdock/2013.1/src/exe/rbdock.cxx#4 $)

>  <Rbt.Library>
libRbt.so (2013.1, Build901 2013/11/27)

>  <Rbt.Parameter_File>
/export/apps/rDock/src/rDock_2013.1_src/data/scripts/dock_solv.prm

>  <Rbt.Receptor>
prm/blind_docking_100.prm

>  <SCORE>
-9.93219

>  <SCORE.INTER>
-1.01742

>  <SCORE.INTER.CONST>
1

>  <SCORE.INTER.POLAR>
0

>  <SCORE.INTER.ROT>
11

>  <SCORE.INTER.SOLV>
10.1696

>  <SCORE.INTER.VDW>
-15.0015

>  <SCORE.INTER.norm>
-0.0726729

>  <SCORE.INTRA>
-8.91477

>  <SCORE.INTRA.DIHEDRAL>
-15.6881

>  <SCORE.INTRA.DIHEDRAL.0>
19.1003

>  <SCORE.INTRA.POLAR>
0

>  <SCORE.INTRA.POLAR.0>
0

>  <SCORE.INTRA.REPUL>
0

>  <SCORE.INTRA.REPUL.0>
0

>  <SCORE.INTRA.SOLV>
-0.458369

>  <SCORE.INTRA.SOLV.lig_0>
-47.5333

>  <SCORE.INTRA.VDW>
-0.841532

>  <SCORE.INTRA.VDW.0>
-0.287413

>  <SCORE.INTRA.norm>
-0.636769

>  <SCORE.RESTR>
0

>  <SCORE.RESTR.CAVITY>
0

>  <SCORE.RESTR.norm>
0

>  <SCORE.SYSTEM>
0

>  <SCORE.SYSTEM.CONST>
0

>  <SCORE.SYSTEM.DIHEDRAL>
0

>  <SCORE.SYSTEM.SOLV>
0

>  <SCORE.SYSTEM.norm>
0

>  <SCORE.heavy>
14

>  <SCORE.norm>
-0.709442

>  <RMSD>
79.124

$$$$
ligand
 OpenBabel11021811493D
libRbt.so/2013.1/901 2013/11/27
 14 13  0  0  0  0  0  0  0  0999 V2000
    3.8125   20.3187   63.7441 N   0  0  0  0  0  0  0  0  0  0  0  0
    4.2499   19.6518   62.5374 C   0  0  0  0  0  0  0  0  0  0  0  0
    5.0161   18.3685   62.9191 C   0  0  0  0  0  0  0  0  0  0  0  0
    5.6013   17.6103   61.7176 C   0  0  0  0  0  0  0  0  0  0  0  0
    6.2730   16.3390   62.0280 N   0  0  0  0  0  0  0  0  0  0  0  0
    7.5049   16.2452   62.8093 C   0  0  0  0  0  0  0  0  0  0  0  0
    8.6384   15.5564   62.0562 C   0  0  0  0  0  0  0  0  0  0  0  0
    9.9309   15.4349   62.8699 C   0  0  0  0  0  0  0  0  0  0  0  0
   11.0611   14.7878   62.0608 C   0  0  0  0  0  0  0  0  0  0  0  0
   12.2697   14.7272   62.8801 N   0  0  0  0  0  0  0  0  0  0  0  0
   13.5889   14.3337   62.3818 C   0  0  0  0  0  0  0  0  0  0  0  0
   14.4903   13.7502   63.4787 C   0  0  0  0  0  0  0  0  0  0  0  0
   14.7828   14.7839   64.5711 C   0  0  0  0  0  0  0  0  0  0  0  0
   15.6349   14.1817   65.5922 N   0  0  0  0  0  0  0  0  0  0  0  0
  1  2  1  0  0  0  0
  2  3  1  0  0  0  0
  3  4  1  0  0  0  0
  4  5  1  0  0  0  0
  5  6  1  0  0  0  0
  6  7  1  0  0  0  0
  7  8  1  0  0  0  0
  8  9  1  0  0  0  0
  9 10  1  0  0  0  0
 10 11  1  0  0  0  0
 11 12  1  0  0  0  0
 12 13  1  0  0  0  0
 13 14  1  0  0  0  0
M  END
>  <CHROM.1>
-176.76880495,-176.57331081,-65.90791309,-122.24340852,-179.25808623,-177.75924951
178.79355399,-171.65186414,-153.90083410,-62.68849402,179.69207395,9.48961284
16.14912546,62.97449545,-2.94511078,0.40604258,-2.29854429

>  <Name>
ligand

>  <RI>
0

>  <Rbt.Current_Directory>
/home/itssahil/PROJECTS/Mol_Feturizer/New_Systems/rnas/4FAW

>  <Rbt.Executable>
rbdock ($Id: //depot/dev/client3/rdock/2013.1/src/exe/rbdock.cxx#4 $)

>  <Rbt.Library>
libRbt.so (2013.1, Build901 2013/11/27)

>  <Rbt.Parameter_File>
/export/apps/rDock/src/rDock_2013.1_src/data/scripts/dock_solv.prm

>  <Rbt.Receptor>
prm/blind_docking_80.prm

>  <SCORE>
-10.667

>  <SCORE.INTER>
-0.758959

>  <SCORE.INTER.CONST>
1

>  <SCORE.INTER.POLAR>
0

>  <SCORE.INTER.ROT>
11

>  <SCORE.INTER.SOLV>
7.33426

>  <SCORE.INTER.VDW>
-13.8841

>  <SCORE.INTER.norm>
-0.0542113

>  <SCORE.INTRA>
-9.90807

>  <SCORE.INTRA.DIHEDRAL>
-17.2013

>  <SCORE.INTRA.DIHEDRAL.0>
19.1003

>  <SCORE.INTRA.POLAR>
0

>  <SCORE.INTRA.POLAR.0>
0

>  <SCORE.INTRA.REPUL>
0

>  <SCORE.INTRA.REPUL.0>
0

>  <SCORE.INTRA.SOLV>
-1.13824

>  <SCORE.INTRA.SOLV.lig_0>
-47.5333

>  <SCORE.INTRA.VDW>
-0.738305

>  <SCORE.INTRA.VDW.0>
-0.287413

>  <SCORE.INTRA.norm>
-0.707719

>  <SCORE.RESTR>
0

>  <SCORE.RESTR.CAVITY>
0

>  <SCORE.RESTR.norm>
0

>  <SCORE.SYSTEM>
0

>  <SCORE.SYSTEM.CONST>
0

>  <SCORE.SYSTEM.DIHEDRAL>
0

>  <SCORE.SYSTEM.SOLV>
0

>  <SCORE.SYSTEM.norm>
0

>  <SCORE.heavy>
14

>  <SCORE.norm>
-0.76193

>  <RMSD>
79.169

$$$$
ligand
 OpenBabel11021811493D
libRbt.so/2013.1/901 2013/11/27
 14 13  0  0  0  0  0  0  0  0999 V2000
   17.4570    9.9178   71.2310 N   0  0  0  0  0  0  0  0  0  0  0  0
   17.9351   11.2819   71.2823 C   0  0  0  0  0  0  0  0  0  0  0  0
   16.7483   12.2417   71.0594 C   0  0  0  0  0  0  0  0  0  0  0  0
   16.0778   12.0964   69.6845 C   0  0  0  0  0  0  0  0  0  0  0  0
   16.9392   12.3572   68.5211 N   0  0  0  0  0  0  0  0  0  0  0  0
   17.5258   13.6632   68.2259 C   0  0  0  0  0  0  0  0  0  0  0  0
   16.6934   14.4838   67.2461 C   0  0  0  0  0  0  0  0  0  0  0  0
   16.6032   13.8635   65.8480 C   0  0  0  0  0  0  0  0  0  0  0  0
   15.9028   14.7936   64.8504 C   0  0  0  0  0  0  0  0  0  0  0  0
   14.5217   15.0089   65.2768 N   0  0  0  0  0  0  0  0  0  0  0  0
   13.7708   16.2464   65.0570 C   0  0  0  0  0  0  0  0  0  0  0  0
   12.3663   15.9980   64.4896 C   0  0  0  0  0  0  0  0  0  0  0  0
   11.4828   15.2476   65.4915 C   0  0  0  0  0  0  0  0  0  0  0  0
   10.2093   14.9148   64.8600 N   0  0  0  0  0  0  0  0  0  0  0  0
  1  2  1  0  0  0  0
  2  3  1  0  0  0  0
  3  4  1  0  0  0  0
  4  5  1  0  0  0  0
  5  6  1  0  0  0  0
  6  7  1  0  0  0  0
  7  8  1  0  0  0  0
  8  9  1  0  0  0  0
  9 10  1  0  0  0  0
 10 11  1  0  0  0  0
 11 12  1  0  0  0  0
 12 13  1  0  0  0  0
 13 14  1  0  0  0  0
M  END
>  <CHROM.1>
-62.54291825,-60.67291490,-64.76969336,-95.04219934,-64.88764647,-173.20530126
-63.19356087,147.64623358,132.50362804,65.33588298,-174.23428838,15.30261789
13.72277243,67.36592556,0.95541100,0.00056288,2.18582037

>  <Name>
ligand

>  <RI>
0

>  <Rbt.Current_Directory>
/home/itssahil/PROJECTS/Mol_Feturizer/New_Systems/rnas/4FAW

>  <Rbt.Executable>
rbdock ($Id: //depot/dev/client3/rdock/2013.1/src/exe/rbdock.cxx#4 $)

>  <Rbt.Library>
libRbt.so (2013.1, Build901 2013/11/27)

>  <Rbt.Parameter_File>
/export/apps/rDock/src/rDock_2013.1_src/data/scripts/dock_solv.prm

>  <Rbt.Receptor>
prm/blind_docking_100.prm

>  <SCORE>
-8.37098

>  <SCORE.INTER>
-0.343325

>  <SCORE.INTER.CONST>
1

>  <SCORE.INTER.POLAR>
0

>  <SCORE.INTER.ROT>
11

>  <SCORE.INTER.SOLV>
6.27324

>  <SCORE.INTER.VDW>
-13.2533

>  <SCORE.INTER.norm>
-0.0245232

>  <SCORE.INTRA>
-8.02765

>  <SCORE.INTRA.DIHEDRAL>
-15.9975

>  <SCORE.INTRA.DIHEDRAL.0>
19.1003

>  <SCORE.INTRA.POLAR>
0

>  <SCORE.INTRA.POLAR.0>
0

>  <SCORE.INTRA.REPUL>
0

>  <SCORE.INTRA.REPUL.0>
0

>  <SCORE.INTRA.SOLV>
1.33271

>  <SCORE.INTRA.SOLV.lig_0>
-47.5333

>  <SCORE.INTRA.VDW>
-0.695278

>  <SCORE.INTRA.VDW.0>
-0.287413

>  <SCORE.INTRA.norm>
-0.573404

>  <SCORE.RESTR>
0

>  <SCORE.RESTR.CAVITY>
0

>  <SCORE.RESTR.norm>
0

>  <SCORE.SYSTEM>
0

>  <SCORE.SYSTEM.CONST>
0

>  <SCORE.SYSTEM.DIHEDRAL>
0

>  <SCORE.SYSTEM.SOLV>
0

>  <SCORE.SYSTEM.norm>
0

>  <SCORE.heavy>
14

>  <SCORE.norm>
-0.597927

>  <RMSD>
79.202

$$$$
ligand
 OpenBabel11021811493D
libRbt.so/2013.1/901 2013/11/27
 14 13  0  0  0  0  0  0  0  0999 V2000
    4.2701   14.2879   64.5781 N   0  0  0  0  0  0  0  0  0  0  0  0
    4.7502   15.5055   65.1938 C   0  0  0  0  0  0  0  0  0  0  0  0
    4.7671   16.6316   64.1396 C   0  0  0  0  0  0  0  0  0  0  0  0
    5.7162   16.3684   62.9602 C   0  0  0  0  0  0  0  0  0  0  0  0
    7.1405   16.2336   63.3020 N   0  0  0  0  0  0  0  0  0  0  0  0
    8.1848   15.9523   62.3186 C   0  0  0  0  0  0  0  0  0  0  0  0
    9.5116   15.5511   62.9549 C   0  0  0  0  0  0  0  0  0  0  0  0
   10.5936   15.1798   61.9356 C   0  0  0  0  0  0  0  0  0  0  0  0
   11.9047   14.7654   62.6141 C   0  0  0  0  0  0  0  0  0  0  0  0
   12.4990   15.9283   63.2699 N   0  0  0  0  0  0  0  0  0  0  0  0
   12.8603   15.9846   64.6875 C   0  0  0  0  0  0  0  0  0  0  0  0
   14.3399   15.6620   64.9384 C   0  0  0  0  0  0  0  0  0  0  0  0
   14.6837   14.2349   64.4991 C   0  0  0  0  0  0  0  0  0  0  0  0
   16.0552   13.9246   64.8912 N   0  0  0  0  0  0  0  0  0  0  0  0
  1  2  1  0  0  0  0
  2  3  1  0  0  0  0
  3  4  1  0  0  0  0
  4  5  1  0  0  0  0
  5  6  1  0  0  0  0
  6  7  1  0  0  0  0
  7  8  1  0  0  0  0
  8  9  1  0  0  0  0
  9 10  1  0  0  0  0
 10 11  1  0  0  0  0
 11 12  1  0  0  0  0
 12 13  1  0  0  0  0
 13 14  1  0  0  0  0
M  END
>  <CHROM.1>
-62.48964483,-61.54352363,178.59409820,-166.96552852,176.86921244,-179.25533705
-67.94873557,124.58999882,95.94075334,-62.23170956,-173.76172610,9.80541653
15.44370870,63.73437968,3.07925857,0.08177303,-1.28365146

>  <Name>
ligand

>  <RI>
0

>  <Rbt.Current_Directory>
/home/itssahil/PROJECTS/Mol_Feturizer/New_Systems/rnas/4FAW

>  <Rbt.Executable>
rbdock ($Id: //depot/dev/client3/rdock/2013.1/src/exe/rbdock.cxx#4 $)

>  <Rbt.Library>
libRbt.so (2013.1, Build901 2013/11/27)

>  <Rbt.Parameter_File>
/export/apps/rDock/src/rDock_2013.1_src/data/scripts/dock_solv.prm

>  <Rbt.Receptor>
prm/blind_docking_80.prm

>  <SCORE>
-8.83521

>  <SCORE.INTER>
-0.182067

>  <SCORE.INTER.CONST>
1

>  <SCORE.INTER.POLAR>
0

>  <SCORE.INTER.ROT>
11

>  <SCORE.INTER.SOLV>
8.37142

>  <SCORE.INTER.VDW>
-13.8452

>  <SCORE.INTER.norm>
-0.0130048

>  <SCORE.INTRA>
-8.65315

>  <SCORE.INTRA.DIHEDRAL>
-16.5258

>  <SCORE.INTRA.DIHEDRAL.0>
19.1003

>  <SCORE.INTRA.POLAR>
0

>  <SCORE.INTRA.POLAR.0>
0

>  <SCORE.INTRA.REPUL>
0

>  <SCORE.INTRA.REPUL.0>
0

>  <SCORE.INTRA.SOLV>
0.936263

>  <SCORE.INTRA.SOLV.lig_0>
-47.5333

>  <SCORE.INTRA.VDW>
-0.858374

>  <SCORE.INTRA.VDW.0>
-0.287413

>  <SCORE.INTRA.norm>
-0.618082

>  <SCORE.RESTR>
0

>  <SCORE.RESTR.CAVITY>
0

>  <SCORE.RESTR.norm>
0

>  <SCORE.SYSTEM>
0

>  <SCORE.SYSTEM.CONST>
0

>  <SCORE.SYSTEM.DIHEDRAL>
0

>  <SCORE.SYSTEM.SOLV>
0

>  <SCORE.SYSTEM.norm>
0

>  <SCORE.heavy>
14

>  <SCORE.norm>
-0.631087

>  <RMSD>
79.485

$$$$
ligand
 OpenBabel11021811493D
libRbt.so/2013.1/901 2013/11/27
 14 13  0  0  0  0  0  0  0  0999 V2000
   15.2065   14.1467   65.7761 N   0  0  0  0  0  0  0  0  0  0  0  0
   15.7580   14.2615   64.4439 C   0  0  0  0  0  0  0  0  0  0  0  0
   14.6494   13.9705   63.4116 C   0  0  0  0  0  0  0  0  0  0  0  0
   13.4841   14.9713   63.4483 C   0  0  0  0  0  0  0  0  0  0  0  0
   12.3919   14.7180   62.4961 N   0  0  0  0  0  0  0  0  0  0  0  0
   11.1361   15.4661   62.4884 C   0  0  0  0  0  0  0  0  0  0  0  0
    9.9885   14.6996   61.8390 C   0  0  0  0  0  0  0  0  0  0  0  0
    8.6338   15.4052   61.9587 C   0  0  0  0  0  0  0  0  0  0  0  0
    8.1473   15.4732   63.4112 C   0  0  0  0  0  0  0  0  0  0  0  0
    6.9093   16.2475   63.4712 N   0  0  0  0  0  0  0  0  0  0  0  0
    5.6058   15.6968   63.8468 C   0  0  0  0  0  0  0  0  0  0  0  0
    4.7627   16.6748   64.6768 C   0  0  0  0  0  0  0  0  0  0  0  0
    3.3976   16.0758   65.0306 C   0  0  0  0  0  0  0  0  0  0  0  0
    2.6506   17.0242   65.8515 N   0  0  0  0  0  0  0  0  0  0  0  0
  1  2  1  0  0  0  0
  2  3  1  0  0  0  0
  3  4  1  0  0  0  0
  4  5  1  0  0  0  0
  5  6  1  0  0  0  0
  6  7  1  0  0  0  0
  7  8  1  0  0  0  0
  8  9  1  0  0  0  0
  9 10  1  0  0  0  0
 10 11  1  0  0  0  0
 11 12  1  0  0  0  0
 12 13  1  0  0  0  0
 13 14  1  0  0  0  0
M  END
>  <CHROM.1>
62.96603453,-178.95452085,172.70877433,-156.74493517,173.72635474,-66.61881420
175.52038495,114.40773876,142.81732789,178.99724295,178.31045752,9.48019116
15.34500021,63.72473029,-0.08558363,-0.19082415,1.51551125

>  <Name>
ligand

>  <RI>
0

>  <Rbt.Current_Directory>
/home/itssahil/PROJECTS/Mol_Feturizer/New_Systems/rnas/4FAW

>  <Rbt.Executable>
rbdock ($Id: //depot/dev/client3/rdock/2013.1/src/exe/rbdock.cxx#4 $)

>  <Rbt.Library>
libRbt.so (2013.1, Build901 2013/11/27)

>  <Rbt.Parameter_File>
/export/apps/rDock/src/rDock_2013.1_src/data/scripts/dock_solv.prm

>  <Rbt.Receptor>
prm/blind_docking_100.prm

>  <SCORE>
-9.9283

>  <SCORE.INTER>
-1.15038

>  <SCORE.INTER.CONST>
1

>  <SCORE.INTER.POLAR>
0

>  <SCORE.INTER.ROT>
11

>  <SCORE.INTER.SOLV>
6.91565

>  <SCORE.INTER.VDW>
-14.0055

>  <SCORE.INTER.norm>
-0.0821698

>  <SCORE.INTRA>
-8.77792

>  <SCORE.INTRA.DIHEDRAL>
-16.2128

>  <SCORE.INTRA.DIHEDRAL.0>
19.1003

>  <SCORE.INTRA.POLAR>
0

>  <SCORE.INTRA.POLAR.0>
0

>  <SCORE.INTRA.REPUL>
0

>  <SCORE.INTRA.REPUL.0>
0

>  <SCORE.INTRA.SOLV>
-0.552247

>  <SCORE.INTRA.SOLV.lig_0>
-47.5333

>  <SCORE.INTRA.VDW>
-0.395397

>  <SCORE.INTRA.VDW.0>
-0.287413

>  <SCORE.INTRA.norm>
-0.626995

>  <SCORE.RESTR>
0

>  <SCORE.RESTR.CAVITY>
0

>  <SCORE.RESTR.norm>
0

>  <SCORE.SYSTEM>
0

>  <SCORE.SYSTEM.CONST>
0

>  <SCORE.SYSTEM.DIHEDRAL>
0

>  <SCORE.SYSTEM.SOLV>
0

>  <SCORE.SYSTEM.norm>
0

>  <SCORE.heavy>
14

>  <SCORE.norm>
-0.709164

>  <RMSD>
79.661

$$$$
ligand
 OpenBabel11021811493D
libRbt.so/2013.1/901 2013/11/27
 14 13  0  0  0  0  0  0  0  0999 V2000
   13.9321   15.2470   65.3558 N   0  0  0  0  0  0  0  0  0  0  0  0
   13.9121   13.9331   65.9602 C   0  0  0  0  0  0  0  0  0  0  0  0
   12.7719   13.8717   66.9973 C   0  0  0  0  0  0  0  0  0  0  0  0
   12.6386   12.5110   67.6987 C   0  0  0  0  0  0  0  0  0  0  0  0
   13.8208   12.0580   68.4476 N   0  0  0  0  0  0  0  0  0  0  0  0
   13.8701   10.8059   69.2003 C   0  0  0  0  0  0  0  0  0  0  0  0
   15.1179   10.6799   70.0684 C   0  0  0  0  0  0  0  0  0  0  0  0
   16.4248   10.6865   69.2689 C   0  0  0  0  0  0  0  0  0  0  0  0
   16.7641   12.0824   68.7330 C   0  0  0  0  0  0  0  0  0  0  0  0
   17.0745   12.9685   69.8529 N   0  0  0  0  0  0  0  0  0  0  0  0
   18.2505   13.8380   69.9193 C   0  0  0  0  0  0  0  0  0  0  0  0
   18.5304   14.3540   71.3376 C   0  0  0  0  0  0  0  0  0  0  0  0
   18.7894   13.2001   72.3118 C   0  0  0  0  0  0  0  0  0  0  0  0
   20.0316   12.5264   71.9453 N   0  0  0  0  0  0  0  0  0  0  0  0
  1  2  1  0  0  0  0
  2  3  1  0  0  0  0
  3  4  1  0  0  0  0
  4  5  1  0  0  0  0
  5  6  1  0  0  0  0
  6  7  1  0  0  0  0
  7  8  1  0  0  0  0
  8  9  1  0  0  0  0
  9 10  1  0  0  0  0
 10 11  1  0  0  0  0
 11 12  1  0  0  0  0
 12 13  1  0  0  0  0
 13 14  1  0  0  0  0
M  END
>  <CHROM.1>
179.30007027,59.59005469,178.64758836,-170.53559087,-61.65290645,73.35602168
67.10277373,131.46157884,-164.14025067,60.36455650,66.29256136,15.85190682
12.76857653,69.07844207,-2.73034965,0.57983040,2.55330794

>  <Name>
ligand

>  <RI>
0

>  <Rbt.Current_Directory>
/home/itssahil/PROJECTS/Mol_Feturizer/New_Systems/rnas/4FAW

>  <Rbt.Executable>
rbdock ($Id: //depot/dev/client3/rdock/2013.1/src/exe/rbdock.cxx#4 $)

>  <Rbt.Library>
libRbt.so (2013.1, Build901 2013/11/27)

>  <Rbt.Parameter_File>
/export/apps/rDock/src/rDock_2013.1_src/data/scripts/dock_solv.prm

>  <Rbt.Receptor>
prm/blind_docking_100.prm

>  <SCORE>
-7.28555

>  <SCORE.INTER>
0.574796

>  <SCORE.INTER.CONST>
1

>  <SCORE.INTER.POLAR>
0

>  <SCORE.INTER.ROT>
11

>  <SCORE.INTER.SOLV>
8.31763

>  <SCORE.INTER.VDW>
-13.3227

>  <SCORE.INTER.norm>
0.0410568

>  <SCORE.INTRA>
-7.86035

>  <SCORE.INTRA.DIHEDRAL>
-16.6675

>  <SCORE.INTRA.DIHEDRAL.0>
19.1003

>  <SCORE.INTRA.POLAR>
0

>  <SCORE.INTRA.POLAR.0>
0

>  <SCORE.INTRA.REPUL>
0

>  <SCORE.INTRA.REPUL.0>
0

>  <SCORE.INTRA.SOLV>
2.49634

>  <SCORE.INTRA.SOLV.lig_0>
-47.5333

>  <SCORE.INTRA.VDW>
-0.774747

>  <SCORE.INTRA.VDW.0>
-0.287413

>  <SCORE.INTRA.norm>
-0.561453

>  <SCORE.RESTR>
0

>  <SCORE.RESTR.CAVITY>
0

>  <SCORE.RESTR.norm>
0

>  <SCORE.SYSTEM>
0

>  <SCORE.SYSTEM.CONST>
0

>  <SCORE.SYSTEM.DIHEDRAL>
0

>  <SCORE.SYSTEM.SOLV>
0

>  <SCORE.SYSTEM.norm>
0

>  <SCORE.heavy>
14

>  <SCORE.norm>
-0.520397

>  <RMSD>
80.269

$$$$
ligand
 OpenBabel11021811493D
libRbt.so/2013.1/901 2013/11/27
 14 13  0  0  0  0  0  0  0  0999 V2000
   12.5559   15.6488   65.1315 N   0  0  0  0  0  0  0  0  0  0  0  0
   13.8311   15.4822   64.4696 C   0  0  0  0  0  0  0  0  0  0  0  0
   13.7847   14.2114   63.5964 C   0  0  0  0  0  0  0  0  0  0  0  0
   12.8603   14.3272   62.3745 C   0  0  0  0  0  0  0  0  0  0  0  0
   11.4357   14.5469   62.6675 N   0  0  0  0  0  0  0  0  0  0  0  0
   10.3934   14.5681   61.6427 C   0  0  0  0  0  0  0  0  0  0  0  0
    9.2424   15.5099   61.9814 C   0  0  0  0  0  0  0  0  0  0  0  0
    8.3527   15.0060   63.1225 C   0  0  0  0  0  0  0  0  0  0  0  0
    7.1602   15.9359   63.3753 C   0  0  0  0  0  0  0  0  0  0  0  0
    6.2904   15.3430   64.3889 N   0  0  0  0  0  0  0  0  0  0  0  0
    4.8898   15.7145   64.5980 C   0  0  0  0  0  0  0  0  0  0  0  0
    4.7307   17.0921   65.2560 C   0  0  0  0  0  0  0  0  0  0  0  0
    3.2570   17.5013   65.3482 C   0  0  0  0  0  0  0  0  0  0  0  0
    2.5609   16.6017   66.2633 N   0  0  0  0  0  0  0  0  0  0  0  0
  1  2  1  0  0  0  0
  2  3  1  0  0  0  0
  3  4  1  0  0  0  0
  4  5  1  0  0  0  0
  5  6  1  0  0  0  0
  6  7  1  0  0  0  0
  7  8  1  0  0  0  0
  8  9  1  0  0  0  0
  9 10  1  0  0  0  0
 10 11  1  0  0  0  0
 11 12  1  0  0  0  0
 12 13  1  0  0  0  0
 13 14  1  0  0  0  0
M  END
>  <CHROM.1>
69.09392118,-62.21257818,-174.59267250,-148.09615248,-71.35512468,-176.50785742
175.04165193,-160.64769364,-72.81674332,175.04399540,66.08132429,8.66771112
15.53493809,63.87225033,-0.26873589,-0.12008654,1.21398444

>  <Name>
ligand

>  <RI>
0

>  <Rbt.Current_Directory>
/home/itssahil/PROJECTS/Mol_Feturizer/New_Systems/rnas/4FAW

>  <Rbt.Executable>
rbdock ($Id: //depot/dev/client3/rdock/2013.1/src/exe/rbdock.cxx#4 $)

>  <Rbt.Library>
libRbt.so (2013.1, Build901 2013/11/27)

>  <Rbt.Parameter_File>
/export/apps/rDock/src/rDock_2013.1_src/data/scripts/dock_solv.prm

>  <Rbt.Receptor>
prm/blind_docking_80.prm

>  <SCORE>
-9.33316

>  <SCORE.INTER>
-1.26559

>  <SCORE.INTER.CONST>
1

>  <SCORE.INTER.POLAR>
0

>  <SCORE.INTER.ROT>
11

>  <SCORE.INTER.SOLV>
6.83052

>  <SCORE.INTER.VDW>
-14.0539

>  <SCORE.INTER.norm>
-0.0903994

>  <SCORE.INTRA>
-8.06757

>  <SCORE.INTRA.DIHEDRAL>
-16.8303

>  <SCORE.INTRA.DIHEDRAL.0>
19.1003

>  <SCORE.INTRA.POLAR>
0

>  <SCORE.INTRA.POLAR.0>
0

>  <SCORE.INTRA.REPUL>
0

>  <SCORE.INTRA.REPUL.0>
0

>  <SCORE.INTRA.SOLV>
2.36288

>  <SCORE.INTRA.SOLV.lig_0>
-47.5333

>  <SCORE.INTRA.VDW>
-0.83387

>  <SCORE.INTRA.VDW.0>
-0.287413

>  <SCORE.INTRA.norm>
-0.576255

>  <SCORE.RESTR>
0

>  <SCORE.RESTR.CAVITY>
0

>  <SCORE.RESTR.norm>
0

>  <SCORE.SYSTEM>
0

>  <SCORE.SYSTEM.CONST>
0

>  <SCORE.SYSTEM.DIHEDRAL>
0

>  <SCORE.SYSTEM.SOLV>
0

>  <SCORE.SYSTEM.norm>
0

>  <SCORE.heavy>
14

>  <SCORE.norm>
-0.666655

>  <RMSD>
80.290

$$$$
