@<TRIPOS>MOLECULE
4FAW_rdock.pdb
 8356 9364 0 0 0
SMALL
GASTEIGER

@<TRIPOS>ATOM
      1  C5'       27.8240   25.3030   30.0820 C.3     2  U2          0.2141
      2  O5'       27.4920   24.3090   29.0910 O.3     2  U2         -0.2176
      3  C4'       26.6560   26.2420   30.2720 C.3     2  U2          0.1802
      4  O4'       26.7530   26.9310   31.5510 O.3     2  U2         -0.3306
      5  C3'       26.5100   27.3250   29.2120 C.3     2  U2          0.1861
      6  O3'       25.1410   27.4550   28.8270 O.3     2  U2         -0.3112
      7  C2'       27.0920   28.5630   29.8990 C.3     2  U2          0.2309
      8  O2'       26.6140   29.7720   29.3390 O.3     2  U2         -0.2156
      9  C1'       26.6680   28.3310   31.3530 C.3     2  U2          0.2420
     10  N1        27.4980   28.9810   32.3830 N.ar    2  U2         -0.2534
     11  C2        27.1320   30.2400   32.8310 C.ar    2  U2          0.3546
     12  O2        26.1810   30.8570   32.3790 O.2     2  U2         -0.2443
     13  N3        27.9400   30.7570   33.8150 N.ar    2  U2         -0.1530
     14  C4        29.0400   30.1580   34.3980 C.ar    2  U2          0.2846
     15  O4        29.6660   30.7590   35.2730 O.2     2  U2         -0.2650
     16  C5        29.3420   28.8530   33.8940 C.ar    2  U2          0.0814
     17  C6        28.5750   28.3190   32.9340 C.ar    2  U2          0.0870
     18  P         23.7700   26.6900   29.2960 P.3     3  G3          0.2141
     19  C5'       23.4490   28.8870   27.9040 C.3     3  G3          0.1812
     20  O5'       22.9400   27.5840   28.2720 O.3     3  G3         -0.3114
     21  C4'       22.6670   29.4700   26.7610 C.3     3  G3          0.1773
     22  O4'       23.2690   29.0490   25.5130 O.3     3  G3         -0.3307
     23  C3'       21.2160   29.0300   26.6660 C.3     3  G3          0.1860
     24  O3'       20.3970   29.9900   27.2850 O.3     3  G3         -0.3112
     25  C2'       20.9400   29.1560   25.1800 C.3     3  G3          0.2309
     26  O2'       20.6540   30.4650   24.7610 O.3     3  G3         -0.2156
     27  C1'       22.2580   28.6740   24.5990 C.3     3  G3          0.2408
     28  N1        19.9080   24.6000   22.7420 N.ar    3  G3         -0.1709
     29  C2        19.6150   25.9290   22.5650 C.ar    3  G3          0.2606
     30  N2        18.5770   26.2060   21.7720 N.pl3   3  G3         -0.0859
     31  N3        20.3120   26.9150   23.1030 N.ar    3  G3         -0.1918
     32  C4        21.3170   26.4570   23.8770 C.ar    3  G3          0.1723
     33  C5        21.6850   25.1540   24.1260 C.ar    3  G3          0.1748
     34  C6        20.9430   24.1090   23.5290 C.ar    3  G3          0.3023
     35  O6        21.0990   22.8960   23.6490 O.2     3  G3         -0.2633
     36  N7        22.7910   25.1050   24.9610 N.ar    3  G3         -0.2173
     37  C8        23.0800   26.3570   25.1880 C.ar    3  G3          0.1817
     38  N9        22.2370   27.2270   24.5410 N.ar    3  G3         -0.2693
     39  OP1       23.3230   27.0640   30.6720 O.3     3  G3         -0.4373
     40  OP2       23.6930   25.2650   28.8620 O.co2   3  G3         -0.5172
     41  P         19.2780   29.5590   28.3130 P.3     4  U4          0.2141
     42  C5'       17.8790   29.2310   26.1120 C.3     4  U4          0.1812
     43  O5'       18.3350   28.7270   27.3470 O.3     4  U4         -0.3114
     44  C4'       16.9710   28.1920   25.5190 C.3     4  U4          0.1773
     45  O4'       17.7970   27.2220   24.8240 O.3     4  U4         -0.3307
     46  C3'       16.1490   27.3940   26.5300 C.3     4  U4          0.1860
     47  O3'       14.8360   27.9410   26.5820 O.3     4  U4         -0.3112
     48  C2'       16.0030   26.0360   25.8450 C.3     4  U4          0.2309
     49  O2'       14.9500   26.0940   24.9110 O.3     4  U4         -0.2156
     50  C1'       17.3010   25.9220   25.0380 C.3     4  U4          0.2420
     51  N1        18.3400   25.1410   25.7120 N.ar    4  U4         -0.2534
     52  C2        18.3770   23.7760   25.4780 C.ar    4  U4          0.3546
     53  O2        17.6120   23.2160   24.7170 O.2     4  U4         -0.2443
     54  N3        19.3740   23.1030   26.1360 N.ar    4  U4         -0.1530
     55  C4        20.2980   23.6310   27.0040 C.ar    4  U4          0.2846
     56  O4        21.1050   22.8850   27.5540 O.2     4  U4         -0.2650
     57  C5        20.1730   25.0450   27.2220 C.ar    4  U4          0.0814
     58  C6        19.2310   25.7350   26.5710 C.ar    4  U4          0.0870
     59  OP1       18.6620   30.8860   28.6040 O.2     4  U4         -0.5172
     60  OP2       19.6580   28.6870   29.4710 O.co2   4  U4         -0.4373
     61  P         13.7420   27.9700   27.7320 P.3     5  G5          0.2141
     62  C5'       12.5310   25.7440   26.7740 C.3     5  G5          0.1812
     63  O5'       12.9860   26.5760   27.8700 O.3     5  G5         -0.3114
     64  C4'       12.4310   24.3150   27.2900 C.3     5  G5          0.1773
     65  O4'       13.7730   23.7520   27.3640 O.3     5  G5         -0.3307
     66  C3'       11.8320   24.1460   28.6860 C.3     5  G5          0.1860
     67  O3'       11.0770   22.9750   28.9680 O.3     5  G5         -0.3112
     68  C2'       13.0540   24.0000   29.5690 C.3     5  G5          0.2309
     69  O2'       12.8280   23.1520   30.6580 O.3     5  G5         -0.2156
     70  C1'       14.0170   23.2620   28.6580 C.3     5  G5          0.2408
     71  N1        18.8190   21.7390   29.4570 N.ar    5  G5         -0.1709
     72  C2        17.7530   21.0060   29.0040 C.ar    5  G5          0.2606
     73  N2        17.9900   19.7090   28.7570 N.pl3   5  G5         -0.0859
     74  N3        16.5390   21.5020   28.8280 N.ar    5  G5         -0.1918
     75  C4        16.4840   22.8200   29.1240 C.ar    5  G5          0.1723
     76  C5        17.4960   23.6400   29.5710 C.ar    5  G5          0.1748
     77  C6        18.7790   23.0880   29.7870 C.ar    5  G5          0.3023
     78  O6        19.7960   23.6500   30.1930 O.2     5  G5         -0.2633
     79  N7        17.0260   24.9240   29.7930 N.ar    5  G5         -0.2173
     80  C8        15.7700   24.8750   29.4450 C.ar    5  G5          0.1817
     81  N9        15.3730   23.6300   29.0340 N.ar    5  G5         -0.2693
     82  OP1       12.6680   28.9030   27.2870 O.2     5  G5         -0.5172
     83  OP2       14.3450   28.0790   29.0710 O.co2   5  G5         -0.4373
     84  P          9.7570   22.5180   28.1820 P.3     6  C6          0.2141
     85  C5'        8.7510   23.1110   30.5100 C.3     6  C6          0.1812
     86  O5'        8.5460   22.8950   29.1280 O.3     6  C6         -0.3114
     87  C4'        7.4260   23.5490   31.0620 C.3     6  C6          0.1773
     88  O4'        7.3530   24.9980   30.9660 O.3     6  C6         -0.3307
     89  C3'        6.2400   23.0520   30.2430 C.3     6  C6          0.1860
     90  O3'        5.8490   21.7570   30.6740 O.3     6  C6         -0.3112
     91  C2'        5.1940   24.1130   30.5280 C.3     6  C6          0.2309
     92  O2'        4.6340   23.9750   31.8120 O.3     6  C6         -0.2156
     93  C1'        6.0510   25.3780   30.5570 C.3     6  C6          0.2420
     94  N1         6.1130   26.0190   29.2280 N.ar    6  C6         -0.2535
     95  C2         5.0060   26.7660   28.8110 C.ar    6  C6          0.3532
     96  O2         4.0580   26.9160   29.5920 O.2     6  C6         -0.2443
     97  N3         4.9780   27.2680   27.5630 N.ar    6  C6         -0.1739
     98  C4         6.0190   27.0920   26.7510 C.ar    6  C6          0.1759
     99  N4         5.9780   27.6770   25.5520 N.pl3   6  C6         -0.1070
    100  C5         7.1670   26.3420   27.1480 C.ar    6  C6          0.0566
    101  C6         7.1660   25.8150   28.3810 C.ar    6  C6          0.0850
    102  OP1        9.7340   21.0250   28.1410 O.3     6  C6         -0.4373
    103  OP2        9.6330   23.2940   26.9190 O.co2   6  C6         -0.5172
    104  P          4.8960   20.8140   29.7790 P.3     7  C7          0.2141
    105  C5'        2.6460   21.7080   30.8500 C.3     7  C7          0.1812
    106  O5'        3.5390   21.6470   29.7570 O.3     7  C7         -0.3114
    107  C4'        1.3530   22.2420   30.3170 C.3     7  C7          0.1773
    108  O4'        1.5240   23.6380   29.9380 O.3     7  C7         -0.3307
    109  C3'        0.8520   21.6030   29.0310 C.3     7  C7          0.1860
    110  O3'        0.2430   20.3450   29.3110 O.3     7  C7         -0.3112
    111  C2'       -0.1320   22.6640   28.5670 C.3     7  C7          0.2309
    112  O2'       -1.2030   22.6970   29.4830 O.3     7  C7         -0.2156
    113  C1'        0.6740   23.9380   28.8350 C.3     7  C7          0.2420
    114  N1         1.5110   24.3210   27.6790 N.ar    7  C7         -0.2535
    115  C2         0.9160   25.0140   26.6220 C.ar    7  C7          0.3532
    116  O2        -0.2850   25.3020   26.6950 O.2     7  C7         -0.2443
    117  N3         1.6620   25.3430   25.5450 N.ar    7  C7         -0.1739
    118  C4         2.9530   25.0200   25.5060 C.ar    7  C7          0.1759
    119  N4         3.6530   25.3910   24.4370 N.pl3   7  C7         -0.1070
    120  C5         3.5900   24.3340   26.5760 C.ar    7  C7          0.0566
    121  C6         2.8370   23.9940   27.6270 C.ar    7  C7          0.0850
    122  OP1        4.6660   19.5800   30.5830 O.3     7  C7         -0.4373
    123  OP2        5.2500   20.7330   28.3240 O.co2   7  C7         -0.5172
    124  P         -0.2690   19.2770   28.2290 P.3     8  C8          0.2141
    125  C5'       -2.7410   20.1580   27.7080 C.3     8  C8          0.1812
    126  O5'       -1.3210   20.1380   27.3990 O.3     8  C8         -0.3114
    127  C4'       -3.4520   20.8290   26.5640 C.3     8  C8          0.1773
    128  O4'       -2.7740   22.0820   26.2580 O.3     8  C8         -0.3307
    129  C3'       -3.3180   20.0860   25.2520 C.3     8  C8          0.1860
    130  O3'       -4.1420   18.9390   25.2130 O.3     8  C8         -0.3112
    131  C2'       -3.6040   21.1800   24.2320 C.3     8  C8          0.2309
    132  O2'       -4.9600   21.5090   24.0870 O.3     8  C8         -0.2156
    133  C1'       -2.9310   22.3850   24.8810 C.3     8  C8          0.2420
    134  N1        -1.6130   22.6480   24.2930 N.ar    8  C8         -0.2535
    135  C2        -1.5580   23.2720   23.0380 C.ar    8  C8          0.3532
    136  O2        -2.6140   23.6010   22.4880 O.2     8  C8         -0.2443
    137  N3        -0.3570   23.5010   22.4630 N.ar    8  C8         -0.1739
    138  C4         0.7640   23.1330   23.0900 C.ar    8  C8          0.1759
    139  N4         1.9240   23.3750   22.4790 N.pl3   8  C8         -0.1070
    140  C5         0.7410   22.4860   24.3660 C.ar    8  C8          0.0566
    141  C6        -0.4600   22.2590   24.9230 C.ar    8  C8          0.0850
    142  OP1       -1.0060   18.2490   29.0180 O.3     8  C8         -0.4373
    143  OP2        0.8240   18.8850   27.3210 O.co2   8  C8         -0.5172
    144  P         -3.8600   17.8240   24.0840 P.3     9  G9          0.2141
    145  C5'       -5.1710   18.7380   21.9990 C.3     9  G9          0.1812
    146  O5'       -3.9150   18.4620   22.6270 O.3     9  G9         -0.3114
    147  C4'       -4.9440   19.6260   20.8090 C.3     9  G9          0.1773
    148  O4'       -4.0040   20.6670   21.1610 O.3     9  G9         -0.3307
    149  C3'       -4.2350   18.9720   19.6380 C.3     9  G9          0.1860
    150  O3'       -5.0220   18.1070   18.8510 O.3     9  G9         -0.3112
    151  C2'       -3.7770   20.1840   18.8440 C.3     9  G9          0.2309
    152  O2'       -4.7220   20.7520   17.9510 O.3     9  G9         -0.2156
    153  C1'       -3.3390   21.1060   19.9810 C.3     9  G9          0.2408
    154  N1         1.1750   21.9680   17.8910 N.ar    9  G9         -0.1709
    155  C2        -0.0810   22.2180   17.4010 C.ar    9  G9          0.2606
    156  N2        -0.1410   22.7590   16.1770 N.pl3   9  G9         -0.0859
    157  N3        -1.1940   21.9220   18.0420 N.ar    9  G9         -0.1918
    158  C4        -0.9490   21.3850   19.2530 C.ar    9  G9          0.1723
    159  C5         0.2660   21.1230   19.8490 C.ar    9  G9          0.1748
    160  C6         1.4530   21.4300   19.1410 C.ar    9  G9          0.3023
    161  O6         2.6310   21.2650   19.4940 O.2     9  G9         -0.2633
    162  N7         0.0860   20.5540   21.1010 N.ar    9  G9         -0.2173
    163  C8        -1.2120   20.5090   21.2540 C.ar    9  G9          0.1817
    164  N9        -1.8970   21.0170   20.1770 N.ar    9  G9         -0.2693
    165  OP1       -5.0610   16.9830   24.2880 O.3     9  G9         -0.4373
    166  OP2       -2.4920   17.2660   24.2440 O.co2   9  G9         -0.5172
    167  P         -4.2930   16.7880   18.2940 P.3    10  G10         0.2141
    168  C5'       -4.1290   17.8560   15.9130 C.3    10  G10         0.1812
    169  O5'       -3.4510   17.2760   17.0360 O.3    10  G10        -0.3114
    170  C4'       -3.1450   18.4800   14.9530 C.3    10  G10         0.1773
    171  O4'       -2.1800   19.2980   15.6690 O.3    10  G10        -0.3307
    172  C3'       -2.2630   17.5010   14.2290 C.3    10  G10         0.1860
    173  O3'       -3.0490   16.8580   13.2410 O.3    10  G10        -0.3112
    174  C2'       -1.1300   18.4030   13.7460 C.3    10  G10         0.2309
    175  O2'       -1.4970   19.0530   12.5510 O.3    10  G10        -0.2156
    176  C1'       -0.9810   19.3820   14.9170 C.3    10  G10         0.2408
    177  N1         4.0390   19.7110   15.6760 N.ar   10  G10        -0.1709
    178  C2         3.2950   20.1130   14.5940 C.ar   10  G10         0.2606
    179  N2         3.9750   20.6630   13.5770 N.pl3  10  G10        -0.0859
    180  N3         1.9800   19.9700   14.5070 N.ar   10  G10        -0.1918
    181  C4         1.4600   19.4010   15.6130 C.ar   10  G10         0.1723
    182  C5         2.1140   18.9800   16.7510 C.ar   10  G10         0.1748
    183  C6         3.5210   19.1240   16.8260 C.ar   10  G10         0.3023
    184  O6         4.2780   18.7990   17.7470 O.2    10  G10        -0.2633
    185  N7         1.2170   18.4400   17.6640 N.ar   10  G10        -0.2173
    186  C8         0.0560   18.5480   17.0770 C.ar   10  G10         0.1817
    187  N9         0.1340   19.1040   15.8210 N.ar   10  G10        -0.2693
    188  OP1       -5.4810   15.9840   17.8830 O.2    10  G10        -0.5172
    189  OP2       -3.3620   16.2600   19.3280 O.co2  10  G10        -0.4373
    190  P         -2.8840   15.2430   13.0890 P.3    11  C11         0.2141
    191  C5'       -1.4420   15.8870   10.9820 C.3    11  C11         0.1812
    192  O5'       -1.6430   15.0270   12.1160 O.3    11  C11        -0.3114
    193  C4'        0.0340   16.0300   10.7200 C.3    11  C11         0.1773
    194  O4'        0.6240   16.8220   11.7690 O.3    11  C11        -0.3307
    195  C3'        0.8540   14.7540   10.8120 C.3    11  C11         0.1860
    196  O3'        0.8190   13.9680    9.6300 O.3    11  C11        -0.3112
    197  C2'        2.2580   15.2990   10.9800 C.3    11  C11         0.2309
    198  O2'        2.8280   15.6990    9.7600 O.3    11  C11        -0.2156
    199  C1'        2.0070   16.5530   11.8070 C.3    11  C11         0.2420
    200  N1         2.4350   16.3510   13.1920 N.ar   11  C11        -0.2535
    201  C2         3.7620   16.6550   13.4890 C.ar   11  C11         0.3532
    202  O2         4.4820   17.1220   12.5880 O.2    11  C11        -0.2443
    203  N3         4.2270   16.4460   14.7440 N.ar   11  C11        -0.1739
    204  C4         3.4120   15.9630   15.6830 C.ar   11  C11         0.1759
    205  N4         3.9200   15.7620   16.9000 N.pl3  11  C11        -0.1070
    206  C5         2.0510   15.6260   15.4030 C.ar   11  C11         0.0566
    207  C6         1.6160   15.8160   14.1490 C.ar   11  C11         0.0850
    208  OP1       -4.0670   14.7720   12.3180 O.2    11  C11        -0.5172
    209  OP2       -2.5200   14.6100   14.3910 O.co2  11  C11        -0.4373
    210  P          1.0320   12.3730    9.7210 P.3    12  A12         0.2141
    211  C5'        3.3490   11.4260    8.9300 C.3    12  A12         0.1812
    212  O5'        2.6210   12.3290    9.7350 O.3    12  A12        -0.3114
    213  C4'        4.7170   11.9960    8.7020 C.3    12  A12         0.1773
    214  O4'        5.3620   12.2980    9.9790 O.3    12  A12        -0.3307
    215  C3'        5.6630   11.0570    7.9640 C.3    12  A12         0.1860
    216  O3'        6.4270   11.8340    7.0630 O.3    12  A12        -0.3112
    217  C2'        6.5300   10.5030    9.0880 C.3    12  A12         0.2309
    218  O2'        7.7800    9.9940    8.6520 O.3    12  A12        -0.2156
    219  C1'        6.6510   11.7270    9.9920 C.3    12  A12         0.2408
    220  N1        10.4270   11.3670   13.4320 N.ar   12  A12        -0.2040
    221  C2        10.3840   11.8610   12.1870 C.ar   12  A12         0.2016
    222  N3         9.3540   11.9270   11.3420 N.ar   12  A12        -0.2048
    223  C4         8.2480   11.4040   11.9020 C.ar   12  A12         0.1692
    224  C5         8.1400   10.8490   13.1650 C.ar   12  A12         0.1518
    225  C6         9.2980   10.8340   13.9560 C.ar   12  A12         0.1919
    226  N6         9.3390   10.3410   15.1950 N.pl3  12  A12        -0.1054
    227  N7         6.8460   10.4050   13.3980 N.ar   12  A12        -0.2193
    228  C8         6.2060   10.7090   12.2930 C.ar   12  A12         0.1816
    229  N9         6.9900   11.3390   11.3550 N.ar   12  A12        -0.2693
    230  OP1        0.4900   11.8440    8.4310 O.2    12  A12        -0.5172
    231  OP2        0.5980   11.7920   11.0370 O.co2  12  A12        -0.4373
    232  P          6.8340   11.1570    5.6990 P.3    13  U13         0.2141
    233  C5'        9.3390   10.6440    5.1360 C.3    13  U13         0.1812
    234  O5'        8.3190   11.6190    5.3600 O.3    13  U13        -0.3114
    235  C4'       10.6090   11.0530    5.8290 C.3    13  U13         0.1773
    236  O4'       10.8570   12.4590    5.5650 O.3    13  U13        -0.3307
    237  C3'       10.5910   10.9190    7.3460 C.3    13  U13         0.1860
    238  O3'       11.9260   10.7310    7.8230 O.3    13  U13        -0.3112
    239  C2'       10.1290   12.2980    7.7850 C.3    13  U13         0.2309
    240  O2'       10.5650   12.5970    9.0890 O.3    13  U13        -0.2156
    241  C1'       10.8810   13.1750    6.7890 C.3    13  U13         0.2420
    242  N1        10.2850   14.5000    6.5670 N.ar   13  U13        -0.2534
    243  C2        11.0430   15.6140    6.8780 C.ar   13  U13         0.3546
    244  O2        12.1670   15.5430    7.3380 O.2    13  U13        -0.2443
    245  N3        10.4310   16.8160    6.6270 N.ar   13  U13        -0.1530
    246  C4         9.1710   17.0190    6.1070 C.ar   13  U13         0.2846
    247  O4         8.7600   18.1700    5.9380 O.2    13  U13        -0.2650
    248  C5         8.4560   15.8190    5.8030 C.ar   13  U13         0.0814
    249  C6         9.0240   14.6300    6.0340 C.ar   13  U13         0.0870
    250  OP1        5.7830   11.7690    4.8330 O.2    13  U13        -0.5172
    251  OP2        6.9070    9.6890    5.9000 O.co2  13  U13        -0.4373
    252  P         12.6150    9.2850    7.6890 P.3    14  G14         0.2141
    253  C5'       13.7360    8.7870    9.9960 C.3    14  G14         0.1812
    254  O5'       12.5710    8.6640    9.1570 O.3    14  G14        -0.3114
    255  C4'       13.4330    8.2810   11.3810 C.3    14  G14         0.1773
    256  O4'       12.3260    9.0390   11.9420 O.3    14  G14        -0.3307
    257  C3'       12.9370    6.8450   11.4600 C.3    14  G14         0.1860
    258  O3'       13.9700    5.8740   11.4170 O.3    14  G14        -0.3112
    259  C2'       12.2410    6.8400   12.8090 C.3    14  G14         0.2309
    260  O2'       13.1450    6.7500   13.9040 O.3    14  G14        -0.2156
    261  C1'       11.5260    8.1850   12.7490 C.3    14  G14         0.2408
    262  N1         6.7220    6.6130   13.2320 N.ar   14  G14        -0.1709
    263  C2         7.7760    6.4300   14.0890 C.ar   14  G14         0.2606
    264  N2         7.5150    5.7250   15.2030 N.pl3  14  G14        -0.0859
    265  N3         8.9970    6.8980   13.8660 N.ar   14  G14        -0.1918
    266  C4         9.0730    7.5570   12.6890 C.ar   14  G14         0.1723
    267  C5         8.0730    7.7940   11.7700 C.ar   14  G14         0.1748
    268  C6         6.7800    7.3080   12.0290 C.ar   14  G14         0.3023
    269  O6         5.7640    7.4390   11.3430 O.2    14  G14        -0.2633
    270  N7         8.5520    8.5270   10.6980 N.ar   14  G14        -0.2173
    271  C8         9.8230    8.6810   10.9540 C.ar   14  G14         0.1817
    272  N9        10.2050    8.1190   12.1460 N.ar   14  G14        -0.2693
    273  OP1       14.0740    9.3990    7.4190 O.3    14  G14        -0.4373
    274  OP2       11.7120    8.5900    6.7230 O.co2  14  G14        -0.5172
    275  P         13.7430    4.5690   10.5040 P.3    15  G15         0.2141
    276  C5'       13.3650    3.3820   12.8320 C.3    15  G15         0.1812
    277  O5'       12.8980    3.6580   11.5000 O.3    15  G15        -0.3114
    278  C4'       12.2130    2.8570   13.6540 C.3    15  G15         0.1773
    279  O4'       11.0820    3.7670   13.5810 O.3    15  G15        -0.3307
    280  C3'       11.5750    1.5700   13.1610 C.3    15  G15         0.1860
    281  O3'       12.3750    0.4190   13.3980 O.3    15  G15        -0.3112
    282  C2'       10.2610    1.5730   13.9320 C.3    15  G15         0.2309
    283  O2'       10.5190    1.2130   15.2700 O.3    15  G15        -0.2156
    284  C1'        9.8920    3.0580   13.9000 C.3    15  G15         0.2408
    285  N1         5.0090    2.5310   12.6320 N.ar   15  G15        -0.1709
    286  C2         5.7050    1.9920   13.6890 C.ar   15  G15         0.2606
    287  N2         4.9950    1.2260   14.5340 N.pl3  15  G15        -0.0859
    288  N3         6.9950    2.2130   13.9190 N.ar   15  G15        -0.1918
    289  C4         7.5390    3.0270   12.9930 C.ar   15  G15         0.1723
    290  C5         6.9380    3.6020   11.8890 C.ar   15  G15         0.1748
    291  C6         5.5510    3.3690   11.6620 C.ar   15  G15         0.3023
    292  O6         4.8320    3.8000   10.7460 O.2    15  G15        -0.2633
    293  N7         7.8590    4.3330   11.1520 N.ar   15  G15        -0.2173
    294  C8         8.9790    4.1960   11.8110 C.ar   15  G15         0.1817
    295  N9         8.8540    3.4100   12.9340 N.ar   15  G15        -0.2693
    296  OP1       15.1570    4.1300   10.4070 O.3    15  G15        -0.4373
    297  OP2       12.9160    4.8100    9.2660 O.co2  15  G15        -0.5172
    298  P         12.4130   -0.7430   12.2670 P.3    16  G16         0.2141
    299  C5'       10.1790   -1.9960   11.8760 C.3    16  G16         0.1812
    300  O5'       11.2990   -1.7790   12.7370 O.3    16  G16        -0.3114
    301  C4'        8.9580   -2.2710   12.6990 C.3    16  G16         0.1773
    302  O4'        8.2420   -1.0250   12.8700 O.3    16  G16        -0.3307
    303  C3'        7.9580   -3.2080   12.0410 C.3    16  G16         0.1860
    304  O3'        8.3840   -4.5710   12.1280 O.3    16  G16        -0.3112
    305  C2'        6.6270   -2.7590   12.6570 C.3    16  G16         0.2309
    306  O2'        6.1990   -3.2860   13.8950 O.3    16  G16        -0.2156
    307  C1'        6.8440   -1.2490   12.7860 C.3    16  G16         0.2408
    308  N1         2.7350   -0.1910   10.0450 N.ar   16  G16        -0.1709
    309  C2         2.8600   -0.9560   11.1810 C.ar   16  G16         0.2606
    310  N2         1.7360   -1.5110   11.6530 N.pl3  16  G16        -0.0859
    311  N3         4.0030   -1.1490   11.8180 N.ar   16  G16        -0.1918
    312  C4         5.0260   -0.5090   11.2170 C.ar   16  G16         0.1723
    313  C5         5.0100    0.2680   10.0750 C.ar   16  G16         0.1748
    314  C6         3.7810    0.4720    9.4050 C.ar   16  G16         0.3023
    315  O6         3.5600    1.1370    8.3860 O.2    16  G16        -0.2633
    316  N7         6.2820    0.7330    9.7770 N.ar   16  G16        -0.2173
    317  C8         7.0370    0.2240   10.7140 C.ar   16  G16         0.1817
    318  N9         6.3320   -0.5250   11.6290 N.ar   16  G16        -0.2693
    319  OP1       13.8320   -1.2650   12.3290 O.3    16  G16        -0.4373
    320  OP2       11.7650   -0.3710   10.9520 O.co2  16  G16        -0.5172
    321  P          8.6290   -5.4550   10.7760 P.3    17  U17         0.2141
    322  C5'        6.2630   -6.5930   10.9410 C.3    17  U17         0.1812
    323  O5'        7.1400   -5.6860   10.2410 O.3    17  U17        -0.3114
    324  C4'        4.8080   -6.2500   10.7240 C.3    17  U17         0.1773
    325  O4'        4.5820   -4.8250   10.9030 O.3    17  U17        -0.3307
    326  C3'        4.2470   -6.5410    9.3440 C.3    17  U17         0.1860
    327  O3'        3.9500   -7.9260    9.1890 O.3    17  U17        -0.3112
    328  C2'        3.0260   -5.6280    9.3180 C.3    17  U17         0.2309
    329  O2'        1.9170   -6.0580   10.0770 O.3    17  U17        -0.2156
    330  C1'        3.5830   -4.3780    9.9960 C.3    17  U17         0.2420
    331  N1         4.2210   -3.4580    9.0460 N.ar   17  U17        -0.2534
    332  C2         3.4300   -2.8060    8.1120 C.ar   17  U17         0.3546
    333  O2         2.2180   -2.9490    8.0460 O.2    17  U17        -0.2443
    334  N3         4.1140   -1.9730    7.2640 N.ar   17  U17        -0.1530
    335  C4         5.4710   -1.7200    7.2560 C.ar   17  U17         0.2846
    336  O4         5.9410   -0.9450    6.4190 O.2    17  U17        -0.2650
    337  C5         6.2140   -2.4290    8.2530 C.ar   17  U17         0.0814
    338  C6         5.5800   -3.2580    9.0860 C.ar   17  U17         0.0870
    339  OP1        9.1160   -6.7560   11.2940 O.3    17  U17        -0.4373
    340  OP2        9.4330   -4.7570    9.7410 O.co2  17  U17        -0.5172
    341  P          4.5710   -8.8440    8.0180 P.3    18  G18         0.2141
    342  C5'        2.0200   -9.0620    7.3290 C.3    18  G18         0.1812
    343  O5'        3.3900   -8.8500    6.9430 O.3    18  G18        -0.3114
    344  C4'        1.0770   -8.3180    6.4090 C.3    18  G18         0.1773
    345  O4'        1.2240   -6.8860    6.6030 O.3    18  G18        -0.3307
    346  C3'        1.2880   -8.4770    4.9090 C.3    18  G18         0.1860
    347  O3'        0.8460   -9.7170    4.3620 O.3    18  G18        -0.3112
    348  C2'        0.5180   -7.2740    4.3670 C.3    18  G18         0.2309
    349  O2'       -0.8940   -7.3980    4.3350 O.3    18  G18        -0.2156
    350  C1'        0.8710   -6.2060    5.4020 C.3    18  G18         0.2408
    351  N1         2.3500   -2.3390    2.4510 N.ar   18  G18        -0.1709
    352  C2         1.1180   -2.9390    2.5480 C.ar   18  G18         0.2606
    353  N2         0.1520   -2.4380    1.7630 N.pl3  18  G18        -0.0859
    354  N3         0.8510   -3.9530    3.3570 N.ar   18  G18        -0.1918
    355  C4         1.9340   -4.3240    4.0770 C.ar   18  G18         0.1723
    356  C5         3.2030   -3.7860    4.0600 C.ar   18  G18         0.1748
    357  C6         3.4750   -2.7000    3.1850 C.ar   18  G18         0.3023
    358  O6         4.5440   -2.1010    3.0080 O.2    18  G18        -0.2633
    359  N7         4.0350   -4.4570    4.9470 N.ar   18  G18        -0.2173
    360  C8         3.2710   -5.3720    5.4790 C.ar   18  G18         0.1817
    361  N9         1.9830   -5.3440    5.0010 N.ar   18  G18        -0.2693
    362  OP1        4.6570  -10.1810    8.6390 O.3    18  G18        -0.4373
    363  OP2        5.7840   -8.2750    7.3630 O.co2  18  G18        -0.5172
    364  P          1.6470  -10.4550    3.1670 P.3    19  C19         0.2141
    365  C5'       -0.1900   -9.5500    1.5300 C.3    19  C19         0.1812
    366  O5'        1.2010   -9.5960    1.9000 O.3    19  C19        -0.3114
    367  C4'       -0.4350   -8.5210    0.4560 C.3    19  C19         0.1773
    368  O4'       -0.2580   -7.1730    0.9840 O.3    19  C19        -0.3307
    369  C3'        0.4960   -8.5500   -0.7430 C.3    19  C19         0.1860
    370  O3'        0.2050   -9.6310   -1.6140 O.3    19  C19        -0.3112
    371  C2'        0.2440   -7.1630   -1.3230 C.3    19  C19         0.2309
    372  O2'       -0.9980   -7.0060   -1.9850 O.3    19  C19        -0.2156
    373  C1'        0.2460   -6.3220   -0.0430 C.3    19  C19         0.2420
    374  N1         1.6110   -5.8900    0.3240 N.ar   19  C19        -0.2535
    375  C2         2.1950   -4.8210   -0.3710 C.ar   19  C19         0.3532
    376  O2         1.5350   -4.2380   -1.2450 O.2    19  C19        -0.2443
    377  N3         3.4570   -4.4430   -0.0600 N.ar   19  C19        -0.1739
    378  C4         4.1360   -5.0980    0.8860 C.ar   19  C19         0.1759
    379  N4         5.3810   -4.6960    1.1550 N.pl3  19  C19        -0.1070
    380  C5         3.5690   -6.1950    1.6000 C.ar   19  C19         0.0566
    381  C6         2.3190   -6.5570    1.2860 C.ar   19  C19         0.0850
    382  OP1        0.9470  -11.7680    3.0720 O.2    19  C19        -0.5172
    383  OP2        3.1380  -10.4200    3.2710 O.co2  19  C19        -0.4373
    384  P          1.3460  -10.3470   -2.4980 P.3    20  A20         0.2141
    385  C5'        0.8340   -8.7850   -4.5740 C.3    20  A20         0.1812
    386  O5'        1.7730   -9.2460   -3.5750 O.3    20  A20        -0.3114
    387  C4'        1.3860   -7.6180   -5.3600 C.3    20  A20         0.1773
    388  O4'        1.6170   -6.4850   -4.4790 O.3    20  A20        -0.3307
    389  C3'        2.7430   -7.8130   -6.0240 C.3    20  A20         0.1860
    390  O3'        2.6950   -8.5600   -7.2310 O.3    20  A20        -0.3112
    391  C2'        3.1560   -6.3700   -6.2780 C.3    20  A20         0.2309
    392  O2'        2.5020   -5.7490   -7.3630 O.3    20  A20        -0.2156
    393  C1'        2.6940   -5.7030   -4.9830 C.3    20  A20         0.2408
    394  N1         6.9700   -3.2870   -3.4500 N.ar   20  A20        -0.2040
    395  C2         6.1440   -3.0870   -4.4860 C.ar   20  A20         0.2016
    396  N3         5.0380   -3.7520   -4.8240 N.ar   20  A20        -0.2048
    397  C4         4.8040   -4.7560   -3.9580 C.ar   20  A20         0.1692
    398  C5         5.5730   -5.0970   -2.8580 C.ar   20  A20         0.1518
    399  C6         6.7050   -4.3050   -2.6000 C.ar   20  A20         0.1919
    400  N6         7.5190   -4.5020   -1.5640 N.pl3  20  A20        -0.1054
    401  N7         5.0290   -6.1900   -2.1980 N.ar   20  A20        -0.2193
    402  C8         3.9570   -6.4780   -2.8970 C.ar   20  A20         0.1816
    403  N9         3.7580   -5.6480   -3.9750 N.ar   20  A20        -0.2693
    404  OP1        0.5640  -11.4290   -3.1630 O.2    20  A20        -0.5172
    405  OP2        2.5540  -10.7140   -1.7050 O.co2  20  A20        -0.4373
    406  P          3.9760   -9.4140   -7.6850 P.3    21  G21         0.2141
    407  C5'        4.6990   -7.5340   -9.3760 C.3    21  G21         0.1812
    408  O5'        5.0270   -8.3410   -8.2260 O.3    21  G21        -0.3114
    409  C4'        5.6570   -6.3780   -9.5350 C.3    21  G21         0.1773
    410  O4'        5.6640   -5.5470   -8.3400 O.3    21  G21        -0.3307
    411  C3'        7.1190   -6.7380   -9.7310 C.3    21  G21         0.1860
    412  O3'        7.4030   -7.1550  -11.0580 O.3    21  G21        -0.3112
    413  C2'        7.8020   -5.4300   -9.3520 C.3    21  G21         0.2309
    414  O2'        7.7280   -4.4510  -10.3680 O.3    21  G21        -0.2156
    415  C1'        6.9650   -5.0050   -8.1430 C.3    21  G21         0.2408
    416  N1        10.4640   -4.3530   -4.5120 N.ar   21  G21        -0.1709
    417  C2        10.2750   -3.6500   -5.6780 C.ar   21  G21         0.2606
    418  N2        11.1180   -2.6310   -5.8990 N.pl3  21  G21        -0.0859
    419  N3         9.3180   -3.9170   -6.5550 N.ar   21  G21        -0.1918
    420  C4         8.5560   -4.9630   -6.1680 C.ar   21  G21         0.1723
    421  C5         8.6690   -5.7360   -5.0300 C.ar   21  G21         0.1748
    422  C6         9.6960   -5.4360   -4.0980 C.ar   21  G21         0.3023
    423  O6         9.9540   -5.9990   -3.0300 O.2    21  G21        -0.2633
    424  N7         7.6920   -6.7230   -5.0050 N.ar   21  G21        -0.2173
    425  C8         7.0230   -6.5440   -6.1130 C.ar   21  G21         0.1817
    426  N9         7.4880   -5.4860   -6.8610 N.ar   21  G21        -0.2693
    427  OP1        3.4880  -10.2750   -8.7990 O.2    21  G21        -0.5172
    428  OP2        4.5340  -10.0530   -6.4700 O.co2  21  G21        -0.4373
    429  P          8.5180   -8.2930  -11.2420 P.3    22  U22         0.2141
    430  C5'       10.3060   -6.4130  -11.8790 C.3    22  U22         0.1812
    431  O5'        9.9170   -7.5420  -11.0640 O.3    22  U22        -0.3114
    432  C4'       11.4720   -5.6760  -11.2470 C.3    22  U22         0.1773
    433  O4'       11.1020   -5.2010   -9.9210 O.3    22  U22        -0.3307
    434  C3'       12.7380   -6.4840  -10.9860 C.3    22  U22         0.1860
    435  O3'       13.6550   -6.5790  -12.0700 O.3    22  U22        -0.3112
    436  C2'       13.4330   -5.6390   -9.9330 C.3    22  U22         0.2309
    437  O2'       14.0160   -4.5090  -10.5380 O.3    22  U22        -0.2156
    438  C1'       12.2520   -5.1870   -9.0810 C.3    22  U22         0.2420
    439  N1        12.0180   -6.0570   -7.9140 N.ar   22  U22        -0.2534
    440  C2        12.8250   -5.8730   -6.8010 C.ar   22  U22         0.3546
    441  O2        13.7130   -5.0410   -6.7550 O.2    22  U22        -0.2443
    442  N3        12.5480   -6.7030   -5.7440 N.ar   22  U22        -0.1530
    443  C4        11.5810   -7.6820   -5.6840 C.ar   22  U22         0.2846
    444  O4        11.4550   -8.3460   -4.6560 O.2    22  U22        -0.2650
    445  C5        10.7900   -7.8120   -6.8720 C.ar   22  U22         0.0814
    446  C6        11.0300   -7.0160   -7.9200 C.ar   22  U22         0.0870
    447  OP1        8.4080   -8.7660  -12.6410 O.2    22  U22        -0.5172
    448  OP2        8.4010   -9.2830  -10.1340 O.co2  22  U22        -0.4373
    449  P         14.5810   -7.8850  -12.0910 P.3    23  C23         0.2141
    450  C5'       16.5560   -6.4390  -11.0930 C.3    23  C23         0.1812
    451  O5'       15.8190   -7.6710  -11.1130 O.3    23  C23        -0.3114
    452  C4'       17.2630   -6.2990   -9.7720 C.3    23  C23         0.1773
    453  O4'       16.3000   -6.3220   -8.6870 O.3    23  C23        -0.3307
    454  C3'       18.1830   -7.4400   -9.3890 C.3    23  C23         0.1860
    455  O3'       19.4050   -7.3930  -10.1210 O.3    23  C23        -0.3112
    456  C2'       18.3560   -7.1910   -7.8950 C.3    23  C23         0.2309
    457  O2'       19.1940   -6.0940   -7.6290 O.3    23  C23        -0.2156
    458  C1'       16.9700   -6.6910   -7.4980 C.3    23  C23         0.2420
    459  N1        16.1680   -7.6840   -6.7770 N.ar   23  C23        -0.2535
    460  C2        16.4530   -7.9080   -5.4280 C.ar   23  C23         0.3532
    461  O2        17.3790   -7.2780   -4.9020 O.2    23  C23        -0.2443
    462  N3        15.7220   -8.8110   -4.7360 N.ar   23  C23        -0.1739
    463  C4        14.7410   -9.4800   -5.3450 C.ar   23  C23         0.1759
    464  N4        14.0510  -10.3630   -4.6260 N.pl3  23  C23        -0.1070
    465  C5        14.4160   -9.2610   -6.7160 C.ar   23  C23         0.0566
    466  C6        15.1550   -8.3670   -7.3910 C.ar   23  C23         0.0850
    467  OP1       15.1110   -7.9400  -13.4780 O.2    23  C23        -0.5172
    468  OP2       13.8770   -9.0540  -11.4930 O.co2  23  C23        -0.4373
    469  P         20.4510   -8.6390  -10.1580 P.3    24  U24         0.2141
    470  C5'       21.7940   -7.9000   -8.0370 C.3    24  U24         0.1812
    471  O5'       20.9170   -8.8420   -8.6470 O.3    24  U24        -0.3114
    472  C4'       22.3680   -8.4380   -6.7480 C.3    24  U24         0.1773
    473  O4'       21.3900   -8.4130   -5.6860 O.3    24  U24        -0.3307
    474  C3'       22.8500   -9.8640   -6.7620 C.3    24  U24         0.1860
    475  O3'       24.1590   -9.7460   -7.2610 O.3    24  U24        -0.3112
    476  C2'       22.8930  -10.1780   -5.2780 C.3    24  U24         0.2309
    477  O2'       23.9860   -9.5280   -4.6680 O.3    24  U24        -0.2156
    478  C1'       21.6440   -9.4650   -4.7910 C.3    24  U24         0.2420
    479  N1        20.4220  -10.2650   -4.7360 N.ar   24  U24        -0.2534
    480  C2        20.1190  -10.8540   -3.5290 C.ar   24  U24         0.3546
    481  O2        20.8630  -10.7990   -2.5660 O.2    24  U24        -0.2443
    482  N3        18.9030  -11.4840   -3.4830 N.ar   24  U24        -0.1530
    483  C4        17.9780  -11.5810   -4.4950 C.ar   24  U24         0.2846
    484  O4        16.9270  -12.1940   -4.2970 O.2    24  U24        -0.2650
    485  C5        18.3540  -10.9210   -5.7110 C.ar   24  U24         0.0814
    486  C6        19.5250  -10.2840   -5.7820 C.ar   24  U24         0.0870
    487  OP1       21.6770   -8.3260  -10.9580 O.2    24  U24        -0.5172
    488  OP2       19.5590   -9.7900  -10.5100 O.co2  24  U24        -0.4373
    489  P         24.9510  -11.0460   -7.6590 P.3    25  A25         0.2141
    490  C5'       27.2990   -9.9810   -7.3000 C.3    25  A25         0.1812
    491  O5'       26.3010  -10.8910   -6.8360 O.3    25  A25        -0.3114
    492  C4'       28.3980   -9.8810   -6.2850 C.3    25  A25         0.1773
    493  O4'       27.8470   -9.8790   -4.9330 O.3    25  A25        -0.3307
    494  C3'       29.3880  -11.0320   -6.3250 C.3    25  A25         0.1860
    495  O3'       30.5950  -10.4650   -5.8640 O.3    25  A25        -0.3112
    496  C2'       28.8250  -11.9740   -5.2750 C.3    25  A25         0.2309
    497  O2'       29.8930  -12.7250   -4.7730 O.3    25  A25        -0.2156
    498  C1'       28.3420  -10.9910   -4.2120 C.3    25  A25         0.2408
    499  N1        26.4000  -11.8440    0.5020 N.ar   25  A25        -0.2040
    500  C2        27.5500  -11.2900    0.0980 C.ar   25  A25         0.2016
    501  N3        28.0030  -11.0960   -1.1420 N.ar   25  A25        -0.2048
    502  C4        27.1230  -11.5600   -2.0480 C.ar   25  A25         0.1692
    503  C5        25.9010  -12.1570   -1.7850 C.ar   25  A25         0.1518
    504  C6        25.5480  -12.3220   -0.4400 C.ar   25  A25         0.1919
    505  N6        24.4140  -12.9080   -0.0470 N.pl3  25  A25        -0.1054
    506  N7        25.2600  -12.5080   -2.9650 N.ar   25  A25        -0.2193
    507  C8        26.0900  -12.1150   -3.9030 C.ar   25  A25         0.1816
    508  N9        27.2430  -11.5390   -3.4180 N.ar   25  A25        -0.2693
    509  OP1       25.1300  -10.9660   -9.1250 O.2    25  A25        -0.5172
    510  OP2       24.2920  -12.1940   -7.0330 O.co2  25  A25        -0.4373
    511  P         32.0140  -10.8940   -6.4130 P.3    26  U26         0.2141
    512  C5'       31.9250   -8.3350   -7.1570 C.3    26  U26         0.1812
    513  O5'       32.5420   -9.6370   -7.2340 O.3    26  U26        -0.3114
    514  C4'       32.2990   -7.5690   -8.3980 C.3    26  U26         0.1773
    515  O4'       33.7430   -7.5380   -8.4860 O.3    26  U26        -0.3307
    516  C3'       31.8560   -8.2400   -9.6910 C.3    26  U26         0.1860
    517  O3'       30.5860   -7.7180  -10.0940 O.3    26  U26        -0.3112
    518  C2'       32.8980   -7.7730  -10.6940 C.3    26  U26         0.2309
    519  O2'       32.4890   -6.5050  -11.1450 O.3    26  U26        -0.2156
    520  C1'       34.1550   -7.6980   -9.8350 C.3    26  U26         0.2420
    521  N1        34.9500   -8.9190   -9.9240 N.ar   26  U26        -0.2534
    522  C2        35.5850   -9.1840  -11.1190 C.ar   26  U26         0.3546
    523  O2        35.5300   -8.4340  -12.0750 O.2    26  U26        -0.2443
    524  N3        36.3050  -10.3550  -11.1450 N.ar   26  U26        -0.1530
    525  C4        36.4250  -11.2860  -10.1300 C.ar   26  U26         0.2846
    526  O4        37.1110  -12.2960  -10.3060 O.2    26  U26        -0.2650
    527  C5        35.7320  -10.9400   -8.9250 C.ar   26  U26         0.0814
    528  C6        35.0380   -9.7940   -8.8650 C.ar   26  U26         0.0870
    529  OP1       31.9300  -12.0110   -7.4130 O.2    26  U26        -0.5172
    530  OP2       32.7680  -11.0590   -5.1150 O.co2  26  U26        -0.4373
    531  P         29.6410   -8.5240  -11.1200 P.3    27  A27         0.2141
    532  C5'       30.2950   -7.5980  -13.5700 C.3    27  A27         0.1812
    533  O5'       30.4490   -8.5730  -12.5030 O.3    27  A27        -0.3114
    534  C4'       31.1450   -7.9720  -14.7690 C.3    27  A27         0.1773
    535  O4'       32.4850   -8.3050  -14.3260 O.3    27  A27        -0.3307
    536  C3'       30.7530   -9.2500  -15.5050 C.3    27  A27         0.1860
    537  O3'       29.6700   -9.1270  -16.4100 O.3    27  A27        -0.3112
    538  C2'       32.0250   -9.5840  -16.2690 C.3    27  A27         0.2309
    539  O2'       32.2520   -8.6860  -17.3220 O.3    27  A27        -0.2156
    540  C1'       33.0870   -9.2120  -15.2490 C.3    27  A27         0.2408
    541  N1        36.1510  -13.3350  -15.3960 N.ar   27  A27        -0.2040
    542  C2        35.8470  -12.4050  -16.3150 C.ar   27  A27         0.2016
    543  N3        35.0490  -11.3430  -16.2070 N.ar   27  A27        -0.2048
    544  C4        34.4890  -11.2940  -14.9850 C.ar   27  A27         0.1692
    545  C5        34.6620  -12.2030  -13.9570 C.ar   27  A27         0.1518
    546  C6        35.5550  -13.2630  -14.1830 C.ar   27  A27         0.1919
    547  N6        35.8490  -14.1920  -13.2660 N.pl3  27  A27        -0.1054
    548  N7        33.8950  -11.8520  -12.8590 N.ar   27  A27        -0.2193
    549  C8        33.2840  -10.7550  -13.2390 C.ar   27  A27         0.1816
    550  N9        33.5930  -10.3650  -14.5170 N.ar   27  A27        -0.2693
    551  OP1       28.3610   -7.7520  -10.9910 O.2    27  A27        -0.5172
    552  OP2       29.6770   -9.9490  -10.7570 O.co2  27  A27        -0.4373
    553  P         28.4700  -10.1350  -16.1220 P.3    28  G28         0.2141
    554  C5'       29.4380  -11.8640  -17.7690 C.3    28  G28         0.1812
    555  O5'       29.2210  -11.5060  -16.3870 O.3    28  G28        -0.3114
    556  C4'       30.6250  -12.7690  -17.8830 C.3    28  G28         0.1773
    557  O4'       31.4720  -12.5300  -16.7350 O.3    28  G28        -0.3307
    558  C3'       30.2950  -14.2400  -17.7730 C.3    28  G28         0.1860
    559  O3'       29.7390  -14.7980  -18.9490 O.3    28  G28        -0.3112
    560  C2'       31.6080  -14.8390  -17.2800 C.3    28  G28         0.2309
    561  O2'       32.5400  -15.3340  -18.2400 O.3    28  G28        -0.2156
    562  C1'       32.0810  -13.7370  -16.3240 C.3    28  G28         0.2408
    563  N1        32.7150  -16.7180  -12.2630 N.ar   28  G28        -0.1709
    564  C2        33.2890  -16.8030  -13.5080 C.ar   28  G28         0.2606
    565  N2        34.1380  -17.8180  -13.6960 N.pl3  28  G28        -0.0859
    566  N3        33.0200  -15.9760  -14.5060 N.ar   28  G28        -0.1918
    567  C4        32.1680  -14.9970  -14.1310 C.ar   28  G28         0.1723
    568  C5        31.5680  -14.8030  -12.9060 C.ar   28  G28         0.1748
    569  C6        31.8360  -15.7220  -11.8570 C.ar   28  G28         0.3023
    570  O6        31.4030  -15.7200  -10.6990 O.2    28  G28        -0.2633
    571  N7        30.7400  -13.6890  -12.9350 N.ar   28  G28        -0.2173
    572  C8        30.8500  -13.2340  -14.1570 C.ar   28  G28         0.1817
    573  N9        31.7170  -13.9680  -14.9270 N.ar   28  G28        -0.2693
    574  OP1       27.5980   -9.9530  -17.3010 O.2    28  G28        -0.5172
    575  OP2       27.9260   -9.8700  -14.7480 O.co2  28  G28        -0.4373
    576  P         28.4830  -15.7440  -18.6060 P.3    29  G29         0.2141
    577  C5'       29.6780  -18.0370  -18.7790 C.3    29  G29         0.1812
    578  O5'       29.1650  -17.0110  -17.9250 O.3    29  G29        -0.3114
    579  C4'       30.6700  -18.8890  -18.0390 C.3    29  G29         0.1773
    580  O4'       31.1390  -18.1670  -16.8670 O.3    29  G29        -0.3307
    581  C3'       30.1220  -20.1630  -17.4170 C.3    29  G29         0.1860
    582  O3'       29.6900  -21.2150  -18.2850 O.3    29  G29        -0.3112
    583  C2'       31.2260  -20.4960  -16.4210 C.3    29  G29         0.2309
    584  O2'       32.3330  -21.1060  -17.0570 O.3    29  G29        -0.2156
    585  C1'       31.5350  -19.1020  -15.8670 C.3    29  G29         0.2408
    586  N1        30.6190  -20.4240  -11.0490 N.ar   29  G29        -0.1709
    587  C2        31.4370  -21.0210  -11.9800 C.ar   29  G29         0.2606
    588  N2        32.1120  -22.1030  -11.5640 N.pl3  29  G29        -0.0859
    589  N3        31.5850  -20.5840  -13.2270 N.ar   29  G29        -0.1918
    590  C4        30.8640  -19.4680  -13.4590 C.ar   29  G29         0.1723
    591  C5        30.0180  -18.7950  -12.6020 C.ar   29  G29         0.1748
    592  C6        29.8540  -19.2860  -11.2740 C.ar   29  G29         0.3023
    593  O6        29.1740  -18.8160  -10.3550 O.2    29  G29        -0.2633
    594  N7        29.4420  -17.6990  -13.2350 N.ar   29  G29        -0.2173
    595  C8        29.9400  -17.7270  -14.4420 C.ar   29  G29         0.1817
    596  N9        30.8050  -18.7800  -14.6450 N.ar   29  G29        -0.2693
    597  OP1       28.0880  -16.2550  -19.9390 O.2    29  G29        -0.5172
    598  OP2       27.5090  -14.9730  -17.7320 O.co2  29  G29        -0.4373
    599  P         28.2290  -21.7960  -17.9220 P.3    30  G30         0.2141
    600  C5'       29.4190  -23.9250  -16.9450 C.3    30  G30         0.1812
    601  O5'       28.5140  -22.8260  -16.7330 O.3    30  G30        -0.3114
    602  C4'       29.9320  -24.4600  -15.6310 C.3    30  G30         0.1773
    603  O4'       30.0750  -23.3650  -14.7010 O.3    30  G30        -0.3307
    604  C3'       28.9970  -25.4070  -14.9060 C.3    30  G30         0.1860
    605  O3'       29.1060  -26.7600  -15.3120 O.3    30  G30        -0.3112
    606  C2'       29.4530  -25.2910  -13.4570 C.3    30  G30         0.2309
    607  O2'       30.5870  -26.0560  -13.1260 O.3    30  G30        -0.2156
    608  C1'       29.8550  -23.8250  -13.3800 C.3    30  G30         0.2408
    609  N1        27.5490  -22.6940   -9.0170 N.ar   30  G30        -0.1709
    610  C2        28.4580  -23.6870   -9.2960 C.ar   30  G30         0.2606
    611  N2        28.8360  -24.4560   -8.2630 N.pl3  30  G30        -0.0859
    612  N3        28.9920  -23.8840  -10.4910 N.ar   30  G30        -0.1918
    613  C4        28.5200  -23.0090  -11.4010 C.ar   30  G30         0.1723
    614  C5        27.5840  -22.0120  -11.2330 C.ar   30  G30         0.1748
    615  C6        27.0400  -21.7940   -9.9470 C.ar   30  G30         0.3023
    616  O6        26.2050  -20.9450   -9.5970 O.2    30  G30        -0.2633
    617  N7        27.3630  -21.3380  -12.4240 N.ar   30  G30        -0.2173
    618  C8        28.1400  -21.9400  -13.2840 C.ar   30  G30         0.1817
    619  N9        28.8670  -22.9650  -12.7270 N.ar   30  G30        -0.2693
    620  OP1       27.8800  -22.6100  -19.0940 O.2    30  G30        -0.5172
    621  OP2       27.3080  -20.6750  -17.5220 O.co2  30  G30        -0.4373
    622  P         27.7060  -27.5350  -15.4820 P.3    31  U31         0.2141
    623  C5'       28.4140  -28.8580  -13.2870 C.3    31  U31         0.1812
    624  O5'       27.4140  -28.1300  -14.0290 O.3    31  U31        -0.3114
    625  C4'       27.9910  -28.9800  -11.8390 C.3    31  U31         0.1773
    626  O4'       28.1250  -27.6910  -11.1630 O.3    31  U31        -0.3307
    627  C3'       26.5300  -29.3310  -11.6100 C.3    31  U31         0.1860
    628  O3'       26.3140  -30.7150  -11.8320 O.3    31  U31        -0.3112
    629  C2'       26.3250  -28.8710  -10.1660 C.3    31  U31         0.2309
    630  O2'       26.9110  -29.6760   -9.1670 O.3    31  U31        -0.2156
    631  C1'       27.1320  -27.5740  -10.1460 C.3    31  U31         0.2420
    632  N1        26.3010  -26.3880  -10.4140 N.ar   31  U31        -0.2534
    633  C2        25.6300  -25.8320   -9.3420 C.ar   31  U31         0.3546
    634  O2        25.7170  -26.2740   -8.2080 O.2    31  U31        -0.2443
    635  N3        24.8420  -24.7500   -9.6530 N.ar   31  U31        -0.1530
    636  C4        24.6540  -24.1820  -10.8960 C.ar   31  U31         0.2846
    637  O4        23.9200  -23.1970  -11.0110 O.2    31  U31        -0.2650
    638  C5        25.3570  -24.8340  -11.9580 C.ar   31  U31         0.0814
    639  C6        26.1330  -25.8910  -11.6900 C.ar   31  U31         0.0870
    640  OP1       28.1200  -28.6250  -16.4200 O.2    31  U31        -0.5172
    641  OP2       26.5730  -26.5930  -15.8600 O.co2  31  U31        -0.4373
    642  P         25.2220  -31.2820  -12.8650 P.3    32  G32         0.2141
    643  C5'       23.6150  -31.6210  -10.8050 C.3    32  G32         0.1812
    644  O5'       23.8370  -31.0640  -12.1170 O.3    32  G32        -0.3114
    645  C4'       22.7180  -30.6970  -10.0330 C.3    32  G32         0.1773
    646  O4'       23.3370  -29.3810   -9.9740 O.3    32  G32        -0.3307
    647  C3'       21.3900  -30.3880  -10.6880 C.3    32  G32         0.1860
    648  O3'       20.4770  -31.4720  -10.5600 O.3    32  G32        -0.3112
    649  C2'       20.9910  -29.1320   -9.9330 C.3    32  G32         0.2309
    650  O2'       20.5580  -29.4880   -8.6500 O.3    32  G32        -0.2156
    651  C1'       22.3350  -28.4050   -9.8050 C.3    32  G32         0.2408
    652  N1        20.9930  -23.7590  -11.2710 N.ar   32  G32        -0.1709
    653  C2        20.8580  -24.3560  -10.0440 C.ar   32  G32         0.2606
    654  N2        20.2540  -23.6280   -9.0940 N.pl3  32  G32        -0.0859
    655  N3        21.3080  -25.5660   -9.7620 N.ar   32  G32        -0.1918
    656  C4        21.8900  -26.1500  -10.8330 C.ar   32  G32         0.1723
    657  C5        22.0680  -25.6400  -12.0990 C.ar   32  G32         0.1748
    658  C6        21.5960  -24.3380  -12.3820 C.ar   32  G32         0.3023
    659  O6        21.6710  -23.7060  -13.4420 O.2    32  G32        -0.2633
    660  N7        22.6940  -26.5660  -12.9200 N.ar   32  G32        -0.2173
    661  C8        22.8830  -27.6040  -12.1510 C.ar   32  G32         0.1817
    662  N9        22.4360  -27.4110  -10.8680 N.ar   32  G32        -0.2693
    663  OP1       25.5940  -32.7210  -12.7640 O.3    32  G32        -0.4373
    664  OP2       25.0300  -30.6360  -14.2120 O.co2  32  G32        -0.5172
    665  P         19.5280  -31.9580  -11.7890 P.3    33  A33         0.2141
    666  C5'       17.5080  -30.6820  -12.8940 C.3    33  A33         0.1812
    667  O5'       18.2240  -31.0400  -11.7050 O.3    33  A33        -0.3114
    668  C4'       16.3010  -29.8800  -12.5140 C.3    33  A33         0.1773
    669  O4'       15.6360  -30.5630  -11.4270 O.3    33  A33        -0.3307
    670  C3'       16.6000  -28.5060  -11.9370 C.3    33  A33         0.1860
    671  O3'       16.7400  -27.5470  -12.9670 O.3    33  A33        -0.3112
    672  C2'       15.3740  -28.2230  -11.0780 C.3    33  A33         0.2309
    673  O2'       14.2890  -27.6730  -11.7890 O.3    33  A33        -0.2156
    674  C1'       15.0170  -29.6200  -10.5670 C.3    33  A33         0.2408
    675  N1        14.6410  -28.6720   -5.4980 N.ar   33  A33        -0.2040
    676  C2        13.9200  -28.2240   -6.5390 C.ar   33  A33         0.2016
    677  N3        14.0600  -28.4930   -7.8370 N.ar   33  A33        -0.2048
    678  C4        15.0790  -29.3510   -8.0340 C.ar   33  A33         0.1692
    679  C5        15.9140  -29.8830   -7.0680 C.ar   33  A33         0.1518
    680  C6        15.6740  -29.5140   -5.7430 C.ar   33  A33         0.1919
    681  N6        16.3610  -30.0070   -4.7150 N.pl3  33  A33        -0.1054
    682  N7        16.8470  -30.7310   -7.6370 N.ar   33  A33        -0.2193
    683  C8        16.5740  -30.6840   -8.9170 C.ar   33  A33         0.1816
    684  N9        15.5100  -29.8790   -9.2260 N.ar   33  A33        -0.2693
    685  OP1       19.1140  -33.3660  -11.5500 O.3    33  A33        -0.4373
    686  OP2       20.2040  -31.6130  -13.0510 O.co2  33  A33        -0.5172
    687  P         18.0220  -26.5490  -12.9140 P.3    34  G34         0.2141
    688  C5'       16.3210  -24.8400  -11.9100 C.3    34  G34         0.1812
    689  O5'       17.5490  -25.5410  -11.7720 O.3    34  G34        -0.3114
    690  C4'       15.9750  -24.2110  -10.5870 C.3    34  G34         0.1773
    691  O4'       15.7460  -25.2740   -9.6390 O.3    34  G34        -0.3307
    692  C3'       17.0800  -23.3900   -9.9600 C.3    34  G34         0.1860
    693  O3'       16.9310  -22.0480  -10.3980 O.3    34  G34        -0.3112
    694  C2'       16.7500  -23.4760   -8.4760 C.3    34  G34         0.2309
    695  O2'       15.7690  -22.5320   -8.0770 O.3    34  G34        -0.2156
    696  C1'       16.2150  -24.9010   -8.3640 C.3    34  G34         0.2408
    697  N1        18.0150  -27.6200   -4.4670 N.ar   34  G34        -0.1709
    698  C2        17.0570  -26.6440   -4.4730 C.ar   34  G34         0.2606
    699  N2        16.4820  -26.3920   -3.3010 N.pl3  34  G34        -0.0859
    700  N3        16.6690  -25.9930   -5.5570 N.ar   34  G34        -0.1918
    701  C4        17.3340  -26.4060   -6.6580 C.ar   34  G34         0.1723
    702  C5        18.3320  -27.3530   -6.7530 C.ar   34  G34         0.1748
    703  C6        18.7300  -28.0440   -5.5790 C.ar   34  G34         0.3023
    704  O6        19.5930  -28.9100   -5.4550 O.2    34  G34        -0.2633
    705  N7        18.7980  -27.4490   -8.0570 N.ar   34  G34        -0.2173
    706  C8        18.0670  -26.5970   -8.7250 C.ar   34  G34         0.1817
    707  N9        17.1780  -25.9120   -7.9330 N.ar   34  G34        -0.2693
    708  OP1       17.9910  -25.7660  -14.1660 O.2    34  G34        -0.5172
    709  OP2       19.2730  -27.3080  -12.5330 O.co2  34  G34        -0.4373
    710  P         18.2290  -21.1650  -10.6530 P.3    35  A35         0.2141
    711  C5'       18.3830  -20.3800   -8.1810 C.3    35  A35         0.1812
    712  O5'       18.9950  -21.0680   -9.2690 O.3    35  A35        -0.3114
    713  C4'       19.4680  -19.8720   -7.2820 C.3    35  A35         0.1773
    714  O4'       20.2240  -21.0000   -6.7570 O.3    35  A35        -0.3307
    715  C3'       20.4860  -18.9650   -7.9850 C.3    35  A35         0.1860
    716  O3'       20.6700  -17.7380   -7.2980 O.3    35  A35        -0.3112
    717  C2'       21.7860  -19.7650   -7.9260 C.3    35  A35         0.2309
    718  O2'       22.9470  -18.9710   -7.7800 O.3    35  A35        -0.2156
    719  C1'       21.5700  -20.6190   -6.6800 C.3    35  A35         0.2408
    720  N1        23.8020  -24.2110   -3.7480 N.ar   35  A35        -0.2040
    721  C2        22.9580  -23.2120   -3.4560 C.ar   35  A35         0.2016
    722  N3        22.4030  -22.3170   -4.2660 N.ar   35  A35        -0.2048
    723  C4        22.8030  -22.5130   -5.5340 C.ar   35  A35         0.1692
    724  C5        23.6630  -23.4940   -5.9880 C.ar   35  A35         0.1518
    725  C6        24.1720  -24.3860   -5.0330 C.ar   35  A35         0.1919
    726  N6        25.0210  -25.3700   -5.3250 N.pl3  35  A35        -0.1054
    727  N7        23.8640  -23.3780   -7.3560 N.ar   35  A35        -0.2193
    728  C8        23.0940  -22.3750   -7.7010 C.ar   35  A35         0.1816
    729  N9        22.4180  -21.8080   -6.6490 N.ar   35  A35        -0.2693
    730  OP1       17.6860  -19.8180  -10.9690 O.3    35  A35        -0.4373
    731  OP2       19.1150  -21.8800  -11.5980 O.co2  35  A35        -0.5172
    732  P         20.1290  -16.3390   -7.8690 P.3    36  G36         0.2141
    733  C5'       21.7090  -14.5500   -6.7830 C.3    36  G36         0.1812
    734  O5'       20.4380  -15.2060   -6.7900 O.3    36  G36        -0.3114
    735  C4'       22.1480  -14.3070   -5.3640 C.3    36  G36         0.1773
    736  O4'       21.0760  -13.7030   -4.5880 O.3    36  G36        -0.3307
    737  C3'       22.5920  -15.5330   -4.5840 C.3    36  G36         0.1860
    738  O3'       24.0030  -15.5580   -4.6630 O.3    36  G36        -0.3112
    739  C2'       22.2790  -15.1430   -3.1490 C.3    36  G36         0.2309
    740  O2'       23.2290  -14.2100   -2.6820 O.3    36  G36        -0.2156
    741  C1'       21.0080  -14.3230   -3.3230 C.3    36  G36         0.2408
    742  N1        17.9030  -17.1690   -0.4950 N.ar   36  G36        -0.1709
    743  C2        19.1580  -16.7030   -0.1980 C.ar   36  G36         0.2606
    744  N2        19.6200  -16.9840    1.0240 N.pl3  36  G36        -0.0859
    745  N3        19.8900  -15.9790   -1.0250 N.ar   36  G36        -0.1918
    746  C4        19.2770  -15.7990   -2.2120 C.ar   36  G36         0.1723
    747  C5        18.0400  -16.2490   -2.6170 C.ar   36  G36         0.1748
    748  C6        17.2530  -16.9910   -1.7130 C.ar   36  G36         0.3023
    749  O6        16.1390  -17.4880   -1.8970 O.2    36  G36        -0.2633
    750  N7        17.7590  -15.8210   -3.9050 N.ar   36  G36        -0.2173
    751  C8        18.8130  -15.1350   -4.2540 C.ar   36  G36         0.1817
    752  N9        19.7630  -15.0690   -3.2670 N.ar   36  G36        -0.2693
    753  OP1       18.6330  -16.2770   -8.0290 O.3    36  G36        -0.4373
    754  OP2       21.1020  -16.0720   -8.9680 O.co2  36  G36        -0.5172
    755  P         24.7440  -16.9490   -4.7890 P.3    37  U37         0.2141
    756  C5'       25.2080  -17.0230   -2.2170 C.3    37  U37         0.1812
    757  O5'       24.5520  -17.5980   -3.3540 O.3    37  U37        -0.3114
    758  C4'       24.8110  -17.7900   -0.9950 C.3    37  U37         0.1773
    759  O4'       23.3510  -17.8790   -0.9190 O.3    37  U37        -0.3307
    760  C3'       25.3050  -19.2190   -1.0360 C.3    37  U37         0.1860
    761  O3'       25.8050  -19.5060    0.2480 O.3    37  U37        -0.3112
    762  C2'       24.0550  -20.0080   -1.4210 C.3    37  U37         0.2309
    763  O2'       24.1220  -21.3120   -0.9310 O.3    37  U37        -0.2156
    764  C1'       22.9740  -19.2290   -0.6890 C.3    37  U37         0.2420
    765  N1        21.6230  -19.4240   -1.2370 N.ar   37  U37        -0.2534
    766  C2        20.6090  -19.8210   -0.3860 C.ar   37  U37         0.3546
    767  O2        20.7870  -20.0760    0.7940 O.2    37  U37        -0.2443
    768  N3        19.3770  -19.9320   -0.9750 N.ar   37  U37        -0.1530
    769  C4        19.0540  -19.6870   -2.2900 C.ar   37  U37         0.2846
    770  O4        17.8920  -19.8470   -2.6700 O.2    37  U37        -0.2650
    771  C5        20.1500  -19.2780   -3.1010 C.ar   37  U37         0.0814
    772  C6        21.3660  -19.1530   -2.5580 C.ar   37  U37         0.0870
    773  OP1       26.1710  -16.5940   -4.9860 O.3    37  U37        -0.4373
    774  OP2       23.9680  -17.6890   -5.8180 O.co2  37  U37        -0.5172
    775  P         27.3690  -19.8140    0.2070 P.3    38  C38         0.2141
    776  C5'       27.5290  -22.4860   -0.0610 C.3    38  C38         0.1812
    777  O5'       27.7060  -21.1510   -0.6030 O.3    38  C38        -0.3114
    778  C4'       28.0250  -23.4840   -1.0700 C.3    38  C38         0.1773
    779  O4'       26.9720  -23.7620   -2.0380 O.3    38  C38        -0.3307
    780  C3'       29.1690  -22.9860   -1.9350 C.3    38  C38         0.1860
    781  O3'       30.3990  -23.1470   -1.2380 O.3    38  C38        -0.3112
    782  C2'       29.0600  -23.9040   -3.1430 C.3    38  C38         0.2309
    783  O2'       29.5130  -25.1840   -2.7680 O.3    38  C38        -0.2156
    784  C1'       27.5460  -23.9980   -3.3140 C.3    38  C38         0.2420
    785  N1        27.0110  -23.0080   -4.2600 N.ar   38  C38        -0.2535
    786  C2        27.3500  -23.1290   -5.6160 C.ar   38  C38         0.3532
    787  O2        28.1030  -24.0470   -5.9600 O.2    38  C38        -0.2443
    788  N3        26.8840  -22.2130   -6.5020 N.ar   38  C38        -0.1739
    789  C4        26.0970  -21.2210   -6.0770 C.ar   38  C38         0.1759
    790  N4        25.6240  -20.3670   -6.9840 N.pl3  38  C38        -0.1070
    791  C5        25.7050  -21.1000   -4.7080 C.ar   38  C38         0.0566
    792  C6        26.1950  -21.9950   -3.8400 C.ar   38  C38         0.0850
    793  OP1       27.7380  -20.0130    1.6420 O.3    38  C38        -0.4373
    794  OP2       28.0650  -18.8280   -0.6420 O.co2  38  C38        -0.5172
    795  P         31.7400  -22.3240   -1.5630 P.3    39  C39         0.2141
    796  C5'       32.8520  -24.1740   -2.9970 C.3    39  C39         0.1812
    797  O5'       32.0820  -22.9740   -2.9700 O.3    39  C39        -0.3114
    798  C4'       33.0840  -24.5510   -4.4330 C.3    39  C39         0.1773
    799  O4'       31.8390  -24.3960   -5.1550 O.3    39  C39        -0.3307
    800  C3'       34.0270  -23.6490   -5.1940 C.3    39  C39         0.1860
    801  O3'       35.3710  -23.9920   -4.8350 O.3    39  C39        -0.3112
    802  C2'       33.6180  -23.9320   -6.6390 C.3    39  C39         0.2309
    803  O2'       34.0980  -25.1810   -7.1000 O.3    39  C39        -0.2156
    804  C1'       32.1080  -24.1030   -6.5030 C.3    39  C39         0.2420
    805  N1        31.3280  -22.9240   -6.8560 N.ar   39  C39        -0.2535
    806  C2        31.3200  -22.5160   -8.1910 C.ar   39  C39         0.3532
    807  O2        31.9840  -23.1630   -9.0080 O.2    39  C39        -0.2443
    808  N3        30.6010  -21.4180   -8.5500 N.ar   39  C39        -0.1739
    809  C4        29.9080  -20.7430   -7.6220 C.ar   39  C39         0.1759
    810  N4        29.1960  -19.6880   -8.0180 N.pl3  39  C39        -0.1070
    811  C5        29.9050  -21.1350   -6.2480 C.ar   39  C39         0.0566
    812  C6        30.6320  -22.2140   -5.9100 C.ar   39  C39         0.0850
    813  OP1       32.7070  -22.7520   -0.5270 O.3    39  C39        -0.4373
    814  OP2       31.4900  -20.8810   -1.7590 O.co2  39  C39        -0.5172
    815  P         36.5400  -22.8780   -4.9250 P.3    40  C40         0.2141
    816  C5'       36.2490  -22.2930   -7.3520 C.3    40  C40         0.1812
    817  O5'       36.9930  -23.0560   -6.4400 O.3    40  C40        -0.3114
    818  C4'       36.6920  -22.5200   -8.7490 C.3    40  C40         0.1773
    819  O4'       35.4600  -22.5180   -9.5030 O.3    40  C40        -0.3307
    820  C3'       37.5120  -21.3460   -9.2630 C.3    40  C40         0.1860
    821  O3'       38.8950  -21.6370   -9.4140 O.3    40  C40        -0.3112
    822  C2'       36.8590  -20.9810  -10.5900 C.3    40  C40         0.2309
    823  O2'       37.2910  -21.8240  -11.6210 O.3    40  C40        -0.2156
    824  C1'       35.4180  -21.4020  -10.3600 C.3    40  C40         0.2420
    825  N1        34.5160  -20.3630   -9.8140 N.ar   40  C40        -0.2535
    826  C2        34.0540  -19.3860  -10.7050 C.ar   40  C40         0.3532
    827  O2        34.4460  -19.4200  -11.8830 O.2    40  C40        -0.2443
    828  N3        33.1950  -18.4360  -10.2660 N.ar   40  C40        -0.1739
    829  C4        32.8050  -18.4320   -8.9900 C.ar   40  C40         0.1759
    830  N4        31.9570  -17.4790   -8.6030 N.pl3  40  C40        -0.1070
    831  C5        33.2410  -19.4290   -8.0620 C.ar   40  C40         0.0566
    832  C6        34.0970  -20.3630   -8.5120 C.ar   40  C40         0.0850
    833  OP1       37.6890  -23.2420   -4.0730 O.3    40  C40        -0.4373
    834  OP2       35.8270  -21.5770   -4.7240 O.co2  40  C40        -0.5172
    835  P         39.9200  -20.4580   -9.0040 P.3    41  G41         0.2141
    836  C5'       39.7030  -19.2740  -11.3460 C.3    41  G41         0.1812
    837  O5'       39.3690  -19.2920   -9.9420 O.3    41  G41        -0.3114
    838  C4'       39.0620  -18.0700  -11.9960 C.3    41  G41         0.1773
    839  O4'       37.6220  -18.1230  -11.8000 O.3    41  G41        -0.3307
    840  C3'       39.4420  -16.7120  -11.4210 C.3    41  G41         0.1860
    841  O3'       40.7310  -16.3220  -11.8920 O.3    41  G41        -0.3112
    842  C2'       38.2710  -15.8440  -11.8710 C.3    41  G41         0.2309
    843  O2'       38.2430  -15.4910  -13.2450 O.3    41  G41        -0.2156
    844  C1'       37.1060  -16.8010  -11.6500 C.3    41  G41         0.2408
    845  N1        33.8420  -14.4010   -8.5630 N.ar   41  G41        -0.1709
    846  C2        34.1120  -14.1620   -9.8870 C.ar   41  G41         0.2606
    847  N2        33.4340  -13.1430  -10.4490 N.pl3  41  G41        -0.0859
    848  N3        34.9730  -14.8720  -10.6100 N.ar   41  G41        -0.1918
    849  C4        35.5830  -15.8180   -9.8720 C.ar   41  G41         0.1723
    850  C5        35.3970  -16.1210   -8.5410 C.ar   41  G41         0.1748
    851  C6        34.4630  -15.3710   -7.7890 C.ar   41  G41         0.3023
    852  O6        34.1510  -15.5000   -6.6000 O.2    41  G41        -0.2633
    853  N7        36.2000  -17.1880   -8.1620 N.ar   41  G41        -0.2173
    854  C8        36.8680  -17.4920   -9.2420 C.ar   41  G41         0.1817
    855  N9        36.5440  -16.6980  -10.3150 N.ar   41  G41        -0.2693
    856  OP1       41.2830  -20.8210   -9.4730 O.2    41  G41        -0.5172
    857  OP2       39.6600  -20.2810   -7.5390 O.co2  41  G41        -0.4373
    858  P         41.7420  -15.3920  -11.0360 P.3    42  A42         0.2141
    859  C5'       42.2040  -13.4070  -12.5760 C.3    42  A42         0.1812
    860  O5'       41.2600  -14.0500  -11.7350 O.3    42  A42        -0.3114
    861  C4'       41.8650  -13.5250  -14.0380 C.3    42  A42         0.1773
    862  O4'       40.4250  -13.5270  -14.1940 O.3    42  A42        -0.3307
    863  C3'       42.3210  -12.2910  -14.8180 C.3    42  A42         0.1860
    864  O3'       43.7180  -12.2840  -15.1350 O.3    42  A42        -0.3112
    865  C2'       41.3520  -12.2500  -15.9870 C.3    42  A42         0.2309
    866  O2'       41.7710  -13.1720  -16.9640 O.3    42  A42        -0.2156
    867  C1'       40.0670  -12.7410  -15.3230 C.3    42  A42         0.2408
    868  N1        37.5580   -8.4700  -16.6830 N.ar   42  A42        -0.2040
    869  C2        38.4140   -9.2600  -17.3450 C.ar   42  A42         0.2016
    870  N3        39.0500  -10.3530  -16.9250 N.ar   42  A42        -0.2048
    871  C4        38.7190  -10.6350  -15.6530 C.ar   42  A42         0.1692
    872  C5        37.8520   -9.9220  -14.8450 C.ar   42  A42         0.1518
    873  C6        37.2600   -8.7730  -15.4000 C.ar   42  A42         0.1919
    874  N6        36.4160   -7.9770  -14.7340 N.pl3  42  A42        -0.1054
    875  N7        37.7500  -10.5150  -13.5950 N.ar   42  A42        -0.2193
    876  C8        38.5600  -11.5440  -13.6680 C.ar   42  A42         0.1816
    877  N9        39.1780  -11.6760  -14.8830 N.ar   42  A42        -0.2693
    878  OP1       43.1130  -15.6830  -11.5380 O.2    42  A42        -0.5172
    879  OP2       41.4880  -15.4020   -9.5790 O.co2  42  A42        -0.4373
    880  P         44.7040  -11.2550  -14.3220 P.3    43  A43         0.2141
    881  C5'       43.7500   -9.2570  -15.7390 C.3    43  A43         0.1812
    882  O5'       44.0270   -9.8140  -14.4470 O.3    43  A43        -0.3114
    883  C4'       42.6600   -8.2200  -15.6210 C.3    43  A43         0.1773
    884  O4'       41.5280   -8.8140  -14.9420 O.3    43  A43        -0.3307
    885  C3'       42.9730   -7.0290  -14.7280 C.3    43  A43         0.1860
    886  O3'       43.8030   -6.0670  -15.3610 O.3    43  A43        -0.3112
    887  C2'       41.5780   -6.5010  -14.3930 C.3    43  A43         0.2309
    888  O2'       41.0110   -5.6520  -15.3680 O.3    43  A43        -0.2156
    889  C1'       40.7710   -7.7990  -14.2990 C.3    43  A43         0.2408
    890  N1        37.8800   -7.1200  -10.0660 N.ar   43  A43        -0.2040
    891  C2        37.9610   -6.4350  -11.2160 C.ar   43  A43         0.2016
    892  N3        38.7340   -6.6580  -12.2780 N.ar   43  A43        -0.2048
    893  C4        39.5110   -7.7360  -12.0800 C.ar   43  A43         0.1692
    894  C5        39.5460   -8.5380  -10.9520 C.ar   43  A43         0.1518
    895  C6        38.6700   -8.2090   -9.9080 C.ar   43  A43         0.1919
    896  N6        38.6080   -8.8870   -8.7580 N.pl3  43  A43        -0.1054
    897  N7        40.5100   -9.5290  -11.0800 N.ar   43  A43        -0.2193
    898  C8        40.9970   -9.3400  -12.2860 C.ar   43  A43         0.1816
    899  N9        40.4490   -8.2610  -12.9410 N.ar   43  A43        -0.2693
    900  OP1       45.9860  -11.2930  -15.1000 O.2    43  A43        -0.5172
    901  OP2       44.7060  -11.6610  -12.8670 O.co2  43  A43        -0.4373
    902  P         44.8450   -5.2240  -14.4890 P.3    44  C44         0.2141
    903  C5'       43.5400   -3.0140  -14.2020 C.3    44  C44         0.1812
    904  O5'       43.9630   -4.2410  -13.5990 O.3    44  C44        -0.3114
    905  C4'       42.4380   -2.3880  -13.4130 C.3    44  C44         0.1773
    906  O4'       41.4850   -3.4180  -13.0460 O.3    44  C44        -0.3307
    907  C3'       42.8620   -1.8110  -12.0770 C.3    44  C44         0.1860
    908  O3'       43.5220   -0.5490  -12.2060 O.3    44  C44        -0.3112
    909  C2'       41.5370   -1.7860  -11.3170 C.3    44  C44         0.2309
    910  O2'       40.7550   -0.6680  -11.6660 O.3    44  C44        -0.2156
    911  C1'       40.8800   -3.0860  -11.7980 C.3    44  C44         0.2420
    912  N1        41.0530   -4.2340  -10.8800 N.ar   44  C44        -0.2535
    913  C2        40.3610   -4.2410   -9.6680 C.ar   44  C44         0.3532
    914  O2        39.6210   -3.2900   -9.3970 O.2    44  C44        -0.2443
    915  N3        40.5230   -5.2820   -8.8190 N.ar   44  C44        -0.1739
    916  C4        41.3250   -6.2970   -9.1530 C.ar   44  C44         0.1759
    917  N4        41.4450   -7.3020   -8.2900 N.pl3  44  C44        -0.1070
    918  C5        42.0390   -6.3200  -10.3820 C.ar   44  C44         0.0566
    919  C6        41.8750   -5.2770  -11.2090 C.ar   44  C44         0.0850
    920  OP1       45.5270   -4.3590  -15.4890 O.2    44  C44        -0.5172
    921  OP2       45.6450   -6.1510  -13.6650 O.co2  44  C44        -0.4373
    922  P         44.9270   -0.2770  -11.4470 P.3    45  U45         0.2141
    923  C5'       43.5850    1.1330   -9.7580 C.3    45  U45         0.1812
    924  O5'       44.4430    0.0070   -9.9510 O.3    45  U45        -0.3114
    925  C4'       42.8870    1.0690   -8.4310 C.3    45  U45         0.1773
    926  O4'       41.9060   -0.0060   -8.4070 O.3    45  U45        -0.3307
    927  C3'       43.7490    0.7670   -7.2190 C.3    45  U45         0.1860
    928  O3'       44.4410    1.9340   -6.8280 O.3    45  U45        -0.3112
    929  C2'       42.6750    0.4010   -6.2080 C.3    45  U45         0.2309
    930  O2'       41.9020    1.5210   -5.8510 O.3    45  U45        -0.2156
    931  C1'       41.7620   -0.4790   -7.0660 C.3    45  U45         0.2420
    932  N1        42.2010   -1.8800   -6.9880 N.ar   45  U45        -0.2534
    933  C2        41.9360   -2.5440   -5.8140 C.ar   45  U45         0.3546
    934  O2        41.3210   -2.0390   -4.9000 O.2    45  U45        -0.2443
    935  N3        42.4240   -3.8240   -5.7500 N.ar   45  U45        -0.1530
    936  C4        43.1590   -4.4840   -6.7120 C.ar   45  U45         0.2846
    937  O4        43.5270   -5.6380   -6.5050 O.2    45  U45        -0.2650
    938  C5        43.3990   -3.7260   -7.9010 C.ar   45  U45         0.0814
    939  C6        42.9510   -2.4700   -7.9830 C.ar   45  U45         0.0870
    940  OP1       45.4230    1.0500  -11.8910 O.2    45  U45        -0.5172
    941  OP2       45.8050   -1.4490  -11.5960 O.co2  45  U45        -0.4373
    942  P         45.9360    1.9750   -6.2930 P.3    46  G46         0.2141
    943  C5'       45.1480    2.2020   -3.8150 C.3    46  G46         0.1812
    944  O5'       45.6460    1.3590   -4.8530 O.3    46  G46        -0.3114
    945  C4'       44.7390    1.3670   -2.6280 C.3    46  G46         0.1773
    946  O4'       43.9510    0.2430   -3.1040 O.3    46  G46        -0.3307
    947  C3'       45.8490    0.6930   -1.8360 C.3    46  G46         0.1860
    948  O3'       46.4500    1.4720   -0.8170 O.3    46  G46        -0.3112
    949  C2'       45.0850   -0.4090   -1.1250 C.3    46  G46         0.2309
    950  O2'       44.3550   -0.0570    0.0270 O.3    46  G46        -0.2156
    951  C1'       44.0960   -0.8390   -2.2070 C.3    46  G46         0.2408
    952  N1        45.1170   -5.7580   -1.8440 N.ar   46  G46        -0.1709
    953  C2        44.6030   -4.8870   -0.9110 C.ar   46  G46         0.2606
    954  N2        44.3320   -5.3940    0.3010 N.pl3  46  G46        -0.0859
    955  N3        44.3590   -3.6150   -1.1480 N.ar   46  G46        -0.1918
    956  C4        44.7000   -3.2600   -2.4010 C.ar   46  G46         0.1723
    957  C5        45.1910   -4.0480   -3.4170 C.ar   46  G46         0.1748
    958  C6        45.4290   -5.4260   -3.1580 C.ar   46  G46         0.3023
    959  O6        45.8910   -6.2880   -3.9220 O.2    46  G46        -0.2633
    960  N7        45.3950   -3.2970   -4.5680 N.ar   46  G46        -0.2173
    961  C8        45.0390   -2.0890   -4.2280 C.ar   46  G46         0.1817
    962  N9        44.5940   -2.0040   -2.9320 N.ar   46  G46        -0.2693
    963  OP1       46.2040    3.4410   -6.2020 O.3    46  G46        -0.4373
    964  OP2       46.9120    1.1200   -7.0190 O.co2  46  G46        -0.5172
    965  P         48.0450    1.3820   -0.7060 P.3    47  U47         0.2141
    966  C5'       47.3300    0.3960    1.6480 C.3    47  U47         0.1812
    967  O5'       48.2500    0.4420    0.5610 O.3    47  U47        -0.3114
    968  C4'       47.4360   -0.9730    2.2820 C.3    47  U47         0.1773
    969  O4'       46.7280   -1.9540    1.4530 O.3    47  U47        -0.3307
    970  C3'       48.8310   -1.5690    2.4020 C.3    47  U47         0.1860
    971  O3'       49.5660   -0.9650    3.4790 O.3    47  U47        -0.3112
    972  C2'       48.4830   -3.0500    2.5810 C.3    47  U47         0.2309
    973  O2'       47.8260   -3.2310    3.8140 O.3    47  U47        -0.2156
    974  C1'       47.2990   -3.2280    1.6130 C.3    47  U47         0.2420
    975  N1        47.6580   -3.7490    0.2800 N.ar   47  U47        -0.2534
    976  C2        48.0770   -5.0670    0.1870 C.ar   47  U47         0.3546
    977  O2        48.1090   -5.8200    1.1440 O.2    47  U47        -0.2443
    978  N3        48.4980   -5.4540   -1.0610 N.ar   47  U47        -0.1530
    979  C4        48.5120   -4.6970   -2.2100 C.ar   47  U47         0.2846
    980  O4        48.9230   -5.1930   -3.2620 O.2    47  U47        -0.2650
    981  C5        48.0590   -3.3510   -2.0360 C.ar   47  U47         0.0814
    982  C6        47.6580   -2.9330   -0.8260 C.ar   47  U47         0.0870
    983  OP1       48.7120    2.6400   -0.2430 O.3    47  U47        -0.4373
    984  OP2       48.6000    0.7000   -1.8880 O.co2  47  U47        -0.5172
    985  P         51.1970   -0.9510    3.5160 P.3    48  G48         0.2141
    986  C5'       51.5910   -3.5610    4.0060 C.3    48  G48         0.1812
    987  O5'       51.7050   -2.4150    3.1330 O.3    48  G48        -0.3114
    988  C4'       52.1860   -4.7430    3.2910 C.3    48  G48         0.1773
    989  O4'       51.3910   -4.9850    2.1110 O.3    48  G48        -0.3307
    990  C3'       53.5430   -4.5150    2.6870 C.3    48  G48         0.1860
    991  O3'       54.5570   -4.5590    3.6660 O.3    48  G48        -0.3112
    992  C2'       53.5950   -5.6410    1.6760 C.3    48  G48         0.2309
    993  O2'       53.7820   -6.9050    2.2450 O.3    48  G48        -0.2156
    994  C1'       52.1710   -5.6260    1.1370 C.3    48  G48         0.2408
    995  N1        52.0890   -5.4910   -3.9650 N.ar   48  G48        -0.1709
    996  C2        52.2230   -6.5820   -3.1450 C.ar   48  G48         0.2606
    997  N2        52.3650   -7.7510   -3.7520 N.pl3  48  G48        -0.0859
    998  N3        52.2510   -6.5140   -1.8240 N.ar   48  G48        -0.1918
    999  C4        52.0790   -5.2450   -1.3860 C.ar   48  G48         0.1723
   1000  C5        51.9590   -4.0910   -2.1290 C.ar   48  G48         0.1748
   1001  C6        51.9690   -4.1730   -3.5290 C.ar   48  G48         0.3023
   1002  O6        51.9180   -3.2520   -4.3460 O.2    48  G48        -0.2633
   1003  N7        51.8840   -2.9860   -1.3070 N.ar   48  G48        -0.2173
   1004  C8        51.9200   -3.4740   -0.1000 C.ar   48  G48         0.1817
   1005  N9        52.0550   -4.8320   -0.0730 N.ar   48  G48        -0.2693
   1006  OP1       51.7910   -0.6470    4.8680 O.3    48  G48        -0.4373
   1007  OP2       51.7200   -0.2730    2.2960 O.co2  48  G48        -0.5172
   1008  P         55.9950   -4.1910    3.1340 P.3    49  A49         0.2141
   1009  C5'       57.8190   -5.9550    3.7180 C.3    49  A49         0.1812
   1010  O5'       57.0310   -5.3160    2.7370 O.3    49  A49        -0.3114
   1011  C4'       57.3320   -7.3660    4.0170 C.3    49  A49         0.1773
   1012  O4'       56.1580   -7.8290    3.2750 O.3    49  A49        -0.3307
   1013  C3'       58.3260   -8.4750    3.7510 C.3    49  A49         0.1860
   1014  O3'       59.2700   -8.2950    4.7800 O.3    49  A49        -0.3112
   1015  C2'       57.4370   -9.6780    4.0200 C.3    49  A49         0.2309
   1016  O2'       57.2990   -9.7480    5.4170 O.3    49  A49        -0.2156
   1017  C1'       56.1010   -9.2440    3.3910 C.3    49  A49         0.2408
   1018  N1        56.2880  -13.5500    0.5990 N.ar   49  A49        -0.2040
   1019  C2        56.3980  -13.3220    1.9130 C.ar   49  A49         0.2016
   1020  N3        56.3030  -12.1780    2.5800 N.ar   49  A49        -0.2048
   1021  C4        56.1120  -11.1510    1.7350 C.ar   49  A49         0.1692
   1022  C5        56.0030  -11.2220    0.3570 C.ar   49  A49         0.1518
   1023  C6        56.1060  -12.5030   -0.2270 C.ar   49  A49         0.1919
   1024  N6        55.9630  -12.7400   -1.5290 N.pl3  49  A49        -0.1054
   1025  N7        55.7760   -9.9640   -0.1810 N.ar   49  A49        -0.2193
   1026  C8        55.7860   -9.1710    0.8620 C.ar   49  A49         0.1816
   1027  N9        55.9660   -9.8230    2.0540 N.ar   49  A49        -0.2693
   1028  OP1       56.6180   -3.3330    4.1580 O.3    49  A49        -0.4373
   1029  OP2       56.0030   -3.8590    1.6930 O.co2  49  A49        -0.5172
   1030  P         60.7650   -8.7730    4.6620 P.3    50  A50         0.2141
   1031  C5'       61.9660  -10.8960    5.6600 C.3    50  A50         0.1812
   1032  O5'       60.7530  -10.1790    5.4080 O.3    50  A50        -0.3114
   1033  C4'       62.1400  -11.1490    7.1360 C.3    50  A50         0.1773
   1034  O4'       60.9620  -11.7420    7.7650 O.3    50  A50        -0.3307
   1035  C3'       63.2850  -12.0770    7.4690 C.3    50  A50         0.1860
   1036  O3'       63.8530  -11.3370    8.5310 O.3    50  A50        -0.3112
   1037  C2'       62.5830  -13.3640    7.8890 C.3    50  A50         0.2309
   1038  O2'       63.4290  -14.1440    8.7170 O.3    50  A50        -0.2156
   1039  C1'       61.3500  -12.8150    8.5910 C.3    50  A50         0.2408
   1040  N1        58.0430  -15.5220   11.5260 N.ar   50  A50        -0.2040
   1041  C2        59.0640  -14.7240   11.8520 C.ar   50  A50         0.2016
   1042  N3        59.9030  -14.0610   11.0540 N.ar   50  A50        -0.2048
   1043  C4        59.5860  -14.2550    9.7620 C.ar   50  A50         0.1692
   1044  C5        58.5420  -15.0160    9.2750 C.ar   50  A50         0.1518
   1045  C6        57.7380  -15.6760   10.2170 C.ar   50  A50         0.1919
   1046  N6        56.6980  -16.4490    9.8850 N.pl3  50  A50        -0.1054
   1047  N7        58.5070  -14.9760    7.8880 N.ar   50  A50        -0.2193
   1048  C8        59.5320  -14.2210    7.5720 C.ar   50  A50         0.1816
   1049  N9        60.2260  -13.7460    8.6560 N.ar   50  A50        -0.2693
   1050  OP1       61.7210   -7.8860    5.4050 O.3    50  A50        -0.4373
   1051  OP2       61.0430   -9.0980    3.2660 O.co2  50  A50        -0.5172
   1052  P         65.3930  -10.9770    8.3190 P.3    51  G51         0.2141
   1053  C5'       65.0110  -10.6850   10.8790 C.3    51  G51         0.1812
   1054  O5'       65.7650  -10.3250    9.7190 O.3    51  G51        -0.3114
   1055  C4'       65.5000   -9.9010   12.0550 C.3    51  G51         0.1773
   1056  O4'       66.9390  -10.0580   12.2120 O.3    51  G51        -0.3307
   1057  C3'       65.3010   -8.4100   11.9110 C.3    51  G51         0.1860
   1058  O3'       64.0130   -8.1270   12.3860 O.3    51  G51        -0.3112
   1059  C2'       66.3460   -7.8690   12.8640 C.3    51  G51         0.2309
   1060  O2'       65.8180   -7.9130   14.1770 O.3    51  G51        -0.2156
   1061  C1'       67.5150   -8.8100   12.5620 C.3    51  G51         0.2408
   1062  N1        70.7760   -5.2930   10.8870 N.ar   51  G51        -0.1709
   1063  C2        70.1830   -5.4140   12.1170 C.ar   51  G51         0.2606
   1064  N2        70.4850   -4.4720   13.0120 N.pl3  51  G51        -0.0859
   1065  N3        69.3420   -6.3810   12.4390 N.ar   51  G51        -0.1918
   1066  C4        69.1350   -7.2330   11.4130 C.ar   51  G51         0.1723
   1067  C5        69.6700   -7.1960   10.1440 C.ar   51  G51         0.1748
   1068  C6        70.5660   -6.1470    9.8110 C.ar   51  G51         0.3023
   1069  O6        71.1390   -5.9360    8.7400 O.2    51  G51        -0.2633
   1070  N7        69.1960   -8.2510    9.3790 N.ar   51  G51        -0.2173
   1071  C8        68.4020   -8.9040   10.1830 C.ar   51  G51         0.1817
   1072  N9        68.3220   -8.3430   11.4340 N.ar   51  G51        -0.2693
   1073  OP1       65.3720   -9.9100    7.2950 O.2    51  G51        -0.5172
   1074  OP2       66.1110  -12.2650    8.0630 O.co2  51  G51        -0.4373
   1075  P         63.4640   -6.8530   11.7050 P.3    52  G52         0.2141
   1076  C5'       64.0120   -5.2570   13.7090 C.3    52  G52         0.1812
   1077  O5'       64.4060   -5.7930   12.4330 O.3    52  G52        -0.3114
   1078  C4'       64.8190   -4.0280   14.0240 C.3    52  G52         0.1773
   1079  O4'       66.2340   -4.2810   13.8030 O.3    52  G52        -0.3307
   1080  C3'       64.5140   -2.8250   13.1580 C.3    52  G52         0.1860
   1081  O3'       63.4250   -2.1770   13.7700 O.3    52  G52        -0.3112
   1082  C2'       65.7950   -2.0170   13.2780 C.3    52  G52         0.2309
   1083  O2'       65.8800   -1.3650   14.5240 O.3    52  G52        -0.2156
   1084  C1'       66.8470   -3.1220   13.2640 C.3    52  G52         0.2408
   1085  N1        69.5570   -1.4740    9.3040 N.ar   52  G52        -0.1709
   1086  C2        69.2790   -0.8480   10.4960 C.ar   52  G52         0.2606
   1087  N2        69.8020    0.3760   10.6590 N.pl3  52  G52        -0.0859
   1088  N3        68.5470   -1.3840   11.4590 N.ar   52  G52        -0.1918
   1089  C4        68.1100   -2.6190   11.1330 C.ar   52  G52         0.1723
   1090  C5        68.3210   -3.3280    9.9690 C.ar   52  G52         0.1748
   1091  C6        69.1150   -2.7400    8.9440 C.ar   52  G52         0.3023
   1092  O6        69.4340   -3.2100    7.8470 O.2    52  G52        -0.2633
   1093  N7        67.6900   -4.5640   10.0250 N.ar   52  G52        -0.2173
   1094  C8        67.1120   -4.5790   11.1960 C.ar   52  G52         0.1817
   1095  N9        67.3370   -3.4350   11.9240 N.ar   52  G52        -0.2693
   1096  OP1       62.0530   -6.6330   12.1040 O.3    52  G52        -0.4373
   1097  OP2       63.8240   -7.0500   10.2760 O.co2  52  G52        -0.5172
   1098  P         62.2630   -1.6920   12.8090 P.3    53  C53         0.2141
   1099  C5'       63.2500    0.7020   13.1990 C.3    53  C53         0.1812
   1100  O5'       62.9460   -0.3620   12.2720 O.3    53  C53        -0.3114
   1101  C4'       64.0870    1.7710   12.5430 C.3    53  C53         0.1773
   1102  O4'       65.3970    1.2420   12.2260 O.3    53  C53        -0.3307
   1103  C3'       63.5870    2.2900   11.2060 C.3    53  C53         0.1860
   1104  O3'       62.5090    3.1970   11.3790 O.3    53  C53        -0.3112
   1105  C2'       64.8520    2.9220   10.6570 C.3    53  C53         0.2309
   1106  O2'       65.1350    4.1210   11.3260 O.3    53  C53        -0.2156
   1107  C1'       65.8970    1.8930   11.0770 C.3    53  C53         0.2420
   1108  N1        66.1100    0.8930   10.0270 N.ar   53  C53        -0.2535
   1109  C2        66.9780    1.2200    8.9890 C.ar   53  C53         0.3532
   1110  O2        67.5540    2.3150    9.0220 O.2    53  C53        -0.2443
   1111  N3        67.1780    0.3330    7.9840 N.ar   53  C53        -0.1739
   1112  C4        66.5310   -0.8340    7.9870 C.ar   53  C53         0.1759
   1113  N4        66.7670   -1.6820    6.9860 N.pl3  53  C53        -0.1070
   1114  C5        65.6170   -1.1850    9.0240 C.ar   53  C53         0.0566
   1115  C6        65.4340   -0.2970   10.0140 C.ar   53  C53         0.0850
   1116  OP1       61.0610   -1.3120   13.5710 O.3    53  C53        -0.4373
   1117  OP2       62.1570   -2.7070   11.7450 O.co2  53  C53        -0.5172
   1118  P         61.3840    3.4390   10.2570 P.3    54  A54         0.2141
   1119  C5'       62.6170    5.4480    9.0650 C.3    54  A54         0.1812
   1120  O5'       62.2450    4.0430    9.0540 O.3    54  A54        -0.3114
   1121  C4'       63.5750    5.7920    7.9430 C.3    54  A54         0.1773
   1122  O4'       64.7170    4.8780    7.8990 O.3    54  A54        -0.3307
   1123  C3'       63.0170    5.7280    6.5320 C.3    54  A54         0.1860
   1124  O3'       62.1170    6.7950    6.3000 O.3    54  A54        -0.3112
   1125  C2'       64.3030    5.6760    5.7150 C.3    54  A54         0.2309
   1126  O2'       65.0770    6.8590    5.7380 O.3    54  A54        -0.2156
   1127  C1'       65.1420    4.7160    6.5540 C.3    54  A54         0.2408
   1128  N1        66.4880    1.1230    3.1600 N.ar   54  A54        -0.2040
   1129  C2        66.7520    2.4290    3.2470 C.ar   54  A54         0.2016
   1130  N3        66.3610    3.3100    4.1660 N.ar   54  A54        -0.2048
   1131  C4        65.5820    2.7200    5.0880 C.ar   54  A54         0.1692
   1132  C5        65.2160    1.3870    5.1330 C.ar   54  A54         0.1518
   1133  C6        65.7060    0.5570    4.1030 C.ar   54  A54         0.1919
   1134  N6        65.4260   -0.7420    3.9940 N.pl3  54  A54        -0.1054
   1135  N7        64.3940    1.1420    6.2260 N.ar   54  A54        -0.2193
   1136  C8        64.2730    2.3160    6.7990 C.ar   54  A54         0.1816
   1137  N9        64.9920    3.3100    6.1800 N.ar   54  A54        -0.2693
   1138  OP1       60.5430    4.5730   10.7320 O.3    54  A54        -0.4373
   1139  OP2       60.7120    2.1670    9.8860 O.co2  54  A54        -0.5172
   1140  P         60.7540    6.4390    5.4660 P.3    55  G55         0.2141
   1141  C5'       61.7600    7.0690    3.1080 C.3    55  G55         0.1812
   1142  O5'       61.5070    6.0640    4.1040 O.3    55  G55        -0.3114
   1143  C4'       62.6090    6.5480    1.9740 C.3    55  G55         0.1773
   1144  O4'       63.5470    5.5370    2.4240 O.3    55  G55        -0.3307
   1145  C3'       61.9140    5.8480    0.8240 C.3    55  G55         0.1860
   1146  O3'       61.1760    6.6890   -0.0420 O.3    55  G55        -0.3112
   1147  C2'       63.1090    5.2330    0.1170 C.3    55  G55         0.2309
   1148  O2'       63.9030    6.1600   -0.5770 O.3    55  G55        -0.2156
   1149  C1'       63.9390    4.7440    1.3070 C.3    55  G55         0.2408
   1150  N1        64.4940   -0.0860   -0.1680 N.ar   55  G55        -0.1709
   1151  C2        65.0120    1.0570   -0.7260 C.ar   55  G55         0.2606
   1152  N2        65.7600    0.8860   -1.8280 N.pl3  55  G55        -0.0859
   1153  N3        64.8170    2.2740   -0.2350 N.ar   55  G55        -0.1918
   1154  C4        64.0200    2.2540    0.8580 C.ar   55  G55         0.1723
   1155  C5        63.4430    1.1680    1.4810 C.ar   55  G55         0.1748
   1156  C6        63.6830   -0.1280    0.9590 C.ar   55  G55         0.3023
   1157  O6        63.2840   -1.2100    1.3830 O.2    55  G55        -0.2633
   1158  N7        62.7130    1.5690    2.5930 N.ar   55  G55        -0.2173
   1159  C8        62.8300    2.8680    2.6070 C.ar   55  G55         0.1817
   1160  N9        63.6360    3.3460    1.6000 N.ar   55  G55        -0.2693
   1161  OP1       59.9260    7.6780    5.3690 O.2    55  G55        -0.5172
   1162  OP2       60.0620    5.1880    5.8740 O.co2  55  G55        -0.4373
   1163  P         59.6600    6.2160   -0.4070 P.3    56  A56         0.2141
   1164  C5'       60.7340    5.6900   -2.7210 C.3    56  A56         0.1812
   1165  O5'       60.1140    5.1960   -1.5460 O.3    56  A56        -0.3114
   1166  C4'       61.2840    4.5560   -3.5440 C.3    56  A56         0.1773
   1167  O4'       62.2320    3.7270   -2.8170 O.3    56  A56        -0.3307
   1168  C3'       60.2900    3.5440   -4.0850 C.3    56  A56         0.1860
   1169  O3'       59.6610    4.1610   -5.1760 O.3    56  A56        -0.3112
   1170  C2'       61.2500    2.4620   -4.5670 C.3    56  A56         0.2309
   1171  O2'       61.8770    2.7770   -5.7840 O.3    56  A56        -0.2156
   1172  C1'       62.2750    2.4310   -3.4230 C.3    56  A56         0.2408
   1173  N1        61.9470   -2.6120   -2.4990 N.ar   56  A56        -0.2040
   1174  C2        62.5100   -1.9100   -3.4920 C.ar   56  A56         0.2016
   1175  N3        62.5840   -0.5880   -3.6550 N.ar   56  A56        -0.2048
   1176  C4        61.9740    0.0500   -2.6380 C.ar   56  A56         0.1692
   1177  C5        61.3400   -0.5340   -1.5540 C.ar   56  A56         0.1518
   1178  C6        61.3290   -1.9410   -1.5010 C.ar   56  A56         0.1919
   1179  N6        60.7980   -2.6380   -0.4970 N.pl3  56  A56        -0.1054
   1180  N7        60.8370    0.4360   -0.6990 N.ar   56  A56        -0.2193
   1181  C8        61.1300    1.5640   -1.2970 C.ar   56  A56         0.1816
   1182  N9        61.8590    1.4070   -2.4510 N.ar   56  A56        -0.2693
   1183  OP1       58.8530    7.2410   -1.0970 O.2    56  A56        -0.5172
   1184  OP2       59.0160    5.4800    0.7140 O.co2  56  A56        -0.4373
   1185  P         58.2250    3.7770   -5.6570 P.3    57  A57         0.2141
   1186  C5'       57.8320    1.2810   -6.4500 C.3    57  A57         0.1812
   1187  O5'       58.6700    2.4640   -6.4390 O.3    57  A57        -0.3114
   1188  C4'       58.6830    0.1030   -6.8530 C.3    57  A57         0.1773
   1189  O4'       59.4970   -0.3450   -5.7370 O.3    57  A57        -0.3307
   1190  C3'       57.9340   -1.1310   -7.3270 C.3    57  A57         0.1860
   1191  O3'       57.8810   -1.0300   -8.7460 O.3    57  A57        -0.3112
   1192  C2'       58.9210   -2.2500   -7.0340 C.3    57  A57         0.2309
   1193  O2'       59.7760   -2.3480   -8.1520 O.3    57  A57        -0.2156
   1194  C1'       59.6180   -1.7520   -5.7680 C.3    57  A57         0.2408
   1195  N1        58.7950   -5.8850   -2.7780 N.ar   57  A57        -0.2040
   1196  C2        59.3110   -5.7630   -4.0070 C.ar   57  A57         0.2016
   1197  N3        59.4660   -4.6760   -4.7490 N.ar   57  A57        -0.2048
   1198  C4        59.0640   -3.5860   -4.0740 C.ar   57  A57         0.1692
   1199  C5        58.5130   -3.5540   -2.8060 C.ar   57  A57         0.1518
   1200  C6        58.3980   -4.7750   -2.1300 C.ar   57  A57         0.1919
   1201  N6        57.9240   -4.8960   -0.8920 N.pl3  57  A57        -0.1054
   1202  N7        58.2200   -2.2530   -2.4320 N.ar   57  A57        -0.2193
   1203  C8        58.6080   -1.5360   -3.4570 C.ar   57  A57         0.1816
   1204  N9        59.1110   -2.2770   -4.4940 N.ar   57  A57        -0.2693
   1205  OP1       57.7830    4.6370   -6.7900 O.2    57  A57        -0.5172
   1206  OP2       57.2590    3.4860   -4.5560 O.co2  57  A57        -0.4373
   1207  P         56.4400   -0.7620   -9.4270 P.3    58  G58         0.2141
   1208  C5'       56.0240   -3.3990   -9.2880 C.3    58  G58         0.1812
   1209  O5'       55.6110   -2.0380   -8.9390 O.3    58  G58        -0.3114
   1210  C4'       55.5570   -4.3610   -8.2160 C.3    58  G58         0.1773
   1211  O4'       55.8040   -3.7810   -6.9020 O.3    58  G58        -0.3307
   1212  C3'       54.0540   -4.6310   -8.2110 C.3    58  G58         0.1860
   1213  O3'       53.7990   -5.8300   -7.4660 O.3    58  G58        -0.3112
   1214  C2'       53.6060   -3.4970   -7.3480 C.3    58  G58         0.2309
   1215  O2'       52.3080   -3.4400   -6.8660 O.3    58  G58        -0.2156
   1216  C1'       54.5790   -3.6760   -6.2030 C.3    58  G58         0.2408
   1217  N1        55.0090   -1.9060   -1.4550 N.ar   58  G58        -0.1709
   1218  C2        54.9800   -3.2060   -1.8880 C.ar   58  G58         0.2606
   1219  N2        55.0530   -4.1430   -0.9330 N.pl3  58  G58        -0.0859
   1220  N3        54.8500   -3.5570   -3.1570 N.ar   58  G58        -0.1918
   1221  C4        54.7860   -2.4840   -3.9720 C.ar   58  G58         0.1723
   1222  C5        54.8430   -1.1480   -3.6380 C.ar   58  G58         0.1748
   1223  C6        54.9730   -0.7880   -2.2770 C.ar   58  G58         0.3023
   1224  O6        55.0530    0.3420   -1.7820 O.2    58  G58        -0.2633
   1225  N7        54.7680   -0.3550   -4.7720 N.ar   58  G58        -0.2173
   1226  C8        54.6870   -1.2020   -5.7570 C.ar   58  G58         0.1817
   1227  N9        54.6560   -2.5100   -5.3400 N.ar   58  G58        -0.2693
   1228  OP1       56.7940   -0.8010  -10.8980 O.2    58  G58        -0.5172
   1229  OP2       55.5880    0.2790   -8.8760 O.co2  58  G58        -0.4373
   1230  P         52.3550   -6.5840   -7.5460 P.3    59  U59         0.2141
   1231  C5'       53.7070   -8.6020   -8.5410 C.3    59  U59         0.1812
   1232  O5'       53.1660   -7.9510   -7.3870 O.3    59  U59        -0.3114
   1233  C4'       54.4680   -9.8130   -8.0910 C.3    59  U59         0.1773
   1234  O4'       55.7640   -9.4490   -7.5100 O.3    59  U59        -0.3307
   1235  C3'       53.7750  -10.6530   -7.0410 C.3    59  U59         0.1860
   1236  O3'       53.1720  -11.6630   -7.8160 O.3    59  U59        -0.3112
   1237  C2'       54.9620  -11.3030   -6.3420 C.3    59  U59         0.2309
   1238  O2'       55.5890  -12.3290   -7.0890 O.3    59  U59        -0.2156
   1239  C1'       55.9600  -10.1480   -6.2970 C.3    59  U59         0.2420
   1240  N1        55.7350   -9.2250   -5.1670 N.ar   59  U59        -0.2534
   1241  C2        55.9810   -9.6920   -3.8850 C.ar   59  U59         0.3546
   1242  O2        56.4030  -10.8060   -3.6550 O.2    59  U59        -0.2443
   1243  N3        55.8110   -8.7660   -2.8900 N.ar   59  U59        -0.1530
   1244  C4        55.4280   -7.4550   -3.0300 C.ar   59  U59         0.2846
   1245  O4        55.2550   -6.7700   -2.0290 O.2    59  U59        -0.2650
   1246  C5        55.1780   -7.0510   -4.3820 C.ar   59  U59         0.0814
   1247  C6        55.3360   -7.9290   -5.3790 C.ar   59  U59         0.0870
   1248  OP1       51.8040   -6.3410   -8.9110 O.2    59  U59        -0.5172
   1249  OP2       51.4390   -6.3510   -6.3940 O.co2  59  U59        -0.4373
   1250  P         51.7410  -12.2260   -7.4930 P.3    60  A60         0.2141
   1251  C5'       52.9380  -14.2200   -6.1490 C.3    60  A60         0.1812
   1252  O5'       52.0670  -13.0640   -6.1750 O.3    60  A60        -0.3114
   1253  C4'       52.7460  -14.9600   -4.8410 C.3    60  A60         0.1773
   1254  O4'       53.5890  -14.3320   -3.8530 O.3    60  A60        -0.3307
   1255  C3'       51.3440  -14.8880   -4.2510 C.3    60  A60         0.1860
   1256  O3'       50.5540  -15.9370   -4.7620 O.3    60  A60        -0.3112
   1257  C2'       51.6050  -15.0190   -2.7560 C.3    60  A60         0.2309
   1258  O2'       51.9170  -16.2880   -2.2640 O.3    60  A60        -0.2156
   1259  C1'       52.9350  -14.2830   -2.5960 C.3    60  A60         0.2408
   1260  N1        52.9910  -11.0300    1.3990 N.ar   60  A60        -0.2040
   1261  C2        53.2990  -12.3310    1.2890 C.ar   60  A60         0.2016
   1262  N3        53.2820  -13.1150    0.2090 N.ar   60  A60        -0.2048
   1263  C4        52.8740  -12.4260   -0.8690 C.ar   60  A60         0.1692
   1264  C5        52.4990  -11.0940   -0.9090 C.ar   60  A60         0.1518
   1265  C6        52.5830  -10.3680    0.2940 C.ar   60  A60         0.1919
   1266  N6        52.2900   -9.0690    0.3990 N.pl3  60  A60        -0.1054
   1267  N7        52.0820  -10.7400   -2.1830 N.ar   60  A60        -0.2193
   1268  C8        52.2680  -11.8300   -2.8870 C.ar   60  A60         0.1816
   1269  N9        52.7700  -12.8830   -2.1600 N.ar   60  A60        -0.2693
   1270  OP1       51.6580  -13.1450   -8.6070 O.2    60  A60        -0.5172
   1271  OP2       50.5770  -11.3390   -7.2190 O.co2  60  A60        -0.4373
   1272  P         48.9870  -16.1550   -4.5420 P.3    61  A61         0.2141
   1273  C5'       48.4840  -16.5410   -1.9910 C.3    61  A61         0.1812
   1274  O5'       48.6530  -15.6480   -3.0690 O.3    61  A61        -0.3114
   1275  C4'       48.2960  -15.7710   -0.7250 C.3    61  A61         0.1773
   1276  O4'       49.3870  -14.8070   -0.5500 O.3    61  A61        -0.3307
   1277  C3'       47.0400  -14.9210   -0.6820 C.3    61  A61         0.1860
   1278  O3'       45.9580  -15.7390   -0.3130 O.3    61  A61        -0.3112
   1279  C2'       47.4300  -13.9160    0.3930 C.3    61  A61         0.2309
   1280  O2'       47.5810  -14.5070    1.6530 O.3    61  A61        -0.2156
   1281  C1'       48.8750  -13.6130    0.0010 C.3    61  A61         0.2408
   1282  N1        48.7430   -8.5660   -0.7470 N.ar   61  A61        -0.2040
   1283  C2        48.8020   -9.3150    0.3580 C.ar   61  A61         0.2016
   1284  N3        48.8600  -10.6330    0.4770 N.ar   61  A61        -0.2048
   1285  C4        48.8380  -11.2180   -0.7360 C.ar   61  A61         0.1692
   1286  C5        48.7800  -10.5820   -1.9620 C.ar   61  A61         0.1518
   1287  C6        48.7470   -9.1790   -1.9490 C.ar   61  A61         0.1919
   1288  N6        48.7210   -8.4240   -3.0500 N.pl3  61  A61        -0.1054
   1289  N7        48.7480  -11.5090   -2.9930 N.ar   61  A61        -0.2193
   1290  C8        48.8400  -12.6640   -2.3790 C.ar   61  A61         0.1816
   1291  N9        48.9050  -12.5630   -1.0150 N.ar   61  A61        -0.2693
   1292  OP1       48.6510  -17.6040   -4.6070 O.3    61  A61        -0.4373
   1293  OP2       48.1600  -15.2550   -5.3640 O.co2  61  A61        -0.5172
   1294  P         44.4570  -15.3780   -0.6610 P.3    62  C62         0.2141
   1295  C5'       44.0910  -14.2490    1.6800 C.3    62  C62         0.1812
   1296  O5'       43.8990  -14.2010    0.2530 O.3    62  C62        -0.3114
   1297  C4'       43.8650  -12.8900    2.2560 C.3    62  C62         0.1773
   1298  O4'       45.0370  -12.0640    1.9670 O.3    62  C62        -0.3307
   1299  C3'       42.7170  -12.1170    1.6290 C.3    62  C62         0.1860
   1300  O3'       41.4840  -12.5150    2.1900 O.3    62  C62        -0.3112
   1301  C2'       43.1120  -10.6850    1.9620 C.3    62  C62         0.2309
   1302  O2'       42.8290  -10.3910    3.3110 O.3    62  C62        -0.2156
   1303  C1'       44.6320  -10.7220    1.7390 C.3    62  C62         0.2420
   1304  N1        44.9380  -10.3840    0.3420 N.ar   62  C62        -0.2535
   1305  C2        44.9750   -9.0360   -0.0460 C.ar   62  C62         0.3532
   1306  O2        44.8110   -8.1600    0.8150 O.2    62  C62        -0.2443
   1307  N3        45.1900   -8.7270   -1.3480 N.ar   62  C62        -0.1739
   1308  C4        45.3490   -9.7020   -2.2460 C.ar   62  C62         0.1759
   1309  N4        45.5550   -9.3580   -3.5170 N.pl3  62  C62        -0.1070
   1310  C5        45.3210  -11.0810   -1.8750 C.ar   62  C62         0.0566
   1311  C6        45.0930  -11.3730   -0.5890 C.ar   62  C62         0.0850
   1312  OP1       43.6640  -16.5470   -0.1630 O.3    62  C62        -0.4373
   1313  OP2       44.2600  -14.8800   -2.0240 O.co2  62  C62        -0.5172
   1314  P         40.0620  -12.3130    1.4630 P.3    63  A63         0.2141
   1315  C5'       39.5970  -10.0580    2.7590 C.3    63  A63         0.1812
   1316  O5'       39.5290  -10.8110    1.5270 O.3    63  A63        -0.3114
   1317  C4'       39.4830   -8.5880    2.4530 C.3    63  A63         0.1773
   1318  O4'       40.7430   -8.0830    1.9200 O.3    63  A63        -0.3307
   1319  C3'       38.4690   -8.2610    1.3680 C.3    63  A63         0.1860
   1320  O3'       37.1580   -8.1800    1.9290 O.3    63  A63        -0.3112
   1321  C2'       38.9560   -6.8960    0.9090 C.3    63  A63         0.2309
   1322  O2'       38.5450   -6.0170    1.9270 O.3    63  A63        -0.2156
   1323  C1'       40.4760   -7.0570    0.9860 C.3    63  A63         0.2408
   1324  N1        41.9630   -5.4830   -3.6940 N.ar   63  A63        -0.2040
   1325  C2        41.4440   -4.8270   -2.6530 C.ar   63  A63         0.2016
   1326  N3        41.0820   -5.2920   -1.4570 N.ar   63  A63        -0.2048
   1327  C4        41.2910   -6.6180   -1.3770 C.ar   63  A63         0.1692
   1328  C5        41.8060   -7.4330   -2.3670 C.ar   63  A63         0.1518
   1329  C6        42.1640   -6.8170   -3.5790 C.ar   63  A63         0.1919
   1330  N6        42.7180   -7.4690   -4.6020 N.pl3  63  A63        -0.1054
   1331  N7        41.9270   -8.7400   -1.9120 N.ar   63  A63        -0.2193
   1332  C8        41.4570   -8.6940   -0.6870 C.ar   63  A63         0.1816
   1333  N9        41.0630   -7.4390   -0.2950 N.ar   63  A63        -0.2693
   1334  OP1       39.2300  -13.1300    2.3760 O.3    63  A63        -0.4373
   1335  OP2       40.0480  -12.5790    0.0040 O.co2  63  A63        -0.5172
   1336  P         35.8160   -8.0130    1.0360 P.3    64  G64         0.2141
   1337  C5'       35.6940   -5.3300    0.9400 C.3    64  G64         0.1812
   1338  O5'       35.6870   -6.6190    0.2720 O.3    64  G64        -0.3114
   1339  C4'       35.7770   -4.2550   -0.1200 C.3    64  G64         0.1773
   1340  O4'       37.1080   -4.2610   -0.6950 O.3    64  G64        -0.3307
   1341  C3'       34.8910   -4.5660   -1.3160 C.3    64  G64         0.1860
   1342  O3'       33.4940   -4.3890   -1.0060 O.3    64  G64        -0.3112
   1343  C2'       35.5710   -3.7760   -2.4360 C.3    64  G64         0.2309
   1344  O2'       35.2610   -2.4000   -2.4250 O.3    64  G64        -0.2156
   1345  C1'       37.0510   -3.9020   -2.0640 C.3    64  G64         0.2408
   1346  N1        39.2410   -5.0420   -6.5300 N.ar   64  G64        -0.1709
   1347  C2        38.7050   -3.8580   -6.1080 C.ar   64  G64         0.2606
   1348  N2        38.7760   -2.8500   -6.9860 N.pl3  64  G64        -0.0859
   1349  N3        38.1880   -3.6630   -4.9010 N.ar   64  G64        -0.1918
   1350  C4        38.2310   -4.7810   -4.1460 C.ar   64  G64         0.1723
   1351  C5        38.7260   -6.0220   -4.4820 C.ar   64  G64         0.1748
   1352  C6        39.3150   -6.2010   -5.7690 C.ar   64  G64         0.3023
   1353  O6        39.8520   -7.2110   -6.2460 O.2    64  G64        -0.2633
   1354  N7        38.6150   -6.9010   -3.4130 N.ar   64  G64        -0.2173
   1355  C8        38.0140   -6.2080   -2.4800 C.ar   64  G64         0.1817
   1356  N9        37.7510   -4.9140   -2.8560 N.ar   64  G64        -0.2693
   1357  OP1       34.6930   -7.9530    2.0070 O.3    64  G64        -0.4373
   1358  OP2       35.7760   -8.9970   -0.0820 O.co2  64  G64        -0.5172
   1359  P         32.3820   -4.3940   -2.1680 P.3    65  U65         0.2141
   1360  C5'       32.3390   -2.9510   -4.3210 C.3    65  U65         0.1812
   1361  O5'       33.0420   -3.8930   -3.5220 O.3    65  U65        -0.3114
   1362  C4'       33.0420   -2.7340   -5.6270 C.3    65  U65         0.1773
   1363  O4'       34.4080   -3.2280   -5.5600 O.3    65  U65        -0.3307
   1364  C3'       32.4480   -3.5620   -6.7250 C.3    65  U65         0.1860
   1365  O3'       31.2500   -2.9240   -7.1370 O.3    65  U65        -0.3112
   1366  C2'       33.5780   -3.5690   -7.7470 C.3    65  U65         0.2309
   1367  O2'       33.6320   -2.3370   -8.4060 O.3    65  U65        -0.2156
   1368  C1'       34.8150   -3.6290   -6.8560 C.3    65  U65         0.2420
   1369  N1        35.3670   -4.9840   -6.7640 N.ar   65  U65        -0.2534
   1370  C2        36.1170   -5.4710   -7.8280 C.ar   65  U65         0.3546
   1371  O2        36.3180   -4.8320   -8.8440 O.2    65  U65        -0.2443
   1372  N3        36.5850   -6.7530   -7.6650 N.ar   65  U65        -0.1530
   1373  C4        36.4260   -7.5610   -6.5570 C.ar   65  U65         0.2846
   1374  O4        36.9180   -8.6790   -6.5520 O.2    65  U65        -0.2650
   1375  C5        35.6480   -6.9830   -5.5010 C.ar   65  U65         0.0814
   1376  C6        35.1300   -5.7580   -5.6510 C.ar   65  U65         0.0870
   1377  OP1       31.3190   -3.4750   -1.7550 O.3    65  U65        -0.4373
   1378  OP2       32.0230   -5.8130   -2.4510 O.co2  65  U65        -0.5172
   1379  P         29.8050   -3.6690   -7.2230 P.3    66  U66         0.2141
   1380  C5'       29.5620   -5.0840   -4.9930 C.3    66  U66         0.1812
   1381  O5'       29.5270   -3.8280   -5.6560 O.3    66  U66        -0.3114
   1382  C4'       28.2830   -5.8420   -5.2350 C.3    66  U66         0.1773
   1383  O4'       28.3010   -6.9460   -4.3140 O.3    66  U66        -0.3307
   1384  C3'       27.0010   -5.1250   -4.8860 C.3    66  U66         0.1860
   1385  O3'       26.5690   -4.3270   -5.9670 O.3    66  U66        -0.3112
   1386  C2'       26.0470   -6.2590   -4.5140 C.3    66  U66         0.2309
   1387  O2'       25.5230   -6.9120   -5.6470 O.3    66  U66        -0.2156
   1388  C1'       26.9980   -7.2730   -3.8870 C.3    66  U66         0.2420
   1389  N1        27.0380   -7.3430   -2.4200 N.ar   66  U66        -0.2534
   1390  C2        25.9050   -7.7790   -1.7530 C.ar   66  U66         0.3546
   1391  O2        24.8750   -8.0890   -2.3300 O.2    66  U66        -0.2443
   1392  N3        26.0320   -7.8540   -0.3860 N.ar   66  U66        -0.1530
   1393  C4        27.1550   -7.5670    0.3650 C.ar   66  U66         0.2846
   1394  O4        27.1120   -7.6970    1.5820 O.2    66  U66        -0.2650
   1395  C5        28.2950   -7.1430   -0.3980 C.ar   66  U66         0.0814
   1396  C6        28.2050   -7.0670   -1.7340 C.ar   66  U66         0.0870
   1397  OP1       30.1250   -4.8760   -8.0340 O.2    66  U66        -0.5172
   1398  OP2       28.6960   -2.7510   -7.6830 O.co2  66  U66        -0.4373
   1399  P         25.7910   -2.9690   -5.6520 P.3    67  A67         0.2141
   1400  C5'       23.5570   -3.9840   -6.5130 C.3    67  A67         0.1812
   1401  O5'       24.2460   -3.2750   -5.4780 O.3    67  A67        -0.3114
   1402  C4'       22.2880   -4.5910   -5.9770 C.3    67  A67         0.1773
   1403  O4'       22.6190   -5.6260   -5.0090 O.3    67  A67        -0.3307
   1404  C3'       21.4540   -3.6020   -5.1800 C.3    67  A67         0.1860
   1405  O3'       20.5920   -2.9130   -6.0550 O.3    67  A67        -0.3112
   1406  C2'       20.6460   -4.4980   -4.2570 C.3    67  A67         0.2309
   1407  O2'       19.4770   -4.9160   -4.9210 O.3    67  A67        -0.2156
   1408  C1'       21.6270   -5.6440   -3.9870 C.3    67  A67         0.2408
   1409  N1        21.6020   -7.0430    0.9690 N.ar   67  A67        -0.2040
   1410  C2        20.8180   -7.3780   -0.0620 C.ar   67  A67         0.2016
   1411  N3        20.8770   -6.9790   -1.3300 N.ar   67  A67        -0.2048
   1412  C4        21.9050   -6.1380   -1.5140 C.ar   67  A67         0.1692
   1413  C5        22.7940   -5.6960   -0.5540 C.ar   67  A67         0.1518
   1414  C6        22.6170   -6.1800    0.7530 C.ar   67  A67         0.1919
   1415  N6        23.4030   -5.8420    1.7860 N.pl3  67  A67        -0.1054
   1416  N7        23.7250   -4.8290   -1.1100 N.ar   67  A67        -0.2193
   1417  C8        23.3630   -4.7430   -2.3680 C.ar   67  A67         0.1816
   1418  N9        22.2750   -5.5190   -2.6830 N.ar   67  A67        -0.2693
   1419  OP1       25.9430   -2.2700   -6.9760 O.2    67  A67        -0.5172
   1420  OP2       26.3560   -2.3350   -4.3970 O.co2  67  A67        -0.4373
   1421  P         20.5000   -1.3150   -5.9610 P.3    68  G68         0.2141
   1422  C5'       21.1110   -0.2470   -3.6500 C.3    68  G68         0.1812
   1423  O5'       20.1320   -0.8470   -4.4910 O.3    68  G68        -0.3114
   1424  C4'       20.8820   -0.7040   -2.2230 C.3    68  G68         0.1773
   1425  O4'       21.7830   -1.8040   -1.9130 O.3    68  G68        -0.3307
   1426  C3'       21.1860    0.3260   -1.1540 C.3    68  G68         0.1860
   1427  O3'       20.0560    1.1840   -1.0670 O.3    68  G68        -0.3112
   1428  C2'       21.4330   -0.5640    0.0580 C.3    68  G68         0.2309
   1429  O2'       20.2760   -1.2270    0.5260 O.3    68  G68        -0.2156
   1430  C1'       22.2330   -1.6920   -0.5750 C.3    68  G68         0.2408
   1431  N1        26.4840   -1.1120    2.1450 N.ar   68  G68        -0.1709
   1432  C2        25.1970   -1.3090    2.5770 C.ar   68  G68         0.2606
   1433  N2        25.0350   -1.4020    3.8990 N.pl3  68  G68        -0.0859
   1434  N3        24.1570   -1.4690    1.7680 N.ar   68  G68        -0.1918
   1435  C4        24.5150   -1.3900    0.4720 C.ar   68  G68         0.1723
   1436  C5        25.7610   -1.1570   -0.0610 C.ar   68  G68         0.1748
   1437  C6        26.8680   -1.0140    0.8140 C.ar   68  G68         0.3023
   1438  O6        28.0650   -0.8650    0.5260 O.2    68  G68        -0.2633
   1439  N7        25.7140   -1.1810   -1.4480 N.ar   68  G68        -0.2173
   1440  C8        24.4480   -1.3310   -1.7260 C.ar   68  G68         0.1817
   1441  N9        23.6660   -1.4570   -0.6060 N.ar   68  G68        -0.2693
   1442  OP1       19.2280   -1.0580   -6.7040 O.2    68  G68        -0.5172
   1443  OP2       21.8390   -0.7850   -6.3900 O.co2  68  G68        -0.4373
   1444  P         20.2430    2.7030   -0.5090 P.3    69  C69         0.2141
   1445  C5'       19.6880    2.1420    2.0230 C.3    69  C69         0.1812
   1446  O5'       20.5840    2.7350    1.0530 O.3    69  C69        -0.3114
   1447  C4'       20.4310    1.9360    3.3280 C.3    69  C69         0.1773
   1448  O4'       21.6830    1.2450    3.0570 O.3    69  C69        -0.3307
   1449  C3'       20.9740    3.2000    3.9650 C.3    69  C69         0.1860
   1450  O3'       20.0070    4.0640    4.5590 O.3    69  C69        -0.3112
   1451  C2'       22.0210    2.6420    4.9240 C.3    69  C69         0.2309
   1452  O2'       21.2850    2.0970    5.9880 O.3    69  C69        -0.2156
   1453  C1'       22.5870    1.4670    4.1260 C.3    69  C69         0.2420
   1454  N1        23.9360    1.6740    3.5690 N.ar   69  C69        -0.2535
   1455  C2        25.0380    1.6720    4.4410 C.ar   69  C69         0.3532
   1456  O2        24.8410    1.5070    5.6550 O.2    69  C69        -0.2443
   1457  N3        26.2790    1.8830    3.9430 N.ar   69  C69        -0.1739
   1458  C4        26.4450    2.0520    2.6240 C.ar   69  C69         0.1759
   1459  N4        27.6880    2.2500    2.1650 N.pl3  69  C69        -0.1070
   1460  C5        25.3460    2.0170    1.7140 C.ar   69  C69         0.0566
   1461  C6        24.1170    1.8830    2.2320 C.ar   69  C69         0.0850
   1462  OP1       18.8690    3.2450   -0.7350 O.3    69  C69        -0.4373
   1463  OP2       21.4290    3.2380   -1.2530 O.co2  69  C69        -0.5172
   1464  P         20.3190    5.6630    4.5710 P.3    70  C70         0.2141
   1465  C5'       22.5850    6.1750    5.6990 C.3    70  C70         0.1812
   1466  O5'       21.2180    5.8670    5.8600 O.3    70  C70        -0.3114
   1467  C4'       23.2590    5.9360    7.0150 C.3    70  C70         0.1773
   1468  O4'       24.1160    4.7710    6.8640 O.3    70  C70        -0.3307
   1469  C3'       24.1710    7.0810    7.4390 C.3    70  C70         0.1860
   1470  O3'       23.5340    8.0580    8.2780 O.3    70  C70        -0.3112
   1471  C2'       25.3430    6.3540    8.0800 C.3    70  C70         0.2309
   1472  O2'       24.8690    5.9220    9.3280 O.3    70  C70        -0.2156
   1473  C1'       25.4510    5.1130    7.2000 C.3    70  C70         0.2420
   1474  N1        26.2390    5.2530    5.9610 N.ar   70  C70        -0.2535
   1475  C2        27.6280    5.2660    6.0650 C.ar   70  C70         0.3532
   1476  O2        28.1360    5.1960    7.1860 O.2    70  C70        -0.2443
   1477  N3        28.3780    5.3810    4.9480 N.ar   70  C70        -0.1739
   1478  C4        27.7820    5.3960    3.7480 C.ar   70  C70         0.1759
   1479  N4        28.5560    5.4610    2.6620 N.pl3  70  C70        -0.1070
   1480  C5        26.3650    5.3670    3.6100 C.ar   70  C70         0.0566
   1481  C6        25.6390    5.2860    4.7330 C.ar   70  C70         0.0850
   1482  OP1       19.0950    6.3970    4.9620 O.3    70  C70        -0.4373
   1483  OP2       21.1240    6.0640    3.3680 O.co2  70  C70        -0.5172
   1484  P         23.8990    9.6370    8.0000 P.3    71  U71         0.2141
   1485  C5'       26.0150    9.6300    9.4780 C.3    71  U71         0.1812
   1486  O5'       25.4720    9.8340    8.1690 O.3    71  U71        -0.3114
   1487  C4'       27.5040    9.4640    9.4030 C.3    71  U71         0.1773
   1488  O4'       27.8190    8.4450    8.4320 O.3    71  U71        -0.3307
   1489  C3'       28.2750   10.6870    8.9560 C.3    71  U71         0.1860
   1490  O3'       28.5240   11.3220   10.2080 O.3    71  U71        -0.3112
   1491  C2'       29.5390   10.0940    8.3250 C.3    71  U71         0.2309
   1492  O2'       30.6700    9.8710    9.1420 O.3    71  U71        -0.2156
   1493  C1'       29.0750    8.7120    7.8580 C.3    71  U71         0.2420
   1494  N1        28.9210    8.6610    6.4050 N.ar   71  U71        -0.2534
   1495  C2        30.0760    8.6390    5.6540 C.ar   71  U71         0.3546
   1496  O2        31.1930    8.6380    6.1620 O.2    71  U71        -0.2443
   1497  N3        29.8780    8.6090    4.2910 N.ar   71  U71        -0.1530
   1498  C4        28.6680    8.5970    3.6230 C.ar   71  U71         0.2846
   1499  O4        28.6490    8.5900    2.3860 O.2    71  U71        -0.2650
   1500  C5        27.5200    8.6220    4.4790 C.ar   71  U71         0.0814
   1501  C6        27.6830    8.6760    5.8080 C.ar   71  U71         0.0870
   1502  OP1       23.2460   10.2590    9.1690 O.3    71  U71        -0.4373
   1503  OP2       23.5740   10.0870    6.6160 O.co2  71  U71        -0.5172
   1504  P         28.8840   12.8770   10.4780 P.3    72  A72         0.2141
   1505  C5'       31.0940   12.2910   11.7810 C.3    72  A72         0.1812
   1506  O5'       30.4730   12.7800   10.5920 O.3    72  A72        -0.3114
   1507  C4'       32.5850   12.4080   11.6310 C.3    72  A72         0.1773
   1508  O4'       32.9980   11.6880   10.4510 O.3    72  A72        -0.3307
   1509  C3'       33.1150   13.8000   11.3360 C.3    72  A72         0.1860
   1510  O3'       33.1830   14.5510   12.5420 O.3    72  A72        -0.3112
   1511  C2'       34.4990   13.4800   10.7870 C.3    72  A72         0.2309
   1512  O2'       35.3980   13.1060   11.8050 O.3    72  A72        -0.2156
   1513  C1'       34.2160   12.2280    9.9660 C.3    72  A72         0.2408
   1514  N1        36.5650   13.7790    5.6710 N.ar   72  A72        -0.2040
   1515  C2        37.0060   13.5950    6.9210 C.ar   72  A72         0.2016
   1516  N3        36.3390   13.1840    7.9950 N.ar   72  A72        -0.2048
   1517  C4        35.0540   12.9330    7.6870 C.ar   72  A72         0.1692
   1518  C5        34.4580   13.0630    6.4470 C.ar   72  A72         0.1518
   1519  C6        35.2700   13.5060    5.3950 C.ar   72  A72         0.1919
   1520  N6        34.8370   13.6600    4.1400 N.pl3  72  A72        -0.1054
   1521  N7        33.1150   12.7150    6.5050 N.ar   72  A72        -0.2193
   1522  C8        32.9260   12.3990    7.7650 C.ar   72  A72         0.1816
   1523  N9        34.0580   12.5120    8.5380 N.ar   72  A72        -0.2693
   1524  OP1       28.2590   13.1120   11.7990 O.3    72  A72        -0.4373
   1525  OP2       28.5060   13.7060    9.2790 O.co2  72  A72        -0.5172
   1526  P         32.9250   16.1300   12.5020 P.3    73  A73         0.2141
   1527  C5'       35.5100   16.7720   12.1520 C.3    73  A73         0.1812
   1528  O5'       34.1520   16.6760   11.6340 O.3    73  A73        -0.3114
   1529  C4'       36.4610   17.1420   11.0250 C.3    73  A73         0.1773
   1530  O4'       36.2770   16.2210    9.9160 O.3    73  A73        -0.3307
   1531  C3'       36.2040   18.4930   10.3730 C.3    73  A73         0.1860
   1532  O3'       36.7760   19.5640   11.1040 O.3    73  A73        -0.3112
   1533  C2'       36.8470   18.3330    9.0010 C.3    73  A73         0.2309
   1534  O2'       38.2310   18.5890    9.0870 O.3    73  A73        -0.2156
   1535  C1'       36.5450   16.8710    8.6830 C.3    73  A73         0.2408
   1536  N1        34.6560   16.8830    3.8810 N.ar   73  A73        -0.2040
   1537  C2        35.8630   17.1910    4.3670 C.ar   73  A73         0.2016
   1538  N3        36.2970   17.1700    5.6290 N.ar   73  A73        -0.2048
   1539  C4        35.3140   16.7930    6.4610 C.ar   73  A73         0.1692
   1540  C5        34.0170   16.4550    6.1130 C.ar   73  A73         0.1518
   1541  C6        33.6870   16.5070    4.7480 C.ar   73  A73         0.1919
   1542  N6        32.4710   16.2170    4.2670 N.pl3  73  A73        -0.1054
   1543  N7        33.2770   16.1250    7.2370 N.ar   73  A73        -0.2193
   1544  C8        34.1300   16.2650    8.2280 C.ar   73  A73         0.1816
   1545  N9        35.3810   16.6700    7.8280 N.ar   73  A73        -0.2693
   1546  OP1       32.9900   16.5860   13.9080 O.3    73  A73        -0.4373
   1547  OP2       31.6530   16.2560   11.7450 O.co2  73  A73        -0.5172
   1548  P         35.7970   20.8070   11.3390 P.3    74  C74         0.2141
   1549  C5'       36.4290   21.9260    9.0190 C.3    74  C74         0.1812
   1550  O5'       35.4550   21.2970    9.8550 O.3    74  C74        -0.3114
   1551  C4'       35.9920   21.8420    7.5760 C.3    74  C74         0.1773
   1552  O4'       35.4740   20.5170    7.3150 O.3    74  C74        -0.3307
   1553  C3'       34.8300   22.7390    7.1930 C.3    74  C74         0.1860
   1554  O3'       35.2180   24.0670    6.8790 O.3    74  C74        -0.3112
   1555  C2'       34.2830   22.0480    5.9530 C.3    74  C74         0.2309
   1556  O2'       35.0460   22.1960    4.7810 O.3    74  C74        -0.2156
   1557  C1'       34.4560   20.5850    6.3270 C.3    74  C74         0.2420
   1558  N1        33.2210   19.9850    6.8610 N.ar   74  C74        -0.2535
   1559  C2        32.1670   19.7150    5.9670 C.ar   74  C74         0.3532
   1560  O2        32.3130   19.9930    4.7610 O.2    74  C74        -0.2443
   1561  N3        31.0340   19.1370    6.4370 N.ar   74  C74        -0.1739
   1562  C4        30.9370   18.8240    7.7350 C.ar   74  C74         0.1759
   1563  N4        29.8180   18.2440    8.1500 N.pl3  74  C74        -0.1070
   1564  C5        31.9860   19.1000    8.6640 C.ar   74  C74         0.0566
   1565  C6        33.1010   19.6680    8.1880 C.ar   74  C74         0.0850
   1566  OP1       36.6660   21.7310   12.1240 O.3    74  C74        -0.4373
   1567  OP2       34.4530   20.3930   11.8940 O.co2  74  C74        -0.5172
   1568  P         34.1770   25.1780    7.3510 P.3    75  G75         0.2141
   1569  C5'       33.5010   25.5260    4.8740 C.3    75  G75         0.1812
   1570  O5'       33.0740   25.1790    6.1990 O.3    75  G75        -0.3114
   1571  C4'       32.3920   25.3030    3.8830 C.3    75  G75         0.1773
   1572  O4'       32.0570   23.8880    3.8350 O.3    75  G75        -0.3307
   1573  C3'       31.0740   25.9850    4.2050 C.3    75  G75         0.1860
   1574  O3'       31.0920   27.3540    3.8090 O.3    75  G75        -0.3112
   1575  C2'       30.0940   25.1390    3.3990 C.3    75  G75         0.2309
   1576  O2'       30.0490   25.5130    2.0390 O.3    75  G75        -0.2156
   1577  C1'       30.6630   23.7330    3.6100 C.3    75  G75         0.2408
   1578  N1        26.4950   21.6810    5.6470 N.ar   75  G75        -0.1709
   1579  C2        26.6970   22.1750    4.3820 C.ar   75  G75         0.2606
   1580  N2        25.6360   22.1500    3.5640 N.pl3  75  G75        -0.0859
   1581  N3        27.8560   22.6510    3.9480 N.ar   75  G75        -0.1918
   1582  C4        28.7970   22.6380    4.9130 C.ar   75  G75         0.1723
   1583  C5        28.6800   22.2250    6.2250 C.ar   75  G75         0.1748
   1584  C6        27.4450   21.6750    6.6640 C.ar   75  G75         0.3023
   1585  O6        27.1580   21.2080    7.7800 O.2    75  G75        -0.2633
   1586  N7        29.8720   22.4160    6.9110 N.ar   75  G75        -0.2173
   1587  C8        30.6820   22.9160    6.0150 C.ar   75  G75         0.1817
   1588  N9        30.0840   23.1020    4.7900 N.ar   75  G75        -0.2693
   1589  OP1       35.0490   26.3790    7.1920 O.2    75  G75        -0.5172
   1590  OP2       33.5380   24.9020    8.6800 O.co2  75  G75        -0.4373
   1591  P         30.3920   28.4410    4.7480 P.3    76  C76         0.2141
   1592  C5'       28.4570   28.4070    3.0160 C.3    76  C76         0.1812
   1593  O5'       28.8800   28.1790    4.3450 O.3    76  C76        -0.3114
   1594  C4'       27.1540   27.7010    2.7940 C.3    76  C76         0.1773
   1595  O4'       27.2470   26.3090    3.2190 O.3    76  C76        -0.3307
   1596  C3'       25.9930   28.2170    3.6200 C.3    76  C76         0.1860
   1597  O3'       25.5030   29.4550    3.1540 O.3    76  C76        -0.3112
   1598  C2'       25.0070   27.0630    3.4780 C.3    76  C76         0.2309
   1599  O2'       24.2580   27.0630    2.2830 O.3    76  C76        -0.2156
   1600  C1'       25.9500   25.8540    3.6010 C.3    76  C76         0.2420
   1601  N1        25.9730   25.3710    5.0020 N.ar   76  C76        -0.2535
   1602  C2        24.7940   24.8240    5.5080 C.ar   76  C76         0.3532
   1603  O2        23.8200   24.7130    4.7510 O.2    76  C76        -0.2443
   1604  N3        24.7520   24.4080    6.7920 N.ar   76  C76        -0.1739
   1605  C4        25.8230   24.5510    7.5730 C.ar   76  C76         0.1759
   1606  N4        25.7350   24.1300    8.8370 N.pl3  76  C76        -0.1070
   1607  C5        27.0360   25.1220    7.0890 C.ar   76  C76         0.0566
   1608  C6        27.0620   25.5310    5.8130 C.ar   76  C76         0.0850
   1609  OP1       30.7610   29.7560    4.1940 O.2    76  C76        -0.5172
   1610  OP2       30.5040   28.2210    6.2210 O.co2  76  C76        -0.4373
   1611  P         25.1290   30.6950    4.1290 P.3    77  A77         0.2141
   1612  C5'       22.6950   29.7830    4.2610 C.3    77  A77         0.1812
   1613  O5'       23.8290   30.3310    4.9730 O.3    77  A77        -0.3114
   1614  C4'       21.7920   28.9830    5.1730 C.3    77  A77         0.1773
   1615  O4'       22.4270   27.7250    5.5130 O.3    77  A77        -0.3307
   1616  C3'       21.4620   29.6250    6.5130 C.3    77  A77         0.1860
   1617  O3'       20.3290   30.4420    6.2970 O.3    77  A77        -0.3112
   1618  C2'       21.1310   28.4100    7.3690 C.3    77  A77         0.2309
   1619  O2'       19.8110   27.9470    7.1410 O.3    77  A77        -0.2156
   1620  C1'       22.1760   27.4160    6.8700 C.3    77  A77         0.2408
   1621  N1        24.7610   26.2730   11.1470 N.ar   77  A77        -0.2040
   1622  C2        23.5280   25.9590   10.7340 C.ar   77  A77         0.2016
   1623  N3        22.9090   26.2900    9.6090 N.ar   77  A77        -0.2048
   1624  C4        23.7180   27.0250    8.8260 C.ar   77  A77         0.1692
   1625  C5        25.0270   27.3810    9.0920 C.ar   77  A77         0.1518
   1626  C6        25.5580   26.9770   10.3180 C.ar   77  A77         0.1919
   1627  N6        26.7950   27.2630   10.7140 N.pl3  77  A77        -0.1054
   1628  N7        25.5690   28.0850    8.0290 N.ar   77  A77        -0.2193
   1629  C8        24.5860   28.1510    7.1620 C.ar   77  A77         0.1816
   1630  N9        23.4340   27.5430    7.5860 N.ar   77  A77        -0.2693
   1631  OP1       24.7040   31.5640    2.9950 O.2    77  A77        -0.5172
   1632  OP2       26.1760   31.1370    5.0940 O.co2  77  A77        -0.4373
   1633  P         20.0490   31.6610    7.2590 P.3    78  A78         0.2141
   1634  C5'       17.5620   30.9360    6.9290 C.3    78  A78         0.1812
   1635  O5'       18.5970   31.3740    7.8550 O.3    78  A78        -0.3114
   1636  C4'       16.3130   30.4460    7.6290 C.3    78  A78         0.1773
   1637  O4'       16.4270   29.0210    7.8980 O.3    78  A78        -0.3307
   1638  C3'       16.0250   31.0970    8.9760 C.3    78  A78         0.1860
   1639  O3'       15.2480   32.2600    8.7750 O.3    78  A78        -0.3112
   1640  C2'       15.3010   29.9960    9.7400 C.3    78  A78         0.2309
   1641  O2'       13.9130   29.9770    9.5380 O.3    78  A78        -0.2156
   1642  C1'       16.0190   28.7450    9.2310 C.3    78  A78         0.2408
   1643  N1        17.8540   26.5180   13.4860 N.ar   78  A78        -0.2040
   1644  C2        16.6370   26.5250   12.9260 C.ar   78  A78         0.2016
   1645  N3        16.2330   27.1020   11.7990 N.ar   78  A78        -0.2048
   1646  C4        17.2460   27.7690   11.2200 C.ar   78  A78         0.1692
   1647  C5        18.5440   27.8690   11.6830 C.ar   78  A78         0.1518
   1648  C6        18.8530   27.1870   12.8680 C.ar   78  A78         0.1919
   1649  N6        20.0720   27.1720   13.4160 N.pl3  78  A78        -0.1054
   1650  N7        19.3130   28.6430   10.8270 N.ar   78  A78        -0.2193
   1651  C8        18.4780   28.9860    9.8770 C.ar   78  A78         0.1816
   1652  N9        17.2110   28.4810   10.0460 N.ar   78  A78        -0.2693
   1653  OP1       19.9660   32.7170    6.2210 O.2    78  A78        -0.5172
   1654  OP2       21.1120   31.7250    8.2810 O.co2  78  A78        -0.4373
   1655  P         15.3810   33.4800    9.8150 P.3    79  G79         0.2141
   1656  C5'       14.1100   32.2560   11.7910 C.3    79  G79         0.1812
   1657  O5'       15.2130   33.0520   11.3390 O.3    79  G79        -0.3114
   1658  C4'       14.5300   31.4450   12.9930 C.3    79  G79         0.1773
   1659  O4'       15.5970   30.5020   12.6340 O.3    79  G79        -0.3307
   1660  C3'       15.1570   32.2630   14.1030 C.3    79  G79         0.1860
   1661  O3'       14.2590   32.9410   14.9520 O.3    79  G79        -0.3112
   1662  C2'       15.8920   31.1870   14.8850 C.3    79  G79         0.2309
   1663  O2'       15.0240   30.4540   15.7060 O.3    79  G79        -0.2156
   1664  C1'       16.4550   30.3250   13.7540 C.3    79  G79         0.2408
   1665  N1        21.2450   30.5120   15.3720 N.ar   79  G79        -0.1709
   1666  C2        20.1400   29.9440   15.9560 C.ar   79  G79         0.2606
   1667  N2        20.3240   29.3840   17.1590 N.pl3  79  G79        -0.0859
   1668  N3        18.9320   29.9580   15.4200 N.ar   79  G79        -0.1918
   1669  C4        18.9110   30.6040   14.2350 C.ar   79  G79         0.1723
   1670  C5        19.9570   31.1900   13.5580 C.ar   79  G79         0.1748
   1671  C6        21.2550   31.1510   14.1390 C.ar   79  G79         0.3023
   1672  O6        22.3130   31.6120   13.6970 O.2    79  G79        -0.2633
   1673  N7        19.5240   31.7190   12.3490 N.ar   79  G79        -0.2173
   1674  C8        18.2390   31.4790   12.3310 C.ar   79  G79         0.1817
   1675  N9        17.8100   30.7710   13.4270 N.ar   79  G79        -0.2693
   1676  OP1       14.1880   34.3080    9.4920 O.2    79  G79        -0.5172
   1677  OP2       16.7600   34.0660    9.7130 O.co2  79  G79        -0.4373
   1678  P         14.7560   34.2350   15.8180 P.3    80  G80         0.2141
   1679  C5'       15.2350   32.9590   18.0520 C.3    80  G80         0.1812
   1680  O5'       15.6980   33.8390   17.0370 O.3    80  G80        -0.3114
   1681  C4'       16.3980   32.5680   18.9210 C.3    80  G80         0.1773
   1682  O4'       17.4530   31.9650   18.1110 O.3    80  G80        -0.3307
   1683  C3'       17.1300   33.7210   19.5760 C.3    80  G80         0.1860
   1684  O3'       16.4630   34.2800   20.6900 O.3    80  G80        -0.3112
   1685  C2'       18.4410   33.0530   19.9660 C.3    80  G80         0.2309
   1686  O2'       18.2310   32.2180   21.0820 O.3    80  G80        -0.2156
   1687  C1'       18.7180   32.2230   18.7150 C.3    80  G80         0.2408
   1688  N1        23.3540   34.0490   17.6110 N.ar   80  G80        -0.1709
   1689  C2        22.9010   33.4810   18.7760 C.ar   80  G80         0.2606
   1690  N2        23.7880   33.3870   19.7640 N.pl3  80  G80        -0.0859
   1691  N3        21.6520   33.0790   18.9700 N.ar   80  G80        -0.1918
   1692  C4        20.8920   33.2360   17.8620 C.ar   80  G80         0.1723
   1693  C5        21.2520   33.7720   16.6450 C.ar   80  G80         0.1748
   1694  C6        22.5840   34.2430   16.4670 C.ar   80  G80         0.3023
   1695  O6        23.1010   34.7220   15.4490 O.2    80  G80        -0.2633
   1696  N7        20.1870   33.7320   15.7550 N.ar   80  G80        -0.2173
   1697  C8        19.2040   33.2230   16.4470 C.ar   80  G80         0.1817
   1698  N9        19.5670   32.8810   17.7260 N.ar   80  G80        -0.2693
   1699  OP1       13.5380   34.7200   16.5240 O.3    80  G80        -0.4373
   1700  OP2       15.5060   35.1340   14.8690 O.co2  80  G80        -0.5172
   1701  P         16.6870   35.8540   20.8270 P.3    81  G81         0.2141
   1702  C5'       18.3350   35.3570   22.8440 C.3    81  G81         0.1812
   1703  O5'       18.0910   35.9530   21.5720 O.3    81  G81        -0.3114
   1704  C4'       19.8110   35.4770   23.1710 C.3    81  G81         0.1773
   1705  O4'       20.6450   35.1050   22.0370 O.3    81  G81        -0.3307
   1706  C3'       20.3210   36.8700   23.4690 C.3    81  G81         0.1860
   1707  O3'       19.9180   37.3280   24.7560 O.3    81  G81        -0.3112
   1708  C2'       21.8290   36.6730   23.3470 C.3    81  G81         0.2309
   1709  O2'       22.2220   35.8640   24.4290 O.3    81  G81        -0.2156
   1710  C1'       21.9180   35.7160   22.1660 C.3    81  G81         0.2408
   1711  N1        25.5330   37.7240   19.1920 N.ar   81  G81        -0.1709
   1712  C2        25.6010   37.3740   20.5180 C.ar   81  G81         0.2606
   1713  N2        26.7930   37.5470   21.1070 N.pl3  81  G81        -0.0859
   1714  N3        24.5820   36.8820   21.2110 N.ar   81  G81        -0.1918
   1715  C4        23.4820   36.7440   20.4490 C.ar   81  G81         0.1723
   1716  C5        23.3070   37.0780   19.1220 C.ar   81  G81         0.1748
   1717  C6        24.4030   37.6110   18.3960 C.ar   81  G81         0.3023
   1718  O6        24.4590   37.9320   17.1970 O.2    81  G81        -0.2633
   1719  N7        22.0110   36.8040   18.7130 N.ar   81  G81        -0.2173
   1720  C8        21.4230   36.3490   19.7870 C.ar   81  G81         0.1817
   1721  N9        22.2570   36.2910   20.8760 N.ar   81  G81        -0.2693
   1722  OP1       15.5680   36.2110   21.7370 O.3    81  G81        -0.4373
   1723  OP2       16.8930   36.5910   19.5170 O.co2  81  G81        -0.5172
   1724  P         19.8770   38.9160   24.8880 P.3    82  U82         0.2141
   1725  C5'       22.4370   39.0420   25.6100 C.3    82  U82         0.1812
   1726  O5'       21.3920   39.3680   24.6600 O.3    82  U82        -0.3114
   1727  C4'       23.7070   39.7970   25.2720 C.3    82  U82         0.1773
   1728  O4'       24.2080   39.3200   24.0000 O.3    82  U82        -0.3307
   1729  C3'       23.5540   41.3030   25.0900 C.3    82  U82         0.1860
   1730  O3'       23.6070   42.1100   26.2860 O.3    82  U82        -0.3112
   1731  C2'       24.6950   41.6440   24.1400 C.3    82  U82         0.2309
   1732  O2'       25.9250   41.7230   24.8230 O.3    82  U82        -0.2156
   1733  C1'       24.7990   40.3840   23.2870 C.3    82  U82         0.2420
   1734  N1        24.2120   40.4410   21.9370 N.ar   82  U82        -0.2534
   1735  C2        25.0200   40.8860   20.9040 C.ar   82  U82         0.3546
   1736  O2        26.1590   41.2890   21.0780 O.2    82  U82        -0.2443
   1737  N3        24.4390   40.8540   19.6590 N.ar   82  U82        -0.1530
   1738  C4        23.1530   40.4650   19.3480 C.ar   82  U82         0.2846
   1739  O4        22.7740   40.5160   18.1790 O.2    82  U82        -0.2650
   1740  C5        22.3840   40.0050   20.4630 C.ar   82  U82         0.0814
   1741  C6        22.9350   39.9870   21.6860 C.ar   82  U82         0.0870
   1742  OP1       19.4190   39.1040   26.2760 O.3    82  U82        -0.4373
   1743  OP2       19.0850   39.4660   23.7500 O.co2  82  U82        -0.5172
   1744  P         24.2690   41.8830   27.7780 P.3    83  G83         0.2141
   1745  C5'       22.5830   43.9160   28.1100 C.3    83  G83         0.1812
   1746  O5'       23.5830   43.0260   28.6550 O.3    83  G83        -0.3114
   1747  C4'       23.0670   45.3490   28.1810 C.3    83  G83         0.1773
   1748  O4'       23.4190   45.6780   29.5570 O.3    83  G83        -0.3307
   1749  C3'       24.2980   45.6740   27.3340 C.3    83  G83         0.1860
   1750  O3'       24.0640   46.8770   26.5920 O.3    83  G83        -0.3112
   1751  C2'       25.4370   45.6070   28.3550 C.3    83  G83         0.2309
   1752  O2'       26.6180   46.3030   28.0080 O.3    83  G83        -0.2156
   1753  C1'       24.7500   46.1550   29.6080 C.3    83  G83         0.2408
   1754  N1        28.4970   43.6020   31.9390 N.ar   83  G83        -0.1709
   1755  C2        28.2630   43.7640   30.5940 C.ar   83  G83         0.2606
   1756  N2        29.1370   43.1740   29.7660 N.pl3  83  G83        -0.0859
   1757  N3        27.2480   44.4540   30.0990 N.ar   83  G83        -0.1918
   1758  C4        26.4700   44.9800   31.0720 C.ar   83  G83         0.1723
   1759  C5        26.6170   44.8770   32.4400 C.ar   83  G83         0.1748
   1760  C6        27.7120   44.1320   32.9580 C.ar   83  G83         0.3023
   1761  O6        28.0130   43.9240   34.1390 O.2    83  G83        -0.2633
   1762  N7        25.6040   45.5640   33.0970 N.ar   83  G83        -0.2173
   1763  C8        24.8730   46.0610   32.1360 C.ar   83  G83         0.1817
   1764  N9        25.3400   45.7440   30.8820 N.ar   83  G83        -0.2693
   1765  OP1       25.7360   42.1720   27.7520 O.2    83  G83        -0.5172
   1766  OP2       23.7860   40.6410   28.4470 O.co2  83  G83        -0.4373
   1767  P         24.8430   48.2780   26.5650 P.3    84  U84         0.2141
   1768  C5'       27.1440   48.8900   25.4760 C.3    84  U84         0.1812
   1769  O5'       25.9130   48.1500   25.3900 O.3    84  U84        -0.3114
   1770  C4'       27.9340   48.7860   24.1980 C.3    84  U84         0.1773
   1771  O4'       27.8260   47.4490   23.6640 O.3    84  U84        -0.3307
   1772  C3'       27.4430   49.6100   23.0230 C.3    84  U84         0.1860
   1773  O3'       27.5930   51.0180   23.1580 O.3    84  U84        -0.3112
   1774  C2'       28.1690   48.9470   21.8510 C.3    84  U84         0.2309
   1775  O2'       29.5070   49.3080   21.5880 O.3    84  U84        -0.2156
   1776  C1'       28.1550   47.4790   22.2810 C.3    84  U84         0.2420
   1777  N1        27.1860   46.6640   21.5290 N.ar   84  U84        -0.2534
   1778  C2        27.3470   46.6140   20.1510 C.ar   84  U84         0.3546
   1779  O2        28.2280   47.2240   19.5600 O.2    84  U84        -0.2443
   1780  N3        26.4320   45.8310   19.4910 N.ar   84  U84        -0.1530
   1781  C4        25.3930   45.1060   20.0470 C.ar   84  U84         0.2846
   1782  O4        24.6540   44.4520   19.3090 O.2    84  U84        -0.2650
   1783  C5        25.2870   45.2100   21.4790 C.ar   84  U84         0.0814
   1784  C6        26.1630   45.9700   22.1520 C.ar   84  U84         0.0870
   1785  OP1       25.6100   48.4620   27.8180 O.3    84  U84        -0.4373
   1786  OP2       23.8390   49.3060   26.1860 O.co2  84  U84        -0.5172
   1787  P         26.2400   51.8800   22.9960 P.3    85  C85         0.2141
   1788  C5'       27.2200   52.9560   20.8380 C.3    85  C85         0.1812
   1789  O5'       26.3250   52.0140   21.4060 O.3    85  C85        -0.3114
   1790  C4'       27.3460   52.7090   19.3710 C.3    85  C85         0.1773
   1791  O4'       27.3430   51.2840   19.1750 O.3    85  C85        -0.3307
   1792  C3'       26.1740   53.1540   18.5230 C.3    85  C85         0.1860
   1793  O3'       26.1280   54.5470   18.2580 O.3    85  C85        -0.3112
   1794  C2'       26.3700   52.3030   17.2810 C.3    85  C85         0.2309
   1795  O2'       27.5270   52.5680   16.5400 O.3    85  C85        -0.2156
   1796  C1'       26.7750   50.9750   17.9070 C.3    85  C85         0.2420
   1797  N1        25.6720   50.0010   18.0870 N.ar   85  C85        -0.2535
   1798  C2        25.1640   49.3570   16.9510 C.ar   85  C85         0.3532
   1799  O2        25.6110   49.6730   15.8360 O.2    85  C85        -0.2443
   1800  N3        24.1720   48.4470   17.0940 N.ar   85  C85        -0.1739
   1801  C4        23.6800   48.1840   18.3130 C.ar   85  C85         0.1759
   1802  N4        22.7100   47.2720   18.4140 N.pl3  85  C85        -0.1070
   1803  C5        24.1670   48.8410   19.4840 C.ar   85  C85         0.0566
   1804  C6        25.1600   49.7240   19.3270 C.ar   85  C85         0.0850
   1805  OP1       26.3940   53.1790   23.7380 O.3    85  C85        -0.4373
   1806  OP2       25.1150   50.9880   23.3740 O.co2  85  C85        -0.5172
   1807  P         24.6930   55.2660   18.4660 P.3    86  C86         0.2141
   1808  C5'       24.3520   55.8610   15.9080 C.3    86  C86         0.1812
   1809  O5'       24.1920   54.9220   16.9810 O.3    86  C86        -0.3114
   1810  C4'       23.9680   55.2490   14.5830 C.3    86  C86         0.1773
   1811  O4'       24.1800   53.8180   14.6230 O.3    86  C86        -0.3307
   1812  C3'       22.5170   55.3680   14.1580 C.3    86  C86         0.1860
   1813  O3'       22.2180   56.6670   13.6610 O.3    86  C86        -0.3112
   1814  C2'       22.4000   54.2400   13.1300 C.3    86  C86         0.2309
   1815  O2'       23.0730   54.3580   11.8890 O.3    86  C86        -0.2156
   1816  C1'       23.2110   53.1490   13.8120 C.3    86  C86         0.2420
   1817  N1        22.4510   52.2160   14.6730 N.ar   86  C86        -0.2535
   1818  C2        21.6210   51.2470   14.0920 C.ar   86  C86         0.3532
   1819  O2        21.4720   51.2490   12.8570 O.2    86  C86        -0.2443
   1820  N3        21.0050   50.3390   14.8920 N.ar   86  C86        -0.1739
   1821  C4        21.1600   50.4110   16.2200 C.ar   86  C86         0.1759
   1822  N4        20.4570   49.5730   16.9920 N.pl3  86  C86        -0.1070
   1823  C5        21.9940   51.3940   16.8300 C.ar   86  C86         0.0566
   1824  C6        22.6270   52.2530   16.0270 C.ar   86  C86         0.0850
   1825  OP1       25.0040   56.7130   18.6000 O.2    86  C86        -0.5172
   1826  OP2       23.8610   54.6470   19.5330 O.co2  86  C86        -0.4373
   1827  P         20.8670   57.3070   14.2750 P.3    87  G87         0.2141
   1828  C5'       20.1980   56.8310   11.7550 C.3    87  G87         0.1812
   1829  O5'       19.9490   56.6180   13.1580 O.3    87  G87        -0.3114
   1830  C4'       19.2270   56.0190   10.9160 C.3    87  G87         0.1773
   1831  O4'       19.5190   54.5760   10.9600 O.3    87  G87        -0.3307
   1832  C3'       17.7540   56.0650   11.2950 C.3    87  G87         0.1860
   1833  O3'       17.1260   57.2530   10.8550 O.3    87  G87        -0.3112
   1834  C2'       17.2410   54.8830   10.4860 C.3    87  G87         0.2309
   1835  O2'       17.3450   55.1390    9.1010 O.3    87  G87        -0.2156
   1836  C1'       18.3050   53.8270   10.8100 C.3    87  G87         0.2408
   1837  N1        15.3220   50.4040   13.1370 N.ar   87  G87        -0.1709
   1838  C2        15.3710   50.7440   11.8140 C.ar   87  G87         0.2606
   1839  N2        14.5280   50.0750   11.0070 N.pl3  87  G87        -0.0859
   1840  N3        16.2410   51.6080   11.3020 N.ar   87  G87        -0.1918
   1841  C4        17.0070   52.1770   12.2620 C.ar   87  G87         0.1723
   1842  C5        16.9810   51.9530   13.6210 C.ar   87  G87         0.1748
   1843  C6        16.0700   51.0020   14.1430 C.ar   87  G87         0.3023
   1844  O6        15.8880   50.6760   15.3310 O.2    87  G87        -0.2633
   1845  N7        17.9040   52.7610   14.2720 N.ar   87  G87        -0.2173
   1846  C8        18.4540   53.4650   13.3170 C.ar   87  G87         0.1817
   1847  N9        17.9740   53.1500   12.0700 N.ar   87  G87        -0.2693
   1848  OP1       20.9560   58.7730   14.0400 O.2    87  G87        -0.5172
   1849  OP2       20.4730   56.8570   15.6430 O.co2  87  G87        -0.4373
   1850  P         16.0370   58.0600   11.6960 P.3    88  U88         0.2141
   1851  C5'       14.3010   56.7390   10.1300 C.3    88  U88         0.1812
   1852  O5'       14.6170   57.4040   11.3960 O.3    88  U88        -0.3114
   1853  C4'       13.1390   55.7830   10.3510 C.3    88  U88         0.1773
   1854  O4'       13.6960   54.5170   10.7820 O.3    88  U88        -0.3307
   1855  C3'       12.1710   56.1480   11.4790 C.3    88  U88         0.1860
   1856  O3'       11.1460   57.1030   11.1220 O.3    88  U88        -0.3112
   1857  C2'       11.6030   54.7840   11.8680 C.3    88  U88         0.2309
   1858  O2'       10.4290   54.4420   11.1600 O.3    88  U88        -0.2156
   1859  C1'       12.7870   53.8310   11.6100 C.3    88  U88         0.2420
   1860  N1        13.4370   53.5840   12.8960 N.ar   88  U88        -0.2534
   1861  C2        12.8340   52.6750   13.7580 C.ar   88  U88         0.3546
   1862  O2        11.9310   51.9330   13.4170 O.2    88  U88        -0.2443
   1863  N3        13.3620   52.6400   15.0210 N.ar   88  U88        -0.1530
   1864  C4        14.3820   53.4190   15.5190 C.ar   88  U88         0.2846
   1865  O4        14.7440   53.2640   16.6820 O.2    88  U88        -0.2650
   1866  C5        14.9150   54.3710   14.5900 C.ar   88  U88         0.0814
   1867  C6        14.4260   54.4290   13.3440 C.ar   88  U88         0.0870
   1868  OP1       16.1240   59.2110   10.7750 O.2    88  U88        -0.5172
   1869  OP2       16.0920   58.2290   13.1680 O.co2  88  U88        -0.4373
   1870  P         10.5680   58.0420   12.2190 P.3    89  G89         0.2141
   1871  C5'        8.4950   56.5440   12.6370 C.3    89  G89         0.1812
   1872  O5'        9.5700   57.2910   13.2020 O.3    89  G89        -0.3114
   1873  C4'        7.7380   55.7620   13.6670 C.3    89  G89         0.1773
   1874  O4'        8.4380   54.5140   13.9370 O.3    89  G89        -0.3307
   1875  C3'        7.6390   56.3750   15.0270 C.3    89  G89         0.1860
   1876  O3'        6.7280   57.4520   14.9090 O.3    89  G89        -0.3112
   1877  C2'        7.2240   55.1500   15.8270 C.3    89  G89         0.2309
   1878  O2'        5.9690   54.6590   15.4530 O.3    89  G89        -0.2156
   1879  C1'        8.1810   54.1030   15.2650 C.3    89  G89         0.2408
   1880  N1        10.7480   52.4700   19.3040 N.ar   89  G89        -0.1709
   1881  C2         9.4980   52.1130   18.8740 C.ar   89  G89         0.2606
   1882  N2         8.8330   51.2280   19.6440 N.pl3  89  G89        -0.0859
   1883  N3         8.9270   52.6080   17.7880 N.ar   89  G89        -0.1918
   1884  C4         9.7320   53.4770   17.1490 C.ar   89  G89         0.1723
   1885  C5        11.0050   53.8750   17.4840 C.ar   89  G89         0.1748
   1886  C6        11.6010   53.3440   18.6440 C.ar   89  G89         0.3023
   1887  O6        12.7330   53.5500   19.0890 O.2    89  G89        -0.2633
   1888  N7        11.5140   54.7480   16.5340 N.ar   89  G89        -0.2173
   1889  C8        10.5480   54.8820   15.6720 C.ar   89  G89         0.1817
   1890  N9         9.4400   54.1340   15.9850 N.ar   89  G89        -0.2693
   1891  OP1        9.7900   59.2020   11.7340 O.2    89  G89        -0.5172
   1892  OP2       11.6800   58.2850   13.1370 O.co2  89  G89        -0.4373
   1893  P          6.3380   58.4310   16.1250 P.3    90  G90         0.2141
   1894  C5'        5.0770   57.6780   18.2960 C.3    90  G90         0.1812
   1895  O5'        6.1720   57.5040   17.4020 O.3    90  G90        -0.3114
   1896  C4'        5.2150   56.7590   19.4860 C.3    90  G90         0.1773
   1897  O4'        6.1420   55.6610   19.2310 O.3    90  G90        -0.3307
   1898  C3'        5.8100   57.3900   20.7140 C.3    90  G90         0.1860
   1899  O3'        4.8030   58.2260   21.1970 O.3    90  G90        -0.3112
   1900  C2'        6.1690   56.1520   21.5360 C.3    90  G90         0.2309
   1901  O2'        5.2060   55.4390   22.2930 O.3    90  G90        -0.2156
   1902  C1'        6.7550   55.2600   20.4490 C.3    90  G90         0.2408
   1903  N1        11.2650   54.3960   22.5780 N.ar   90  G90        -0.1709
   1904  C2        10.0200   53.9580   22.9570 C.ar   90  G90         0.2606
   1905  N2         9.9700   53.2000   24.0650 N.pl3  90  G90        -0.0859
   1906  N3         8.9050   54.2510   22.3060 N.ar   90  G90        -0.1918
   1907  C4         9.1360   55.0390   21.2350 C.ar   90  G90         0.1723
   1908  C5        10.3400   55.5210   20.7650 C.ar   90  G90         0.1748
   1909  C6        11.5270   55.2030   21.4750 C.ar   90  G90         0.3023
   1910  O6        12.6890   55.5320   21.2160 O.2    90  G90        -0.2633
   1911  N7        10.1560   56.2620   19.6050 N.ar   90  G90        -0.2173
   1912  C8         8.8670   56.2240   19.4010 C.ar   90  G90         0.1817
   1913  N9         8.1910   55.4910   20.3490 N.ar   90  G90        -0.2693
   1914  OP1        5.0610   59.0740   15.7730 O.2    90  G90        -0.5172
   1915  OP2        7.5310   59.2610   16.2440 O.co2  90  G90        -0.4373
   1916  P          4.9740   59.8110   21.1180 P.3    91  C91         0.2141
   1917  C5'        6.8870   60.8070   22.6950 C.3    91  C91         0.1812
   1918  O5'        5.8020   59.8850   22.4770 O.3    91  C91        -0.3114
   1919  C4'        7.1480   60.8250   24.1710 C.3    91  C91         0.1773
   1920  O4'        5.8600   60.8490   24.8140 O.3    91  C91        -0.3307
   1921  C3'        7.7710   59.5610   24.7320 C.3    91  C91         0.1860
   1922  O3'        9.1800   59.6520   24.6230 O.3    91  C91        -0.3112
   1923  C2'        7.3360   59.6110   26.1940 C.3    91  C91         0.2309
   1924  O2'        8.1420   60.4450   26.9860 O.3    91  C91        -0.2156
   1925  C1'        5.9630   60.2770   26.1000 C.3    91  C91         0.2420
   1926  N1         4.8350   59.3530   26.2900 N.ar   91  C91        -0.2535
   1927  C2         4.4320   59.0820   27.5890 C.ar   91  C91         0.3532
   1928  O2         5.0460   59.6110   28.5220 O.2    91  C91        -0.2443
   1929  N3         3.3920   58.2390   27.8010 N.ar   91  C91        -0.1739
   1930  C4         2.7790   57.6610   26.7630 C.ar   91  C91         0.1759
   1931  N4         1.7560   56.8430   27.0200 N.pl3  91  C91        -0.1070
   1932  C5         3.1840   57.9040   25.4220 C.ar   91  C91         0.0566
   1933  C6         4.2090   58.7480   25.2310 C.ar   91  C91         0.0850
   1934  OP1        3.5940   60.2610   21.4640 O.3    91  C91        -0.4373
   1935  OP2        5.6590   60.3620   19.9430 O.co2  91  C91        -0.5172
   1936  P         10.0960   58.5360   23.9300 P.3    92  G92         0.2141
   1937  C5'       10.5320   57.6640   26.3750 C.3    92  G92         0.1812
   1938  O5'        9.8230   57.5130   25.1250 O.3    92  G92        -0.3114
   1939  C4'        9.9890   56.7720   27.4690 C.3    92  G92         0.1773
   1940  O4'        8.5450   56.9270   27.6070 O.3    92  G92        -0.3307
   1941  C3'       10.2130   55.2910   27.2430 C.3    92  G92         0.1860
   1942  O3'       11.4070   54.8670   27.8730 O.3    92  G92        -0.3112
   1943  C2'        9.0780   54.6580   28.0360 C.3    92  G92         0.2309
   1944  O2'        9.3930   54.7160   29.3930 O.3    92  G92        -0.2156
   1945  C1'        7.9430   55.6550   27.8300 C.3    92  G92         0.2408
   1946  N1         3.3410   53.9710   26.4500 N.ar   92  G92        -0.1709
   1947  C2         3.8990   54.0260   27.7030 C.ar   92  G92         0.2606
   1948  N2         3.1270   53.5970   28.7210 N.pl3  92  G92        -0.0859
   1949  N3         5.1250   54.4620   27.9430 N.ar   92  G92        -0.1918
   1950  C4         5.7480   54.8600   26.8130 C.ar   92  G92         0.1723
   1951  C5         5.2790   54.8310   25.5210 C.ar   92  G92         0.1748
   1952  C6         3.9730   54.3680   25.2790 C.ar   92  G92         0.3023
   1953  O6         3.3860   54.2800   24.1990 O.2    92  G92        -0.2633
   1954  N7         6.2410   55.2910   24.6340 N.ar   92  G92        -0.2173
   1955  C8         7.2600   55.5870   25.3900 C.ar   92  G92         0.1817
   1956  N9         7.0230   55.3680   26.7250 N.ar   92  G92        -0.2693
   1957  OP1       11.5070   58.9350   24.0160 O.3    92  G92        -0.4373
   1958  OP2        9.6530   58.0990   22.5730 O.co2  92  G92        -0.5172
   1959  P         12.2640   53.7020   27.2130 P.3    93  A93         0.2141
   1960  C5'       11.6530   52.2650   29.2940 C.3    93  A93         0.1812
   1961  O5'       11.5150   52.4750   27.8970 O.3    93  A93        -0.3114
   1962  C4'       10.8000   51.0990   29.7150 C.3    93  A93         0.1773
   1963  O4'        9.3920   51.4640   29.6040 O.3    93  A93        -0.3307
   1964  C3'       10.9300   49.8280   28.8840 C.3    93  A93         0.1860
   1965  O3'       11.9270   49.0320   29.4750 O.3    93  A93        -0.3112
   1966  C2'        9.5910   49.1510   29.1460 C.3    93  A93         0.2309
   1967  O2'        9.3450   48.7850   30.4960 O.3    93  A93        -0.2156
   1968  C1'        8.6450   50.3510   29.1210 C.3    93  A93         0.2408
   1969  N1         4.3020   50.9440   26.4100 N.ar   93  A93        -0.2040
   1970  C2         4.5260   50.5950   27.6870 C.ar   93  A93         0.2016
   1971  N3         5.6850   50.4320   28.3240 N.ar   93  A93        -0.2048
   1972  C4         6.7200   50.7050   27.5040 C.ar   93  A93         0.1692
   1973  C5         6.6470   51.0710   26.1750 C.ar   93  A93         0.1518
   1974  C6         5.3620   51.1880   25.6110 C.ar   93  A93         0.1919
   1975  N6         5.1370   51.5100   24.3330 N.pl3  93  A93        -0.1054
   1976  N7         7.9190   51.2600   25.6480 N.ar   93  A93        -0.2193
   1977  C8         8.7170   51.0350   26.6620 C.ar   93  A93         0.1816
   1978  N9         8.0620   50.6850   27.8130 N.ar   93  A93        -0.2693
   1979  OP1       13.5520   53.9380   27.8910 O.3    93  A93        -0.4373
   1980  OP2       12.2600   53.5700   25.7200 O.co2  93  A93        -0.5172
   1981  P         13.0210   48.2780   28.5960 P.3    94  C94         0.2141
   1982  C5'       12.3800   47.2340   26.2790 C.3    94  C94         0.1812
   1983  O5'       12.2590   47.1940   27.7110 O.3    94  C94        -0.3114
   1984  C4'       11.0130   47.1530   25.6300 C.3    94  C94         0.1773
   1985  O4'       10.3770   48.4670   25.6680 O.3    94  C94        -0.3307
   1986  C3'       10.9990   46.7200   24.1640 C.3    94  C94         0.1860
   1987  O3'       10.9250   45.2850   24.1050 O.3    94  C94        -0.3112
   1988  C2'        9.8190   47.5140   23.5960 C.3    94  C94         0.2309
   1989  O2'        8.5370   47.0140   23.9280 O.3    94  C94        -0.2156
   1990  C1'        9.9310   48.8330   24.3740 C.3    94  C94         0.2420
   1991  N1        10.9010   49.7660   23.7720 N.ar   94  C94        -0.2535
   1992  C2        10.6560   50.2210   22.4710 C.ar   94  C94         0.3532
   1993  O2         9.5960   49.9040   21.9180 O.2    94  C94        -0.2443
   1994  N3        11.5880   50.9740   21.8430 N.ar   94  C94        -0.1739
   1995  C4        12.7210   51.2910   22.4710 C.ar   94  C94         0.1759
   1996  N4        13.5910   52.0770   21.8300 N.pl3  94  C94        -0.1070
   1997  C5        13.0020   50.8350   23.7960 C.ar   94  C94         0.0566
   1998  C6        12.0750   50.0770   24.4000 C.ar   94  C94         0.0850
   1999  OP1       13.8420   47.6500   29.6430 O.3    94  C94        -0.4373
   2000  OP2       13.6560   49.2150   27.6470 O.co2  94  C94        -0.5172
   2001  P         11.6970   44.5240   22.9430 P.3    95  A95         0.2141
   2002  C5'        9.5010   44.8190   21.5030 C.3    95  A95         0.1812
   2003  O5'       10.9520   44.9000   21.5760 O.3    95  A95        -0.3114
   2004  C4'        8.9640   45.4070   20.2220 C.3    95  A95         0.1773
   2005  O4'        9.1080   46.8440   20.2910 O.3    95  A95        -0.3307
   2006  C3'        9.7010   45.0370   18.9420 C.3    95  A95         0.1860
   2007  O3'        9.3360   43.7820   18.3790 O.3    95  A95        -0.3112
   2008  C2'        9.3240   46.1960   18.0280 C.3    95  A95         0.2309
   2009  O2'        7.9670   46.1090   17.6580 O.3    95  A95        -0.2156
   2010  C1'        9.3820   47.3670   19.0020 C.3    95  A95         0.2408
   2011  N1        12.4610   50.7870   16.6620 N.ar   95  A95        -0.2040
   2012  C2        11.3230   50.1960   16.2820 C.ar   95  A95         0.2016
   2013  N3        10.5800   49.2980   16.9270 N.ar   95  A95        -0.2048
   2014  C4        11.1060   49.0280   18.1300 C.ar   95  A95         0.1692
   2015  C5        12.2750   49.5420   18.6560 C.ar   95  A95         0.1518
   2016  C6        12.9800   50.4670   17.8650 C.ar   95  A95         0.1919
   2017  N6        14.1390   51.0220   18.2240 N.pl3  95  A95        -0.1054
   2018  N7        12.5390   48.9870   19.8970 N.ar   95  A95        -0.2193
   2019  C8        11.5350   48.1690   20.0970 C.ar   95  A95         0.1816
   2020  N9        10.6430   48.1240   19.0560 N.ar   95  A95        -0.2693
   2021  OP1       11.4530   43.0850   23.1050 O.3    95  A95        -0.4373
   2022  OP2       13.1020   44.9820   22.8410 O.co2  95  A95        -0.5172
   2023  P         10.4220   42.8910   17.5890 P.3    96  U96         0.2141
   2024  C5'        9.6600   43.9600   15.3250 C.3    96  U96         0.1812
   2025  O5'       10.6850   43.3240   16.0760 O.3    96  U96        -0.3114
   2026  C4'       10.2770   44.7660   14.2160 C.3    96  U96         0.1773
   2027  O4'       10.4670   46.1230   14.6790 O.3    96  U96        -0.3307
   2028  C3'       11.6690   44.3860   13.7840 C.3    96  U96         0.1860
   2029  O3'       11.5640   43.3310   12.8620 O.3    96  U96        -0.3112
   2030  C2'       12.0760   45.6600   13.0650 C.3    96  U96         0.2309
   2031  O2'       11.1850   45.9330   12.0200 O.3    96  U96        -0.2156
   2032  C1'       11.5970   46.7050   14.0510 C.3    96  U96         0.2420
   2033  N1        12.5700   47.0530   15.0990 N.ar   96  U96        -0.2534
   2034  C2        13.4840   48.0590   14.8480 C.ar   96  U96         0.3546
   2035  O2        13.5640   48.6310   13.7680 O.2    96  U96        -0.2443
   2036  N3        14.3600   48.3030   15.8720 N.ar   96  U96        -0.1530
   2037  C4        14.3930   47.6870   17.1060 C.ar   96  U96         0.2846
   2038  O4        15.2160   48.0520   17.9450 O.2    96  U96        -0.2650
   2039  C5        13.3740   46.7050   17.3100 C.ar   96  U96         0.0814
   2040  C6        12.5190   46.4290   16.3240 C.ar   96  U96         0.0870
   2041  OP1        9.5810   41.6850   17.4400 O.2    96  U96        -0.5172
   2042  OP2       11.7820   42.7930   18.1960 O.co2  96  U96        -0.4373
   2043  P         12.8200   42.4950   12.3660 P.3    97  G97         0.2141
   2044  C5'       13.6930   43.5100   10.1470 C.3    97  G97         0.1812
   2045  O5'       13.8710   43.3430   11.5440 O.3    97  G97        -0.3114
   2046  C4'       14.6180   44.6110    9.7030 C.3    97  G97         0.1773
   2047  O4'       14.4240   45.8600   10.4510 O.3    97  G97        -0.3307
   2048  C3'       16.0870   44.3500    9.9530 C.3    97  G97         0.1860
   2049  O3'       16.4870   43.3590    9.0440 O.3    97  G97        -0.3112
   2050  C2'       16.6500   45.7410    9.6960 C.3    97  G97         0.2309
   2051  O2'       16.4290   46.1700    8.3710 O.3    97  G97        -0.2156
   2052  C1'       15.6580   46.5740   10.4880 C.3    97  G97         0.2408
   2053  N1        18.7080   48.9520   13.7900 N.ar   97  G97        -0.1709
   2054  C2        18.6370   49.0800   12.4300 C.ar   97  G97         0.2606
   2055  N2        19.4690   49.9840   11.8710 N.pl3  97  G97        -0.0859
   2056  N3        17.8180   48.3750   11.6610 N.ar   97  G97        -0.1918
   2057  C4        17.0090   47.5760   12.3850 C.ar   97  G97         0.1723
   2058  C5        17.0100   47.3660   13.7410 C.ar   97  G97         0.1748
   2059  C6        17.9120   48.1100   14.5500 C.ar   97  G97         0.3023
   2060  O6        18.0250   48.1050   15.7850 O.2    97  G97        -0.2633
   2061  N7        16.0820   46.3890   14.0890 N.ar   97  G97        -0.2173
   2062  C8        15.5460   46.0300   12.9540 C.ar   97  G97         0.1817
   2063  N9        16.0600   46.7120   11.8810 N.ar   97  G97        -0.2693
   2064  OP1       12.3210   41.4920   11.3970 O.2    97  G97        -0.5172
   2065  OP2       13.4510   42.1010   13.6240 O.co2  97  G97        -0.4373
   2066  P         17.8390   42.5870    9.3710 P.3    98  G98         0.2141
   2067  C5'       19.5660   44.1580    8.1150 C.3    98  G98         0.1812
   2068  O5'       19.1080   43.5540    9.3540 O.3    98  G98        -0.3114
   2069  C4'       20.4190   45.3610    8.4310 C.3    98  G98         0.1773
   2070  O4'       19.8910   46.0170    9.6060 O.3    98  G98        -0.3307
   2071  C3'       21.8180   45.0600    8.9280 C.3    98  G98         0.1860
   2072  O3'       22.7170   44.5570    7.9420 O.3    98  G98        -0.3112
   2073  C2'       22.2080   46.4020    9.5180 C.3    98  G98         0.2309
   2074  O2'       22.3550   47.2920    8.4460 O.3    98  G98        -0.2156
   2075  C1'       20.9110   46.8020   10.2000 C.3    98  G98         0.2408
   2076  N1        22.8150   47.9770   14.7780 N.ar   98  G98        -0.1709
   2077  C2        23.1860   48.4460   13.5350 C.ar   98  G98         0.2606
   2078  N2        24.1470   49.3950   13.5140 N.pl3  98  G98        -0.0859
   2079  N3        22.6310   48.0460   12.3950 N.ar   98  G98        -0.1918
   2080  C4        21.6540   47.1370   12.6020 C.ar   98  G98         0.1723
   2081  C5        21.2410   46.5740   13.7900 C.ar   98  G98         0.1748
   2082  C6        21.8440   47.0060   15.0060 C.ar   98  G98         0.3023
   2083  O6        21.6050   46.6250   16.1650 O.2    98  G98        -0.2633
   2084  N7        20.2170   45.6610   13.5720 N.ar   98  G98        -0.2173
   2085  C8        20.0470   45.6680   12.2770 C.ar   98  G98         0.1817
   2086  N9        20.8860   46.5400   11.6300 N.ar   98  G98        -0.2693
   2087  OP1       17.8120   41.6740    8.1660 O.2    98  G98        -0.5172
   2088  OP2       17.5850   42.1250   10.7810 O.co2  98  G98        -0.4373
   2089  P         23.6290   43.3510    8.4610 P.3    99  A99         0.2141
   2090  C5'       25.6600   45.0570    8.5500 C.3    99  A99         0.1812
   2091  O5'       24.7170   44.2210    9.2350 O.3    99  A99        -0.3114
   2092  C4'       26.3720   45.8870    9.5840 C.3    99  A99         0.1773
   2093  O4'       25.4430   46.2220   10.6510 O.3    99  A99        -0.3307
   2094  C3'       27.4610   45.1780   10.3750 C.3    99  A99         0.1860
   2095  O3'       28.6290   44.8270    9.6170 O.3    99  A99        -0.3112
   2096  C2'       27.6190   46.1200   11.5730 C.3    99  A99         0.2309
   2097  O2'       28.3440   47.2890   11.2430 O.3    99  A99        -0.2156
   2098  C1'       26.1680   46.5320   11.8350 C.3    99  A99         0.2408
   2099  N1        25.8530   45.9100   16.9460 N.ar   99  A99        -0.2040
   2100  C2        26.6150   46.7110   16.1880 C.ar   99  A99         0.2016
   2101  N3        26.6760   46.8100   14.8540 N.ar   99  A99        -0.2048
   2102  C4        25.7860   45.9820   14.2820 C.ar   99  A99         0.1692
   2103  C5        24.9510   45.0860   14.9310 C.ar   99  A99         0.1518
   2104  C6        25.0050   45.0580   16.3290 C.ar   99  A99         0.1919
   2105  N6        24.2310   44.2780   17.0750 N.pl3  99  A99        -0.1054
   2106  N7        24.1550   44.4120   14.0220 N.ar   99  A99        -0.2193
   2107  C8        24.5560   44.8660   12.8550 C.ar   99  A99         0.1816
   2108  N9        25.5310   45.8300   12.9410 N.ar   99  A99        -0.2693
   2109  OP1       24.1340   42.6920    7.2460 O.2    99  A99        -0.5172
   2110  OP2       22.9550   42.5720    9.5550 O.co2  99  A99        -0.4373
   2111  P         29.1430   43.2740    9.6550 P.3   100  A100        0.2141
   2112  C5'       30.6690   44.2130   11.5890 C.3   100  A100        0.1812
   2113  O5'       29.5780   43.3450   11.1940 O.3   100  A100       -0.3114
   2114  C4'       30.8980   44.1560   13.0830 C.3   100  A100        0.1773
   2115  O4'       29.7330   44.6700   13.7970 O.3   100  A100       -0.3307
   2116  C3'       31.1130   42.7830   13.7120 C.3   100  A100        0.1860
   2117  O3'       32.4330   42.2680   13.5710 O.3   100  A100       -0.3112
   2118  C2'       30.8280   43.1050   15.1670 C.3   100  A100        0.2309
   2119  O2'       31.8480   43.9400   15.6660 O.3   100  A100       -0.2156
   2120  C1'       29.5690   43.9620   15.0240 C.3   100  A100        0.2408
   2121  N1        25.7350   41.7420   17.6950 N.ar  100  A100       -0.2040
   2122  C2        26.8070   42.4460   18.0790 C.ar  100  A100        0.2016
   2123  N3        27.7640   43.0080   17.3290 N.ar  100  A100       -0.2048
   2124  C4        27.5480   42.7730   16.0250 C.ar  100  A100        0.1692
   2125  C5        26.4980   42.0580   15.4780 C.ar  100  A100        0.1518
   2126  C6        25.5460   41.5340   16.3710 C.ar  100  A100        0.1919
   2127  N6        24.4910   40.8180   15.9790 N.pl3 100  A100       -0.1054
   2128  N7        26.6120   41.9950   14.0960 N.ar  100  A100       -0.2193
   2129  C8        27.7110   42.6650   13.8370 C.ar  100  A100        0.1816
   2130  N9        28.3240   43.1750   14.9600 N.ar  100  A100       -0.2693
   2131  OP1       30.3560   43.1550    8.8110 O.2   100  A100       -0.5172
   2132  OP2       28.0580   42.2800    9.4220 O.co2 100  A100       -0.4373
   2133  P         32.8970   40.8020   13.0000 P.3   101  U101        0.2141
   2134  C5'       33.0970   40.3700   15.5970 C.3   101  U101        0.1812
   2135  O5'       32.5820   39.9420   14.3190 O.3   101  U101       -0.3114
   2136  C4'       32.3350   39.7590   16.7460 C.3   101  U101        0.1773
   2137  O4'       31.0350   40.4060   16.8950 O.3   101  U101       -0.3307
   2138  C3'       31.9760   38.2820   16.6750 C.3   101  U101        0.1860
   2139  O3'       33.0400   37.3670   16.9700 O.3   101  U101       -0.3112
   2140  C2'       30.9120   38.2130   17.7640 C.3   101  U101        0.2309
   2141  O2'       31.4610   38.2990   19.0620 O.3   101  U101       -0.2156
   2142  C1'       30.1130   39.4960   17.4870 C.3   101  U101        0.2420
   2143  N1        28.9790   39.2810   16.5640 N.ar  101  U101       -0.2534
   2144  C2        27.7730   38.8480   17.1030 C.ar  101  U101        0.3546
   2145  O2        27.5910   38.6910   18.3040 O.2   101  U101       -0.2443
   2146  N3        26.7860   38.6090   16.1810 N.ar  101  U101       -0.1530
   2147  C4        26.8590   38.7830   14.8170 C.ar  101  U101        0.2846
   2148  O4        25.8700   38.5460   14.1280 O.2   101  U101       -0.2650
   2149  C5        28.1460   39.1830   14.3320 C.ar  101  U101        0.0814
   2150  C6        29.1410   39.4000   15.1990 C.ar  101  U101        0.0870
   2151  OP1       34.3380   41.1090   12.7930 O.3   101  U101       -0.4373
   2152  OP2       32.1680   40.1820   11.8590 O.co2 101  U101       -0.5172
   2153  P         33.1080   35.7700   16.6240 P.3   102  C102        0.2141
   2154  C5'       32.2770   34.9940   18.9760 C.3   102  C102        0.1812
   2155  O5'       31.9860   35.1960   17.5990 O.3   102  C102       -0.3114
   2156  C4'       31.0470   34.5240   19.7110 C.3   102  C102        0.1773
   2157  O4'       29.9810   35.5060   19.5590 O.3   102  C102       -0.3307
   2158  C3'       30.3870   33.2300   19.2550 C.3   102  C102        0.1860
   2159  O3'       31.0800   32.0330   19.6290 O.3   102  C102       -0.3112
   2160  C2'       29.0200   33.3780   19.9150 C.3   102  C102        0.2309
   2161  O2'       29.0430   33.2100   21.3170 O.3   102  C102       -0.2156
   2162  C1'       28.7190   34.8540   19.6400 C.3   102  C102        0.2420
   2163  N1        28.0350   35.0170   18.3520 N.ar  102  C102       -0.2535
   2164  C2        26.6470   34.8530   18.2950 C.ar  102  C102        0.3532
   2165  O2        26.0310   34.6230   19.3440 O.2   102  C102       -0.2443
   2166  N3        26.0160   34.9530   17.0990 N.ar  102  C102       -0.1739
   2167  C4        26.7260   35.2000   15.9930 C.ar  102  C102        0.1759
   2168  N4        26.0760   35.2980   14.8370 N.pl3 102  C102       -0.1070
   2169  C5        28.1430   35.3630   16.0250 C.ar  102  C102        0.0566
   2170  C6        28.7500   35.2630   17.2140 C.ar  102  C102        0.0850
   2171  OP1       34.4300   35.3210   17.1200 O.3   102  C102       -0.4373
   2172  OP2       32.7440   35.4550   15.2140 O.co2 102  C102       -0.5172
   2173  P         31.1220   30.5970   18.8440 P.3   103  U103        0.2141
   2174  C5'       28.9100   29.8980   20.0850 C.3   103  U103        0.1812
   2175  O5'       29.6560   29.9650   18.8590 O.3   103  U103       -0.3114
   2176  C4'       27.4290   29.8280   19.8030 C.3   103  U103        0.1773
   2177  O4'       26.9760   31.0150   19.1070 O.3   103  U103       -0.3307
   2178  C3'       26.9580   28.7740   18.8290 C.3   103  U103        0.1860
   2179  O3'       27.0190   27.4570   19.3480 O.3   103  U103       -0.3112
   2180  C2'       25.5200   29.2310   18.6120 C.3   103  U103        0.2309
   2181  O2'       24.6780   28.8260   19.6710 O.3   103  U103       -0.2156
   2182  C1'       25.7050   30.7510   18.5290 C.3   103  U103        0.2420
   2183  N1        25.7330   31.2040   17.1340 N.ar  103  U103       -0.2534
   2184  C2        24.5560   31.1380   16.4050 C.ar  103  U103        0.3546
   2185  O2        23.4930   30.7810   16.8910 O.2   103  U103       -0.2443
   2186  N3        24.6640   31.5400   15.0970 N.ar  103  U103       -0.1530
   2187  C4        25.7990   31.9790   14.4530 C.ar  103  U103        0.2846
   2188  O4        25.7370   32.3060   13.2670 O.2   103  U103       -0.2650
   2189  C5        26.9730   32.0150   15.2740 C.ar  103  U103        0.0814
   2190  C6        26.9040   31.6210   16.5510 C.ar  103  U103        0.0870
   2191  OP1       31.8980   29.7670   19.7930 O.3   103  U103       -0.4373
   2192  OP2       31.5550   30.6940   17.4220 O.co2 103  U103       -0.5172
   2193  P         27.2230   26.1600   18.4350 P.3   104  G104        0.2141
   2194  C5'       24.6080   25.8200   18.2970 C.3   104  G104        0.1812
   2195  O5'       25.9130   25.7080   17.6600 O.3   104  G104       -0.3114
   2196  C4'       23.5490   25.9040   17.2190 C.3   104  G104        0.1773
   2197  O4'       23.4670   27.2680   16.7140 O.3   104  G104       -0.3307
   2198  C3'       23.8690   25.1000   15.9760 C.3   104  G104        0.1860
   2199  O3'       23.3950   23.7890   16.2420 O.3   104  G104       -0.3112
   2200  C2'       23.0030   25.7750   14.9300 C.3   104  G104        0.2309
   2201  O2'       21.7360   25.2050   15.0570 O.3   104  G104       -0.2156
   2202  C1'       23.0320   27.2410   15.3730 C.3   104  G104        0.2408
   2203  N1        23.9090   29.8950   11.1480 N.ar  104  G104       -0.1709
   2204  C2        22.7280   29.3760   11.6170 C.ar  104  G104        0.2606
   2205  N2        21.6520   29.5480   10.8370 N.pl3 104  G104       -0.0859
   2206  N3        22.6150   28.7060   12.7510 N.ar  104  G104       -0.1918
   2207  C4        23.8000   28.5860   13.3800 C.ar  104  G104        0.1723
   2208  C5        25.0240   29.1070   13.0160 C.ar  104  G104        0.1748
   2209  C6        25.1230   29.8450   11.8220 C.ar  104  G104        0.3023
   2210  O6        26.1290   30.3410   11.3120 O.2   104  G104       -0.2633
   2211  N7        25.9920   28.7880   13.9530 N.ar  104  G104       -0.2173
   2212  C8        25.3460   28.1200   14.8720 C.ar  104  G104        0.1817
   2213  N9        24.0100   27.9730   14.5890 N.ar  104  G104       -0.2693
   2214  OP1       27.3110   25.2940   19.6390 O.3   104  G104       -0.4373
   2215  OP2       28.3340   26.2910   17.4620 O.co2 104  G104       -0.5172
   2216  P         24.0740   22.3720   15.8230 P.3   105  A105        0.2141
   2217  C5'       25.7210   22.1980   17.8940 C.3   105  A105        0.1812
   2218  O5'       24.4770   21.8440   17.2730 O.3   105  A105       -0.3114
   2219  C4'       25.7810   21.5920   19.2840 C.3   105  A105        0.1773
   2220  O4'       25.0860   22.4500   20.2400 O.3   105  A105       -0.3307
   2221  C3'       25.1640   20.1940   19.4160 C.3   105  A105        0.1860
   2222  O3'       26.2040   19.2150   19.4710 O.3   105  A105       -0.3112
   2223  C2'       24.4430   20.2520   20.7590 C.3   105  A105        0.2309
   2224  O2'       25.3810   20.0200   21.7850 O.3   105  A105       -0.2156
   2225  C1'       24.0370   21.7240   20.8470 C.3   105  A105        0.2408
   2226  N1        20.5410   25.3040   19.5930 N.ar  105  A105       -0.2040
   2227  C2        21.6440   25.3560   20.3610 C.ar  105  A105        0.2016
   2228  N3        22.5190   24.3920   20.6490 N.ar  105  A105       -0.2048
   2229  C4        22.1620   23.2390   20.0550 C.ar  105  A105        0.1692
   2230  C5        21.0580   23.0290   19.2490 C.ar  105  A105        0.1518
   2231  C6        20.2210   24.1320   19.0070 C.ar  105  A105        0.1919
   2232  N6        19.1420   24.0780   18.2290 N.pl3 105  A105       -0.1054
   2233  N7        21.0070   21.7110   18.8200 N.ar  105  A105       -0.2193
   2234  C8        22.0670   21.1650   19.3590 C.ar  105  A105        0.1816
   2235  N9        22.8060   22.0290   20.1280 N.ar  105  A105       -0.2693
   2236  OP1       25.3200   22.4350   15.0070 O.2   105  A105       -0.5172
   2237  OP2       22.8640   21.7260   15.2550 O.co2 105  A105       -0.4373
   2238  P         26.0430   17.8160   18.6790 P.3   106  A106        0.2141
   2239  C5'       24.3370   15.9510   19.3480 C.3   106  A106        0.1812
   2240  O5'       25.1640   17.0440   19.7630 O.3   106  A106       -0.3114
   2241  C4'       23.6250   15.3450   20.5290 C.3   106  A106        0.1773
   2242  O4'       24.5280   14.9760   21.6050 O.3   106  A106       -0.3307
   2243  C3'       22.6730   16.2900   21.2220 C.3   106  A106        0.1860
   2244  O3'       21.6300   16.3140   20.2690 O.3   106  A106       -0.3112
   2245  C2'       22.4340   15.5510   22.5330 C.3   106  A106        0.2309
   2246  O2'       21.6540   14.3880   22.3390 O.3   106  A106       -0.2156
   2247  C1'       23.8310   15.0320   22.8380 C.3   106  A106        0.2408
   2248  N1        27.4580   14.8260   26.4150 N.ar  106  A106       -0.2040
   2249  C2        26.8580   13.8930   25.6730 C.ar  106  A106        0.2016
   2250  N3        25.9110   14.0280   24.7500 N.ar  106  A106       -0.2048
   2251  C4        25.5760   15.3190   24.6000 C.ar  106  A106        0.1692
   2252  C5        26.1070   16.3980   25.2850 C.ar  106  A106        0.1518
   2253  C6        27.1000   16.1160   26.2440 C.ar  106  A106        0.1919
   2254  N6        27.7160   17.0460   26.9770 N.pl3 106  A106       -0.1054
   2255  N7        25.4970   17.5780   24.8850 N.ar  106  A106       -0.2193
   2256  C8        24.6300   17.1930   23.9760 C.ar  106  A106        0.1816
   2257  N9        24.6150   15.8360   23.7670 N.ar  106  A106       -0.2693
   2258  OP1       27.4370   17.2770   18.6380 O.3   106  A106       -0.4373
   2259  OP2       25.2610   17.8490   17.4020 O.co2 106  A106       -0.5172
   2260  P         20.5120   17.4290   20.1130 P.3   107  G107        0.2141
   2261  C5'       18.5960   15.5990   20.0450 C.3   107  G107        0.1812
   2262  O5'       19.3120   16.6110   20.7720 O.3   107  G107       -0.3114
   2263  C4'       17.3380   15.2420   20.7920 C.3   107  G107        0.1773
   2264  O4'       17.6840   14.8340   22.1430 O.3   107  G107       -0.3307
   2265  C3'       16.3560   16.3820   20.9490 C.3   107  G107        0.1860
   2266  O3'       15.4330   16.2440   19.8920 O.3   107  G107       -0.3112
   2267  C2'       15.6950   16.0740   22.2840 C.3   107  G107        0.2309
   2268  O2'       14.7100   15.0710   22.1560 O.3   107  G107       -0.2156
   2269  C1'       16.8590   15.5000   23.0830 C.3   107  G107        0.2408
   2270  N1        17.5600   20.3720   24.3690 N.ar  107  G107       -0.1709
   2271  C2        16.5090   19.7960   23.7020 C.ar  107  G107        0.2606
   2272  N2        15.5450   20.6250   23.2970 N.pl3 107  G107       -0.0859
   2273  N3        16.4160   18.5020   23.4470 N.ar  107  G107       -0.1918
   2274  C4        17.4800   17.8220   23.9130 C.ar  107  G107        0.1723
   2275  C5        18.5720   18.3020   24.6090 C.ar  107  G107        0.1748
   2276  C6        18.6490   19.6850   24.8900 C.ar  107  G107        0.3023
   2277  O6        19.5410   20.3020   25.4780 O.2   107  G107       -0.2633
   2278  N7        19.4530   17.2750   24.9130 N.ar  107  G107       -0.2173
   2279  C8        18.9020   16.2140   24.3910 C.ar  107  G107        0.1817
   2280  N9        17.6960   16.4730   23.7830 N.ar  107  G107       -0.2693
   2281  OP1       20.4320   17.7260   18.6370 O.2   107  G107       -0.5172
   2282  OP2       20.8220   18.4760   21.1090 O.co2 107  G107       -0.4373
   2283  P         15.1470   17.4450   18.8640 P.3   108  G108        0.2141
   2284  C5'       14.7310   16.4410   16.4770 C.3   108  G108        0.1812
   2285  O5'       14.2300   16.7400   17.7680 O.3   108  G108       -0.3114
   2286  C4'       13.9600   17.2470   15.4740 C.3   108  G108        0.1773
   2287  O4'       12.5330   16.8910   15.4850 O.3   108  G108       -0.3307
   2288  C3'       14.0260   18.7560   15.7000 C.3   108  G108        0.1860
   2289  O3'       14.0560   19.2380   14.3650 O.3   108  G108       -0.3112
   2290  C2'       12.6900   19.0510   16.3970 C.3   108  G108        0.2309
   2291  O2'       12.2400   20.3640   16.1440 O.3   108  G108       -0.2156
   2292  C1'       11.7560   18.0660   15.6900 C.3   108  G108        0.2408
   2293  N1         6.7980   16.9840   15.4780 N.ar  108  G108       -0.1709
   2294  C2         7.6050   17.5130   14.5090 C.ar  108  G108        0.2606
   2295  N2         7.0230   17.7390   13.3230 N.pl3 108  G108       -0.0859
   2296  N3         8.8910   17.7900   14.6840 N.ar  108  G108       -0.1918
   2297  C4         9.2990   17.5020   15.9390 C.ar  108  G108        0.1723
   2298  C5         8.5690   16.9640   16.9770 C.ar  108  G108        0.1748
   2299  C6         7.2040   16.6620   16.7680 C.ar  108  G108        0.3023
   2300  O6         6.3830   16.2180   17.5780 O.2   108  G108       -0.2633
   2301  N7         9.3660   16.7810   18.1000 N.ar  108  G108       -0.2173
   2302  C8        10.5490   17.1960   17.7300 C.ar  108  G108        0.1817
   2303  N9        10.5760   17.6620   16.4360 N.ar  108  G108       -0.2693
   2304  OP1       16.4290   17.9010   18.2460 O.2   108  G108       -0.5172
   2305  OP2       14.3230   18.3940   19.6740 O.co2 108  G108       -0.4373
   2306  P         14.8450   20.5150   13.9450 P.3   109  A109        0.2141
   2307  C5'       13.0780   21.0660   12.0710 C.3   109  A109        0.1812
   2308  O5'       14.4290   20.6350   12.4110 O.3   109  A109       -0.3114
   2309  C4'       13.0600   22.0920   10.9460 C.3   109  A109        0.1773
   2310  O4'       13.8980   23.2250   11.3030 O.3   109  A109       -0.3307
   2311  C3'       13.6110   21.6020    9.6090 C.3   109  A109        0.1860
   2312  O3'       12.5980   21.0100    8.7870 O.3   109  A109       -0.3112
   2313  C2'       14.1270   22.8780    8.9520 C.3   109  A109        0.2309
   2314  O2'       12.9840   23.4660    8.4060 O.3   109  A109       -0.2156
   2315  C1'       14.5050   23.7570   10.1410 C.3   109  A109        0.2408
   2316  N1        18.9650   25.7690    8.5630 N.ar  109  A109       -0.2040
   2317  C2        17.7210   25.8430    8.0710 C.ar  109  A109        0.2016
   2318  N3        16.5970   25.2870    8.5260 N.ar  109  A109       -0.2048
   2319  C4        16.8400   24.5870    9.6460 C.ar  109  A109        0.1692
   2320  C5        18.0610   24.4380   10.2840 C.ar  109  A109        0.1518
   2321  C6        19.1700   25.0690    9.6970 C.ar  109  A109        0.1919
   2322  N6        20.4070   25.0040   10.1900 N.pl3 109  A109       -0.1054
   2323  N7        17.9310   23.6340   11.4050 N.ar  109  A109       -0.2193
   2324  C8        16.6530   23.3370   11.4340 C.ar  109  A109        0.1816
   2325  N9        15.9380   23.8670   10.3890 N.ar  109  A109       -0.2693
   2326  OP1       16.3210   20.3960   13.9870 O.2   109  A109       -0.5172
   2327  OP2       14.1900   21.5910   14.7560 O.co2 109  A109       -0.4373
   2328  P         12.9940   19.6820    7.9280 P.3   110  A110        0.2141
   2329  C5'       12.3530   18.0480    9.9320 C.3   110  A110        0.1812
   2330  O5'       13.3590   18.7220    9.1500 O.3   110  A110       -0.3114
   2331  C4'       13.0720   17.3400   11.0450 C.3   110  A110        0.1773
   2332  O4'       12.1610   17.0610   12.1330 O.3   110  A110       -0.3307
   2333  C3'       13.7350   16.0120   10.6970 C.3   110  A110        0.1860
   2334  O3'       14.8510   15.9020   11.5730 O.3   110  A110       -0.3112
   2335  C2'       12.6680   15.0050   11.1110 C.3   110  A110        0.2309
   2336  O2'       13.1210   13.7400   11.5530 O.3   110  A110       -0.2156
   2337  C1'       12.1050   15.6720   12.3590 C.3   110  A110        0.2408
   2338  N1         7.4240   15.2890   10.3140 N.ar  110  A110       -0.2040
   2339  C2         8.6000   15.6670    9.8020 C.ar  110  A110        0.2016
   2340  N3         9.7940   15.7310   10.3920 N.ar  110  A110       -0.2048
   2341  C4         9.7030   15.3580   11.6760 C.ar  110  A110        0.1692
   2342  C5         8.5620   14.9630   12.3480 C.ar  110  A110        0.1518
   2343  C6         7.3730   14.9290   11.6150 C.ar  110  A110        0.1919
   2344  N6         6.2100   14.5230   12.1200 N.pl3 110  A110       -0.1054
   2345  N7         8.8520   14.6480   13.6680 N.ar  110  A110       -0.2193
   2346  C8        10.1350   14.8930   13.7730 C.ar  110  A110        0.1816
   2347  N9        10.7160   15.3070   12.5980 N.ar  110  A110       -0.2693
   2348  OP1       14.2470   19.9430    7.1860 O.2   110  A110       -0.5172
   2349  OP2       11.8610   19.0350    7.2210 O.co2 110  A110       -0.4373
   2350  P         16.3390   15.6570   11.0410 P.3   111  G111        0.2141
   2351  C5'       17.2230   18.0810   10.3870 C.3   111  G111        0.1812
   2352  O5'       16.6180   16.8420   10.0150 O.3   111  G111       -0.3114
   2353  C4'       16.9080   19.0600    9.2920 C.3   111  G111        0.1773
   2354  O4'       17.1600   20.4190    9.7350 O.3   111  G111       -0.3307
   2355  C3'       17.7420   18.8590    8.0460 C.3   111  G111        0.1860
   2356  O3'       16.9700   18.0790    7.1470 O.3   111  G111       -0.3112
   2357  C2'       17.8740   20.2650    7.4920 C.3   111  G111        0.2309
   2358  O2'       16.6360   20.5390    6.8890 O.3   111  G111       -0.2156
   2359  C1'       17.9170   21.1020    8.7650 C.3   111  G111        0.2408
   2360  N1        22.5280   23.0120    7.9160 N.ar  111  G111       -0.1709
   2361  C2        21.4080   23.0550    7.1260 C.ar  111  G111        0.2606
   2362  N2        21.5430   23.6610    5.9390 N.pl3 111  G111       -0.0859
   2363  N3        20.2440   22.5220    7.4640 N.ar  111  G111       -0.1918
   2364  C4        20.2980   21.9150    8.6630 C.ar  111  G111        0.1723
   2365  C5        21.3580   21.8350    9.5410 C.ar  111  G111        0.1748
   2366  C6        22.5990   22.4140    9.1690 C.ar  111  G111        0.3023
   2367  O6        23.6640   22.4270    9.7990 O.2   111  G111       -0.2633
   2368  N7        20.9910   21.1550   10.6950 N.ar  111  G111       -0.2173
   2369  C8        19.7440   20.8240   10.4920 C.ar  111  G111        0.1817
   2370  N9        19.2630   21.2570    9.2800 N.ar  111  G111       -0.2693
   2371  OP1       16.2190   14.3960   10.2250 O.2   111  G111       -0.5172
   2372  OP2       17.4520   15.8390   12.0040 O.co2 111  G111       -0.4373
   2373  P         17.8250   17.0290    6.2740 P.3   112  C112        0.2141
   2374  C5'       17.7010   18.7660    4.2840 C.3   112  C112        0.1812
   2375  O5'       18.4790   17.8230    5.0580 O.3   112  C112       -0.3114
   2376  C4'       18.6340   19.5370    3.3910 C.3   112  C112        0.1773
   2377  O4'       19.2990   20.5480    4.1900 O.3   112  C112       -0.3307
   2378  C3'       19.7920   18.7240    2.8440 C.3   112  C112        0.1860
   2379  O3'       19.4130   17.8500    1.7770 O.3   112  C112       -0.3112
   2380  C2'       20.8050   19.8160    2.5190 C.3   112  C112        0.2309
   2381  O2'       20.5390   20.6350    1.3990 O.3   112  C112       -0.2156
   2382  C1'       20.6130   20.7430    3.7090 C.3   112  C112        0.2420
   2383  N1        21.5640   20.4630    4.7790 N.ar  112  C112       -0.2535
   2384  C2        22.8490   20.9760    4.6350 C.ar  112  C112        0.3532
   2385  O2        23.1120   21.6360    3.6270 O.2   112  C112       -0.2443
   2386  N3        23.7770   20.7220    5.5840 N.ar  112  C112       -0.1739
   2387  C4        23.4490   19.9980    6.6580 C.ar  112  C112        0.1759
   2388  N4        24.3850   19.8040    7.5870 N.pl3 112  C112       -0.1070
   2389  C5        22.1370   19.4640    6.8360 C.ar  112  C112        0.0566
   2390  C6        21.2390   19.7000    5.8690 C.ar  112  C112        0.0850
   2391  OP1       16.7880   16.0600    5.7840 O.2   112  C112       -0.5172
   2392  OP2       19.0440   16.5740    6.9980 O.co2 112  C112       -0.4373
   2393  P         20.4860   16.7420    1.2430 P.3   113  G113        0.2141
   2394  C5'       22.5750   17.3880   -0.2510 C.3   113  G113        0.1812
   2395  O5'       21.6930   17.6920    0.8130 O.3   113  G113       -0.3114
   2396  C4'       23.7890   18.2560   -0.1010 C.3   113  G113        0.1773
   2397  O4'       23.8310   18.8910    1.2070 O.3   113  G113       -0.3307
   2398  C3'       25.1100   17.5140   -0.0990 C.3   113  G113        0.1860
   2399  O3'       25.4310   17.0960   -1.4130 O.3   113  G113       -0.3112
   2400  C2'       26.0510   18.5850    0.4140 C.3   113  G113        0.2309
   2401  O2'       26.1160   19.4870   -0.6610 O.3   113  G113       -0.2156
   2402  C1'       25.1970   19.2350    1.4970 C.3   113  G113        0.2408
   2403  N1        28.8040   18.8700    5.0700 N.ar  113  G113       -0.1709
   2404  C2        28.8810   19.4160    3.8100 C.ar  113  G113        0.2606
   2405  N2        30.0750   19.9210    3.4530 N.pl3 113  G113       -0.0859
   2406  N3        27.8660   19.4500    2.9520 N.ar  113  G113       -0.1918
   2407  C4        26.7520   18.8950    3.4710 C.ar  113  G113        0.1723
   2408  C5        26.5780   18.3110    4.7060 C.ar  113  G113        0.1748
   2409  C6        27.6720   18.2610    5.6060 C.ar  113  G113        0.3023
   2410  O6        27.7060   17.7880    6.7530 O.2   113  G113       -0.2633
   2411  N7        25.2790   17.8460    4.8510 N.ar  113  G113       -0.2173
   2412  C8        24.6970   18.1540    3.7260 C.ar  113  G113        0.1817
   2413  N9        25.5410   18.7720    2.8360 N.ar  113  G113       -0.2693
   2414  OP1       19.7400   16.1810    0.0920 O.2   113  G113       -0.5172
   2415  OP2       21.1030   15.8680    2.2940 O.co2 113  G113       -0.4373
   2416  P         25.9550   15.6070   -1.5210 P.3   114  G114        0.2141
   2417  C5'       28.3990   16.5140   -1.2500 C.3   114  G114        0.1812
   2418  O5'       27.3270   15.7210   -0.7050 O.3   114  G114       -0.3114
   2419  C4'       29.5380   16.5920   -0.2690 C.3   114  G114        0.1773
   2420  O4'       29.0100   17.0220    1.0090 O.3   114  G114       -0.3307
   2421  C3'       30.2040   15.2590    0.0210 C.3   114  G114        0.1860
   2422  O3'       31.2270   14.9980   -0.9310 O.3   114  G114       -0.3112
   2423  C2'       30.7250   15.4330    1.4460 C.3   114  G114        0.2309
   2424  O2'       31.8810   16.2250    1.5440 O.3   114  G114       -0.2156
   2425  C1'       29.6620   16.3320    2.0660 C.3   114  G114        0.2408
   2426  N1        28.4350   14.6630    6.7050 N.ar  114  G114       -0.1709
   2427  C2        29.6200   15.1900    6.2530 C.ar  114  G114        0.2606
   2428  N2        30.5970   15.3090    7.1650 N.pl3 114  G114       -0.0859
   2429  N3        29.8280   15.5850    5.0020 N.ar  114  G114       -0.1918
   2430  C4        28.7360   15.4120    4.2330 C.ar  114  G114        0.1723
   2431  C5        27.4900   14.9480    4.6010 C.ar  114  G114        0.1748
   2432  C6        27.2820   14.5260    5.9410 C.ar  114  G114        0.3023
   2433  O6        26.2620   14.0430    6.4490 O.2   114  G114       -0.2633
   2434  N7        26.6290   14.9320    3.5110 N.ar  114  G114       -0.2173
   2435  C8        27.3520   15.3880    2.5210 C.ar  114  G114        0.1817
   2436  N9        28.6430   15.6890    2.8900 N.ar  114  G114       -0.2693
   2437  OP1       26.2370   15.3150   -2.9530 O.2   114  G114       -0.5172
   2438  OP2       24.8480   14.8860   -0.8420 O.co2 114  G114       -0.4373
   2439  P         31.3640   13.5270   -1.6020 P.3   115  A115        0.2141
   2440  C5'       33.3370   13.1470    0.1180 C.3   115  A115        0.1812
   2441  O5'       32.0820   12.7000   -0.4380 O.3   115  A115       -0.3114
   2442  C4'       33.6500   12.3860    1.3870 C.3   115  A115        0.1773
   2443  O4'       32.7050   12.7220    2.4380 O.3   115  A115       -0.3307
   2444  C3'       33.6550   10.8630    1.2580 C.3   115  A115        0.1860
   2445  O3'       34.7500   10.3320    1.9730 O.3   115  A115       -0.3112
   2446  C2'       32.3480   10.3980    1.9020 C.3   115  A115        0.2309
   2447  O2'       32.3620    9.1830    2.6380 O.3   115  A115       -0.2156
   2448  C1'       31.9300   11.5890    2.7740 C.3   115  A115        0.2408
   2449  N1        27.2260   11.9760    4.7480 N.ar  115  A115       -0.2040
   2450  C2        28.4420   11.8700    5.3190 C.ar  115  A115        0.2016
   2451  N3        29.6380   11.7920    4.7390 N.ar  115  A115       -0.2048
   2452  C4        29.5120   11.8460    3.4040 C.ar  115  A115        0.1692
   2453  C5        28.3350   11.9490    2.6780 C.ar  115  A115        0.1518
   2454  C6        27.1450   12.0040    3.4000 C.ar  115  A115        0.1919
   2455  N6        25.9450   12.1010    2.8300 N.pl3 115  A115       -0.1054
   2456  N7        28.5930   11.9530    1.3160 N.ar  115  A115       -0.2193
   2457  C8        29.9020   11.8700    1.2480 C.ar  115  A115        0.1816
   2458  N9        30.5220   11.8440    2.4780 N.ar  115  A115       -0.2693
   2459  OP1       32.3570   13.6880   -2.6960 O.2   115  A115       -0.5172
   2460  OP2       30.0430   12.9000   -1.9080 O.co2 115  A115       -0.4373
   2461  P         35.6880    9.3390    1.1870 P.3   116  C116        0.2141
   2462  C5'       38.0380   10.0110    2.1610 C.3   116  C116        0.1812
   2463  O5'       36.7860    9.3510    2.3460 O.3   116  C116       -0.3114
   2464  C4'       38.8360    9.9760    3.4390 C.3   116  C116        0.1773
   2465  O4'       38.2190   10.8590    4.4180 O.3   116  C116       -0.3307
   2466  C3'       38.9090    8.6280    4.1350 C.3   116  C116        0.1860
   2467  O3'       39.9320    7.7890    3.6490 O.3   116  C116       -0.3112
   2468  C2'       39.1420    9.0110    5.5930 C.3   116  C116        0.2309
   2469  O2'       40.5020    9.1650    5.9270 O.3   116  C116       -0.2156
   2470  C1'       38.2850   10.2720    5.7120 C.3   116  C116        0.2420
   2471  N1        36.9120    9.9730    6.1430 N.ar  116  C116       -0.2535
   2472  C2        36.6790    9.8030    7.5050 C.ar  116  C116        0.3532
   2473  O2        37.6340    9.9170    8.2890 O.2   116  C116       -0.2443
   2474  N3        35.4190    9.5250    7.9350 N.ar  116  C116       -0.1739
   2475  C4        34.4240    9.4040    7.0470 C.ar  116  C116        0.1759
   2476  N4        33.2010    9.1380    7.5090 N.pl3 116  C116       -0.1070
   2477  C5        34.6460    9.5290    5.6430 C.ar  116  C116        0.0566
   2478  C6        35.8960    9.8000    5.2390 C.ar  116  C116        0.0850
   2479  OP1       36.1830    9.9970   -0.0530 O.2   116  C116       -0.5172
   2480  OP2       34.8830    8.0960    1.0920 O.co2 116  C116       -0.4373
   2481  P         39.4870    6.3670    3.0500 P.3   117  G117        0.2141
   2482  C5'       39.0150    5.4820    5.5070 C.3   117  G117        0.1812
   2483  O5'       38.5420    5.6670    4.1390 O.3   117  G117       -0.3114
   2484  C4'       37.8840    5.4740    6.5270 C.3   117  G117        0.1773
   2485  O4'       36.9220    6.5410    6.2660 O.3   117  G117       -0.3307
   2486  C3'       36.9980    4.2380    6.5780 C.3   117  G117        0.1860
   2487  O3'       37.5040    3.0980    7.2510 O.3   117  G117       -0.3112
   2488  C2'       35.8170    4.7710    7.3690 C.3   117  G117        0.2309
   2489  O2'       36.2120    5.0190    8.7000 O.3   117  G117       -0.2156
   2490  C1'       35.6290    6.1260    6.6970 C.3   117  G117        0.2408
   2491  N1        30.8360    5.5590    5.1720 N.ar  117  G117       -0.1709
   2492  C2        31.3600    5.5810    6.4380 C.ar  117  G117        0.2606
   2493  N2        30.4810    5.4450    7.4420 N.pl3 117  G117       -0.0859
   2494  N3        32.6480    5.7490    6.7070 N.ar  117  G117       -0.1918
   2495  C4        33.3800    5.8910    5.5910 C.ar  117  G117        0.1723
   2496  C5        32.9570    5.9130    4.2830 C.ar  117  G117        0.1748
   2497  C6        31.5660    5.7520    4.0090 C.ar  117  G117        0.3023
   2498  O6        30.9840    5.7580    2.9140 O.2   117  G117       -0.2633
   2499  N7        34.0350    6.0810    3.4180 N.ar  117  G117       -0.2173
   2500  C8        35.0750    6.1390    4.2080 C.ar  117  G117        0.1817
   2501  N9        34.7400    6.0610    5.5410 N.ar  117  G117       -0.2693
   2502  OP1       40.8340    5.7260    3.0980 O.3   117  G117       -0.4373
   2503  OP2       38.7550    6.5040    1.7290 O.co2 117  G117       -0.5172
   2504  P         37.0560    1.6410    6.7130 P.3   118  G118        0.2141
   2505  C5'       35.7460    1.3740    8.9910 C.3   118  G118        0.1812
   2506  O5'       35.7300    1.3620    7.5510 O.3   118  G118       -0.3114
   2507  C4'       34.3220    1.4310    9.4960 C.3   118  G118        0.1773
   2508  O4'       33.6150    2.5980    8.9530 O.3   118  G118       -0.3307
   2509  C3'       33.4290    0.2860    9.0720 C.3   118  G118        0.1860
   2510  O3'       33.7530   -0.8270    9.8870 O.3   118  G118       -0.3112
   2511  C2'       32.0610    0.8830    9.3720 C.3   118  G118        0.2309
   2512  O2'       31.8480    0.8590   10.7750 O.3   118  G118       -0.2156
   2513  C1'       32.2300    2.3020    8.8030 C.3   118  G118        0.2408
   2514  N1        28.6410    2.1150    5.1500 N.ar  118  G118       -0.1709
   2515  C2        28.4800    2.0970    6.5120 C.ar  118  G118        0.2606
   2516  N2        27.2030    2.0240    6.9490 N.pl3 118  G118       -0.0859
   2517  N3        29.4880    2.1860    7.3830 N.ar  118  G118       -0.1918
   2518  C4        30.6840    2.2910    6.7610 C.ar  118  G118        0.1723
   2519  C5        30.9460    2.3220    5.4060 C.ar  118  G118        0.1748
   2520  C6        29.8570    2.2370    4.4910 C.ar  118  G118        0.3023
   2521  O6        29.8870    2.2370    3.2490 O.2   118  G118       -0.2633
   2522  N7        32.3150    2.4100    5.1700 N.ar  118  G118       -0.2173
   2523  C8        32.8540    2.4370    6.3650 C.ar  118  G118        0.1817
   2524  N9        31.9260    2.3630    7.3750 N.ar  118  G118       -0.2693
   2525  OP1       38.1930    0.8550    7.2550 O.3   118  G118       -0.4373
   2526  OP2       36.6920    1.5240    5.2510 O.co2 118  G118       -0.5172
   2527  P         33.6140   -2.2950    9.2570 P.3   119  C119        0.2141
   2528  C5'       31.1410   -2.5720    9.9990 C.3   119  C119        0.1812
   2529  O5'       32.0630   -2.4230    8.9130 O.3   119  C119       -0.3114
   2530  C4'       29.7400   -2.4410    9.4830 C.3   119  C119        0.1773
   2531  O4'       29.5900   -1.2630    8.6310 O.3   119  C119       -0.3307
   2532  C3'       29.3440   -3.5410    8.5190 C.3   119  C119        0.1860
   2533  O3'       29.0630   -4.7390    9.2060 O.3   119  C119       -0.3112
   2534  C2'       28.0810   -2.9430    7.9230 C.3   119  C119        0.2309
   2535  O2'       27.0770   -3.0340    8.9050 O.3   119  C119       -0.2156
   2536  C1'       28.5090   -1.4850    7.7360 C.3   119  C119        0.2420
   2537  N1        28.9380   -1.2780    6.3450 N.ar  119  C119       -0.2535
   2538  C2        27.9190   -1.2240    5.3950 C.ar  119  C119        0.3532
   2539  O2        26.7450   -1.3320    5.7780 O.2   119  C119       -0.2443
   2540  N3        28.2320   -1.0590    4.0900 N.ar  119  C119       -0.1739
   2541  C4        29.5150   -1.0160    3.7160 C.ar  119  C119        0.1759
   2542  N4        29.7760   -0.8790    2.4080 N.pl3 119  C119       -0.1070
   2543  C5        30.5810   -1.1160    4.6610 C.ar  119  C119        0.0566
   2544  C6        30.2470   -1.2620    5.9540 C.ar  119  C119        0.0850
   2545  OP1       33.9270   -3.2270   10.3770 O.3   119  C119       -0.4373
   2546  OP2       34.2930   -2.4460    7.9430 O.co2 119  C119       -0.5172
   2547  P         29.1340   -6.0750    8.3540 P.3   120  A120        0.2141
   2548  C5'       26.5590   -6.2600    7.9150 C.3   120  A120        0.1812
   2549  O5'       27.8810   -6.0660    7.3840 O.3   120  A120       -0.3114
   2550  C4'       25.5790   -6.1070    6.7630 C.3   120  A120        0.1773
   2551  O4'       25.9130   -4.8980    6.0410 O.3   120  A120       -0.3307
   2552  C3'       25.6750   -7.1660    5.6700 C.3   120  A120        0.1860
   2553  O3'       25.0270   -8.3460    6.1150 O.3   120  A120       -0.3112
   2554  C2'       25.0400   -6.4440    4.4840 C.3   120  A120        0.2309
   2555  O2'       23.6310   -6.2850    4.5060 O.3   120  A120       -0.2156
   2556  C1'       25.5820   -5.0320    4.6780 C.3   120  A120        0.2408
   2557  N1        27.6610   -3.9750    0.0940 N.ar  120  A120       -0.2040
   2558  C2        26.3920   -4.1860    0.4730 C.ar  120  A120        0.2016
   2559  N3        25.9060   -4.4380    1.6880 N.ar  120  A120       -0.2048
   2560  C4        26.9030   -4.5060    2.5870 C.ar  120  A120        0.1692
   2561  C5        28.2550   -4.3280    2.3450 C.ar  120  A120        0.1518
   2562  C6        28.6380   -4.0670    1.0270 C.ar  120  A120        0.1919
   2563  N6        29.9170   -3.8970    0.6480 N.pl3 120  A120       -0.1054
   2564  N7        28.9890   -4.4880    3.5120 N.ar  120  A120       -0.2193
   2565  C8        28.0800   -4.7580    4.4240 C.ar  120  A120        0.1816
   2566  N9        26.7970   -4.7920    3.9290 N.ar  120  A120       -0.2693
   2567  OP1       28.9330   -7.1560    9.3210 O.3   120  A120       -0.4373
   2568  OP2       30.3960   -5.9900    7.5800 O.co2 120  A120       -0.5172
   2569  P         25.8920   -9.6690    6.5120 P.3   121  A121        0.2141
   2570  C5'       23.5490  -10.6010    7.2590 C.3   121  A121        0.1812
   2571  O5'       24.6840  -10.6980    6.3620 O.3   121  A121       -0.3114
   2572  C4'       22.5170  -11.6650    6.9210 C.3   121  A121        0.1773
   2573  O4'       21.8530  -11.3390    5.6610 O.3   121  A121       -0.3307
   2574  C3'       23.0870  -13.0700    6.7170 C.3   121  A121        0.1860
   2575  O3'       22.1380  -14.0220    7.1660 O.3   121  A121       -0.3112
   2576  C2'       23.2030  -13.1420    5.2050 C.3   121  A121        0.2309
   2577  O2'       23.3310  -14.4220    4.6200 O.3   121  A121       -0.2156
   2578  C1'       21.9100  -12.4560    4.8050 C.3   121  A121        0.2408
   2579  N1        24.2050   -9.4860    1.2730 N.ar  121  A121       -0.2040
   2580  C2        24.4110   -9.6320    2.5900 C.ar  121  A121        0.2016
   2581  N3        23.7720  -10.4150    3.4640 N.ar  121  A121       -0.2048
   2582  C4        22.8050  -11.1130    2.8500 C.ar  121  A121        0.1692
   2583  C5        22.4810  -11.0760    1.5040 C.ar  121  A121        0.1518
   2584  C6        23.2170  -10.2040    0.6940 C.ar  121  A121        0.1919
   2585  N6        23.0060  -10.0660   -0.6180 N.pl3 121  A121       -0.1054
   2586  N7        21.4120  -11.9170    1.2330 N.ar  121  A121       -0.2193
   2587  C8        21.1280  -12.4480    2.3990 C.ar  121  A121        0.1816
   2588  N9        21.9340  -12.0100    3.4200 N.ar  121  A121       -0.2693
   2589  OP1       26.2710   -9.5940    7.9490 O.3   121  A121       -0.4373
   2590  OP2       26.9730   -9.9310    5.5290 O.co2 121  A121       -0.5172
   2591  P         22.1890  -14.4710    8.6890 P.3   122  A122        0.2141
   2592  C5'       19.5530  -14.4050    8.6950 C.3   122  A122        0.1812
   2593  O5'       20.7660  -15.1340    8.9470 O.3   122  A122       -0.3114
   2594  C4'       18.3820  -15.3330    8.8650 C.3   122  A122        0.1773
   2595  O4'       18.4300  -16.3550    7.8290 O.3   122  A122       -0.3307
   2596  C3'       18.3820  -16.1300   10.1640 C.3   122  A122        0.1860
   2597  O3'       17.8720  -15.4020   11.2910 O.3   122  A122       -0.3112
   2598  C2'       17.5640  -17.3620    9.7890 C.3   122  A122        0.2309
   2599  O2'       16.1730  -17.1100    9.7880 O.3   122  A122       -0.2156
   2600  C1'       18.0110  -17.5990    8.3530 C.3   122  A122        0.2408
   2601  N1        19.2730  -22.5620    8.0760 N.ar  122  A122       -0.2040
   2602  C2        18.1260  -21.9420    8.3690 C.ar  122  A122        0.2016
   2603  N3        17.8680  -20.6420    8.4440 N.ar  122  A122       -0.2048
   2604  C4        18.9730  -19.9260    8.1760 C.ar  122  A122        0.1692
   2605  C5        20.2250  -20.4190    7.8540 C.ar  122  A122        0.1518
   2606  C6        20.3640  -21.8160    7.8010 C.ar  122  A122        0.1919
   2607  N6        21.5120  -22.4420    7.5070 N.pl3 122  A122       -0.1054
   2608  N7        21.1190  -19.3830    7.6290 N.ar  122  A122       -0.2193
   2609  C8        20.4010  -18.3030    7.8240 C.ar  122  A122        0.1816
   2610  N9        19.0950  -18.5580    8.1650 N.ar  122  A122       -0.2693
   2611  OP1       22.1230  -13.2120    9.4790 O.3   122  A122       -0.4373
   2612  OP2       23.3770  -15.3670    8.8540 O.co2 122  A122       -0.5172
   2613  P         18.5140  -15.7700   12.7380 P.3   123  C123        0.2141
   2614  C5'       17.8530  -18.2440   13.6310 C.3   123  C123        0.1812
   2615  O5'       18.4070  -17.3580   12.6400 O.3   123  C123       -0.3114
   2616  C4'       18.1490  -19.6630   13.1860 C.3   123  C123        0.1773
   2617  O4'       18.6960  -19.6370   11.8360 O.3   123  C123       -0.3307
   2618  C3'       19.2420  -20.3520   13.9750 C.3   123  C123        0.1860
   2619  O3'       18.7240  -20.8180   15.2040 O.3   123  C123       -0.3112
   2620  C2'       19.7240  -21.4220   13.0080 C.3   123  C123        0.2309
   2621  O2'       18.9330  -22.5890   12.9620 O.3   123  C123       -0.2156
   2622  C1'       19.6240  -20.6920   11.6710 C.3   123  C123        0.2420
   2623  N1        20.9050  -20.1310   11.2240 N.ar  123  C123       -0.2535
   2624  C2        21.9310  -21.0130   10.8780 C.ar  123  C123        0.3532
   2625  O2        21.7210  -22.2290   10.9490 O.2   123  C123       -0.2443
   2626  N3        23.1240  -20.5190   10.4750 N.ar  123  C123       -0.1739
   2627  C4        23.3020  -19.1980   10.3910 C.ar  123  C123        0.1759
   2628  N4        24.4900  -18.7530    9.9760 N.pl3 123  C123       -0.1070
   2629  C5        22.2760  -18.2740   10.7470 C.ar  123  C123        0.0566
   2630  C6        21.1030  -18.7800   11.1550 C.ar  123  C123        0.0850
   2631  OP1       17.6220  -15.1730   13.7710 O.3   123  C123       -0.4373
   2632  OP2       19.9750  -15.4510   12.7190 O.co2 123  C123       -0.5172
   2633  P         19.6170  -20.3840   16.4400 P.3   124  C124        0.2141
   2634  C5'       20.0820  -22.9520   16.6770 C.3   124  C124        0.1812
   2635  O5'       20.6190  -21.6250   16.4560 O.3   124  C124       -0.3114
   2636  C4'       20.9690  -24.0300   16.0910 C.3   124  C124        0.1773
   2637  O4'       21.4090  -23.6780   14.7510 O.3   124  C124       -0.3307
   2638  C3'       22.2810  -24.2750   16.8130 C.3   124  C124        0.1860
   2639  O3'       22.1260  -24.9770   18.0300 O.3   124  C124       -0.3112
   2640  C2'       23.0850  -25.0380   15.7690 C.3   124  C124        0.2309
   2641  O2'       22.8840  -26.4340   15.7750 O.3   124  C124       -0.2156
   2642  C1'       22.6250  -24.3600   14.4720 C.3   124  C124        0.2420
   2643  N1        23.6180  -23.3930   13.9750 N.ar  124  C124       -0.2535
   2644  C2        24.8670  -23.8800   13.5920 C.ar  124  C124        0.3532
   2645  O2        25.0810  -25.0950   13.6700 O.2   124  C124       -0.2443
   2646  N3        25.8110  -23.0170   13.1550 N.ar  124  C124       -0.1739
   2647  C4        25.5390  -21.7140   13.0860 C.ar  124  C124        0.1759
   2648  N4        26.4920  -20.9050   12.6340 N.pl3 124  C124       -0.1070
   2649  C5        24.2800  -21.1830   13.4920 C.ar  124  C124        0.0566
   2650  C6        23.3610  -22.0500   13.9390 C.ar  124  C124        0.0850
   2651  OP1       18.6460  -20.4020   17.5550 O.3   124  C124       -0.4373
   2652  OP2       20.3040  -19.1190   16.1160 O.co2 124  C124       -0.5172
   2653  P         22.7880  -24.2530   19.2960 P.3   125  U125        0.2141
   2654  C5'       24.7280  -25.9470   19.3040 C.3   125  U125        0.1812
   2655  O5'       24.2950  -24.6350   18.9380 O.3   125  U125       -0.3114
   2656  C4'       26.0590  -26.3060   18.7100 C.3   125  U125        0.1773
   2657  O4'       26.2040  -25.7920   17.3620 O.3   125  U125       -0.3307
   2658  C3'       27.2840  -25.7470   19.4030 C.3   125  U125        0.1860
   2659  O3'       27.4850  -26.3300   20.6830 O.3   125  U125       -0.3112
   2660  C2'       28.3490  -26.0210   18.3470 C.3   125  U125        0.2309
   2661  O2'       28.6540  -27.3770   18.1010 O.3   125  U125       -0.2156
   2662  C1'       27.5930  -25.6390   17.0770 C.3   125  U125        0.2420
   2663  N1        27.8350  -24.2570   16.6350 N.ar  125  U125       -0.2534
   2664  C2        29.0430  -23.9640   16.0150 C.ar  125  U125        0.3546
   2665  O2        29.9260  -24.7940   15.8530 O.2   125  U125       -0.2443
   2666  N3        29.1670  -22.6680   15.5810 N.ar  125  U125       -0.1530
   2667  C4        28.2350  -21.6550   15.7020 C.ar  125  U125        0.2846
   2668  O4        28.5030  -20.5330   15.2820 O.2   125  U125       -0.2650
   2669  C5        27.0180  -22.0360   16.3540 C.ar  125  U125        0.0814
   2670  C6        26.8650  -23.2900   16.7920 C.ar  125  U125        0.0870
   2671  OP1       22.3520  -25.0020   20.5050 O.3   125  U125       -0.4373
   2672  OP2       22.5280  -22.7940   19.2570 O.co2 125  U125       -0.5172
   2673  P         27.9220  -25.3960   21.9220 P.3   126  U126        0.2141
   2674  C5'       30.3670  -26.0870   21.2620 C.3   126  U126        0.1812
   2675  O5'       29.3910  -25.0350   21.4150 O.3   126  U126       -0.3114
   2676  C4'       31.6410  -25.5790   20.6270 C.3   126  U126        0.1773
   2677  O4'       31.3740  -24.9580   19.3370 O.3   126  U126       -0.3307
   2678  C3'       32.3680  -24.4780   21.3740 C.3   126  U126        0.1860
   2679  O3'       32.9760  -24.9320   22.5750 O.3   126  U126       -0.3112
   2680  C2'       33.2930  -23.9380   20.2860 C.3   126  U126        0.2309
   2681  O2'       34.3810  -24.7870   19.9710 O.3   126  U126       -0.2156
   2682  C1'       32.3470  -23.9460   19.0860 C.3   126  U126        0.2420
   2683  N1        31.6380  -22.6810   18.8210 N.ar  126  U126       -0.2534
   2684  C2        32.2730  -21.7130   18.0550 C.ar  126  U126        0.3546
   2685  O2        33.4190  -21.8280   17.6510 O.2   126  U126       -0.2443
   2686  N3        31.5170  -20.5990   17.7970 N.ar  126  U126       -0.1530
   2687  C4        30.2310  -20.3430   18.2270 C.ar  126  U126        0.2846
   2688  O4        29.6930  -19.2780   17.9270 O.2   126  U126       -0.2650
   2689  C5        29.6470  -21.3840   19.0130 C.ar  126  U126        0.0814
   2690  C6        30.3460  -22.4980   19.2610 C.ar  126  U126        0.0870
   2691  OP1       28.0610  -26.3040   23.0830 O.3   126  U126       -0.4373
   2692  OP2       27.0550  -24.1960   22.0710 O.co2 126  U126       -0.5172
   2693  P         33.2940  -23.7270   23.5730 P.3   127  C127        0.2141
   2694  C5'       35.4390  -22.3120   23.3710 C.3   127  C127        0.1812
   2695  O5'       34.7080  -23.4310   22.9160 O.3   127  C127       -0.3114
   2696  C4'       36.4370  -21.8800   22.3420 C.3   127  C127        0.1773
   2697  O4'       35.8020  -21.7340   21.0400 O.3   127  C127       -0.3307
   2698  C3'       36.9730  -20.5070   22.6730 C.3   127  C127        0.1860
   2699  O3'       37.9730  -20.6930   23.6490 O.3   127  C127       -0.3112
   2700  C2'       37.3520  -19.9480   21.3110 C.3   127  C127        0.2309
   2701  O2'       38.6740  -20.1620   20.8770 O.3   127  C127       -0.2156
   2702  C1'       36.2580  -20.5420   20.4250 C.3   127  C127        0.2420
   2703  N1        35.1210  -19.6330   20.2870 N.ar  127  C127       -0.2535
   2704  C2        35.3320  -18.3970   19.6730 C.ar  127  C127        0.3532
   2705  O2        36.4670  -18.1220   19.2580 O.2   127  C127       -0.2443
   2706  N3        34.2920  -17.5430   19.5310 N.ar  127  C127       -0.1739
   2707  C4        33.0830  -17.8850   19.9810 C.ar  127  C127        0.1759
   2708  N4        32.0840  -17.0230   19.8020 N.pl3 127  C127       -0.1070
   2709  C5        32.8430  -19.1320   20.6280 C.ar  127  C127        0.0566
   2710  C6        33.8820  -19.9690   20.7580 C.ar  127  C127        0.0850
   2711  OP1       33.5280  -24.2790   24.9350 O.3   127  C127       -0.4373
   2712  OP2       32.4180  -22.5350   23.3790 O.co2 127  C127       -0.5172
   2713  P         37.7620  -19.6590   24.8310 P.3   128  G128        0.2141
   2714  C5'       37.6900  -17.0420   24.4940 C.3   128  G128        0.1812
   2715  O5'       37.7670  -18.3500   23.9200 O.3   128  G128       -0.3114
   2716  C4'       38.3840  -16.0240   23.6170 C.3   128  G128        0.1773
   2717  O4'       37.7590  -15.9640   22.2980 O.3   128  G128       -0.3307
   2718  C3'       38.2890  -14.6040   24.1490 C.3   128  G128        0.1860
   2719  O3'       39.3680  -14.3860   25.0380 O.3   128  G128       -0.3112
   2720  C2'       38.4570  -13.7780   22.8900 C.3   128  G128        0.2309
   2721  O2'       39.8100  -13.6960   22.5130 O.3   128  G128       -0.2156
   2722  C1'       37.6720  -14.6080   21.8750 C.3   128  G128        0.2408
   2723  N1        34.4250  -10.9220   20.5680 N.ar  128  G128       -0.1709
   2724  C2        35.7970  -10.9340   20.5300 C.ar  128  G128        0.2606
   2725  N2        36.3830   -9.8260   20.0570 N.pl3 128  G128       -0.0859
   2726  N3        36.5400  -11.9640   20.9040 N.ar  128  G128       -0.1918
   2727  C4        35.7890  -13.0080   21.3130 C.ar  128  G128        0.1723
   2728  C5        34.4160  -13.0970   21.4010 C.ar  128  G128        0.1748
   2729  C6        33.6290  -11.9740   21.0060 C.ar  128  G128        0.3023
   2730  O6        32.3970  -11.8530   21.0070 O.2   128  G128       -0.2633
   2731  N7        34.0340  -14.3330   21.9060 N.ar  128  G128       -0.2173
   2732  C8        35.1600  -14.9610   22.1110 C.ar  128  G128        0.1817
   2733  N9        36.2650  -14.2140   21.7790 N.ar  128  G128       -0.2693
   2734  OP1       39.0070  -19.7220   25.6620 O.3   128  G128       -0.4373
   2735  OP2       36.4290  -19.8130   25.4870 O.co2 128  G128       -0.5172
   2736  P         39.0070  -13.7250   26.4550 P.3   129  G129        0.2141
   2737  C5'       39.6480  -11.3430   25.5120 C.3   129  G129        0.1812
   2738  O5'       38.6590  -12.2260   26.0310 O.3   129  G129       -0.3114
   2739  C4'       38.9510  -10.1640   24.9040 C.3   129  G129        0.1773
   2740  O4'       37.9770  -10.6290   23.9440 O.3   129  G129       -0.3307
   2741  C3'       38.0890   -9.3190   25.8220 C.3   129  G129        0.1860
   2742  O3'       38.8340   -8.3140   26.4880 O.3   129  G129       -0.3112
   2743  C2'       37.2970   -8.5490   24.7890 C.3   129  G129        0.2309
   2744  O2'       38.2740   -7.7400   24.1650 O.3   129  G129       -0.2156
   2745  C1'       36.9580   -9.6610   23.8000 C.3   129  G129        0.2408
   2746  N1        31.8980   -9.3020   23.5280 N.ar  129  G129       -0.1709
   2747  C2        32.8530   -8.3980   23.1480 C.ar  129  G129        0.2606
   2748  N2        32.3970   -7.2700   22.5940 N.pl3 129  G129       -0.0859
   2749  N3        34.1560   -8.6040   23.2630 N.ar  129  G129       -0.1918
   2750  C4        34.4290   -9.8020   23.8120 C.ar  129  G129        0.1723
   2751  C5        33.5470  -10.7720   24.2390 C.ar  129  G129        0.1748
   2752  C6        32.1520  -10.5410   24.0980 C.ar  129  G129        0.3023
   2753  O6        31.2090  -11.2740   24.4150 O.2   129  G129       -0.2633
   2754  N7        34.2290  -11.8590   24.7630 N.ar  129  G129       -0.2173
   2755  C8        35.4900  -11.5420   24.6380 C.ar  129  G129        0.1817
   2756  N9        35.6800  -10.3100   24.0630 N.ar  129  G129       -0.2693
   2757  OP1       40.1750  -13.7240   27.3900 O.3   129  G129       -0.4373
   2758  OP2       37.6980  -14.3010   26.8830 O.co2 129  G129       -0.5172
   2759  P         38.5270   -7.9590   27.9800 P.3   130  U130        0.2141
   2760  C5'       37.5370   -5.6320   27.3420 C.3   130  U130        0.1812
   2761  O5'       37.3130   -6.9450   27.8410 O.3   130  U130       -0.3114
   2762  C4'       36.2040   -5.0450   26.9900 C.3   130  U130        0.1773
   2763  O4'       35.5520   -5.8880   25.9990 O.3   130  U130       -0.3307
   2764  C3'       35.1620   -4.9640   28.0950 C.3   130  U130        0.1860
   2765  O3'       35.2660   -3.7840   28.8670 O.3   130  U130       -0.3112
   2766  C2'       33.9010   -4.7800   27.2670 C.3   130  U130        0.2309
   2767  O2'       33.8740   -3.4790   26.7160 O.3   130  U130       -0.2156
   2768  C1'       34.1440   -5.7850   26.1420 C.3   130  U130        0.2420
   2769  N1        33.6210   -7.1040   26.5040 N.ar  130  U130       -0.2534
   2770  C2        32.2500   -7.2490   26.5310 C.ar  130  U130        0.3546
   2771  O2        31.4900   -6.3540   26.2300 O.2   130  U130       -0.2443
   2772  N3        31.8070   -8.4920   26.9050 N.ar  130  U130       -0.1530
   2773  C4        32.5760   -9.5790   27.2600 C.ar  130  U130        0.2846
   2774  O4        32.0260  -10.6320   27.5710 O.2   130  U130       -0.2650
   2775  C5        33.9890   -9.3420   27.2370 C.ar  130  U130        0.0814
   2776  C6        34.4520   -8.1370   26.8810 C.ar  130  U130        0.0870
   2777  OP1       39.7780   -7.3050   28.4600 O.2   130  U130       -0.5172
   2778  OP2       38.0260   -9.1830   28.6410 O.co2 130  U130       -0.4373
   2779  P         35.0290   -3.8050   30.4360 P.3   131  C131        0.2141
   2780  C5'       32.8710   -2.4390   29.7650 C.3   131  C131        0.1812
   2781  O5'       33.4770   -3.4570   30.5610 O.3   131  C131       -0.3114
   2782  C4'       31.3770   -2.6170   29.7590 C.3   131  C131        0.1773
   2783  O4'       30.9950   -3.6780   28.8420 O.3   131  C131       -0.3307
   2784  C3'       30.7620   -3.0170   31.0850 C.3   131  C131        0.1860
   2785  O3'       30.5990   -1.8130   31.8080 O.3   131  C131       -0.3112
   2786  C2'       29.4550   -3.6690   30.6420 C.3   131  C131        0.2309
   2787  O2'       28.3460   -2.8600   30.2710 O.3   131  C131       -0.2156
   2788  C1'       29.9140   -4.4110   29.3920 C.3   131  C131        0.2420
   2789  N1        30.3680   -5.7700   29.6950 N.ar  131  C131       -0.2535
   2790  C2        29.3990   -6.7600   29.8290 C.ar  131  C131        0.3532
   2791  O2        28.2110   -6.4460   29.6980 O.2   131  C131       -0.2443
   2792  N3        29.7790   -8.0340   30.0900 N.ar  131  C131       -0.1739
   2793  C4        31.0750   -8.3280   30.2190 C.ar  131  C131        0.1759
   2794  N4        31.4070   -9.5960   30.4750 N.pl3 131  C131       -0.1070
   2795  C5        32.0890   -7.3290   30.0970 C.ar  131  C131        0.0566
   2796  C6        31.6930   -6.0740   29.8460 C.ar  131  C131        0.0850
   2797  OP1       35.9330   -2.7000   30.9030 O.2   131  C131       -0.5172
   2798  OP2       35.1460   -5.1700   31.0440 O.co2 131  C131       -0.4373
   2799  P         30.2230   -1.8570   33.3460 P.3   132  U132        0.2141
   2800  C5'       27.6090   -2.0290   33.0770 C.3   132  U132        0.1812
   2801  O5'       28.8600   -2.6930   33.3110 O.3   132  U132       -0.3114
   2802  C4'       26.4390   -2.9560   33.2910 C.3   132  U132        0.1773
   2803  O4'       26.6080   -4.1550   32.4950 O.3   132  U132       -0.3307
   2804  C3'       26.2550   -3.4830   34.7000 C.3   132  U132        0.1860
   2805  O3'       25.4990   -2.6090   35.5070 O.3   132  U132       -0.3112
   2806  C2'       25.4240   -4.7360   34.4640 C.3   132  U132        0.2309
   2807  O2'       24.0550   -4.4910   34.2110 O.3   132  U132       -0.2156
   2808  C1'       26.0410   -5.2690   33.1780 C.3   132  U132        0.2420
   2809  N1        27.0780   -6.2920   33.3930 N.ar  132  U132       -0.2534
   2810  C2        26.6590   -7.5520   33.7810 C.ar  132  U132        0.3546
   2811  O2        25.4870   -7.8320   33.9740 O.2   132  U132       -0.2443
   2812  N3        27.6650   -8.4730   33.9320 N.ar  132  U132       -0.1530
   2813  C4        29.0180   -8.2760   33.7380 C.ar  132  U132        0.2846
   2814  O4        29.8020   -9.2160   33.9150 O.2   132  U132       -0.2650
   2815  C5        29.3730   -6.9460   33.3410 C.ar  132  U132        0.0814
   2816  C6        28.4150   -6.0230   33.1880 C.ar  132  U132        0.0870
   2817  OP1       29.9680   -0.4430   33.7570 O.2   132  U132       -0.5172
   2818  OP2       31.3060   -2.5930   34.0320 O.co2 132  U132       -0.4373
   2819  P         25.8350   -2.5850   37.0660 P.3   133  G133        0.2141
   2820  C5'       23.7430   -4.1600   37.4000 C.3   133  G133        0.1812
   2821  O5'       25.1210   -3.8610   37.7010 O.3   133  G133       -0.3114
   2822  C4'       23.3200   -5.4410   38.0750 C.3   133  G133        0.1773
   2823  O4'       23.6550   -6.5750   37.2280 O.3   133  G133       -0.3307
   2824  C3'       24.0030   -5.7610   39.3920 C.3   133  G133        0.1860
   2825  O3'       23.3510   -5.1260   40.4810 O.3   133  G133       -0.3112
   2826  C2'       23.7730   -7.2560   39.4850 C.3   133  G133        0.2309
   2827  O2'       22.4220   -7.4860   39.8120 O.3   133  G133       -0.2156
   2828  C1'       24.0070   -7.6840   38.0370 C.3   133  G133        0.2408
   2829  N1        27.4330  -11.4320   37.7510 N.ar  133  G133       -0.1709
   2830  C2        26.0920  -11.4980   38.0460 C.ar  133  G133        0.2606
   2831  N2        25.6000  -12.7210   38.2900 N.pl3 133  G133       -0.0859
   2832  N3        25.2910  -10.4440   38.0900 N.ar  133  G133       -0.1918
   2833  C4        25.9500   -9.2970   37.8120 C.ar  133  G133        0.1723
   2834  C5        27.2840   -9.1240   37.5060 C.ar  133  G133        0.1748
   2835  C6        28.1330  -10.2650   37.4630 C.ar  133  G133        0.3023
   2836  O6        29.3450  -10.3180   37.2160 O.2   133  G133       -0.2633
   2837  N7        27.5680   -7.7830   37.2820 N.ar  133  G133       -0.2173
   2838  C8        26.4240   -7.1770   37.4550 C.ar  133  G133        0.1817
   2839  N9        25.3980   -8.0380   37.7660 N.ar  133  G133       -0.2693
   2840  OP1       25.1690   -1.3390   37.5870 O.3   133  G133       -0.4373
   2841  OP2       27.3100   -2.7650   37.2240 O.co2 133  G133       -0.5172
   2842  P         24.2260   -4.4000   41.6220 P.3   134  A134        0.2141
   2843  C5'       25.3210   -1.9980   41.5900 C.3   134  A134        0.1812
   2844  O5'       24.6230   -3.0400   40.9040 O.3   134  A134       -0.3114
   2845  C4'       24.7720   -0.7000   41.0830 C.3   134  A134        0.1773
   2846  O4'       23.3570   -0.6430   41.4090 O.3   134  A134       -0.3307
   2847  C3'       25.3920    0.5540   41.6860 C.3   134  A134        0.1860
   2848  O3'       26.5310    0.9640   40.9150 O.3   134  A134       -0.3112
   2849  C2'       24.2520    1.5550   41.5920 C.3   134  A134        0.2309
   2850  O2'       24.2390    2.0080   40.2530 O.3   134  A134       -0.2156
   2851  C1'       23.0190    0.6680   41.7980 C.3   134  A134        0.2408
   2852  N1        20.5320    3.3290   45.4260 N.ar  134  A134       -0.2040
   2853  C2        21.0430    3.6810   44.2380 C.ar  134  A134        0.2016
   2854  N3        21.6980    2.9400   43.3490 N.ar  134  A134       -0.2048
   2855  C4        21.8010    1.6710   43.7770 C.ar  134  A134        0.1692
   2856  C5        21.3330    1.1590   44.9760 C.ar  134  A134        0.1518
   2857  C6        20.6760    2.0520   45.8380 C.ar  134  A134        0.1919
   2858  N6        20.1820    1.7100   47.0250 N.pl3 134  A134       -0.1054
   2859  N7        21.6420   -0.1890   45.0880 N.ar  134  A134       -0.2193
   2860  C8        22.2760   -0.4600   43.9700 C.ar  134  A134        0.1816
   2861  N9        22.4250    0.6250   43.1390 N.ar  134  A134       -0.2693
   2862  OP1       25.5410   -5.0640   41.8510 O.2   134  A134       -0.5172
   2863  OP2       23.3470   -4.0510   42.7610 O.co2 134  A134       -0.4373
   2864  P         27.8660    1.3280   41.7150 P.3   135  G135        0.2141
   2865  C5'       27.0430    3.7860   42.0570 C.3   135  G135        0.1812
   2866  O5'       27.3750    2.5140   42.6550 O.3   135  G135       -0.3114
   2867  C4'       26.2790    4.6450   43.0190 C.3   135  G135        0.1773
   2868  O4'       25.0110    4.0070   43.3300 O.3   135  G135       -0.3307
   2869  C3'       26.9580    4.8460   44.3580 C.3   135  G135        0.1860
   2870  O3'       27.8260    5.9580   44.2190 O.3   135  G135       -0.3112
   2871  C2'       25.7770    5.1350   45.2680 C.3   135  G135        0.2309
   2872  O2'       25.3340    6.4520   45.0770 O.3   135  G135       -0.2156
   2873  C1'       24.7010    4.2110   44.6960 C.3   135  G135        0.2408
   2874  N1        23.1390    1.6660   48.7970 N.ar  135  G135       -0.1709
   2875  C2        22.9550    2.9870   48.4680 C.ar  135  G135        0.2606
   2876  N2        22.2660    3.7300   49.3460 N.pl3 135  G135       -0.0859
   2877  N3        23.4180    3.5410   47.3610 N.ar  135  G135       -0.1918
   2878  C4        24.0720    2.6510   46.5850 C.ar  135  G135        0.1723
   2879  C5        24.3150    1.3150   46.8240 C.ar  135  G135        0.1748
   2880  C6        23.8230    0.7350   48.0220 C.ar  135  G135        0.3023
   2881  O6        23.9250   -0.4350   48.4120 O.2   135  G135       -0.2633
   2882  N7        25.0370    0.7520   45.7810 N.ar  135  G135       -0.2173
   2883  C8        25.2160    1.7370   44.9430 C.ar  135  G135        0.1817
   2884  N9        24.6530    2.9160   45.3670 N.ar  135  G135       -0.2693
   2885  OP1       28.9250    2.0390   40.9720 O.2   135  G135       -0.5172
   2886  OP2       28.2020    0.1420   42.5420 O.co2 135  G135       -0.4373
   2887  P         29.4200    5.9360   44.3890 P.3   136  G136        0.2141
   2888  C5'       28.6230    6.5770   46.8430 C.3   136  G136        0.1812
   2889  O5'       29.5820    5.9320   45.9750 O.3   136  G136       -0.3114
   2890  C4'       28.7930    6.1260   48.2830 C.3   136  G136        0.1773
   2891  O4'       27.7360    5.1930   48.6490 O.3   136  G136       -0.3307
   2892  C3'       30.0900    5.4150   48.6280 C.3   136  G136        0.1860
   2893  O3'       31.0200    6.4020   49.0320 O.3   136  G136       -0.3112
   2894  C2'       29.6820    4.5750   49.8240 C.3   136  G136        0.2309
   2895  O2'       29.5490    5.4240   50.9410 O.3   136  G136       -0.2156
   2896  C1'       28.2700    4.1410   49.4270 C.3   136  G136        0.2408
   2897  N1        26.8200   -0.7410   49.3830 N.ar  136  G136       -0.1709
   2898  C2        26.7020    0.1940   50.3820 C.ar  136  G136        0.2606
   2899  N2        26.1240   -0.2240   51.5160 N.pl3 136  G136       -0.0859
   2900  N3        27.1140    1.4490   50.2760 N.ar  136  G136       -0.1918
   2901  C4        27.6580    1.7030   49.0660 C.ar  136  G136        0.1723
   2902  C5        27.8210    0.8440   48.0000 C.ar  136  G136        0.1748
   2903  C6        27.3730   -0.5040   48.1290 C.ar  136  G136        0.3023
   2904  O6        27.4290   -1.4200   47.3010 O.2   136  G136       -0.2633
   2905  N7        28.4450    1.4880   46.9410 N.ar  136  G136       -0.2173
   2906  C8        28.6390    2.7050   47.3700 C.ar  136  G136        0.1817
   2907  N9        28.1960    2.9010   48.6540 N.ar  136  G136       -0.2693
   2908  OP1       30.0390    7.2380   44.0520 O.3   136  G136       -0.4373
   2909  OP2       30.0090    4.6880   43.8120 O.co2 136  G136       -0.5172
   2910  P         32.5420    6.3300   48.5960 P.3   137  A137        0.2141
   2911  C5'       34.3290    4.6740   49.5200 C.3   137  A137        0.1812
   2912  O5'       32.9650    5.1010   49.5140 O.3   137  A137       -0.3114
   2913  C4'       34.6250    3.8230   50.7220 C.3   137  A137        0.1773
   2914  O4'       36.0650    3.6860   50.7860 O.3   137  A137       -0.3307
   2915  C3'       34.2550    4.4100   52.0860 C.3   137  A137        0.1860
   2916  O3'       32.8810    4.3660   52.5150 O.3   137  A137       -0.3112
   2917  C2'       35.2260    3.6930   53.0180 C.3   137  A137        0.2309
   2918  O2'       34.8380    2.3850   53.3950 O.3   137  A137       -0.2156
   2919  C1'       36.4700    3.5590   52.1360 C.3   137  A137        0.2408
   2920  N1        38.7180    8.0180   50.8060 N.ar  137  A137       -0.2040
   2921  C2        37.6810    7.3480   50.2810 C.ar  137  A137        0.2016
   2922  N3        37.1380    6.1970   50.6710 N.ar  137  A137       -0.2048
   2923  C4        37.7840    5.7100   51.7460 C.ar  137  A137        0.1692
   2924  C5        38.8700    6.2780   52.3900 C.ar  137  A137        0.1518
   2925  C6        39.3480    7.4970   51.8830 C.ar  137  A137        0.1919
   2926  N6        40.3890    8.1570   52.3980 N.pl3 137  A137       -0.1054
   2927  N7        39.2840    5.4840   53.4510 N.ar  137  A137       -0.2193
   2928  C8        38.4520    4.4720   53.4280 C.ar  137  A137        0.1816
   2929  N9        37.5210    4.5410   52.4190 N.ar  137  A137       -0.2693
   2930  OP1       33.2720    7.5240   49.0910 O.3   137  A137       -0.4373
   2931  OP2       32.6440    5.9620   47.1530 O.co2 137  A137       -0.5172
   2932  P         31.9010    3.1500   52.9800 P.3   138  A138        0.2141
   2933  C5'       31.0580    1.0910   51.5250 C.3   138  A138        0.1812
   2934  O5'       31.9910    2.1780   51.7140 O.3   138  A138       -0.3114
   2935  C4'       31.0530    0.6110   50.0900 C.3   138  A138        0.1773
   2936  O4'       32.0540    1.3240   49.3250 O.3   138  A138       -0.3307
   2937  C3'       31.4200   -0.8520   49.8480 C.3   138  A138        0.1860
   2938  O3'       30.3360   -1.7460   50.0810 O.3   138  A138       -0.3112
   2939  C2'       31.7970   -0.8490   48.3700 C.3   138  A138        0.2309
   2940  O2'       30.6760   -0.9660   47.5060 O.3   138  A138       -0.2156
   2941  C1'       32.4490    0.5300   48.2190 C.3   138  A138        0.2408
   2942  N1        36.6810    2.7940   46.3840 N.ar  138  A138       -0.2040
   2943  C2        35.3770    3.0320   46.1890 C.ar  138  A138        0.2016
   2944  N3        34.3200    2.3970   46.6940 N.ar  138  A138       -0.2048
   2945  C4        34.7100    1.3930   47.4990 C.ar  138  A138        0.1692
   2946  C5        36.0090    1.0240   47.7920 C.ar  138  A138        0.1518
   2947  C6        37.0370    1.7780   47.1980 C.ar  138  A138        0.1919
   2948  N6        38.3350    1.5360   47.3850 N.pl3 138  A138       -0.1054
   2949  N7        36.0270   -0.0620   48.6540 N.ar  138  A138       -0.2193
   2950  C8        34.7590   -0.3210   48.8610 C.ar  138  A138        0.1816
   2951  N9        33.9080    0.5140   48.1850 N.ar  138  A138       -0.2693
   2952  OP1       30.5460    3.7340   53.0790 O.2   138  A138       -0.5172
   2953  OP2       32.4340    2.4670   54.1840 O.co2 138  A138       -0.4373
   2954  P         30.5550   -3.1220   50.8890 P.3   139  C139        0.2141
   2955  C5'       29.1310   -2.3980   52.9560 C.3   139  C139        0.1812
   2956  O5'       30.4220   -2.7370   52.4290 O.3   139  C139       -0.3114
   2957  C4'       29.2280   -1.9510   54.3910 C.3   139  C139        0.1773
   2958  O4'       29.9260   -0.6770   54.4760 O.3   139  C139       -0.3307
   2959  C3'       27.8870   -1.6610   55.0360 C.3   139  C139        0.1860
   2960  O3'       27.1780   -2.8720   55.3110 O.3   139  C139       -0.3112
   2961  C2'       28.2960   -0.7570   56.1990 C.3   139  C139        0.2309
   2962  O2'       28.8960   -1.3230   57.3390 O.3   139  C139       -0.2156
   2963  C1'       29.3910    0.0870   55.5470 C.3   139  C139        0.2420
   2964  N1        28.8340    1.3460   55.0230 N.ar  139  C139       -0.2535
   2965  C2        28.5060    2.3480   55.9380 C.ar  139  C139        0.3532
   2966  O2        28.7440    2.1630   57.1390 O.2   139  C139       -0.2443
   2967  N3        27.9520    3.4980   55.4920 N.ar  139  C139       -0.1739
   2968  C4        27.7070    3.6570   54.1900 C.ar  139  C139        0.1759
   2969  N4        27.1560    4.8060   53.7970 N.pl3 139  C139       -0.1070
   2970  C5        28.0170    2.6450   53.2350 C.ar  139  C139        0.0566
   2971  C6        28.5620    1.5100   53.6930 C.ar  139  C139        0.0850
   2972  OP1       31.9350   -3.6240   50.6580 O.3   139  C139       -0.4373
   2973  OP2       29.3910   -3.9910   50.5720 O.co2 139  C139       -0.5172
   2974  P         25.5860   -3.0230   55.0920 P.3   140  A140        0.2141
   2975  C5'       24.8630   -1.9130   57.4030 C.3   140  A140        0.1812
   2976  O5'       24.9570   -1.8500   55.9690 O.3   140  A140       -0.3114
   2977  C4'       24.4360   -0.5690   57.9500 C.3   140  A140        0.1773
   2978  O4'       25.3590    0.4540   57.4770 O.3   140  A140       -0.3307
   2979  C3'       23.0540   -0.0840   57.5090 C.3   140  A140        0.1860
   2980  O3'       21.9830   -0.5960   58.3010 O.3   140  A140       -0.3112
   2981  C2'       23.2030    1.4350   57.5760 C.3   140  A140        0.2309
   2982  O2'       23.1000    2.0460   58.8460 O.3   140  A140       -0.2156
   2983  C1'       24.6390    1.6180   57.0890 C.3   140  A140        0.2408
   2984  N1        23.6770    4.6250   53.0100 N.ar  140  A140       -0.2040
   2985  C2        23.4320    4.7820   54.3170 C.ar  140  A140        0.2016
   2986  N3        23.7040    3.9630   55.3300 N.ar  140  A140       -0.2048
   2987  C4        24.3120    2.8480   54.8880 C.ar  140  A140        0.1692
   2988  C5        24.6240    2.5410   53.5760 C.ar  140  A140        0.1518
   2989  C6        24.2810    3.4890   52.5990 C.ar  140  A140        0.1919
   2990  N6        24.5320    3.3330   51.2990 N.pl3 140  A140       -0.1054
   2991  N7        25.2460    1.3050   53.4960 N.ar  140  A140       -0.2193
   2992  C8        25.2940    0.8950   54.7400 C.ar  140  A140        0.1816
   2993  N9        24.7430    1.7770   55.6360 N.ar  140  A140       -0.2693
   2994  OP1       25.1910   -4.2880   55.7440 O.3   140  A140       -0.4373
   2995  OP2       25.2380   -2.8040   53.6640 O.co2 140  A140       -0.5172
   2996  P         20.7560   -1.3980   57.6260 P.3   141  C141        0.2141
   2997  C5'       19.5490    0.9410   57.4220 C.3   141  C141        0.1812
   2998  O5'       19.9390   -0.3000   56.8150 O.3   141  C141       -0.3114
   2999  C4'       19.2330    1.9580   56.3500 C.3   141  C141        0.1773
   3000  O4'       20.4640    2.3750   55.6870 O.3   141  C141       -0.3307
   3001  C3'       18.3590    1.4680   55.2050 C.3   141  C141        0.1860
   3002  O3'       16.9540    1.4670   55.4730 O.3   141  C141       -0.3112
   3003  C2'       18.6950    2.4830   54.1270 C.3   141  C141        0.2309
   3004  O2'       18.0560    3.7000   54.4500 O.3   141  C141       -0.2156
   3005  C1'       20.2060    2.6200   54.3110 C.3   141  C141        0.2420
   3006  N1        20.9800    1.6570   53.5040 N.ar  141  C141       -0.2535
   3007  C2        20.9620    1.7700   52.1060 C.ar  141  C141        0.3532
   3008  O2        20.2940    2.6730   51.5830 O.2   141  C141       -0.2443
   3009  N3        21.6580    0.8840   51.3620 N.ar  141  C141       -0.1739
   3010  C4        22.3630   -0.0780   51.9580 C.ar  141  C141        0.1759
   3011  N4        23.0420   -0.9260   51.1810 N.pl3 141  C141       -0.1070
   3012  C5        22.4020   -0.2140   53.3770 C.ar  141  C141        0.0566
   3013  C6        21.7040    0.6670   54.1040 C.ar  141  C141        0.0850
   3014  OP1       19.7890   -1.8280   58.6760 O.3   141  C141       -0.4373
   3015  OP2       21.2900   -2.3780   56.6310 O.co2 141  C141       -0.5172
   3016  P         16.0110    0.3750   54.7320 P.3   142  G142        0.2141
   3017  C5'       16.1850    1.6010   52.3650 C.3   142  G142        0.1812
   3018  O5'       16.4520    0.4540   53.2000 O.3   142  G142       -0.3114
   3019  C4'       16.4560    1.2330   50.9300 C.3   142  G142        0.1773
   3020  O4'       17.8720    0.9560   50.7680 O.3   142  G142       -0.3307
   3021  C3'       15.7660   -0.0390   50.4720 C.3   142  G142        0.1860
   3022  O3'       14.4830    0.2600   49.9460 O.3   142  G142       -0.3112
   3023  C2'       16.6650   -0.5210   49.3420 C.3   142  G142        0.2309
   3024  O2'       16.3200    0.0850   48.1160 O.3   142  G142       -0.2156
   3025  C1'       18.0510   -0.0700   49.8100 C.3   142  G142        0.2408
   3026  N1        21.5780   -3.6670   49.1330 N.ar  142  G142       -0.1709
   3027  C2        21.1230   -2.7180   48.2500 C.ar  142  G142        0.2606
   3028  N2        21.6750   -2.7330   47.0270 N.pl3 142  G142       -0.0859
   3029  N3        20.1960   -1.8200   48.5440 N.ar  142  G142       -0.1918
   3030  C4        19.7530   -1.9470   49.8120 C.ar  142  G142        0.1723
   3031  C5        20.1460   -2.8540   50.7730 C.ar  142  G142        0.1748
   3032  C6        21.1430   -3.8100   50.4470 C.ar  142  G142        0.3023
   3033  O6        21.6310   -4.6920   51.1650 O.2   142  G142       -0.2633
   3034  N7        19.4460   -2.6530   51.9560 N.ar  142  G142       -0.2173
   3035  C8        18.6590   -1.6440   51.6980 C.ar  142  G142        0.1817
   3036  N9        18.8040   -1.1600   50.4210 N.ar  142  G142       -0.2693
   3037  OP1       14.5920    0.8190   54.8290 O.2   142  G142       -0.5172
   3038  OP2       16.4020   -0.9680   55.2540 O.co2 142  G142       -0.4373
   3039  P         13.3740   -0.8840   49.7910 P.3   143  A143        0.2141
   3040  C5'       12.7720   -2.9820   48.3310 C.3   143  A143        0.1812
   3041  O5'       13.5490   -1.7780   48.4850 O.3   143  A143       -0.3114
   3042  C4'       13.1680   -3.7460   47.0850 C.3   143  A143        0.1773
   3043  O4'       12.6150   -3.0870   45.9110 O.3   143  A143       -0.3307
   3044  C3'       14.6620   -3.8680   46.8090 C.3   143  A143        0.1860
   3045  O3'       15.2130   -5.0050   47.4490 O.3   143  A143       -0.3112
   3046  C2'       14.7120   -4.0130   45.2870 C.3   143  A143        0.2309
   3047  O2'       14.5640   -5.3110   44.7410 O.3   143  A143       -0.2156
   3048  C1'       13.5610   -3.1040   44.8510 C.3   143  A143        0.2408
   3049  N1        15.8440    0.0160   41.4510 N.ar  143  A143       -0.2040
   3050  C2        15.5960   -1.2960   41.4390 C.ar  143  A143        0.2016
   3051  N3        15.0010   -2.0480   42.3610 N.ar  143  A143       -0.2048
   3052  C4        14.6130   -1.2990   43.4080 C.ar  143  A143        0.1692
   3053  C5        14.7880    0.0640   43.5590 C.ar  143  A143        0.1518
   3054  C6        15.4310    0.7430   42.5120 C.ar  143  A143        0.1919
   3055  N6        15.6690    2.0560   42.5190 N.pl3 143  A143       -0.1054
   3056  N7        14.2740    0.4930   44.7740 N.ar  143  A143       -0.2193
   3057  C8        13.7960   -0.6000   45.3170 C.ar  143  A143        0.1816
   3058  N9        13.9660   -1.7230   44.5450 N.ar  143  A143       -0.2693
   3059  OP1       12.0780   -0.1650   49.7050 O.2   143  A143       -0.5172
   3060  OP2       13.6090   -1.8120   50.9210 O.co2 143  A143       -0.4373
   3061  P         16.6830   -4.9110   48.0620 P.3   144  A144        0.2141
   3062  C5'       18.3820   -5.7890   46.2020 C.3   144  A144        0.1812
   3063  O5'       17.6780   -4.7000   46.8360 O.3   144  A144       -0.3114
   3064  C4'       19.1120   -5.2850   44.9720 C.3   144  A144        0.1773
   3065  O4'       18.1990   -4.4640   44.1840 O.3   144  A144       -0.3307
   3066  C3'       20.3180   -4.3750   45.2210 C.3   144  A144        0.1860
   3067  O3'       21.6010   -4.9960   45.3530 O.3   144  A144       -0.3112
   3068  C2'       20.3740   -3.5700   43.9320 C.3   144  A144        0.2309
   3069  O2'       20.9060   -4.2810   42.8330 O.3   144  A144       -0.2156
   3070  C1'       18.8910   -3.3470   43.6550 C.3   144  A144        0.2408
   3071  N1        18.4480    1.7700   43.3280 N.ar  144  A144       -0.2040
   3072  C2        18.9800    0.8610   42.5000 C.ar  144  A144        0.2016
   3073  N3        19.0570   -0.4600   42.6380 N.ar  144  A144       -0.2048
   3074  C4        18.4910   -0.8490   43.7950 C.ar  144  A144        0.1692
   3075  C5        17.8960   -0.0340   44.7410 C.ar  144  A144        0.1518
   3076  C6        17.8750    1.3430   44.4750 C.ar  144  A144        0.1919
   3077  N6        17.3160    2.2440   45.2860 N.pl3 144  A144       -0.1054
   3078  N7        17.4130   -0.7840   45.8010 N.ar  144  A144       -0.2193
   3079  C8        17.7390   -2.0140   45.4890 C.ar  144  A144        0.1816
   3080  N9        18.3830   -2.1290   44.2860 N.ar  144  A144       -0.2693
   3081  OP1       17.0310   -6.2520   48.5880 O.2   144  A144       -0.5172
   3082  OP2       16.7030   -3.7040   48.9490 O.co2 144  A144       -0.4373
   3083  P         22.1150   -6.1090   46.4020 P.3   145  C145        0.2141
   3084  C5'       22.7840   -7.5710   44.3020 C.3   145  C145        0.1812
   3085  O5'       21.8700   -7.3160   45.3910 O.3   145  C145       -0.3114
   3086  C4'       23.0250   -9.0580   44.1960 C.3   145  C145        0.1773
   3087  O4'       23.5010   -9.4040   42.8710 O.3   145  C145       -0.3307
   3088  C3'       24.0820   -9.6460   45.1190 C.3   145  C145        0.1860
   3089  O3'       23.5640   -9.8200   46.4410 O.3   145  C145       -0.3112
   3090  C2'       24.4030  -10.9630   44.4190 C.3   145  C145        0.2309
   3091  O2'       23.3910  -11.9210   44.6340 O.3   145  C145       -0.2156
   3092  C1'       24.3030  -10.5690   42.9450 C.3   145  C145        0.2420
   3093  N1        25.5910  -10.2850   42.2930 N.ar  145  C145       -0.2535
   3094  C2        26.4250  -11.3520   41.9400 C.ar  145  C145        0.3532
   3095  O2        26.0680  -12.5100   42.2110 O.2   145  C145       -0.2443
   3096  N3        27.6030  -11.0940   41.3220 N.ar  145  C145       -0.1739
   3097  C4        27.9500   -9.8340   41.0460 C.ar  145  C145        0.1759
   3098  N4        29.1150   -9.6270   40.4310 N.pl3 145  C145       -0.1070
   3099  C5        27.1200   -8.7300   41.3960 C.ar  145  C145        0.0566
   3100  C6        25.9570   -8.9990   42.0060 C.ar  145  C145        0.0850
   3101  OP1       21.2160   -6.1420   47.5860 O.3   145  C145       -0.4373
   3102  OP2       23.5780   -5.9380   46.6080 O.co2 145  C145       -0.5172
   3103  P         24.5360  -10.2140   47.6470 P.3   146  U146        0.2141
   3104  C5'       24.8240  -12.7720   48.2780 C.3   146  U146        0.1812
   3105  O5'       24.8470  -11.7300   47.2830 O.3   146  U146       -0.3114
   3106  C4'       26.0260  -13.6690   48.1110 C.3   146  U146        0.1773
   3107  O4'       26.4180  -13.7200   46.7100 O.3   146  U146       -0.3307
   3108  C3'       27.2940  -13.2010   48.8060 C.3   146  U146        0.1860
   3109  O3'       27.2950  -13.5030   50.1950 O.3   146  U146       -0.3112
   3110  C2'       28.3620  -13.9810   48.0540 C.3   146  U146        0.2309
   3111  O2'       28.4530  -15.3160   48.4870 O.3   146  U146       -0.2156
   3112  C1'       27.8090  -13.9730   46.6280 C.3   146  U146        0.2420
   3113  N1        28.4520  -12.9530   45.7850 N.ar  146  U146       -0.2534
   3114  C2        29.5520  -13.3630   45.0570 C.ar  146  U146        0.3546
   3115  O2        29.9560  -14.5100   45.0630 O.2   146  U146       -0.2443
   3116  N3        30.1500  -12.3820   44.3100 N.ar  146  U146       -0.1530
   3117  C4        29.7850  -11.0570   44.2260 C.ar  146  U146        0.2846
   3118  O4        30.4280  -10.2990   43.4980 O.2   146  U146       -0.2650
   3119  C5        28.6510  -10.7010   45.0290 C.ar  146  U146        0.0814
   3120  C6        28.0410  -11.6370   45.7670 C.ar  146  U146        0.0870
   3121  OP1       23.7980  -10.1980   48.9470 O.3   146  U146       -0.4373
   3122  OP2       25.7940   -9.4380   47.4790 O.co2 146  U146       -0.5172
   3123  P         28.3720  -12.8260   51.1830 P.3   147  U147        0.2141
   3124  C5'       30.2000  -14.7360   50.8750 C.3   147  U147        0.1812
   3125  O5'       29.7690  -13.3740   50.6440 O.3   147  U147       -0.3114
   3126  C4'       31.6690  -14.8660   50.5530 C.3   147  U147        0.1773
   3127  O4'       31.8680  -14.8070   49.1150 O.3   147  U147       -0.3307
   3128  C3'       32.5310  -13.7360   51.0860 C.3   147  U147        0.1860
   3129  O3'       32.8780  -13.9890   52.4360 O.3   147  U147       -0.3112
   3130  C2'       33.7440  -13.7870   50.1680 C.3   147  U147        0.2309
   3131  O2'       34.7290  -14.6700   50.6630 O.3   147  U147       -0.2156
   3132  C1'       33.1120  -14.1900   48.8320 C.3   147  U147        0.2420
   3133  N1        32.8690  -13.0370   47.9560 N.ar  147  U147       -0.2534
   3134  C2        33.8650  -12.6910   47.0600 C.ar  147  U147        0.3546
   3135  O2        34.9110  -13.3080   46.9630 O.2   147  U147       -0.2443
   3136  N3        33.5850  -11.5930   46.2830 N.ar  147  U147       -0.1530
   3137  C4        32.4450  -10.8110   46.3160 C.ar  147  U147        0.2846
   3138  O4        32.3420   -9.8550   45.5460 O.2   147  U147       -0.2650
   3139  C5        31.4670  -11.2260   47.2760 C.ar  147  U147        0.0814
   3140  C6        31.7070  -12.2970   48.0460 C.ar  147  U147        0.0870
   3141  OP1       28.1220  -13.3700   52.5420 O.3   147  U147       -0.4373
   3142  OP2       28.4180  -11.3550   50.9870 O.co2 147  U147       -0.5172
   3143  P         33.5190  -12.7980   53.2800 P.3   148  C148        0.2141
   3144  C5'       35.9440  -11.9290   52.8910 C.3   148  C148        0.1812
   3145  O5'       34.9770  -12.9450   52.6640 O.3   148  C148       -0.3114
   3146  C4'       37.0630  -12.0930   51.9130 C.3   148  C148        0.1773
   3147  O4'       36.5080  -12.2910   50.5890 O.3   148  C148       -0.3307
   3148  C3'       37.9480  -10.8740   51.7850 C.3   148  C148        0.1860
   3149  O3'       38.9140  -10.9960   52.8030 O.3   148  C148       -0.3112
   3150  C2'       38.4840  -11.0120   50.3700 C.3   148  C148        0.2309
   3151  O2'       39.5260  -11.9560   50.2440 O.3   148  C148       -0.2156
   3152  C1'       37.2480  -11.5380   49.6400 C.3   148  C148        0.2420
   3153  N1        36.3660  -10.4890   49.0800 N.ar  148  C148       -0.2535
   3154  C2        36.8490   -9.6720   48.0520 C.ar  148  C148        0.3532
   3155  O2        38.0110   -9.8340   47.6520 O.2   148  C148       -0.2443
   3156  N3        36.0410   -8.7210   47.5280 N.ar  148  C148       -0.1739
   3157  C4        34.7980   -8.5710   47.9950 C.ar  148  C148        0.1759
   3158  N4        34.0370   -7.6200   47.4500 N.pl3 148  C148       -0.1070
   3159  C5        34.2790   -9.3920   49.0360 C.ar  148  C148        0.0566
   3160  C6        35.0880  -10.3330   49.5420 C.ar  148  C148        0.0850
   3161  OP1       33.5390  -13.1660   54.7140 O.3   148  C148       -0.4373
   3162  OP2       32.9670  -11.4800   52.8700 O.co2 148  C148       -0.5172
   3163  P         38.9290   -9.7900   53.8350 P.3   149  A149        0.2141
   3164  C5'       41.2070   -9.4780   52.5720 C.3   149  A149        0.1812
   3165  O5'       39.9390   -8.9160   52.9660 O.3   149  A149       -0.3114
   3166  C4'       41.8280   -8.6880   51.4470 C.3   149  A149        0.1773
   3167  O4'       41.0130   -8.7910   50.2460 O.3   149  A149       -0.3307
   3168  C3'       41.9660   -7.1850   51.6640 C.3   149  A149        0.1860
   3169  O3'       43.0400   -6.8410   52.5370 O.3   149  A149       -0.3112
   3170  C2'       42.1170   -6.6900   50.2300 C.3   149  A149        0.2309
   3171  O2'       43.3930   -6.8720   49.6500 O.3   149  A149       -0.2156
   3172  C1'       41.1060   -7.5820   49.5090 C.3   149  A149        0.2408
   3173  N1        38.2490   -3.9370   47.3210 N.ar  149  A149       -0.2040
   3174  C2        39.5250   -4.3120   47.1520 C.ar  149  A149        0.2016
   3175  N3        40.2060   -5.2790   47.7600 N.ar  149  A149       -0.2048
   3176  C4        39.4320   -5.9110   48.6590 C.ar  149  A149        0.1692
   3177  C5        38.1080   -5.6360   48.9530 C.ar  149  A149        0.1518
   3178  C6        37.4970   -4.5950   48.2290 C.ar  149  A149        0.1919
   3179  N6        36.2310   -4.2140   48.4050 N.pl3 149  A149       -0.1054
   3180  N7        37.6370   -6.4910   49.9410 N.ar  149  A149       -0.2193
   3181  C8        38.6680   -7.2530   50.2140 C.ar  149  A149        0.1816
   3182  N9        39.7820   -6.9670   49.4630 N.ar  149  A149       -0.2693
   3183  OP1       39.5970  -10.2220   55.0950 O.3   149  A149       -0.4373
   3184  OP2       37.5960   -9.1250   53.9020 O.co2 149  A149       -0.5172
   3185  P         42.7210   -5.7290   53.6450 P.3   150  U150        0.2141
   3186  C5'       44.0680   -3.8940   52.3140 C.3   150  U150        0.1812
   3187  O5'       42.8000   -4.3860   52.7880 O.3   150  U150       -0.3114
   3188  C4'       43.8810   -2.7490   51.3430 C.3   150  U150        0.1773
   3189  O4'       42.9610   -3.1230   50.2780 O.3   150  U150       -0.3307
   3190  C3'       43.2820   -1.4730   51.9120 C.3   150  U150        0.1860
   3191  O3'       44.2490   -0.6820   52.5830 O.3   150  U150       -0.3112
   3192  C2'       42.7740   -0.7910   50.6500 C.3   150  U150        0.2309
   3193  O2'       43.7960   -0.1520   49.9140 O.3   150  U150       -0.2156
   3194  C1'       42.2100   -1.9850   49.8790 C.3   150  U150        0.2420
   3195  N1        40.7930   -2.2250   50.1860 N.ar  150  U150       -0.2534
   3196  C2        39.8550   -1.4270   49.5580 C.ar  150  U150        0.3546
   3197  O2        40.1530   -0.5570   48.7560 O.2   150  U150       -0.2443
   3198  N3        38.5530   -1.6910   49.9020 N.ar  150  U150       -0.1530
   3199  C4        38.1000   -2.6360   50.7970 C.ar  150  U150        0.2846
   3200  O4        36.8920   -2.7510   50.9970 O.2   150  U150       -0.2650
   3201  C5        39.1310   -3.4130   51.4120 C.ar  150  U150        0.0814
   3202  C6        40.4100   -3.1860   51.0960 C.ar  150  U150        0.0870
   3203  OP1       43.7890   -5.7090   54.6840 O.3   150  U150       -0.4373
   3204  OP2       41.3040   -5.9110   54.0550 O.co2 150  U150       -0.5172
   3205  P         43.9380   -0.1960   54.0670 P.3   151  A151        0.2141
   3206  C5'       45.1000    1.9410   53.0320 C.3   151  A151        0.1812
   3207  O5'       44.1500    1.3780   53.9600 O.3   151  A151       -0.3114
   3208  C4'       45.4680    3.3420   53.4600 C.3   151  A151        0.1773
   3209  O4'       45.2390    4.2630   52.3570 O.3   151  A151       -0.3307
   3210  C3'       44.6680    3.8870   54.6410 C.3   151  A151        0.1860
   3211  O3'       45.4930    4.6890   55.4790 O.3   151  A151       -0.3112
   3212  C2'       43.5550    4.6720   53.9560 C.3   151  A151        0.2309
   3213  O2'       42.9700    5.6760   54.7580 O.3   151  A151       -0.2156
   3214  C1'       44.2840    5.2340   52.7340 C.3   151  A151        0.2408
   3215  N1        40.2780    3.4760   50.0330 N.ar  151  A151       -0.2040
   3216  C2        40.9150    3.0030   51.1130 C.ar  151  A151        0.2016
   3217  N3        41.9570    3.5130   51.7680 N.ar  151  A151       -0.2048
   3218  C4        42.3590    4.6640   51.2000 C.ar  151  A151        0.1692
   3219  C5        41.8050    5.2780   50.0900 C.ar  151  A151        0.1518
   3220  C6        40.7070    4.6340   49.4850 C.ar  151  A151        0.1919
   3221  N6        40.0680    5.1080   48.4130 N.pl3 151  A151       -0.1054
   3222  N7        42.4830    6.4530   49.7910 N.ar  151  A151       -0.2193
   3223  C8        43.4170    6.5200   50.7090 C.ar  151  A151        0.1816
   3224  N9        43.4010    5.4690   51.5930 N.ar  151  A151       -0.2693
   3225  OP1       44.9960   -0.7730   54.9300 O.3   151  A151       -0.4373
   3226  OP2       42.5100   -0.4450   54.3890 O.co2 151  A151       -0.5172
   3227  P         45.5480    4.4770   57.0740 P.3   152  U152        0.2141
   3228  C5'       48.0580    3.9200   56.3660 C.3   152  U152        0.1812
   3229  O5'       47.0680    4.1160   57.4020 O.3   152  U152       -0.3114
   3230  C4'       48.6220    2.5150   56.4220 C.3   152  U152        0.1773
   3231  O4'       48.6870    2.0770   57.7970 O.3   152  U152       -0.3307
   3232  C3'       47.8190    1.4570   55.6620 C.3   152  U152        0.1860
   3233  O3'       48.4120    0.9830   54.4530 O.3   152  U152       -0.3112
   3234  C2'       47.5110    0.3590   56.6890 C.3   152  U152        0.2309
   3235  O2'       47.7520   -0.9660   56.2600 O.3   152  U152       -0.2156
   3236  C1'       48.4370    0.6940   57.8570 C.3   152  U152        0.2420
   3237  N1        47.8140    0.4000   59.1560 N.ar  152  U152       -0.2534
   3238  C2        47.6520   -0.9270   59.5140 C.ar  152  U152        0.3546
   3239  O2        48.0100   -1.8550   58.8080 O.2   152  U152       -0.2443
   3240  N3        47.0570   -1.1240   60.7360 N.ar  152  U152       -0.1530
   3241  C4        46.6100   -0.1590   61.6150 C.ar  152  U152        0.2846
   3242  O4        46.0940   -0.5000   62.6800 O.2   152  U152       -0.2650
   3243  C5        46.8090    1.1870   61.1710 C.ar  152  U152        0.0814
   3244  C6        47.3860    1.4150   59.9850 C.ar  152  U152        0.0870
   3245  OP1       44.7530    3.2840   57.4760 O.2   152  U152       -0.5172
   3246  OP2       45.2230    5.7980   57.6750 O.co2 152  U152       -0.4373
   3247  P         49.9550    0.7430   54.0920 P.3   153  G153        0.2141
   3248  C5'       48.6820    0.0720   51.8750 C.3   153  G153        0.1812
   3249  O5'       49.8120    0.7220   52.5040 O.3   153  G153       -0.3114
   3250  C4'       48.1510    0.8810   50.7100 C.3   153  G153        0.1773
   3251  O4'       47.6520    2.1560   51.1760 O.3   153  G153       -0.3307
   3252  C3'       49.1560    1.1830   49.6010 C.3   153  G153        0.1860
   3253  O3'       48.7140    0.6350   48.3700 O.3   153  G153       -0.3112
   3254  C2'       49.2540    2.7100   49.5670 C.3   153  G153        0.2309
   3255  O2'       49.3220    3.2010   48.2440 O.3   153  G153       -0.2156
   3256  C1'       47.9400    3.1420   50.2140 C.3   153  G153        0.2408
   3257  N1        46.7330    8.0840   50.0810 N.ar  153  G153       -0.1709
   3258  C2        46.4780    7.1030   49.1550 C.ar  153  G153        0.2606
   3259  N2        45.8110    7.4870   48.0580 N.pl3 153  G153       -0.0859
   3260  N3        46.8480    5.8400   49.2950 N.ar  153  G153       -0.1918
   3261  C4        47.5050    5.6310   50.4570 C.ar  153  G153        0.1723
   3262  C5        47.8100    6.5410   51.4480 C.ar  153  G153        0.1748
   3263  C6        47.4070    7.8930   51.2840 C.ar  153  G153        0.3023
   3264  O6        47.5850    8.8490   52.0500 O.2   153  G153       -0.2633
   3265  N7        48.4950    5.9270   52.4880 N.ar  153  G153       -0.2173
   3266  C8        48.5920    4.6790   52.1190 C.ar  153  G153        0.1817
   3267  N9        48.0160    4.4310   50.8960 N.ar  153  G153       -0.2693
   3268  OP1       50.3320   -0.6090   54.5780 O.3   153  G153       -0.4373
   3269  OP2       50.7850    1.9160   54.4690 O.co2 153  G153       -0.5172
   3270  P         49.6770   -0.4560   47.7220 P.3   154  A154        0.2141
   3271  C5'       48.3830   -2.4440   48.8930 C.3   154  A154        0.1812
   3272  O5'       48.7870   -1.7740   47.6850 O.3   154  A154       -0.3114
   3273  C4'       47.2110   -3.3450   48.5940 C.3   154  A154        0.1773
   3274  O4'       45.9840   -2.5890   48.7820 O.3   154  A154       -0.3307
   3275  C3'       47.1490   -3.8510   47.1540 C.3   154  A154        0.1860
   3276  O3'       47.9620   -4.9930   46.9030 O.3   154  A154       -0.3112
   3277  C2'       45.6500   -4.0070   46.9200 C.3   154  A154        0.2309
   3278  O2'       45.0520   -5.1680   47.4500 O.3   154  A154       -0.2156
   3279  C1'       45.1120   -2.8020   47.6800 C.3   154  A154        0.2408
   3280  N1        42.4600   -0.2160   44.1310 N.ar  154  A154       -0.2040
   3281  C2        42.2560   -1.3960   44.7330 C.ar  154  A154        0.2016
   3282  N3        42.9890   -2.0070   45.6610 N.ar  154  A154       -0.2048
   3283  C4        44.0810   -1.2800   45.9550 C.ar  154  A154        0.1692
   3284  C5        44.4330   -0.0560   45.4150 C.ar  154  A154        0.1518
   3285  C6        43.5690    0.4880   44.4500 C.ar  154  A154        0.1919
   3286  N6        43.7850    1.6550   43.8400 N.pl3 154  A154       -0.1054
   3287  N7        45.6180    0.4030   45.9710 N.ar  154  A154       -0.2193
   3288  C8        45.9560   -0.5420   46.8120 C.ar  154  A154        0.1816
   3289  N9        45.0670   -1.5890   46.8590 N.ar  154  A154       -0.2693
   3290  OP1       50.7510   -0.6840   48.7250 O.3   154  A154       -0.4373
   3291  OP2       50.0240   -0.1140   46.3100 O.co2 154  A154       -0.5172
   3292  P         49.1390   -4.7970   45.8260 P.3   155  G155        0.2141
   3293  C5'       47.3930   -5.2970   43.9250 C.3   155  G155        0.1812
   3294  O5'       48.4070   -4.4350   44.4630 O.3   155  G155       -0.3114
   3295  C4'       46.5140   -4.5210   42.9800 C.3   155  G155        0.1773
   3296  O4'       45.9560   -3.3570   43.6590 O.3   155  G155       -0.3307
   3297  C3'       47.2130   -3.9080   41.7840 C.3   155  G155        0.1860
   3298  O3'       47.5620   -4.8790   40.8070 O.3   155  G155       -0.3112
   3299  C2'       46.1800   -2.8750   41.3560 C.3   155  G155        0.2309
   3300  O2'       45.1000   -3.4770   40.6690 O.3   155  G155       -0.2156
   3301  C1'       45.7560   -2.3120   42.7190 C.3   155  G155        0.2408
   3302  N1        46.8510    2.5540   41.8290 N.ar  155  G155       -0.1709
   3303  C2        45.9070    1.7510   41.2420 C.ar  155  G155        0.2606
   3304  N2        45.1580    2.3190   40.2890 N.pl3 155  G155       -0.0859
   3305  N3        45.7080    0.4860   41.5690 N.ar  155  G155       -0.1918
   3306  C4        46.5400    0.0820   42.5510 C.ar  155  G155        0.1723
   3307  C5        47.5260    0.7990   43.1920 C.ar  155  G155        0.1748
   3308  C6        47.7270    2.1570   42.8310 C.ar  155  G155        0.3023
   3309  O6        48.5480    2.9610   43.2820 O.2   155  G155       -0.2633
   3310  N7        48.1810    0.0100   44.1270 N.ar  155  G155       -0.2173
   3311  C8        47.5880   -1.1500   44.0410 C.ar  155  G155        0.1817
   3312  N9        46.5740   -1.1690   43.1150 N.ar  155  G155       -0.2693
   3313  OP1       49.8230   -6.1000   45.6120 O.2   155  G155       -0.5172
   3314  OP2       49.9220   -3.5700   46.1310 O.co2 155  G155       -0.4373
   3315  P         48.7850   -4.6450   39.7870 P.3   156  G156        0.2141
   3316  C5'       47.2540   -3.3700   38.0740 C.3   156  G156        0.1812
   3317  O5'       48.3390   -3.3300   39.0180 O.3   156  G156       -0.3114
   3318  C4'       47.0280   -1.9940   37.5000 C.3   156  G156        0.1773
   3319  O4'       46.8150   -1.0210   38.5670 O.3   156  G156       -0.3307
   3320  C3'       48.2050   -1.4100   36.7390 C.3   156  G156        0.1860
   3321  O3'       48.3550   -2.0020   35.4480 O.3   156  G156       -0.3112
   3322  C2'       47.8370    0.0670   36.7260 C.3   156  G156        0.2309
   3323  O2'       46.8030    0.2860   35.7970 O.3   156  G156       -0.2156
   3324  C1'       47.2830    0.2550   38.1420 C.3   156  G156        0.2408
   3325  N1        50.2780    4.1330   39.4860 N.ar  156  G156       -0.1709
   3326  C2        49.3540    4.0570   38.4740 C.ar  156  G156        0.2606
   3327  N2        49.2220    5.1510   37.7080 N.pl3 156  G156       -0.0859
   3328  N3        48.6240    2.9820   38.2200 N.ar  156  G156       -0.1918
   3329  C4        48.8910    1.9760   39.0800 C.ar  156  G156        0.1723
   3330  C5        49.7990    1.9490   40.1190 C.ar  156  G156        0.1748
   3331  C6        50.5790    3.1070   40.3750 C.ar  156  G156        0.3023
   3332  O6        51.4350    3.2830   41.2500 O.2   156  G156       -0.2633
   3333  N7        49.7810    0.7160   40.7580 N.ar  156  G156       -0.2173
   3334  C8        48.8820    0.0280   40.1080 C.ar  156  G156        0.1817
   3335  N9        48.2960    0.7340   39.0840 N.ar  156  G156       -0.2693
   3336  OP1       48.7300   -5.7270   38.7700 O.2   156  G156       -0.5172
   3337  OP2       50.0500   -4.3940   40.5260 O.co2 156  G156       -0.4373
   3338  P         49.7590   -2.1770   34.6560 P.3   157  C157        0.2141
   3339  C5'       49.8040    0.0800   33.2680 C.3   157  C157        0.1812
   3340  O5'       50.2130   -0.6720   34.4080 O.3   157  C157       -0.3114
   3341  C4'       50.1690    1.5100   33.5190 C.3   157  C157        0.1773
   3342  O4'       49.9530    1.7770   34.9260 O.3   157  C157       -0.3307
   3343  C3'       51.6330    1.8460   33.3120 C.3   157  C157        0.1860
   3344  O3'       51.8890    2.1440   31.9430 O.3   157  C157       -0.3112
   3345  C2'       51.8110    3.0670   34.2080 C.3   157  C157        0.2309
   3346  O2'       51.3090    4.2390   33.6080 O.3   157  C157       -0.2156
   3347  C1'       50.8990    2.7270   35.3880 C.3   157  C157        0.2420
   3348  N1        51.6000    2.1660   36.5630 N.ar  157  C157       -0.2535
   3349  C2        52.3560    3.0160   37.3860 C.ar  157  C157        0.3532
   3350  O2        52.4160    4.2240   37.1100 O.2   157  C157       -0.2443
   3351  N3        52.9940    2.4990   38.4610 N.ar  157  C157       -0.1739
   3352  C4        52.9060    1.1920   38.7250 C.ar  157  C157        0.1759
   3353  N4        53.5590    0.7230   39.7890 N.pl3 157  C157       -0.1070
   3354  C5        52.1460    0.3070   37.9060 C.ar  157  C157        0.0566
   3355  C6        51.5120    0.8310   36.8480 C.ar  157  C157        0.0850
   3356  OP1       49.5180   -2.7930   33.3240 O.2   157  C157       -0.5172
   3357  OP2       50.7380   -2.7980   35.5850 O.co2 157  C157       -0.4373
   3358  P         53.3840    1.9080   31.4050 P.3   158  U158        0.2141
   3359  C5'       53.9880    4.4570   31.7320 C.3   158  U158        0.1812
   3360  O5'       54.2360    3.0780   32.0790 O.3   158  U158       -0.3114
   3361  C4'       55.1480    5.3260   32.1330 C.3   158  U158        0.1773
   3362  O4'       55.0790    5.6010   33.5630 O.3   158  U158       -0.3307
   3363  C3'       56.5140    4.6970   31.9380 C.3   158  U158        0.1860
   3364  O3'       57.0090    4.7660   30.6090 O.3   158  U158       -0.3112
   3365  C2'       57.3560    5.4560   32.9540 C.3   158  U158        0.2309
   3366  O2'       57.7190    6.7370   32.4730 O.3   158  U158       -0.2156
   3367  C1'       56.3810    5.5380   34.1290 C.3   158  U158        0.2420
   3368  N1        56.4290    4.3910   35.0530 N.ar  158  U158       -0.2534
   3369  C2        57.3770    4.3990   36.0640 C.ar  158  U158        0.3546
   3370  O2        58.1900    5.2980   36.2070 O.2   158  U158       -0.2443
   3371  N3        57.3370    3.3100   36.9010 N.ar  158  U158       -0.1530
   3372  C4        56.4750    2.2350   36.8340 C.ar  158  U158        0.2846
   3373  O4        56.5620    1.3350   37.6690 O.2   158  U158       -0.2650
   3374  C5        55.5210    2.3030   35.7680 C.ar  158  U158        0.0814
   3375  C6        55.5260    3.3560   34.9390 C.ar  158  U158        0.0870
   3376  OP1       53.3050    2.0990   29.9290 O.2   158  U158       -0.5172
   3377  OP2       53.8860    0.6250   31.9490 O.co2 158  U158       -0.4373
   3378  P         58.1380    3.6610   30.2910 P.3   159  A159        0.2141
   3379  C5'       59.9640    5.4570   30.9690 C.3   159  A159        0.1812
   3380  O5'       59.4700    4.1050   31.0560 O.3   159  A159       -0.3114
   3381  C4'       61.2410    5.6350   31.7570 C.3   159  A159        0.1773
   3382  O4'       60.9740    5.7700   33.1760 O.3   159  A159       -0.3307
   3383  C3'       62.2480    4.4910   31.7520 C.3   159  A159        0.1860
   3384  O3'       63.0170    4.3310   30.5690 O.3   159  A159       -0.3112
   3385  C2'       63.1740    4.9090   32.8890 C.3   159  A159        0.2309
   3386  O2'       64.1860    5.8120   32.5010 O.3   159  A159       -0.2156
   3387  C1'       62.1930    5.5500   33.8760 C.3   159  A159        0.2408
   3388  N1        59.6430    1.4420   35.7030 N.ar  159  A159       -0.2040
   3389  C2        59.5380    2.1180   34.5510 C.ar  159  A159        0.2016
   3390  N3        60.2190    3.1830   34.1320 N.ar  159  A159       -0.2048
   3391  C4        61.1160    3.5640   35.0570 C.ar  159  A159        0.1692
   3392  C5        61.3400    2.9740   36.2890 C.ar  159  A159        0.1518
   3393  C6        60.5520    1.8540   36.6130 C.ar  159  A159        0.1919
   3394  N6        60.6540    1.1810   37.7640 N.pl3 159  A159       -0.1054
   3395  N7        62.3450    3.6400   36.9780 N.ar  159  A159       -0.2193
   3396  C8        62.6990    4.6030   36.1620 C.ar  159  A159        0.1816
   3397  N9        61.9710    4.6390   34.9970 N.ar  159  A159       -0.2693
   3398  OP1       58.3200    3.7830   28.8220 O.2   159  A159       -0.5172
   3399  OP2       57.7940    2.3410   30.9000 O.co2 159  A159       -0.4373
   3400  P         63.7950    2.9410   30.3320 P.3   160  G160        0.2141
   3401  C5'       64.8220    1.7800   32.4950 C.3   160  G160        0.1812
   3402  O5'       64.9140    2.7810   31.4580 O.3   160  G160       -0.3114
   3403  C4'       65.7060    2.1850   33.6490 C.3   160  G160        0.1773
   3404  O4'       64.9330    2.3550   34.8670 O.3   160  G160       -0.3307
   3405  C3'       66.7520    1.1850   34.0980 C.3   160  G160        0.1860
   3406  O3'       67.8290    0.9610   33.2010 O.3   160  G160       -0.3112
   3407  C2'       67.1640    1.7780   35.4420 C.3   160  G160        0.2309
   3408  O2'       68.0700    2.8640   35.3950 O.3   160  G160       -0.2156
   3409  C1'       65.8060    2.2300   35.9870 C.3   160  G160        0.2408
   3410  N1        62.4620   -1.5430   36.7330 N.ar  160  G160       -0.1709
   3411  C2        62.6530   -0.7630   35.6190 C.ar  160  G160        0.2606
   3412  N2        61.8560   -1.0220   34.5740 N.pl3 160  G160       -0.0859
   3413  N3        63.5580    0.2000   35.5370 N.ar  160  G160       -0.1918
   3414  C4        64.2690    0.3230   36.6790 C.ar  160  G160        0.1723
   3415  C5        64.1580   -0.4060   37.8450 C.ar  160  G160        0.1748
   3416  C6        63.1820   -1.4350   37.9200 C.ar  160  G160        0.3023
   3417  O6        62.9330   -2.1960   38.8630 O.2   160  G160       -0.2633
   3418  N7        65.0830    0.0270   38.7870 N.ar  160  G160       -0.2173
   3419  C8        65.7220    0.9960   38.1920 C.ar  160  G160        0.1817
   3420  N9        65.2670    1.2410   36.9170 N.ar  160  G160       -0.2693
   3421  OP1       64.4800    3.0980   29.0210 O.2   160  G160       -0.5172
   3422  OP2       62.7940    1.8580   30.5140 O.co2 160  G160       -0.4373
   3423  P         68.2050   -0.5770   32.9500 P.3   161  G161        0.2141
   3424  C5'       69.6380   -0.9240   35.1260 C.3   161  G161        0.1812
   3425  O5'       68.4430   -1.2250   34.3860 O.3   161  G161       -0.3114
   3426  C4'       69.6080   -1.5640   36.4920 C.3   161  G161        0.1773
   3427  O4'       68.2710   -1.5650   37.0380 O.3   161  G161       -0.3307
   3428  C3'       69.9690   -3.0360   36.5470 C.3   161  G161        0.1860
   3429  O3'       71.3730   -3.2340   36.4520 O.3   161  G161       -0.3112
   3430  C2'       69.4210   -3.4550   37.9110 C.3   161  G161        0.2309
   3431  O2'       70.3090   -3.2920   38.9970 O.3   161  G161       -0.2156
   3432  C1'       68.2130   -2.5280   38.0740 C.3   161  G161        0.2408
   3433  N1        65.1960   -5.9840   40.2360 N.ar  161  G161       -0.1709
   3434  C2        66.4370   -5.5430   40.6270 C.ar  161  G161        0.2606
   3435  N2        66.9360   -6.0920   41.7450 N.pl3 161  G161       -0.0859
   3436  N3        67.1340   -4.6270   39.9740 N.ar  161  G161       -0.1918
   3437  C4        66.4820   -4.1830   38.8770 C.ar  161  G161        0.1723
   3438  C5        65.2450   -4.5610   38.3990 C.ar  161  G161        0.1748
   3439  C6        64.5070   -5.5430   39.1100 C.ar  161  G161        0.3023
   3440  O6        63.3940   -6.0130   38.8430 O.2   161  G161       -0.2633
   3441  N7        64.9350   -3.8710   37.2350 N.ar  161  G161       -0.2173
   3442  C8        65.9670   -3.0980   37.0320 C.ar  161  G161        0.1817
   3443  N9        66.9410   -3.2360   37.9920 N.ar  161  G161       -0.2693
   3444  OP1       69.4990   -0.6250   32.2190 O.2   161  G161       -0.5172
   3445  OP2       66.9950   -1.1970   32.3550 O.co2 161  G161       -0.4373
   3446  P         71.9120   -4.6780   36.0250 P.3   162  U162        0.2141
   3447  C5'       70.3270   -6.8200   35.8190 C.3   162  U162        0.1812
   3448  O5'       70.5810   -5.4230   35.5450 O.3   162  U162       -0.3114
   3449  C4'       70.5100   -7.1210   37.2930 C.3   162  U162        0.1773
   3450  O4'       69.3660   -6.6180   38.0410 O.3   162  U162       -0.3307
   3451  C3'       70.6430   -8.5940   37.6650 C.3   162  U162        0.1860
   3452  O3'       72.0100   -9.0020   37.6990 O.3   162  U162       -0.3112
   3453  C2'       70.0090   -8.6530   39.0520 C.3   162  U162        0.2309
   3454  O2'       70.8640   -8.2650   40.1060 O.3   162  U162       -0.2156
   3455  C1'       68.8910   -7.6190   38.9230 C.3   162  U162        0.2420
   3456  N1        67.6170   -8.1360   38.3940 N.ar  162  U162       -0.2534
   3457  C2        66.9990   -9.1710   39.0750 C.ar  162  U162        0.3546
   3458  O2        67.4720   -9.6830   40.0760 O.2   162  U162       -0.2443
   3459  N3        65.8090   -9.5860   38.5320 N.ar  162  U162       -0.1530
   3460  C4        65.1770   -9.0810   37.4140 C.ar  162  U162        0.2846
   3461  O4        64.1050   -9.5650   37.0520 O.2   162  U162       -0.2650
   3462  C5        65.8770   -8.0120   36.7680 C.ar  162  U162        0.0814
   3463  C6        67.0410   -7.5830   37.2700 C.ar  162  U162        0.0870
   3464  OP1       72.4870   -5.2670   37.2640 O.3   162  U162       -0.4373
   3465  OP2       72.7880   -4.4790   34.8430 O.co2 162  U162       -0.5172
   3466  P         72.5830  -10.1890   36.7760 P.3   163  A163        0.2141
   3467  C5'       70.6130  -11.9140   36.4390 C.3   163  A163        0.1812
   3468  O5'       71.7420  -11.4710   37.2160 O.3   163  A163       -0.3114
   3469  C4'       69.7340  -12.8270   37.2560 C.3   163  A163        0.1773
   3470  O4'       68.5350  -12.1100   37.6590 O.3   163  A163       -0.3307
   3471  C3'       69.2070  -14.0490   36.5100 C.3   163  A163        0.1860
   3472  O3'       70.1870  -15.0850   36.4270 O.3   163  A163       -0.3112
   3473  C2'       67.9470  -14.3850   37.3020 C.3   163  A163        0.2309
   3474  O2'       68.1980  -15.0870   38.5040 O.3   163  A163       -0.2156
   3475  C1'       67.4170  -12.9870   37.6320 C.3   163  A163        0.2408
   3476  N1        62.5350  -13.1870   35.9740 N.ar  163  A163       -0.2040
   3477  C2        63.1910  -13.8690   36.9220 C.ar  163  A163        0.2016
   3478  N3        64.4660  -13.7710   37.3050 N.ar  163  A163       -0.2048
   3479  C4        65.1060  -12.8310   36.5880 C.ar  163  A163        0.1692
   3480  C5        64.5650  -12.0430   35.5850 C.ar  163  A163        0.1518
   3481  C6        63.2040  -12.2420   35.2790 C.ar  163  A163        0.1919
   3482  N6        62.5490  -11.5610   34.3400 N.pl3 163  A163       -0.1054
   3483  N7        65.5240  -11.1840   35.0650 N.ar  163  A163       -0.2193
   3484  C8        66.6050  -11.4650   35.7530 C.ar  163  A163        0.1816
   3485  N9        66.4260  -12.4560   36.6880 N.ar  163  A163       -0.2693
   3486  OP1       73.9930  -10.3850   37.1940 O.3   163  A163       -0.4373
   3487  OP2       72.2830   -9.9040   35.3480 O.co2 163  A163       -0.5172
   3488  P         70.6420  -15.6380   34.9810 P.3   164  U164        0.2141
   3489  C5'       68.7620  -17.4640   35.2150 C.3   164  U164        0.1812
   3490  O5'       69.3250  -16.3710   34.4650 O.3   164  U164       -0.3114
   3491  C4'       67.3630  -17.7940   34.7470 C.3   164  U164        0.1773
   3492  O4'       66.4290  -16.7420   35.1080 O.3   164  U164       -0.3307
   3493  C3'       67.1420  -17.9150   33.2500 C.3   164  U164        0.1860
   3494  O3'       67.8200  -19.0210   32.6440 O.3   164  U164       -0.3112
   3495  C2'       65.6150  -17.8590   33.1740 C.3   164  U164        0.2309
   3496  O2'       64.9300  -19.0750   33.4060 O.3   164  U164       -0.2156
   3497  C1'       65.2900  -16.8280   34.2640 C.3   164  U164        0.2420
   3498  N1        65.0160  -15.4960   33.7030 N.ar  164  U164       -0.2534
   3499  C2        63.7110  -15.2070   33.3290 C.ar  164  U164        0.3546
   3500  O2        62.7860  -15.9870   33.4850 O.2   164  U164       -0.2443
   3501  N3        63.5320  -13.9640   32.7750 N.ar  164  U164       -0.1530
   3502  C4        64.4970  -13.0050   32.5420 C.ar  164  U164        0.2846
   3503  O4        64.1710  -11.9260   32.0470 O.2   164  U164       -0.2650
   3504  C5        65.8210  -13.3820   32.9420 C.ar  164  U164        0.0814
   3505  C6        66.0300  -14.5860   33.4920 C.ar  164  U164        0.0870
   3506  OP1       71.6820  -16.6780   35.1760 O.3   164  U164       -0.4373
   3507  OP2       70.9190  -14.4900   34.0780 O.co2 164  U164       -0.5172
   3508  P         68.8480  -18.8280   31.4020 P.3   165  C165        0.2141
   3509  C5'       67.4670  -20.4110   29.8170 C.3   165  C165        0.1812
   3510  O5'       67.8280  -19.0730   30.2020 O.3   165  C165       -0.3114
   3511  C4'       65.9780  -20.5260   29.5990 C.3   165  C165        0.1773
   3512  O4'       65.2550  -19.6940   30.5450 O.3   165  C165       -0.3307
   3513  C3'       65.4560  -20.0100   28.2690 C.3   165  C165        0.1860
   3514  O3'       65.7890  -20.7350   27.0900 O.3   165  C165       -0.3112
   3515  C2'       63.9610  -19.8960   28.5540 C.3   165  C165        0.2309
   3516  O2'       63.1630  -21.0440   28.3160 O.3   165  C165       -0.2156
   3517  C1'       63.9750  -19.3880   30.0020 C.3   165  C165        0.2420
   3518  N1        63.7770  -17.9300   30.0020 N.ar  165  C165       -0.2535
   3519  C2        62.4660  -17.4420   29.9420 C.ar  165  C165        0.3532
   3520  O2        61.5220  -18.2500   29.9710 O.2   165  C165       -0.2443
   3521  N3        62.2600  -16.1050   29.8770 N.ar  165  C165       -0.1739
   3522  C4        63.3030  -15.2700   29.8450 C.ar  165  C165        0.1759
   3523  N4        63.0540  -13.9610   29.7840 N.pl3 165  C165       -0.1070
   3524  C5        64.6490  -15.7420   29.8710 C.ar  165  C165        0.0566
   3525  C6        64.8380  -17.0680   29.9310 C.ar  165  C165        0.0850
   3526  OP1       69.8630  -19.9210   31.4100 O.3   165  C165       -0.4373
   3527  OP2       69.3140  -17.4170   31.3280 O.co2 165  C165       -0.5172
   3528  P         65.9820  -19.8590   25.7510 P.3   166  A166        0.2141
   3529  C5'       63.5170  -20.0000   24.8130 C.3   166  A166        0.1812
   3530  O5'       64.5530  -19.2130   25.4400 O.3   166  A166       -0.3114
   3531  C4'       62.2020  -19.2500   24.7130 C.3   166  A166        0.1773
   3532  O4'       62.0220  -18.3160   25.8190 O.3   166  A166       -0.3307
   3533  C3'       61.9960  -18.3600   23.4910 C.3   166  A166        0.1860
   3534  O3'       61.9880  -19.0290   22.2290 O.3   166  A166       -0.3112
   3535  C2'       60.8050  -17.5160   23.9490 C.3   166  A166        0.2309
   3536  O2'       59.5180  -18.1010   24.0370 O.3   166  A166       -0.2156
   3537  C1'       61.2380  -17.2020   25.3810 C.3   166  A166        0.2408
   3538  N1        61.4530  -12.1030   24.6860 N.ar  166  A166       -0.2040
   3539  C2        60.4490  -12.9850   24.5770 C.ar  166  A166        0.2016
   3540  N3        60.4550  -14.3020   24.7890 N.ar  166  A166       -0.2048
   3541  C4        61.6850  -14.7210   25.1410 C.ar  166  A166        0.1692
   3542  C5        62.8170  -13.9380   25.2930 C.ar  166  A166        0.1518
   3543  C6        62.6740  -12.5560   25.0530 C.ar  166  A166        0.1919
   3544  N6        63.6750  -11.6780   25.1580 N.pl3 166  A166       -0.1054
   3545  N7        63.9070  -14.7150   25.6670 N.ar  166  A166       -0.2193
   3546  C8        63.4200  -15.9310   25.7270 C.ar  166  A166        0.1816
   3547  N9        62.0780  -16.0060   25.4300 N.ar  166  A166       -0.2693
   3548  OP1       66.3080  -20.8370   24.6810 O.2   166  A166       -0.5172
   3549  OP2       66.9460  -18.7660   26.0550 O.co2 166  A166       -0.4373
   3550  P         63.1370  -18.6430   21.1540 P.3   167  A167        0.2141
   3551  C5'       62.0490  -16.6430   19.8650 C.3   167  A167        0.1812
   3552  O5'       62.2240  -18.0620   19.9900 O.3   167  A167       -0.3114
   3553  C4'       60.5960  -16.2670   20.0010 C.3   167  A167        0.1773
   3554  O4'       60.3310  -15.7910   21.3470 O.3   167  A167       -0.3307
   3555  C3'       60.1770  -15.1350   19.0700 C.3   167  A167        0.1860
   3556  O3'       59.3270  -15.6960   18.0830 O.3   167  A167       -0.3112
   3557  C2'       59.4020  -14.1890   19.9810 C.3   167  A167        0.2309
   3558  O2'       58.0460  -14.5940   20.0240 O.3   167  A167       -0.2156
   3559  C1'       60.1130  -14.4000   21.3130 C.3   167  A167        0.2408
   3560  N1        62.8320   -9.9890   21.4480 N.ar  167  A167       -0.2040
   3561  C2        61.5240  -10.2250   21.2590 C.ar  167  A167        0.2016
   3562  N3        60.8690  -11.3850   21.2440 N.ar  167  A167       -0.2048
   3563  C4        61.7210  -12.4110   21.4060 C.ar  167  A167        0.1692
   3564  C5        63.0920  -12.3280   21.5920 C.ar  167  A167        0.1518
   3565  C6        63.6600  -11.0450   21.6080 C.ar  167  A167        0.1919
   3566  N6        64.9640  -10.8170   21.7630 N.pl3 167  A167       -0.1054
   3567  N7        63.6410  -13.5890   21.7570 N.ar  167  A167       -0.2193
   3568  C8        62.6140  -14.3960   21.6460 C.ar  167  A167        0.1816
   3569  N9        61.4200  -13.7510   21.4300 N.ar  167  A167       -0.2693
   3570  OP1       63.7610  -19.8680   20.6030 O.2   167  A167       -0.5172
   3571  OP2       64.0100  -17.5460   21.6550 O.co2 167  A167       -0.4373
   3572  P         59.8170  -15.8530   16.5650 P.3   168  U168        0.2141
   3573  C5'       58.3600  -13.5990   16.5690 C.3   168  U168        0.1812
   3574  O5'       59.1400  -14.5930   15.8470 O.3   168  U168       -0.3114
   3575  C4'       58.9570  -12.2230   16.3530 C.3   168  U168        0.1773
   3576  O4'       60.0180  -12.0190   17.3190 O.3   168  U168       -0.3307
   3577  C3'       59.6140  -12.0730   14.9850 C.3   168  U168        0.1860
   3578  O3'       59.1380  -11.1640   14.0060 O.3   168  U168       -0.3112
   3579  C2'       61.1040  -11.9610   15.2750 C.3   168  U168        0.2309
   3580  O2'       61.6430  -10.9870   14.4260 O.3   168  U168       -0.2156
   3581  C1'       61.1070  -11.3990   16.6850 C.3   168  U168        0.2420
   3582  N1        62.3370  -11.7660   17.3940 N.ar  168  U168       -0.2534
   3583  C2        63.1370  -10.7500   17.8910 C.ar  168  U168        0.3546
   3584  O2        62.8430   -9.5730   17.8070 O.2   168  U168       -0.2443
   3585  N3        64.2820  -11.1720   18.5170 N.ar  168  U168       -0.1530
   3586  C4        64.7120  -12.4690   18.6790 C.ar  168  U168        0.2846
   3587  O4        65.7740  -12.6860   19.2610 O.2   168  U168       -0.2650
   3588  C5        63.8360  -13.4600   18.1290 C.ar  168  U168        0.0814
   3589  C6        62.7110  -13.0830   17.5120 C.ar  168  U168        0.0870
   3590  OP1       58.9680  -16.9550   16.0440 O.2   168  U168       -0.5172
   3591  OP2       61.3180  -15.9350   16.4790 O.co2 168  U168       -0.4373
   3592  P         58.2660   -9.8960   14.0070 P.3   169  G169        0.2141
   3593  C5'       59.3990   -9.1880   11.6950 C.3   169  G169        0.1812
   3594  O5'       58.2110   -9.4990   12.4610 O.3   169  G169       -0.3114
   3595  C4'       59.1010   -9.0870   10.2140 C.3   169  G169        0.1773
   3596  O4'       59.2660  -10.4040    9.6110 O.3   169  G169       -0.3307
   3597  C3'       57.7020   -8.6750    9.8150 C.3   169  G169        0.1860
   3598  O3'       57.5000   -7.2780    9.9310 O.3   169  G169       -0.3112
   3599  C2'       57.6350   -9.2190    8.3900 C.3   169  G169        0.2309
   3600  O2'       58.1920   -8.4150    7.3550 O.3   169  G169       -0.2156
   3601  C1'       58.3510  -10.5770    8.5420 C.3   169  G169        0.2408
   3602  N1        54.6780  -13.8450    7.1200 N.ar  169  G169       -0.1709
   3603  C2        55.4300  -13.0180    6.3340 C.ar  169  G169        0.2606
   3604  N2        55.1690  -13.0780    5.0230 N.pl3 169  G169       -0.0859
   3605  N3        56.4020  -12.2360    6.7950 N.ar  169  G169       -0.1918
   3606  C4        56.5200  -12.3260    8.1380 C.ar  169  G169        0.1723
   3607  C5        55.8170  -13.1340    9.0060 C.ar  169  G169        0.1748
   3608  C6        54.8240  -13.9900    8.4920 C.ar  169  G169        0.3023
   3609  O6        54.1160  -14.7870    9.0980 O.2   169  G169       -0.2633
   3610  N7        56.2670  -12.9690   10.3080 N.ar  169  G169       -0.2173
   3611  C8        57.2110  -12.0720   10.2160 C.ar  169  G169        0.1817
   3612  N9        57.4230  -11.6410    8.9280 N.ar  169  G169       -0.2693
   3613  OP1       59.1980   -9.1000   14.8450 O.3   169  G169       -0.4373
   3614  OP2       56.8500  -10.1020   14.3840 O.co2 169  G169       -0.5172
   3615  P         56.1610   -6.5100   10.5120 P.3   170  G170        0.2141
   3616  C5'       55.2670   -6.1170    8.1120 C.3   170  G170        0.1812
   3617  O5'       55.0150   -6.6230    9.4100 O.3   170  G170       -0.3114
   3618  C4'       54.4780   -6.8680    7.0910 C.3   170  G170        0.1773
   3619  O4'       54.9170   -8.2580    7.0020 O.3   170  G170       -0.3307
   3620  C3'       53.0070   -6.9970    7.3940 C.3   170  G170        0.1860
   3621  O3'       52.3610   -5.7590    7.1260 O.3   170  G170       -0.3112
   3622  C2'       52.6290   -8.1100    6.4310 C.3   170  G170        0.2309
   3623  O2'       52.5780   -7.4700    5.1880 O.3   170  G170       -0.2156
   3624  C1'       53.8380   -9.0590    6.5520 C.3   170  G170        0.2408
   3625  N1        50.9590  -13.0810    7.5810 N.ar  170  G170       -0.1709
   3626  C2        51.1790  -12.4460    6.3870 C.ar  170  G170        0.2606
   3627  N2        50.5150  -12.9290    5.3170 N.pl3 170  G170       -0.0859
   3628  N3        52.0080  -11.4310    6.2360 N.ar  170  G170       -0.1918
   3629  C4        52.6140  -11.0970    7.3930 C.ar  170  G170        0.1723
   3630  C5        52.4740  -11.6740    8.6330 C.ar  170  G170        0.1748
   3631  C6        51.5970  -12.7810    8.7720 C.ar  170  G170        0.3023
   3632  O6        51.3420  -13.4360    9.7790 O.2   170  G170       -0.2633
   3633  N7        53.2770  -11.0330    9.5700 N.ar  170  G170       -0.2173
   3634  C8        53.8630  -10.0790    8.8960 C.ar  170  G170        0.1817
   3635  N9        53.5090  -10.0640    7.5670 N.ar  170  G170       -0.2693
   3636  OP1       56.6070   -5.0860   10.6250 O.2   170  G170       -0.5172
   3637  OP2       55.5880   -7.1180   11.7130 O.co2 170  G170       -0.4373
   3638  P         51.0210   -5.4250    7.9110 P.3   171  A171        0.2141
   3639  C5'       49.5390   -6.2670    5.9700 C.3   171  A171        0.1812
   3640  O5'       49.9060   -6.3840    7.3180 O.3   171  A171       -0.3114
   3641  C4'       48.6430   -7.4080    5.6350 C.3   171  A171        0.1773
   3642  O4'       49.3080   -8.6550    5.9590 O.3   171  A171       -0.3307
   3643  C3'       47.3830   -7.5100    6.4800 C.3   171  A171        0.1860
   3644  O3'       46.3570   -6.6360    6.0390 O.3   171  A171       -0.3112
   3645  C2'       46.9750   -8.9390    6.1920 C.3   171  A171        0.2309
   3646  O2'       46.5910   -9.0050    4.8510 O.3   171  A171       -0.2156
   3647  C1'       48.3270   -9.6400    6.2060 C.3   171  A171        0.2408
   3648  N1        47.0470  -13.3240    9.5280 N.ar  171  A171       -0.2040
   3649  C2        46.5870  -13.0150    8.3100 C.ar  171  A171        0.2016
   3650  N3        46.9760  -12.0500    7.4860 N.ar  171  A171       -0.2048
   3651  C4        47.9430  -11.3030    8.0550 C.ar  171  A171        0.1692
   3652  C5        48.4840  -11.4710    9.3130 C.ar  171  A171        0.1518
   3653  C6        48.0180  -12.5590   10.0660 C.ar  171  A171        0.1919
   3654  N6        48.4600  -12.8620   11.2850 N.pl3 171  A171       -0.1054
   3655  N7        49.4440  -10.5030    9.5650 N.ar  171  A171       -0.2193
   3656  C8        49.4520   -9.7760    8.4740 C.ar  171  A171        0.1816
   3657  N9        48.5820  -10.2110    7.5160 N.ar  171  A171       -0.2693
   3658  OP1       50.5760   -4.1480    7.4150 O.2   171  A171       -0.5172
   3659  OP2       51.0800   -5.6570    9.3640 O.co2 171  A171       -0.4373
   3660  P         45.6170   -5.7470    7.1120 P.3   172  U172        0.2141
   3661  C5'       43.6610   -7.4710    6.6950 C.3   172  U172        0.1812
   3662  O5'       44.3690   -6.6050    7.6330 O.3   172  U172       -0.3114
   3663  C4'       43.0380   -8.6610    7.3940 C.3   172  U172        0.1773
   3664  O4'       44.0810   -9.5770    7.7580 O.3   172  U172       -0.3307
   3665  C3'       42.4060   -8.3720    8.7350 C.3   172  U172        0.1860
   3666  O3'       41.0870   -7.9360    8.5130 O.3   172  U172       -0.3112
   3667  C2'       42.3930   -9.7400    9.4050 C.3   172  U172        0.2309
   3668  O2'       41.2670  -10.5510    9.1910 O.3   172  U172       -0.2156
   3669  C1'       43.6330  -10.4040    8.8140 C.3   172  U172        0.2420
   3670  N1        44.6630  -10.4420    9.8540 N.ar  172  U172       -0.2534
   3671  C2        44.5600  -11.4400   10.7980 C.ar  172  U172        0.3546
   3672  O2        43.7290  -12.3250   10.7310 O.2   172  U172       -0.2443
   3673  N3        45.4870  -11.3760   11.8080 N.ar  172  U172       -0.1530
   3674  C4        46.4680  -10.4190   11.9810 C.ar  172  U172        0.2846
   3675  O4        47.2260  -10.4960   12.9440 O.2   172  U172       -0.2650
   3676  C5        46.5020   -9.4140   10.9690 C.ar  172  U172        0.0814
   3677  C6        45.6150   -9.4520    9.9690 C.ar  172  U172        0.0870
   3678  OP1       45.2830   -4.7100    6.0980 O.2   172  U172       -0.5172
   3679  OP2       46.5050   -5.4370    8.2500 O.co2 172  U172       -0.4373
   3680  P         40.6500   -6.5160    9.0910 P.3   173  G173        0.2141
   3681  C5'       39.7190   -7.6970   11.2000 C.3   173  G173        0.1812
   3682  O5'       40.6080   -6.7450   10.6620 O.3   173  G173       -0.3114
   3683  C4'       40.0790   -7.9110   12.6400 C.3   173  G173        0.1773
   3684  O4'       41.4200   -8.4250   12.7130 O.3   173  G173       -0.3307
   3685  C3'       40.2060   -6.6760   13.4960 C.3   173  G173        0.1860
   3686  O3'       38.8790   -6.3440   13.8590 O.3   173  G173       -0.3112
   3687  C2'       40.9980   -7.2100   14.6860 C.3   173  G173        0.2309
   3688  O2'       40.0940   -7.8150   15.5880 O.3   173  G173       -0.2156
   3689  C1'       41.8960   -8.2670   14.0290 C.3   173  G173        0.2408
   3690  N1        46.5840   -8.4820   15.9440 N.ar  173  G173       -0.1709
   3691  C2        45.4310   -9.0330   16.4400 C.ar  173  G173        0.2606
   3692  N2        45.5430   -9.6940   17.6040 N.pl3 173  G173       -0.0859
   3693  N3        44.2430   -8.8730   15.8800 N.ar  173  G173       -0.1918
   3694  C4        44.3250   -8.1650   14.7360 C.ar  173  G173        0.1723
   3695  C5        45.4420   -7.6170   14.1400 C.ar  173  G173        0.1748
   3696  C6        46.6840   -7.7690   14.7560 C.ar  173  G173        0.3023
   3697  O6        47.7800   -7.3500   14.3780 O.2   173  G173       -0.2633
   3698  N7        45.1120   -6.9980   12.9460 N.ar  173  G173       -0.2173
   3699  C8        43.8250   -7.1860   12.8320 C.ar  173  G173        0.1817
   3700  N9        43.2840   -7.8790   13.8910 N.ar  173  G173       -0.2693
   3701  OP1       39.2880   -6.4550    8.5090 O.2   173  G173       -0.5172
   3702  OP2       41.6290   -5.4150    8.8810 O.co2 173  G173       -0.4373
   3703  P         38.3640   -4.8070   13.6700 P.3   174  A174        0.2141
   3704  C5'       36.9590   -4.8010   15.9140 C.3   174  A174        0.1812
   3705  O5'       38.1610   -4.4710   15.2230 O.3   174  A174       -0.3114
   3706  C4'       37.1530   -5.6440   17.1670 C.3   174  A174        0.1773
   3707  O4'       38.2040   -6.6550   17.1110 O.3   174  A174       -0.3307
   3708  C3'       37.4820   -4.9670   18.4880 C.3   174  A174        0.1860
   3709  O3'       36.4960   -3.9950   18.9120 O.3   174  A174       -0.3112
   3710  C2'       37.6330   -6.2040   19.3670 C.3   174  A174        0.2309
   3711  O2'       36.3370   -6.7120   19.5110 O.3   174  A174       -0.2156
   3712  C1'       38.3550   -7.1770   18.4210 C.3   174  A174        0.2408
   3713  N1        41.5840   -9.4170   21.6180 N.ar  174  A174       -0.2040
   3714  C2        40.2950   -9.6190   21.3320 C.ar  174  A174        0.2016
   3715  N3        39.5280   -9.0080   20.4470 N.ar  174  A174       -0.2048
   3716  C4        40.2190   -8.0520   19.8060 C.ar  174  A174        0.1692
   3717  C5        41.5530   -7.7310   19.9850 C.ar  174  A174        0.1518
   3718  C6        42.2560   -8.4660   20.9390 C.ar  174  A174        0.1919
   3719  N6        43.5400   -8.2610   21.2320 N.pl3 174  A174       -0.1054
   3720  N7        41.9280   -6.6910   19.1460 N.ar  174  A174       -0.2193
   3721  C8        40.8330   -6.4300   18.4610 C.ar  174  A174        0.1816
   3722  N9        39.7630   -7.2240   18.8060 N.ar  174  A174       -0.2693
   3723  OP1       37.2340   -4.9100   12.6930 O.2   174  A174       -0.5172
   3724  OP2       39.5290   -3.9270   13.3500 O.co2 174  A174       -0.4373
   3725  P         36.7430   -2.7190   19.9320 P.3   175  G175        0.2141
   3726  C5'       37.1180   -3.9960   22.2290 C.3   175  G175        0.1812
   3727  O5'       37.6460   -3.1870   21.1570 O.3   175  G175       -0.3114
   3728  C4'       38.2500   -4.6860   22.9750 C.3   175  G175        0.1773
   3729  O4'       39.1720   -5.3340   22.0440 O.3   175  G175       -0.3307
   3730  C3'       39.1660   -3.7710   23.7460 C.3   175  G175        0.1860
   3731  O3'       38.5030   -3.3910   24.9370 O.3   175  G175       -0.3112
   3732  C2'       40.3910   -4.6630   23.9430 C.3   175  G175        0.2309
   3733  O2'       40.2210   -5.6120   24.9800 O.3   175  G175       -0.2156
   3734  C1'       40.4970   -5.3110   22.5690 C.3   175  G175        0.2408
   3735  N1        45.1970   -3.7780   21.3490 N.ar  175  G175       -0.1709
   3736  C2        44.7820   -4.5510   22.4050 C.ar  175  G175        0.2606
   3737  N2        45.7420   -4.9630   23.2360 N.pl3 175  G175       -0.0859
   3738  N3        43.5160   -4.8840   22.6300 N.ar  175  G175       -0.1918
   3739  C4        42.6900   -4.3870   21.6860 C.ar  175  G175        0.1723
   3740  C5        43.0000   -3.5790   20.6100 C.ar  175  G175        0.1748
   3741  C6        44.3570   -3.2250   20.3870 C.ar  175  G175        0.3023
   3742  O6        44.8360   -2.5500   19.4710 O.2   175  G175       -0.2633
   3743  N7        41.8590   -3.2650   19.8840 N.ar  175  G175       -0.2173
   3744  C8        40.8880   -3.8370   20.5440 C.ar  175  G175        0.1817
   3745  N9        41.3280   -4.5560   21.6350 N.ar  175  G175       -0.2693
   3746  OP1       35.3920   -2.2890   20.3380 O.3   175  G175       -0.4373
   3747  OP2       37.6440   -1.7720   19.1810 O.co2 175  G175       -0.5172
   3748  P         39.2000   -2.2330   25.8090 P.3   176  U176        0.2141
   3749  C5'       40.8760   -3.6350   27.2520 C.3   176  U176        0.1812
   3750  O5'       40.6780   -2.6240   26.2600 O.3   176  U176       -0.3114
   3751  C4'       42.3390   -3.7300   27.5750 C.3   176  U176        0.1773
   3752  O4'       43.0710   -4.0770   26.3700 O.3   176  U176       -0.3307
   3753  C3'       42.9800   -2.4250   28.0020 C.3   176  U176        0.1860
   3754  O3'       42.7250   -2.1960   29.3680 O.3   176  U176       -0.3112
   3755  C2'       44.4450   -2.6890   27.6940 C.3   176  U176        0.2309
   3756  O2'       45.1020   -3.6780   28.4640 O.3   176  U176       -0.2156
   3757  C1'       44.3180   -3.3900   26.3570 C.3   176  U176        0.2420
   3758  N1        44.3600   -2.4950   25.1950 N.ar  176  U176       -0.2534
   3759  C2        45.5980   -2.0370   24.8140 C.ar  176  U176        0.3546
   3760  O2        46.6050   -2.2700   25.4480 O.2   176  U176       -0.2443
   3761  N3        45.6060   -1.2640   23.6830 N.ar  176  U176       -0.1530
   3762  C4        44.5270   -0.9160   22.9050 C.ar  176  U176        0.2846
   3763  O4        44.7000   -0.2220   21.9020 O.2   176  U176       -0.2650
   3764  C5        43.2760   -1.4400   23.3590 C.ar  176  U176        0.0814
   3765  C6        43.2360   -2.1900   24.4650 C.ar  176  U176        0.0870
   3766  OP1       38.3620   -2.2070   27.0310 O.3   176  U176       -0.4373
   3767  OP2       39.3130   -1.0780   24.8800 O.co2 176  U176       -0.5172
   3768  P         42.6380   -0.6780   29.8390 P.3   177  U177        0.2141
   3769  C5'       45.1250   -0.5380   30.7180 C.3   177  U177        0.1812
   3770  O5'       44.1580   -0.2140   29.7100 O.3   177  U177       -0.3114
   3771  C4'       46.4890   -0.1820   30.2040 C.3   177  U177        0.1773
   3772  O4'       46.5670   -0.5610   28.8090 O.3   177  U177       -0.3307
   3773  C3'       46.8120    1.3020   30.1550 C.3   177  U177        0.1860
   3774  O3'       47.2030    1.8500   31.4090 O.3   177  U177       -0.3112
   3775  C2'       47.9550    1.3280   29.1530 C.3   177  U177        0.2309
   3776  O2'       49.1720    0.8130   29.6610 O.3   177  U177       -0.2156
   3777  C1'       47.4660    0.3060   28.1320 C.3   177  U177        0.2420
   3778  N1        46.7930    0.8900   26.9620 N.ar  177  U177       -0.2534
   3779  C2        47.5990    1.4810   26.0110 C.ar  177  U177        0.3546
   3780  O2        48.8050    1.5720   26.1340 O.2   177  U177       -0.2443
   3781  N3        46.9370    1.9690   24.9150 N.ar  177  U177       -0.1530
   3782  C4        45.5840    1.9180   24.6660 C.ar  177  U177        0.2846
   3783  O4        45.1400    2.4100   23.6270 O.2   177  U177       -0.2650
   3784  C5        44.8160    1.2890   25.6960 C.ar  177  U177        0.0814
   3785  C6        45.4320    0.8080   26.7830 C.ar  177  U177        0.0870
   3786  OP1       42.2180   -0.7530   31.2720 O.3   177  U177       -0.4373
   3787  OP2       41.8270    0.0810   28.8440 O.co2 177  U177       -0.5172
   3788  P         46.7570    3.3380   31.8410 P.3   178  U178        0.2141
   3789  C5'       49.2130    4.0390   31.1820 C.3   178  U178        0.1812
   3790  O5'       47.7940    4.1620   30.9590 O.3   178  U178       -0.3114
   3791  C4'       49.9510    4.7450   30.0740 C.3   178  U178        0.1773
   3792  O4'       49.5570    4.1670   28.8040 O.3   178  U178       -0.3307
   3793  C3'       49.6260    6.2230   29.9010 C.3   178  U178        0.1860
   3794  O3'       50.3280    7.0160   30.8610 O.3   178  U178       -0.3112
   3795  C2'       50.0200    6.4760   28.4440 C.3   178  U178        0.2309
   3796  O2'       51.3890    6.6450   28.1410 O.3   178  U178       -0.2156
   3797  C1'       49.6680    5.1440   27.7870 C.3   178  U178        0.2420
   3798  N1        48.4090    5.1800   27.0380 N.ar  178  U178       -0.2534
   3799  C2        48.4730    5.6020   25.7250 C.ar  178  U178        0.3546
   3800  O2        49.5150    5.9440   25.1920 O.2   178  U178       -0.2443
   3801  N3        47.2710    5.6020   25.0610 N.ar  178  U178       -0.1530
   3802  C4        46.0380    5.2420   25.5660 C.ar  178  U178        0.2846
   3803  O4        45.0480    5.2910   24.8370 O.2   178  U178       -0.2650
   3804  C5        46.0550    4.8210   26.9340 C.ar  178  U178        0.0814
   3805  C6        47.2130    4.7970   27.6040 C.ar  178  U178        0.0870
   3806  OP1       47.2630    3.5160   33.2210 O.3   178  U178       -0.4373
   3807  OP2       45.3240    3.6410   31.4940 O.co2 178  U178       -0.5172
   3808  P         49.9110    8.5240   31.2250 P.3   179  G179        0.2141
   3809  C5'       49.5040    7.5770   33.6630 C.3   179  G179        0.1812
   3810  O5'       50.1040    8.5690   32.8070 O.3   179  G179       -0.3114
   3811  C4'       50.3680    7.3350   34.8810 C.3   179  G179        0.1773
   3812  O4'       51.6590    6.8080   34.4670 O.3   179  G179       -0.3307
   3813  C3'       50.7250    8.5600   35.7030 C.3   179  G179        0.1860
   3814  O3'       49.7160    8.8760   36.6440 O.3   179  G179       -0.3112
   3815  C2'       51.9820    8.0980   36.4160 C.3   179  G179        0.2309
   3816  O2'       51.6500    7.1730   37.4230 O.3   179  G179       -0.2156
   3817  C1'       52.6810    7.3290   35.3010 C.3   179  G179        0.2408
   3818  N1        57.2050    9.6110   35.0560 N.ar  179  G179       -0.1709
   3819  C2        56.6570    8.8650   36.0710 C.ar  179  G179        0.2606
   3820  N2        57.4200    8.6970   37.1620 N.pl3 179  G179       -0.0859
   3821  N3        55.4510    8.3200   36.0190 N.ar  179  G179       -0.1918
   3822  C4        54.8270    8.5840   34.8510 C.ar  179  G179        0.1723
   3823  C5        55.2830    9.3220   33.7780 C.ar  179  G179        0.1748
   3824  C6        56.5780    9.9020   33.8470 C.ar  179  G179        0.3023
   3825  O6        57.1630   10.5870   33.0000 O.2   179  G179       -0.2633
   3826  N7        54.3340    9.3570   32.7640 N.ar  179  G179       -0.2173
   3827  C8        53.3380    8.6540   33.2310 C.ar  179  G179        0.1817
   3828  N9        53.5740    8.1520   34.4900 N.ar  179  G179       -0.2693
   3829  OP1       48.4780    8.8370   30.9450 O.3   179  G179       -0.4373
   3830  OP2       50.9890    9.3150   30.5700 O.co2 179  G179       -0.5172
   3831  P         49.2370   10.3990   36.7190 P.3   180  C180        0.2141
   3832  C5'       46.6940   10.5890   36.0530 C.3   180  C180        0.1812
   3833  O5'       48.0550   10.4130   35.6500 O.3   180  C180       -0.3114
   3834  C4'       46.0230    9.2670   36.3640 C.3   180  C180        0.1773
   3835  O4'       46.9660    8.2430   36.7600 O.3   180  C180       -0.3307
   3836  C3'       45.0870    9.2960   37.5520 C.3   180  C180        0.1860
   3837  O3'       43.8830    9.9340   37.1780 O.3   180  C180       -0.3112
   3838  C2'       44.8870    7.8170   37.8230 C.3   180  C180        0.2309
   3839  O2'       43.9750    7.2890   36.8960 O.3   180  C180       -0.2156
   3840  C1'       46.2870    7.2720   37.5460 C.3   180  C180        0.2420
   3841  N1        47.0510    7.0460   38.7820 N.ar  180  C180       -0.2535
   3842  C2        46.7950    5.8960   39.5410 C.ar  180  C180        0.3532
   3843  O2        45.9320    5.0980   39.1480 O.2   180  C180       -0.2443
   3844  N3        47.5060    5.6770   40.6710 N.ar  180  C180       -0.1739
   3845  C4        48.4310    6.5600   41.0580 C.ar  180  C180        0.1759
   3846  N4        49.1040    6.3100   42.1840 N.pl3 180  C180       -0.1070
   3847  C5        48.7040    7.7430   40.3090 C.ar  180  C180        0.0566
   3848  C6        47.9950    7.9460   39.1910 C.ar  180  C180        0.0850
   3849  OP1       50.3250   11.2880   36.2210 O.2   180  C180       -0.5172
   3850  OP2       48.6770   10.6120   38.0770 O.co2 180  C180       -0.4373
   3851  P         43.8370   11.5110   37.4140 P.3   181  A181        0.2141
   3852  C5'       42.3630   10.6230   39.4130 C.3   181  A181        0.1812
   3853  O5'       42.5930   11.6250   38.4040 O.3   181  A181       -0.3114
   3854  C4'       40.8840   10.3950   39.5860 C.3   181  A181        0.1773
   3855  O4'       40.2310   11.6830   39.7570 O.3   181  A181       -0.3307
   3856  C3'       40.1540    9.7620   38.4020 C.3   181  A181        0.1860
   3857  O3'       40.2790    8.3430   38.3260 O.3   181  A181       -0.3112
   3858  C2'       38.7290   10.2500   38.6360 C.3   181  A181        0.2309
   3859  O2'       38.0830    9.6000   39.7120 O.3   181  A181       -0.2156
   3860  C1'       38.9940   11.6950   39.0550 C.3   181  A181        0.2408
   3861  N1        36.4240   14.1130   35.3290 N.ar  181  A181       -0.2040
   3862  C2        36.0320   13.2850   36.3130 C.ar  181  A181        0.2016
   3863  N3        36.7620   12.6930   37.2590 N.ar  181  A181       -0.2048
   3864  C4        38.0590   13.0290   37.1320 C.ar  181  A181        0.1692
   3865  C5        38.6130   13.8670   36.1780 C.ar  181  A181        0.1518
   3866  C6        37.7350   14.4340   35.2380 C.ar  181  A181        0.1919
   3867  N6        38.1260   15.2600   34.2630 N.pl3 181  A181       -0.1054
   3868  N7        39.9860   13.9680   36.3510 N.ar  181  A181       -0.2193
   3869  C8        40.2270   13.2110   37.3950 C.ar  181  A181        0.1816
   3870  N9        39.1040   12.6150   37.9200 N.ar  181  A181       -0.2693
   3871  OP1       43.4600   12.0990   36.1060 O.2   181  A181       -0.5172
   3872  OP2       45.1070   11.9320   38.0990 O.co2 181  A181       -0.4373
   3873  P         40.6600    7.6130   36.9390 P.3   182  U182        0.2141
   3874  C5'       38.0670    7.2030   36.7600 C.3   182  U182        0.1812
   3875  O5'       39.2900    7.6270   36.1250 O.3   182  U182       -0.3114
   3876  C4'       36.8850    7.6030   35.9280 C.3   182  U182        0.1773
   3877  O4'       36.7040    9.0460   35.9730 O.3   182  U182       -0.3307
   3878  C3'       37.0250    7.3300   34.4440 C.3   182  U182        0.1860
   3879  O3'       36.8570    5.9510   34.1600 O.3   182  U182       -0.3112
   3880  C2'       35.9330    8.2310   33.8880 C.3   182  U182        0.2309
   3881  O2'       34.6850    7.5960   34.0880 O.3   182  U182       -0.2156
   3882  C1'       36.1250    9.4890   34.7480 C.3   182  U182        0.2420
   3883  N1        37.0280   10.4800   34.1330 N.ar  182  U182       -0.2534
   3884  C2        36.5130   11.3290   33.1610 C.ar  182  U182        0.3546
   3885  O2        35.3470   11.3070   32.8070 O.2   182  U182       -0.2443
   3886  N3        37.4190   12.2130   32.6280 N.ar  182  U182       -0.1530
   3887  C4        38.7580   12.3350   32.9470 C.ar  182  U182        0.2846
   3888  O4        39.4430   13.1800   32.3680 O.2   182  U182       -0.2650
   3889  C5        39.2160   11.4250   33.9580 C.ar  182  U182        0.0814
   3890  C6        38.3580   10.5500   34.5010 C.ar  182  U182        0.0870
   3891  OP1       40.9530    6.1970   37.2940 O.3   182  U182       -0.4373
   3892  OP2       41.6740    8.4230   36.2060 O.co2 182  U182       -0.5172
   3893  P         37.4980    5.2380   32.8630 P.3   183  A183        0.2141
   3894  C5'       35.4220    5.4920   31.2920 C.3   183  A183        0.1812
   3895  O5'       36.7530    5.8840   31.6150 O.3   183  A183       -0.3114
   3896  C4'       34.8970    6.4070   30.2230 C.3   183  A183        0.1773
   3897  O4'       34.8330    7.7830   30.6960 O.3   183  A183       -0.3307
   3898  C3'       35.7230    6.5680   28.9560 C.3   183  A183        0.1860
   3899  O3'       35.7020    5.4370   28.0980 O.3   183  A183       -0.3112
   3900  C2'       34.9880    7.7470   28.3530 C.3   183  A183        0.2309
   3901  O2'       33.7010    7.2760   27.9730 O.3   183  A183       -0.2156
   3902  C1'       34.9020    8.6590   29.5800 C.3   183  A183        0.2408
   3903  N1        37.4190   12.7790   27.7970 N.ar  183  A183       -0.2040
   3904  C2        36.2450   12.2260   27.4630 C.ar  183  A183        0.2016
   3905  N3        35.6420   11.1510   27.9730 N.ar  183  A183       -0.2048
   3906  C4        36.3840   10.6150   28.9600 C.ar  183  A183        0.1692
   3907  C5        37.6130   11.0670   29.4130 C.ar  183  A183        0.1518
   3908  C6        38.1470   12.2070   28.7820 C.ar  183  A183        0.1919
   3909  N6        39.3130   12.7640   29.1180 N.pl3 183  A183       -0.1054
   3910  N7        38.0790   10.2660   30.4470 N.ar  183  A183       -0.2193
   3911  C8        37.1430    9.3570   30.5890 C.ar  183  A183        0.1816
   3912  N9        36.0870    9.5100   29.7240 N.ar  183  A183       -0.2693
   3913  OP1       37.0460    3.8190   32.9560 O.3   183  A183       -0.4373
   3914  OP2       38.9320    5.5630   32.6310 O.co2 183  A183       -0.5172
   3915  P         36.7950    5.2560   26.9340 P.3   184  A184        0.2141
   3916  C5'       35.2760    6.2470   25.0600 C.3   184  A184        0.1812
   3917  O5'       36.4640    6.3680   25.8430 O.3   184  A184       -0.3114
   3918  C4'       35.0910    7.4550   24.1800 C.3   184  A184        0.1773
   3919  O4'       35.2200    8.6660   24.9630 O.3   184  A184       -0.3307
   3920  C3'       36.1170    7.6320   23.0750 C.3   184  A184        0.1860
   3921  O3'       35.8010    6.7730   21.9770 O.3   184  A184       -0.3112
   3922  C2'       35.9650    9.1150   22.7770 C.3   184  A184        0.2309
   3923  O2'       34.7210    9.3550   22.1420 O.3   184  A184       -0.2156
   3924  C1'       35.8350    9.6770   24.1860 C.3   184  A184        0.2408
   3925  N1        39.7350   13.0430   24.5570 N.ar  184  A184       -0.2040
   3926  C2        38.6950   12.9690   23.7100 C.ar  184  A184        0.2016
   3927  N3        37.7170   12.0620   23.6510 N.ar  184  A184       -0.2048
   3928  C4        37.8750   11.1330   24.6110 C.ar  184  A184        0.1692
   3929  C5        38.8930   11.0740   25.5510 C.ar  184  A184        0.1518
   3930  C6        39.8630   12.0900   25.5080 C.ar  184  A184        0.1919
   3931  N6        40.9070   12.1480   26.3390 N.pl3 184  A184       -0.1054
   3932  N7        38.7400    9.9660   26.3710 N.ar  184  A184       -0.2193
   3933  C8        37.6500    9.3930   25.9240 C.ar  184  A184        0.1816
   3934  N9        37.0840   10.0360   24.8490 N.ar  184  A184       -0.2693
   3935  OP1       36.5280    3.8950   26.3770 O.2   184  A184       -0.5172
   3936  OP2       38.1470    5.5730   27.4510 O.co2 184  A184       -0.4373
   3937  P         37.0810    6.1390   21.2190 P.3   185  C185        0.2141
   3938  C5'       37.0610    8.1400   19.4220 C.3   185  C185        0.1812
   3939  O5'       37.7120    7.4370   20.5250 O.3   185  C185       -0.3114
   3940  C4'       37.8640    9.3690   19.0450 C.3   185  C185        0.1773
   3941  O4'       38.0190   10.2500   20.2000 O.3   185  C185       -0.3307
   3942  C3'       39.2990    9.1100   18.6140 C.3   185  C185        0.1860
   3943  O3'       39.3430    8.6520   17.2690 O.3   185  C185       -0.3112
   3944  C2'       39.9480   10.4760   18.8330 C.3   185  C185        0.2309
   3945  O2'       39.6680   11.4200   17.8270 O.3   185  C185       -0.2156
   3946  C1'       39.2530   10.9480   20.1110 C.3   185  C185        0.2420
   3947  N1        40.0470   10.6650   21.3180 N.ar  185  C185       -0.2535
   3948  C2        41.0930   11.5330   21.6550 C.ar  185  C185        0.3532
   3949  O2        41.3020   12.5250   20.9410 O.2   185  C185       -0.2443
   3950  N3        41.8360   11.2770   22.7570 N.ar  185  C185       -0.1739
   3951  C4        41.5910   10.1880   23.4900 C.ar  185  C185        0.1759
   3952  N4        42.3530    9.9720   24.5650 N.pl3 185  C185       -0.1070
   3953  C5        40.5390    9.2810   23.1650 C.ar  185  C185        0.0566
   3954  C6        39.7980    9.5570   22.0820 C.ar  185  C185        0.0850
   3955  OP1       36.6780    5.2210   20.0860 O.2   185  C185       -0.5172
   3956  OP2       37.9270    5.6130   22.3520 O.co2 185  C185       -0.4373
   3957  P         40.5810    7.8060   16.7110 P.3   186  A186        0.2141
   3958  C5'       41.9630    9.6570   15.4860 C.3   186  A186        0.1812
   3959  O5'       41.8270    8.7880   16.6210 O.3   186  A186       -0.3114
   3960  C4'       43.1090   10.5890   15.7360 C.3   186  A186        0.1773
   3961  O4'       42.9020   11.2610   17.0100 O.3   186  A186       -0.3307
   3962  C3'       44.4530    9.8920   15.9060 C.3   186  A186        0.1860
   3963  O3'       44.9970    9.5200   14.6460 O.3   186  A186       -0.3112
   3964  C2'       45.2310   10.9100   16.7330 C.3   186  A186        0.2309
   3965  O2'       45.8010   12.0180   16.0660 O.3   186  A186       -0.2156
   3966  C1'       44.1410   11.4050   17.6840 C.3   186  A186        0.2408
   3967  N1        46.5840   10.2870   22.0450 N.ar  186  A186       -0.2040
   3968  C2        46.8650   11.1250   21.0390 C.ar  186  A186        0.2016
   3969  N3        46.1750   11.3660   19.9260 N.ar  186  A186       -0.2048
   3970  C4        45.0590   10.6190   19.8890 C.ar  186  A186        0.1692
   3971  C5        44.6330    9.7180   20.8450 C.ar  186  A186        0.1518
   3972  C6        45.4480    9.5570   21.9790 C.ar  186  A186        0.1919
   3973  N6        45.1610    8.7310   22.9880 N.pl3 186  A186       -0.1054
   3974  N7        43.4280    9.1390   20.4720 N.ar  186  A186       -0.2193
   3975  C8        43.1560    9.6970   19.3160 C.ar  186  A186        0.1816
   3976  N9        44.0950   10.6120   18.9100 N.ar  186  A186       -0.2693
   3977  OP1       40.2240    7.4960   15.3010 O.2   186  A186       -0.5172
   3978  OP2       40.9170    6.7200   17.6700 O.co2 186  A186       -0.4373
   3979  P         45.5010    8.0110   14.4050 P.3   187  A187        0.2141
   3980  C5'       47.7750    9.2670   14.8270 C.3   187  A187        0.1812
   3981  O5'       46.8930    8.1770   15.1670 O.3   187  A187       -0.3114
   3982  C4'       48.8910    9.3490   15.8320 C.3   187  A187        0.1773
   3983  O4'       48.3440    9.7700   17.1080 O.3   187  A187       -0.3307
   3984  C3'       49.5880    8.0290   16.1430 C.3   187  A187        0.1860
   3985  O3'       50.5980    7.7450   15.1820 O.3   187  A187       -0.3112
   3986  C2'       50.1400    8.2860   17.5420 C.3   187  A187        0.2309
   3987  O2'       51.3140    9.0710   17.5960 O.3   187  A187       -0.2156
   3988  C1'       49.0010    9.0850   18.1690 C.3   187  A187        0.2408
   3989  N1        47.8060    6.6320   22.5380 N.ar  187  A187       -0.2040
   3990  C2        48.8700    7.3630   22.1790 C.ar  187  A187        0.2016
   3991  N3        49.1200    7.9790   21.0220 N.ar  187  A187       -0.2048
   3992  C4        48.1150    7.7760   20.1500 C.ar  187  A187        0.1692
   3993  C5        46.9540    7.0550   20.3760 C.ar  187  A187        0.1518
   3994  C6        46.8090    6.4560   21.6390 C.ar  187  A187        0.1919
   3995  N6        45.7420    5.7420   21.9990 N.pl3 187  A187       -0.1054
   3996  N7        46.1250    7.0990   19.2650 N.ar  187  A187       -0.2193
   3997  C8        46.8010    7.8130   18.3960 C.ar  187  A187        0.1816
   3998  N9        48.0160    8.2520   18.8650 N.ar  187  A187       -0.2693
   3999  OP1       45.8180    7.8980   12.9610 O.2   187  A187       -0.5172
   4000  OP2       44.5870    7.0010   15.0120 O.co2 187  A187       -0.4373
   4001  P         50.8900    6.2630   14.6310 P.3   188  A188        0.2141
   4002  C5'       52.8900    5.6160   16.1760 C.3   188  A188        0.1812
   4003  O5'       51.4820    5.5240   15.9080 O.3   188  A188       -0.3114
   4004  C4'       53.1790    5.4160   17.6450 C.3   188  A188        0.1773
   4005  O4'       52.1620    6.0290   18.4880 O.3   188  A188       -0.3307
   4006  C3'       53.2110    3.9760   18.1300 C.3   188  A188        0.1860
   4007  O3'       54.4320    3.3730   17.7180 O.3   188  A188       -0.3112
   4008  C2'       53.0930    4.1720   19.6360 C.3   188  A188        0.2309
   4009  O2'       54.3140    4.6000   20.2090 O.3   188  A188       -0.2156
   4010  C1'       52.0810    5.3220   19.7190 C.3   188  A188        0.2408
   4011  N1        48.7870    3.0040   22.9100 N.ar  188  A188       -0.2040
   4012  C2        50.0730    3.3520   23.0380 C.ar  188  A188        0.2016
   4013  N3        50.8750    3.9570   22.1630 N.ar  188  A188       -0.2048
   4014  C4        50.2150    4.2260   21.0230 C.ar  188  A188        0.1692
   4015  C5        48.8950    3.9250   20.7390 C.ar  188  A188        0.1518
   4016  C6        48.1560    3.2790   21.7470 C.ar  188  A188        0.1919
   4017  N6        46.8780    2.9190   21.6150 N.pl3 188  A188       -0.1054
   4018  N7        48.5610    4.3410   19.4570 N.ar  188  A188       -0.2193
   4019  C8        49.6690    4.8760   19.0020 C.ar  188  A188        0.1816
   4020  N9        50.7080    4.8460   19.9010 N.ar  188  A188       -0.2693
   4021  OP1       52.0540    6.3990   13.7140 O.2   188  A188       -0.5172
   4022  OP2       49.6470    5.5860   14.1680 O.co2 188  A188       -0.4373
   4023  P         54.4090    1.8410   17.2440 P.3   189  A189        0.2141
   4024  C5'       55.5550    0.9500   19.4460 C.3   189  A189        0.1812
   4025  O5'       54.4010    0.9810   18.5870 O.3   189  A189       -0.3114
   4026  C4'       55.1960    0.3680   20.7920 C.3   189  A189        0.1773
   4027  O4'       54.1090    1.1330   21.3870 O.3   189  A189       -0.3307
   4028  C3'       54.6520   -1.0520   20.7440 C.3   189  A189        0.1860
   4029  O3'       55.6630   -2.0370   20.5510 O.3   189  A189       -0.3112
   4030  C2'       53.8840   -1.1220   22.0560 C.3   189  A189        0.2309
   4031  O2'       54.7740   -1.3360   23.1350 O.3   189  A189       -0.2156
   4032  C1'       53.2320    0.2610   22.0860 C.3   189  A189        0.2408
   4033  N1        48.1970   -0.5510   22.7470 N.ar  189  A189       -0.2040
   4034  C2        49.2500   -0.6910   23.5610 C.ar  189  A189        0.2016
   4035  N3        50.5400   -0.4760   23.3150 N.ar  189  A189       -0.2048
   4036  C4        50.7170   -0.0300   22.0590 C.ar  189  A189        0.1692
   4037  C5        49.7370    0.1650   21.1040 C.ar  189  A189        0.1518
   4038  C6        48.4100   -0.1220   21.4830 C.ar  189  A189        0.1919
   4039  N6        47.3580    0.0090   20.6700 N.pl3 189  A189       -0.1054
   4040  N7        50.2920    0.6270   19.9190 N.ar  189  A189       -0.2193
   4041  C8        51.5760    0.6980   20.1790 C.ar  189  A189        0.1816
   4042  N9        51.9040    0.3170   21.4570 N.ar  189  A189       -0.2693
   4043  OP1       55.6900    1.5260   16.5700 O.3   189  A189       -0.4373
   4044  OP2       53.1150    1.6300   16.5280 O.co2 189  A189       -0.5172
   4045  P         55.2670   -3.3470   19.6960 P.3   190  C190        0.2141
   4046  C5'       54.4460   -4.5580   21.9300 C.3   190  C190        0.1812
   4047  O5'       54.1500   -4.0560   20.5990 O.3   190  C190       -0.3114
   4048  C4'       53.1760   -4.7390   22.7280 C.3   190  C190        0.1773
   4049  O4'       52.2830   -3.6030   22.5420 O.3   190  C190       -0.3307
   4050  C3'       52.3000   -5.8840   22.2720 C.3   190  C190        0.1860
   4051  O3'       52.7660   -7.1710   22.6590 O.3   190  C190       -0.3112
   4052  C2'       50.9680   -5.5340   22.9240 C.3   190  C190        0.2309
   4053  O2'       50.9110   -5.9410   24.2600 O.3   190  C190       -0.2156
   4054  C1'       50.9530   -4.0110   22.8130 C.3   190  C190        0.2420
   4055  N1        50.0780   -3.6180   21.6990 N.ar  190  C190       -0.2535
   4056  C2        48.6980   -3.7500   21.8740 C.ar  190  C190        0.3532
   4057  O2        48.2700   -4.1300   22.9710 O.2   190  C190       -0.2443
   4058  N3        47.8670   -3.4350   20.8540 N.ar  190  C190       -0.1739
   4059  C4        48.3720   -3.0280   19.6870 C.ar  190  C190        0.1759
   4060  N4        47.5190   -2.7520   18.7030 N.pl3 190  C190       -0.1070
   4061  C5        49.7760   -2.9010   19.4750 C.ar  190  C190        0.0566
   4062  C6        50.5860   -3.2170   20.4950 C.ar  190  C190        0.0850
   4063  OP1       56.4750   -4.2230   19.6720 O.3   190  C190       -0.4373
   4064  OP2       54.6090   -3.0090   18.4020 O.co2 190  C190       -0.5172
   4065  P         52.4230   -8.3960   21.6500 P.3   191  A191        0.2141
   4066  C5'       50.1900   -8.9920   22.9720 C.3   191  A191        0.1812
   4067  O5'       50.8510   -8.6540   21.7410 O.3   191  A191       -0.3114
   4068  C4'       48.7140   -9.0170   22.6960 C.3   191  A191        0.1773
   4069  O4'       48.3190   -7.6980   22.2570 O.3   191  A191       -0.3307
   4070  C3'       48.3200   -9.9020   21.5210 C.3   191  A191        0.1860
   4071  O3'       48.2270  -11.2350   21.9770 O.3   191  A191       -0.3112
   4072  C2'       46.9910   -9.2840   21.0630 C.3   191  A191        0.2309
   4073  O2'       45.7730   -9.6780   21.6690 O.3   191  A191       -0.2156
   4074  C1'       47.2280   -7.8030   21.3460 C.3   191  A191        0.2408
   4075  N1        45.3840   -5.5010   17.1630 N.ar  191  A191       -0.2040
   4076  C2        44.7870   -6.1050   18.1970 C.ar  191  A191        0.2016
   4077  N3        45.3300   -6.6820   19.2570 N.ar  191  A191       -0.2048
   4078  C4        46.6700   -6.5960   19.2070 C.ar  191  A191        0.1692
   4079  C5        47.4270   -6.0070   18.2120 C.ar  191  A191        0.1518
   4080  C6        46.7330   -5.4110   17.1570 C.ar  191  A191        0.1919
   4081  N6        47.3320   -4.7850   16.1400 N.pl3 191  A191       -0.1054
   4082  N7        48.7790   -6.0980   18.5040 N.ar  191  A191       -0.2193
   4083  C8        48.8110   -6.7400   19.6480 C.ar  191  A191        0.1816
   4084  N9        47.5690   -7.0790   20.1260 N.ar  191  A191       -0.2693
   4085  OP1       53.1600   -9.6050   22.1660 O.3   191  A191       -0.4373
   4086  OP2       52.6130   -7.9560   20.2250 O.co2 191  A191       -0.5172
   4087  P         47.8450  -12.3740   20.9270 P.3   192  A192        0.2141
   4088  C5'       46.2740  -13.1580   22.8920 C.3   192  A192        0.1812
   4089  O5'       46.4190  -12.7850   21.5090 O.3   192  A192       -0.3114
   4090  C4'       44.8240  -13.4410   23.1670 C.3   192  A192        0.1773
   4091  O4'       44.0250  -12.2840   22.7730 O.3   192  A192       -0.3307
   4092  C3'       44.2590  -14.5720   22.3260 C.3   192  A192        0.1860
   4093  O3'       44.4900  -15.7160   23.1050 O.3   192  A192       -0.3112
   4094  C2'       42.7780  -14.2370   22.3020 C.3   192  A192        0.2309
   4095  O2'       42.2480  -14.4650   23.5900 O.3   192  A192       -0.2156
   4096  C1'       42.8140  -12.7130   22.1750 C.3   192  A192        0.2408
   4097  N1        39.7940  -11.5900   18.1350 N.ar  192  A192       -0.2040
   4098  C2        39.5740  -12.3010   19.2470 C.ar  192  A192        0.2016
   4099  N3        40.3960  -12.5490   20.2700 N.ar  192  A192       -0.2048
   4100  C4        41.6170  -12.0460   20.0300 C.ar  192  A192        0.1692
   4101  C5        42.0060  -11.3160   18.9210 C.ar  192  A192        0.1518
   4102  C6        41.0210  -11.0550   17.9470 C.ar  192  A192        0.1919
   4103  N6        41.2440  -10.3480   16.8340 N.pl3 192  A192       -0.1054
   4104  N7        43.3350  -10.9350   19.0280 N.ar  192  A192       -0.2193
   4105  C8        43.7110  -11.4190   20.1920 C.ar  192  A192        0.1816
   4106  N9        42.7250  -12.1160   20.8430 N.ar  192  A192       -0.2693
   4107  OP1       48.7810  -13.5090   21.2160 O.3   192  A192       -0.4373
   4108  OP2       47.6890  -11.8630   19.5150 O.co2 192  A192       -0.5172
   4109  P         44.9470  -17.0850   22.4420 P.3   193  A193        0.2141
   4110  C5'       42.5400  -18.1250   22.1940 C.3   193  A193        0.1812
   4111  O5'       43.7260  -17.6190   21.5680 O.3   193  A193       -0.3114
   4112  C4'       41.4160  -18.1020   21.1990 C.3   193  A193        0.1773
   4113  O4'       41.1300  -16.7210   20.8660 O.3   193  A193       -0.3307
   4114  C3'       41.7580  -18.7090   19.8470 C.3   193  A193        0.1860
   4115  O3'       41.6020  -20.1090   19.8760 O.3   193  A193       -0.3112
   4116  C2'       40.7400  -18.0420   18.9290 C.3   193  A193        0.2309
   4117  O2'       39.4480  -18.6150   18.9250 O.3   193  A193       -0.2156
   4118  C1'       40.7030  -16.6340   19.5110 C.3   193  A193        0.2408
   4119  N1        41.1140  -13.4040   15.5660 N.ar  193  A193       -0.2040
   4120  C2        40.0950  -14.1420   16.0320 C.ar  193  A193        0.2016
   4121  N3        40.0560  -14.9510   17.0870 N.ar  193  A193       -0.2048
   4122  C4        41.2500  -14.9840   17.7000 C.ar  193  A193        0.1692
   4123  C5        42.3820  -14.2680   17.3550 C.ar  193  A193        0.1518
   4124  C6        42.2910  -13.4360   16.2310 C.ar  193  A193        0.1919
   4125  N6        43.2920  -12.6700   15.7970 N.pl3 193  A193       -0.1054
   4126  N7        43.4290  -14.5580   18.2170 N.ar  193  A193       -0.2193
   4127  C8        42.9070  -15.4130   19.0670 C.ar  193  A193        0.1816
   4128  N9        41.5960  -15.7270   18.8000 N.ar  193  A193       -0.2693
   4129  OP1       45.1860  -17.9830   23.6080 O.3   193  A193       -0.4373
   4130  OP2       46.0590  -16.7610   21.5010 O.co2 193  A193       -0.5172
   4131  P         42.7370  -21.0890   19.3460 P.3   194  G194        0.2141
   4132  C5'       41.4470  -21.3520   17.1210 C.3   194  G194        0.1812
   4133  O5'       42.5980  -20.8360   17.7870 O.3   194  G194       -0.3114
   4134  C4'       41.2450  -20.6360   15.8180 C.3   194  G194        0.1773
   4135  O4'       41.3430  -19.1970   15.9880 O.3   194  G194       -0.3307
   4136  C3'       42.2560  -20.8510   14.7130 C.3   194  G194        0.1860
   4137  O3'       42.1460  -22.1540   14.1290 O.3   194  G194       -0.3112
   4138  C2'       41.8090  -19.7630   13.7500 C.3   194  G194        0.2309
   4139  O2'       40.5590  -20.1910   13.2540 O.3   194  G194       -0.2156
   4140  C1'       41.4610  -18.6160   14.7080 C.3   194  G194        0.2408
   4141  N1        43.3430  -14.6180   12.2780 N.ar  194  G194       -0.1709
   4142  C2        42.2500  -15.3960   11.9740 C.ar  194  G194        0.2606
   4143  N2        41.5810  -15.0820   10.8480 N.pl3 194  G194       -0.0859
   4144  N3        41.8540  -16.4240   12.7040 N.ar  194  G194       -0.1918
   4145  C4        42.6330  -16.6010   13.7900 C.ar  194  G194        0.1723
   4146  C5        43.7260  -15.8670   14.1950 C.ar  194  G194        0.1748
   4147  C6        44.1420  -14.7690   13.4040 C.ar  194  G194        0.3023
   4148  O6        45.0930  -14.0030   13.5900 O.2   194  G194       -0.2633
   4149  N7        44.2510  -16.3760   15.3730 N.ar  194  G194       -0.2173
   4150  C8        43.4850  -17.3960   15.6530 C.ar  194  G194        0.1817
   4151  N9        42.4720  -17.5730   14.7430 N.ar  194  G194       -0.2693
   4152  OP1       42.0830  -22.3750   19.7100 O.2   194  G194       -0.5172
   4153  OP2       44.1390  -20.8230   19.7570 O.co2 194  G194       -0.4373
   4154  P         43.3310  -22.8080   13.2140 P.3   195  U195        0.2141
   4155  C5'       44.0630  -21.1450   11.3220 C.3   195  U195        0.1812
   4156  O5'       43.0620  -22.0110   11.8600 O.3   195  U195       -0.3114
   4157  C4'       43.5090  -20.4390   10.1130 C.3   195  U195        0.1773
   4158  O4'       42.9450  -19.1340   10.4940 O.3   195  U195       -0.3307
   4159  C3'       44.5400  -20.1360    9.0360 C.3   195  U195        0.1860
   4160  O3'       44.6130  -21.1340    8.0260 O.3   195  U195       -0.3112
   4161  C2'       43.9910  -18.8490    8.4310 C.3   195  U195        0.2309
   4162  O2'       42.9550  -19.1910    7.5330 O.3   195  U195       -0.2156
   4163  C1'       43.5100  -18.1140    9.6860 C.3   195  U195        0.2420
   4164  N1        44.6070  -17.4680   10.4370 N.ar  195  U195       -0.2534
   4165  C2        45.0830  -16.2460    9.9870 C.ar  195  U195        0.3546
   4166  O2        44.6230  -15.6740    9.0200 O.2   195  U195       -0.2443
   4167  N3        46.1050  -15.7150   10.7290 N.ar  195  U195       -0.1530
   4168  C4        46.6920  -16.2650   11.8500 C.ar  195  U195        0.2846
   4169  O4        47.6070  -15.6620   12.4200 O.2   195  U195       -0.2650
   4170  C5        46.1450  -17.5270   12.2480 C.ar  195  U195        0.0814
   4171  C6        45.1580  -18.0760   11.5370 C.ar  195  U195        0.0870
   4172  OP1       43.0060  -24.2330   13.0240 O.2   195  U195       -0.5172
   4173  OP2       44.7220  -22.4500   13.6000 O.co2 195  U195       -0.4373
   4174  P         46.0410  -21.5870    7.4420 P.3   196  C196        0.2141
   4175  C5'       45.3590  -20.0430    5.4260 C.3   196  C196        0.1812
   4176  O5'       46.3670  -20.4700    6.3580 O.3   196  C196       -0.3114
   4177  C4'       45.8790  -18.9010    4.5750 C.3   196  C196        0.1773
   4178  O4'       45.7740  -17.6430    5.3040 O.3   196  C196       -0.3307
   4179  C3'       47.3510  -18.9650    4.2000 C.3   196  C196        0.1860
   4180  O3'       47.5480  -19.7790    3.0560 O.3   196  C196       -0.3112
   4181  C2'       47.6140  -17.5110    3.8680 C.3   196  C196        0.2309
   4182  O2'       46.7630  -17.1770    2.7780 O.3   196  C196       -0.2156
   4183  C1'       46.8980  -16.8320    5.0240 C.3   196  C196        0.2420
   4184  N1        47.6750  -16.6770    6.2590 N.ar  196  C196       -0.2535
   4185  C2        48.5730  -15.5980    6.3740 C.ar  196  C196        0.3532
   4186  O2        48.7250  -14.8380    5.4100 O.2   196  C196       -0.2443
   4187  N3        49.2580  -15.4230    7.5270 N.ar  196  C196       -0.1739
   4188  C4        49.0440  -16.2430    8.5580 C.ar  196  C196        0.1759
   4189  N4        49.6950  -15.9980    9.6960 N.pl3 196  C196       -0.1070
   4190  C5        48.1220  -17.3350    8.4770 C.ar  196  C196        0.0566
   4191  C6        47.4520  -17.5020    7.3250 C.ar  196  C196        0.0850
   4192  OP1       45.7920  -22.7180    6.5070 O.2   196  C196       -0.5172
   4193  OP2       47.1490  -21.6500    8.4480 O.co2 196  C196       -0.4373
   4194  P         48.9260  -20.5400    2.8850 P.3   197  C197        0.2141
   4195  C5'       49.6850  -18.8020    1.0210 C.3   197  C197        0.1812
   4196  O5'       50.0020  -19.6010    2.1790 O.3   197  C197       -0.3114
   4197  C4'       50.6970  -17.6840    0.9190 C.3   197  C197        0.1773
   4198  O4'       50.4510  -16.6730    1.9510 O.3   197  C197       -0.3307
   4199  C3'       52.1120  -18.1060    1.2190 C.3   197  C197        0.1860
   4200  O3'       52.5310  -18.7430    0.0420 O.3   197  C197       -0.3112
   4201  C2'       52.7660  -16.7550    1.4960 C.3   197  C197        0.2309
   4202  O2'       52.8810  -16.0300    0.2850 O.3   197  C197       -0.2156
   4203  C1'       51.6830  -16.0760    2.3350 C.3   197  C197        0.2420
   4204  N1        51.8740  -16.2450    3.7830 N.ar  197  C197       -0.2535
   4205  C2        52.8070  -15.4240    4.4250 C.ar  197  C197        0.3532
   4206  O2        53.4120  -14.5810    3.7600 O.2   197  C197       -0.2443
   4207  N3        53.0680  -15.6100    5.7400 N.ar  197  C197       -0.1739
   4208  C4        52.4050  -16.5470    6.4220 C.ar  197  C197        0.1759
   4209  N4        52.6530  -16.6580    7.7300 N.pl3 197  C197       -0.1070
   4210  C5        51.4320  -17.3900    5.7970 C.ar  197  C197        0.0566
   4211  C6        51.2060  -17.2100    4.4850 C.ar  197  C197        0.0850
   4212  OP1       48.4570  -21.4850    1.8470 O.2   197  C197       -0.5172
   4213  OP2       49.6550  -21.0210    4.1100 O.co2 197  C197       -0.4373
   4214  P         53.9890  -19.4320   -0.0100 P.3   198  U198        0.2141
   4215  C5'       55.8530  -17.6720   -0.3940 C.3   198  U198        0.1812
   4216  O5'       55.2970  -18.6690    0.4760 O.3   198  U198       -0.3114
   4217  C4'       57.0510  -17.0670    0.2490 C.3   198  U198        0.1773
   4218  O4'       56.6370  -16.5720    1.5490 O.3   198  U198       -0.3307
   4219  C3'       58.1200  -18.0980    0.4930 C.3   198  U198        0.1860
   4220  O3'       59.3360  -17.4760    0.2000 O.3   198  U198       -0.3112
   4221  C2'       58.0560  -18.3330    1.9950 C.3   198  U198        0.2309
   4222  O2'       59.3350  -18.7120    2.4900 O.3   198  U198       -0.2156
   4223  C1'       57.5530  -16.9770    2.5090 C.3   198  U198        0.2420
   4224  N1        56.8910  -17.0800    3.8200 N.ar  198  U198       -0.2534
   4225  C2        57.5470  -16.4980    4.8880 C.ar  198  U198        0.3546
   4226  O2        58.5410  -15.8100    4.7540 O.2   198  U198       -0.2443
   4227  N3        56.9800  -16.7340    6.1180 N.ar  198  U198       -0.1530
   4228  C4        55.8300  -17.4560    6.3820 C.ar  198  U198        0.2846
   4229  O4        55.4260  -17.5540    7.5480 O.2   198  U198       -0.2650
   4230  C5        55.2170  -18.0390    5.2240 C.ar  198  U198        0.0814
   4231  C6        55.7790  -17.8670    4.0190 C.ar  198  U198        0.0870
   4232  OP1       53.9770  -19.6090   -1.4850 O.2   198  U198       -0.5172
   4233  OP2       53.9180  -20.5820    0.9240 O.co2 198  U198       -0.4373
   4234  P         59.8440  -17.1390   -1.2630 P.3   199  U199        0.2141
   4235  C5'       60.7480  -14.6310   -1.5850 C.3   199  U199        0.1812
   4236  O5'       59.6350  -15.5740   -1.5200 O.3   199  U199       -0.3114
   4237  C4'       60.5350  -13.7230   -2.7680 C.3   199  U199        0.1773
   4238  O4'       59.2680  -12.9940   -2.6560 O.3   199  U199       -0.3307
   4239  C3'       61.5610  -12.6370   -2.9770 C.3   199  U199        0.1860
   4240  O3'       62.6450  -13.2040   -3.6690 O.3   199  U199       -0.3112
   4241  C2'       60.7940  -11.6790   -3.8830 C.3   199  U199        0.2309
   4242  O2'       60.4890  -12.1110   -5.1940 O.3   199  U199       -0.2156
   4243  C1'       59.4030  -11.7210   -3.2630 C.3   199  U199        0.2420
   4244  N1        59.2210  -10.6750   -2.2490 N.ar  199  U199       -0.2534
   4245  C2        58.9790   -9.3860   -2.6960 C.ar  199  U199        0.3546
   4246  O2        58.8910   -9.1000   -3.8800 O.2   199  U199       -0.2443
   4247  N3        58.7930   -8.4580   -1.7030 N.ar  199  U199       -0.1530
   4248  C4        58.8870   -8.6580   -0.3430 C.ar  199  U199        0.2846
   4249  O4        58.7140   -7.7080    0.4250 O.2   199  U199       -0.2650
   4250  C5        59.1670  -10.0100    0.0400 C.ar  199  U199        0.0814
   4251  C6        59.3210  -10.9480   -0.9010 C.ar  199  U199        0.0870
   4252  OP1       58.9550  -17.7670   -2.2790 O.2   199  U199       -0.5172
   4253  OP2       61.2840  -17.4850   -1.1430 O.co2 199  U199       -0.4373
   4254  P         64.1100  -12.7520   -3.2570 P.3   200  U200        0.2141
   4255  C5'       63.7570  -11.1480   -5.3400 C.3   200  U200        0.1812
   4256  O5'       64.2010  -11.3320   -3.9810 O.3   200  U200       -0.3114
   4257  C4'       63.9930   -9.7230   -5.7860 C.3   200  U200        0.1773
   4258  O4'       62.8040   -8.9230   -5.5470 O.3   200  U200       -0.3307
   4259  C3'       65.0560   -8.9480   -5.0440 C.3   200  U200        0.1860
   4260  O3'       66.3400   -9.3210   -5.5020 O.3   200  U200       -0.3112
   4261  C2'       64.6890   -7.5180   -5.4140 C.3   200  U200        0.2309
   4262  O2'       64.9780   -7.1630   -6.7430 O.3   200  U200       -0.2156
   4263  C1'       63.1660   -7.5680   -5.3680 C.3   200  U200        0.2420
   4264  N1        62.6620   -7.1140   -4.0660 N.ar  200  U200       -0.2534
   4265  C2        62.4870   -5.7520   -3.8920 C.ar  200  U200        0.3546
   4266  O2        62.6730   -4.9430   -4.7790 O.2   200  U200       -0.2443
   4267  N3        62.1000   -5.3760   -2.6330 N.ar  200  U200       -0.1530
   4268  C4        61.8500   -6.1970   -1.5570 C.ar  200  U200        0.2846
   4269  O4        61.4710   -5.7020   -0.4940 O.2   200  U200       -0.2650
   4270  C5        62.0690   -7.5920   -1.8080 C.ar  200  U200        0.0814
   4271  C6        62.4730   -7.9920   -3.0190 C.ar  200  U200        0.0870
   4272  OP1       65.1520  -13.6850   -3.7940 O.2   200  U200       -0.5172
   4273  OP2       64.0570  -12.5140   -1.7960 O.co2 200  U200       -0.4373
   4274  P         67.5860   -8.7250   -4.6910 P.3   201  C201        0.2141
   4275  C5'       68.7620   -6.3970   -5.1520 C.3   201  C201        0.1812
   4276  O5'       67.5910   -7.2340   -5.2450 O.3   201  C201       -0.3114
   4277  C4'       68.3860   -4.9770   -5.4630 C.3   201  C201        0.1773
   4278  O4'       66.9600   -4.7870   -5.2750 O.3   201  C201       -0.3307
   4279  C3'       68.9990   -3.9820   -4.5100 C.3   201  C201        0.1860
   4280  O3'       70.3110   -3.7850   -4.9720 O.3   201  C201       -0.3112
   4281  C2'       68.0710   -2.7870   -4.6600 C.3   201  C201        0.2309
   4282  O2'       68.3930   -1.9070   -5.7150 O.3   201  C201       -0.2156
   4283  C1'       66.7140   -3.4760   -4.8000 C.3   201  C201        0.2420
   4284  N1        66.0770   -3.5860   -3.4890 N.ar  201  C201       -0.2535
   4285  C2        65.6790   -2.4090   -2.8370 C.ar  201  C201        0.3532
   4286  O2        65.8340   -1.3230   -3.4140 O.2   201  C201       -0.2443
   4287  N3        65.0950   -2.4910   -1.6170 N.ar  201  C201       -0.1739
   4288  C4        64.9450   -3.6800   -1.0300 C.ar  201  C201        0.1759
   4289  N4        64.3550   -3.7110    0.1650 N.pl3 201  C201       -0.1070
   4290  C5        65.3640   -4.8930   -1.6610 C.ar  201  C201        0.0566
   4291  C6        65.9250   -4.8000   -2.8770 C.ar  201  C201        0.0850
   4292  OP1       68.8450   -9.4350   -5.0690 O.2   201  C201       -0.5172
   4293  OP2       67.2400   -8.4780   -3.2610 O.co2 201  C201       -0.4373
   4294  P         71.5180   -3.8900   -3.9640 P.3   202  U202        0.2141
   4295  C5'       71.4380   -1.2980   -4.2120 C.3   202  U202        0.1812
   4296  O5'       71.4300   -2.4330   -3.3270 O.3   202  U202       -0.3114
   4297  C4'       71.1750   -0.0060   -3.4780 C.3   202  U202        0.1773
   4298  O4'       69.7590    0.1100   -3.1660 O.3   202  U202       -0.3307
   4299  C3'       71.8630    0.1650   -2.1310 C.3   202  U202        0.1860
   4300  O3'       73.2430    0.5340   -2.1890 O.3   202  U202       -0.3112
   4301  C2'       71.0010    1.2430   -1.4870 C.3   202  U202        0.2309
   4302  O2'       71.2880    2.5560   -1.9200 O.3   202  U202       -0.2156
   4303  C1'       69.6100    0.8480   -1.9770 C.3   202  U202        0.2420
   4304  N1        68.8870    0.0280   -1.0050 N.ar  202  U202       -0.2534
   4305  C2        68.2700    0.7220    0.0130 C.ar  202  U202        0.3546
   4306  O2        68.3430    1.9300    0.1170 O.2   202  U202       -0.2443
   4307  N3        67.5470   -0.0500    0.8890 N.ar  202  U202       -0.1530
   4308  C4        67.4060   -1.4200    0.8740 C.ar  202  U202        0.2846
   4309  O4        66.7340   -1.9680    1.7520 O.2   202  U202       -0.2650
   4310  C5        68.0900   -2.0780   -0.2070 C.ar  202  U202        0.0814
   4311  C6        68.7880   -1.3460   -1.0910 C.ar  202  U202        0.0870
   4312  OP1       72.6860   -4.0700   -4.8770 O.2   202  U202       -0.5172
   4313  OP2       71.1800   -4.9430   -2.9820 O.co2 202  U202       -0.4373
   4314  P         74.2570    0.0220   -1.0490 P.3   203  G203        0.2141
   4315  C5'       73.9510    2.5370   -0.3340 C.3   203  G203        0.1812
   4316  O5'       74.0220    1.1550    0.0410 O.3   203  G203       -0.3114
   4317  C4'       73.5950    3.3820    0.8650 C.3   203  G203        0.1773
   4318  O4'       72.1440    3.4040    1.0260 O.3   203  G203       -0.3307
   4319  C3'       74.1310    2.9110    2.2170 C.3   203  G203        0.1860
   4320  O3'       75.4410    3.3790    2.5220 O.3   203  G203       -0.3112
   4321  C2'       73.1290    3.5380    3.1740 C.3   203  G203        0.2309
   4322  O2'       73.5030    4.8800    3.4240 O.3   203  G203       -0.2156
   4323  C1'       71.8150    3.3310    2.4070 C.3   203  G203        0.2408
   4324  N1        68.7020    0.7220    5.4440 N.ar  203  G203       -0.1709
   4325  C2        69.0450    2.0540    5.4720 C.ar  203  G203        0.2606
   4326  N2        68.4760    2.7950    6.4290 N.pl3 203  G203       -0.0859
   4327  N3        69.8640    2.6230    4.6070 N.ar  203  G203       -0.1918
   4328  C4        70.3410    1.7400    3.7050 C.ar  203  G203        0.1723
   4329  C5        70.0840    0.3880    3.6040 C.ar  203  G203        0.1748
   4330  C6        69.1860   -0.2090    4.5290 C.ar  203  G203        0.3023
   4331  O6        68.8130   -1.3910    4.5910 O.2   203  G203       -0.2633
   4332  N7        70.7750   -0.1660    2.5350 N.ar  203  G203       -0.2173
   4333  C8        71.4360    0.8380    2.0230 C.ar  203  G203        0.1817
   4334  N9        71.2060    2.0260    2.6780 N.ar  203  G203       -0.2693
   4335  OP1       75.6300   -0.0350   -1.5960 O.2   203  G203       -0.5172
   4336  OP2       73.6800   -1.2240   -0.4940 O.co2 203  G203       -0.4373
   4337  P         76.4740    2.7030    3.5660 P.3   204  C204        0.2141
   4338  C5'       75.9020    4.2610    5.6300 C.3   204  C204        0.1812
   4339  O5'       75.7600    2.9780    4.9720 O.3   204  C204       -0.3114
   4340  C4'       75.1740    4.3260    6.9560 C.3   204  C204        0.1773
   4341  O4'       73.7490    4.1390    6.7340 O.3   204  C204       -0.3307
   4342  C3'       75.5190    3.2840    8.0140 C.3   204  C204        0.1860
   4343  O3'       76.6530    3.5010    8.8480 O.3   204  C204       -0.3112
   4344  C2'       74.2730    3.3190    8.8830 C.3   204  C204        0.2309
   4345  O2'       74.2270    4.4350    9.7460 O.3   204  C204       -0.2156
   4346  C1'       73.1850    3.4090    7.8160 C.3   204  C204        0.2420
   4347  N1        72.7490    2.0730    7.3410 N.ar  204  C204       -0.2535
   4348  C2        71.6740    1.4660    7.9930 C.ar  204  C204        0.3532
   4349  O2        71.1100    2.0780    8.9110 O.2   204  C204       -0.2443
   4350  N3        71.2690    0.2370    7.5980 N.ar  204  C204       -0.1739
   4351  C4        71.8980   -0.3850    6.5980 C.ar  204  C204        0.1759
   4352  N4        71.4570   -1.5920    6.2390 N.pl3 204  C204       -0.1070
   4353  C5        73.0140    0.2000    5.9300 C.ar  204  C204        0.0566
   4354  C6        73.4070    1.4160    6.3350 C.ar  204  C204        0.0850
   4355  OP1       77.6730    3.5870    3.4660 O.3   204  C204       -0.4373
   4356  OP2       76.6600    1.2440    3.3260 O.co2 204  C204       -0.5172
   4357  P         77.4560    2.1910    9.3840 P.3   205  C205        0.2141
   4358  C5'       75.9650    2.7050   11.5350 C.3   205  C205        0.1812
   4359  O5'       76.5800    1.7550   10.6430 O.3   205  C205       -0.3114
   4360  C4'       75.1740    1.9790   12.6020 C.3   205  C205        0.1773
   4361  O4'       73.8440    1.6230   12.1110 O.3   205  C205       -0.3307
   4362  C3'       75.7660    0.6580   13.0710 C.3   205  C205        0.1860
   4363  O3'       76.8170    0.8550   14.0030 O.3   205  C205       -0.3112
   4364  C2'       74.5380   -0.0420   13.6340 C.3   205  C205        0.2309
   4365  O2'       74.1670    0.4760   14.8920 O.3   205  C205       -0.2156
   4366  C1'       73.4880    0.3320   12.5900 C.3   205  C205        0.2420
   4367  N1        73.4680   -0.6150   11.4580 N.ar  205  C205       -0.2535
   4368  C2        72.4540   -1.5740   11.4020 C.ar  205  C205        0.3532
   4369  O2        71.5850   -1.5780   12.2860 O.2   205  C205       -0.2443
   4370  N3        72.4390   -2.4650   10.3800 N.ar  205  C205       -0.1739
   4371  C4        73.3850   -2.4150    9.4390 C.ar  205  C205        0.1759
   4372  N4        73.3350   -3.3080    8.4500 N.pl3 205  C205       -0.1070
   4373  C5        74.4380   -1.4560    9.4800 C.ar  205  C205        0.0566
   4374  C6        74.4470   -0.5910   10.5030 C.ar  205  C205        0.0850
   4375  OP1       78.7740    2.6440    9.9020 O.3   205  C205       -0.4373
   4376  OP2       77.4410    1.0430    8.4250 O.co2 205  C205       -0.5172
   4377  P         77.4200   -0.3310   14.8890 P.3   206  A206        0.2141
   4378  C5'       77.7890   -2.9470   14.7670 C.3   206  A206        0.1812
   4379  O5'       77.1830   -1.7560   14.2150 O.3   206  A206       -0.3114
   4380  C4'       76.7500   -3.8640   15.3860 C.3   206  A206        0.1773
   4381  O4'       75.4030   -3.4770   14.9580 O.3   206  A206       -0.3307
   4382  C3'       76.8650   -5.3410   15.0000 C.3   206  A206        0.1860
   4383  O3'       77.9140   -6.1160   15.5970 O.3   206  A206       -0.3112
   4384  C2'       75.4240   -5.8170   15.1620 C.3   206  A206        0.2309
   4385  O2'       75.0060   -6.1290   16.4750 O.3   206  A206       -0.2156
   4386  C1'       74.6720   -4.6310   14.5590 C.3   206  A206        0.2408
   4387  N1        73.3990   -7.4420   10.4490 N.ar  206  A206       -0.2040
   4388  C2        73.1310   -7.5810   11.7540 C.ar  206  A206        0.2016
   4389  N3        73.4910   -6.8070   12.7770 N.ar  206  A206       -0.2048
   4390  C4        74.2140   -5.7570   12.3470 C.ar  206  A206        0.1692
   4391  C5        74.5670   -5.4750   11.0390 C.ar  206  A206        0.1518
   4392  C6        74.1280   -6.3760   10.0490 C.ar  206  A206        0.1919
   4393  N6        74.3890   -6.2330    8.7480 N.pl3 206  A206       -0.1054
   4394  N7        75.3140   -4.3070   10.9740 N.ar  206  A206       -0.2193
   4395  C8        75.3820   -3.9070   12.2200 C.ar  206  A206        0.1816
   4396  N9        74.7220   -4.7280   13.1020 N.ar  206  A206       -0.2693
   4397  OP1       76.5840   -0.3040   16.1120 O.3   206  A206       -0.4373
   4398  OP2       78.8880   -0.1180   14.9860 O.co2 206  A206       -0.5172
   4399  P         78.1910   -6.4420   17.1450 P.3   207  A207        0.2141
   4400  C5'       76.6780   -8.6680   17.1670 C.3   207  A207        0.1812
   4401  O5'       77.9800   -8.0250   17.2500 O.3   207  A207       -0.3114
   4402  C4'       76.2920   -9.2890   18.4970 C.3   207  A207        0.1773
   4403  O4'       77.3900  -10.1160   18.9830 O.3   207  A207       -0.3307
   4404  C3'       75.9880   -8.2810   19.6130 C.3   207  A207        0.1860
   4405  O3'       74.7390   -8.3790   20.2950 O.3   207  A207       -0.3112
   4406  C2'       77.1890   -8.4010   20.5550 C.3   207  A207        0.2309
   4407  O2'       76.9660   -8.1610   21.9320 O.3   207  A207       -0.2156
   4408  C1'       77.5920   -9.8580   20.3580 C.3   207  A207        0.2408
   4409  N1        82.0880  -12.1360   19.1520 N.ar  207  A207       -0.2040
   4410  C2        80.8910  -12.1560   18.5500 C.ar  207  A207        0.2016
   4411  N3        79.7580  -11.5480   18.9040 N.ar  207  A207       -0.2048
   4412  C4        79.9340  -10.8360   20.0310 C.ar  207  A207        0.1692
   4413  C5        81.1040  -10.7180   20.7630 C.ar  207  A207        0.1518
   4414  C6        82.2310  -11.4120   20.2840 C.ar  207  A207        0.1919
   4415  N6        83.4230  -11.3900   20.8830 N.pl3 207  A207       -0.1054
   4416  N7        80.9120   -9.9010   21.8690 N.ar  207  A207       -0.2193
   4417  C8        79.6530   -9.5500   21.7860 C.ar  207  A207        0.1816
   4418  N9        78.9990  -10.0780   20.6970 N.ar  207  A207       -0.2693
   4419  OP1       77.1900   -5.7180   17.9750 O.3   207  A207       -0.4373
   4420  OP2       79.6360   -6.1710   17.3740 O.co2 207  A207       -0.5172
   4421  P         74.3190   -7.0070   21.0380 P.3   208  A208        0.2141
   4422  C5'       74.7860   -4.5170   20.2640 C.3   208  A208        0.1812
   4423  O5'       74.8740   -5.9280   20.0040 O.3   208  A208       -0.3114
   4424  C4'       73.9070   -3.8320   19.2380 C.3   208  A208        0.1773
   4425  O4'       73.9310   -4.5450   17.9690 O.3   208  A208       -0.3307
   4426  C3'       72.4290   -3.7380   19.5850 C.3   208  A208        0.1860
   4427  O3'       72.1770   -2.5790   20.3530 O.3   208  A208       -0.3112
   4428  C2'       71.8040   -3.5690   18.2150 C.3   208  A208        0.2309
   4429  O2'       72.0690   -2.2910   17.6900 O.3   208  A208       -0.2156
   4430  C1'       72.6330   -4.5480   17.3960 C.3   208  A208        0.2408
   4431  N1        68.7120   -7.6910   16.2330 N.ar  208  A208       -0.2040
   4432  C2        68.8910   -6.3750   16.0520 C.ar  208  A208        0.2016
   4433  N3        69.9310   -5.6120   16.3830 N.ar  208  A208       -0.2048
   4434  C4        70.8940   -6.3490   16.9670 C.ar  208  A208        0.1692
   4435  C5        70.8600   -7.7110   17.2120 C.ar  208  A208        0.1518
   4436  C6        69.7020   -8.4030   16.8160 C.ar  208  A208        0.1919
   4437  N6        69.5270   -9.7140   16.9930 N.pl3 208  A208       -0.1054
   4438  N7        72.0350   -8.1290   17.8210 N.ar  208  A208       -0.2193
   4439  C8        72.7430   -7.0310   17.9280 C.ar  208  A208        0.1816
   4440  N9        72.1130   -5.9150   17.4310 N.ar  208  A208       -0.2693
   4441  OP1       75.0940   -6.8530   22.2920 O.3   208  A208       -0.4373
   4442  OP2       72.8400   -6.8720   21.0810 O.co2 208  A208       -0.5172
   4443  P         71.2160   -2.7710   21.6000 P.3   209  G209        0.2141
   4444  C5'       69.6970   -1.1110   20.2280 C.3   209  G209        0.1812
   4445  O5'       69.7940   -2.1950   21.1680 O.3   209  G209       -0.3114
   4446  C4'       68.4990   -1.3000   19.3300 C.3   209  G209        0.1773
   4447  O4'       68.6980   -2.4440   18.4540 O.3   209  G209       -0.3307
   4448  C3'       67.1980   -1.6520   20.0270 C.3   209  G209        0.1860
   4449  O3'       66.6150   -0.5630   20.7430 O.3   209  G209       -0.3112
   4450  C2'       66.3820   -2.1920   18.8660 C.3   209  G209        0.2309
   4451  O2'       66.0210   -1.0930   18.0690 O.3   209  G209       -0.2156
   4452  C1'       67.4380   -3.0180   18.1260 C.3   209  G209        0.2408
   4453  N1        64.8920   -7.4140   17.9740 N.ar  209  G209       -0.1709
   4454  C2        64.5270   -6.1730   17.5130 C.ar  209  G209        0.2606
   4455  N2        63.3190   -6.0830   16.9390 N.pl3 209  G209       -0.0859
   4456  N3        65.2840   -5.0950   17.6140 N.ar  209  G209       -0.1918
   4457  C4        66.4620   -5.3570   18.2130 C.ar  209  G209        0.1723
   4458  C5        66.9260   -6.5570   18.7080 C.ar  209  G209        0.1748
   4459  C6        66.0990   -7.7120   18.5920 C.ar  209  G209        0.3023
   4460  O6        66.3250   -8.8670   18.9660 O.2   209  G209       -0.2633
   4461  N7        68.1950   -6.4070   19.2560 N.ar  209  G209       -0.2173
   4462  C8        68.4660   -5.1380   19.0990 C.ar  209  G209        0.1817
   4463  N9        67.4570   -4.4430   18.4730 N.ar  209  G209       -0.2693
   4464  OP1       71.7600   -1.9130   22.6840 O.3   209  G209       -0.4373
   4465  OP2       71.1260   -4.2450   21.7890 O.co2 209  G209       -0.5172
   4466  P         66.2540   -0.7940   22.3090 P.3   210  U210        0.2141
   4467  C5'       63.8910   -0.6770   21.1600 C.3   210  U210        0.1812
   4468  O5'       64.8000   -1.3860   22.0240 O.3   210  U210       -0.3114
   4469  C4'       62.8820   -1.6310   20.5740 C.3   210  U210        0.1773
   4470  O4'       63.5480   -2.7180   19.8670 O.3   210  U210       -0.3307
   4471  C3'       62.0290   -2.3630   21.5890 C.3   210  U210        0.1860
   4472  O3'       61.0240   -1.5350   22.1430 O.3   210  U210       -0.3112
   4473  C2'       61.5050   -3.5230   20.7560 C.3   210  U210        0.2309
   4474  O2'       60.4390   -3.2170   19.8800 O.3   210  U210       -0.2156
   4475  C1'       62.7560   -3.8940   19.9610 C.3   210  U210        0.2420
   4476  N1        63.5490   -4.9460   20.6140 N.ar  210  U210       -0.2534
   4477  C2        62.9740   -6.1980   20.7360 C.ar  210  U210        0.3546
   4478  O2        61.8470   -6.4510   20.3450 O.2   210  U210       -0.2443
   4479  N3        63.7730   -7.1440   21.3250 N.ar  210  U210       -0.1530
   4480  C4        65.0520   -6.9740   21.8050 C.ar  210  U210        0.2846
   4481  O4        65.6360   -7.9270   22.3240 O.2   210  U210       -0.2650
   4482  C5        65.5750   -5.6520   21.6440 C.ar  210  U210        0.0814
   4483  C6        64.8230   -4.7060   21.0720 C.ar  210  U210        0.0870
   4484  OP1       66.0810    0.5200   22.9910 O.3   210  U210       -0.4373
   4485  OP2       67.1610   -1.8210   22.9250 O.co2 210  U210       -0.5172
   4486  P         60.7100   -1.8450   23.6760 P.3   211  U211        0.2141
   4487  C5'       58.5490   -3.1700   23.1140 C.3   211  U211        0.1812
   4488  O5'       59.9080   -3.2080   23.5490 O.3   211  U211       -0.3114
   4489  C4'       58.0530   -4.5720   22.9340 C.3   211  U211        0.1773
   4490  O4'       59.0710   -5.3870   22.3090 O.3   211  U211       -0.3307
   4491  C3'       57.7840   -5.3250   24.2120 C.3   211  U211        0.1860
   4492  O3'       56.5480   -4.8700   24.6910 O.3   211  U211       -0.3112
   4493  C2'       57.7370   -6.7510   23.6990 C.3   211  U211        0.2309
   4494  O2'       56.6030   -7.1050   22.9340 O.3   211  U211       -0.2156
   4495  C1'       58.8950   -6.7320   22.7090 C.3   211  U211        0.2420
   4496  N1        60.1470   -7.2130   23.2970 N.ar  211  U211       -0.2534
   4497  C2        60.2450   -8.5670   23.5580 C.ar  211  U211        0.3546
   4498  O2        59.3410   -9.3510   23.3300 O.2   211  U211       -0.2443
   4499  N3        61.4500   -8.9680   24.0760 N.ar  211  U211       -0.1530
   4500  C4        62.5350   -8.1740   24.3770 C.ar  211  U211        0.2846
   4501  O4        63.5480   -8.6890   24.8420 O.2   211  U211       -0.2650
   4502  C5        62.3510   -6.7810   24.0950 C.ar  211  U211        0.0814
   4503  C6        61.1910   -6.3590   23.5780 C.ar  211  U211        0.0870
   4504  OP1       59.6510   -0.8790   24.1500 O.2   211  U211       -0.5172
   4505  OP2       61.9800   -2.1240   24.4540 O.co2 211  U211       -0.4373
   4506  P         56.2420   -5.0860   26.2160 P.3   212  G212        0.2141
   4507  C5'       54.9200   -7.2690   25.3900 C.3   212  G212        0.1812
   4508  O5'       55.8700   -6.6380   26.3020 O.3   212  G212       -0.3114
   4509  C4'       54.8070   -8.7600   25.6570 C.3   212  G212        0.1773
   4510  O4'       56.0210   -9.4450   25.2290 O.3   212  G212       -0.3307
   4511  C3'       54.6240   -9.1290   27.1240 C.3   212  G212        0.1860
   4512  O3'       53.2340   -9.1170   27.4550 O.3   212  G212       -0.3112
   4513  C2'       55.2910  -10.5010   27.2290 C.3   212  G212        0.2309
   4514  O2'       54.4310  -11.5390   26.7910 O.3   212  G212       -0.2156
   4515  C1'       56.4350  -10.3790   26.2230 C.3   212  G212        0.2408
   4516  N1        60.9130  -11.9440   28.1100 N.ar  212  G212       -0.1709
   4517  C2        59.7930  -12.6800   27.8030 C.ar  212  G212        0.2606
   4518  N2        59.8860  -14.0030   28.0030 N.pl3 212  G212       -0.0859
   4519  N3        58.6720  -12.1620   27.3190 N.ar  212  G212       -0.1918
   4520  C4        58.7560  -10.8190   27.1770 C.ar  212  G212        0.1723
   4521  C5        59.8190   -9.9880   27.4720 C.ar  212  G212        0.1748
   4522  C6        61.0230  -10.5640   27.9790 C.ar  212  G212        0.3023
   4523  O6        62.0790   -9.9980   28.2940 O.2   212  G212       -0.2633
   4524  N7        59.5000   -8.6650   27.1970 N.ar  212  G212       -0.2173
   4525  C8        58.2730   -8.7120   26.7510 C.ar  212  G212        0.1817
   4526  N9        57.7530   -9.9850   26.7290 N.ar  212  G212       -0.2693
   4527  OP1       54.9920   -4.2990   26.3930 O.2   212  G212       -0.5172
   4528  OP2       57.4510   -4.7790   27.0410 O.co2 212  G212       -0.4373
   4529  P         52.8050   -8.6590   28.9340 P.3   213  G213        0.2141
   4530  C5'       52.7080  -11.2100   29.6360 C.3   213  G213        0.1812
   4531  O5'       53.2720   -9.8940   29.8340 O.3   213  G213       -0.3114
   4532  C4'       53.5520  -12.2810   30.2880 C.3   213  G213        0.1773
   4533  O4'       54.9020  -12.2500   29.7790 O.3   213  G213       -0.3307
   4534  C3'       53.7720  -12.1610   31.7850 C.3   213  G213        0.1860
   4535  O3'       52.6190  -12.5780   32.5150 O.3   213  G213       -0.3112
   4536  C2'       54.9920  -13.0620   32.0110 C.3   213  G213        0.2309
   4537  O2'       54.7120  -14.4080   32.3460 O.3   213  G213       -0.2156
   4538  C1'       55.7380  -12.9620   30.6730 C.3   213  G213        0.2408
   4539  N1        60.7170  -13.3160   31.6570 N.ar  213  G213       -0.1709
   4540  C2        59.7640  -14.3050   31.6290 C.ar  213  G213        0.2606
   4541  N2        60.1930  -15.5450   31.9000 N.pl3 213  G213       -0.0859
   4542  N3        58.4850  -14.0930   31.3550 N.ar  213  G213       -0.1918
   4543  C4        58.2320  -12.7910   31.1030 C.ar  213  G213        0.1723
   4544  C5        59.1100  -11.7270   31.1080 C.ar  213  G213        0.1748
   4545  C6        60.4810  -11.9700   31.3990 C.ar  213  G213        0.3023
   4546  O6        61.4180  -11.1610   31.4400 O.2   213  G213       -0.2633
   4547  N7        58.4500  -10.5430   30.8100 N.ar  213  G213       -0.2173
   4548  C8        57.2070  -10.9000   30.6310 C.ar  213  G213        0.1817
   4549  N9        57.0070  -12.2510   30.7860 N.ar  213  G213       -0.2693
   4550  OP1       51.3270   -8.4880   28.9440 O.2   213  G213       -0.5172
   4551  OP2       53.6630   -7.5170   29.3260 O.co2 213  G213       -0.4373
   4552  P         52.2710  -11.9680   33.9610 P.3   214  U214        0.2141
   4553  C5'       52.8430  -14.1600   35.3320 C.3   214  U214        0.1812
   4554  O5'       53.2230  -12.8350   34.9090 O.3   214  U214       -0.3114
   4555  C4'       54.0500  -14.9850   35.7180 C.3   214  U214        0.1773
   4556  O4'       55.0860  -14.8720   34.7060 O.3   214  U214       -0.3307
   4557  C3'       54.7700  -14.5870   36.9960 C.3   214  U214        0.1860
   4558  O3'       54.1250  -14.9840   38.2040 O.3   214  U214       -0.3112
   4559  C2'       56.1220  -15.2700   36.8100 C.3   214  U214        0.2309
   4560  O2'       56.1660  -16.6310   37.1930 O.3   214  U214       -0.2156
   4561  C1'       56.3580  -15.0750   35.3080 C.3   214  U214        0.2420
   4562  N1        57.2000  -13.8990   35.0410 N.ar  214  U214       -0.2534
   4563  C2        58.5700  -14.0370   35.1900 C.ar  214  U214        0.3546
   4564  O2        59.1040  -15.0900   35.4980 O.2   214  U214       -0.2443
   4565  N3        59.2920  -12.8930   34.9560 N.ar  214  U214       -0.1530
   4566  C4        58.8010  -11.6500   34.6090 C.ar  214  U214        0.2846
   4567  O4        59.5850  -10.7170   34.4340 O.2   214  U214       -0.2650
   4568  C5        57.3750  -11.5840   34.4930 C.ar  214  U214        0.0814
   4569  C6        56.6410  -12.6810   34.7160 C.ar  214  U214        0.0870
   4570  OP1       50.8250  -12.2470   34.1980 O.3   214  U214       -0.4373
   4571  OP2       52.7430  -10.5600   34.0010 O.co2 214  U214       -0.5172
   4572  P         54.2950  -14.0800   39.5270 P.3   215  A215        0.2141
   4573  C5'       56.3330  -15.4600   40.4920 C.3   215  A215        0.1812
   4574  O5'       55.8340  -14.2230   39.9330 O.3   215  A215       -0.3114
   4575  C4'       57.7780  -15.3520   40.9430 C.3   215  A215        0.1773
   4576  O4'       58.6750  -15.3350   39.7920 O.3   215  A215       -0.3307
   4577  C3'       58.1890  -14.1210   41.7500 C.3   215  A215        0.1860
   4578  O3'       57.8060  -14.0990   43.1270 O.3   215  A215       -0.3112
   4579  C2'       59.6980  -14.1350   41.5400 C.3   215  A215        0.2309
   4580  O2'       60.3900  -15.1130   42.2940 O.3   215  A215       -0.2156
   4581  C1'       59.7650  -14.4590   40.0490 C.3   215  A215        0.2408
   4582  N1        61.9040  -10.0680   38.4400 N.ar  215  A215       -0.2040
   4583  C2        62.3680  -11.0730   39.1960 C.ar  215  A215        0.2016
   4584  N3        61.7590  -12.1940   39.5760 N.ar  215  A215       -0.2048
   4585  C4        60.5070  -12.2410   39.0860 C.ar  215  A215        0.1692
   4586  C5        59.8890  -11.2880   38.2950 C.ar  215  A215        0.1518
   4587  C6        60.6430  -10.1480   37.9620 C.ar  215  A215        0.1919
   4588  N6        60.1810   -9.1490   37.2070 N.pl3 215  A215       -0.1054
   4589  N7        58.5950  -11.6780   37.9770 N.ar  215  A215       -0.2193
   4590  C8        58.4610  -12.8380   38.5740 C.ar  215  A215        0.1816
   4591  N9        59.5850  -13.2480   39.2490 N.ar  215  A215       -0.2693
   4592  OP1       53.5130  -14.7340   40.6070 O.3   215  A215       -0.4373
   4593  OP2       53.9740  -12.6730   39.1480 O.co2 215  A215       -0.5172
   4594  P         57.4700  -12.6980   43.8700 P.3   216  C216        0.2141
   4595  C5'       59.3630  -11.4470   45.2500 C.3   216  C216        0.1812
   4596  O5'       58.8910  -11.9840   43.9950 O.3   216  C216       -0.3114
   4597  C4'       60.8570  -11.6430   45.3880 C.3   216  C216        0.1773
   4598  O4'       61.4380  -11.9720   44.0890 O.3   216  C216       -0.3307
   4599  C3'       61.6420  -10.4250   45.8590 C.3   216  C216        0.1860
   4600  O3'       61.5970  -10.2040   47.2680 O.3   216  C216       -0.3112
   4601  C2'       63.0250  -10.7050   45.2800 C.3   216  C216        0.2309
   4602  O2'       63.7990  -11.6710   45.9630 O.3   216  C216       -0.2156
   4603  C1'       62.6490  -11.2500   43.9040 C.3   216  C216        0.2420
   4604  N1        62.4120  -10.1830   42.9100 N.ar  216  C216       -0.2535
   4605  C2        63.5110   -9.5130   42.3590 C.ar  216  C216        0.3532
   4606  O2        64.6540   -9.8440   42.7080 O.2   216  C216       -0.2443
   4607  N3        63.2970   -8.5250   41.4570 N.ar  216  C216       -0.1739
   4608  C4        62.0490   -8.1990   41.1070 C.ar  216  C216        0.1759
   4609  N4        61.8840   -7.2250   40.2100 N.pl3 216  C216       -0.1070
   4610  C5        60.9140   -8.8640   41.6560 C.ar  216  C216        0.0566
   4611  C6        61.1400   -9.8390   42.5460 C.ar  216  C216        0.0850
   4612  OP1       56.9960  -13.0050   45.2440 O.3   216  C216       -0.4373
   4613  OP2       56.6080  -11.8820   42.9740 O.co2 216  C216       -0.5172
   4614  P         61.5220   -8.6970   47.8380 P.3   217  A217        0.2141
   4615  C5'       63.7590   -7.5090   48.6300 C.3   217  A217        0.1812
   4616  O5'       63.0050   -8.1640   47.5900 O.3   217  A217       -0.3114
   4617  C4'       64.7580   -6.5440   48.0360 C.3   217  A217        0.1773
   4618  O4'       65.1270   -6.9660   46.6860 O.3   217  A217       -0.3307
   4619  C3'       64.2750   -5.1080   47.8420 C.3   217  A217        0.1860
   4620  O3'       64.1660   -4.3010   49.0180 O.3   217  A217       -0.3112
   4621  C2'       65.2600   -4.6190   46.7890 C.3   217  A217        0.2309
   4622  O2'       66.5550   -4.3970   47.3140 O.3   217  A217       -0.2156
   4623  C1'       65.2690   -5.8220   45.8450 C.3   217  A217        0.2408
   4624  N1        63.2970   -3.5800   41.6350 N.ar  217  A217       -0.2040
   4625  C2        64.4310   -3.3730   42.3180 C.ar  217  A217        0.2016
   4626  N3        64.8870   -3.9930   43.4060 N.ar  217  A217       -0.2048
   4627  C4        64.0260   -4.9460   43.8050 C.ar  217  A217        0.1692
   4628  C5        62.8190   -5.2740   43.2100 C.ar  217  A217        0.1518
   4629  C6        62.4510   -4.5430   42.0650 C.ar  217  A217        0.1919
   4630  N6        61.3190   -4.7480   41.3880 N.pl3 217  A217       -0.1054
   4631  N7        62.1990   -6.3080   43.8960 N.ar  217  A217       -0.2193
   4632  C8        63.0280   -6.5780   44.8760 C.ar  217  A217        0.1816
   4633  N9        64.1580   -5.7970   44.8790 N.ar  217  A217       -0.2693
   4634  OP1       61.2870   -8.7470   49.3020 O.3   217  A217       -0.4373
   4635  OP2       60.5810   -7.9340   46.9860 O.co2 217  A217       -0.5172
   4636  P         62.7180   -4.0140   49.6980 P.3   218  G218        0.2141
   4637  C5'       61.8860   -1.8900   48.3060 C.3   218  G218        0.1812
   4638  O5'       62.3490   -2.4670   49.5460 O.3   218  G218       -0.3114
   4639  C4'       62.9770   -1.0220   47.7300 C.3   218  G218        0.1773
   4640  O4'       63.6220   -1.7300   46.6330 O.3   218  G218       -0.3307
   4641  C3'       62.5570    0.3160   47.1360 C.3   218  G218        0.1860
   4642  O3'       62.4510    1.3670   48.0920 O.3   218  G218       -0.3112
   4643  C2'       63.6850    0.5680   46.1430 C.3   218  G218        0.2309
   4644  O2'       64.8730    1.0600   46.7280 O.3   218  G218       -0.2156
   4645  C1'       63.8740   -0.8340   45.5650 C.3   218  G218        0.2408
   4646  N1        62.4380    0.2290   40.8140 N.ar  218  G218       -0.1709
   4647  C2        63.5200    0.6940   41.5230 C.ar  218  G218        0.2606
   4648  N2        64.3190    1.5610   40.8850 N.pl3 218  G218       -0.0859
   4649  N3        63.7960    0.3360   42.7660 N.ar  218  G218       -0.1918
   4650  C4        62.8900   -0.5380   43.2540 C.ar  218  G218        0.1723
   4651  C5        61.7770   -1.0630   42.6300 C.ar  218  G218        0.1748
   4652  C6        61.4920   -0.6720   41.2940 C.ar  218  G218        0.3023
   4653  O6        60.5520   -1.0240   40.5700 O.2   218  G218       -0.2633
   4654  N7        61.1020   -1.9340   43.4760 N.ar  218  G218       -0.2173
   4655  C8        61.8040   -1.9220   44.5770 C.ar  218  G218        0.1817
   4656  N9        62.9090   -1.1080   44.5050 N.ar  218  G218       -0.2693
   4657  OP1       62.9480   -4.2310   51.1510 O.3   218  G218       -0.4373
   4658  OP2       61.6560   -4.7960   49.0050 O.co2 218  G218       -0.5172
   4659  P         61.5210    2.6720   47.8650 P.3   219  A219        0.2141
   4660  C5'       63.0150    4.3670   46.4730 C.3   219  A219        0.1812
   4661  O5'       61.9620    3.3800   46.5040 O.3   219  A219       -0.3114
   4662  C4'       62.9470    5.1750   45.1960 C.3   219  A219        0.1773
   4663  O4'       63.0640    4.2870   44.0500 O.3   219  A219       -0.3307
   4664  C3'       61.6450    5.9310   44.9520 C.3   219  A219        0.1860
   4665  O3'       61.6110    7.1890   45.6130 O.3   219  A219       -0.3112
   4666  C2'       61.6530    6.0970   43.4370 C.3   219  A219        0.2309
   4667  O2'       62.4250    7.1870   42.9760 O.3   219  A219       -0.2156
   4668  C1'       62.2480    4.7610   42.9870 C.3   219  A219        0.2408
   4669  N1        58.7270    3.0670   39.6250 N.ar  219  A219       -0.2040
   4670  C2        59.5850    4.0960   39.5860 C.ar  219  A219        0.2016
   4671  N3        60.4800    4.4820   40.4940 N.ar  219  A219       -0.2048
   4672  C4        60.4480    3.6720   41.5670 C.ar  219  A219        0.1692
   4673  C5        59.6220    2.5770   41.7540 C.ar  219  A219        0.1518
   4674  C6        58.7230    2.2700   40.7170 C.ar  219  A219        0.1919
   4675  N6        57.8730    1.2430   40.7550 N.pl3 219  A219       -0.1054
   4676  N7        59.8690    1.9800   42.9820 N.ar  219  A219       -0.2193
   4677  C8        60.8230    2.7140   43.5020 C.ar  219  A219        0.1816
   4678  N9        61.2260    3.7520   42.6980 N.ar  219  A219       -0.2693
   4679  OP1       61.9020    3.5780   48.9810 O.3   219  A219       -0.4373
   4680  OP2       60.0970    2.2710   47.7000 O.co2 219  A219       -0.5172
   4681  P         60.2030    7.7400   46.1420 P.3   220  G220        0.2141
   4682  C5'       59.8880    9.4650   44.1570 C.3   220  G220        0.1812
   4683  O5'       59.4650    8.2580   44.8260 O.3   220  G220       -0.3114
   4684  C4'       59.3800    9.5040   42.7310 C.3   220  G220        0.1773
   4685  O4'       59.6200    8.2280   42.0680 O.3   220  G220       -0.3307
   4686  C3'       57.8850    9.7150   42.5370 C.3   220  G220        0.1860
   4687  O3'       57.4050   11.0360   42.7510 O.3   220  G220       -0.3112
   4688  C2'       57.7070    9.2240   41.1090 C.3   220  G220        0.2309
   4689  O2'       58.2080   10.1020   40.1230 O.3   220  G220       -0.2156
   4690  C1'       58.5790    7.9710   41.1370 C.3   220  G220        0.2408
   4691  N1        55.0930    4.5280   39.8210 N.ar  220  G220       -0.1709
   4692  C2        55.6030    5.5800   39.0980 C.ar  220  G220        0.2606
   4693  N2        55.1140    5.7390   37.8600 N.pl3 220  G220       -0.0859
   4694  N3        56.5200    6.4170   39.5560 N.ar  220  G220       -0.1918
   4695  C4        56.8910    6.1180   40.8210 C.ar  220  G220        0.1723
   4696  C5        56.4460    5.0920   41.6300 C.ar  220  G220        0.1748
   4697  C6        55.4610    4.1950   41.1210 C.ar  220  G220        0.3023
   4698  O6        54.9330    3.2240   41.6800 O.2   220  G220       -0.2633
   4699  N7        57.0830    5.1280   42.8660 N.ar  220  G220       -0.2173
   4700  C8        57.8870    6.1540   42.7860 C.ar  220  G220        0.1817
   4701  N9        57.8300    6.7920   41.5690 N.ar  220  G220       -0.2693
   4702  OP1       60.4620    8.9170   47.0160 O.3   220  G220       -0.4373
   4703  OP2       59.4690    6.5660   46.6890 O.co2 220  G220       -0.5172
   4704  P         56.5670   11.2840   44.0940 P.3   221  U221        0.2141
   4705  C5'       54.0540   11.1320   43.4110 C.3   221  U221        0.1812
   4706  O5'       55.1970   11.9530   43.6410 O.3   221  U221       -0.3114
   4707  C4'       53.8140   10.9810   41.9270 C.3   221  U221        0.1773
   4708  O4'       54.6130    9.8830   41.3960 O.3   221  U221       -0.3307
   4709  C3'       52.3670   10.6670   41.5770 C.3   221  U221        0.1860
   4710  O3'       51.7030   11.8910   41.2860 O.3   221  U221       -0.3112
   4711  C2'       52.4860    9.6980   40.4070 C.3   221  U221        0.2309
   4712  O2'       52.5840   10.3580   39.1620 O.3   221  U221       -0.2156
   4713  C1'       53.7700    8.9430   40.7560 C.3   221  U221        0.2420
   4714  N1        53.5970    7.7800   41.6480 N.ar  221  U221       -0.2534
   4715  C2        52.5740    6.8870   41.3800 C.ar  221  U221        0.3546
   4716  O2        51.8040    7.0220   40.4490 O.2   221  U221       -0.2443
   4717  N3        52.4920    5.8260   42.2470 N.ar  221  U221       -0.1530
   4718  C4        53.3060    5.5630   43.3300 C.ar  221  U221        0.2846
   4719  O4        53.0990    4.5620   44.0200 O.2   221  U221       -0.2650
   4720  C5        54.3430    6.5280   43.5380 C.ar  221  U221        0.0814
   4721  C6        54.4570    7.5710   42.7040 C.ar  221  U221        0.0870
   4722  OP1       57.3140   12.3210   44.8500 O.3   221  U221       -0.4373
   4723  OP2       56.2730    9.9760   44.7460 O.co2 221  U221       -0.5172
   4724  P         50.7370   12.4340   42.4340 P.3   222  A222        0.2141
   4725  C5'       49.1350   11.0880   44.0570 C.3   222  A222        0.1812
   4726  O5'       50.2460   11.0930   43.1460 O.3   222  A222       -0.3114
   4727  C4'       47.8390   10.9260   43.2950 C.3   222  A222        0.1773
   4728  O4'       47.6360    9.5190   42.9870 O.3   222  A222       -0.3307
   4729  C3'       46.5850   11.3620   44.0450 C.3   222  A222        0.1860
   4730  O3'       45.6010   11.7990   43.1240 O.3   222  A222       -0.3112
   4731  C2'       46.1570   10.0790   44.7460 C.3   222  A222        0.2309
   4732  O2'       44.7940    9.9710   45.0990 O.3   222  A222       -0.2156
   4733  C1'       46.5180    9.0250   43.7010 C.3   222  A222        0.2408
   4734  N1        45.4320    4.0230   44.2570 N.ar  222  A222       -0.2040
   4735  C2        44.8790    4.9830   43.5050 C.ar  222  A222        0.2016
   4736  N3        45.2090    6.2690   43.4030 N.ar  222  A222       -0.2048
   4737  C4        46.2570    6.5540   44.1970 C.ar  222  A222        0.1692
   4738  C5        46.9320    5.6750   45.0260 C.ar  222  A222        0.1518
   4739  C6        46.4810    4.3430   45.0460 C.ar  222  A222        0.1919
   4740  N6        47.0260    3.3890   45.8030 N.pl3 222  A222       -0.1054
   4741  N7        47.9610    6.3230   45.6950 N.ar  222  A222       -0.2193
   4742  C8        47.8920    7.5570   45.2580 C.ar  222  A222        0.1816
   4743  N9        46.8920    7.7640   44.3380 N.ar  222  A222       -0.2693
   4744  OP1       49.6020   13.1470   41.7690 O.2   222  A222       -0.5172
   4745  OP2       51.5960   13.1320   43.4310 O.co2 222  A222       -0.4373
   4746  P         44.4080   12.7310   43.6390 P.3   223  A223        0.2141
   4747  C5'       42.4630   12.2490   45.3570 C.3   223  A223        0.1812
   4748  O5'       43.4680   11.7440   44.4620 O.3   223  A223       -0.3114
   4749  C4'       41.0910   12.2130   44.7100 C.3   223  A223        0.1773
   4750  O4'       40.8550   13.4240   43.9620 O.3   223  A223       -0.3307
   4751  C3'       40.8300   11.1290   43.6700 C.3   223  A223        0.1860
   4752  O3'       40.5020    9.9090   44.3180 O.3   223  A223       -0.3112
   4753  C2'       39.6480   11.6880   42.8690 C.3   223  A223        0.2309
   4754  O2'       38.3700   11.2710   43.3040 O.3   223  A223       -0.2156
   4755  C1'       39.7730   13.2000   43.0880 C.3   223  A223        0.2408
   4756  N1        37.4630   15.6940   39.2550 N.ar  223  A223       -0.2040
   4757  C2        36.9910   14.9940   40.2990 C.ar  223  A223        0.2016
   4758  N3        37.6600   14.3560   41.2580 N.ar  223  A223       -0.2048
   4759  C4        38.9870   14.4970   41.0850 C.ar  223  A223        0.1692
   4760  C5        39.6240   15.1820   40.0640 C.ar  223  A223        0.1518
   4761  C6        38.8040   15.8090   39.1080 C.ar  223  A223        0.1919
   4762  N6        39.2780   16.5040   38.0700 N.pl3 223  A223       -0.1054
   4763  N7        41.0030   15.0990   40.2020 N.ar  223  A223       -0.2193
   4764  C8        41.1680   14.3880   41.2920 C.ar  223  A223        0.1816
   4765  N9        39.9890   13.9820   41.8720 N.ar  223  A223       -0.2693
   4766  OP1       43.6610   13.1930   42.4280 O.2   223  A223       -0.5172
   4767  OP2       44.9770   13.7200   44.5950 O.co2 223  A223       -0.4373
   4768  P         41.3590    8.6010   43.9730 P.3   224  A224        0.2141
   4769  C5'       40.4130    6.6110   42.4920 C.3   224  A224        0.1812
   4770  O5'       40.1710    7.7000   43.4020 O.3   224  A224       -0.3114
   4771  C4'       39.6580    5.3770   42.9250 C.3   224  A224        0.1773
   4772  O4'       40.5760    4.4550   43.5860 O.3   224  A224       -0.3307
   4773  C3'       38.5150    5.5950   43.9240 C.3   224  A224        0.1860
   4774  O3'       37.5050    4.6060   43.7360 O.3   224  A224       -0.3112
   4775  C2'       39.1720    5.1980   45.2390 C.3   224  A224        0.2309
   4776  O2'       38.2670    4.8260   46.2550 O.3   224  A224       -0.2156
   4777  C1'       39.9540    3.9830   44.7620 C.3   224  A224        0.2408
   4778  N1        44.4600    4.4850   47.2410 N.ar  224  A224       -0.2040
   4779  C2        43.7890    5.3170   46.4300 C.ar  224  A224        0.2016
   4780  N3        42.6310    5.1280   45.8020 N.ar  224  A224       -0.2048
   4781  C4        42.1220    3.9230   46.1060 C.ar  224  A224        0.1692
   4782  C5        42.6890    2.9640   46.9310 C.ar  224  A224        0.1518
   4783  C6        43.9220    3.2760   47.5160 C.ar  224  A224        0.1919
   4784  N6        44.5830    2.4480   48.3250 N.pl3 224  A224       -0.1054
   4785  N7        41.8820    1.8400   47.0070 N.ar  224  A224       -0.2193
   4786  C8        40.8630    2.1350   46.2370 C.ar  224  A224        0.1816
   4787  N9        40.9410    3.3830   45.6640 N.ar  224  A224       -0.2693
   4788  OP1       41.8290    8.0480   45.2690 O.3   224  A224       -0.4373
   4789  OP2       42.3580    8.9240   42.9090 O.co2 224  A224       -0.5172
   4790  P         36.4500    4.5340   42.5390 P.3   225  U225        0.2141
   4791  C5'       37.1050    2.4000   41.1140 C.3   225  U225        0.1812
   4792  O5'       37.1620    3.8200   41.3060 O.3   225  U225       -0.3114
   4793  C4'       38.4220    1.7920   41.5210 C.3   225  U225        0.1773
   4794  O4'       38.5390    1.8660   42.9710 O.3   225  U225       -0.3307
   4795  C3'       38.6070    0.3180   41.1870 C.3   225  U225        0.1860
   4796  O3'       39.1440    0.0870   39.8920 O.3   225  U225       -0.3112
   4797  C2'       39.5680   -0.1320   42.2780 C.3   225  U225        0.2309
   4798  O2'       40.8840    0.3440   42.1170 O.3   225  U225       -0.2156
   4799  C1'       39.0250    0.6340   43.4770 C.3   225  U225        0.2420
   4800  N1        37.9240   -0.0510   44.1680 N.ar  225  U225       -0.2534
   4801  C2        38.2420   -1.1330   44.9690 C.ar  225  U225        0.3546
   4802  O2        39.3790   -1.5480   45.0990 O.2   225  U225       -0.2443
   4803  N3        37.1710   -1.7180   45.6010 N.ar  225  U225       -0.1530
   4804  C4        35.8460   -1.3360   45.5260 C.ar  225  U225        0.2846
   4805  O4        34.9960   -1.9620   46.1590 O.2   225  U225       -0.2650
   4806  C5        35.5990   -0.2080   44.6790 C.ar  225  U225        0.0814
   4807  C6        36.6210    0.3790   44.0420 C.ar  225  U225        0.0870
   4808  OP1       36.2860    5.9360   42.1020 O.2   225  U225       -0.5172
   4809  OP2       35.2530    3.7240   42.9400 O.co2 225  U225       -0.4373
   4810  P         38.5750   -1.1900   39.0970 P.3   226  G226        0.2141
   4811  C5'       40.8210   -2.4830   39.5280 C.3   226  G226        0.1812
   4812  O5'       39.4000   -2.4090   39.7030 O.3   226  G226       -0.3114
   4813  C4'       41.4040   -3.4960   40.4770 C.3   226  G226        0.1773
   4814  O4'       41.0220   -3.2010   41.8470 O.3   226  G226       -0.3307
   4815  C3'       40.9200   -4.9180   40.3170 C.3   226  G226        0.1860
   4816  O3'       41.5930   -5.5170   39.2390 O.3   226  G226       -0.3112
   4817  C2'       41.3860   -5.5110   41.6300 C.3   226  G226        0.2309
   4818  O2'       42.7980   -5.5850   41.6220 O.3   226  G226       -0.2156
   4819  C1'       40.9640   -4.4070   42.5940 C.3   226  G226        0.2408
   4820  N1        37.8610   -7.1130   45.5690 N.ar  226  G226       -0.1709
   4821  C2        39.2050   -7.2770   45.3350 C.ar  226  G226        0.2606
   4822  N2        39.8020   -8.2840   45.9840 N.pl3 226  G226       -0.0859
   4823  N3        39.9140   -6.5010   44.5310 N.ar  226  G226       -0.1918
   4824  C4        39.1570   -5.5380   43.9610 C.ar  226  G226        0.1723
   4825  C5        37.8100   -5.2920   44.1250 C.ar  226  G226        0.1748
   4826  C6        37.0630   -6.1260   44.9980 C.ar  226  G226        0.3023
   4827  O6        35.8600   -6.0630   45.2830 O.2   226  G226       -0.2633
   4828  N7        37.4150   -4.1960   43.3720 N.ar  226  G226       -0.2173
   4829  C8        38.5040   -3.8120   42.7630 C.ar  226  G226        0.1817
   4830  N9        39.6000   -4.5750   43.0860 N.ar  226  G226       -0.2693
   4831  OP1       38.9970   -1.1140   37.6840 O.2   226  G226       -0.5172
   4832  OP2       37.1350   -1.4080   39.4210 O.co2 226  G226       -0.4373
   4833  P         40.8500   -6.6450   38.4170 P.3   227  A227        0.2141
   4834  C5'       42.1410   -8.4870   39.8230 C.3   227  A227        0.1812
   4835  O5'       40.9140   -7.8190   39.4910 O.3   227  A227       -0.3114
   4836  C4'       41.8350   -9.7090   40.6600 C.3   227  A227        0.1773
   4837  O4'       41.2700   -9.3160   41.9420 O.3   227  A227       -0.3307
   4838  C3'       40.7820  -10.6550   40.0970 C.3   227  A227        0.1860
   4839  O3'       41.3580  -11.4980   39.1070 O.3   227  A227       -0.3112
   4840  C2'       40.3890  -11.4340   41.3420 C.3   227  A227        0.2309
   4841  O2'       41.4030  -12.3750   41.6370 O.3   227  A227       -0.2156
   4842  C1'       40.3940  -10.3320   42.4030 C.3   227  A227        0.2408
   4843  N1        35.9620  -10.6580   45.0220 N.ar  227  A227       -0.2040
   4844  C2        37.0520  -11.4330   45.0040 C.ar  227  A227        0.2016
   4845  N3        38.1740  -11.2980   44.2960 N.ar  227  A227       -0.2048
   4846  C4        38.1180  -10.2000   43.5230 C.ar  227  A227        0.1692
   4847  C5        37.0670   -9.3050   43.4330 C.ar  227  A227        0.1518
   4848  C6        35.9380   -9.5610   44.2350 C.ar  227  A227        0.1919
   4849  N6        34.8510   -8.7900   44.2510 N.pl3 227  A227       -0.1054
   4850  N7        37.3620   -8.2920   42.5320 N.ar  227  A227       -0.2193
   4851  C8        38.5630   -8.5950   42.1000 C.ar  227  A227        0.1816
   4852  N9        39.0820   -9.7350   42.6590 N.ar  227  A227       -0.2693
   4853  OP1       41.7730   -6.7680   37.2710 O.2   227  A227       -0.5172
   4854  OP2       39.4060   -6.4100   38.1690 O.co2 227  A227       -0.4373
   4855  P         40.4690  -12.3390   38.0750 P.3   228  A228        0.2141
   4856  C5'       40.0300  -14.6000   39.3020 C.3   228  A228        0.1812
   4857  O5'       39.5800  -13.2730   39.0050 O.3   228  A228       -0.3114
   4858  C4'       39.1220  -15.2410   40.3160 C.3   228  A228        0.1773
   4859  O4'       38.7820  -14.2930   41.3630 O.3   228  A228       -0.3307
   4860  C3'       37.7630  -15.6830   39.7970 C.3   228  A228        0.1860
   4861  O3'       37.9150  -16.9020   39.0920 O.3   228  A228       -0.3112
   4862  C2'       36.9720  -15.8080   41.0950 C.3   228  A228        0.2309
   4863  O2'       37.2220  -16.9870   41.8320 O.3   228  A228       -0.2156
   4864  C1'       37.5040  -14.6140   41.8900 C.3   228  A228        0.2408
   4865  N1        33.0320  -12.5140   43.2810 N.ar  228  A228       -0.2040
   4866  C2        33.5830  -13.7070   43.5230 C.ar  228  A228        0.2016
   4867  N3        34.7550  -14.1930   43.1210 N.ar  228  A228       -0.2048
   4868  C4        35.4130  -13.2890   42.3760 C.ar  228  A228        0.1692
   4869  C5        34.9760  -12.0230   42.0320 C.ar  228  A228        0.1518
   4870  C6        33.7140  -11.6300   42.5210 C.ar  228  A228        0.1919
   4871  N6        33.1620  -10.4390   42.2790 N.pl3 228  A228       -0.1054
   4872  N7        35.9210  -11.3740   41.2480 N.ar  228  A228       -0.2193
   4873  C8        36.8880  -12.2520   41.1300 C.ar  228  A228        0.1816
   4874  N9        36.6510  -13.4300   41.7950 N.ar  228  A228       -0.2693
   4875  OP1       41.4340  -13.1940   37.3380 O.3   228  A228       -0.4373
   4876  OP2       39.5540  -11.4420   37.3250 O.co2 228  A228       -0.5172
   4877  P         36.8480  -17.3640   38.0060 P.3   229  G229        0.2141
   4878  C5'       35.2740  -18.7530   39.5540 C.3   229  G229        0.1812
   4879  O5'       35.5150  -17.5210   38.8620 O.3   229  G229       -0.3114
   4880  C4'       34.0270  -18.6690   40.3960 C.3   229  G229        0.1773
   4881  O4'       34.0420  -17.4680   41.2080 O.3   229  G229       -0.3307
   4882  C3'       32.7210  -18.5770   39.6320 C.3   229  G229        0.1860
   4883  O3'       32.3010  -19.8410   39.1390 O.3   229  G229       -0.3112
   4884  C2'       31.7840  -18.0090   40.6890 C.3   229  G229        0.2309
   4885  O2'       31.1970  -18.9680   41.5350 O.3   229  G229       -0.2156
   4886  C1'       32.7070  -17.0300   41.4250 C.3   229  G229        0.2408
   4887  N1        29.6400  -13.0050   41.0110 N.ar  229  G229       -0.1709
   4888  C2        29.4240  -14.2040   41.6430 C.ar  229  G229        0.2606
   4889  N2        28.2320  -14.3470   42.2410 N.pl3 229  G229       -0.0859
   4890  N3        30.3120  -15.1850   41.6880 N.ar  229  G229       -0.1918
   4891  C4        31.4530  -14.8650   41.0390 C.ar  229  G229        0.1723
   4892  C5        31.7650  -13.6990   40.3730 C.ar  229  G229        0.1748
   4893  C6        30.8030  -12.6550   40.3350 C.ar  229  G229        0.3023
   4894  O6        30.8890  -11.5470   39.7940 O.2   229  G229       -0.2633
   4895  N7        33.0410  -13.7670   39.8300 N.ar  229  G229       -0.2173
   4896  C8        33.4710  -14.9530   40.1640 C.ar  229  G229        0.1817
   4897  N9        32.5640  -15.6650   40.9140 N.ar  229  G229       -0.2693
   4898  OP1       37.2830  -18.7430   37.6470 O.3   229  G229       -0.4373
   4899  OP2       36.6920  -16.3420   36.9380 O.co2 229  G229       -0.5172
   4900  P         32.1000  -20.0500   37.5570 P.3   230  C230        0.2141
   4901  C5'       29.7560  -20.4800   38.6730 C.3   230  C230        0.1812
   4902  O5'       30.5080  -19.9320   37.5780 O.3   230  C230       -0.3114
   4903  C4'       28.4830  -19.7070   38.9000 C.3   230  C230        0.1773
   4904  O4'       28.7710  -18.5080   39.6730 O.3   230  C230       -0.3307
   4905  C3'       27.7780  -19.1730   37.6640 C.3   230  C230        0.1860
   4906  O3'       27.0270  -20.1240   36.9150 O.3   230  C230       -0.3112
   4907  C2'       26.9250  -18.0680   38.2710 C.3   230  C230        0.2309
   4908  O2'       25.7840  -18.4900   38.9870 O.3   230  C230       -0.2156
   4909  C1'       27.9150  -17.4500   39.2560 C.3   230  C230        0.2420
   4910  N1        28.7300  -16.3930   38.6240 N.ar  230  C230       -0.2535
   4911  C2        28.1990  -15.0970   38.5100 C.ar  230  C230        0.3532
   4912  O2        27.0670  -14.8690   38.9640 O.2   230  C230       -0.2443
   4913  N3        28.9320  -14.1330   37.9060 N.ar  230  C230       -0.1739
   4914  C4        30.1430  -14.4230   37.4190 C.ar  230  C230        0.1759
   4915  N4        30.8310  -13.4420   36.8300 N.pl3 230  C230       -0.1070
   4916  C5        30.7020  -15.7320   37.5140 C.ar  230  C230        0.0566
   4917  C6        29.9640  -16.6800   38.1060 C.ar  230  C230        0.0850
   4918  OP1       32.4420  -21.4460   37.1640 O.3   230  C230       -0.4373
   4919  OP2       32.7290  -18.9280   36.7970 O.co2 230  C230       -0.5172
   4920  P         26.9330  -19.9780   35.3050 P.3   231  A231        0.2141
   4921  C5'       24.5690  -18.8900   35.8360 C.3   231  A231        0.1812
   4922  O5'       25.7720  -18.9160   35.0450 O.3   231  A231       -0.3114
   4923  C4'       23.9010  -17.5380   35.7130 C.3   231  A231        0.1773
   4924  O4'       24.6280  -16.5390   36.4880 O.3   231  A231       -0.3307
   4925  C3'       23.8480  -16.9310   34.3110 C.3   231  A231        0.1860
   4926  O3'       22.8210  -17.4980   33.4990 O.3   231  A231       -0.3112
   4927  C2'       23.6190  -15.4580   34.6290 C.3   231  A231        0.2309
   4928  O2'       22.2990  -15.1450   35.0170 O.3   231  A231       -0.2156
   4929  C1'       24.5180  -15.2720   35.8520 C.3   231  A231        0.2408
   4930  N1        27.1990  -11.1960   34.3280 N.ar  231  A231       -0.2040
   4931  C2        25.9170  -11.3650   34.6690 C.ar  231  A231        0.2016
   4932  N3        25.2870  -12.4680   35.0660 N.ar  231  A231       -0.2048
   4933  C4        26.1350  -13.5090   35.1030 C.ar  231  A231        0.1692
   4934  C5        27.4830  -13.4920   34.7940 C.ar  231  A231        0.1518
   4935  C6        28.0270  -12.2610   34.3800 C.ar  231  A231        0.1919
   4936  N6        29.3060  -12.0860   34.0520 N.pl3 231  A231       -0.1054
   4937  N7        28.0380  -14.7550   34.9520 N.ar  231  A231       -0.2193
   4938  C8        27.0260  -15.4960   35.3360 C.ar  231  A231        0.1816
   4939  N9        25.8500  -14.8010   35.4700 N.ar  231  A231       -0.2693
   4940  OP1       26.4070  -21.2540   34.7650 O.3   231  A231       -0.4373
   4941  OP2       28.2090  -19.4340   34.7450 O.co2 231  A231       -0.5172
   4942  P         22.8050  -17.2830   31.9110 P.3   232  G232        0.2141
   4943  C5'       21.9210  -15.1840   30.5840 C.3   232  G232        0.1812
   4944  O5'       21.9370  -15.9550   31.7990 O.3   232  G232       -0.3114
   4945  C4'       21.5650  -13.7560   30.9010 C.3   232  G232        0.1773
   4946  O4'       22.3910  -13.3200   32.0160 O.3   232  G232       -0.3307
   4947  C3'       21.8320  -12.7600   29.7760 C.3   232  G232        0.1860
   4948  O3'       20.7320  -12.6020   28.8910 O.3   232  G232       -0.3112
   4949  C2'       22.1920  -11.4840   30.5270 C.3   232  G232        0.2309
   4950  O2'       21.1040  -10.6500   30.8880 O.3   232  G232       -0.2156
   4951  C1'       22.9490  -12.0500   31.7320 C.3   232  G232        0.2408
   4952  N1        27.2170   -9.5560   30.7020 N.ar  232  G232       -0.1709
   4953  C2        25.9380   -9.0830   30.8720 C.ar  232  G232        0.2606
   4954  N2        25.7730   -7.7560   30.7630 N.pl3 232  G232       -0.0859
   4955  N3        24.8990   -9.8520   31.1400 N.ar  232  G232       -0.1918
   4956  C4        25.2420  -11.1530   31.2280 C.ar  232  G232        0.1723
   4957  C5        26.4860  -11.7290   31.0790 C.ar  232  G232        0.1748
   4958  C6        27.5960  -10.8890   30.7930 C.ar  232  G232        0.3023
   4959  O6        28.7780  -11.2030   30.6260 O.2   232  G232       -0.2633
   4960  N7        26.4140  -13.1060   31.2430 N.ar  232  G232       -0.2173
   4961  C8        25.1510  -13.3360   31.4850 C.ar  232  G232        0.1817
   4962  N9        24.3880  -12.1920   31.5000 N.ar  232  G232       -0.2693
   4963  OP1       21.9910  -18.3410   31.2870 O.2   232  G232       -0.5172
   4964  OP2       24.1770  -17.0220   31.4110 O.co2 232  G232       -0.4373
   4965  P         21.0530  -12.9260   27.3680 P.3   233  A233        0.2141
   4966  C5'       20.8870  -10.3270   27.2050 C.3   233  A233        0.1812
   4967  O5'       21.6270  -11.5230   26.8890 O.3   233  A233       -0.3114
   4968  C4'       21.7570   -9.1040   27.0650 C.3   233  A233        0.1773
   4969  O4'       22.8300   -9.1230   28.0420 O.3   233  A233       -0.3307
   4970  C3'       22.4960   -8.9800   25.7450 C.3   233  A233        0.1860
   4971  O3'       21.5890   -8.4690   24.7960 O.3   233  A233       -0.3112
   4972  C2'       23.5910   -7.9910   26.1060 C.3   233  A233        0.2309
   4973  O2'       23.1480   -6.6560   26.2270 O.3   233  A233       -0.2156
   4974  C1'       23.9640   -8.4700   27.5050 C.3   233  A233        0.2408
   4975  N1        29.0340   -8.9580   26.9290 N.ar  233  A233       -0.2040
   4976  C2        28.2120   -7.9120   26.8100 C.ar  233  A233        0.2016
   4977  N3        26.8900   -7.8580   26.9600 N.ar  233  A233       -0.2048
   4978  C4        26.3990   -9.0710   27.2760 C.ar  233  A233        0.1692
   4979  C5        27.1180  -10.2420   27.4250 C.ar  233  A233        0.1518
   4980  C6        28.5070  -10.1630   27.2400 C.ar  233  A233        0.1919
   4981  N6        29.3250  -11.2050   27.3540 N.pl3 233  A233       -0.1054
   4982  N7        26.2760  -11.2960   27.7530 N.ar  233  A233       -0.2193
   4983  C8        25.0870  -10.7480   27.7970 C.ar  233  A233        0.1816
   4984  N9        25.0880   -9.4020   27.5240 N.ar  233  A233       -0.2693
   4985  OP1       19.7610  -13.1060   26.6840 O.2   233  A233       -0.5172
   4986  OP2       22.0780  -13.9980   27.2860 O.co2 233  A233       -0.4373
   4987  P         21.6600   -9.1570   23.3820 P.3   234  U234        0.2141
   4988  C5'       23.2570   -7.2040   22.6350 C.3   234  U234        0.1812
   4989  O5'       23.0670   -8.6100   22.8850 O.3   234  U234       -0.3114
   4990  C4'       24.6990   -6.9140   22.2830 C.3   234  U234        0.1773
   4991  O4'       25.5480   -7.2160   23.4200 O.3   234  U234       -0.3307
   4992  C3'       25.2930   -7.7380   21.1570 C.3   234  U234        0.1860
   4993  O3'       25.0790   -7.1710   19.8900 O.3   234  U234       -0.3112
   4994  C2'       26.7790   -7.6400   21.4450 C.3   234  U234        0.2309
   4995  O2'       27.3410   -6.4270   21.0440 O.3   234  U234       -0.2156
   4996  C1'       26.7980   -7.6970   22.9640 C.3   234  U234        0.2420
   4997  N1        26.9830   -9.0680   23.4510 N.ar  234  U234       -0.2534
   4998  C2        28.2800   -9.5000   23.6300 C.ar  234  U234        0.3546
   4999  O2        29.2470   -8.7840   23.4320 O.2   234  U234       -0.2443
   5000  N3        28.4000  -10.7970   24.0690 N.ar  234  U234       -0.1530
   5001  C4        27.3790  -11.6900   24.3300 C.ar  234  U234        0.2846
   5002  O4        27.6480  -12.8250   24.7230 O.2   234  U234       -0.2650
   5003  C5        26.0670  -11.1720   24.0990 C.ar  234  U234        0.0814
   5004  C6        25.9170   -9.9080   23.6830 C.ar  234  U234        0.0870
   5005  OP1       20.6280   -8.5050   22.5250 O.2   234  U234       -0.5172
   5006  OP2       21.6600  -10.6170   23.6000 O.co2 234  U234       -0.4373
   5007  P         24.5170   -8.1780   18.8260 P.3   235  U235        0.2141
   5008  C5'       25.4100   -6.8650   16.7420 C.3   235  U235        0.1812
   5009  O5'       24.3020   -7.1900   17.5920 O.3   235  U235       -0.3114
   5010  C4'       25.1420   -5.5860   16.0070 C.3   235  U235        0.1773
   5011  O4'       24.3670   -5.8720   14.8050 O.3   235  U235       -0.3307
   5012  C3'       24.3150   -4.5830   16.8040 C.3   235  U235        0.1860
   5013  O3'       24.6920   -3.2740   16.3780 O.3   235  U235       -0.3112
   5014  C2'       22.8910   -4.9150   16.3820 C.3   235  U235        0.2309
   5015  O2'       22.0850   -3.7710   16.5420 O.3   235  U235       -0.2156
   5016  C1'       23.0970   -5.2440   14.9010 C.3   235  U235        0.2420
   5017  N1        22.0990   -6.1340   14.2970 N.ar  235  U235       -0.2534
   5018  C2        21.4870   -5.7150   13.1290 C.ar  235  U235        0.3546
   5019  O2        21.7170   -4.6400   12.6130 O.2   235  U235       -0.2443
   5020  N3        20.6130   -6.6200   12.5780 N.ar  235  U235       -0.1530
   5021  C4        20.2910   -7.8720   13.0630 C.ar  235  U235        0.2846
   5022  O4        19.4540   -8.5550   12.4720 O.2   235  U235       -0.2650
   5023  C5        20.9820   -8.2390   14.2630 C.ar  235  U235        0.0814
   5024  C6        21.8500   -7.3840   14.8190 C.ar  235  U235        0.0870
   5025  OP1       23.2180   -8.7370   19.2820 O.3   235  U235       -0.4373
   5026  OP2       25.6710   -9.0880   18.5560 O.co2 235  U235       -0.5172
   5027  P         24.7630   -2.1080   17.4390 P.3   236  G236        0.2141
   5028  C5'       25.7490   -0.0410   16.1280 C.3   236  G236        0.1812
   5029  O5'       25.9580   -1.1840   16.9530 O.3   236  G236       -0.3114
   5030  C4'       27.0880    0.6060   15.9340 C.3   236  G236        0.1773
   5031  O4'       27.8090    0.5970   17.1950 O.3   236  G236       -0.3307
   5032  C3'       27.9850   -0.1490   14.9810 C.3   236  G236        0.1860
   5033  O3'       27.7660    0.4100   13.7170 O.3   236  G236       -0.3112
   5034  C2'       29.3860    0.1860   15.4640 C.3   236  G236        0.2309
   5035  O2'       29.8400    1.4470   15.0620 O.3   236  G236       -0.2156
   5036  C1'       29.1850    0.3380   16.9590 C.3   236  G236        0.2408
   5037  N1        32.8990   -2.0780   19.4520 N.ar  236  G236       -0.1709
   5038  C2        32.9760   -0.9540   18.6700 C.ar  236  G236        0.2606
   5039  N2        34.1920   -0.3880   18.5860 N.pl3 236  G236       -0.0859
   5040  N3        31.9420   -0.4370   18.0110 N.ar  236  G236       -0.1918
   5041  C4        30.7990   -1.1220   18.2510 C.ar  236  G236        0.1723
   5042  C5        30.6180   -2.2480   19.0270 C.ar  236  G236        0.1748
   5043  C6        31.7480   -2.8210   19.6770 C.ar  236  G236        0.3023
   5044  O6        31.7970   -3.8140   20.4120 O.2   236  G236       -0.2633
   5045  N7        29.2800   -2.6320   19.0360 N.ar  236  G236       -0.2173
   5046  C8        28.6950   -1.7890   18.2290 C.ar  236  G236        0.1817
   5047  N9        29.5530   -0.8290   17.7400 N.ar  236  G236       -0.2693
   5048  OP1       25.2510   -2.7440   18.6970 O.3   236  G236       -0.4373
   5049  OP2       23.4690   -1.3600   17.3780 O.co2 236  G236       -0.5172
   5050  P         28.5090   -0.2130   12.4510 P.3   237  A237        0.2141
   5051  C5'       26.7450   -2.1430   12.5110 C.3   237  A237        0.1812
   5052  O5'       28.1100   -1.7450   12.6210 O.3   237  A237       -0.3114
   5053  C4'       26.5710   -3.4700   13.1800 C.3   237  A237        0.1773
   5054  O4'       25.2490   -3.9920   12.8300 O.3   237  A237       -0.3307
   5055  C3'       27.5660   -4.5200   12.7170 C.3   237  A237        0.1860
   5056  O3'       27.5220   -5.4920   13.7230 O.3   237  A237       -0.3112
   5057  C2'       26.8060   -5.1720   11.5780 C.3   237  A237        0.2309
   5058  O2'       27.2390   -6.4690   11.2650 O.3   237  A237       -0.2156
   5059  C1'       25.3970   -5.2190   12.1680 C.3   237  A237        0.2408
   5060  N1        22.0110   -8.3380    9.9640 N.ar  237  A237       -0.2040
   5061  C2        22.7930   -8.4670   11.0490 C.ar  237  A237        0.2016
   5062  N3        23.6460   -7.5970   11.5780 N.ar  237  A237       -0.2048
   5063  C4        23.6620   -6.4580   10.8620 C.ar  237  A237        0.1692
   5064  C5        22.9200   -6.1770    9.7270 C.ar  237  A237        0.1518
   5065  C6        22.0700   -7.1890    9.2560 C.ar  237  A237        0.1919
   5066  N6        21.2800   -7.0560    8.1920 N.pl3 237  A237       -0.1054
   5067  N7        23.1920   -4.8960    9.2680 N.ar  237  A237       -0.2193
   5068  C8        24.0830   -4.4410   10.1180 C.ar  237  A237        0.1816
   5069  N9        24.3880   -5.3230   11.1260 N.ar  237  A237       -0.2693
   5070  OP1       30.0040   -0.1050   12.5720 O.3   237  A237       -0.4373
   5071  OP2       27.7620    0.2880   11.2420 O.co2 237  A237       -0.5172
   5072  P         28.7880   -6.3580   14.1010 P.3   238  U238        0.2141
   5073  C5'       29.8870   -6.3130   16.3900 C.3   238  U238        0.1812
   5074  O5'       29.1590   -5.6250   15.4540 O.3   238  U238       -0.3114
   5075  C4'       31.2300   -5.7020   16.5450 C.3   238  U238        0.1773
   5076  O4'       31.3300   -5.4970   17.9740 O.3   238  U238       -0.3307
   5077  C3'       32.3430   -6.6890   16.1700 C.3   238  U238        0.1860
   5078  O3'       33.0080   -6.3710   14.9390 O.3   238  U238       -0.3112
   5079  C2'       33.1790   -6.8520   17.4550 C.3   238  U238        0.2309
   5080  O2'       34.4120   -6.1710   17.7310 O.3   238  U238       -0.2156
   5081  C1'       32.1600   -6.4970   18.5340 C.3   238  U238        0.2420
   5082  N1        31.3320   -7.6250   18.9760 N.ar  238  U238       -0.2534
   5083  C2        31.9700   -8.6190   19.7040 C.ar  238  U238        0.3546
   5084  O2        33.1680   -8.5940   19.9540 O.2   238  U238       -0.2443
   5085  N3        31.1560   -9.6470   20.1120 N.ar  238  U238       -0.1530
   5086  C4        29.8010   -9.7770   19.8870 C.ar  238  U238        0.2846
   5087  O4        29.2020  -10.7570   20.3420 O.2   238  U238       -0.2650
   5088  C5        29.2130   -8.7040   19.1370 C.ar  238  U238        0.0814
   5089  C6        29.9800   -7.6880   18.7230 C.ar  238  U238        0.0870
   5090  OP1       30.1050   -6.0690   13.4230 O.2   238  U238       -0.5172
   5091  OP2       28.3360   -7.7160   14.4430 O.co2 238  U238       -0.4373
   5092  P         33.1610   -7.5950   13.8690 P.3   239  G239        0.2141
   5093  C5'       35.6940   -7.7910   14.5700 C.3   239  G239        0.1812
   5094  O5'       34.3430   -8.2020   14.7320 O.3   239  G239       -0.3114
   5095  C4'       36.6140   -8.8630   15.1400 C.3   239  G239        0.1773
   5096  O4'       36.2610   -9.2100   16.5100 O.3   239  G239       -0.3307
   5097  C3'       36.5890  -10.2120   14.4540 C.3   239  G239        0.1860
   5098  O3'       37.2980  -10.0360   13.2610 O.3   239  G239       -0.3112
   5099  C2'       37.3040  -11.0740   15.4850 C.3   239  G239        0.2309
   5100  O2'       38.7230  -11.0040   15.6740 O.3   239  G239       -0.2156
   5101  C1'       36.6750  -10.5420   16.7690 C.3   239  G239        0.2408
   5102  N1        34.9770  -14.9940   18.5060 N.ar  239  G239       -0.1709
   5103  C2        36.2570  -14.6100   18.1990 C.ar  239  G239        0.2606
   5104  N2        37.2130  -15.5250   18.3990 N.pl3 239  G239       -0.0859
   5105  N3        36.5800  -13.4120   17.7430 N.ar  239  G239       -0.1918
   5106  C4        35.5010  -12.6140   17.6080 C.ar  239  G239        0.1723
   5107  C5        34.1820  -12.8990   17.8830 C.ar  239  G239        0.1748
   5108  C6        33.8510  -14.1900   18.3840 C.ar  239  G239        0.3023
   5109  O6        32.7400  -14.6420   18.6800 O.2   239  G239       -0.2633
   5110  N7        33.3720  -11.8060   17.5940 N.ar  239  G239       -0.2173
   5111  C8        34.1990  -10.8970   17.1530 C.ar  239  G239        0.1817
   5112  N9        35.5070  -11.3140   17.1570 N.ar  239  G239       -0.2693
   5113  OP1       33.5010   -7.3030   12.4370 O.2   239  G239       -0.5172
   5114  OP2       31.9540   -8.4020   14.1740 O.co2 239  G239       -0.4373
   5115  P         36.7680  -10.9450   12.0720 P.3   240  A240        0.2141
   5116  C5'       36.9100  -13.5990   12.0470 C.3   240  A240        0.1812
   5117  O5'       37.2280  -12.3510   12.6700 O.3   240  A240       -0.3114
   5118  C4'       37.6910  -14.6720   12.7400 C.3   240  A240        0.1773
   5119  O4'       37.4540  -14.5990   14.1720 O.3   240  A240       -0.3307
   5120  C3'       37.3360  -16.0950   12.3270 C.3   240  A240        0.1860
   5121  O3'       38.1270  -16.4230   11.1700 O.3   240  A240       -0.3112
   5122  C2'       37.5930  -16.8910   13.6060 C.3   240  A240        0.2309
   5123  O2'       38.9730  -17.0180   13.8280 O.3   240  A240       -0.2156
   5124  C1'       37.1900  -15.8950   14.6880 C.3   240  A240        0.2408
   5125  N1        33.4280  -18.6820   16.8580 N.ar  240  A240       -0.2040
   5126  C2        34.7280  -18.9350   16.6570 C.ar  240  A240        0.2016
   5127  N3        35.6600  -18.1710   16.0900 N.ar  240  A240       -0.2048
   5128  C4        35.1330  -17.0000   15.6980 C.ar  240  A240        0.1692
   5129  C5        33.8150  -16.5980   15.8290 C.ar  240  A240        0.1518
   5130  C6        32.9290  -17.4980   16.4360 C.ar  240  A240        0.1919
   5131  N6        31.6360  -17.2300   16.6520 N.pl3 240  A240       -0.1054
   5132  N7        33.6420  -15.3200   15.3300 N.ar  240  A240       -0.2193
   5133  C8        34.8260  -15.0010   14.8640 C.ar  240  A240        0.1816
   5134  N9        35.7780  -15.9650   15.0660 N.ar  240  A240       -0.2693
   5135  OP1       37.6040  -10.6400   10.8990 O.2   240  A240       -0.5172
   5136  OP2       35.2810  -10.8660   11.9790 O.co2 240  A240       -0.4373
   5137  P         37.3930  -17.3350   10.0600 P.3   241  A241        0.2141
   5138  C5'       38.3890  -19.4540   11.3070 C.3   241  A241        0.1812
   5139  O5'       37.2560  -18.6030   11.0150 O.3   241  A241       -0.3114
   5140  C4'       37.8990  -20.7700   11.8630 C.3   241  A241        0.1773
   5141  O4'       37.2980  -20.5710   13.1710 O.3   241  A241       -0.3307
   5142  C3'       36.7790  -21.4440   11.0780 C.3   241  A241        0.1860
   5143  O3'       37.2790  -22.0560    9.8960 O.3   241  A241       -0.3112
   5144  C2'       36.2330  -22.3990   12.1210 C.3   241  A241        0.2309
   5145  O2'       37.1880  -23.4340   12.2560 O.3   241  A241       -0.2156
   5146  C1'       36.2330  -21.4950   13.3560 C.3   241  A241        0.2408
   5147  N1        31.3270  -21.7230   14.8610 N.ar  241  A241       -0.2040
   5148  C2        32.3250  -22.6160   14.9000 C.ar  241  A241        0.2016
   5149  N3        33.5870  -22.4910   14.4860 N.ar  241  A241       -0.2048
   5150  C4        33.7990  -21.2640   13.9840 C.ar  241  A241        0.1692
   5151  C5        32.8690  -20.2440   13.8710 C.ar  241  A241        0.1518
   5152  C6        31.5690  -20.5120   14.3160 C.ar  241  A241        0.1919
   5153  N6        30.5750  -19.6320   14.2510 N.pl3 241  A241       -0.1054
   5154  N7        33.4430  -19.1200   13.3010 N.ar  241  A241       -0.2193
   5155  C8        34.6850  -19.4820   13.0710 C.ar  241  A241        0.1816
   5156  N9        34.9770  -20.7560   13.4900 N.ar  241  A241       -0.2693
   5157  OP1       38.3850  -17.3890    8.9830 O.2   241  A241       -0.5172
   5158  OP2       35.9950  -16.9740    9.7190 O.co2 241  A241       -0.4373
   5159  P         36.2970  -22.6650    8.7780 P.3   242  G242        0.2141
   5160  C5'       35.9110  -25.1430    9.6170 C.3   242  G242        0.1812
   5161  O5'       35.5190  -23.7600    9.6350 O.3   242  G242       -0.3114
   5162  C4'       34.7920  -25.9600   10.1900 C.3   242  G242        0.1773
   5163  O4'       34.2940  -25.2910   11.3710 O.3   242  G242       -0.3307
   5164  C3'       33.5610  -26.0500    9.3130 C.3   242  G242        0.1860
   5165  O3'       33.7280  -26.9330    8.2080 O.3   242  G242       -0.3112
   5166  C2'       32.4910  -26.4140   10.3330 C.3   242  G242        0.2309
   5167  O2'       32.4020  -27.7830   10.6780 O.3   242  G242       -0.2156
   5168  C1'       32.9120  -25.5500   11.5240 C.3   242  G242        0.2408
   5169  N1        28.5120  -23.2180   12.5080 N.ar  242  G242       -0.1709
   5170  C2        28.8690  -24.5320   12.7020 C.ar  242  G242        0.2606
   5171  N2        27.9270  -25.3310   13.2280 N.pl3 242  G242       -0.0859
   5172  N3        30.0690  -25.0210   12.4250 N.ar  242  G242       -0.1918
   5173  C4        30.8910  -24.0820   11.9100 C.ar  242  G242        0.1723
   5174  C5        30.6290  -22.7520   11.6630 C.ar  242  G242        0.1748
   5175  C6        29.3440  -22.2340   11.9840 C.ar  242  G242        0.3023
   5176  O6        28.9190  -21.0800   11.8380 O.2   242  G242       -0.2633
   5177  N7        31.7470  -22.1200   11.1310 N.ar  242  G242       -0.2173
   5178  C8        32.6460  -23.0650   11.0490 C.ar  242  G242        0.1817
   5179  N9        32.1970  -24.2760   11.5210 N.ar  242  G242       -0.2693
   5180  OP1       37.2650  -23.1080    7.7180 O.2   242  G242       -0.5172
   5181  OP2       35.1450  -21.8080    8.4030 O.co2 242  G242       -0.4373
   5182  P         32.8980  -26.5460    6.8970 P.3   243  G243        0.2141
   5183  C5'       30.6370  -27.8850    7.2430 C.3   243  G243        0.1812
   5184  O5'       31.4140  -26.6990    7.4720 O.3   243  G243       -0.3114
   5185  C4'       29.3500  -27.8330    8.0220 C.3   243  G243        0.1773
   5186  O4'       29.4170  -26.8020    9.0440 O.3   243  G243       -0.3307
   5187  C3'       28.1120  -27.4170    7.2520 C.3   243  G243        0.1860
   5188  O3'       27.5720  -28.4300    6.4170 O.3   243  G243       -0.3112
   5189  C2'       27.1570  -27.0800    8.3880 C.3   243  G243        0.2309
   5190  O2'       26.6080  -28.2230    8.9910 O.3   243  G243       -0.2156
   5191  C1'       28.0960  -26.4000    9.3920 C.3   243  G243        0.2408
   5192  N1        25.1470  -22.2770    9.9200 N.ar  243  G243       -0.1709
   5193  C2        24.8450  -23.5960   10.1580 C.ar  243  G243        0.2606
   5194  N2        23.6030  -23.8470   10.5930 N.pl3 243  G243       -0.0859
   5195  N3        25.7030  -24.5930    9.9970 N.ar  243  G243       -0.1918
   5196  C4        26.9060  -24.1590    9.5640 C.ar  243  G243        0.1723
   5197  C5        27.3040  -22.8700    9.2840 C.ar  243  G243        0.1748
   5198  C6        26.3770  -21.8090    9.4690 C.ar  243  G243        0.3023
   5199  O6        26.5410  -20.5980    9.2660 O.2   243  G243       -0.2633
   5200  N7        28.6200  -22.8450    8.8490 N.ar  243  G243       -0.2173
   5201  C8        28.9940  -24.0950    8.8740 C.ar  243  G243        0.1817
   5202  N9        28.0080  -24.9440    9.3090 N.ar  243  G243       -0.2693
   5203  OP1       33.1550  -27.5630    5.8560 O.2   243  G243       -0.5172
   5204  OP2       33.1450  -25.1320    6.5420 O.co2 243  G243       -0.4373
   5205  P         27.5980  -28.2260    4.8080 P.3   244  G244        0.2141
   5206  C5'       25.0110  -27.9970    5.0810 C.3   244  G244        0.1812
   5207  O5'       26.2400  -27.3930    4.7130 O.3   244  G244       -0.3114
   5208  C4'       23.9950  -26.9630    5.4960 C.3   244  G244        0.1773
   5209  O4'       24.5190  -26.1340    6.5800 O.3   244  G244       -0.3307
   5210  C3'       23.5860  -25.9620    4.4330 C.3   244  G244        0.1860
   5211  O3'       22.6120  -26.4930    3.5490 O.3   244  G244       -0.3112
   5212  C2'       23.0470  -24.8230    5.2860 C.3   244  G244        0.2309
   5213  O2'       21.7980  -25.2220    5.8020 O.3   244  G244       -0.2156
   5214  C1'       24.0720  -24.7950    6.4210 C.3   244  G244        0.2408
   5215  N1        25.8380  -20.0330    6.1810 N.ar  244  G244       -0.1709
   5216  C2        24.5740  -20.4750    6.4600 C.ar  244  G244        0.2606
   5217  N2        23.6630  -19.5340    6.7050 N.pl3 244  G244       -0.0859
   5218  N3        24.2310  -21.7530    6.5090 N.ar  244  G244       -0.1918
   5219  C4        25.2710  -22.5660    6.2280 C.ar  244  G244        0.1723
   5220  C5        26.5730  -22.2220    5.9340 C.ar  244  G244        0.1748
   5221  C6        26.9260  -20.8480    5.8970 C.ar  244  G244        0.3023
   5222  O6        28.0270  -20.3410    5.6610 O.2   244  G244       -0.2633
   5223  N7        27.3440  -23.3550    5.7150 N.ar  244  G244       -0.2173
   5224  C8        26.5090  -24.3480    5.8680 C.ar  244  G244        0.1817
   5225  N9        25.2340  -23.9400    6.1740 N.ar  244  G244       -0.2693
   5226  OP1       27.2790  -29.5650    4.1960 O.2   244  G244       -0.5172
   5227  OP2       28.8520  -27.5160    4.3610 O.co2 244  G244       -0.4373
   5228  P         23.0930  -26.7050    2.0340 P.3   245  A245        0.2141
   5229  C5'       21.3940  -24.7460    1.9460 C.3   245  A245        0.1812
   5230  O5'       22.4140  -25.4740    1.2970 O.3   245  A245       -0.3114
   5231  C4'       20.4410  -24.1600    0.9430 C.3   245  A245        0.1773
   5232  O4'       20.8850  -24.3260   -0.4360 O.3   245  A245       -0.3307
   5233  C3'       19.0590  -24.7810    1.0140 C.3   245  A245        0.1860
   5234  O3'       18.2750  -23.6230    0.9360 O.3   245  A245       -0.3112
   5235  C2'       18.9580  -25.6070   -0.2620 C.3   245  A245        0.2309
   5236  O2'       17.6130  -25.4680   -0.6510 O.3   245  A245       -0.2156
   5237  C1'       19.7870  -24.7680   -1.2190 C.3   245  A245        0.2408
   5238  N1        19.8860  -24.5540   -6.3360 N.ar  245  A245       -0.2040
   5239  C2        19.1870  -23.8810   -5.4180 C.ar  245  A245        0.2016
   5240  N3        19.1810  -24.0180   -4.0950 N.ar  245  A245       -0.2048
   5241  C4        20.0350  -24.9810   -3.7160 C.ar  245  A245        0.1692
   5242  C5        20.8270  -25.7580   -4.5410 C.ar  245  A245        0.1518
   5243  C6        20.7370  -25.5150   -5.9240 C.ar  245  A245        0.1919
   5244  N6        21.4270  -26.1930   -6.8470 N.pl3 245  A245       -0.1054
   5245  N7        21.5850  -26.6480   -3.7960 N.ar  245  A245       -0.2193
   5246  C8        21.2540  -26.3790   -2.5540 C.ar  245  A245        0.1816
   5247  N9        20.3010  -25.3990   -2.4350 N.ar  245  A245       -0.2693
   5248  OP1       22.3980  -27.9300    1.5610 O.2   245  A245       -0.5172
   5249  OP2       24.5890  -26.5830    1.8350 O.co2 245  A245       -0.4373
   5250  P         17.0990  -23.6130    1.9660 P.3   246  A246        0.2141
   5251  C5'       16.9870  -22.5670    4.3780 C.3   246  A246        0.1812
   5252  O5'       17.4100  -22.4530    3.0040 O.3   246  A246       -0.3114
   5253  C4'       17.2560  -21.2580    5.0570 C.3   246  A246        0.1773
   5254  O4'       18.6920  -21.1490    5.3150 O.3   246  A246       -0.3307
   5255  C3'       16.9080  -20.0660    4.1700 C.3   246  A246        0.1860
   5256  O3'       16.4880  -18.9720    4.9460 O.3   246  A246       -0.3112
   5257  C2'       18.2240  -19.7890    3.4590 C.3   246  A246        0.2309
   5258  O2'       18.1380  -18.4590    3.0230 O.3   246  A246       -0.2156
   5259  C1'       19.2230  -20.0770    4.5750 C.3   246  A246        0.2408
   5260  N1        23.9230  -18.5150    3.3240 N.ar  246  A246       -0.2040
   5261  C2        22.8120  -17.8480    3.6780 C.ar  246  A246        0.2016
   5262  N3        21.6060  -18.3200    3.9700 N.ar  246  A246       -0.2048
   5263  C4        21.5990  -19.6620    3.9080 C.ar  246  A246        0.1692
   5264  C5        22.6540  -20.4860    3.5490 C.ar  246  A246        0.1518
   5265  C6        23.8700  -19.8640    3.2400 C.ar  246  A246        0.1919
   5266  N6        24.9680  -20.5240    2.8630 N.pl3 246  A246       -0.1054
   5267  N7        22.2610  -21.8150    3.5540 N.ar  246  A246       -0.2193
   5268  C8        20.9980  -21.7670    3.9140 C.ar  246  A246        0.1816
   5269  N9        20.5280  -20.4930    4.1130 N.ar  246  A246       -0.2693
   5270  OP1       17.2800  -24.8060    2.8520 O.3   246  A246       -0.4373
   5271  OP2       15.8060  -23.3350    1.2420 O.co2 246  A246       -0.5172
   5272  P         14.9450  -18.7300    4.7660 P.3   247  A247        0.2141
   5273  C5'       15.0990  -16.3460    5.9390 C.3   247  A247        0.1812
   5274  O5'       14.4580  -17.2320    4.9940 O.3   247  A247       -0.3114
   5275  C4'       16.3170  -15.6620    5.3550 C.3   247  A247        0.1773
   5276  O4'       16.7200  -16.2000    4.0680 O.3   247  A247       -0.3307
   5277  C3'       16.2200  -14.1730    5.0520 C.3   247  A247        0.1860
   5278  O3'       16.2400  -13.4050    6.2340 O.3   247  A247       -0.3112
   5279  C2'       17.5010  -13.9700    4.2570 C.3   247  A247        0.2309
   5280  O2'       18.6540  -14.1670    5.0420 O.3   247  A247       -0.2156
   5281  C1'       17.4780  -15.2110    3.3710 C.3   247  A247        0.2408
   5282  N1        17.9680  -13.0070   -1.2200 N.ar  247  A247       -0.2040
   5283  C2        18.7960  -13.1150   -0.1780 C.ar  247  A247        0.2016
   5284  N3        18.6010  -13.7090    0.9960 N.ar  247  A247       -0.2048
   5285  C4        17.3650  -14.2200    1.0650 C.ar  247  A247        0.1692
   5286  C5        16.4010  -14.1920    0.0760 C.ar  247  A247        0.1518
   5287  C6        16.7330  -13.5340   -1.1170 C.ar  247  A247        0.1919
   5288  N6        15.9040  -13.4070   -2.1480 N.pl3 247  A247       -0.1054
   5289  N7        15.2510  -14.8470    0.4930 N.ar  247  A247       -0.2193
   5290  C8        15.5420  -15.2500    1.7070 C.ar  247  A247        0.1816
   5291  N9        16.8150  -14.9240    2.1060 N.ar  247  A247       -0.2693
   5292  OP1       14.2710  -19.6350    5.7150 O.3   247  A247       -0.4373
   5293  OP2       14.8530  -18.9100    3.3050 O.co2 247  A247       -0.5172
   5294  P         15.7170  -11.9060    6.1570 P.3   248  G248        0.2141
   5295  C5'       17.9630  -10.5670    5.7340 C.3   248  G248        0.1812
   5296  O5'       16.7490  -11.1520    5.2050 O.3   248  G248       -0.3114
   5297  C4'       18.7770   -9.9280    4.6310 C.3   248  G248        0.1773
   5298  O4'       18.8800  -10.8120    3.4740 O.3   248  G248       -0.3307
   5299  C3'       18.2740   -8.6260    4.0220 C.3   248  G248        0.1860
   5300  O3'       18.6290   -7.4610    4.7650 O.3   248  G248       -0.3112
   5301  C2'       19.0790   -8.5940    2.7300 C.3   248  G248        0.2309
   5302  O2'       20.4940   -8.4210    2.8560 O.3   248  G248       -0.2156
   5303  C1'       18.9150  -10.0380    2.2840 C.3   248  G248        0.2408
   5304  N1        16.5580   -9.3320   -2.1380 N.ar  248  G248       -0.1709
   5305  C2        17.8240   -8.9630   -1.7560 C.ar  248  G248        0.2606
   5306  N2        18.5530   -8.3110   -2.6730 N.pl3 248  G248       -0.0859
   5307  N3        18.3320   -9.2000   -0.5580 N.ar  248  G248       -0.1918
   5308  C4        17.4560   -9.8510    0.2390 C.ar  248  G248        0.1723
   5309  C5        16.1760  -10.2700   -0.0520 C.ar  248  G248        0.1748
   5310  C6        15.6480  -10.0130   -1.3370 C.ar  248  G248        0.3023
   5311  O6        14.5350  -10.3040   -1.7830 O.2   248  G248       -0.2633
   5312  N7        15.6170  -10.9300    1.0310 N.ar  248  G248       -0.2173
   5313  C8        16.5350  -10.8720    1.9570 C.ar  248  G248        0.1817
   5314  N9        17.6800  -10.2390    1.5400 N.ar  248  G248       -0.2693
   5315  OP1       15.9460  -11.4570    7.5680 O.3   248  G248       -0.4373
   5316  OP2       14.3560  -11.8480    5.5650 O.co2 248  G248       -0.5172
   5317  P         17.5160   -6.3300    5.0440 P.3   249  A249        0.2141
   5318  C5'       18.9180   -5.1330    3.2310 C.3   249  A249        0.1812
   5319  O5'       17.6390   -5.4870    3.6960 O.3   249  A249       -0.3114
   5320  C4'       18.8210   -4.6150    1.8230 C.3   249  A249        0.1773
   5321  O4'       18.5310   -5.7000    0.9020 O.3   249  A249       -0.3307
   5322  C3'       17.7270   -3.5980    1.5160 C.3   249  A249        0.1860
   5323  O3'       18.0280   -2.2880    2.0300 O.3   249  A249       -0.3112
   5324  C2'       17.6990   -3.6850   -0.0040 C.3   249  A249        0.2309
   5325  O2'       18.8990   -3.1870   -0.5680 O.3   249  A249       -0.2156
   5326  C1'       17.8050   -5.1970   -0.2070 C.3   249  A249        0.2408
   5327  N1        13.7760   -6.6330   -3.0990 N.ar  249  A249       -0.2040
   5328  C2        14.8420   -5.8660   -3.3660 C.ar  249  A249        0.2016
   5329  N3        15.8500   -5.5140   -2.5680 N.ar  249  A249       -0.2048
   5330  C4        15.7000   -6.0560   -1.3470 C.ar  249  A249        0.1692
   5331  C5        14.6490   -6.8450   -0.9150 C.ar  249  A249        0.1518
   5332  C6        13.6420   -7.1390   -1.8520 C.ar  249  A249        0.1919
   5333  N6        12.5970   -7.9290   -1.5890 N.pl3 249  A249       -0.1054
   5334  N7        14.8270   -7.2190    0.4090 N.ar  249  A249       -0.2193
   5335  C8        15.9540   -6.6380    0.7500 C.ar  249  A249        0.1816
   5336  N9        16.5340   -5.9170   -0.2640 N.ar  249  A249       -0.2693
   5337  OP1       18.0890   -5.5880    6.1810 O.3   249  A249       -0.4373
   5338  OP2       16.1100   -6.8570    5.1470 O.co2 249  A249       -0.5172
   5339  P         16.8500   -1.2830    2.4800 P.3   250  C250        0.2141
   5340  C5'       17.1140    0.0790    0.2570 C.3   250  C250        0.1812
   5341  O5'       16.2680   -0.7010    1.1150 O.3   250  C250       -0.3114
   5342  C4'       16.4880    0.1930   -1.1070 C.3   250  C250        0.1773
   5343  O4'       16.3310   -1.1390   -1.6670 O.3   250  C250       -0.3307
   5344  C3'       15.0830    0.7540   -1.1570 C.3   250  C250        0.1860
   5345  O3'       15.0730    2.1740   -1.1480 O.3   250  C250       -0.3112
   5346  C2'       14.6280    0.2260   -2.5010 C.3   250  C250        0.2309
   5347  O2'       15.4220    0.7890   -3.5190 O.3   250  C250       -0.2156
   5348  C1'       15.1590   -1.1960   -2.4410 C.3   250  C250        0.2420
   5349  N1        14.2510   -2.1650   -1.8250 N.ar  250  C250       -0.2535
   5350  C2        13.2780   -2.7650   -2.6310 C.ar  250  C250        0.3532
   5351  O2        13.1990   -2.4260   -3.8250 O.2   250  C250       -0.2443
   5352  N3        12.4400   -3.6840   -2.0880 N.ar  250  C250       -0.1739
   5353  C4        12.5540   -4.0060   -0.7960 C.ar  250  C250        0.1759
   5354  N4        11.7220   -4.9280   -0.3040 N.pl3 250  C250       -0.1070
   5355  C5        13.5340   -3.4010    0.0500 C.ar  250  C250        0.0566
   5356  C6        14.3650   -2.5090   -0.5060 C.ar  250  C250        0.0850
   5357  OP1       17.5670   -0.2300    3.2450 O.3   250  C250       -0.4373
   5358  OP2       15.6870   -2.0080    3.0870 O.co2 250  C250       -0.5172
   5359  P         13.7930    2.9390   -0.4910 P.3   251  U251        0.2141
   5360  C5'       13.1180    3.5000   -2.9820 C.3   251  U251        0.1812
   5361  O5'       12.7680    2.8960   -1.7100 O.3   251  U251       -0.3114
   5362  C4'       12.0760    3.1810   -4.0310 C.3   251  U251        0.1773
   5363  O4'       12.0960    1.7500   -4.3260 O.3   251  U251       -0.3307
   5364  C3'       10.6250    3.4620   -3.6450 C.3   251  U251        0.1860
   5365  O3'       10.2230    4.8040   -3.8800 O.3   251  U251       -0.3112
   5366  C2'        9.8740    2.5350   -4.5830 C.3   251  U251        0.2309
   5367  O2'        9.9410    3.1170   -5.8640 O.3   251  U251       -0.2156
   5368  C1'       10.7670    1.2940   -4.5540 C.3   251  U251        0.2420
   5369  N1        10.4140    0.3400   -3.4930 N.ar  251  U251       -0.2534
   5370  C2         9.3530   -0.5150   -3.7190 C.ar  251  U251        0.3546
   5371  O2         8.6970   -0.5030   -4.7460 O.2   251  U251       -0.2443
   5372  N3         9.0780   -1.3750   -2.6860 N.ar  251  U251       -0.1530
   5373  C4         9.7370   -1.4720   -1.4800 C.ar  251  U251        0.2846
   5374  O4         9.3680   -2.3080   -0.6520 O.2   251  U251       -0.2650
   5375  C5        10.8270   -0.5570   -1.3240 C.ar  251  U251        0.0814
   5376  C6        11.1200    0.2970   -2.3110 C.ar  251  U251        0.0870
   5377  OP1       14.3230    4.3230   -0.3310 O.2   251  U251       -0.5172
   5378  OP2       13.1560    2.2480    0.6800 O.co2 251  U251       -0.4373
   5379  P          9.1320    5.4240   -2.8830 P.3   252  G252        0.2141
   5380  C5'        7.3670    5.0050   -4.7840 C.3   252  G252        0.1812
   5381  O5'        7.8750    4.6520   -3.4870 O.3   252  G252       -0.3114
   5382  C4'        6.1600    4.1670   -5.1200 C.3   252  G252        0.1773
   5383  O4'        6.5280    2.7590   -5.1730 O.3   252  G252       -0.3307
   5384  C3'        5.0010    4.2190   -4.1340 C.3   252  G252        0.1860
   5385  O3'        4.2070    5.3920   -4.2900 O.3   252  G252       -0.3112
   5386  C2'        4.2720    2.9120   -4.4440 C.3   252  G252        0.2309
   5387  O2'        3.4660    2.8340   -5.6000 O.3   252  G252       -0.2156
   5388  C1'        5.4470    1.9680   -4.6980 C.3   252  G252        0.2408
   5389  N1         4.5310   -1.8590   -1.4790 N.ar  252  G252       -0.1709
   5390  C2         3.8590   -1.5070   -2.6220 C.ar  252  G252        0.2606
   5391  N2         2.8200   -2.2820   -2.9560 N.pl3 252  G252       -0.0859
   5392  N3         4.1930   -0.4810   -3.3900 N.ar  252  G252       -0.1918
   5393  C4         5.2720    0.1790   -2.9110 C.ar  252  G252        0.1723
   5394  C5         6.0130   -0.0920   -1.7800 C.ar  252  G252        0.1748
   5395  C6         5.6460   -1.2010   -0.9710 C.ar  252  G252        0.3023
   5396  O6         6.1730   -1.5990    0.0760 O.2   252  G252       -0.2633
   5397  N7         7.0410    0.8300   -1.6310 N.ar  252  G252       -0.2173
   5398  C8         6.9120    1.6280   -2.6560 C.ar  252  G252        0.1817
   5399  N9         5.8720    1.2780   -3.4840 N.ar  252  G252       -0.2693
   5400  OP1        8.9930    6.8770   -3.1770 O.2   252  G252       -0.5172
   5401  OP2        9.3760    5.0110   -1.4790 O.co2 252  G252       -0.4373
   5402  P          3.4370    6.0890   -3.0550 P.3   253  C253        0.2141
   5403  C5'        1.0570    5.0460   -3.3720 C.3   253  C253        0.1812
   5404  O5'        2.3150    5.0240   -2.6790 O.3   253  C253       -0.3114
   5405  C4'        0.2910    3.7750   -3.1160 C.3   253  C253        0.1773
   5406  O4'        1.1850    2.6290   -3.1890 O.3   253  C253       -0.3307
   5407  C3'       -0.3500    3.6370   -1.7430 C.3   253  C253        0.1860
   5408  O3'       -1.5510    4.3890   -1.5670 O.3   253  C253       -0.3112
   5409  C2'       -0.5790    2.1330   -1.6810 C.3   253  C253        0.2309
   5410  O2'       -1.7090    1.7070   -2.4140 O.3   253  C253       -0.2156
   5411  C1'        0.7180    1.6130   -2.3110 C.3   253  C253        0.2420
   5412  N1         1.7520    1.3570   -1.2930 N.ar  253  C253       -0.2535
   5413  C2         1.5830    0.2720   -0.4220 C.ar  253  C253        0.3532
   5414  O2         0.5850   -0.4510   -0.5500 O.2   253  C253       -0.2443
   5415  N3         2.5130    0.0380    0.5330 N.ar  253  C253       -0.1739
   5416  C4         3.5670    0.8490    0.6490 C.ar  253  C253        0.1759
   5417  N4         4.4450    0.5900    1.6140 N.pl3 253  C253       -0.1070
   5418  C5         3.7600    1.9660   -0.2170 C.ar  253  C253        0.0566
   5419  C6         2.8330    2.1850   -1.1610 C.ar  253  C253        0.0850
   5420  OP1        2.7480    7.2620   -3.6530 O.2   253  C253       -0.5172
   5421  OP2        4.2720    6.2890   -1.8390 O.co2 253  C253       -0.4373
   5422  P         -1.8390    5.0950   -0.1490 P.3   254  A254        0.2141
   5423  C5'       -3.4170    3.1640    0.7210 C.3   254  A254        0.1812
   5424  O5'       -2.1840    3.9010    0.8510 O.3   254  A254       -0.3114
   5425  C4'       -3.4010    1.9340    1.5970 C.3   254  A254        0.1773
   5426  O4'       -2.1860    1.1690    1.3750 O.3   254  A254       -0.3307
   5427  C3'       -3.3800    2.1700    3.1010 C.3   254  A254        0.1860
   5428  O3'       -4.6730    2.4750    3.6040 O.3   254  A254       -0.3112
   5429  C2'       -2.9030    0.8160    3.6110 C.3   254  A254        0.2309
   5430  O2'       -3.8480   -0.2320    3.5390 O.3   254  A254       -0.2156
   5431  C1'       -1.8520    0.4580    2.5640 C.3   254  A254        0.2408
   5432  N1         2.0490   -0.7110    5.7160 N.ar  254  A254       -0.2040
   5433  C2         0.8100   -1.2050    5.5920 C.ar  254  A254        0.2016
   5434  N3        -0.1620   -0.8450    4.7540 N.ar  254  A254       -0.2048
   5435  C4         0.2470    0.1540    3.9510 C.ar  254  A254        0.1692
   5436  C5         1.4870    0.7650    3.9560 C.ar  254  A254        0.1518
   5437  C6         2.4280    0.2940    4.8940 C.ar  254  A254        0.1919
   5438  N6         3.6650    0.7840    5.0140 N.pl3 254  A254       -0.1054
   5439  N7         1.5480    1.7600    2.9890 N.ar  254  A254       -0.2193
   5440  C8         0.3670    1.7230    2.4240 C.ar  254  A254        0.1816
   5441  N9        -0.4740    0.7800    2.9600 N.ar  254  A254       -0.2693
   5442  OP1       -3.0660    5.9230   -0.2810 O.2   254  A254       -0.5172
   5443  OP2       -0.5830    5.7380    0.3100 O.co2 254  A254       -0.4373
   5444  P         -4.8740    3.4860    4.8270 P.3   255  U255        0.2141
   5445  C5'       -4.9980    1.9130    6.9480 C.3   255  U255        0.1812
   5446  O5'       -4.2040    2.7070    6.0450 O.3   255  U255       -0.3114
   5447  C4'       -4.1260    0.9190    7.6710 C.3   255  U255        0.1773
   5448  O4'       -3.0240    0.5240    6.8080 O.3   255  U255       -0.3307
   5449  C3'       -3.4470    1.4390    8.9250 C.3   255  U255        0.1860
   5450  O3'       -4.3290    1.4060   10.0380 O.3   255  U255       -0.3112
   5451  C2'       -2.2480    0.5030    9.0470 C.3   255  U255        0.2309
   5452  O2'       -2.5000   -0.7690    9.6230 O.3   255  U255       -0.2156
   5453  C1'       -1.8420    0.3470    7.5810 C.3   255  U255        0.2420
   5454  N1        -0.8380    1.3220    7.1220 N.ar  255  U255       -0.2534
   5455  C2         0.4240    1.2980    7.6960 C.ar  255  U255        0.3546
   5456  O2         0.7360    0.5160    8.5830 O.2   255  U255       -0.2443
   5457  N3         1.2980    2.2360    7.2000 N.ar  255  U255       -0.1530
   5458  C4         1.0490    3.1800    6.2170 C.ar  255  U255        0.2846
   5459  O4         1.9370    3.9660    5.8880 O.2   255  U255       -0.2650
   5460  C5        -0.2730    3.1360    5.6730 C.ar  255  U255        0.0814
   5461  C6        -1.1500    2.2320    6.1320 C.ar  255  U255        0.0870
   5462  OP1       -6.3390    3.5940    5.1000 O.3   255  U255       -0.4373
   5463  OP2       -4.1030    4.7120    4.5030 O.co2 255  U255       -0.5172
   5464  P         -4.6600    2.7550   10.8520 P.3   256  U256        0.2141
   5465  C5'       -3.5620    1.6820   12.9800 C.3   256  U256        0.1812
   5466  O5'       -3.5110    2.6910   11.9540 O.3   256  U256       -0.3114
   5467  C4'       -2.1730    1.2110   13.3210 C.3   256  U256        0.1773
   5468  O4'       -1.3790    1.1310   12.1100 O.3   256  U256       -0.3307
   5469  C3'       -1.3730    2.1760   14.1640 C.3   256  U256        0.1860
   5470  O3'       -1.8550    2.2780   15.4900 O.3   256  U256       -0.3112
   5471  C2'        0.0570    1.7150   13.9010 C.3   256  U256        0.2309
   5472  O2'        0.5350    0.5770   14.5930 O.3   256  U256       -0.2156
   5473  C1'       -0.0150    1.4010   12.4060 C.3   256  U256        0.2420
   5474  N1         0.4420    2.4830   11.5180 N.ar  256  U256       -0.2534
   5475  C2         1.8060    2.7340   11.4190 C.ar  256  U256        0.3546
   5476  O2         2.6460    2.1270   12.0640 O.2   256  U256       -0.2443
   5477  N3         2.1430    3.7410   10.5490 N.ar  256  U256       -0.1530
   5478  C4         1.2860    4.5170    9.7940 C.ar  256  U256        0.2846
   5479  O4         1.7490    5.3860    9.0510 O.2   256  U256       -0.2650
   5480  C5        -0.1040    4.1960    9.9510 C.ar  256  U256        0.0814
   5481  C6        -0.4690    3.2150   10.7860 C.ar  256  U256        0.0870
   5482  OP1       -5.9830    2.6070   11.5460 O.3   256  U256       -0.4373
   5483  OP2       -4.4500    3.8950    9.9160 O.co2 256  U256       -0.5172
   5484  P         -2.2130    3.7880   15.8970 P.3   257  C257        0.2141
   5485  C5'       -0.5930    2.8630   17.7680 C.3   257  C257        0.1812
   5486  O5'       -0.9860    3.9570   16.9030 O.3   257  C257       -0.3114
   5487  C4'        0.8950    2.9010   18.0380 C.3   257  C257        0.1773
   5488  O4'        1.6370    2.6660   16.8070 O.3   257  C257       -0.3307
   5489  C3'        1.4600    4.2290   18.5160 C.3   257  C257        0.1860
   5490  O3'        1.2480    4.5140   19.8940 O.3   257  C257       -0.3112
   5491  C2'        2.9400    4.0480   18.2200 C.3   257  C257        0.2309
   5492  O2'        3.4940    3.1480   19.1580 O.3   257  C257       -0.2156
   5493  C1'        2.8800    3.3650   16.8570 C.3   257  C257        0.2420
   5494  N1         2.9730    4.2620   15.6840 N.ar  257  C257       -0.2535
   5495  C2         4.2410    4.6540   15.2270 C.ar  257  C257        0.3532
   5496  O2         5.2470    4.2820   15.8500 O.2   257  C257       -0.2443
   5497  N3         4.3340    5.4350   14.1250 N.ar  257  C257       -0.1739
   5498  C4         3.2270    5.8110   13.4780 C.ar  257  C257        0.1759
   5499  N4         3.3670    6.5770   12.3960 N.pl3 257  C257       -0.1070
   5500  C5         1.9250    5.4290   13.9230 C.ar  257  C257        0.0566
   5501  C6         1.8450    4.6620   15.0190 C.ar  257  C257        0.0850
   5502  OP1       -3.5120    3.7850   16.6190 O.3   257  C257       -0.4373
   5503  OP2       -2.0280    4.6910   14.7300 O.co2 257  C257       -0.5172
   5504  P          1.0430    6.0540   20.3140 P.3   258  U258        0.2141
   5505  C5'        3.6160    6.1600   20.9490 C.3   258  U258        0.1812
   5506  O5'        2.5030    6.7040   20.2090 O.3   258  U258       -0.3114
   5507  C4'        4.9340    6.7390   20.4610 C.3   258  U258        0.1773
   5508  O4'        5.1580    6.4320   19.0580 O.3   258  U258       -0.3307
   5509  C3'        5.0940    8.2460   20.4900 C.3   258  U258        0.1860
   5510  O3'        5.4110    8.7020   21.7880 O.3   258  U258       -0.3112
   5511  C2'        6.2980    8.4240   19.5820 C.3   258  U258        0.2309
   5512  O2'        7.4450    7.9070   20.2210 O.3   258  U258       -0.2156
   5513  C1'        5.9520    7.4510   18.4640 C.3   258  U258        0.2420
   5514  N1         5.1980    8.0240   17.3400 N.ar  258  U258       -0.2534
   5515  C2         5.9060    8.6560   16.3320 C.ar  258  U258        0.3546
   5516  O2         7.1110    8.8190   16.3690 O.2   258  U258       -0.2443
   5517  N3         5.1430    9.1090   15.2860 N.ar  258  U258       -0.1530
   5518  C4         3.7760    9.0160   15.1490 C.ar  258  U258        0.2846
   5519  O4         3.2320    9.4950   14.1530 O.2   258  U258       -0.2650
   5520  C5         3.1160    8.3350   16.2240 C.ar  258  U258        0.0814
   5521  C6         3.8340    7.8700   17.2550 C.ar  258  U258        0.0870
   5522  OP1        0.5900    5.8600   21.7210 O.3   258  U258       -0.4373
   5523  OP2        0.1820    6.8200   19.3490 O.co2 258  U258       -0.5172
   5524  P          4.8610   10.1390   22.1950 P.3   259  U259        0.2141
   5525  C5'        7.3270   11.0360   22.1300 C.3   259  U259        0.1812
   5526  O5'        6.0420   10.9600   21.5170 O.3   259  U259       -0.3114
   5527  C4'        8.2720   11.7410   21.1910 C.3   259  U259        0.1773
   5528  O4'        8.0180   11.3510   19.8220 O.3   259  U259       -0.3307
   5529  C3'        8.1530   13.2470   21.0560 C.3   259  U259        0.1860
   5530  O3'        8.6170   13.9560   22.2040 O.3   259  U259       -0.3112
   5531  C2'        9.0410   13.4710   19.8390 C.3   259  U259        0.2309
   5532  O2'       10.3930   13.1840   20.1610 O.3   259  U259       -0.2156
   5533  C1'        8.6560   12.2780   18.9610 C.3   259  U259        0.2420
   5534  N1         7.7600   12.5770   17.8350 N.ar  259  U259       -0.2534
   5535  C2         8.3060   13.1250   16.6860 C.ar  259  U259        0.3546
   5536  O2         9.4910   13.3980   16.5750 O.2   259  U259       -0.2443
   5537  N3         7.4120   13.3430   15.6710 N.ar  259  U259       -0.1530
   5538  C4         6.0570   13.1100   15.6920 C.ar  259  U259        0.2846
   5539  O4         5.3800   13.3750   14.6970 O.2   259  U259       -0.2650
   5540  C5         5.5680   12.5550   16.9160 C.ar  259  U259        0.0814
   5541  C6         6.4150   12.3240   17.9240 C.ar  259  U259        0.0870
   5542  OP1        4.8860   10.2130   23.6840 O.3   259  U259       -0.4373
   5543  OP2        3.6390   10.5330   21.4470 O.co2 259  U259       -0.5172
   5544  P          7.5620   14.8280   23.0620 P.3   260  A260        0.2141
   5545  C5'        9.3370   16.5700   22.2860 C.3   260  A260        0.1812
   5546  O5'        8.4410   16.1210   23.3030 O.3   260  A260       -0.3114
   5547  C4'        9.9290   17.8740   22.7320 C.3   260  A260        0.1773
   5548  O4'       10.6850   17.6910   23.9710 O.3   260  A260       -0.3307
   5549  C3'       10.8830   18.5170   21.7290 C.3   260  A260        0.1860
   5550  O3'       10.7710   19.9290   21.8890 O.3   260  A260       -0.3112
   5551  C2'       12.2370   18.1090   22.2880 C.3   260  A260        0.2309
   5552  O2'       13.3320   18.9190   21.9180 O.3   260  A260       -0.2156
   5553  C1'       11.9740   18.2190   23.7830 C.3   260  A260        0.2408
   5554  N1        15.7570   18.3410   27.2300 N.ar  260  A260       -0.2040
   5555  C2        14.9820   19.3000   26.7140 C.ar  260  A260        0.2016
   5556  N3        14.0200   19.2030   25.8030 N.ar  260  A260       -0.2048
   5557  C4        13.8420   17.9220   25.4340 C.ar  260  A260        0.1692
   5558  C5        14.5490   16.8250   25.8870 C.ar  260  A260        0.1518
   5559  C6        15.5650   17.0650   26.8230 C.ar  260  A260        0.1919
   5560  N6        16.3400   16.1080   27.3320 N.pl3 260  A260       -0.1054
   5561  N7        14.0990   15.6660   25.2740 N.ar  260  A260       -0.2193
   5562  C8        13.1290   16.0770   24.4950 C.ar  260  A260        0.1816
   5563  N9        12.9190   17.4310   24.5440 N.ar  260  A260       -0.2693
   5564  OP1        7.3380   14.2150   24.3960 O.3   260  A260       -0.4373
   5565  OP2        6.4060   15.2890   22.2540 O.co2 260  A260       -0.5172
   5566  P         10.0050   20.9750   20.9670 P.3   261  C261        0.2141
   5567  C5'       12.4280   21.3750   20.2630 C.3   261  C261        0.1812
   5568  O5'       11.0900   21.1330   19.8280 O.3   261  C261       -0.3114
   5569  C4'       12.9340   22.6650   19.7080 C.3   261  C261        0.1773
   5570  O4'       14.2280   22.8800   20.3050 O.3   261  C261       -0.3307
   5571  C3'       13.1690   22.6700   18.2010 C.3   261  C261        0.1860
   5572  O3'       13.1170   23.9750   17.6150 O.3   261  C261       -0.3112
   5573  C2'       14.6290   22.2750   18.0970 C.3   261  C261        0.2309
   5574  O2'       15.2280   22.7950   16.9400 O.3   261  C261       -0.2156
   5575  C1'       15.2030   23.0020   19.2990 C.3   261  C261        0.2420
   5576  N1        16.4400   22.4670   19.8540 N.ar  261  C261       -0.2535
   5577  C2        17.1590   23.3050   20.6870 C.ar  261  C261        0.3532
   5578  O2        16.7670   24.4660   20.8370 O.2   261  C261       -0.2443
   5579  N3        18.2850   22.8500   21.2770 N.ar  261  C261       -0.1739
   5580  C4        18.6560   21.5830   21.1090 C.ar  261  C261        0.1759
   5581  N4        19.7850   21.1890   21.6900 N.pl3 261  C261       -0.1070
   5582  C5        17.9130   20.6840   20.2900 C.ar  261  C261        0.0566
   5583  C6        16.8110   21.1600   19.7010 C.ar  261  C261        0.0850
   5584  OP1       10.1420   22.2760   21.6970 O.3   261  C261       -0.4373
   5585  OP2        8.6600   20.5410   20.4580 O.co2 261  C261       -0.5172
   5586  P         11.8160   24.8600   17.2410 P.3   262  C262        0.2141
   5587  C5'       11.7260   24.4010   14.6800 C.3   262  C262        0.1812
   5588  O5'       11.1290   24.2170   15.9660 O.3   262  C262       -0.3114
   5589  C4'       10.7770   23.8100   13.6750 C.3   262  C262        0.1773
   5590  O4'       10.5090   22.4260   14.0290 O.3   262  C262       -0.3307
   5591  C3'        9.3990   24.4340   13.7300 C.3   262  C262        0.1860
   5592  O3'        9.4480   25.6600   13.0000 O.3   262  C262       -0.3112
   5593  C2'        8.5320   23.3460   13.1140 C.3   262  C262        0.2309
   5594  O2'        8.6390   23.2830   11.7040 O.3   262  C262       -0.2156
   5595  C1'        9.2010   22.0900   13.6480 C.3   262  C262        0.2420
   5596  N1         8.5210   21.4600   14.7720 N.ar  262  C262       -0.2535
   5597  C2         7.2300   20.9570   14.5520 C.ar  262  C262        0.3532
   5598  O2         6.7130   21.1130   13.4320 O.2   262  C262       -0.2443
   5599  N3         6.5720   20.3390   15.5680 N.ar  262  C262       -0.1739
   5600  C4         7.1820   20.1730   16.7500 C.ar  262  C262        0.1759
   5601  N4         6.5210   19.5230   17.7080 N.pl3 262  C262       -0.1070
   5602  C5         8.5080   20.6580   16.9930 C.ar  262  C262        0.0566
   5603  C6         9.1320   21.2920   15.9850 C.ar  262  C262        0.0850
   5604  OP1       12.4980   26.0830   16.7680 O.2   262  C262       -0.5172
   5605  OP2       10.8520   24.9010   18.3680 O.co2 262  C262       -0.4373
   5606  P          8.5090   26.8630   13.4580 P.3   263  C263        0.2141
   5607  C5'        6.6260   26.1710   11.8490 C.3   263  C263        0.1812
   5608  O5'        7.0580   26.2640   13.2030 O.3   263  C263       -0.3114
   5609  C4'        5.1940   25.7470   11.8270 C.3   263  C263        0.1773
   5610  O4'        5.1030   24.4040   12.3560 O.3   263  C263       -0.3307
   5611  C3'        4.2630   26.5290   12.7390 C.3   263  C263        0.1860
   5612  O3'        3.9190   27.7780   12.1730 O.3   263  C263       -0.3112
   5613  C2'        3.0940   25.5600   12.8630 C.3   263  C263        0.2309
   5614  O2'        2.2690   25.5250   11.7150 O.3   263  C263       -0.2156
   5615  C1'        3.8390   24.2260   12.9720 C.3   263  C263        0.2420
   5616  N1         4.0670   23.7840   14.3500 N.ar  263  C263       -0.2535
   5617  C2         2.9880   23.2670   15.0630 C.ar  263  C263        0.3532
   5618  O2         1.8820   23.2120   14.5090 O.2   263  C263       -0.2443
   5619  N3         3.1740   22.8320   16.3290 N.ar  263  C263       -0.1739
   5620  C4         4.3890   22.8880   16.8790 C.ar  263  C263        0.1759
   5621  N4         4.5290   22.4430   18.1300 N.pl3 263  C263       -0.1070
   5622  C5         5.5160   23.4000   16.1690 C.ar  263  C263        0.0566
   5623  C6         5.3050   23.8550   14.9250 C.ar  263  C263        0.0850
   5624  OP1        8.7000   27.9070   12.4230 O.2   263  C263       -0.5172
   5625  OP2        8.6680   27.1580   14.9100 O.co2 263  C263       -0.4373
   5626  P          3.5370   28.9860   13.1080 P.3   264  G264        0.2141
   5627  C5'        0.9410   28.5170   12.8470 C.3   264  G264        0.1812
   5628  O5'        2.1010   28.5880   13.6740 O.3   264  G264       -0.3114
   5629  C4'       -0.2240   28.0630   13.6930 C.3   264  G264        0.1773
   5630  O4'        0.0450   26.7390   14.2210 O.3   264  G264       -0.3307
   5631  C3'       -0.4780   28.8620   14.9570 C.3   264  G264        0.1860
   5632  O3'       -1.1010   30.1160   14.7020 O.3   264  G264       -0.3112
   5633  C2'       -1.3330   27.8880   15.7630 C.3   264  G264        0.2309
   5634  O2'       -2.6580   27.8010   15.2910 O.3   264  G264       -0.2156
   5635  C1'       -0.6510   26.5560   15.4470 C.3   264  G264        0.2408
   5636  N1         0.1570   24.6480   20.1080 N.ar  264  G264       -0.1709
   5637  C2        -1.0320   24.8790   19.4640 C.ar  264  G264        0.2606
   5638  N2        -2.1370   24.5410   20.1430 N.pl3 264  G264       -0.0859
   5639  N3        -1.1280   25.3900   18.2420 N.ar  264  G264       -0.1918
   5640  C4         0.0840   25.6480   17.7080 C.ar  264  G264        0.1723
   5641  C5         1.3290   25.4670   18.2770 C.ar  264  G264        0.1748
   5642  C6         1.4130   24.9200   19.5850 C.ar  264  G264        0.3023
   5643  O6         2.4180   24.6600   20.2460 O.2   264  G264       -0.2633
   5644  N7         2.3350   25.8340   17.3900 N.ar  264  G264       -0.2173
   5645  C8         1.6950   26.2560   16.3320 C.ar  264  G264        0.1817
   5646  N9         0.3280   26.1590   16.4520 N.ar  264  G264       -0.2693
   5647  OP1        3.6200   29.9670   12.0110 O.2   264  G264       -0.5172
   5648  OP2        4.2080   29.2780   14.4090 O.co2 264  G264       -0.4373
   5649  P         -0.8020   31.2980   15.7290 P.3   265  G265        0.2141
   5650  C5'       -2.8860   30.6680   17.2150 C.3   265  G265        0.1812
   5651  O5'       -1.4710   30.8220   17.1030 O.3   265  G265       -0.3114
   5652  C4'       -3.2950   30.0090   18.5180 C.3   265  G265        0.1773
   5653  O4'       -2.7620   28.6550   18.6660 O.3   265  G265       -0.3307
   5654  C3'       -2.8780   30.6560   19.8150 C.3   265  G265        0.1860
   5655  O3'       -3.5880   31.8640   20.0600 O.3   265  G265       -0.3112
   5656  C2'       -3.2460   29.5420   20.7840 C.3   265  G265        0.2309
   5657  O2'       -4.6380   29.3280   20.8370 O.3   265  G265       -0.2156
   5658  C1'       -2.6760   28.3240   20.0560 C.3   265  G265        0.2408
   5659  N1         0.7100   26.6630   23.5020 N.ar  265  G265       -0.1709
   5660  C2        -0.6540   26.6570   23.5680 C.ar  265  G265        0.2606
   5661  N2        -1.1690   26.1420   24.6850 N.pl3 265  G265       -0.0859
   5662  N3        -1.4490   27.1110   22.6060 N.ar  265  G265       -0.1918
   5663  C4        -0.7470   27.5800   21.5550 C.ar  265  G265        0.1723
   5664  C5         0.6230   27.6290   21.3930 C.ar  265  G265        0.1748
   5665  C6         1.4540   27.1390   22.4340 C.ar  265  G265        0.3023
   5666  O6         2.6830   27.0850   22.4740 O.2   265  G265       -0.2633
   5667  N7         0.9560   28.1700   20.1590 N.ar  265  G265       -0.2173
   5668  C8        -0.1940   28.4630   19.6140 C.ar  265  G265        0.1817
   5669  N9        -1.2690   28.1110   20.3960 N.ar  265  G265       -0.2693
   5670  OP1       -1.4010   32.5250   15.1510 O.2   265  G265       -0.5172
   5671  OP2        0.6470   31.2880   16.0120 O.co2 265  G265       -0.4373
   5672  P         -3.0720   33.0250   21.0810 P.3   266  G266        0.2141
   5673  C5'       -4.3760   31.9720   23.1520 C.3   266  G266        0.1812
   5674  O5'       -3.1480   32.3770   22.5380 O.3   266  G266       -0.3114
   5675  C4'       -4.0530   31.2440   24.4310 C.3   266  G266        0.1773
   5676  O4'       -3.1550   30.1290   24.1610 O.3   266  G266       -0.3307
   5677  C3'       -3.2740   32.0420   25.4520 C.3   266  G266        0.1860
   5678  O3'       -4.1480   32.8840   26.1650 O.3   266  G266       -0.3112
   5679  C2'       -2.7080   30.9360   26.3350 C.3   266  G266        0.2309
   5680  O2'       -3.6620   30.2980   27.1580 O.3   266  G266       -0.2156
   5681  C1'       -2.3160   29.9020   25.2870 C.3   266  G266        0.2408
   5682  N1         2.4900   28.6250   26.3560 N.ar  266  G266       -0.1709
   5683  C2         1.3570   28.4380   27.1000 C.ar  266  G266        0.2606
   5684  N2         1.5210   27.8180   28.2770 N.pl3 266  G266       -0.0859
   5685  N3         0.1490   28.8240   26.7200 N.ar  266  G266       -0.1918
   5686  C4         0.1700   29.4370   25.5180 C.ar  266  G266        0.1723
   5687  C5         1.2500   29.6850   24.7010 C.ar  266  G266        0.1748
   5688  C6         2.5380   29.2460   25.1160 C.ar  266  G266        0.3023
   5689  O6         3.6230   29.3680   24.5330 O.2   266  G266       -0.2633
   5690  N7         0.8510   30.3430   23.5450 N.ar  266  G266       -0.2173
   5691  C8        -0.4420   30.4820   23.6790 C.ar  266  G266        0.1817
   5692  N9        -0.9210   29.9550   24.8530 N.ar  266  G266       -0.2693
   5693  OP1       -4.1190   34.0870   21.1150 O.3   266  G266       -0.4373
   5694  OP2       -1.6510   33.3830   20.7470 O.co2 266  G266       -0.5172
   5695  P         -3.6450   34.3330   26.6270 P.3   267  G267        0.2141
   5696  C5'       -2.8310   33.4310   29.0010 C.3   267  G267        0.1812
   5697  O5'       -2.5240   34.0630   27.7330 O.3   267  G267       -0.3114
   5698  C4'       -1.6430   33.5210   29.9240 C.3   267  G267        0.1773
   5699  O4'       -0.6310   32.5180   29.5520 O.3   267  G267       -0.3307
   5700  C3'       -0.9290   34.8720   29.8620 C.3   267  G267        0.1860
   5701  O3'       -0.5460   35.3030   31.1610 O.3   267  G267       -0.3112
   5702  C2'        0.3090   34.5570   29.0310 C.3   267  G267        0.2309
   5703  O2'        1.4190   35.4000   29.2250 O.3   267  G267       -0.2156
   5704  C1'        0.6370   33.1500   29.5220 C.3   267  G267        0.2408
   5705  N1         4.8820   30.3440   29.1620 N.ar  267  G267       -0.1709
   5706  C2         4.1480   30.6690   30.2760 C.ar  267  G267        0.2606
   5707  N2         4.6320   30.2410   31.4520 N.pl3 267  G267       -0.0859
   5708  N3         3.0320   31.3810   30.2470 N.ar  267  G267       -0.1918
   5709  C4         2.7100   31.7630   28.9960 C.ar  267  G267        0.1723
   5710  C5         3.3600   31.4700   27.8150 C.ar  267  G267        0.1748
   5711  C6         4.5480   30.6900   27.8580 C.ar  267  G267        0.3023
   5712  O6         5.2690   30.3240   26.9130 O.2   267  G267       -0.2633
   5713  N7         2.6770   32.0040   26.7320 N.ar  267  G267       -0.2173
   5714  C8         1.6560   32.6200   27.2650 C.ar  267  G267        0.1817
   5715  N9         1.5850   32.4690   28.6280 N.ar  267  G267       -0.2693
   5716  OP1       -4.8050   35.0030   27.3150 O.3   267  G267       -0.4373
   5717  OP2       -3.1150   34.8800   25.3350 O.co2 267  G267       -0.5172
   5718  P         -0.5550   36.8660   31.5990 P.3   268  A268        0.2141
   5719  C5'       -2.4230   36.3610   33.2830 C.3   268  A268        0.1812
   5720  O5'       -1.0400   36.7070   33.1000 O.3   268  A268       -0.3114
   5721  C4'       -2.6140   35.3410   34.3740 C.3   268  A268        0.1773
   5722  O4'       -1.9580   34.0830   34.0360 O.3   268  A268       -0.3307
   5723  C3'       -2.0440   35.6890   35.7380 C.3   268  A268        0.1860
   5724  O3'       -2.9830   36.5190   36.3810 O.3   268  A268       -0.3112
   5725  C2'       -2.0050   34.3170   36.3810 C.3   268  A268        0.2309
   5726  O2'       -3.3260   33.9690   36.6790 O.3   268  A268       -0.2156
   5727  C1'       -1.4880   33.4640   35.2190 C.3   268  A268        0.2408
   5728  N1         2.7580   32.4520   37.8820 N.ar  268  A268       -0.2040
   5729  C2         1.4540   32.2940   38.1580 C.ar  268  A268        0.2016
   5730  N3         0.3960   32.5610   37.3980 N.ar  268  A268       -0.2048
   5731  C4         0.7810   33.0850   36.2200 C.ar  268  A268        0.1692
   5732  C5         2.0780   33.3110   35.7940 C.ar  268  A268        0.1518
   5733  C6         3.1090   32.9690   36.6830 C.ar  268  A268        0.1919
   5734  N6         4.4040   33.1470   36.4190 N.pl3 268  A268       -0.1054
   5735  N7         2.0870   33.8640   34.5220 N.ar  268  A268       -0.2193
   5736  C8         0.8170   33.9450   34.2060 C.ar  268  A268        0.1816
   5737  N9        -0.0270   33.4790   35.1840 N.ar  268  A268       -0.2693
   5738  OP1       -1.7170   37.4740   30.9030 O.2   268  A268       -0.5172
   5739  OP2        0.8150   37.4470   31.4600 O.co2 268  A268       -0.4373
   5740  P         -2.6420   38.0130   36.8630 P.3   269  G269        0.2141
   5741  C5'       -1.9530   37.2990   39.2830 C.3   269  G269        0.1812
   5742  O5'       -1.5460   37.7750   37.9950 O.3   269  G269       -0.3114
   5743  C4'       -0.7790   36.7280   40.0400 C.3   269  G269        0.1773
   5744  O4'       -0.1700   35.6420   39.2860 O.3   269  G269       -0.3307
   5745  C3'        0.3770   37.6800   40.3080 C.3   269  G269        0.1860
   5746  O3'        0.1200   38.5500   41.4070 O.3   269  G269       -0.3112
   5747  C2'        1.5120   36.6980   40.5640 C.3   269  G269        0.2309
   5748  O2'        1.3400   35.9380   41.7400 O.3   269  G269       -0.2156
   5749  C1'        1.2390   35.6560   39.4870 C.3   269  G269        0.2408
   5750  N1         5.6490   36.0170   36.9940 N.ar  269  G269       -0.1709
   5751  C2         5.4130   35.6440   38.2920 C.ar  269  G269        0.2606
   5752  N2         6.4930   35.3170   39.0210 N.pl3 269  G269       -0.0859
   5753  N3         4.2080   35.5780   38.8350 N.ar  269  G269       -0.1918
   5754  C4         3.2440   35.9400   37.9660 C.ar  269  G269        0.1723
   5755  C5         3.3780   36.3540   36.6600 C.ar  269  G269        0.1748
   5756  C6         4.6740   36.4040   36.0870 C.ar  269  G269        0.3023
   5757  O6         4.9970   36.7270   34.9410 O.2   269  G269       -0.2633
   5758  N7         2.1390   36.6590   36.1110 N.ar  269  G269       -0.2173
   5759  C8         1.2880   36.3950   37.0660 C.ar  269  G269        0.1817
   5760  N9         1.8930   35.9780   38.2250 N.ar  269  G269       -0.2693
   5761  OP1       -3.9030   38.4640   37.5770 O.3   269  G269       -0.4373
   5762  OP2       -2.0590   38.8380   35.7540 O.co2 269  G269       -0.5172
   5763  P          0.5840   40.0820   41.2890 P.3   270  G270        0.2141
   5764  C5'        2.9580   39.3160   42.3060 C.3   270  G270        0.1812
   5765  O5'        2.1500   40.2640   41.5730 O.3   270  G270       -0.3114
   5766  C4'        4.3900   39.3680   41.8330 C.3   270  G270        0.1773
   5767  O4'        4.5700   38.4130   40.7480 O.3   270  G270       -0.3307
   5768  C3'        4.8560   40.6780   41.2290 C.3   270  G270        0.1860
   5769  O3'        5.3520   41.5850   42.1890 O.3   270  G270       -0.3112
   5770  C2'        6.0450   40.2240   40.4030 C.3   270  G270        0.2309
   5771  O2'        7.1280   40.0850   41.2940 O.3   270  G270       -0.2156
   5772  C1'        5.5070   38.9230   39.8010 C.3   270  G270        0.2408
   5773  N1         5.8890   39.9370   34.8320 N.ar  270  G270       -0.1709
   5774  C2         6.8800   39.6800   35.7410 C.ar  270  G270        0.2606
   5775  N2         8.1270   39.7060   35.2650 N.pl3 270  G270       -0.0859
   5776  N3         6.6630   39.4360   37.0260 N.ar  270  G270       -0.1918
   5777  C4         5.3480   39.4360   37.3200 C.ar  270  G270        0.1723
   5778  C5         4.2800   39.6720   36.4800 C.ar  270  G270        0.1748
   5779  C6         4.5310   39.9570   35.1170 C.ar  270  G270        0.3023
   5780  O6         3.7220   40.1870   34.2200 O.2   270  G270       -0.2633
   5781  N7         3.0800   39.5790   37.1690 N.ar  270  G270       -0.2173
   5782  C8         3.4340   39.3070   38.3970 C.ar  270  G270        0.1817
   5783  N9         4.7960   39.1780   38.5510 N.ar  270  G270       -0.2693
   5784  OP1       -0.1620   40.8560   42.3090 O.3   270  G270       -0.4373
   5785  OP2        0.4940   40.4790   39.8540 O.co2 270  G270       -0.5172
   5786  P          5.5120   43.1490   41.8360 P.3   271  U271        0.2141
   5787  C5'        7.8380   43.4870   40.7670 C.3   271  U271        0.1812
   5788  O5'        6.4460   43.2630   40.5570 O.3   271  U271       -0.3114
   5789  C4'        8.5960   43.4580   39.4640 C.3   271  U271        0.1773
   5790  O4'        8.1380   42.4040   38.5610 O.3   271  U271       -0.3307
   5791  C3'        8.5010   44.7090   38.6270 C.3   271  U271        0.1860
   5792  O3'        9.4600   45.5360   39.2270 O.3   271  U271       -0.3112
   5793  C2'        8.9760   44.1920   37.2840 C.3   271  U271        0.2309
   5794  O2'       10.3550   43.9130   37.3550 O.3   271  U271       -0.2156
   5795  C1'        8.2500   42.8510   37.2210 C.3   271  U271        0.2420
   5796  N1         6.9030   43.0050   36.6620 N.ar  271  U271       -0.2534
   5797  C2         6.8220   43.2740   35.3160 C.ar  271  U271        0.3546
   5798  O2         7.8050   43.3440   34.5980 O.2   271  U271       -0.2443
   5799  N3         5.5470   43.4370   34.8360 N.ar  271  U271       -0.1530
   5800  C4         4.3710   43.3540   35.5490 C.ar  271  U271        0.2846
   5801  O4         3.2990   43.5340   34.9730 O.2   271  U271       -0.2650
   5802  C5         4.5390   43.0690   36.9390 C.ar  271  U271        0.0814
   5803  C6         5.7710   42.9300   37.4400 C.ar  271  U271        0.0870
   5804  OP1        6.2760   43.7630   42.9430 O.3   271  U271       -0.4373
   5805  OP2        4.1700   43.6690   41.5350 O.co2 271  U271       -0.5172
   5806  P          9.0960   47.0350   39.4810 P.3   272  C272        0.2141
   5807  C5'       10.2200   47.8200   37.2770 C.3   272  C272        0.1812
   5808  O5'        9.0450   47.3710   37.9230 O.3   272  C272       -0.3114
   5809  C4'        9.9720   47.9800   35.8010 C.3   272  C272        0.1773
   5810  O4'        9.1920   46.8700   35.2680 O.3   272  C272       -0.3307
   5811  C3'        9.1750   49.1960   35.3880 C.3   272  C272        0.1860
   5812  O3'       10.0510   50.3110   35.3620 O.3   272  C272       -0.3112
   5813  C2'        8.7660   48.7960   33.9810 C.3   272  C272        0.2309
   5814  O2'        9.9270   48.7900   33.2030 O.3   272  C272       -0.2156
   5815  C1'        8.3990   47.3250   34.1820 C.3   272  C272        0.2420
   5816  N1         6.9780   47.1230   34.5220 N.ar  272  C272       -0.2535
   5817  C2         6.0180   47.2350   33.5120 C.ar  272  C272        0.3532
   5818  O2         6.3870   47.4920   32.3610 O.2   272  C272       -0.2443
   5819  N3         4.7140   47.0830   33.8180 N.ar  272  C272       -0.1739
   5820  C4         4.3540   46.7980   35.0680 C.ar  272  C272        0.1759
   5821  N4         3.0550   46.6310   35.3180 N.pl3 272  C272       -0.1070
   5822  C5         5.3100   46.6740   36.1200 C.ar  272  C272        0.0566
   5823  C6         6.5990   46.8470   35.8050 C.ar  272  C272        0.0850
   5824  OP1       10.3100   47.6440   40.0790 O.2   272  C272       -0.5172
   5825  OP2        7.7920   47.2090   40.1520 O.co2 272  C272       -0.4373
   5826  P          9.4990   51.7060   35.8680 P.3   273  U273        0.2141
   5827  C5'        9.2430   52.1380   33.2760 C.3   273  U273        0.1812
   5828  O5'        8.6160   51.9730   34.5610 O.3   273  U273       -0.3114
   5829  C4'        8.2810   52.6990   32.2540 C.3   273  U273        0.1773
   5830  O4'        7.4340   51.6420   31.7200 O.3   273  U273       -0.3307
   5831  C3'        7.2830   53.7350   32.7260 C.3   273  U273        0.1860
   5832  O3'        7.9530   54.9540   32.6150 O.3   273  U273       -0.3112
   5833  C2'        6.2700   53.6620   31.6030 C.3   273  U273        0.2309
   5834  O2'        6.8800   53.9800   30.3560 O.3   273  U273       -0.2156
   5835  C1'        6.1370   52.1550   31.4700 C.3   273  U273        0.2420
   5836  N1         5.2120   51.5470   32.4260 N.ar  273  U273       -0.2534
   5837  C2         3.8620   51.5620   32.1260 C.ar  273  U273        0.3546
   5838  O2         3.4100   52.1190   31.1470 O.2   273  U273       -0.2443
   5839  N3         3.0590   50.9440   33.0480 N.ar  273  U273       -0.1530
   5840  C4         3.4580   50.3150   34.2110 C.ar  273  U273        0.2846
   5841  O4         2.6140   49.8060   34.9430 O.2   273  U273       -0.2650
   5842  C5         4.8700   50.3330   34.4440 C.ar  273  U273        0.0814
   5843  C6         5.6790   50.9360   33.5640 C.ar  273  U273        0.0870
   5844  OP1       10.6930   52.5710   35.8500 O.2   273  U273       -0.5172
   5845  OP2        8.6330   51.6870   37.0870 O.co2 273  U273       -0.4373
   5846  P          7.4560   56.2200   33.4210 P.3   274  G274        0.2141
   5847  C5'        6.0850   57.3350   31.4560 C.3   274  G274        0.1812
   5848  O5'        6.0970   56.7080   32.7620 O.3   274  G274       -0.3114
   5849  C4'        4.6590   57.5270   31.0220 C.3   274  G274        0.1773
   5850  O4'        4.0240   56.2290   30.8820 O.3   274  G274       -0.3307
   5851  C3'        3.7590   58.1800   32.0380 C.3   274  G274        0.1860
   5852  O3'        4.0240   59.5670   32.0200 O.3   274  G274       -0.3112
   5853  C2'        2.4060   57.8140   31.4680 C.3   274  G274        0.2309
   5854  O2'        2.4790   58.3490   30.1630 O.3   274  G274       -0.2156
   5855  C1'        2.6360   56.3500   31.1160 C.3   274  G274        0.2408
   5856  N1        -1.1190   53.8630   33.4880 N.ar  274  G274       -0.1709
   5857  C2        -1.1870   54.7340   32.4270 C.ar  274  G274        0.2606
   5858  N2        -2.4140   55.0090   31.9730 N.pl3 274  G274       -0.0859
   5859  N3        -0.1350   55.3460   31.8950 N.ar  274  G274       -0.1918
   5860  C4         1.0190   54.9570   32.4770 C.ar  274  G274        0.1723
   5861  C5         1.1990   54.0760   33.5210 C.ar  274  G274        0.1748
   5862  C6         0.0550   53.4700   34.1200 C.ar  274  G274        0.3023
   5863  O6         0.0120   52.6450   35.0510 O.2   274  G274       -0.2633
   5864  N7         2.5430   53.9760   33.8510 N.ar  274  G274       -0.2173
   5865  C8         3.1460   54.7640   32.9990 C.ar  274  G274        0.1817
   5866  N9         2.2790   55.4120   32.1620 N.ar  274  G274       -0.2693
   5867  OP1        8.5590   57.0900   32.9030 O.2   274  G274       -0.5172
   5868  OP2        7.2180   55.9940   34.8740 O.co2 274  G274       -0.4373
   5869  P          3.9500   60.3610   33.3810 P.3   275  G275        0.2141
   5870  C5'        1.3910   61.0220   33.2940 C.3   275  G275        0.1812
   5871  O5'        2.4720   60.3460   33.9620 O.3   275  G275       -0.3114
   5872  C4'        0.0620   60.5450   33.8360 C.3   275  G275        0.1773
   5873  O4'       -0.1470   59.1450   33.4920 O.3   275  G275       -0.3307
   5874  C3'       -0.0370   60.5160   35.3370 C.3   275  G275        0.1860
   5875  O3'       -0.0600   61.8780   35.7690 O.3   275  G275       -0.3112
   5876  C2'       -1.2470   59.6000   35.5150 C.3   275  G275        0.2309
   5877  O2'       -2.5020   60.1550   35.1840 O.3   275  G275       -0.2156
   5878  C1'       -0.9450   58.5070   34.4850 C.3   275  G275        0.2408
   5879  N1        -0.9060   54.5200   37.6540 N.ar  275  G275       -0.1709
   5880  C2        -1.9830   55.1860   37.1370 C.ar  275  G275        0.2606
   5881  N2        -3.1850   54.7720   37.5720 N.pl3 275  G275       -0.0859
   5882  N3        -1.8850   56.2020   36.2830 N.ar  275  G275       -0.1918
   5883  C4        -0.5970   56.4680   35.9660 C.ar  275  G275        0.1723
   5884  C5         0.5420   55.8410   36.4180 C.ar  275  G275        0.1748
   5885  C6         0.4210   54.7890   37.3490 C.ar  275  G275        0.3023
   5886  O6         1.3160   54.1130   37.8580 O.2   275  G275       -0.2633
   5887  N7         1.6760   56.4300   35.8820 N.ar  275  G275       -0.2173
   5888  C8         1.2170   57.3770   35.1130 C.ar  275  G275        0.1817
   5889  N9        -0.1530   57.4600   35.1190 N.ar  275  G275       -0.2693
   5890  OP1        4.3450   61.6820   32.8680 O.2   275  G275       -0.5172
   5891  OP2        4.7740   59.6310   34.3740 O.co2 275  G275       -0.4373
   5892  P          0.4930   62.4020   37.2070 P.3   276  A276        0.2141
   5893  C5'        0.7580   61.1900   39.5750 C.3   276  A276        0.1812
   5894  O5'        0.1100   61.3170   38.3070 O.3   276  A276       -0.3114
   5895  C4'       -0.3470   61.0710   40.5610 C.3   276  A276        0.1773
   5896  O4'       -1.2010   62.1650   40.2050 O.3   276  A276       -0.3307
   5897  C3'       -1.2660   59.8710   40.3740 C.3   276  A276        0.1860
   5898  O3'       -0.8810   58.7190   41.1030 O.3   276  A276       -0.3112
   5899  C2'       -2.6140   60.3810   40.8720 C.3   276  A276        0.2309
   5900  O2'       -2.7790   60.3780   42.2640 O.3   276  A276       -0.2156
   5901  C1'       -2.5300   61.8580   40.5370 C.3   276  A276        0.2408
   5902  N1        -7.3290   62.2410   38.8890 N.ar  276  A276       -0.2040
   5903  C2        -6.7800   61.6400   39.9570 C.ar  276  A276        0.2016
   5904  N3        -5.5010   61.5540   40.3070 N.ar  276  A276       -0.2048
   5905  C4        -4.7270   62.1800   39.4070 C.ar  276  A276        0.1692
   5906  C5        -5.1400   62.8400   38.2640 C.ar  276  A276        0.1518
   5907  C6        -6.5150   62.8570   38.0060 C.ar  276  A276        0.1919
   5908  N6        -7.0540   63.4320   36.9350 N.pl3 276  A276       -0.1054
   5909  N7        -4.0560   63.3810   37.5880 N.ar  276  A276       -0.2193
   5910  C8        -3.0280   63.0440   38.3270 C.ar  276  A276        0.1816
   5911  N9        -3.3650   62.3060   39.4390 N.ar  276  A276       -0.2693
   5912  OP1       -0.3320   63.5480   37.6280 O.3   276  A276       -0.4373
   5913  OP2        1.9600   62.5150   37.0670 O.co2 276  A276       -0.5172
   5914  P         -0.5540   57.3900   40.2410 P.3   277  A277        0.2141
   5915  C5'       -2.5980   56.2460   41.3760 C.3   277  A277        0.1812
   5916  O5'       -2.0980   57.0110   40.2810 O.3   277  A277       -0.3114
   5917  C4'       -4.0850   56.3840   41.3930 C.3   277  A277        0.1773
   5918  O4'       -4.4300   57.7220   40.9450 O.3   277  A277       -0.3307
   5919  C3'       -4.8450   55.4790   40.4360 C.3   277  A277        0.1860
   5920  O3'       -5.1620   54.2860   41.1270 O.3   277  A277       -0.3112
   5921  C2'       -6.1500   56.2390   40.2760 C.3   277  A277        0.2309
   5922  O2'       -6.9180   56.1060   41.4630 O.3   277  A277       -0.2156
   5923  C1'       -5.6650   57.6870   40.2550 C.3   277  A277        0.2408
   5924  N1        -7.8160   60.2130   36.3390 N.ar  277  A277       -0.2040
   5925  C2        -8.3280   59.6950   37.4600 C.ar  277  A277        0.2016
   5926  N3        -7.7170   59.0300   38.4370 N.ar  277  A277       -0.2048
   5927  C4        -6.4050   58.9080   38.1740 C.ar  277  A277        0.1692
   5928  C5        -5.7370   59.3800   37.0600 C.ar  277  A277        0.1518
   5929  C6        -6.5000   60.0510   36.0960 C.ar  277  A277        0.1919
   5930  N6        -5.9930   60.5490   34.9720 N.pl3 277  A277       -0.1054
   5931  N7        -4.3890   59.0630   37.1260 N.ar  277  A277       -0.2193
   5932  C8        -4.2740   58.4130   38.2610 C.ar  277  A277        0.1816
   5933  N9        -5.4590   58.2680   38.9370 N.ar  277  A277       -0.2693
   5934  OP1        0.1830   56.4030   41.0980 O.3   277  A277       -0.4373
   5935  OP2        0.0000   57.7530   38.8900 O.co2 277  A277       -0.5172
   5936  P         -5.1920   52.9010   40.3030 P.3   278  A278        0.2141
   5937  C5'       -7.8220   52.7910   40.1390 C.3   278  A278        0.1812
   5938  O5'       -6.5450   53.0220   39.4760 O.3   278  A278       -0.3114
   5939  C4'       -8.9410   53.3210   39.2770 C.3   278  A278        0.1773
   5940  O4'       -8.6990   54.7270   39.0270 O.3   278  A278       -0.3307
   5941  C3'       -9.0460   52.7140   37.8800 C.3   278  A278        0.1860
   5942  O3'       -9.9350   51.6270   37.9230 O.3   278  A278       -0.3112
   5943  C2'       -9.7140   53.8260   37.0940 C.3   278  A278        0.2309
   5944  O2'      -11.0790   53.9390   37.4400 O.3   278  A278       -0.2156
   5945  C1'       -9.0260   55.0470   37.6840 C.3   278  A278        0.2408
   5946  N1        -7.0760   57.8040   33.8500 N.ar  278  A278       -0.2040
   5947  C2        -8.3070   57.7020   34.3540 C.ar  278  A278        0.2016
   5948  N3        -8.7440   56.9570   35.3670 N.ar  278  A278       -0.2048
   5949  C4        -7.7400   56.2480   35.9030 C.ar  278  A278        0.1692
   5950  C5        -6.4270   56.2170   35.4730 C.ar  278  A278        0.1518
   5951  C6        -6.0950   57.0410   34.3810 C.ar  278  A278        0.1919
   5952  N6        -4.8720   57.1100   33.8480 N.pl3 278  A278       -0.1054
   5953  N7        -5.6780   55.3480   36.2510 N.ar  278  A278       -0.2193
   5954  C8        -6.5420   54.8860   37.1260 C.ar  278  A278        0.1816
   5955  N9        -7.8100   55.3770   36.9610 N.ar  278  A278       -0.2693
   5956  OP1       -5.5020   51.9710   41.4140 O.3   278  A278       -0.4373
   5957  OP2       -3.9700   52.7150   39.4460 O.co2 278  A278       -0.5172
   5958  P         -9.5210   50.3010   37.2070 P.3   279  C279        0.2141
   5959  C5'       -9.9700   51.2170   34.7930 C.3   279  C279        0.1812
   5960  O5'       -9.0550   50.6700   35.7350 O.3   279  C279       -0.3114
   5961  C4'       -9.1930   52.0040   33.7740 C.3   279  C279        0.1773
   5962  O4'       -8.3140   52.9620   34.4300 O.3   279  C279       -0.3307
   5963  C3'       -8.2260   51.2380   32.8860 C.3   279  C279        0.1860
   5964  O3'       -8.8810   50.4810   31.8860 O.3   279  C279       -0.3112
   5965  C2'       -7.4310   52.4050   32.3160 C.3   279  C279        0.2309
   5966  O2'       -8.1670   53.2470   31.4350 O.3   279  C279       -0.2156
   5967  C1'       -7.1900   53.2160   33.5940 C.3   279  C279        0.2420
   5968  N1        -5.9540   52.7990   34.2900 N.ar  279  C279       -0.2535
   5969  C2        -4.7250   53.1820   33.7410 C.ar  279  C279        0.3532
   5970  O2        -4.7180   53.8830   32.7200 O.2   279  C279       -0.2443
   5971  N3        -3.5800   52.8030   34.3510 N.ar  279  C279       -0.1739
   5972  C4        -3.6320   52.0420   35.4470 C.ar  279  C279        0.1759
   5973  N4        -2.4810   51.6790   36.0030 N.pl3 279  C279       -0.1070
   5974  C5        -4.8690   51.6150   36.0140 C.ar  279  C279        0.0566
   5975  C6        -5.9950   51.9990   35.3980 C.ar  279  C279        0.0850
   5976  OP1      -10.8370   49.6230   37.2150 O.2   279  C279       -0.5172
   5977  OP2       -8.3320   49.6370   37.8030 O.co2 279  C279       -0.4373
   5978  P         -8.2260   49.3300   30.9820 P.3   280  A280        0.2141
   5979  C5'       -7.3950   51.1290   29.2050 C.3   280  A280        0.1812
   5980  O5'       -7.1100   50.0170   30.0720 O.3   280  A280       -0.3114
   5981  C4'       -6.0970   51.6620   28.6360 C.3   280  A280        0.1773
   5982  O4'       -5.3330   52.3370   29.6750 O.3   280  A280       -0.3307
   5983  C3'       -5.1300   50.5940   28.1450 C.3   280  A280        0.1860
   5984  O3'       -5.5530   50.1570   26.8580 O.3   280  A280       -0.3112
   5985  C2'       -3.7980   51.3360   28.1790 C.3   280  A280        0.2309
   5986  O2'       -3.6980   52.2560   27.1310 O.3   280  A280       -0.2156
   5987  C1'       -3.9370   52.1640   29.4480 C.3   280  A280        0.2408
   5988  N1         0.4010   51.0620   31.9990 N.ar  280  A280       -0.2040
   5989  C2         0.1640   51.7880   30.9030 C.ar  280  A280        0.2016
   5990  N3        -0.9910   52.0250   30.2810 N.ar  280  A280       -0.2048
   5991  C4        -2.0110   51.4390   30.9330 C.ar  280  A280        0.1692
   5992  C5        -1.9240   50.6530   32.0650 C.ar  280  A280        0.1518
   5993  C6        -0.6430   50.4690   32.6170 C.ar  280  A280        0.1919
   5994  N6        -0.4110   49.7690   33.7280 N.pl3 280  A280       -0.1054
   5995  N7        -3.1830   50.2270   32.4660 N.ar  280  A280       -0.2193
   5996  C8        -3.9890   50.7300   31.5620 C.ar  280  A280        0.1816
   5997  N9        -3.3480   51.4850   30.6100 N.ar  280  A280       -0.2693
   5998  OP1       -9.3040   48.9770   30.0460 O.2   280  A280       -0.5172
   5999  OP2       -7.5600   48.2440   31.7660 O.co2 280  A280       -0.4373
   6000  P         -4.7880   48.9720   26.1360 P.3   281  G281        0.2141
   6001  C5'       -2.2480   48.3950   25.9780 C.3   281  G281        0.1812
   6002  O5'       -3.2840   49.3780   25.8380 O.3   281  G281       -0.3114
   6003  C4'       -0.9470   49.1220   26.0960 C.3   281  G281        0.1773
   6004  O4'       -0.9040   49.7910   27.3860 O.3   281  G281       -0.3307
   6005  C3'        0.2880   48.2490   26.0660 C.3   281  G281        0.1860
   6006  O3'        0.6700   48.0150   24.7170 O.3   281  G281       -0.3112
   6007  C2'        1.2870   49.1100   26.8200 C.3   281  G281        0.2309
   6008  O2'        1.7260   50.1520   25.9750 O.3   281  G281       -0.2156
   6009  C1'        0.4000   49.7000   27.9180 C.3   281  G281        0.2408
   6010  N1         3.1350   47.8410   31.7490 N.ar  281  G281       -0.1709
   6011  C2         3.5390   48.5380   30.6410 C.ar  281  G281        0.2606
   6012  N2         4.8480   48.7960   30.5450 N.pl3 281  G281       -0.0859
   6013  N3         2.7180   48.9680   29.7000 N.ar  281  G281       -0.1918
   6014  C4         1.4340   48.6500   29.9650 C.ar  281  G281        0.1723
   6015  C5         0.9200   47.9730   31.0480 C.ar  281  G281        0.1748
   6016  C6         1.8140   47.5170   32.0530 C.ar  281  G281        0.3023
   6017  O6         1.5520   46.9070   33.1020 O.2   281  G281       -0.2633
   6018  N7        -0.4590   47.8500   30.9440 N.ar  281  G281       -0.2173
   6019  C8        -0.7510   48.4400   29.8150 C.ar  281  G281        0.1817
   6020  N9         0.3520   48.9430   29.1700 N.ar  281  G281       -0.2693
   6021  OP1       -5.2890   48.9210   24.7390 O.2   281  G281       -0.5172
   6022  OP2       -4.7110   47.7810   27.0150 O.co2 281  G281       -0.4373
   6023  P          1.2940   46.5590   24.4220 P.3   282  A282        0.2141
   6024  C5'        3.7900   47.4650   24.5750 C.3   282  A282        0.1812
   6025  O5'        2.7610   46.5670   25.0450 O.3   282  A282       -0.3114
   6026  C4'        5.0400   47.2230   25.3720 C.3   282  A282        0.1773
   6027  O4'        4.8250   47.5840   26.7680 O.3   282  A282       -0.3307
   6028  C3'        5.4660   45.7610   25.4970 C.3   282  A282        0.1860
   6029  O3'        6.0780   45.2560   24.3420 O.3   282  A282       -0.3112
   6030  C2'        6.4320   45.8470   26.6620 C.3   282  A282        0.2309
   6031  O2'        7.5960   46.5190   26.1640 O.3   282  A282       -0.2156
   6032  C1'        5.6140   46.7330   27.5980 C.3   282  A282        0.2408
   6033  N1         5.2150   44.2560   32.0800 N.ar  282  A282       -0.2040
   6034  C2         6.2740   44.7020   31.3870 C.ar  282  A282        0.2016
   6035  N3         6.3120   45.3200   30.2080 N.ar  282  A282       -0.2048
   6036  C4         5.0690   45.4720   29.7170 C.ar  282  A282        0.1692
   6037  C5         3.8860   45.0610   30.3080 C.ar  282  A282        0.1518
   6038  C6         3.9810   44.4330   31.5600 C.ar  282  A282        0.1919
   6039  N6         2.9260   44.0170   32.2650 N.pl3 282  A282       -0.1054
   6040  N7         2.8000   45.4170   29.5260 N.ar  282  A282       -0.2193
   6041  C8         3.3420   45.9940   28.4770 C.ar  282  A282        0.1816
   6042  N9         4.7120   46.0590   28.5270 N.ar  282  A282       -0.2693
   6043  OP1        1.4060   46.4090   22.9590 O.2   282  A282       -0.5172
   6044  OP2        0.5610   45.5860   25.2740 O.co2 282  A282       -0.4373
   6045  P          5.9680   43.6710   24.0410 P.3   283  A283        0.2141
   6046  C5'        8.5520   43.1710   24.6660 C.3   283  A283        0.1812
   6047  O5'        7.1380   43.0960   24.9710 O.3   283  A283       -0.3114
   6048  C4'        9.3170   42.8840   25.9430 C.3   283  A283        0.1773
   6049  O4'        8.6070   43.5070   27.0420 O.3   283  A283       -0.3307
   6050  C3'        9.4290   41.4260   26.4020 C.3   283  A283        0.1860
   6051  O3'       10.5360   40.6730   25.9120 O.3   283  A283       -0.3112
   6052  C2'        9.6920   41.5810   27.8970 C.3   283  A283        0.2309
   6053  O2'       10.9720   42.0110   28.2720 O.3   283  A283       -0.2156
   6054  C1'        8.8450   42.7940   28.2500 C.3   283  A283        0.2408
   6055  N1         6.3090   40.9890   32.3560 N.ar  283  A283       -0.2040
   6056  C2         7.5920   41.3170   32.1750 C.ar  283  A283        0.2016
   6057  N3         8.1960   41.7860   31.0850 N.ar  283  A283       -0.2048
   6058  C4         7.3170   41.9190   30.0810 C.ar  283  A283        0.1692
   6059  C5         5.9670   41.6250   30.1190 C.ar  283  A283        0.1518
   6060  C6         5.4530   41.1380   31.3230 C.ar  283  A283        0.1919
   6061  N6         4.1670   40.8260   31.5030 N.pl3 283  A283       -0.1054
   6062  N7         5.3710   41.8990   28.9010 N.ar  283  A283       -0.2193
   6063  C8         6.3650   42.3140   28.1510 C.ar  283  A283        0.1816
   6064  N9         7.5630   42.3900   28.8150 N.ar  283  A283       -0.2693
   6065  OP1        6.3320   43.6000   22.6000 O.2   283  A283       -0.5172
   6066  OP2        4.7100   43.0210   24.5400 O.co2 283  A283       -0.4373
   6067  P         10.2160   39.1730   25.3510 P.3   284  G284        0.2141
   6068  C5'       10.9930   38.3240   27.7540 C.3   284  G284        0.1812
   6069  O5'        9.9790   38.4240   26.7430 O.3   284  G284       -0.3114
   6070  C4'       10.3490   37.9250   29.0510 C.3   284  G284        0.1773
   6071  O4'        9.2920   38.8690   29.3300 O.3   284  G284       -0.3307
   6072  C3'        9.5850   36.6110   29.0630 C.3   284  G284        0.1860
   6073  O3'       10.4030   35.4560   29.1940 O.3   284  G284       -0.3112
   6074  C2'        8.7280   36.7940   30.3020 C.3   284  G284        0.2309
   6075  O2'        9.5210   36.7480   31.4700 O.3   284  G284       -0.2156
   6076  C1'        8.3010   38.2560   30.1530 C.3   284  G284        0.2408
   6077  N1         3.2480   37.8230   30.5690 N.ar  284  G284       -0.1709
   6078  C2         4.2090   37.6310   31.5280 C.ar  284  G284        0.2606
   6079  N2         3.7700   37.2740   32.7360 N.pl3 284  G284       -0.0859
   6080  N3         5.5080   37.7420   31.3010 N.ar  284  G284       -0.1918
   6081  C4         5.7630   38.1360   30.0340 C.ar  284  G284        0.1723
   6082  C5         4.8700   38.3600   29.0090 C.ar  284  G284        0.1748
   6083  C6         3.5010   38.1780   29.2460 C.ar  284  G284        0.3023
   6084  O6         2.5660   38.3260   28.4560 O.2   284  G284       -0.2633
   6085  N7         5.5290   38.7410   27.8550 N.ar  284  G284       -0.2173
   6086  C8         6.7910   38.7140   28.1800 C.ar  284  G284        0.1817
   6087  N9         7.0020   38.3910   29.4970 N.ar  284  G284       -0.2693
   6088  OP1       11.3400   38.6310   24.5710 O.2   284  G284       -0.5172
   6089  OP2        8.8510   39.1930   24.7170 O.co2 284  G284       -0.4373
   6090  P         10.3120   34.2730   28.1050 P.3   285  U285        0.2141
   6091  C5'        9.4140   32.2130   29.5680 C.3   285  U285        0.1812
   6092  O5'        9.1530   33.4230   28.8080 O.3   285  U285       -0.3114
   6093  C4'        9.6200   32.5240   31.0350 C.3   285  U285        0.1773
   6094  O4'        8.6380   33.5130   31.4510 O.3   285  U285       -0.3307
   6095  C3'        9.4460   31.3600   32.0070 C.3   285  U285        0.1860
   6096  O3'       10.0880   31.7050   33.2310 O.3   285  U285       -0.3112
   6097  C2'        7.9530   31.4260   32.3190 C.3   285  U285        0.2309
   6098  O2'        7.5640   30.8890   33.5700 O.3   285  U285       -0.2156
   6099  C1'        7.7350   32.9370   32.3780 C.3   285  U285        0.2420
   6100  N1         6.3760   33.3690   32.0290 N.ar  285  U285       -0.2534
   6101  C2         5.5120   33.5910   33.0730 C.ar  285  U285        0.3546
   6102  O2         5.8340   33.4370   34.2340 O.2   285  U285       -0.2443
   6103  N3         4.2620   34.0190   32.7070 N.ar  285  U285       -0.1530
   6104  C4         3.7920   34.2320   31.4280 C.ar  285  U285        0.2846
   6105  O4         2.6310   34.6180   31.2640 O.2   285  U285       -0.2650
   6106  C5         4.7440   33.9690   30.3990 C.ar  285  U285        0.0814
   6107  C6         5.9710   33.5450   30.7260 C.ar  285  U285        0.0870
   6108  OP1       11.7010   33.7160   28.1280 O.3   285  U285       -0.4373
   6109  OP2        9.7000   34.6400   26.8020 O.co2 285  U285       -0.5172
   6110  P         11.5530   31.2680   33.6600 P.3   286  C286        0.2141
   6111  C5'       10.3810   29.3200   35.0500 C.3   286  C286        0.1812
   6112  O5'       11.4350   29.7690   34.1740 O.3   286  C286       -0.3114
   6113  C4'        9.8770   28.0250   34.4810 C.3   286  C286        0.1773
   6114  O4'        8.9280   28.3540   33.4520 O.3   286  C286       -0.3307
   6115  C3'       10.9530   27.2710   33.7130 C.3   286  C286        0.1860
   6116  O3'       11.7080   26.3730   34.5260 O.3   286  C286       -0.3112
   6117  C2'       10.1710   26.4960   32.6580 C.3   286  C286        0.2309
   6118  O2'        9.7760   25.2170   33.0920 O.3   286  C286       -0.2156
   6119  C1'        8.8980   27.3170   32.5170 C.3   286  C286        0.2420
   6120  N1         8.7150   27.8840   31.1960 N.ar  286  C286       -0.2535
   6121  C2         7.4330   28.2360   30.8190 C.ar  286  C286        0.3532
   6122  O2         6.5220   28.1130   31.6450 O.2   286  C286       -0.2443
   6123  N3         7.2160   28.7250   29.5750 N.ar  286  C286       -0.1739
   6124  C4         8.2380   28.8620   28.7280 C.ar  286  C286        0.1759
   6125  N4         7.9850   29.3500   27.5140 N.pl3 286  C286       -0.1070
   6126  C5         9.5590   28.4780   29.0800 C.ar  286  C286        0.0566
   6127  C6         9.7500   27.9950   30.3140 C.ar  286  C286        0.0850
   6128  OP1       11.9790   31.9540   34.9050 O.3   286  C286       -0.4373
   6129  OP2       12.4040   31.3000   32.4480 O.co2 286  C286       -0.5172
   6130  P         13.1920   25.8680   34.0810 P.3   287  A287        0.2141
   6131  C5'       12.1510   23.3620   34.1420 C.3   287  A287        0.1812
   6132  O5'       13.1550   24.3390   34.5620 O.3   287  A287       -0.3114
   6133  C4'       12.5820   21.9430   34.4980 C.3   287  A287        0.1773
   6134  O4'       13.9720   21.7470   34.0730 O.3   287  A287       -0.3307
   6135  C3'       12.5930   21.5770   35.9890 C.3   287  A287        0.1860
   6136  O3'       11.4020   21.1600   36.6680 O.3   287  A287       -0.3112
   6137  C2'       13.7500   20.5830   36.0570 C.3   287  A287        0.2309
   6138  O2'       13.5040   19.3210   35.4600 O.3   287  A287       -0.2156
   6139  C1'       14.7580   21.3010   35.1750 C.3   287  A287        0.2408
   6140  N1        19.0000   23.1660   37.4550 N.ar  287  A287       -0.2040
   6141  C2        18.6940   21.9490   36.9790 C.ar  287  A287        0.2016
   6142  N3        17.5660   21.5240   36.4060 N.ar  287  A287       -0.2048
   6143  C4        16.6660   22.5220   36.3370 C.ar  287  A287        0.1692
   6144  C5        16.8300   23.8210   36.7910 C.ar  287  A287        0.1518
   6145  C6        18.0700   24.1440   37.3730 C.ar  287  A287        0.1919
   6146  N6        18.3720   25.3560   37.8480 N.pl3 287  A287       -0.1054
   6147  N7        15.6820   24.5680   36.5680 N.ar  287  A287       -0.2193
   6148  C8        14.8650   23.7230   35.9880 C.ar  287  A287        0.1816
   6149  N9        15.3970   22.4680   35.8080 N.ar  287  A287       -0.2693
   6150  OP1       14.1610   26.5990   34.9360 O.3   287  A287       -0.4373
   6151  OP2       13.3870   25.9330   32.6030 O.co2 287  A287       -0.5172
   6152  P         11.4240   21.1270   38.2980 P.3   288  G288        0.2141
   6153  C5'       13.4910   20.3620   39.8280 C.3   288  G288        0.1812
   6154  O5'       12.5950   20.1270   38.7170 O.3   288  G288       -0.3114
   6155  C4'       13.5430   19.1090   40.6780 C.3   288  G288        0.1773
   6156  O4'       14.2930   18.0560   40.0160 O.3   288  G288       -0.3307
   6157  C3'       14.2010   19.2380   42.0370 C.3   288  G288        0.1860
   6158  O3'       13.1800   19.6900   42.9190 O.3   288  G288       -0.3112
   6159  C2'       14.5410   17.7870   42.3630 C.3   288  G288        0.2309
   6160  O2'       13.4130   17.1040   42.8490 O.3   288  G288       -0.2156
   6161  C1'       14.8870   17.2170   40.9860 C.3   288  G288        0.2408
   6162  N1        19.1800   14.6150   41.7470 N.ar  288  G288       -0.1709
   6163  C2        17.8980   14.2990   42.1080 C.ar  288  G288        0.2606
   6164  N2        17.7410   13.1460   42.7690 N.pl3 288  G288       -0.0859
   6165  N3        16.8490   15.0610   41.8480 N.ar  288  G288       -0.1918
   6166  C4        17.1930   16.1860   41.1880 C.ar  288  G288        0.1723
   6167  C5        18.4420   16.5920   40.7790 C.ar  288  G288        0.1748
   6168  C6        19.5570   15.7570   41.0540 C.ar  288  G288        0.3023
   6169  O6        20.7460   15.9340   40.7600 O.2   288  G288       -0.2633
   6170  N7        18.3720   17.8050   40.1120 N.ar  288  G288       -0.2173
   6171  C8        17.1040   18.1120   40.1320 C.ar  288  G288        0.1817
   6172  N9        16.3300   17.1640   40.7520 N.ar  288  G288       -0.2693
   6173  OP1       10.1440   20.4340   38.6380 O.2   288  G288       -0.5172
   6174  OP2       11.8030   22.4490   38.9040 O.co2 288  G288       -0.4373
   6175  P         13.4010   20.7150   44.1230 P.3   289  C289        0.2141
   6176  C5'       13.4830   18.5460   45.6540 C.3   289  C289        0.1812
   6177  O5'       13.7340   19.9490   45.4800 O.3   289  C289       -0.3114
   6178  C4'       14.6410   17.9110   46.3910 C.3   289  C289        0.1773
   6179  O4'       15.6960   17.5590   45.4490 O.3   289  C289       -0.3307
   6180  C3'       15.3130   18.7460   47.4830 C.3   289  C289        0.1860
   6181  O3'       15.6730   17.8450   48.5140 O.3   289  C289       -0.3112
   6182  C2'       16.5900   19.2130   46.7980 C.3   289  C289        0.2309
   6183  O2'       17.7110   19.4500   47.6140 O.3   289  C289       -0.2156
   6184  C1'       16.9360   17.9780   45.9750 C.3   289  C289        0.2420
   6185  N1        17.8630   18.2520   44.8690 N.ar  289  C289       -0.2535
   6186  C2        18.9400   17.3880   44.6630 C.ar  289  C289        0.3532
   6187  O2        19.0700   16.4070   45.4020 O.2   289  C289       -0.2443
   6188  N3        19.8110   17.6450   43.6640 N.ar  289  C289       -0.1739
   6189  C4        19.6440   18.7210   42.8940 C.ar  289  C289        0.1759
   6190  N4        20.5340   18.9410   41.9290 N.pl3 289  C289       -0.1070
   6191  C5        18.5500   19.6130   43.0750 C.ar  289  C289        0.0566
   6192  C6        17.6970   19.3490   44.0720 C.ar  289  C289        0.0850
   6193  OP1       12.0260   21.2310   44.3300 O.3   289  C289       -0.4373
   6194  OP2       14.5510   21.6350   43.8730 O.co2 289  C289       -0.5172
   6195  P         15.8270   18.1880   50.0570 P.3   290  A290        0.2141
   6196  C5'       14.1970   16.8590   51.6720 C.3   290  A290        0.1812
   6197  O5'       14.4010   17.6200   50.4750 O.3   290  A290       -0.3114
   6198  C4'       12.7430   16.9300   52.0420 C.3   290  A290        0.1773
   6199  O4'       12.6330   17.5960   53.3280 O.3   290  A290       -0.3307
   6200  C3'       11.8870   17.7520   51.0830 C.3   290  A290        0.1860
   6201  O3'       11.3070   16.9460   50.0630 O.3   290  A290       -0.3112
   6202  C2'       10.8180   18.3400   51.9930 C.3   290  A290        0.2309
   6203  O2'        9.7480   17.4440   52.2130 O.3   290  A290       -0.2156
   6204  C1'       11.5960   18.5500   53.2900 C.3   290  A290        0.2408
   6205  N1        11.3660   23.2020   55.4780 N.ar  290  A290       -0.2040
   6206  C2        10.5940   22.1150   55.6030 C.ar  290  A290        0.2016
   6207  N3        10.7010   20.9330   55.0040 N.ar  290  A290       -0.2048
   6208  C4        11.7610   20.9160   54.1750 C.ar  290  A290        0.1692
   6209  C5        12.6410   21.9550   53.9360 C.ar  290  A290        0.1518
   6210  C6        12.4160   23.1540   54.6300 C.ar  290  A290        0.1919
   6211  N6        13.1870   24.2340   54.5060 N.pl3 290  A290       -0.1054
   6212  N7        13.6210   21.5690   53.0350 N.ar  290  A290       -0.2193
   6213  C8        13.3110   20.3300   52.7440 C.ar  290  A290        0.1816
   6214  N9        12.1970   19.8710   53.3960 N.ar  290  A290       -0.2693
   6215  OP1       15.7950   19.6570   50.2220 O.2   290  A290       -0.5172
   6216  OP2       16.9050   17.4010   50.7090 O.co2 290  A290       -0.4373
   6217  P         10.5110   17.6790   48.8720 P.3   291  G291        0.2141
   6218  C5'        8.0490   16.9110   49.4180 C.3   291  G291        0.1812
   6219  O5'        9.0420   17.9330   49.4170 O.3   291  G291       -0.3114
   6220  C4'        6.7640   17.5380   49.8740 C.3   291  G291        0.1773
   6221  O4'        7.0370   18.4450   50.9920 O.3   291  G291       -0.3307
   6222  C3'        6.0660   18.3860   48.8160 C.3   291  G291        0.1860
   6223  O3'        4.6680   18.2820   49.0380 O.3   291  G291       -0.3112
   6224  C2'        6.5120   19.7970   49.1700 C.3   291  G291        0.2309
   6225  O2'        5.5750   20.7510   48.7380 O.3   291  G291       -0.2156
   6226  C1'        6.5040   19.7210   50.6940 C.3   291  G291        0.2408
   6227  N1         6.9640   22.6480   54.8230 N.ar  291  G291       -0.1709
   6228  C2         6.0450   21.6670   54.5510 C.ar  291  G291        0.2606
   6229  N2         5.1190   21.4470   55.4960 N.pl3 291  G291       -0.0859
   6230  N3         6.0250   20.9630   53.4310 N.ar  291  G291       -0.1918
   6231  C4         7.0240   21.3190   52.5940 C.ar  291  G291        0.1723
   6232  C5         7.9920   22.2840   52.7720 C.ar  291  G291        0.1748
   6233  C6         7.9970   23.0350   53.9750 C.ar  291  G291        0.3023
   6234  O6         8.7720   23.9340   54.3210 O.2   291  G291       -0.2633
   6235  N7         8.8390   22.3410   51.6740 N.ar  291  G291       -0.2173
   6236  C8         8.3790   21.4260   50.8630 C.ar  291  G291        0.1817
   6237  N9         7.2880   20.7580   51.3650 N.ar  291  G291       -0.2693
   6238  OP1       10.3820   16.7250   47.7430 O.2   291  G291       -0.5172
   6239  OP2       11.0680   19.0610   48.6700 O.co2 291  G291       -0.4373
   6240  P          3.6390   18.4710   47.8570 P.3   292  A292        0.2141
   6241  C5'        2.0680   16.3780   48.1850 C.3   292  A292        0.1812
   6242  O5'        2.3280   17.7690   48.4250 O.3   292  A292       -0.3114
   6243  C4'        0.9930   15.9260   49.1320 C.3   292  A292        0.1773
   6244  O4'        1.5370   15.9410   50.4820 O.3   292  A292       -0.3307
   6245  C3'       -0.2200   16.8510   49.2010 C.3   292  A292        0.1860
   6246  O3'       -1.2080   16.5970   48.2090 O.3   292  A292       -0.3112
   6247  C2'       -0.7320   16.6010   50.6140 C.3   292  A292        0.2309
   6248  O2'       -1.5300   15.4450   50.7450 O.3   292  A292       -0.2156
   6249  C1'        0.5840   16.4920   51.3840 C.3   292  A292        0.2408
   6250  N1        -0.4430   20.5440   54.3570 N.ar  292  A292       -0.2040
   6251  C2        -1.0800   19.3840   54.1590 C.ar  292  A292        0.2016
   6252  N3        -0.7480   18.3650   53.3710 N.ar  292  A292       -0.2048
   6253  C4         0.3980   18.6250   52.7170 C.ar  292  A292        0.1692
   6254  C5         1.1690   19.7690   52.8180 C.ar  292  A292        0.1518
   6255  C6         0.7090   20.7720   53.6900 C.ar  292  A292        0.1919
   6256  N6         1.3440   21.9290   53.8880 N.pl3 292  A292       -0.1054
   6257  N7         2.2870   19.6820   52.0010 N.ar  292  A292       -0.2193
   6258  C8         2.1710   18.5060   51.4340 C.ar  292  A292        0.1816
   6259  N9         1.0560   17.8070   51.8310 N.ar  292  A292       -0.2693
   6260  OP1        4.1600   17.6920   46.7010 O.2   292  A292       -0.5172
   6261  OP2        3.3610   19.9250   47.7290 O.co2 292  A292       -0.4373
   6262  P         -2.0010   17.8450   47.5940 P.3   293  A293        0.2141
   6263  C5'       -4.0200   17.3010   49.1900 C.3   293  A293        0.1812
   6264  O5'       -3.0990   18.2730   48.6650 O.3   293  A293       -0.3114
   6265  C4'       -4.7900   17.8760   50.3540 C.3   293  A293        0.1773
   6266  O4'       -3.8730   18.2460   51.4140 O.3   293  A293       -0.3307
   6267  C3'       -5.5330   19.1750   50.0720 C.3   293  A293        0.1860
   6268  O3'       -6.7600   18.9940   49.3810 O.3   293  A293       -0.3112
   6269  C2'       -5.7360   19.7250   51.4750 C.3   293  A293        0.2309
   6270  O2'       -6.8420   19.2020   52.1800 O.3   293  A293       -0.2156
   6271  C1'       -4.4160   19.3370   52.1410 C.3   293  A293        0.2408
   6272  N1        -3.1880   23.8210   54.2880 N.ar  293  A293       -0.2040
   6273  C2        -4.1900   22.9610   54.5020 C.ar  293  A293        0.2016
   6274  N3        -4.4490   21.8060   53.8970 N.ar  293  A293       -0.2048
   6275  C4        -3.5250   21.5440   52.9550 C.ar  293  A293        0.1692
   6276  C5        -2.4360   22.3270   52.6230 C.ar  293  A293        0.1518
   6277  C6        -2.2730   23.5250   53.3380 C.ar  293  A293        0.1919
   6278  N6        -1.2750   24.3840   53.1230 N.pl3 293  A293       -0.1054
   6279  N7        -1.6990   21.7380   51.6060 N.ar  293  A293       -0.2193
   6280  C8        -2.3460   20.6260   51.3530 C.ar  293  A293        0.1816
   6281  N9        -3.4560   20.4420   52.1380 N.ar  293  A293       -0.2693
   6282  OP1       -2.7210   17.3320   46.3960 O.2   293  A293       -0.5172
   6283  OP2       -1.0160   18.9500   47.4660 O.co2 293  A293       -0.4373
   6284  P         -6.9910   19.8330   48.0370 P.3   294  G294        0.2141
   6285  C5'       -8.2330   21.7480   49.3840 C.3   294  G294        0.1812
   6286  O5'       -7.1650   21.3500   48.5060 O.3   294  G294       -0.3114
   6287  C4'       -7.7780   22.8560   50.3080 C.3   294  G294        0.1773
   6288  O4'       -6.4540   22.5660   50.8300 O.3   294  G294       -0.3307
   6289  C3'       -7.6070   24.2320   49.6870 C.3   294  G294        0.1860
   6290  O3'       -8.8370   24.9220   49.5300 O.3   294  G294       -0.3112
   6291  C2'       -6.7160   24.9190   50.7100 C.3   294  G294        0.2309
   6292  O2'       -7.4470   25.3150   51.8460 O.3   294  G294       -0.2156
   6293  C1'       -5.7620   23.7830   51.0790 C.3   294  G294        0.2408
   6294  N1        -1.7000   26.4490   49.6000 N.ar  294  G294       -0.1709
   6295  C2        -2.7090   26.8060   50.4570 C.ar  294  G294        0.2606
   6296  N2        -2.6210   28.0300   50.9870 N.pl3 294  G294       -0.0859
   6297  N3        -3.7240   26.0190   50.7740 N.ar  294  G294       -0.1918
   6298  C4        -3.6530   24.8280   50.1430 C.ar  294  G294        0.1723
   6299  C5        -2.6930   24.3760   49.2610 C.ar  294  G294        0.1748
   6300  C6        -1.6090   25.2330   48.9330 C.ar  294  G294        0.3023
   6301  O6        -0.6590   25.0190   48.1720 O.2   294  G294       -0.2633
   6302  N7        -2.9780   23.0840   48.8400 N.ar  294  G294       -0.2173
   6303  C8        -4.0880   22.7800   49.4580 C.ar  294  G294        0.1817
   6304  N9        -4.5490   23.7910   50.2680 N.ar  294  G294       -0.2693
   6305  OP1       -8.2760   19.3290   47.4890 O.3   294  G294       -0.4373
   6306  OP2       -5.7540   19.7450   47.2100 O.co2 294  G294       -0.5172
   6307  P         -8.9890   25.7260   48.1610 P.3   295  U295        0.2141
   6308  C5'       -8.5560   27.9150   49.5410 C.3   295  U295        0.1812
   6309  O5'       -8.1380   27.0230   48.5000 O.3   295  U295       -0.3114
   6310  C4'       -7.6330   29.1010   49.5660 C.3   295  U295        0.1773
   6311  O4'       -6.2640   28.6360   49.7140 O.3   295  U295       -0.3307
   6312  C3'       -7.5970   29.9130   48.2820 C.3   295  U295        0.1860
   6313  O3'       -8.6840   30.8230   48.1940 O.3   295  U295       -0.3112
   6314  C2'       -6.2480   30.6090   48.3900 C.3   295  U295        0.2309
   6315  O2'       -6.2630   31.7170   49.2680 O.3   295  U295       -0.2156
   6316  C1'       -5.3920   29.5050   49.0090 C.3   295  U295        0.2420
   6317  N1        -4.6180   28.7210   48.0350 N.ar  295  U295       -0.2534
   6318  C2        -3.4160   29.2540   47.6000 C.ar  295  U295        0.3546
   6319  O2        -2.9960   30.3360   47.9740 O.2   295  U295       -0.2443
   6320  N3        -2.7350   28.4780   46.6940 N.ar  295  U295       -0.1530
   6321  C4        -3.1090   27.2450   46.2020 C.ar  295  U295        0.2846
   6322  O4        -2.3720   26.6620   45.4090 O.2   295  U295       -0.2650
   6323  C5        -4.3630   26.7600   46.7010 C.ar  295  U295        0.0814
   6324  C6        -5.0600   27.5000   47.5740 C.ar  295  U295        0.0870
   6325  OP1      -10.4000   26.1600   47.9880 O.3   295  U295       -0.4373
   6326  OP2       -8.3080   24.9510   47.0910 O.co2 295  U295       -0.5172
   6327  P         -9.2870   31.1000   46.7430 P.3   296  C296        0.2141
   6328  C5'       -7.9780   33.3690   46.5690 C.3   296  C296        0.1812
   6329  O5'       -8.1740   32.0270   46.0820 O.3   296  C296       -0.3114
   6330  C4'       -7.1010   34.1390   45.6180 C.3   296  C296        0.1773
   6331  O4'       -5.7250   33.7150   45.7930 O.3   296  C296       -0.3307
   6332  C3'       -7.3730   33.9060   44.1420 C.3   296  C296        0.1860
   6333  O3'       -8.4490   34.7290   43.6830 O.3   296  C296       -0.3112
   6334  C2'       -6.0420   34.3040   43.5180 C.3   296  C296        0.2309
   6335  O2'       -5.9200   35.7020   43.4320 O.3   296  C296       -0.2156
   6336  C1'       -5.0400   33.8130   44.5630 C.3   296  C296        0.2420
   6337  N1        -4.4640   32.4990   44.2290 N.ar  296  C296       -0.2535
   6338  C2        -3.2640   32.4650   43.5110 C.ar  296  C296        0.3532
   6339  O2        -2.7180   33.5340   43.2080 O.2   296  C296       -0.2443
   6340  N3        -2.7360   31.2690   43.1570 N.ar  296  C296       -0.1739
   6341  C4        -3.3590   30.1380   43.4990 C.ar  296  C296        0.1759
   6342  N4        -2.7980   28.9790   43.1360 N.pl3 296  C296       -0.1070
   6343  C5        -4.5850   30.1440   44.2290 C.ar  296  C296        0.0566
   6344  C6        -5.1010   31.3360   44.5650 C.ar  296  C296        0.0850
   6345  OP1      -10.5150   31.9180   46.9850 O.3   296  C296       -0.4373
   6346  OP2       -9.3520   29.8450   45.9380 O.co2 296  C296       -0.5172
   6347  P         -9.4560   34.2110   42.5230 P.3   297  A297        0.2141
   6348  C5'       -8.1510   35.8570   40.8930 C.3   297  A297        0.1812
   6349  O5'       -8.8400   34.6170   41.1100 O.3   297  A297       -0.3114
   6350  C4'       -7.1840   35.6980   39.7490 C.3   297  A297        0.1773
   6351  O4'       -5.9560   35.0940   40.2400 O.3   297  A297       -0.3307
   6352  C3'       -7.6210   34.7500   38.6330 C.3   297  A297        0.1860
   6353  O3'       -8.5760   35.2920   37.7200 O.3   297  A297       -0.3112
   6354  C2'       -6.2830   34.3950   37.9930 C.3   297  A297        0.2309
   6355  O2'       -5.7930   35.4420   37.1800 O.3   297  A297       -0.2156
   6356  C1'       -5.3930   34.2580   39.2290 C.3   297  A297        0.2408
   6357  N1        -3.1480   29.6170   38.9320 N.ar  297  A297       -0.2040
   6358  C2        -2.9370   30.7590   38.2610 C.ar  297  A297        0.2016
   6359  N3        -3.5480   31.9370   38.3850 N.ar  297  A297       -0.2048
   6360  C4        -4.4930   31.8820   39.3390 C.ar  297  A297        0.1692
   6361  C5        -4.8220   30.7850   40.1160 C.ar  297  A297        0.1518
   6362  C6        -4.1010   29.6000   39.8880 C.ar  297  A297        0.1919
   6363  N6        -4.3060   28.4700   40.5630 N.pl3 297  A297       -0.1054
   6364  N7        -5.8570   31.0940   40.9850 N.ar  297  A297       -0.2193
   6365  C8        -6.1190   32.3520   40.7270 C.ar  297  A297        0.1816
   6366  N9        -5.3350   32.8910   39.7400 N.ar  297  A297       -0.2693
   6367  OP1      -10.7090   35.0060   42.6450 O.3   297  A297       -0.4373
   6368  OP2       -9.4810   32.7100   42.4290 O.co2 297  A297       -0.5172
   6369  P         -9.3830   34.3170   36.7320 P.3   298  U298        0.2141
   6370  C5'       -7.7590   35.0020   34.8240 C.3   298  U298        0.1812
   6371  O5'       -8.2770   33.9430   35.6450 O.3   298  U298       -0.3114
   6372  C4'       -6.8140   34.4970   33.7570 C.3   298  U298        0.1773
   6373  O4'       -5.5730   34.0180   34.3460 O.3   298  U298       -0.3307
   6374  C3'       -7.3060   33.3600   32.8760 C.3   298  U298        0.1860
   6375  O3'       -8.0870   33.8850   31.8060 O.3   298  U298       -0.3112
   6376  C2'       -5.9950   32.7640   32.3710 C.3   298  U298        0.2309
   6377  O2'       -5.5010   33.4810   31.2600 O.3   298  U298       -0.2156
   6378  C1'       -5.0900   32.9190   33.5960 C.3   298  U298        0.2420
   6379  N1        -5.1000   31.7410   34.4690 N.ar  298  U298       -0.2534
   6380  C2        -4.0300   30.8770   34.3880 C.ar  298  U298        0.3546
   6381  O2        -3.0910   31.0560   33.6360 O.2   298  U298       -0.2443
   6382  N3        -4.1050   29.7890   35.2200 N.ar  298  U298       -0.1530
   6383  C4        -5.1080   29.4890   36.1130 C.ar  298  U298        0.2846
   6384  O4        -5.0200   28.4750   36.8020 O.2   298  U298       -0.2650
   6385  C5        -6.1770   30.4370   36.1450 C.ar  298  U298        0.0814
   6386  C6        -6.1410   31.5020   35.3380 C.ar  298  U298        0.0870
   6387  OP1      -10.4200   35.0810   36.0070 O.2   298  U298       -0.5172
   6388  OP2       -9.7900   33.1210   37.4980 O.co2 298  U298       -0.4373
   6389  P         -9.1660   32.9530   31.0820 P.3   299  A299        0.2141
   6390  C5'      -11.3960   32.0200   32.1060 C.3   299  A299        0.1812
   6391  O5'      -10.1470   32.6810   32.3020 O.3   299  A299       -0.3114
   6392  C4'      -11.5920   30.9790   33.1800 C.3   299  A299        0.1773
   6393  O4'      -10.6420   29.8940   32.9850 O.3   299  A299       -0.3307
   6394  C3'      -11.3810   31.4570   34.6170 C.3   299  A299        0.1860
   6395  O3'      -12.2970   30.7570   35.4550 O.3   299  A299       -0.3112
   6396  C2'       -9.9870   30.9420   34.9220 C.3   299  A299        0.2309
   6397  O2'       -9.7350   30.8100   36.2950 O.3   299  A299       -0.2156
   6398  C1'      -10.0430   29.5900   34.2230 C.3   299  A299        0.2408
   6399  N1        -6.9150   25.7980   35.6630 N.ar  299  A299       -0.2040
   6400  C2        -8.1450   26.1530   36.0470 C.ar  299  A299        0.2016
   6401  N3        -8.9020   27.1620   35.6240 N.ar  299  A299       -0.2048
   6402  C4        -8.2670   27.8660   34.6710 C.ar  299  A299        0.1692
   6403  C5        -7.0000   27.6290   34.1720 C.ar  299  A299        0.1518
   6404  C6        -6.2960   26.5350   34.7130 C.ar  299  A299        0.1919
   6405  N6        -5.0700   26.1740   34.3270 N.pl3 299  A299       -0.1054
   6406  N7        -6.6780   28.5580   33.1920 N.ar  299  A299       -0.2193
   6407  C8        -7.7400   29.3250   33.1230 C.ar  299  A299        0.1816
   6408  N9        -8.7400   28.9620   33.9910 N.ar  299  A299       -0.2693
   6409  OP1       -8.4810   31.6740   30.7260 O.3   299  A299       -0.4373
   6410  OP2       -9.8850   33.7230   30.0290 O.co2 299  A299       -0.5172
   6411  P        -13.7500   31.3620   35.8690 P.3   300  G300        0.2141
   6412  C5'      -15.0110   29.0780   35.5630 C.3   300  G300        0.1812
   6413  O5'      -14.7440   30.4000   35.0790 O.3   300  G300       -0.3114
   6414  C4'      -14.3850   28.0770   34.6350 C.3   300  G300        0.1773
   6415  O4'      -13.7100   27.0450   35.4070 O.3   300  G300       -0.3307
   6416  C3'      -15.3630   27.3550   33.7170 C.3   300  G300        0.1860
   6417  O3'      -14.7500   27.3290   32.4360 O.3   300  G300       -0.3112
   6418  C2'      -15.4540   25.9620   34.3380 C.3   300  G300        0.2309
   6419  O2'      -15.7820   24.9240   33.4370 O.3   300  G300       -0.2156
   6420  C1'      -14.0330   25.7870   34.8630 C.3   300  G300        0.2408
   6421  N1       -11.0100   22.1710   36.7310 N.ar  300  G300       -0.1709
   6422  C2       -10.8190   22.9980   35.6520 C.ar  300  G300        0.2606
   6423  N2        -9.6700   22.8430   34.9800 N.pl3 300  G300       -0.0859
   6424  N3       -11.6920   23.9100   35.2580 N.ar  300  G300       -0.1918
   6425  C4       -12.7880   23.9360   36.0460 C.ar  300  G300        0.1723
   6426  C5       -13.0780   23.1530   37.1430 C.ar  300  G300        0.1748
   6427  C6       -12.1320   22.1750   37.5550 C.ar  300  G300        0.3023
   6428  O6       -12.2020   21.3850   38.5050 O.2   300  G300       -0.2633
   6429  N7       -14.3150   23.4900   37.6760 N.ar  300  G300       -0.2173
   6430  C8       -14.7460   24.4540   36.9080 C.ar  300  G300        0.1817
   6431  N9       -13.8700   24.7720   35.8990 N.ar  300  G300       -0.2693
   6432  OP1      -13.8850   32.7270   35.2670 O.2   300  G300       -0.5172
   6433  OP2      -13.9780   31.1590   37.3300 O.co2 300  G300       -0.4373
   6434  P        -15.4460   26.5840   31.2100 P.3   301  U301        0.2141
   6435  C5'      -14.9370   28.8880   29.9880 C.3   301  U301        0.1812
   6436  O5'      -14.9330   27.4450   29.9670 O.3   301  U301       -0.3114
   6437  C4'      -13.6780   29.4400   29.3460 C.3   301  U301        0.1773
   6438  O4'      -12.6290   29.5650   30.3440 O.3   301  U301       -0.3307
   6439  C3'      -13.0480   28.5920   28.2590 C.3   301  U301        0.1860
   6440  O3'      -13.6130   28.9120   26.9980 O.3   301  U301       -0.3112
   6441  C2'      -11.6020   29.0640   28.2720 C.3   301  U301        0.2309
   6442  O2'      -11.4950   30.2570   27.5240 O.3   301  U301       -0.2156
   6443  C1'      -11.3670   29.3100   29.7610 C.3   301  U301        0.2420
   6444  N1       -10.7500   28.1890   30.4840 N.ar  301  U301       -0.2534
   6445  C2        -9.4190   27.9050   30.2400 C.ar  301  U301        0.3546
   6446  O2        -8.7450   28.5270   29.4370 O.2   301  U301       -0.2443
   6447  N3        -8.9120   26.8540   30.9630 N.ar  301  U301       -0.1530
   6448  C4        -9.5750   26.0830   31.8930 C.ar  301  U301        0.2846
   6449  O4        -8.9770   25.1690   32.4630 O.2   301  U301       -0.2650
   6450  C5       -10.9390   26.4550   32.1050 C.ar  301  U301        0.0814
   6451  C6       -11.4680   27.4670   31.4070 C.ar  301  U301        0.0870
   6452  OP1      -16.9060   26.7870   31.3880 O.3   301  U301       -0.4373
   6453  OP2      -14.9110   25.2010   31.1790 O.co2 301  U301       -0.5172
   6454  P        -13.7180   27.7180   25.9440 P.3   302  A302        0.2141
   6455  C5'      -11.4180   28.2120   24.7830 C.3   302  A302        0.1812
   6456  O5'      -12.1830   27.4020   25.6800 O.3   302  A302       -0.3114
   6457  C4'      -10.0350   27.6450   24.6720 C.3   302  A302        0.1773
   6458  O4'       -9.4540   27.5150   25.9930 O.3   302  A302       -0.3307
   6459  C3'       -9.9510   26.2190   24.1520 C.3   302  A302        0.1860
   6460  O3'      -10.1300   26.1800   22.7440 O.3   302  A302       -0.3112
   6461  C2'       -8.5500   25.8330   24.5950 C.3   302  A302        0.2309
   6462  O2'       -7.6130   26.4620   23.7450 O.3   302  A302       -0.2156
   6463  C1'       -8.5040   26.4600   25.9840 C.3   302  A302        0.2408
   6464  N1        -6.9440   22.5900   29.0060 N.ar  302  A302       -0.2040
   6465  C2        -6.3470   23.2320   27.9930 C.ar  302  A302        0.2016
   6466  N3        -6.8020   24.2360   27.2450 N.ar  302  A302       -0.2048
   6467  C4        -8.0470   24.5770   27.6170 C.ar  302  A302        0.1692
   6468  C5        -8.7920   24.0080   28.6330 C.ar  302  A302        0.1518
   6469  C6        -8.1960   22.9570   29.3530 C.ar  302  A302        0.1919
   6470  N6        -8.7950   22.3130   30.3570 N.pl3 302  A302       -0.1054
   6471  N7       -10.0260   24.6300   28.7430 N.ar  302  A302       -0.2193
   6472  C8       -10.0090   25.5310   27.7920 C.ar  302  A302        0.1816
   6473  N9        -8.8490   25.5430   27.0620 N.ar  302  A302       -0.2693
   6474  OP1      -14.3050   28.2760   24.6900 O.2   302  A302       -0.5172
   6475  OP2      -14.3300   26.5340   26.6270 O.co2 302  A302       -0.4373
   6476  P        -10.5620   24.7630   22.1590 P.3   303  C303        0.2141
   6477  C5'       -8.7700   22.7900   22.2240 C.3   303  C303        0.1812
   6478  O5'       -9.3750   23.9370   22.8320 O.3   303  C303       -0.3114
   6479  C4'       -8.2390   21.8680   23.2950 C.3   303  C303        0.1773
   6480  O4'       -8.4110   22.4650   24.6080 O.3   303  C303       -0.3307
   6481  C3'       -8.9590   20.5390   23.3890 C.3   303  C303        0.1860
   6482  O3'       -8.4770   19.7010   22.3460 O.3   303  C303       -0.3112
   6483  C2'       -8.6870   20.1150   24.8340 C.3   303  C303        0.2309
   6484  O2'       -7.4870   19.4560   25.1930 O.3   303  C303       -0.2156
   6485  C1'       -8.7250   21.4580   25.5580 C.3   303  C303        0.2420
   6486  N1       -10.0470   21.7420   26.1450 N.ar  303  C303       -0.2535
   6487  C2       -10.4270   21.0430   27.3000 C.ar  303  C303        0.3532
   6488  O2        -9.6410   20.2200   27.7880 O.2   303  C303       -0.2443
   6489  N3       -11.6370   21.2890   27.8550 N.ar  303  C303       -0.1739
   6490  C4       -12.4560   22.1850   27.2980 C.ar  303  C303        0.1759
   6491  N4       -13.6420   22.3900   27.8770 N.pl3 303  C303       -0.1070
   6492  C5       -12.0970   22.9080   26.1190 C.ar  303  C303        0.0566
   6493  C6       -10.8950   22.6570   25.5810 C.ar  303  C303        0.0850
   6494  OP1      -10.3820   24.8180   20.6770 O.2   303  C303       -0.5172
   6495  OP2      -11.8590   24.3280   22.7570 O.co2 303  C303       -0.4373
   6496  P         -9.5120   18.9180   21.3970 P.3   304  C304        0.2141
   6497  C5'       -8.5470   17.0210   22.9750 C.3   304  C304        0.1812
   6498  O5'       -9.6860   17.6530   22.3510 O.3   304  C304       -0.3114
   6499  C4'       -8.9930   16.0830   24.0760 C.3   304  C304        0.1773
   6500  O4'       -9.4030   16.8560   25.2300 O.3   304  C304       -0.3307
   6501  C3'      -10.2040   15.2070   23.7870 C.3   304  C304        0.1860
   6502  O3'       -9.8810   14.0350   23.0490 O.3   304  C304       -0.3112
   6503  C2'      -10.6610   14.8420   25.1920 C.3   304  C304        0.2309
   6504  O2'       -9.8820   13.7990   25.7440 O.3   304  C304       -0.2156
   6505  C1'      -10.4030   16.1490   25.9400 C.3   304  C304        0.2420
   6506  N1       -11.5800   17.0200   26.0560 N.ar  304  C304       -0.2535
   6507  C2       -12.3770   16.9210   27.2030 C.ar  304  C304        0.3532
   6508  O2       -12.0780   16.0840   28.0690 O.2   304  C304       -0.2443
   6509  N3       -13.4470   17.7420   27.3380 N.ar  304  C304       -0.1739
   6510  C4       -13.7360   18.6240   26.3780 C.ar  304  C304        0.1759
   6511  N4       -14.8050   19.4020   26.5460 N.pl3 304  C304       -0.1070
   6512  C5       -12.9390   18.7470   25.2010 C.ar  304  C304        0.0566
   6513  C6       -11.8780   17.9360   25.0840 C.ar  304  C304        0.0850
   6514  OP1       -8.7760   18.6080   20.1430 O.2   304  C304       -0.5172
   6515  OP2      -10.8440   19.5840   21.3210 O.co2 304  C304       -0.4373
   6516  P        -10.9770   13.3940   22.0720 P.3   305  C305        0.2141
   6517  C5'      -11.6100   11.5130   23.8340 C.3   305  C305        0.1812
   6518  O5'      -11.9990   12.6830   23.0740 O.3   305  C305       -0.3114
   6519  C4'      -12.7820   10.9250   24.5930 C.3   305  C305        0.1773
   6520  O4'      -13.1170   11.7730   25.7260 O.3   305  C305       -0.3307
   6521  C3'      -14.0880   10.7810   23.8220 C.3   305  C305        0.1860
   6522  O3'      -14.1600    9.5870   23.0560 O.3   305  C305       -0.3112
   6523  C2'      -15.1270   10.7790   24.9360 C.3   305  C305        0.2309
   6524  O2'      -15.3340    9.5080   25.5170 O.3   305  C305       -0.2156
   6525  C1'      -14.5250   11.7930   25.9110 C.3   305  C305        0.2420
   6526  N1       -15.0080   13.1600   25.6600 N.ar  305  C305       -0.2535
   6527  C2       -16.2080   13.5670   26.2500 C.ar  305  C305        0.3532
   6528  O2       -16.8170   12.7710   26.9800 O.2   305  C305       -0.2443
   6529  N3       -16.6690   14.8180   26.0180 N.ar  305  C305       -0.1739
   6530  C4       -15.9830   15.6440   25.2250 C.ar  305  C305        0.1759
   6531  N4       -16.4700   16.8700   25.0270 N.pl3 305  C305       -0.1070
   6532  C5       -14.7610   15.2520   24.6030 C.ar  305  C305        0.0566
   6533  C6       -14.3160   14.0120   24.8440 C.ar  305  C305        0.0850
   6534  OP1      -10.2790   12.3280   21.3040 O.2   305  C305       -0.5172
   6535  OP2      -11.6790   14.4940   21.3410 O.co2 305  C305       -0.4373
   6536  P        -15.0750    9.6520   21.7510 P.3   306  U306        0.2141
   6537  C5'      -17.6790    9.6690   22.0640 C.3   306  U306        0.1812
   6538  O5'      -16.4250    9.0190   22.3120 O.3   306  U306       -0.3114
   6539  C4'      -18.6920    9.2800   23.1090 C.3   306  U306        0.1773
   6540  O4'      -18.5430   10.1450   24.2740 O.3   306  U306       -0.3307
   6541  C3'      -20.1360    9.4610   22.6670 C.3   306  U306        0.1860
   6542  O3'      -20.6390    8.3620   21.9200 O.3   306  U306       -0.3112
   6543  C2'      -20.8490    9.7320   23.9840 C.3   306  U306        0.2309
   6544  O2'      -21.1600    8.5630   24.7160 O.3   306  U306       -0.2156
   6545  C1'      -19.8180   10.6140   24.6930 C.3   306  U306        0.2420
   6546  N1       -19.9190   12.0480   24.3630 N.ar  306  U306       -0.2534
   6547  C2       -21.1630   12.6580   24.4540 C.ar  306  U306        0.3546
   6548  O2       -22.1750   12.0630   24.7900 O.2   306  U306       -0.2443
   6549  N3       -21.1730   13.9920   24.1330 N.ar  306  U306       -0.1530
   6550  C4       -20.1030   14.7670   23.7380 C.ar  306  U306        0.2846
   6551  O4       -20.2800   15.9580   23.4830 O.2   306  U306       -0.2650
   6552  C5       -18.8550   14.0670   23.6660 C.ar  306  U306        0.0814
   6553  C6       -18.8060   12.7660   23.9780 C.ar  306  U306        0.0870
   6554  OP1      -14.4310    8.8050   20.7110 O.2   306  U306       -0.5172
   6555  OP2      -15.3550   11.0750   21.4450 O.co2 306  U306       -0.4373
   6556  P        -21.3320    8.7650   20.5350 P.3   307  G307        0.2141
   6557  C5'      -23.6350   10.0270   20.0590 C.3   307  G307        0.1812
   6558  O5'      -22.7170    9.4140   20.9970 O.3   307  G307       -0.3114
   6559  C4'      -24.8730   10.5240   20.7770 C.3   307  G307        0.1773
   6560  O4'      -24.4700   11.2150   22.0000 O.3   307  G307       -0.3307
   6561  C3'      -25.7360   11.5330   20.0190 C.3   307  G307        0.1860
   6562  O3'      -26.8050   11.0020   19.2420 O.3   307  G307       -0.3112
   6563  C2'      -26.3050   12.3720   21.1530 C.3   307  G307        0.2309
   6564  O2'      -27.3700   11.7230   21.8190 O.3   307  G307       -0.2156
   6565  C1'      -25.0760   12.4960   22.0480 C.3   307  G307        0.2408
   6566  N1       -24.4040   17.1070   20.0060 N.ar  307  G307       -0.1709
   6567  C2       -25.5670   16.4940   20.4030 C.ar  307  G307        0.2606
   6568  N2       -26.6960   17.1960   20.2300 N.pl3 307  G307       -0.0859
   6569  N3       -25.6190   15.2810   20.9300 N.ar  307  G307       -0.1918
   6570  C4       -24.3940   14.7200   21.0300 C.ar  307  G307        0.1723
   6571  C5       -23.1750   15.2450   20.6580 C.ar  307  G307        0.1748
   6572  C6       -23.1330   16.5480   20.0950 C.ar  307  G307        0.3023
   6573  O6       -22.1510   17.1880   19.7030 O.2   307  G307       -0.2633
   6574  N7       -22.1500   14.3450   20.9200 N.ar  307  G307       -0.2173
   6575  C8       -22.7530   13.3090   21.4360 C.ar  307  G307        0.1817
   6576  N9       -24.1140   13.4720   21.5400 N.ar  307  G307       -0.2693
   6577  OP1      -21.5860    7.4880   19.8280 O.2   307  G307       -0.5172
   6578  OP2      -20.4830    9.7980   19.8840 O.co2 307  G307       -0.4373
   6579  P        -27.1090   11.5850   17.7670 P.3   308  U308        0.2141
   6580  C5'      -28.8790   13.3670   16.9110 C.3   308  U308        0.1812
   6581  O5'      -27.8500   12.9970   17.8680 O.3   308  U308       -0.3114
   6582  C4'      -28.8340   14.8440   16.5600 C.3   308  U308        0.1773
   6583  O4'      -27.5030   15.3830   16.8130 O.3   308  U308       -0.3307
   6584  C3'      -29.1710   15.1930   15.1070 C.3   308  U308        0.1860
   6585  O3'      -30.0590   16.3110   15.0220 O.3   308  U308       -0.3112
   6586  C2'      -27.7980   15.4800   14.4980 C.3   308  U308        0.2309
   6587  O2'      -27.7720   16.3580   13.3910 O.3   308  U308       -0.2156
   6588  C1'      -27.0670   16.1100   15.6810 C.3   308  U308        0.2420
   6589  N1       -25.6060   15.9780   15.5710 N.ar  308  U308       -0.2534
   6590  C2       -24.8950   17.0270   15.0140 C.ar  308  U308        0.3546
   6591  O2       -25.4200   18.0600   14.6350 O.2   308  U308       -0.2443
   6592  N3       -23.5410   16.8190   14.9260 N.ar  308  U308       -0.1530
   6593  C4       -22.8390   15.6970   15.3170 C.ar  308  U308        0.2846
   6594  O4       -21.6170   15.6620   15.1680 O.2   308  U308       -0.2650
   6595  C5       -23.6460   14.6550   15.8750 C.ar  308  U308        0.0814
   6596  C6       -24.9700   14.8250   15.9750 C.ar  308  U308        0.0870
   6597  OP1      -28.0770   10.6350   17.1610 O.3   308  U308       -0.4373
   6598  OP2      -25.7950   11.8080   17.1030 O.co2 308  U308       -0.5172
   6599  P        -30.8150   16.8310   13.6900 P.3   309  U309        0.2141
   6600  C5'      -31.6110   19.3620   13.6140 C.3   309  U309        0.1812
   6601  O5'      -30.5470   18.4000   13.7680 O.3   309  U309       -0.3114
   6602  C4'      -32.0070   19.9450   14.9520 C.3   309  U309        0.1773
   6603  O4'      -33.1320   19.1960   15.4840 O.3   309  U309       -0.3307
   6604  C3'      -30.9550   19.9000   16.0550 C.3   309  U309        0.1860
   6605  O3'      -30.0490   21.0020   15.9870 O.3   309  U309       -0.3112
   6606  C2'      -31.8090   19.9390   17.3210 C.3   309  U309        0.2309
   6607  O2'      -32.1800   21.2370   17.7420 O.3   309  U309       -0.2156
   6608  C1'      -33.0420   19.1320   16.8990 C.3   309  U309        0.2420
   6609  N1       -32.9910   17.7170   17.3010 N.ar  309  U309       -0.2534
   6610  C2       -33.2960   17.3990   18.6140 C.ar  309  U309        0.3546
   6611  O2       -33.6050   18.2360   19.4460 O.2   309  U309       -0.2443
   6612  N3       -33.2200   16.0610   18.9130 N.ar  309  U309       -0.1530
   6613  C4       -32.8780   15.0310   18.0620 C.ar  309  U309        0.2846
   6614  O4       -32.8510   13.8750   18.4870 O.2   309  U309       -0.2650
   6615  C5       -32.5800   15.4400   16.7250 C.ar  309  U309        0.0814
   6616  C6       -32.6480   16.7360   16.3970 C.ar  309  U309        0.0870
   6617  OP1      -32.2760   16.6000   13.8300 O.3   309  U309       -0.4373
   6618  OP2      -30.1180   16.3150   12.4840 O.co2 309  U309       -0.5172
   6619  P        -28.5500   20.9260   16.5810 P.3   310  C310        0.2141
   6620  C5'      -26.5710   22.6760   16.5500 C.3   310  C310        0.1812
   6621  O5'      -27.9570   22.3760   16.2890 O.3   310  C310       -0.3114
   6622  C4'      -25.9400   23.3380   15.3470 C.3   310  C310        0.1773
   6623  O4'      -25.6980   22.3410   14.3150 O.3   310  C310       -0.3307
   6624  C3'      -26.7770   24.4080   14.6590 C.3   310  C310        0.1860
   6625  O3'      -26.6940   25.6740   15.3100 O.3   310  C310       -0.3112
   6626  C2'      -26.2030   24.3990   13.2460 C.3   310  C310        0.2309
   6627  O2'      -25.0080   25.1420   13.1040 O.3   310  C310       -0.2156
   6628  C1'      -25.9450   22.9040   13.0350 C.3   310  C310        0.2420
   6629  N1       -27.0700   22.1770   12.4120 N.ar  310  C310       -0.2535
   6630  C2       -26.9190   20.8160   12.1170 C.ar  310  C310        0.3532
   6631  O2       -25.8450   20.2570   12.3930 O.2   310  C310       -0.2443
   6632  N3       -27.9460   20.1460   11.5430 N.ar  310  C310       -0.1739
   6633  C4       -29.0870   20.7850   11.2640 C.ar  310  C310        0.1759
   6634  N4       -30.0730   20.0850   10.6980 N.pl3 310  C310       -0.1070
   6635  C5       -29.2660   22.1690   11.5520 C.ar  310  C310        0.0566
   6636  C6       -28.2410   22.8210   12.1180 C.ar  310  C310        0.0850
   6637  OP1      -27.7680   19.9460   15.7800 O.2   310  C310       -0.5172
   6638  OP2      -28.6240   20.7750   18.0580 O.co2 310  C310       -0.4373
   6639  P        -27.9280   26.1910   16.2020 P.3   311  G311        0.2141
   6640  C5'      -27.3160   28.4470   17.4560 C.3   311  G311        0.1811
   6641  O5'      -27.7210   27.7720   16.2480 O.3   311  G311       -0.3114
   6642  C4'      -25.8110   28.5740   17.5030 C.3   311  G311        0.1752
   6643  O4'      -25.4430   29.9760   17.3970 O.3   311  G311       -0.3483
   6644  C3'      -25.1480   28.0780   18.7820 C.3   311  G311        0.1839
   6645  O3'      -24.8280   26.6910   18.6890 O.3   311  G311       -0.3113
   6646  C2'      -23.8840   28.9280   18.8500 C.3   311  G311        0.2112
   6647  O2'      -22.8130   28.4090   18.0890 O.3   311  G311       -0.2177
   6648  C1'      -24.3790   30.2620   18.2870 C.3   311  G311        0.1776
   6649  OP1      -27.7730   25.6390   17.5730 O.3   311  G311       -0.4373
   6650  OP2      -29.1820   25.9250   15.4510 O.co2 311  G311       -0.5172
   6651  P        -24.9390   25.7020   19.9490 P.3   312  C312        0.2141
   6652  C5'      -26.8410   25.9060   21.7960 C.3   312  C312        0.1811
   6653  O5'      -26.4620   25.8520   20.4030 O.3   312  C312       -0.3114
   6654  C4'      -27.3840   24.5710   22.2580 C.3   312  C312        0.1752
   6655  O4'      -27.9210   23.8430   21.1180 O.3   312  C312       -0.3483
   6656  C3'      -26.3680   23.6410   22.9160 C.3   312  C312        0.1839
   6657  O3'      -26.3750   23.7880   24.3350 O.3   312  C312       -0.3113
   6658  C2'      -26.8400   22.2550   22.4830 C.3   312  C312        0.2112
   6659  O2'      -27.8470   21.6970   23.3030 O.3   312  C312       -0.2177
   6660  C1'      -27.3730   22.5390   21.0800 C.3   312  C312        0.1776
   6661  OP1      -24.0340   26.2290   21.0040 O.3   312  C312       -0.4373
   6662  OP2      -24.7500   24.3130   19.4490 O.co2 312  C312       -0.5172
   6663  P        -25.1190   24.4590   25.0780 P.3   313  A313        0.2141
   6664  C5'      -25.0920   22.9910   27.2800 C.3   313  A313        0.1812
   6665  O5'      -25.4110   24.2370   26.6290 O.3   313  A313       -0.3114
   6666  C4'      -26.3250   22.1260   27.3630 C.3   313  A313        0.1773
   6667  O4'      -26.6520   21.6110   26.0410 O.3   313  A313       -0.3307
   6668  C3'      -26.2110   20.8650   28.2130 C.3   313  A313        0.1860
   6669  O3'      -26.3150   21.0800   29.6170 O.3   313  A313       -0.3112
   6670  C2'      -27.3570   20.0340   27.6550 C.3   313  A313        0.2309
   6671  O2'      -28.6390   20.4310   28.0920 O.3   313  A313       -0.2156
   6672  C1'      -27.2100   20.3110   26.1610 C.3   313  A313        0.2408
   6673  N1       -22.9010   19.4110   23.4060 N.ar  313  A313       -0.2040
   6674  C2       -23.4870   20.5540   23.7820 C.ar  313  A313        0.2016
   6675  N3       -24.6010   20.7390   24.4900 N.ar  313  A313       -0.2048
   6676  C4       -25.1460   19.5580   24.8350 C.ar  313  A313        0.1692
   6677  C5       -24.6580   18.3010   24.5240 C.ar  313  A313        0.1518
   6678  C6       -23.4730   18.2420   23.7690 C.ar  313  A313        0.1919
   6679  N6       -22.8900   17.1010   23.3970 N.pl3 313  A313       -0.1054
   6680  N7       -25.4800   17.3120   25.0460 N.ar  313  A313       -0.2193
   6681  C8       -26.4310   17.9800   25.6500 C.ar  313  A313        0.1816
   6682  N9       -26.3010   19.3430   25.5510 N.ar  313  A313       -0.2693
   6683  OP1      -25.1550   25.9210   24.8170 O.3   313  A313       -0.4373
   6684  OP2      -23.9050   23.6850   24.7150 O.co2 313  A313       -0.5172
   6685  P        -25.6270   20.0160   30.6070 P.3   314  G314        0.2141
   6686  C5'      -26.5400   17.6020   31.1400 C.3   314  G314        0.1812
   6687  O5'      -26.2240   18.6080   30.1610 O.3   314  G314       -0.3114
   6688  C4'      -25.5700   16.4510   31.0380 C.3   314  G314        0.1773
   6689  O4'      -25.1650   16.2770   29.6560 O.3   314  G314       -0.3307
   6690  C3'      -24.2400   16.6190   31.7560 C.3   314  G314        0.1860
   6691  O3'      -24.2740   16.4610   33.1750 O.3   314  G314       -0.3112
   6692  C2'      -23.3910   15.5550   31.0690 C.3   314  G314        0.2309
   6693  O2'      -23.5440   14.2660   31.6350 O.3   314  G314       -0.2156
   6694  C1'      -23.8780   15.6740   29.6200 C.3   314  G314        0.2408
   6695  N1       -19.4330   15.8700   27.2030 N.ar  314  G314       -0.1709
   6696  C2       -19.9940   14.8430   27.9210 C.ar  314  G314        0.2606
   6697  N2       -19.2750   13.7170   28.0080 N.pl3 314  G314       -0.0859
   6698  N3       -21.1720   14.9160   28.5130 N.ar  314  G314       -0.1918
   6699  C4       -21.7600   16.1160   28.3210 C.ar  314  G314        0.1723
   6700  C5       -21.2860   17.2060   27.6220 C.ar  314  G314        0.1748
   6701  C6       -20.0170   17.1160   26.9960 C.ar  314  G314        0.3023
   6702  O6       -19.4240   17.9720   26.3320 O.2   314  G314       -0.2633
   6703  N7       -22.1960   18.2520   27.6640 N.ar  314  G314       -0.2173
   6704  C8       -23.1870   17.7900   28.3770 C.ar  314  G314        0.1817
   6705  N9       -22.9910   16.4950   28.7970 N.ar  314  G314       -0.2693
   6706  OP1      -26.0680   20.3040   31.9990 O.3   314  G314       -0.4373
   6707  OP2      -24.1770   19.9590   30.2910 O.co2 314  G314       -0.5172
   6708  P        -22.9390   16.7050   34.0520 P.3   315  G315        0.2141
   6709  C5'      -21.2700   14.8720   34.9510 C.3   315  G315        0.1812
   6710  O5'      -22.3780   15.2120   34.0990 O.3   315  G315       -0.3114
   6711  C4'      -20.2470   14.0210   34.2260 C.3   315  G315        0.1773
   6712  O4'      -20.3630   14.1700   32.7830 O.3   315  G315       -0.3307
   6713  C3'      -18.7940   14.3600   34.5120 C.3   315  G315        0.1860
   6714  O3'      -18.3640   13.7650   35.7300 O.3   315  G315       -0.3112
   6715  C2'      -18.0830   13.7450   33.3120 C.3   315  G315        0.2309
   6716  O2'      -17.8440   12.3610   33.4810 O.3   315  G315       -0.2156
   6717  C1'      -19.0800   14.0330   32.1830 C.3   315  G315        0.2408
   6718  N1       -15.8570   16.4580   29.0700 N.ar  315  G315       -0.1709
   6719  C2       -15.7630   15.1950   29.6020 C.ar  315  G315        0.2606
   6720  N2       -14.6800   14.4900   29.2580 N.pl3 315  G315       -0.0859
   6721  N3       -16.6680   14.6640   30.4100 N.ar  315  G315       -0.1918
   6722  C4       -17.6950   15.5110   30.6440 C.ar  315  G315        0.1723
   6723  C5       -17.8820   16.7900   30.1610 C.ar  315  G315        0.1748
   6724  C6       -16.9020   17.3480   29.2990 C.ar  315  G315        0.3023
   6725  O6       -16.8870   18.4670   28.7730 O.2   315  G315       -0.2633
   6726  N7       -19.0680   17.3290   30.6390 N.ar  315  G315       -0.2173
   6727  C8       -19.5730   16.3860   31.3870 C.ar  315  G315        0.1817
   6728  N9       -18.7930   15.2560   31.4340 N.ar  315  G315       -0.2693
   6729  OP1      -23.2740   17.1550   35.4280 O.3   315  G315       -0.4373
   6730  OP2      -22.0340   17.5470   33.2400 O.co2 315  G315       -0.5172
   6731  P        -17.3520   14.5280   36.7130 P.3   316  G316        0.2141
   6732  C5'      -15.1660   15.8630   36.0100 C.3   316  G316        0.1812
   6733  O5'      -16.5560   15.5370   35.7690 O.3   316  G316       -0.3114
   6734  C4'      -14.2490   15.1410   35.0420 C.3   316  G316        0.1773
   6735  O4'      -14.8320   15.1310   33.7080 O.3   316  G316       -0.3307
   6736  C3'      -12.8640   15.7540   34.8770 C.3   316  G316        0.1860
   6737  O3'      -11.9210   15.1490   35.7500 O.3   316  G316       -0.3112
   6738  C2'      -12.4940   15.3690   33.4530 C.3   316  G316        0.2309
   6739  O2'      -11.9250   14.0800   33.3900 O.3   316  G316       -0.2156
   6740  C1'      -13.8480   15.4700   32.7500 C.3   316  G316        0.2408
   6741  N1       -12.3390   19.3430   29.8080 N.ar  316  G316       -0.1709
   6742  C2       -11.6930   18.1660   30.0900 C.ar  316  G316        0.2606
   6743  N2       -10.5000   17.9940   29.5060 N.pl3 316  G316       -0.0859
   6744  N3       -12.1870   17.2200   30.8730 N.ar  316  G316       -0.1918
   6745  C4       -13.3950   17.5600   31.3760 C.ar  316  G316        0.1723
   6746  C5       -14.1170   18.7160   31.1690 C.ar  316  G316        0.1748
   6747  C6       -13.5790   19.7160   30.3150 C.ar  316  G316        0.3023
   6748  O6       -14.0620   20.8090   30.0100 O.2   316  G316       -0.2633
   6749  N7       -15.3120   18.6830   31.8730 N.ar  316  G316       -0.2173
   6750  C8       -15.2980   17.5290   32.4820 C.ar  316  G316        0.1817
   6751  N9       -14.1620   16.7990   32.2300 N.ar  316  G316       -0.2693
   6752  OP1      -16.3890   13.5090   37.2230 O.2   316  G316       -0.5172
   6753  OP2      -18.1810   15.3120   37.6680 O.co2 316  G316       -0.4373
   6754  P        -11.0450   16.0920   36.6890 P.3   317  G317        0.2141
   6755  C5'       -9.1720   16.8940   34.9970 C.3   317  G317        0.1812
   6756  O5'      -10.4370   17.1510   35.6620 O.3   317  G317       -0.3114
   6757  C4'       -8.8540   17.9570   33.9620 C.3   317  G317        0.1773
   6758  O4'       -9.9840   18.1230   33.0530 O.3   317  G317       -0.3307
   6759  C3'       -8.5880   19.3570   34.4950 C.3   317  G317        0.1860
   6760  O3'       -7.2580   19.5300   34.9820 O.3   317  G317       -0.3112
   6761  C2'       -8.9110   20.2110   33.2790 C.3   317  G317        0.2309
   6762  O2'       -7.9110   20.0880   32.3090 O.3   317  G317       -0.2156
   6763  C1'      -10.1380   19.4920   32.7230 C.3   317  G317        0.2408
   6764  N1       -13.7380   23.0550   32.4830 N.ar  317  G317       -0.1709
   6765  C2       -12.6440   22.8580   31.6760 C.ar  317  G317        0.2606
   6766  N2       -12.4870   23.7250   30.6690 N.pl3 317  G317       -0.0859
   6767  N3       -11.7690   21.8820   31.8420 N.ar  317  G317       -0.1918
   6768  C4       -12.0850   21.0920   32.8910 C.ar  317  G317        0.1723
   6769  C5       -13.1520   21.1990   33.7590 C.ar  317  G317        0.1748
   6770  C6       -14.0800   22.2630   33.5760 C.ar  317  G317        0.3023
   6771  O6       -15.0860   22.5390   34.2490 O.2   317  G317       -0.2633
   6772  N7       -13.1120   20.1920   34.7140 N.ar  317  G317       -0.2173
   6773  C8       -12.0440   19.5040   34.4140 C.ar  317  G317        0.1817
   6774  N9       -11.3820   19.9880   33.3100 N.ar  317  G317       -0.2693
   6775  OP1       -9.9040   15.3000   37.2260 O.2   317  G317       -0.5172
   6776  OP2      -12.0110   16.7270   37.6180 O.co2 317  G317       -0.4373
   6777  P         -6.9080   20.6590   36.0990 P.3   318  A318        0.2141
   6778  C5'       -5.8280   22.1550   34.1900 C.3   318  A318        0.1812
   6779  O5'       -5.6700   21.3650   35.3870 O.3   318  A318       -0.3114
   6780  C4'       -4.5930   22.0120   33.3390 C.3   318  A318        0.1773
   6781  O4'       -4.9560   22.1030   31.9400 O.3   318  A318       -0.3307
   6782  C3'       -3.5140   23.0630   33.5530 C.3   318  A318        0.1860
   6783  O3'       -2.6030   22.5480   34.5030 O.3   318  A318       -0.3112
   6784  C2'       -2.8340   23.1130   32.1970 C.3   318  A318        0.2309
   6785  O2'       -2.0530   21.9630   32.0040 O.3   318  A318       -0.2156
   6786  C1'       -4.0050   22.8840   31.2510 C.3   318  A318        0.2408
   6787  N1        -3.9040   26.8790   28.0200 N.ar  318  A318       -0.2040
   6788  C2        -3.0680   25.8540   28.2000 C.ar  318  A318        0.2016
   6789  N3        -3.1400   24.8520   29.0720 N.ar  318  A318       -0.2048
   6790  C4        -4.2460   24.9590   29.8250 C.ar  318  A318        0.1692
   6791  C5        -5.1990   25.9570   29.7590 C.ar  318  A318        0.1518
   6792  C6        -4.9970   26.9680   28.8080 C.ar  318  A318        0.1919
   6793  N6        -5.8250   28.0010   28.6400 N.pl3 318  A318       -0.1054
   6794  N7        -6.1940   25.7480   30.7010 N.ar  318  A318       -0.2193
   6795  C8        -5.8330   24.6390   31.2980 C.ar  318  A318        0.1816
   6796  N9        -4.6650   24.1070   30.8160 N.ar  318  A318       -0.2693
   6797  OP1       -6.3250   20.0390   37.3100 O.3   318  A318       -0.4373
   6798  OP2       -7.9880   21.6680   36.2900 O.co2 318  A318       -0.5172
   6799  P         -2.0290   23.5020   35.6650 P.3   319  A319        0.2141
   6800  C5'        0.0530   23.3870   34.0160 C.3   319  A319        0.1812
   6801  O5'       -0.7610   24.1380   34.9360 O.3   319  A319       -0.3114
   6802  C4'        0.9370   24.3020   33.1940 C.3   319  A319        0.1773
   6803  O4'        0.2010   24.8540   32.0730 O.3   319  A319       -0.3307
   6804  C3'        1.5330   25.4850   33.9400 C.3   319  A319        0.1860
   6805  O3'        2.7910   24.9780   34.3480 O.3   319  A319       -0.3112
   6806  C2'        1.6690   26.5490   32.8560 C.3   319  A319        0.2309
   6807  O2'        2.8060   26.2890   32.0550 O.3   319  A319       -0.2156
   6808  C1'        0.5030   26.2260   31.9240 C.3   319  A319        0.2408
   6809  N1        -2.9170   29.3870   29.7000 N.ar  319  A319       -0.2040
   6810  C2        -1.7130   28.9490   29.3050 C.ar  319  A319        0.2016
   6811  N3        -0.8590   28.1460   29.9360 N.ar  319  A319       -0.2048
   6812  C4        -1.3560   27.7680   31.1270 C.ar  319  A319        0.1692
   6813  C5        -2.5780   28.1310   31.6670 C.ar  319  A319        0.1518
   6814  C6        -3.3890   28.9810   30.8990 C.ar  319  A319        0.1919
   6815  N6        -4.5780   29.4280   31.3030 N.pl3 319  A319       -0.1054
   6816  N7        -2.7460   27.5680   32.9230 N.ar  319  A319       -0.2193
   6817  C8        -1.6590   26.8550   33.0960 C.ar  319  A319        0.1816
   6818  N9        -0.7520   26.9700   32.0720 N.ar  319  A319       -0.2693
   6819  OP1       -1.5520   22.6730   36.8040 O.3   319  A319       -0.4373
   6820  OP2       -2.9780   24.6210   35.9570 O.co2 319  A319       -0.5172
   6821  P          3.3620   25.3480   35.7910 P.3   320  G320        0.2141
   6822  C5'        5.2220   26.8670   34.7090 C.3   320  G320        0.1812
   6823  O5'        3.9800   26.7690   35.4270 O.3   320  G320       -0.3114
   6824  C4'        5.8300   28.2090   34.9930 C.3   320  G320        0.1773
   6825  O4'        4.9890   29.2340   34.3910 O.3   320  G320       -0.3307
   6826  C3'        5.9190   28.5530   36.4780 C.3   320  G320        0.1860
   6827  O3'        7.2730   28.3430   36.8540 O.3   320  G320       -0.3112
   6828  C2'        5.5610   30.0350   36.5040 C.3   320  G320        0.2309
   6829  O2'        6.6050   30.8090   35.9720 O.3   320  G320       -0.2156
   6830  C1'        4.5330   30.1210   35.3900 C.3   320  G320        0.2408
   6831  N1        -0.3840   30.0600   34.1250 N.ar  320  G320       -0.1709
   6832  C2         0.6950   30.4960   33.4010 C.ar  320  G320        0.2606
   6833  N2         0.4290   30.9900   32.1840 N.pl3 320  G320       -0.0859
   6834  N3         1.9430   30.4580   33.8370 N.ar  320  G320       -0.1918
   6835  C4         2.0310   29.9210   35.0730 C.ar  320  G320        0.1723
   6836  C5         1.0200   29.4450   35.8760 C.ar  320  G320        0.1748
   6837  C6        -0.3190   29.5010   35.3980 C.ar  320  G320        0.3023
   6838  O6        -1.3540   29.1050   35.9520 O.2   320  G320       -0.2633
   6839  N7         1.5290   28.9530   37.0690 N.ar  320  G320       -0.2173
   6840  C8         2.8140   29.1630   36.9830 C.ar  320  G320        0.1817
   6841  N9         3.1870   29.7340   35.7930 N.ar  320  G320       -0.2693
   6842  OP1        4.5930   24.5990   36.1520 O.2   320  G320       -0.5172
   6843  OP2        2.2740   25.5590   36.8080 O.co2 320  G320       -0.4373
   6844  P          7.7570   28.2150   38.3640 P.3   321  G321        0.2141
   6845  C5'        7.6700   30.7240   38.9930 C.3   321  G321        0.1812
   6846  O5'        7.0720   29.4250   39.1260 O.3   321  G321       -0.3114
   6847  C4'        6.9470   31.7410   39.8380 C.3   321  G321        0.1773
   6848  O4'        5.5780   31.9120   39.3840 O.3   321  G321       -0.3307
   6849  C3'        6.7880   31.4120   41.3060 C.3   321  G321        0.1860
   6850  O3'        8.0370   31.5580   41.9790 O.3   321  G321       -0.3112
   6851  C2'        5.7000   32.4060   41.6850 C.3   321  G321        0.2309
   6852  O2'        6.1740   33.7300   41.6960 O.3   321  G321       -0.2156
   6853  C1'        4.7760   32.3090   40.4730 C.3   321  G321        0.2408
   6854  N1         0.0520   31.4530   42.0830 N.ar  321  G321       -0.1709
   6855  C2         0.7620   32.6270   42.0480 C.ar  321  G321        0.2606
   6856  N2         0.1300   33.7140   42.5040 N.pl3 321  G321       -0.0859
   6857  N3         1.9970   32.7280   41.5870 N.ar  321  G321       -0.1918
   6858  C4         2.4780   31.5400   41.1690 C.ar  321  G321        0.1723
   6859  C5         1.8520   30.3120   41.1630 C.ar  321  G321        0.1748
   6860  C6         0.5240   30.2200   41.6490 C.ar  321  G321        0.3023
   6861  O6        -0.2030   29.2240   41.7170 O.2   321  G321       -0.2633
   6862  N7         2.6880   29.3360   40.6410 N.ar  321  G321       -0.2173
   6863  C8         3.7910   29.9740   40.3580 C.ar  321  G321        0.1817
   6864  N9         3.7290   31.3140   40.6510 N.ar  321  G321       -0.2693
   6865  OP1        9.2350   28.4620   38.4010 O.2   321  G321       -0.5172
   6866  OP2        7.2000   26.9480   38.8870 O.co2 321  G321       -0.4373
   6867  P          8.1880   31.2260   43.5530 P.3   322  A322        0.2141
   6868  C5'        7.1810   33.0020   45.1950 C.3   322  A322        0.1812
   6869  O5'        6.9690   31.9020   44.3160 O.3   322  A322       -0.3114
   6870  C4'        5.8470   33.5870   45.5760 C.3   322  A322        0.1773
   6871  O4'        4.8520   33.2350   44.5810 O.3   322  A322       -0.3307
   6872  C3'        5.2250   33.0370   46.8480 C.3   322  A322        0.1860
   6873  O3'        5.8590   33.5540   48.0080 O.3   322  A322       -0.3112
   6874  C2'        3.7770   33.4720   46.6730 C.3   322  A322        0.2309
   6875  O2'        3.4880   34.8310   46.9470 O.3   322  A322       -0.2156
   6876  C1'        3.5710   33.1990   45.1870 C.3   322  A322        0.2408
   6877  N1        -0.5970   30.3010   45.8500 N.ar  322  A322       -0.2040
   6878  C2        -0.3270   31.5790   46.1490 C.ar  322  A322        0.2016
   6879  N3         0.7890   32.2760   45.9370 N.ar  322  A322       -0.2048
   6880  C4         1.7190   31.5130   45.3350 C.ar  322  A322        0.1692
   6881  C5         1.5890   30.1870   44.9630 C.ar  322  A322        0.1518
   6882  C6         0.3560   29.5660   45.2320 C.ar  322  A322        0.1919
   6883  N6         0.0840   28.2960   44.9300 N.pl3 322  A322       -0.1054
   6884  N7         2.7600   29.7260   44.3770 N.ar  322  A322       -0.2193
   6885  C8         3.5570   30.7660   44.4080 C.ar  322  A322        0.1816
   6886  N9         2.9890   31.8830   44.9690 N.ar  322  A322       -0.2693
   6887  OP1        9.4380   31.8510   44.0800 O.3   322  A322       -0.4373
   6888  OP2        7.9490   29.7790   43.7260 O.co2 322  A322       -0.5172
   6889  P          6.1760   32.5590   49.2250 P.3   323  C323        0.2141
   6890  C5'        4.1920   33.5560   50.6010 C.3   323  C323        0.1812
   6891  O5'        4.7710   32.4210   49.9550 O.3   323  C323       -0.3114
   6892  C4'        2.7260   33.3140   50.8280 C.3   323  C323        0.1773
   6893  O4'        2.1170   32.7830   49.6290 O.3   323  C323       -0.3307
   6894  C3'        2.3800   32.2500   51.8440 C.3   323  C323        0.1860
   6895  O3'        2.5980   32.7840   53.1360 O.3   323  C323       -0.3112
   6896  C2'        0.9170   31.9990   51.5070 C.3   323  C323        0.2309
   6897  O2'        0.0270   33.0000   51.9590 O.3   323  C323       -0.2156
   6898  C1'        0.9520   32.0600   49.9790 C.3   323  C323        0.2420
   6899  N1         1.0510   30.7270   49.3860 N.ar  323  C323       -0.2535
   6900  C2        -0.0420   29.8610   49.4990 C.ar  323  C323        0.3532
   6901  O2        -1.0680   30.2620   50.0700 O.2   323  C323       -0.2443
   6902  N3         0.0450   28.6150   48.9770 N.ar  323  C323       -0.1739
   6903  C4         1.1740   28.2190   48.3840 C.ar  323  C323        0.1759
   6904  N4         1.2170   26.9810   47.8870 N.pl3 323  C323       -0.1070
   6905  C5         2.3080   29.0760   48.2700 C.ar  323  C323        0.0566
   6906  C6         2.2040   30.3090   48.7810 C.ar  323  C323        0.0850
   6907  OP1        7.1040   33.3320   50.0980 O.3   323  C323       -0.4373
   6908  OP2        6.5390   31.1980   48.7380 O.co2 323  C323       -0.5172
   6909  P          3.4650   31.9820   54.1970 P.3   324  G324        0.2141
   6910  C5'        1.0710   31.0730   54.8460 C.3   324  G324        0.1812
   6911  O5'        2.4520   30.8050   54.5330 O.3   324  G324       -0.3114
   6912  C4'        0.2970   29.7890   54.7280 C.3   324  G324        0.1773
   6913  O4'        0.2370   29.4050   53.3290 O.3   324  G324       -0.3307
   6914  C3'        0.9580   28.6160   55.4280 C.3   324  G324        0.1860
   6915  O3'        0.4830   28.6050   56.7590 O.3   324  G324       -0.3112
   6916  C2'        0.4900   27.4170   54.6100 C.3   324  G324        0.2309
   6917  O2'       -0.7950   26.9820   54.9860 O.3   324  G324       -0.2156
   6918  C1'        0.4150   28.0030   53.2030 C.3   324  G324        0.2408
   6919  N1         2.6300   24.8830   49.8770 N.ar  324  G324       -0.1709
   6920  C2         1.4520   24.7290   50.5690 C.ar  324  G324        0.2606
   6921  N2         0.7740   23.5950   50.3450 N.pl3 324  G324       -0.0859
   6922  N3         0.9730   25.6210   51.4170 N.ar  324  G324       -0.1918
   6923  C4         1.7900   26.6860   51.5420 C.ar  324  G324        0.1723
   6924  C5         2.9850   26.9350   50.8980 C.ar  324  G324        0.1748
   6925  C6         3.4790   25.9800   49.9800 C.ar  324  G324        0.3023
   6926  O6         4.5220   26.0170   49.3240 O.2   324  G324       -0.2633
   6927  N7         3.5180   28.1510   51.3000 N.ar  324  G324       -0.2173
   6928  C8         2.6490   28.6150   52.1590 C.ar  324  G324        0.1817
   6929  N9         1.5840   27.7680   52.3600 N.ar  324  G324       -0.2693
   6930  OP1        3.5750   32.8630   55.3990 O.3   324  G324       -0.4373
   6931  OP2        4.6830   31.4260   53.5600 O.co2 324  G324       -0.5172
   6932  P          1.3820   28.0350   57.9500 P.3   325  G325        0.2141
   6933  C5'        0.3300   25.6370   57.6520 C.3   325  G325        0.1812
   6934  O5'        1.4610   26.5060   57.5260 O.3   325  G325       -0.3114
   6935  C4'        0.7840   24.2480   57.3150 C.3   325  G325        0.1773
   6936  O4'        1.4180   24.2790   56.0040 O.3   325  G325       -0.3307
   6937  C3'        1.8140   23.6820   58.2890 C.3   325  G325        0.1860
   6938  O3'        1.4880   22.3320   58.5880 O.3   325  G325       -0.3112
   6939  C2'        3.1480   23.9310   57.5780 C.3   325  G325        0.2309
   6940  O2'        4.2290   23.0580   57.8420 O.3   325  G325       -0.2156
   6941  C1'        2.7530   23.8280   56.1050 C.3   325  G325        0.2408
   6942  N1         5.1870   24.2880   51.6620 N.ar  325  G325       -0.1709
   6943  C2         4.3950   23.2620   52.1170 C.ar  325  G325        0.2606
   6944  N2         4.2420   22.2250   51.2880 N.pl3 325  G325       -0.0859
   6945  N3         3.8070   23.2510   53.3010 N.ar  325  G325       -0.1918
   6946  C4         4.0670   24.3740   54.0040 C.ar  325  G325        0.1723
   6947  C5         4.8340   25.4600   53.6370 C.ar  325  G325        0.1748
   6948  C6         5.4650   25.4550   52.3660 C.ar  325  G325        0.3023
   6949  O6         6.1800   26.3280   51.8560 O.2   325  G325       -0.2633
   6950  N7         4.8530   26.4120   54.6450 N.ar  325  G325       -0.2173
   6951  C8         4.1100   25.9000   55.5880 C.ar  325  G325        0.1817
   6952  N9         3.5930   24.6700   55.2600 N.ar  325  G325       -0.2693
   6953  OP1        0.5830   28.2490   59.1900 O.3   325  G325       -0.4373
   6954  OP2        2.7970   28.5040   57.8650 O.co2 325  G325       -0.5172
   6955  P          1.9790   21.5960   59.9220 P.3   326  A326        0.2141
   6956  C5'        0.0650   19.7980   59.7120 C.3   326  A326        0.1812
   6957  O5'        1.4720   20.1140   59.6150 O.3   326  A326       -0.3114
   6958  C4'       -0.2900   18.5950   58.8690 C.3   326  A326        0.1773
   6959  O4'       -0.1520   18.9190   57.4600 O.3   326  A326       -0.3307
   6960  C3'        0.6010   17.3750   59.0710 C.3   326  A326        0.1860
   6961  O3'        0.2060   16.6410   60.2210 O.3   326  A326       -0.3112
   6962  C2'        0.4460   16.6270   57.7510 C.3   326  A326        0.2309
   6963  O2'       -0.6930   15.7950   57.6730 O.3   326  A326       -0.2156
   6964  C1'        0.3360   17.7850   56.7560 C.3   326  A326        0.2408
   6965  N1         3.9790   16.3120   53.4490 N.ar  326  A326       -0.2040
   6966  C2         2.8500   15.7270   53.8680 C.ar  326  A326        0.2016
   6967  N3         1.9420   16.1690   54.7360 N.ar  326  A326       -0.2048
   6968  C4         2.2920   17.3760   55.2120 C.ar  326  A326        0.1692
   6969  C5         3.4170   18.1090   54.8740 C.ar  326  A326        0.1518
   6970  C6         4.2970   17.5310   53.9380 C.ar  326  A326        0.1919
   6971  N6         5.4220   18.1140   53.5130 N.pl3 326  A326       -0.1054
   6972  N7         3.4410   19.3160   55.5600 N.ar  326  A326       -0.2193
   6973  C8         2.3480   19.2870   56.2850 C.ar  326  A326        0.1816
   6974  N9         1.6060   18.1420   56.1240 N.ar  326  A326       -0.2693
   6975  OP1        1.2230   22.0800   61.1080 O.3   326  A326       -0.4373
   6976  OP2        3.4630   21.6730   59.9190 O.co2 326  A326       -0.5172
   6977  P          1.4010   16.1780   61.1740 P.3   327  A327        0.2141
   6978  C5'        3.4580   14.8400   60.2350 C.3   327  A327        0.1812
   6979  O5'        2.0450   14.9490   60.4020 O.3   327  A327       -0.3114
   6980  C4'        3.7180   14.0720   58.9740 C.3   327  A327        0.1773
   6981  O4'        3.3730   14.9050   57.8310 O.3   327  A327       -0.3307
   6982  C3'        5.1660   13.6680   58.7370 C.3   327  A327        0.1860
   6983  O3'        5.4150   12.4080   59.3300 O.3   327  A327       -0.3112
   6984  C2'        5.2140   13.5930   57.2250 C.3   327  A327        0.2309
   6985  O2'        4.4220   12.5230   56.7810 O.3   327  A327       -0.2156
   6986  C1'        4.3970   14.8210   56.8560 C.3   327  A327        0.2408
   6987  N1         8.4590   17.3890   54.9970 N.ar  327  A327       -0.2040
   6988  C2         7.9760   16.1660   54.7390 C.ar  327  A327        0.2016
   6989  N3         6.9190   15.5480   55.2650 N.ar  327  A327       -0.2048
   6990  C4         6.3000   16.3440   56.1560 C.ar  327  A327        0.1692
   6991  C5         6.6750   17.6250   56.5220 C.ar  327  A327        0.1518
   6992  C6         7.8220   18.1550   55.9080 C.ar  327  A327        0.1919
   6993  N6         8.2990   19.3750   56.1630 N.pl3 327  A327       -0.1054
   6994  N7         5.7980   18.1420   57.4650 N.ar  327  A327       -0.2193
   6995  C8         4.9320   17.1760   57.6540 C.ar  327  A327        0.1816
   6996  N9         5.1730   16.0600   56.8900 N.ar  327  A327       -0.2693
   6997  OP1        0.8460   15.6210   62.4260 O.3   327  A327       -0.4373
   6998  OP2        2.4240   17.2560   61.2110 O.co2 327  A327       -0.5172
   6999  P          6.4630   12.3690   60.5210 P.3   328  C328        0.2141
   7000  C5'        8.0780   11.2630   58.7810 C.3   328  C328        0.1812
   7001  O5'        7.8310   12.3110   59.7100 O.3   328  C328       -0.3114
   7002  C4'        9.0110   11.7590   57.7060 C.3   328  C328        0.1773
   7003  O4'        8.5430   13.0410   57.2120 O.3   328  C328       -0.3307
   7004  C3'       10.4230   12.0770   58.1590 C.3   328  C328        0.1860
   7005  O3'       11.2620   10.9450   58.2360 O.3   328  C328       -0.3112
   7006  C2'       10.9080   12.9970   57.0550 C.3   328  C328        0.2309
   7007  O2'       11.2140   12.2760   55.8930 O.3   328  C328       -0.2156
   7008  C1'        9.6490   13.8040   56.7630 C.3   328  C328        0.2420
   7009  N1         9.6400   15.1120   57.4340 N.ar  328  C328       -0.2535
   7010  C2        10.5880   16.0570   57.0380 C.ar  328  C328        0.3532
   7011  O2        11.4110   15.7480   56.1660 O.2   328  C328       -0.2443
   7012  N3        10.5870   17.2810   57.6160 N.ar  328  C328       -0.1739
   7013  C4         9.7010   17.5640   58.5710 C.ar  328  C328        0.1759
   7014  N4         9.7450   18.7760   59.1170 N.pl3 328  C328       -0.1070
   7015  C5         8.7290   16.6140   59.0050 C.ar  328  C328        0.0566
   7016  C6         8.7290   15.4140   58.4080 C.ar  328  C328        0.0850
   7017  OP1        6.4190   11.0490   61.1980 O.2   328  C328       -0.5172
   7018  OP2        6.3140   13.6160   61.3220 O.co2 328  C328       -0.4373
   7019  P         11.9720   10.9240   59.6590 P.3   329  A329        0.2141
   7020  C5'       13.9700   11.4060   57.9890 C.3   329  A329        0.1812
   7021  O5'       13.3930   11.5360   59.2980 O.3   329  A329       -0.3114
   7022  C4'       15.1470   12.3350   57.9190 C.3   329  A329        0.1773
   7023  O4'       14.7210   13.6220   57.3890 O.3   329  A329       -0.3307
   7024  C3'       15.7220   12.6770   59.2860 C.3   329  A329        0.1860
   7025  O3'       16.5850   11.6300   59.6970 O.3   329  A329       -0.3112
   7026  C2'       16.3880   14.0150   59.0160 C.3   329  A329        0.2309
   7027  O2'       17.5520   13.8650   58.2350 O.3   329  A329       -0.2156
   7028  C1'       15.3750   14.6660   58.0850 C.3   329  A329        0.2408
   7029  N1        14.2940   19.1980   60.2380 N.ar  329  A329       -0.2040
   7030  C2        15.4020   18.7170   59.6630 C.ar  329  A329        0.2016
   7031  N3        15.6220   17.5190   59.1320 N.ar  329  A329       -0.2048
   7032  C4        14.5210   16.7540   59.2180 C.ar  329  A329        0.1692
   7033  C5        13.3020   17.1160   59.7570 C.ar  329  A329        0.1518
   7034  C6        13.2020   18.4080   60.2970 C.ar  329  A329        0.1919
   7035  N6        12.1000   18.8850   60.8780 N.pl3 329  A329       -0.1054
   7036  N7        12.3940   16.0720   59.6620 N.ar  329  A329       -0.2193
   7037  C8        13.0720   15.1180   59.0710 C.ar  329  A329        0.1816
   7038  N9        14.3680   15.4610   58.7790 N.ar  329  A329       -0.2693
   7039  OP1       12.2240    9.5380   60.1350 O.2   329  A329       -0.5172
   7040  OP2       11.2570   11.8820   60.5420 O.co2 329  A329       -0.4373
   7041  P         17.2880   11.7150   61.1240 P.3   330  A330        0.2141
   7042  C5'       19.4230   13.2450   60.7570 C.3   330  A330        0.1812
   7043  O5'       18.0170   13.1310   61.0450 O.3   330  A330       -0.3114
   7044  C4'       19.9870   14.4810   61.4050 C.3   330  A330        0.1773
   7045  O4'       19.2900   15.6400   60.8900 O.3   330  A330       -0.3307
   7046  C3'       19.7820   14.5820   62.9080 C.3   330  A330        0.1860
   7047  O3'       20.7220   13.7790   63.6040 O.3   330  A330       -0.3112
   7048  C2'       19.9270   16.0810   63.1280 C.3   330  A330        0.2309
   7049  O2'       21.2680   16.5270   63.1370 O.3   330  A330       -0.2156
   7050  C1'       19.2210   16.6360   61.8890 C.3   330  A330        0.2408
   7051  N1        15.8470   20.0030   63.8220 N.ar  330  A330       -0.2040
   7052  C2        17.1830   20.0240   63.7250 C.ar  330  A330        0.2016
   7053  N3        18.0050   19.1150   63.2050 N.ar  330  A330       -0.2048
   7054  C4        17.3110   18.0640   62.7330 C.ar  330  A330        0.1692
   7055  C5        15.9390   17.9000   62.7560 C.ar  330  A330        0.1518
   7056  C6        15.1810   18.9370   63.3260 C.ar  330  A330        0.1919
   7057  N6        13.8500   18.9190   63.4120 N.pl3 330  A330       -0.1054
   7058  N7        15.5800   16.6920   62.1760 N.ar  330  A330       -0.2193
   7059  C8        16.7240   16.1630   61.8170 C.ar  330  A330        0.1816
   7060  N9        17.8130   16.9370   62.1280 N.ar  330  A330       -0.2693
   7061  OP1       18.2970   10.6230   61.0760 O.2   330  A330       -0.5172
   7062  OP2       16.3590   11.8050   62.2900 O.co2 330  A330       -0.4373
   7063  P         20.8080   13.8890   65.1960 P.3   331  G331        0.2141
   7064  C5'       21.8670   15.9420   66.4460 C.3   331  G331        0.1812
   7065  O5'       20.8900   15.4480   65.5190 O.3   331  G331       -0.3114
   7066  C4'       21.5570   17.3520   66.8750 C.3   331  G331        0.1773
   7067  O4'       20.5330   17.9490   66.0440 O.3   331  G331       -0.3307
   7068  C3'       20.9690   17.4620   68.2580 C.3   331  G331        0.1860
   7069  O3'       21.9910   17.2960   69.2210 O.3   331  G331       -0.3112
   7070  C2'       20.3590   18.8560   68.2330 C.3   331  G331        0.2309
   7071  O2'       21.2430   19.8810   68.6500 O.3   331  G331       -0.2156
   7072  C1'       19.8450   18.9420   66.7890 C.3   331  G331        0.2408
   7073  N1        15.1170   20.5370   67.8320 N.ar  331  G331       -0.1709
   7074  C2        16.3120   21.1860   68.0260 C.ar  331  G331        0.2606
   7075  N2        16.2360   22.4160   68.5480 N.pl3 331  G331       -0.0859
   7076  N3        17.4940   20.6690   67.7170 N.ar  331  G331       -0.1918
   7077  C4        17.3800   19.4380   67.1670 C.ar  331  G331        0.1723
   7078  C5        16.2350   18.7080   66.9250 C.ar  331  G331        0.1748
   7079  C6        14.9760   19.2690   67.2730 C.ar  331  G331        0.3023
   7080  O6        13.8500   18.7740   67.1460 O.2   331  G331       -0.2633
   7081  N7        16.5460   17.4760   66.3640 N.ar  331  G331       -0.2173
   7082  C8        17.8480   17.4820   66.2670 C.ar  331  G331        0.1817
   7083  N9        18.4170   18.6490   66.7180 N.ar  331  G331       -0.2693
   7084  OP1       22.0750   13.2080   65.5790 O.2   331  G331       -0.5172
   7085  OP2       19.5420   13.4530   65.8440 O.co2 331  G331       -0.4373
   7086  P         21.5550   16.3010   70.3830 P.3   332  U332        0.2141
   7087  C5'       20.8850   18.4300   71.7010 C.3   332  U332        0.1812
   7088  O5'       20.4580   17.2270   71.0590 O.3   332  U332       -0.3114
   7089  C4'       19.6810   19.1640   72.1980 C.3   332  U332        0.1773
   7090  O4'       18.7270   19.2950   71.1150 O.3   332  U332       -0.3307
   7091  C3'       18.8710   18.4110   73.2270 C.3   332  U332        0.1860
   7092  O3'       19.5590   18.3090   74.4650 O.3   332  U332       -0.3112
   7093  C2'       17.5380   19.1490   73.1650 C.3   332  U332        0.2309
   7094  O2'       17.5100   20.3880   73.8340 O.3   332  U332       -0.2156
   7095  C1'       17.4250   19.4420   71.6670 C.3   332  U332        0.2420
   7096  N1        16.5050   18.5660   70.9240 N.ar  332  U332       -0.2534
   7097  C2        15.1680   18.9200   70.8690 C.ar  332  U332        0.3546
   7098  O2        14.7140   19.8920   71.4490 O.2   332  U332       -0.2443
   7099  N3        14.3760   18.0570   70.1550 N.ar  332  U332       -0.1530
   7100  C4        14.7680   16.9080   69.5060 C.ar  332  U332        0.2846
   7101  O4        13.9350   16.2470   68.8830 O.2   332  U332       -0.2650
   7102  C5        16.1630   16.6110   69.6150 C.ar  332  U332        0.0814
   7103  C6        16.9640   17.4310   70.3020 C.ar  332  U332        0.0870
   7104  OP1       22.6160   16.0790   71.4070 O.3   332  U332       -0.4373
   7105  OP2       20.9750   15.1440   69.6490 O.co2 332  U332       -0.5172
   7106  P         18.8000   17.4940   75.6150 P.3   333  A333        0.2141
   7107  C5'       16.4040   18.4770   76.4180 C.3   333  A333        0.1812
   7108  O5'       17.8290   18.6300   76.2050 O.3   333  A333       -0.3114
   7109  C4'       16.0680   18.6320   77.8940 C.3   333  A333        0.1773
   7110  O4'       14.6870   18.2230   78.1240 O.3   333  A333       -0.3307
   7111  C3'       16.8100   17.6700   78.8100 C.3   333  A333        0.1860
   7112  O3'       16.4630   17.9520   80.1620 O.3   333  A333       -0.3112
   7113  C2'       16.1100   16.3700   78.4410 C.3   333  A333        0.2309
   7114  O2'       16.3410   15.2520   79.2740 O.3   333  A333       -0.2156
   7115  C1'       14.6510   16.8320   78.4460 C.3   333  A333        0.2408
   7116  N1        10.0190   16.4170   76.2130 N.ar  333  A333       -0.2040
   7117  C2        10.4680   17.1990   77.2050 C.ar  333  A333        0.2016
   7118  N3        11.6830   17.2560   77.7480 N.ar  333  A333       -0.2048
   7119  C4        12.5070   16.3700   77.1600 C.ar  333  A333        0.1692
   7120  C5        12.1870   15.4930   76.1410 C.ar  333  A333        0.1518
   7121  C6        10.8690   15.5300   75.6560 C.ar  333  A333        0.1919
   7122  N6        10.4180   14.7420   74.6770 N.pl3 333  A333       -0.1054
   7123  N7        13.2910   14.7320   75.7850 N.ar  333  A333       -0.2193
   7124  C8        14.2340   15.1460   76.5950 C.ar  333  A333        0.1816
   7125  N9        13.8320   16.1430   77.4470 N.ar  333  A333       -0.2693
   7126  OP1       19.7390   17.1030   76.6990 O.3   333  A333       -0.4373
   7127  OP2       18.1830   16.4230   74.7840 O.co2 333  A333       -0.5172
   7128  P         17.0760   19.0940   81.1010 P.3   334  U334        0.2141
   7129  C5'       14.6120   19.1210   82.0020 C.3   334  U334        0.1812
   7130  O5'       15.7800   19.8620   81.6140 O.3   334  U334       -0.3114
   7131  C4'       13.5430   20.0680   82.4700 C.3   334  U334        0.1773
   7132  O4'       13.6250   21.2710   81.6850 O.3   334  U334       -0.3307
   7133  C3'       12.1080   19.6020   82.2840 C.3   334  U334        0.1860
   7134  O3'       11.6980   18.8790   83.4360 O.3   334  U334       -0.3112
   7135  C2'       11.3310   20.9160   82.2460 C.3   334  U334        0.2309
   7136  O2'       10.8660   21.3560   83.5150 O.3   334  U334       -0.2156
   7137  C1'       12.3500   21.8770   81.6220 C.3   334  U334        0.2420
   7138  N1        12.0780   22.2160   80.2170 N.ar  334  U334       -0.2534
   7139  C2        12.3270   21.2540   79.2570 C.ar  334  U334        0.3546
   7140  O2        12.7360   20.1350   79.5270 O.2   334  U334       -0.2443
   7141  N3        12.0620   21.6480   77.9690 N.ar  334  U334       -0.1530
   7142  C4        11.5920   22.8750   77.5480 C.ar  334  U334        0.2846
   7143  O4        11.4020   23.0720   76.3470 O.2   334  U334       -0.2650
   7144  C5        11.3700   23.8190   78.5990 C.ar  334  U334        0.0814
   7145  C6        11.6170   23.4670   79.8660 C.ar  334  U334        0.0870
   7146  OP1       17.8650   20.0370   80.2660 O.2   334  U334       -0.5172
   7147  OP2       17.6980   18.4100   82.2670 O.co2 334  U334       -0.4373
   7148  P         11.5820   17.2920   83.4360 P.3   335  G335        0.2141
   7149  C5'        9.3460   16.8490   82.0620 C.3   335  G335        0.1812
   7150  O5'       10.7880   16.9430   82.0920 O.3   335  G335       -0.3114
   7151  C4'        8.8920   15.5630   81.4000 C.3   335  G335        0.1773
   7152  O4'        9.5130   15.4570   80.0950 O.3   335  G335       -0.3307
   7153  C3'        9.2560   14.2540   82.0960 C.3   335  G335        0.1860
   7154  O3'        8.3460   13.7710   83.0740 O.3   335  G335       -0.3112
   7155  C2'        9.2260   13.2570   80.9480 C.3   335  G335        0.2309
   7156  O2'        7.9560   12.7920   80.5540 O.3   335  G335       -0.2156
   7157  C1'        9.7450   14.1000   79.7940 C.3   335  G335        0.2408
   7158  N1        13.3470   11.0580   77.9460 N.ar  335  G335       -0.1709
   7159  C2        11.9920   10.8550   78.0230 C.ar  335  G335        0.2606
   7160  N2        11.5400    9.6900   77.5300 N.pl3 335  G335       -0.0859
   7161  N3        11.1420   11.7300   78.5390 N.ar  335  G335       -0.1918
   7162  C4        11.7700   12.8380   78.9900 C.ar  335  G335        0.1723
   7163  C5        13.1160   13.1280   78.9810 C.ar  335  G335        0.1748
   7164  C6        14.0140   12.1900   78.4070 C.ar  335  G335        0.3023
   7165  O6        15.2440   12.2660   78.2960 O.2   335  G335       -0.2633
   7166  N7        13.3570   14.3630   79.5640 N.ar  335  G335       -0.2173
   7167  C8        12.1740   14.7980   79.9000 C.ar  335  G335        0.1817
   7168  N9        11.1690   13.9200   79.5810 N.ar  335  G335       -0.2693
   7169  OP1       10.7750   17.0630   84.6630 O.3   335  G335       -0.4373
   7170  OP2       12.9420   16.6890   83.3170 O.co2 335  G335       -0.5172
   7171  P          8.9550   13.0370   84.3740 P.3   336  G336        0.2141
   7172  C5'        9.2840   10.4350   84.0150 C.3   336  G336        0.1812
   7173  O5'        9.6900   11.7820   83.7130 O.3   336  G336       -0.3114
   7174  C4'        9.6150    9.5290   82.8610 C.3   336  G336        0.1773
   7175  O4'       10.4530   10.2670   81.9570 O.3   336  G336       -0.3307
   7176  C3'       10.4720    8.3100   83.1610 C.3   336  G336        0.1860
   7177  O3'        9.7580    7.1560   83.5640 O.3   336  G336       -0.3112
   7178  C2'       11.0450    7.9730   81.7920 C.3   336  G336        0.2309
   7179  O2'       10.1920    7.1430   81.0180 O.3   336  G336       -0.2156
   7180  C1'       11.2040    9.3630   81.1740 C.3   336  G336        0.2408
   7181  N1        15.9390    8.4360   79.5790 N.ar  336  G336       -0.1709
   7182  C2        14.8150    7.6570   79.4610 C.ar  336  G336        0.2606
   7183  N2        14.9700    6.4880   78.8250 N.pl3 336  G336       -0.0859
   7184  N3        13.6230    8.0070   79.9160 N.ar  336  G336       -0.1918
   7185  C4        13.6490    9.2130   80.5220 C.ar  336  G336        0.1723
   7186  C5        14.7230   10.0560   80.7140 C.ar  336  G336        0.1748
   7187  C6        15.9890    9.6770   80.2080 C.ar  336  G336        0.3023
   7188  O6        17.0570   10.3000   80.2640 O.2   336  G336       -0.2633
   7189  N7        14.3340   11.2050   81.3860 N.ar  336  G336       -0.2173
   7190  C8        13.0590   11.0340   81.6060 C.ar  336  G336        0.1817
   7191  N9        12.5810    9.8450   81.1120 N.ar  336  G336       -0.2693
   7192  OP1        7.8380   12.5740   85.2390 O.3   336  G336       -0.4373
   7193  OP2        9.9140   14.0080   84.9600 O.co2 336  G336       -0.5172
   7194  P         10.3070    6.4500   84.8850 P.3   337  C337        0.2141
   7195  C5'       11.0770    4.0810   84.1690 C.3   337  C337        0.1812
   7196  O5'       11.3310    5.4850   84.1380 O.3   337  C337       -0.3114
   7197  C4'       12.1480    3.3930   83.3940 C.3   337  C337        0.1773
   7198  O4'       12.6550    4.3230   82.4080 O.3   337  C337       -0.3307
   7199  C3'       13.4010    3.0420   84.1660 C.3   337  C337        0.1860
   7200  O3'       13.2640    1.9110   85.0130 O.3   337  C337       -0.3112
   7201  C2'       14.3950    2.8690   83.0280 C.3   337  C337        0.2309
   7202  O2'       14.0990    1.7940   82.1620 O.3   337  C337       -0.2156
   7203  C1'       14.0310    4.0670   82.1670 C.3   337  C337        0.2420
   7204  N1        14.8020    5.2950   82.4440 N.ar  337  C337       -0.2535
   7205  C2        15.9910    5.4970   81.7370 C.ar  337  C337        0.3532
   7206  O2        16.3640    4.6280   80.9350 O.2   337  C337       -0.2443
   7207  N3        16.6990    6.6310   81.9380 N.ar  337  C337       -0.1739
   7208  C4        16.2630    7.5410   82.8110 C.ar  337  C337        0.1759
   7209  N4        17.0010    8.6370   82.9850 N.pl3 337  C337       -0.1070
   7210  C5        15.0510    7.3640   83.5470 C.ar  337  C337        0.0566
   7211  C6        14.3540    6.2410   83.3270 C.ar  337  C337        0.0850
   7212  OP1        9.2220    5.6010   85.4580 O.2   337  C337       -0.5172
   7213  OP2       10.9600    7.4270   85.8160 O.co2 337  C337       -0.4373
   7214  P         14.0100    2.0400   86.4090 P.3   338  G338        0.2141
   7215  C5'       15.7240    0.5700   84.9860 C.3   338  G338        0.1812
   7216  O5'       15.4880    1.6000   85.9840 O.3   338  G338       -0.3114
   7217  C4'       17.2040    0.3820   84.6930 C.3   338  G338        0.1773
   7218  O4'       17.6560    1.3110   83.6590 O.3   338  G338       -0.3307
   7219  C3'       18.1740    0.5840   85.8510 C.3   338  G338        0.1860
   7220  O3'       18.3240   -0.5530   86.6920 O.3   338  G338       -0.3112
   7221  C2'       19.4690    0.9090   85.1160 C.3   338  G338        0.2309
   7222  O2'       20.1740   -0.2540   84.7190 O.3   338  G338       -0.2156
   7223  C1'       18.9490    1.8060   83.9890 C.3   338  G338        0.2408
   7224  N1        21.1920    6.3450   84.5250 N.ar  338  G338       -0.1709
   7225  C2        21.6810    5.1990   83.9500 C.ar  338  G338        0.2606
   7226  N2        22.9260    5.2700   83.4580 N.pl3 338  G338       -0.0859
   7227  N3        20.9990    4.0680   83.8580 N.ar  338  G338       -0.1918
   7228  C4        19.7670    4.1770   84.4010 C.ar  338  G338        0.1723
   7229  C5        19.1850    5.2760   84.9970 C.ar  338  G338        0.1748
   7230  C6        19.9280    6.4810   85.0890 C.ar  338  G338        0.3023
   7231  O6        19.5880    7.5620   85.5890 O.2   338  G338       -0.2633
   7232  N7        17.9000    4.9800   85.4270 N.ar  338  G338       -0.2173
   7233  C8        17.7260    3.7310   85.0910 C.ar  338  G338        0.1817
   7234  N9        18.8120    3.1880   84.4490 N.ar  338  G338       -0.2693
   7235  OP1       13.3790    1.0350   87.3040 O.3   338  G338       -0.4373
   7236  OP2       14.0040    3.4770   86.8130 O.co2 338  G338       -0.5172
   7237  P         19.0750   -0.3900   88.1050 P.3   339  U339        0.2141
   7238  C5'       21.0490    1.1800   88.8910 C.3   339  U339        0.1812
   7239  O5'       20.1670    0.7390   87.8430 O.3   339  U339       -0.3114
   7240  C4'       22.3500    1.6500   88.2860 C.3   339  U339        0.1773
   7241  O4'       22.0590    2.5630   87.1910 O.3   339  U339       -0.3307
   7242  C3'       23.2810    2.4080   89.2270 C.3   339  U339        0.1860
   7243  O3'       24.2390    1.5350   89.8140 O.3   339  U339       -0.3112
   7244  C2'       23.9680    3.3940   88.2900 C.3   339  U339        0.2309
   7245  O2'       25.0380    2.8440   87.5470 O.3   339  U339       -0.2156
   7246  C1'       22.8310    3.7400   87.3320 C.3   339  U339        0.2420
   7247  N1        21.9570    4.8240   87.8080 N.ar  339  U339       -0.2534
   7248  C2        22.4810    6.1040   87.8260 C.ar  339  U339        0.3546
   7249  O2        23.6210    6.3580   87.4760 O.2   339  U339       -0.2443
   7250  N3        21.6190    7.0740   88.2700 N.ar  339  U339       -0.1530
   7251  C4        20.3160    6.9060   88.6900 C.ar  339  U339        0.2846
   7252  O4        19.6680    7.8860   89.0610 O.2   339  U339       -0.2650
   7253  C5        19.8460    5.5550   88.6410 C.ar  339  U339        0.0814
   7254  C6        20.6620    4.5850   88.2110 C.ar  339  U339        0.0870
   7255  OP1       19.7970   -1.6680   88.3480 O.2   339  U339       -0.5172
   7256  OP2       18.1530    0.1490   89.1460 O.co2 339  U339       -0.4373
   7257  P         24.2670    1.2560   91.3900 P.3   340  U340        0.2141
   7258  C5'       26.6360    1.9760   92.3670 C.3   340  U340        0.1812
   7259  O5'       25.8190    1.0080   91.6680 O.3   340  U340       -0.3114
   7260  C4'       27.9700    2.1460   91.6710 C.3   340  U340        0.1773
   7261  O4'       28.3900    0.8640   91.1480 O.3   340  U340       -0.3307
   7262  C3'       27.9620    3.1000   90.4820 C.3   340  U340        0.1860
   7263  O3'       28.2370    4.4660   90.8230 O.3   340  U340       -0.3112
   7264  C2'       29.0130    2.5230   89.5280 C.3   340  U340        0.2309
   7265  O2'       30.2790    3.1450   89.5940 O.3   340  U340       -0.2156
   7266  C1'       29.0910    1.0460   89.9360 C.3   340  U340        0.2420
   7267  N1        28.5610    0.0910   88.9480 N.ar  340  U340       -0.2534
   7268  C2        28.7390    0.3630   87.6010 C.ar  340  U340        0.3546
   7269  O2        29.2910    1.3720   87.1920 O.2   340  U340       -0.2443
   7270  N3        28.2350   -0.5890   86.7500 N.ar  340  U340       -0.1530
   7271  C4        27.5940   -1.7610   87.0910 C.ar  340  U340        0.2846
   7272  O4        27.1970   -2.5160   86.2010 O.2   340  U340       -0.2650
   7273  C5        27.4570   -1.9760   88.5010 C.ar  340  U340        0.0814
   7274  C6        27.9400   -1.0680   89.3600 C.ar  340  U340        0.0870
   7275  OP1       23.5360   -0.0170   91.6070 O.2   340  U340       -0.5172
   7276  OP2       23.8250    2.4820   92.1030 O.co2 340  U340       -0.4373
   7277  P         29.3010    5.0780   91.8840 P.3   341  C341        0.2141
   7278  C5'       30.3720    7.4830   91.6400 C.3   341  C341        0.1812
   7279  O5'       29.9100    6.2700   91.0190 O.3   341  C341       -0.3114
   7280  C4'       29.3820    8.6020   91.4130 C.3   341  C341        0.1773
   7281  O4'       28.1180    8.0520   90.9470 O.3   341  C341       -0.3307
   7282  C3'       29.0570    9.4520   92.6420 C.3   341  C341        0.1860
   7283  O3'       29.1890   10.8640   92.4170 O.3   341  C341       -0.3112
   7284  C2'       27.6590    8.9770   93.0460 C.3   341  C341        0.2309
   7285  O2'       26.8950    9.9520   93.7260 O.3   341  C341       -0.2156
   7286  C1'       27.0570    8.6190   91.6880 C.3   341  C341        0.2420
   7287  N1        25.9450    7.6510   91.7380 N.ar  341  C341       -0.2535
   7288  C2        24.6330    8.1290   91.8380 C.ar  341  C341        0.3532
   7289  O2        24.4430    9.3530   91.8970 O.2   341  C341       -0.2443
   7290  N3        23.6090    7.2450   91.8740 N.ar  341  C341       -0.1739
   7291  C4        23.8560    5.9340   91.8090 C.ar  341  C341        0.1759
   7292  N4        22.8160    5.0980   91.8460 N.pl3 341  C341       -0.1070
   7293  C5        25.1820    5.4210   91.6990 C.ar  341  C341        0.0566
   7294  C6        26.1860    6.3070   91.6630 C.ar  341  C341        0.0850
   7295  OP1       30.3970    4.1110   92.1380 O.2   341  C341       -0.5172
   7296  OP2       28.5760    5.6680   93.0410 O.co2 341  C341       -0.4373
   7297  P         28.5130   11.8220   91.2970 P.3   342  G342        0.2141
   7298  C5'       29.1870   12.1670   88.7480 C.3   342  G342        0.1812
   7299  O5'       29.0100   11.2830   89.8790 O.3   342  G342       -0.3114
   7300  C4'       30.0140   11.4930   87.6780 C.3   342  G342        0.1773
   7301  O4'       30.2210   10.1170   88.0520 O.3   342  G342       -0.3307
   7302  C3'       29.3700   11.4260   86.3020 C.3   342  G342        0.1860
   7303  O3'       29.7270   12.5950   85.5620 O.3   342  G342       -0.3112
   7304  C2'       29.9170   10.1270   85.6850 C.3   342  G342        0.2309
   7305  O2'       30.9500   10.2540   84.7300 O.3   342  G342       -0.2156
   7306  C1'       30.4560    9.3510   86.8930 C.3   342  G342        0.2408
   7307  N1        26.1950    6.8480   88.0440 N.ar  342  G342       -0.1709
   7308  C2        26.4110    8.2010   87.9390 C.ar  342  G342        0.2606
   7309  N2        25.3510    8.9910   88.1690 N.pl3 342  G342       -0.0859
   7310  N3        27.5770    8.7400   87.6250 N.ar  342  G342       -0.1918
   7311  C4        28.5280    7.8030   87.4240 C.ar  342  G342        0.1723
   7312  C5        28.4170    6.4310   87.5050 C.ar  342  G342        0.1748
   7313  C6        27.1600    5.8650   87.8410 C.ar  342  G342        0.3023
   7314  O6        26.8580    4.6720   87.9610 O.2   342  G342       -0.2633
   7315  N7        29.6320    5.8200   87.2250 N.ar  342  G342       -0.2173
   7316  C8        30.4440    6.8130   86.9840 C.ar  342  G342        0.1817
   7317  N9        29.8370    8.0430   87.0810 N.ar  342  G342       -0.2693
   7318  OP1       29.1060   13.1720   91.4880 O.3   342  G342       -0.4373
   7319  OP2       27.0380   11.6710   91.3760 O.co2 342  G342       -0.5172
   7320  P         28.6980   13.5340   84.7280 P.3   343  C343        0.2141
   7321  C5'       27.7120   12.4080   82.5290 C.3   343  C343        0.1812
   7322  O5'       28.8220   13.0140   83.2240 O.3   343  C343       -0.3114
   7323  C4'       27.8380   10.9030   82.5560 C.3   343  C343        0.1773
   7324  O4'       27.4020   10.4160   83.8520 O.3   343  C343       -0.3307
   7325  C3'       26.9780   10.1550   81.5510 C.3   343  C343        0.1860
   7326  O3'       27.6650   10.0270   80.3140 O.3   343  C343       -0.3112
   7327  C2'       26.7750    8.8010   82.2240 C.3   343  C343        0.2309
   7328  O2'       27.8480    7.9010   82.0570 O.3   343  C343       -0.2156
   7329  C1'       26.7070    9.1920   83.6990 C.3   343  C343        0.2420
   7330  N1        25.3420    9.3560   84.2320 N.ar  343  C343       -0.2535
   7331  C2        24.7880    8.3150   84.9810 C.ar  343  C343        0.3532
   7332  O2        25.4560    7.2860   85.1620 O.2   343  C343       -0.2443
   7333  N3        23.5400    8.4550   85.4880 N.ar  343  C343       -0.1739
   7334  C4        22.8550    9.5810   85.2720 C.ar  343  C343        0.1759
   7335  N4        21.6280    9.6760   85.7930 N.pl3 343  C343       -0.1070
   7336  C5        23.3960   10.6590   84.5120 C.ar  343  C343        0.0566
   7337  C6        24.6330   10.5070   84.0190 C.ar  343  C343        0.0850
   7338  OP1       29.2330   14.9210   84.7330 O.2   343  C343       -0.5172
   7339  OP2       27.3180   13.2950   85.2220 O.co2 343  C343       -0.4373
   7340  P         26.8190   10.1370   78.9610 P.3   344  G344        0.2141
   7341  C5'       27.1890    7.5270   78.6840 C.3   344  G344        0.1812
   7342  O5'       26.2870    8.6550   78.7020 O.3   344  G344       -0.3114
   7343  C4'       26.4260    6.2330   78.5060 C.3   344  G344        0.1773
   7344  O4'       25.9570    5.7440   79.7970 O.3   344  G344       -0.3307
   7345  C3'       25.1710    6.3160   77.6510 C.3   344  G344        0.1860
   7346  O3'       25.4450    6.2120   76.2650 O.3   344  G344       -0.3112
   7347  C2'       24.3640    5.1380   78.1730 C.3   344  G344        0.2309
   7348  O2'       24.7800    3.9020   77.6260 O.3   344  G344       -0.2156
   7349  C1'       24.6280    5.2550   79.6730 C.3   344  G344        0.2408
   7350  N1        19.8670    6.0920   81.2230 N.ar  344  G344       -0.1709
   7351  C2        20.4080    4.9810   80.6190 C.ar  344  G344        0.2606
   7352  N2        19.5680    3.9610   80.3920 N.pl3 344  G344       -0.0859
   7353  N3        21.6770    4.8810   80.2590 N.ar  344  G344       -0.1918
   7354  C4        22.3750    5.9980   80.5550 C.ar  344  G344        0.1723
   7355  C5        21.9300    7.1580   81.1560 C.ar  344  G344        0.1748
   7356  C6        20.5670    7.2530   81.5360 C.ar  344  G344        0.3023
   7357  O6        19.9830    8.1960   82.0810 O.2   344  G344       -0.2633
   7358  N7        22.9660    8.0730   81.2890 N.ar  344  G344       -0.2173
   7359  C8        24.0010    7.4650   80.7740 C.ar  344  G344        0.1817
   7360  N9        23.7150    6.1990   80.3210 N.ar  344  G344       -0.2693
   7361  OP1       27.7100   10.4720   77.8200 O.2   344  G344       -0.5172
   7362  OP2       25.6880   11.0440   79.2960 O.co2 344  G344       -0.4373
   7363  P         24.5670    7.1220   75.2880 P.3   345  C345        0.2141
   7364  C5'       22.9940    5.0790   74.6680 C.3   345  C345        0.1812
   7365  O5'       23.1610    6.3740   75.2890 O.3   345  C345       -0.3114
   7366  C4'       21.7130    4.4340   75.1500 C.3   345  C345        0.1773
   7367  O4'       21.5810    4.6250   76.5870 O.3   345  C345       -0.3307
   7368  C3'       20.4290    5.0180   74.5810 C.3   345  C345        0.1860
   7369  O3'       20.1430    4.5560   73.2600 O.3   345  C345       -0.3112
   7370  C2'       19.4030    4.6280   75.6430 C.3   345  C345        0.2309
   7371  O2'       18.9010    3.3130   75.5780 O.3   345  C345       -0.2156
   7372  C1'       20.2160    4.7840   76.9260 C.3   345  C345        0.2420
   7373  N1        20.0300    6.1150   77.5080 N.ar  345  C345       -0.2535
   7374  C2        18.8590    6.3640   78.2230 C.ar  345  C345        0.3532
   7375  O2        18.0460    5.4400   78.3770 O.2   345  C345       -0.2443
   7376  N3        18.6500    7.5960   78.7440 N.ar  345  C345       -0.1739
   7377  C4        19.5510    8.5620   78.5500 C.ar  345  C345        0.1759
   7378  N4        19.3030    9.7630   79.0740 N.pl3 345  C345       -0.1070
   7379  C5        20.7430    8.3400   77.8030 C.ar  345  C345        0.0566
   7380  C6        20.9380    7.1150   77.3000 C.ar  345  C345        0.0850
   7381  OP1       25.1230    6.9980   73.9070 O.2   345  C345       -0.5172
   7382  OP2       24.3850    8.4670   75.9090 O.co2 345  C345       -0.4373
   7383  P         19.2640    5.5210   72.3200 P.3   346  C346        0.2141
   7384  C5'       17.0580    4.2770   73.0660 C.3   346  C346        0.1812
   7385  O5'       17.8420    5.4890   73.0360 O.3   346  C346       -0.3114
   7386  C4'       15.6710    4.5870   73.5580 C.3   346  C346        0.1773
   7387  O4'       15.7570    5.0320   74.9300 O.3   346  C346       -0.3307
   7388  C3'       14.9910    5.7450   72.8560 C.3   346  C346        0.1860
   7389  O3'       14.3260    5.3330   71.6840 O.3   346  C346       -0.3112
   7390  C2'       13.9720    6.2080   73.8840 C.3   346  C346        0.2309
   7391  O2'       12.7080    5.5850   73.8890 O.3   346  C346       -0.2156
   7392  C1'       14.7080    5.9400   75.1910 C.3   346  C346        0.2420
   7393  N1        15.2790    7.1780   75.6970 N.ar  346  C346       -0.2535
   7394  C2        14.4230    8.0670   76.3320 C.ar  346  C346        0.3532
   7395  O2        13.2330    7.7510   76.4730 O.2   346  C346       -0.2443
   7396  N3        14.9130    9.2310   76.8080 N.ar  346  C346       -0.1739
   7397  C4        16.2020    9.5320   76.6310 C.ar  346  C346        0.1759
   7398  N4        16.6420   10.6960   77.1140 N.pl3 346  C346       -0.1070
   7399  C5        17.0980    8.6520   75.9570 C.ar  346  C346        0.0566
   7400  C6        16.5940    7.5020   75.4960 C.ar  346  C346        0.0850
   7401  OP1       19.1250    4.8930   70.9830 O.2   346  C346       -0.5172
   7402  OP2       19.7300    6.9250   72.4460 O.co2 346  C346       -0.4373
   7403  P         14.2030    6.4830   70.5980 P.3   347  U347        0.2141
   7404  C5'       11.7240    7.2400   70.9170 C.3   347  U347        0.1812
   7405  O5'       13.0870    7.3690   71.3010 O.3   347  U347       -0.3114
   7406  C4'       10.8980    8.1060   71.8080 C.3   347  U347        0.1773
   7407  O4'       11.6180    8.3380   73.0430 O.3   347  U347       -0.3307
   7408  C3'       10.6540    9.5010   71.2830 C.3   347  U347        0.1860
   7409  O3'        9.6000    9.5020   70.3410 O.3   347  U347       -0.3112
   7410  C2'       10.2890   10.2380   72.5550 C.3   347  U347        0.2309
   7411  O2'        8.9400   10.0380   72.9290 O.3   347  U347       -0.2156
   7412  C1'       11.2540    9.6030   73.5610 C.3   347  U347        0.2420
   7413  N1        12.4700   10.4080   73.7630 N.ar  347  U347       -0.2534
   7414  C2        12.3480   11.5500   74.5430 C.ar  347  U347        0.3546
   7415  O2        11.2970   11.8940   75.0570 O.2   347  U347       -0.2443
   7416  N3        13.5010   12.2790   74.6820 N.ar  347  U347       -0.1530
   7417  C4        14.7370   12.0000   74.1310 C.ar  347  U347        0.2846
   7418  O4        15.6810   12.7590   74.3530 O.2   347  U347       -0.2650
   7419  C5        14.7840   10.8090   73.3290 C.ar  347  U347        0.0814
   7420  C6        13.6740   10.0760   73.1710 C.ar  347  U347        0.0870
   7421  OP1       13.7680    5.9140   69.2860 O.2   347  U347       -0.5172
   7422  OP2       15.4190    7.3200   70.6600 O.co2 347  U347       -0.4373
   7423  P          9.8370   10.3720   69.0180 P.3   348  A348        0.2141
   7424  C5'        8.6600   12.2620   70.3510 C.3   348  A348        0.1812
   7425  O5'        9.7910   11.8550   69.5840 O.3   348  A348       -0.3114
   7426  C4'        8.6770   13.7560   70.5410 C.3   348  A348        0.1773
   7427  O4'        9.7570   14.1490   71.4330 O.3   348  A348       -0.3307
   7428  C3'        8.8530   14.5640   69.2590 C.3   348  A348        0.1860
   7429  O3'        7.9290   15.6370   69.3400 O.3   348  A348       -0.3112
   7430  C2'       10.3200   14.9790   69.2980 C.3   348  A348        0.2309
   7431  O2'       10.5610   16.2400   68.7220 O.3   348  A348       -0.2156
   7432  C1'       10.5720   15.1130   70.7970 C.3   348  A348        0.2408
   7433  N1        14.6010   16.8030   73.4850 N.ar  348  A348       -0.2040
   7434  C2        13.3540   17.2740   73.3290 C.ar  348  A348        0.2016
   7435  N3        12.3550   16.7850   72.5970 N.ar  348  A348       -0.2048
   7436  C4        12.7340   15.6540   71.9740 C.ar  348  A348        0.1692
   7437  C5        13.9790   15.0480   72.0340 C.ar  348  A348        0.1518
   7438  C6        14.9550   15.6750   72.8280 C.ar  348  A348        0.1919
   7439  N6        16.1990   15.2140   72.9750 N.pl3 348  A348       -0.1054
   7440  N7        14.0040   13.8970   71.2560 N.ar  348  A348       -0.2193
   7441  C8        12.7930   13.8310   70.7540 C.ar  348  A348        0.1816
   7442  N9        11.9680   14.8570   71.1580 N.ar  348  A348       -0.2693
   7443  OP1        8.6390   10.2880   68.1660 O.2   348  A348       -0.5172
   7444  OP2       11.1580   10.0380   68.4180 O.co2 348  A348       -0.4373
   7445  P          6.7530   15.6550   68.2610 P.3   349  A349        0.2141
   7446  C5'        4.4340   16.5700   69.1390 C.3   349  A349        0.1812
   7447  O5'        5.7740   16.1850   69.4080 O.3   349  A349       -0.3114
   7448  C4'        3.8980   17.3080   70.3340 C.3   349  A349        0.1773
   7449  O4'        4.4460   16.7210   71.5470 O.3   349  A349       -0.3307
   7450  C3'        4.2690   18.7840   70.4370 C.3   349  A349        0.1860
   7451  O3'        3.3910   19.6440   69.7220 O.3   349  A349       -0.3112
   7452  C2'        4.1950   19.0410   71.9390 C.3   349  A349        0.2309
   7453  O2'        2.8970   19.2410   72.4570 O.3   349  A349       -0.2156
   7454  C1'        4.7670   17.7400   72.4850 C.3   349  A349        0.2408
   7455  N1         8.6300   19.4690   75.3800 N.ar  349  A349       -0.2040
   7456  C2         7.3020   19.6130   75.4650 C.ar  349  A349        0.2016
   7457  N3         6.3510   19.1430   74.6610 N.ar  349  A349       -0.2048
   7458  C4         6.8860   18.4130   73.6710 C.ar  349  A349        0.1692
   7459  C5         8.2300   18.1690   73.4520 C.ar  349  A349        0.1518
   7460  C6         9.1370   18.7390   74.3650 C.ar  349  A349        0.1919
   7461  N6        10.4600   18.5900   74.2900 N.pl3 349  A349       -0.1054
   7462  N7         8.4110   17.4020   72.3060 N.ar  349  A349       -0.2193
   7463  C8         7.1920   17.1980   71.8690 C.ar  349  A349        0.1816
   7464  N9         6.2180   17.7720   72.6580 N.ar  349  A349       -0.2693
   7465  OP1        6.5230   14.2610   67.7590 O.3   349  A349       -0.4373
   7466  OP2        7.1530   16.6910   67.2340 O.co2 349  A349       -0.5172
   7467  P          4.0020   20.6490   68.6270 P.3   350  G350        0.2141
   7468  C5'        4.3470   22.1530   70.7250 C.3   350  G350        0.1812
   7469  O5'        4.8980   21.6200   69.5200 O.3   350  G350       -0.3114
   7470  C4'        5.3770   22.9610   71.4750 C.3   350  G350        0.1773
   7471  O4'        6.1360   22.1180   72.3990 O.3   350  G350       -0.3307
   7472  C3'        6.4410   23.6520   70.6330 C.3   350  G350        0.1860
   7473  O3'        5.9870   24.8940   70.1200 O.3   350  G350       -0.3112
   7474  C2'        7.5250   23.8540   71.6770 C.3   350  G350        0.2309
   7475  O2'        7.1260   24.8410   72.6130 O.3   350  G350       -0.2156
   7476  C1'        7.5090   22.4830   72.3500 C.3   350  G350        0.2408
   7477  N1        11.9370   20.1230   71.5490 N.ar  350  G350       -0.1709
   7478  C2        11.6360   21.1350   72.4290 C.ar  350  G350        0.2606
   7479  N2        12.6370   21.5480   73.2170 N.pl3 350  G350       -0.0859
   7480  N3        10.4310   21.6720   72.5570 N.ar  350  G350       -0.1918
   7481  C4         9.5480   21.1340   71.6900 C.ar  350  G350        0.1723
   7482  C5         9.7560   20.1380   70.7560 C.ar  350  G350        0.1748
   7483  C6        11.0430   19.5550   70.6510 C.ar  350  G350        0.3023
   7484  O6        11.4240   18.6710   69.8810 O.2   350  G350       -0.2633
   7485  N7         8.5930   19.8770   70.0470 N.ar  350  G350       -0.2173
   7486  C8         7.7110   20.6900   70.5650 C.ar  350  G350        0.1817
   7487  N9         8.2230   21.4730   71.5720 N.ar  350  G350       -0.2693
   7488  OP1        2.8120   21.4890   68.3450 O.3   350  G350       -0.4373
   7489  OP2        4.7000   19.8880   67.5520 O.co2 350  G350       -0.5172
   7490  P          6.4680   25.5290   68.7210 P.3   351  C351        0.2141
   7491  C5'        8.4850   26.5070   70.1820 C.3   351  C351        0.1812
   7492  O5'        7.9970   25.9230   68.9520 O.3   351  C351       -0.3114
   7493  C4'        9.9980   26.4810   70.2070 C.3   351  C351        0.1773
   7494  O4'       10.4470   25.1980   70.7240 O.3   351  C351       -0.3307
   7495  C3'       10.7190   26.5980   68.8610 C.3   351  C351        0.1860
   7496  O3'       10.7730   27.9090   68.2800 O.3   351  C351       -0.3112
   7497  C2'       12.0850   26.0090   69.2040 C.3   351  C351        0.2309
   7498  O2'       12.9510   26.9010   69.8760 O.3   351  C351       -0.2156
   7499  C1'       11.6910   24.8540   70.1300 C.3   351  C351        0.2420
   7500  N1        11.5410   23.5960   69.3770 N.ar  351  C351       -0.2535
   7501  C2        12.6660   22.7800   69.2150 C.ar  351  C351        0.3532
   7502  O2        13.7230   23.0990   69.7800 O.2   351  C351       -0.2443
   7503  N3        12.5650   21.6530   68.4730 N.ar  351  C351       -0.1739
   7504  C4        11.3990   21.3290   67.9110 C.ar  351  C351        0.1759
   7505  N4        11.3380   20.2020   67.2090 N.pl3 351  C351       -0.1070
   7506  C5        10.2470   22.1590   68.0310 C.ar  351  C351        0.0566
   7507  C6        10.3650   23.2790   68.7560 C.ar  351  C351        0.0850
   7508  OP1        5.5540   26.6990   68.7360 O.3   351  C351       -0.4373
   7509  OP2        6.5010   24.6150   67.5210 O.co2 351  C351       -0.5172
   7510  P         11.1350   28.2900   66.7300 P.3   352  U352        0.2141
   7511  C5'       13.7300   28.0350   67.1960 C.3   352  U352        0.1812
   7512  O5'       12.5850   27.7120   66.3860 O.3   352  U352       -0.3114
   7513  C4'       14.9870   27.6140   66.4950 C.3   352  U352        0.1773
   7514  O4'       15.3880   26.3080   66.9900 O.3   352  U352       -0.3307
   7515  C3'       14.8380   27.4310   64.9920 C.3   352  U352        0.1860
   7516  O3'       14.9440   28.6530   64.2710 O.3   352  U352       -0.3112
   7517  C2'       15.9440   26.4270   64.6920 C.3   352  U352        0.2309
   7518  O2'       17.2040   27.0180   64.4100 O.3   352  U352       -0.2156
   7519  C1'       15.8350   25.5010   65.9100 C.3   352  U352        0.2420
   7520  N1        14.8450   24.4340   65.6610 N.ar  352  U352       -0.2534
   7521  C2        15.3100   23.1820   65.2810 C.ar  352  U352        0.3546
   7522  O2        16.4950   22.9030   65.2210 O.2   352  U352       -0.2443
   7523  N3        14.3280   22.2620   65.0060 N.ar  352  U352       -0.1530
   7524  C4        12.9610   22.4590   65.0440 C.ar  352  U352        0.2846
   7525  O4        12.2060   21.5220   64.7810 O.2   352  U352       -0.2650
   7526  C5        12.5610   23.7840   65.4140 C.ar  352  U352        0.0814
   7527  C6        13.4920   24.7060   65.6950 C.ar  352  U352        0.0870
   7528  OP1       11.1820   29.7570   66.9430 O.3   352  U352       -0.4373
   7529  OP2       10.2620   27.7830   65.6340 O.co2 352  U352       -0.5172
   7530  P         14.9540   28.7760   62.6700 P.3   353  U353        0.2141
   7531  C5'       17.2790   27.7540   61.8680 C.3   353  U353        0.1812
   7532  O5'       15.8440   27.6330   62.0010 O.3   353  U353       -0.3114
   7533  C4'       17.8600   26.5580   61.1460 C.3   353  U353        0.1773
   7534  O4'       17.7130   25.3590   61.9670 O.3   353  U353       -0.3307
   7535  C3'       17.1810   26.2050   59.8310 C.3   353  U353        0.1860
   7536  O3'       17.5770   27.0080   58.7190 O.3   353  U353       -0.3112
   7537  C2'       17.5370   24.7270   59.6820 C.3   353  U353        0.2309
   7538  O2'       18.7630   24.4280   59.0370 O.3   353  U353       -0.2156
   7539  C1'       17.4260   24.2400   61.1340 C.3   353  U353        0.2420
   7540  N1        16.0630   23.7510   61.4170 N.ar  353  U353       -0.2534
   7541  C2        15.7270   22.4780   60.9860 C.ar  353  U353        0.3546
   7542  O2        16.5220   21.7290   60.4550 O.2   353  U353       -0.2443
   7543  N3        14.4260   22.1120   61.2200 N.ar  353  U353       -0.1530
   7544  C4        13.4370   22.8740   61.8050 C.ar  353  U353        0.2846
   7545  O4        12.3090   22.4000   61.9480 O.2   353  U353       -0.2650
   7546  C5        13.8530   24.1850   62.2020 C.ar  353  U353        0.0814
   7547  C6        15.1170   24.5730   61.9890 C.ar  353  U353        0.0870
   7548  OP1       15.6890   30.0540   62.5550 O.3   353  U353       -0.4373
   7549  OP2       13.5790   28.6840   62.1090 O.co2 353  U353       -0.5172
   7550  P         16.6260   27.1980   57.4190 P.3   354  G354        0.2141
   7551  C5'       17.9350   25.5140   55.8400 C.3   354  G354        0.1812
   7552  O5'       16.7860   25.8070   56.6600 O.3   354  G354       -0.3114
   7553  C4'       17.8930   24.0810   55.3810 C.3   354  G354        0.1773
   7554  O4'       17.6690   23.2110   56.5260 O.3   354  G354       -0.3307
   7555  C3'       16.7640   23.7250   54.4320 C.3   354  G354        0.1860
   7556  O3'       17.0930   24.0310   53.0930 O.3   354  G354       -0.3112
   7557  C2'       16.6810   22.2160   54.6250 C.3   354  G354        0.2309
   7558  O2'       17.7170   21.4450   54.0540 O.3   354  G354       -0.2156
   7559  C1'       16.8630   22.1070   56.1350 C.3   354  G354        0.2408
   7560  N1        12.6450   19.5730   57.3710 N.ar  354  G354       -0.1709
   7561  C2        13.7280   19.1620   56.6350 C.ar  354  G354        0.2606
   7562  N2        13.6820   17.9130   56.1640 N.pl3 354  G354       -0.0859
   7563  N3        14.7800   19.9220   56.3790 N.ar  354  G354       -0.1918
   7564  C4        14.6570   21.1540   56.9190 C.ar  354  G354        0.1723
   7565  C5        13.6120   21.6710   57.6550 C.ar  354  G354        0.1748
   7566  C6        12.4920   20.8380   57.9310 C.ar  354  G354        0.3023
   7567  O6        11.4640   21.1120   58.5630 O.2   354  G354       -0.2633
   7568  N7        13.8710   22.9840   58.0230 N.ar  354  G354       -0.2173
   7569  C8        15.0480   23.2360   57.5170 C.ar  354  G354        0.1817
   7570  N9        15.5850   22.1660   56.8420 N.ar  354  G354       -0.2693
   7571  OP1       17.1630   28.2290   56.5010 O.2   354  G354       -0.5172
   7572  OP2       15.2200   27.3300   57.8650 O.co2 354  G354       -0.4373
   7573  P         16.1700   24.8130   52.0270 P.3   355  A355        0.2141
   7574  C5'       17.0900   27.3360   51.9460 C.3   355  A355        0.1812
   7575  O5'       17.2910   25.9140   51.7580 O.3   355  A355       -0.3114
   7576  C4'       18.0580   28.0960   51.0640 C.3   355  A355        0.1773
   7577  O4'       19.3390   28.2170   51.7540 O.3   355  A355       -0.3307
   7578  C3'       18.3720   27.3970   49.7430 C.3   355  A355        0.1860
   7579  O3'       17.4690   27.7060   48.6750 O.3   355  A355       -0.3112
   7580  C2'       19.7940   27.8490   49.4480 C.3   355  A355        0.2309
   7581  O2'       19.6360   29.0480   48.7210 O.3   355  A355       -0.2156
   7582  C1'       20.4020   27.9440   50.8550 C.3   355  A355        0.2408
   7583  N1        24.8120   25.2590   51.1230 N.ar  355  A355       -0.2040
   7584  C2        24.5310   26.4780   50.6380 C.ar  355  A355        0.2016
   7585  N3        23.3670   27.1290   50.6060 N.ar  355  A355       -0.2048
   7586  C4        22.3910   26.3780   51.1450 C.ar  355  A355        0.1692
   7587  C5        22.5220   25.1060   51.6790 C.ar  355  A355        0.1518
   7588  C6        23.8100   24.5300   51.6590 C.ar  355  A355        0.1919
   7589  N6        24.0920   23.3170   52.1420 N.pl3 355  A355       -0.1054
   7590  N7        21.3030   24.6490   52.1600 N.ar  355  A355       -0.2193
   7591  C8        20.4750   25.6350   51.9060 C.ar  355  A355        0.1816
   7592  N9        21.0650   26.7120   51.2910 N.ar  355  A355       -0.2693
   7593  OP1       14.9940   25.5180   52.6000 O.3   355  A355       -0.4373
   7594  OP2       16.0030   23.9570   50.8090 O.co2 355  A355       -0.5172
   7595  P         17.3580   26.5650   47.5280 P.3   356  A356        0.2141
   7596  C5'       19.3450   26.3070   45.8010 C.3   356  A356        0.1812
   7597  O5'       18.8490   26.8210   47.0380 O.3   356  A356       -0.3114
   7598  C4'       20.8500   26.2800   45.8650 C.3   356  A356        0.1773
   7599  O4'       21.2880   26.3120   47.2620 O.3   356  A356       -0.3307
   7600  C3'       21.4930   25.0250   45.2860 C.3   356  A356        0.1860
   7601  O3'       21.6120   25.0920   43.8760 O.3   356  A356       -0.3112
   7602  C2'       22.7940   24.9610   46.0670 C.3   356  A356        0.2309
   7603  O2'       23.7070   25.8920   45.5270 O.3   356  A356       -0.2156
   7604  C1'       22.2960   25.3260   47.4700 C.3   356  A356        0.2408
   7605  N1        23.1780   20.7270   49.6300 N.ar  356  A356       -0.2040
   7606  C2        23.9930   21.6320   49.0680 C.ar  356  A356        0.2016
   7607  N3        23.6960   22.8170   48.5300 N.ar  356  A356       -0.2048
   7608  C4        22.3750   23.0600   48.6160 C.ar  356  A356        0.1692
   7609  C5        21.4110   22.2250   49.1560 C.ar  356  A356        0.1518
   7610  C6        21.8540   20.9950   49.6870 C.ar  356  A356        0.1919
   7611  N6        21.0420   20.0930   50.2430 N.pl3 356  A356       -0.1054
   7612  N7        20.1500   22.7990   49.0540 N.ar  356  A356       -0.2193
   7613  C8        20.3740   23.9440   48.4560 C.ar  356  A356        0.1816
   7614  N9        21.7000   24.1730   48.1700 N.ar  356  A356       -0.2693
   7615  OP1       16.4110   26.8330   46.4210 O.2   356  A356       -0.5172
   7616  OP2       17.2990   25.2380   48.1910 O.co2 356  A356       -0.4373
   7617  P         20.8650   23.8700   43.1380 P.3   357  C357        0.2141
   7618  C5'       23.2120   22.7560   42.7150 C.3   357  C357        0.1812
   7619  O5'       21.9170   22.6870   43.3450 O.3   357  C357       -0.3114
   7620  C4'       24.2320   21.8740   43.3960 C.3   357  C357        0.1773
   7621  O4'       24.0240   21.8460   44.8320 O.3   357  C357       -0.3307
   7622  C3'       24.2670   20.3980   43.0090 C.3   357  C357        0.1860
   7623  O3'       25.0100   20.1880   41.8150 O.3   357  C357       -0.3112
   7624  C2'       25.0720   19.8290   44.1610 C.3   357  C357        0.2309
   7625  O2'       26.4140   20.2490   44.0590 O.3   357  C357       -0.2156
   7626  C1'       24.4810   20.6000   45.3420 C.3   357  C357        0.2420
   7627  N1        23.3440   19.8930   45.9570 N.ar  357  C357       -0.2535
   7628  C2        23.5850   18.6830   46.6170 C.ar  357  C357        0.3532
   7629  O2        24.7520   18.2630   46.6930 O.2   357  C357       -0.2443
   7630  N3        22.5480   18.0180   47.1730 N.ar  357  C357       -0.1739
   7631  C4        21.3120   18.5170   47.0890 C.ar  357  C357        0.1759
   7632  N4        20.3230   17.8380   47.6690 N.pl3 357  C357       -0.1070
   7633  C5        21.0400   19.7470   46.4230 C.ar  357  C357        0.0566
   7634  C6        22.0730   20.3900   45.8670 C.ar  357  C357        0.0850
   7635  OP1       20.7470   24.2110   41.7040 O.2   357  C357       -0.5172
   7636  OP2       19.6410   23.4600   43.8610 O.co2 357  C357       -0.4373
   7637  P         24.6630   19.1120   40.6940 P.3   358  C358        0.2141
   7638  C5'       26.6460   17.8150   41.8730 C.3   358  C358        0.1812
   7639  O5'       25.2430   17.8520   41.4870 O.3   358  C358       -0.3114
   7640  C4'       27.1110   16.4110   42.1840 C.3   358  C358        0.1773
   7641  O4'       27.0170   16.1640   43.6160 O.3   358  C358       -0.3307
   7642  C3'       26.3170   15.2750   41.5590 C.3   358  C358        0.1860
   7643  O3'       26.7550   14.8810   40.2750 O.3   358  C358       -0.3112
   7644  C2'       26.6520   14.1360   42.5050 C.3   358  C358        0.2309
   7645  O2'       27.9080   13.5650   42.2220 O.3   358  C358       -0.2156
   7646  C1'       26.5440   14.8510   43.8480 C.3   358  C358        0.2420
   7647  N1        25.1190   14.9040   44.2230 N.ar  358  C358       -0.2535
   7648  C2        24.5320   13.7360   44.7100 C.ar  358  C358        0.3532
   7649  O2        25.2500   12.7480   44.9230 O.2   358  C358       -0.2443
   7650  N3        23.2080   13.7230   44.9790 N.ar  358  C358       -0.1739
   7651  C4        22.4710   14.8070   44.7450 C.ar  358  C358        0.1759
   7652  N4        21.1720   14.7510   45.0360 N.pl3 358  C358       -0.1070
   7653  C5        23.0340   15.9970   44.2000 C.ar  358  C358        0.0566
   7654  C6        24.3480   15.9970   43.9440 C.ar  358  C358        0.0850
   7655  OP1       25.5740   19.2600   39.5290 O.2   358  C358       -0.5172
   7656  OP2       23.2070   19.0440   40.4540 O.co2 358  C358       -0.4373
   7657  P         26.0170   15.3140   38.9700 P.3   359  G359        0.2141
   7658  C5'       24.3860   13.2550   38.6570 C.3   359  G359        0.1812
   7659  O5'       24.6010   14.6010   39.0960 O.3   359  G359       -0.3114
   7660  C4'       24.8830   12.2710   39.6860 C.3   359  G359        0.1773
   7661  O4'       24.5150   12.6770   41.0370 O.3   359  G359       -0.3307
   7662  C3'       24.3110   10.8750   39.5500 C.3   359  G359        0.1860
   7663  O3'       25.1010   10.2050   38.5920 O.3   359  G359       -0.3112
   7664  C2'       24.5370   10.3040   40.9400 C.3   359  G359        0.2309
   7665  O2'       25.8510    9.8430   41.1290 O.3   359  G359       -0.2156
   7666  C1'       24.2850   11.5260   41.8320 C.3   359  G359        0.2408
   7667  N1        20.8020    8.9750   44.4840 N.ar  359  G359       -0.1709
   7668  C2        22.1140    8.6610   44.2310 C.ar  359  G359        0.2606
   7669  N2        22.5540    7.5020   44.7380 N.pl3 359  G359       -0.0859
   7670  N3        22.9330    9.4220   43.5250 N.ar  359  G359       -0.1918
   7671  C4        22.3220   10.5400   43.0750 C.ar  359  G359        0.1723
   7672  C5        21.0190   10.9440   43.2660 C.ar  359  G359        0.1748
   7673  C6        20.1520   10.1170   44.0290 C.ar  359  G359        0.3023
   7674  O6        18.9610   10.2970   44.3070 O.2   359  G359       -0.2633
   7675  N7        20.7870   12.1650   42.6510 N.ar  359  G359       -0.2173
   7676  C8        21.9310   12.4730   42.1020 C.ar  359  G359        0.1817
   7677  N9        22.9100   11.5390   42.3340 N.ar  359  G359       -0.2693
   7678  OP1       26.7390   14.6240   37.8950 O.2   359  G359       -0.5172
   7679  OP2       25.9280   16.8020   38.9410 O.co2 359  G359       -0.4373
   7680  P         24.5010    9.3740   37.3670 P.3   360  C360        0.2141
   7681  C5'       24.9110    7.2670   38.9370 C.3   360  C360        0.1812
   7682  O5'       24.0310    8.0210   38.0710 O.3   360  C360       -0.3114
   7683  C4'       24.1110    6.2210   39.6640 C.3   360  C360        0.1773
   7684  O4'       23.4840    6.8450   40.8070 O.3   360  C360       -0.3307
   7685  C3'       22.9690    5.6250   38.8550 C.3   360  C360        0.1860
   7686  O3'       23.3210    4.3970   38.2390 O.3   360  C360       -0.3112
   7687  C2'       21.9350    5.2640   39.9110 C.3   360  C360        0.2309
   7688  O2'       22.0390    3.9520   40.3930 O.3   360  C360       -0.2156
   7689  C1'       22.2050    6.2860   41.0120 C.3   360  C360        0.2420
   7690  N1        21.2080    7.3640   40.9870 N.ar  360  C360       -0.2535
   7691  C2        20.0420    7.2130   41.7440 C.ar  360  C360        0.3532
   7692  O2        19.9050    6.1910   42.4300 O.2   360  C360       -0.2443
   7693  N3        19.1000    8.1820   41.7120 N.ar  360  C360       -0.1739
   7694  C4        19.2920    9.2680   40.9620 C.ar  360  C360        0.1759
   7695  N4        18.3480   10.2080   40.9720 N.pl3 360  C360       -0.1070
   7696  C5        20.4690    9.4470   40.1800 C.ar  360  C360        0.0566
   7697  C6        21.3860    8.4730   40.2100 C.ar  360  C360        0.0850
   7698  OP1       25.6670    9.1840   36.4320 O.2   360  C360       -0.5172
   7699  OP2       23.2180    9.8560   36.8480 O.co2 360  C360       -0.4373
   7700  P         22.5090    3.9890   36.9310 P.3   361  C361        0.2141
   7701  C5'       21.2890    2.1130   38.2080 C.3   361  C361        0.1812
   7702  O5'       21.1780    3.2750   37.4140 O.3   361  C361       -0.3114
   7703  C4'       19.9180    1.6670   38.6000 C.3   361  C361        0.1773
   7704  O4'       19.4490    2.5100   39.6800 O.3   361  C361       -0.3307
   7705  C3'       18.8630    1.7900   37.5160 C.3   361  C361        0.1860
   7706  O3'       18.8350    0.5770   36.7850 O.3   361  C361       -0.3112
   7707  C2'       17.6000    1.8950   38.3500 C.3   361  C361        0.2309
   7708  O2'       17.3810    0.6670   39.0080 O.3   361  C361       -0.2156
   7709  C1'       18.0710    2.7820   39.5010 C.3   361  C361        0.2420
   7710  N1        17.8780    4.2400   39.3320 N.ar  361  C361       -0.2535
   7711  C2        16.5960    4.7750   39.5110 C.ar  361  C361        0.3532
   7712  O2        15.6600    4.0120   39.7900 O.2   361  C361       -0.2443
   7713  N3        16.4080    6.1060   39.3630 N.ar  361  C361       -0.1739
   7714  C4        17.4450    6.8980   39.0750 C.ar  361  C361        0.1759
   7715  N4        17.2190    8.2090   38.9740 N.pl3 361  C361       -0.1070
   7716  C5        18.7610    6.3820   38.8910 C.ar  361  C361        0.0566
   7717  C6        18.9330    5.0610   39.0390 C.ar  361  C361        0.0850
   7718  OP1       23.3890    2.9970   36.2500 O.3   361  C361       -0.4373
   7719  OP2       22.0400    5.1610   36.1470 O.co2 361  C361       -0.5172
   7720  P         18.1160    0.4890   35.3760 P.3   362  G362        0.2141
   7721  C5'       15.9530   -0.7640   36.2190 C.3   362  G362        0.1812
   7722  O5'       16.6090    0.4650   35.8850 O.3   362  G362       -0.3114
   7723  C4'       14.4850   -0.5030   36.4460 C.3   362  G362        0.1773
   7724  O4'       14.3100    0.5850   37.3900 O.3   362  G362       -0.3307
   7725  C3'       13.7300   -0.0570   35.2110 C.3   362  G362        0.1860
   7726  O3'       13.2750   -1.2200   34.5510 O.3   362  G362       -0.3112
   7727  C2'       12.5490    0.6930   35.8000 C.3   362  G362        0.2309
   7728  O2'       11.5690   -0.2350   36.1800 O.3   362  G362       -0.2156
   7729  C1'       13.1670    1.3410   37.0370 C.3   362  G362        0.2408
   7730  N1        11.6800    6.1940   36.6830 N.ar  362  G362       -0.1709
   7731  C2        10.9230    5.0610   36.8500 C.ar  362  G362        0.2606
   7732  N2         9.6010    5.2500   36.9660 N.pl3 362  G362       -0.0859
   7733  N3        11.4240    3.8360   36.9100 N.ar  362  G362       -0.1918
   7734  C4        12.7700    3.8340   36.8030 C.ar  362  G362        0.1723
   7735  C5        13.6210    4.9050   36.6310 C.ar  362  G362        0.1748
   7736  C6        13.0630    6.2180   36.5490 C.ar  362  G362        0.3023
   7737  O6        13.6450    7.3000   36.3910 O.2   362  G362       -0.2633
   7738  N7        14.9410    4.4780   36.5570 N.ar  362  G362       -0.2173
   7739  C8        14.8710    3.1810   36.6810 C.ar  362  G362        0.1817
   7740  N9        13.5840    2.7240   36.8380 N.ar  362  G362       -0.2693
   7741  OP1       18.3230   -0.7680   34.6060 O.2   362  G362       -0.5172
   7742  OP2       18.3900    1.7940   34.6840 O.co2 362  G362       -0.4373
   7743  P         13.2840   -1.2310   32.9700 P.3   363  U363        0.2141
   7744  C5'       10.6180   -1.0730   32.9710 C.3   363  U363        0.1812
   7745  O5'       11.8970   -0.4870   32.6920 O.3   363  U363       -0.3114
   7746  C4'        9.5110   -0.0420   32.8340 C.3   363  U363        0.1773
   7747  O4'        9.6210    0.9560   33.8930 O.3   363  U363       -0.3307
   7748  C3'        9.4700    0.7690   31.5430 C.3   363  U363        0.1860
   7749  O3'        8.8090    0.1190   30.4650 O.3   363  U363       -0.3112
   7750  C2'        8.7210    2.0290   31.9690 C.3   363  U363        0.2309
   7751  O2'        7.3120    1.9480   31.9240 O.3   363  U363       -0.2156
   7752  C1'        9.2270    2.2290   33.4000 C.3   363  U363        0.2420
   7753  N1        10.3910    3.1270   33.4290 N.ar  363  U363       -0.2534
   7754  C2        10.1530    4.4860   33.4570 C.ar  363  U363        0.3546
   7755  O2         9.0330    4.9600   33.5000 O.2   363  U363       -0.2443
   7756  N3        11.2810    5.2680   33.4400 N.ar  363  U363       -0.1530
   7757  C4        12.5910    4.8450   33.3730 C.ar  363  U363        0.2846
   7758  O4        13.4970    5.6770   33.3540 O.2   363  U363       -0.2650
   7759  C5        12.7540    3.4260   33.3260 C.ar  363  U363        0.0814
   7760  C6        11.6750    2.6350   33.3460 C.ar  363  U363        0.0870
   7761  OP1       13.1950   -2.6280   32.4940 O.2   363  U363       -0.5172
   7762  OP2       14.4440   -0.4180   32.5300 O.co2 363  U363       -0.4373
   7763  P          9.5370    0.2510   29.0350 P.3   364  A364        0.2141
   7764  C5'        7.7140    2.0490   28.3910 C.3   364  A364        0.1812
   7765  O5'        9.0860    1.7520   28.7230 O.3   364  A364       -0.3114
   7766  C4'        7.4800    3.5360   28.2510 C.3   364  A364        0.1773
   7767  O4'        7.9430    4.2620   29.4210 O.3   364  A364       -0.3307
   7768  C3'        8.1960    4.2390   27.1130 C.3   364  A364        0.1860
   7769  O3'        7.5290    3.9710   25.8920 O.3   364  A364       -0.3112
   7770  C2'        8.0510    5.6870   27.5440 C.3   364  A364        0.2309
   7771  O2'        6.7180    6.1110   27.3900 O.3   364  A364       -0.2156
   7772  C1'        8.3220    5.5770   29.0440 C.3   364  A364        0.2408
   7773  N1        12.1540    8.9130   29.9960 N.ar  364  A364       -0.2040
   7774  C2        10.8530    9.1000   29.7260 C.ar  364  A364        0.2016
   7775  N3         9.9020    8.1960   29.4960 N.ar  364  A364       -0.2048
   7776  C4        10.4080    6.9510   29.5530 C.ar  364  A364        0.1692
   7777  C5        11.7180    6.6020   29.8300 C.ar  364  A364        0.1518
   7778  C6        12.6250    7.6470   30.0520 C.ar  364  A364        0.1919
   7779  N6        13.9160    7.4560   30.3200 N.pl3 364  A364       -0.1054
   7780  N7        11.8710    5.2260   29.8200 N.ar  364  A364       -0.2193
   7781  C8        10.6720    4.7780   29.5400 C.ar  364  A364        0.1816
   7782  N9         9.7360    5.7650   29.3740 N.ar  364  A364       -0.2693
   7783  OP1        8.9590   -0.5940   27.9560 O.2   364  A364       -0.5172
   7784  OP2       11.0050    0.1900   29.2760 O.co2 364  A364       -0.4373
   7785  P          8.4530    3.7090   24.6130 P.3   365  U365        0.2141
   7786  C5'        8.1540    6.3430   24.3880 C.3   365  U365        0.1812
   7787  O5'        9.0120    5.1800   24.3780 O.3   365  U365       -0.3114
   7788  C4'        9.0050    7.5690   24.2010 C.3   365  U365        0.1773
   7789  O4'        9.5610    8.0050   25.4730 O.3   365  U365       -0.3307
   7790  C3'       10.2500    7.3540   23.3670 C.3   365  U365        0.1860
   7791  O3'        9.8940    7.3550   22.0090 O.3   365  U365       -0.3112
   7792  C2'       11.0600    8.5730   23.7550 C.3   365  U365        0.2309
   7793  O2'       10.4670    9.7440   23.2290 O.3   365  U365       -0.2156
   7794  C1'       10.8520    8.5650   25.2610 C.3   365  U365        0.2420
   7795  N1        11.8440    7.7310   25.9480 N.ar  365  U365       -0.2534
   7796  C2        12.9220    8.3690   26.5240 C.ar  365  U365        0.3546
   7797  O2        13.0720    9.5690   26.4890 O.2   365  U365       -0.2443
   7798  N3        13.8110    7.5400   27.1590 N.ar  365  U365       -0.1530
   7799  C4        13.7460    6.1680   27.2630 C.ar  365  U365        0.2846
   7800  O4        14.6320    5.5640   27.8650 O.2   365  U365       -0.2650
   7801  C5        12.6150    5.5770   26.6180 C.ar  365  U365        0.0814
   7802  C6        11.7240    6.3590   25.9980 C.ar  365  U365        0.0870
   7803  OP1        7.6180    3.4350   23.4210 O.2   365  U365       -0.5172
   7804  OP2        9.6420    2.8630   24.9030 O.co2 365  U365       -0.4373
   7805  P         11.0270    7.2000   20.9270 P.3   366  A366        0.2141
   7806  C5'       11.8950    9.6560   20.5710 C.3   366  A366        0.1812
   7807  O5'       12.0650    8.3770   21.2030 O.3   366  A366       -0.3114
   7808  C4'       13.0850   10.5360   20.8560 C.3   366  A366        0.1773
   7809  O4'       13.3660   10.6160   22.2820 O.3   366  A366       -0.3307
   7810  C3'       14.4450   10.0850   20.3400 C.3   366  A366        0.1860
   7811  O3'       14.5950   10.0380   18.9130 O.3   366  A366       -0.3112
   7812  C2'       15.3360   11.0900   21.0640 C.3   366  A366        0.2309
   7813  O2'       15.1130   12.3860   20.5580 O.3   366  A366       -0.2156
   7814  C1'       14.6790   11.1320   22.4480 C.3   366  A366        0.2408
   7815  N1        18.7690   11.0640   25.5300 N.ar  366  A366       -0.2040
   7816  C2        18.2920   11.9770   24.6770 C.ar  366  A366        0.2016
   7817  N3        17.2010   11.9320   23.9180 N.ar  366  A366       -0.2048
   7818  C4        16.5550   10.7660   24.0850 C.ar  366  A366        0.1692
   7819  C5        16.9280    9.7260   24.9140 C.ar  366  A366        0.1518
   7820  C6        18.0900    9.9100   25.6840 C.ar  366  A366        0.1919
   7821  N6        18.5610    9.0110   26.5420 N.pl3 366  A366       -0.1054
   7822  N7        16.0230    8.6790   24.8210 N.ar  366  A366       -0.2193
   7823  C8        15.1490    9.0940   23.9350 C.ar  366  A366        0.1816
   7824  N9        15.4040   10.3530   23.4570 N.ar  366  A366       -0.2693
   7825  OP1       10.2190    7.5600   19.7230 O.2   366  A366       -0.5172
   7826  OP2       11.7740    5.9050   21.0150 O.co2 366  A366       -0.4373
   7827  P         15.8860    9.2950   18.2590 P.3   367  C367        0.2141
   7828  C5'       18.4110    9.9450   18.6370 C.3   367  C367        0.1812
   7829  O5'       17.0640   10.3580   18.3910 O.3   367  C367       -0.3114
   7830  C4'       19.1720   11.0570   19.3100 C.3   367  C367        0.1773
   7831  O4'       18.8490   11.1120   20.7310 O.3   367  C367       -0.3307
   7832  C3'       20.6680   10.8490   19.3090 C.3   367  C367        0.1860
   7833  O3'       21.1470   11.1740   18.0140 O.3   367  C367       -0.3112
   7834  C2'       21.1100   11.7410   20.4580 C.3   367  C367        0.2309
   7835  O2'       21.0560   13.1000   20.1020 O.3   367  C367       -0.2156
   7836  C1'       19.9940   11.5070   21.4660 C.3   367  C367        0.2420
   7837  N1        20.3160   10.4640   22.4390 N.ar  367  C367       -0.2535
   7838  C2        21.2910   10.7280   23.4070 C.ar  367  C367        0.3532
   7839  O2        21.8670   11.8200   23.3940 O.2   367  C367       -0.2443
   7840  N3        21.5990    9.7750   24.3130 N.ar  367  C367       -0.1739
   7841  C4        20.9730    8.5960   24.2780 C.ar  367  C367        0.1759
   7842  N4        21.3200    7.6780   25.1840 N.pl3 367  C367       -0.1070
   7843  C5        19.9570    8.3100   23.3210 C.ar  367  C367        0.0566
   7844  C6        19.6690    9.2610   22.4230 C.ar  367  C367        0.0850
   7845  OP1       15.5570    9.1860   16.8190 O.2   367  C367       -0.5172
   7846  OP2       16.4180    8.1020   19.0000 O.co2 367  C367       -0.4373
   7847  P         22.2020   10.1640   17.3480 P.3   368  C368        0.2141
   7848  C5'       24.2330   11.6950   17.6840 C.3   368  C368        0.1812
   7849  O5'       23.4450   10.6400   18.2200 O.3   368  C368       -0.3114
   7850  C4'       25.2660   12.0950   18.6870 C.3   368  C368        0.1773
   7851  O4'       24.6820   12.0190   20.0000 O.3   368  C368       -0.3307
   7852  C3'       26.4250   11.1370   18.8180 C.3   368  C368        0.1860
   7853  O3'       27.3490   11.2320   17.7490 O.3   368  C368       -0.3112
   7854  C2'       26.9790   11.5120   20.1880 C.3   368  C368        0.2309
   7855  O2'       27.5060   12.7950   20.3190 O.3   368  C368       -0.2156
   7856  C1'       25.7000   11.7850   20.9580 C.3   368  C368        0.2420
   7857  N1        25.3160   10.6510   21.7910 N.ar  368  C368       -0.2535
   7858  C2        26.0160   10.4480   22.9800 C.ar  368  C368        0.3532
   7859  O2        26.9290   11.2360   23.2750 O.2   368  C368       -0.2443
   7860  N3        25.6970    9.3860   23.7650 N.ar  368  C368       -0.1739
   7861  C4        24.6900    8.5790   23.4150 C.ar  368  C368        0.1759
   7862  N4        24.3540    7.5970   24.2510 N.pl3 368  C368       -0.1070
   7863  C5        23.9590    8.7680   22.2070 C.ar  368  C368        0.0566
   7864  C6        24.3150    9.7960   21.4220 C.ar  368  C368        0.0850
   7865  OP1       22.3510   10.6390   15.9500 O.2   368  C368       -0.5172
   7866  OP2       21.6970    8.7870   17.6120 O.co2 368  C368       -0.4373
   7867  P         27.4790    9.8940   16.9100 P.3   369  G369        0.2141
   7868  C5'       28.0190    7.5150   17.8160 C.3   369  G369        0.1812
   7869  O5'       28.2810    8.9310   17.8970 O.3   369  G369       -0.3114
   7870  C4'       28.2180    6.8090   19.1390 C.3   369  G369        0.1773
   7871  O4'       29.4530    7.1740   19.7940 O.3   369  G369       -0.3307
   7872  C3'       27.0990    6.8700   20.1540 C.3   369  G369        0.1860
   7873  O3'       26.7500    5.4990   20.3070 O.3   369  G369       -0.3112
   7874  C2'       27.7290    7.4880   21.4150 C.3   369  G369        0.2309
   7875  O2'       27.3490    6.7670   22.5800 O.3   369  G369       -0.2156
   7876  C1'       29.2400    7.3820   21.1680 C.3   369  G369        0.2408
   7877  N1        32.2550    9.8530   24.4710 N.ar  369  G369       -0.1709
   7878  C2        31.6870    8.6060   24.5940 C.ar  369  G369        0.2606
   7879  N2        31.9710    7.9290   25.7220 N.pl3 369  G369       -0.0859
   7880  N3        30.8790    8.0710   23.6870 N.ar  369  G369       -0.1918
   7881  C4        30.7410    8.8650   22.6040 C.ar  369  G369        0.1723
   7882  C5        31.2720   10.1220   22.3850 C.ar  369  G369        0.1748
   7883  C6        32.1070   10.6940   23.3700 C.ar  369  G369        0.3023
   7884  O6        32.6650   11.7930   23.3520 O.2   369  G369       -0.2633
   7885  N7        30.8750   10.6180   21.1510 N.ar  369  G369       -0.2173
   7886  C8        30.1100    9.6820   20.6570 C.ar  369  G369        0.1817
   7887  N9        29.9800    8.5930   21.4890 N.ar  369  G369       -0.2693
   7888  OP1       28.3100   10.0580   15.7010 O.2   369  G369       -0.5172
   7889  OP2       26.1150    9.3470   16.7750 O.co2 369  G369       -0.4373
   7890  P         25.4480    4.8480   19.6510 P.3   370  A370        0.2141
   7891  C5'       24.3420    2.4970   20.0610 C.3   370  A370        0.1812
   7892  O5'       25.4700    3.3730   20.2660 O.3   370  A370       -0.3114
   7893  C4'       24.6290    1.1310   20.6120 C.3   370  A370        0.1773
   7894  O4'       25.6940    0.4700   19.8630 O.3   370  A370       -0.3307
   7895  C3'       25.1170    1.0930   22.0500 C.3   370  A370        0.1860
   7896  O3'       23.9850    1.0510   22.9010 O.3   370  A370       -0.3112
   7897  C2'       25.7790   -0.2750   22.1040 C.3   370  A370        0.2309
   7898  O2'       24.7270   -1.2080   21.9830 O.3   370  A370       -0.2156
   7899  C1'       26.4740   -0.3150   20.7520 C.3   370  A370        0.2408
   7900  N1        31.3500   -1.0120   22.2850 N.ar  370  A370       -0.2040
   7901  C2        30.2340   -1.7200   22.5050 C.ar  370  A370        0.2016
   7902  N3        28.9970   -1.5050   22.0600 N.ar  370  A370       -0.2048
   7903  C4        28.9460   -0.3720   21.3320 C.ar  370  A370        0.1692
   7904  C5        30.0020    0.4690   21.0350 C.ar  370  A370        0.1518
   7905  C6        31.2660    0.1110   21.5350 C.ar  370  A370        0.1919
   7906  N6        32.3800    0.8150   21.3040 N.pl3 370  A370       -0.1054
   7907  N7        29.5720    1.5440   20.2720 N.ar  370  A370       -0.2193
   7908  C8        28.2890    1.3320   20.1230 C.ar  370  A370        0.1816
   7909  N9        27.8350    0.2120   20.7670 N.ar  370  A370       -0.2693
   7910  OP1       25.5470    4.7370   18.1600 O.2   370  A370       -0.5172
   7911  OP2       24.2690    5.5120   20.3060 O.co2 370  A370       -0.4373
   7912  P         24.1530    1.8040   24.2780 P.3   371  A371        0.2141
   7913  C5'       25.1890   -0.4020   25.3720 C.3   371  A371        0.1812
   7914  O5'       25.2380    1.0210   25.1470 O.3   371  A371       -0.3114
   7915  C4'       26.4990   -0.8570   25.9830 C.3   371  A371        0.1773
   7916  O4'       27.5510   -0.9190   24.9710 O.3   371  A371       -0.3307
   7917  C3'       27.0640    0.0910   27.0290 C.3   371  A371        0.1860
   7918  O3'       26.3620   -0.1160   28.2540 O.3   371  A371       -0.3112
   7919  C2'       28.5310   -0.3080   27.0280 C.3   371  A371        0.2309
   7920  O2'       28.5880   -1.5540   27.6750 O.3   371  A371       -0.2156
   7921  C1'       28.7890   -0.5130   25.5340 C.3   371  A371        0.2408
   7922  N1        32.7110    2.6510   24.3280 N.ar  371  A371       -0.2040
   7923  C2        32.6510    1.5650   25.1020 C.ar  371  A371        0.2016
   7924  N3        31.6110    0.7860   25.3800 N.ar  371  A371       -0.2048
   7925  C4        30.5060    1.2250   24.7560 C.ar  371  A371        0.1692
   7926  C5        30.4030    2.3380   23.9480 C.ar  371  A371        0.1518
   7927  C6        31.5730    3.0970   23.7540 C.ar  371  A371        0.1919
   7928  N6        31.6260    4.2090   23.0130 N.pl3 371  A371       -0.1054
   7929  N7        29.0970    2.5090   23.5160 N.ar  371  A371       -0.2193
   7930  C8        28.4520    1.5030   24.0510 C.ar  371  A371        0.1816
   7931  N9        29.2390    0.6900   24.8230 N.ar  371  A371       -0.2693
   7932  OP1       22.8110    1.7660   24.9180 O.3   371  A371       -0.4373
   7933  OP2       24.7970    3.0970   23.9430 O.co2 371  A371       -0.5172
   7934  P         26.3810    0.9450   29.4270 P.3   372  C372        0.2141
   7935  C5'       28.7240    1.0590   30.6230 C.3   372  C372        0.1812
   7936  O5'       27.9190    1.3440   29.4860 O.3   372  C372       -0.3114
   7937  C4'       30.0780    1.6900   30.4420 C.3   372  C372        0.1773
   7938  O4'       30.4590    1.6770   29.0470 O.3   372  C372       -0.3307
   7939  C3'       30.1540    3.1620   30.7610 C.3   372  C372        0.1860
   7940  O3'       30.3010    3.3320   32.1550 O.3   372  C372       -0.3112
   7941  C2'       31.4680    3.5260   30.0950 C.3   372  C372        0.2309
   7942  O2'       32.6040    3.0030   30.7530 O.3   372  C372       -0.2156
   7943  C1'       31.3510    2.7540   28.7910 C.3   372  C372        0.2420
   7944  N1        30.7770    3.5960   27.7410 N.ar  372  C372       -0.2535
   7945  C2        31.5450    4.6280   27.1950 C.ar  372  C372        0.3532
   7946  O2        32.6970    4.8080   27.6210 O.2   372  C372       -0.2443
   7947  N3        31.0110    5.4050   26.2230 N.ar  372  C372       -0.1739
   7948  C4        29.7580    5.1960   25.8170 C.ar  372  C372        0.1759
   7949  N4        29.2600    5.9950   24.8740 N.pl3 372  C372       -0.1070
   7950  C5        28.9570    4.1550   26.3570 C.ar  372  C372        0.0566
   7951  C6        29.4960    3.3920   27.3150 C.ar  372  C372        0.0850
   7952  OP1       26.0800    0.2930   30.7130 O.3   372  C372       -0.4373
   7953  OP2       25.6090    2.1710   29.0300 O.co2 372  C372       -0.5172
   7954  P         29.4900    4.4750   32.9180 P.3   373  G373        0.2141
   7955  C5'       31.2850    6.3100   32.4940 C.3   373  G373        0.1812
   7956  O5'       29.9390    5.8590   32.2810 O.3   373  G373       -0.3114
   7957  C4'       31.5040    7.5670   31.7020 C.3   373  G373        0.1773
   7958  O4'       31.4620    7.2880   30.2690 O.3   373  G373       -0.3307
   7959  C3'       30.3820    8.5580   31.9030 C.3   373  G373        0.1860
   7960  O3'       30.5580    9.1420   33.1830 O.3   373  G373       -0.3112
   7961  C2'       30.5220    9.4100   30.6550 C.3   373  G373        0.2309
   7962  O2'       31.7040   10.1620   30.6500 O.3   373  G373       -0.2156
   7963  C1'       30.7800    8.3370   29.6040 C.3   373  G373        0.2408
   7964  N1        27.4840    8.8410   25.7800 N.ar  373  G373       -0.1709
   7965  C2        28.5900    9.5950   26.0830 C.ar  373  G373        0.2606
   7966  N2        28.8830   10.5790   25.2230 N.pl3 373  G373       -0.0859
   7967  N3        29.3650    9.3800   27.1330 N.ar  373  G373       -0.1918
   7968  C4        28.9570    8.3080   27.8460 C.ar  373  G373        0.1723
   7969  C5        27.8570    7.5040   27.6350 C.ar  373  G373        0.1748
   7970  C6        27.0350    7.7530   26.5170 C.ar  373  G373        0.3023
   7971  O6        26.0250    7.1540   26.1630 O.2   373  G373       -0.2633
   7972  N7        27.7560    6.5380   28.6240 N.ar  373  G373       -0.2173
   7973  C8        28.7800    6.7630   29.4060 C.ar  373  G373        0.1817
   7974  N9        29.5630    7.8100   28.9780 N.ar  373  G373       -0.2693
   7975  OP1       30.0270    4.4740   34.3090 O.3   373  G373       -0.4373
   7976  OP2       28.0690    4.0970   32.6160 O.co2 373  G373       -0.5172
   7977  P         29.3570    9.9710   33.8800 P.3   374  G374        0.2141
   7978  C5'       27.9850   11.8230   32.5770 C.3   374  G374        0.1812
   7979  O5'       29.2190   11.1130   32.7580 O.3   374  G374       -0.3114
   7980  C4'       27.9510   12.4370   31.2110 C.3   374  G374        0.1773
   7981  O4'       28.1350   11.4050   30.2070 O.3   374  G374       -0.3307
   7982  C3'       26.6390   13.0950   30.8190 C.3   374  G374        0.1860
   7983  O3'       26.5680   14.4070   31.4040 O.3   374  G374       -0.3112
   7984  C2'       26.7530   13.0910   29.2980 C.3   374  G374        0.2309
   7985  O2'       27.7310   13.9970   28.8580 O.3   374  G374       -0.2156
   7986  C1'       27.3990   11.7320   29.0380 C.3   374  G374        0.2408
   7987  N1        23.5910   10.1060   26.1180 N.ar  374  G374       -0.1709
   7988  C2        24.4030   11.1910   25.9440 C.ar  374  G374        0.2606
   7989  N2        24.1630   11.9320   24.8560 N.pl3 374  G374       -0.0859
   7990  N3        25.3980   11.5020   26.7570 N.ar  374  G374       -0.1918
   7991  C4        25.4760   10.6490   27.8000 C.ar  374  G374        0.1723
   7992  C5        24.7060    9.5350   28.0560 C.ar  374  G374        0.1748
   7993  C6        23.6930    9.1890   27.1510 C.ar  374  G374        0.3023
   7994  O6        22.9110    8.2460   27.2030 O.2   374  G374       -0.2633
   7995  N7        25.1260    8.9030   29.2150 N.ar  374  G374       -0.2173
   7996  C8        26.1190    9.6360   29.6450 C.ar  374  G374        0.1817
   7997  N9        26.4010   10.6960   28.8190 N.ar  374  G374       -0.2693
   7998  OP1       29.9630   10.5690   35.1130 O.3   374  G374       -0.4373
   7999  OP2       28.0810    9.2060   34.0280 O.co2 374  G374       -0.5172
   8000  P         25.1730   15.1700   31.7480 P.3   375  U375        0.2141
   8001  C5'       25.0660   16.4250   29.4250 C.3   375  U375        0.1812
   8002  O5'       24.4440   15.5180   30.3670 O.3   375  U375       -0.3114
   8003  C4'       24.1530   16.6600   28.2480 C.3   375  U375        0.1773
   8004  O4'       24.0950   15.4460   27.4620 O.3   375  U375       -0.3307
   8005  C3'       22.7060   16.9450   28.6340 C.3   375  U375        0.1860
   8006  O3'       22.4950   18.3380   28.8670 O.3   375  U375       -0.3112
   8007  C2'       21.9110   16.4230   27.4370 C.3   375  U375        0.2309
   8008  O2'       21.8830   17.2940   26.3390 O.3   375  U375       -0.2156
   8009  C1'       22.7810   15.2650   26.9490 C.3   375  U375        0.2420
   8010  N1        22.2770   13.9290   27.3110 N.ar  375  U375       -0.2534
   8011  C2        21.3420   13.3470   26.4680 C.ar  375  U375        0.3546
   8012  O2        20.9270   13.8870   25.4530 O.2   375  U375       -0.2443
   8013  N3        20.9380   12.0900   26.8360 N.ar  375  U375       -0.1530
   8014  C4        21.3150   11.3870   27.9600 C.ar  375  U375        0.2846
   8015  O4        20.8290   10.2700   28.1670 O.2   375  U375       -0.2650
   8016  C5        22.2880   12.0500   28.7780 C.ar  375  U375        0.0814
   8017  C6        22.7310   13.2660   28.4280 C.ar  375  U375        0.0870
   8018  OP1       25.6250   16.3950   32.4490 O.2   375  U375       -0.5172
   8019  OP2       24.2800   14.2090   32.4680 O.co2 375  U375       -0.4373
   8020  P         21.2770   18.8300   29.7600 P.3   376  A376        0.2141
   8021  C5'       22.8470   19.1920   31.8170 C.3   376  A376        0.1812
   8022  O5'       21.8070   18.4470   31.2030 O.3   376  A376       -0.3114
   8023  C4'       22.3880   19.6090   33.1850 C.3   376  A376        0.1773
   8024  O4'       21.2660   20.5250   33.0290 O.3   376  A376       -0.3307
   8025  C3'       21.8720   18.4720   34.0670 C.3   376  A376        0.1860
   8026  O3'       22.3540   18.7130   35.3870 O.3   376  A376       -0.3112
   8027  C2'       20.3520   18.6060   33.9310 C.3   376  A376        0.2309
   8028  O2'       19.5540   17.9390   34.9000 O.3   376  A376       -0.2156
   8029  C1'       20.2130   20.1260   33.8780 C.3   376  A376        0.2408
   8030  N1        17.3880   24.3360   33.1880 N.ar  376  A376       -0.2040
   8031  C2        18.5750   24.1270   33.7700 C.ar  376  A376        0.2016
   8032  N3        19.2570   22.9950   33.9100 N.ar  376  A376       -0.2048
   8033  C4        18.5870   21.9680   33.3560 C.ar  376  A376        0.1692
   8034  C5        17.3600   22.0250   32.7190 C.ar  376  A376        0.1518
   8035  C6        16.7340   23.2830   32.6520 C.ar  376  A376        0.1919
   8036  N6        15.5550   23.4980   32.0570 N.pl3 376  A376       -0.1054
   8037  N7        16.9840   20.7680   32.2680 N.ar  376  A376       -0.2193
   8038  C8        17.9760   19.9940   32.6320 C.ar  376  A376        0.1816
   8039  N9        18.9680   20.6500   33.3190 N.ar  376  A376       -0.2693
   8040  OP1       20.0610   17.9990   29.4810 O.2   376  A376       -0.5172
   8041  OP2       21.1770   20.3080   29.7030 O.co2 376  A376       -0.4373
   8042  P         23.4250   17.7090   35.9830 P.3   377  C377        0.2141
   8043  C5'       21.9650   15.5420   35.5680 C.3   377  C377        0.1812
   8044  O5'       22.4780   16.5310   36.4560 O.3   377  C377       -0.3114
   8045  C4'       21.7920   14.2810   36.3780 C.3   377  C377        0.1773
   8046  O4'       21.2910   14.5800   37.7280 O.3   377  C377       -0.3307
   8047  C3'       20.8240   13.2500   35.8190 C.3   377  C377        0.1860
   8048  O3'       21.4850   12.4970   34.8360 O.3   377  C377       -0.3112
   8049  C2'       20.4960   12.4430   37.0680 C.3   377  C377        0.2309
   8050  O2'       21.4850   11.5470   37.5100 O.3   377  C377       -0.2156
   8051  C1'       20.3810   13.5530   38.1190 C.3   377  C377        0.2420
   8052  N1        19.0170   14.0960   38.1210 N.ar  377  C377       -0.2535
   8053  C2        17.9670   13.2730   38.5360 C.ar  377  C377        0.3532
   8054  O2        18.2210   12.1210   38.9210 O.2   377  C377       -0.2443
   8055  N3        16.7030   13.7520   38.5060 N.ar  377  C377       -0.1739
   8056  C4        16.4640   14.9730   38.0210 C.ar  377  C377        0.1759
   8057  N4        15.2040   15.4080   38.0090 N.pl3 377  C377       -0.1070
   8058  C5        17.5130   15.8140   37.5510 C.ar  377  C377        0.0566
   8059  C6        18.7620   15.3380   37.6120 C.ar  377  C377        0.0850
   8060  OP1       24.1520   18.0950   37.2480 O.3   377  C377       -0.4373
   8061  OP2       24.1380   17.2610   34.7480 O.co2 377  C377       -0.5172
   8062  P         20.6370   11.7820   33.6820 P.3   378  G378        0.2141
   8063  C5'       20.7080   13.9780   32.1410 C.3   378  G378        0.1812
   8064  O5'       19.9910   12.8120   32.6390 O.3   378  G378       -0.3114
   8065  C4'       19.8440   14.7840   31.1910 C.3   378  G378        0.1773
   8066  O4'       19.8490   14.1940   29.8590 O.3   378  G378       -0.3307
   8067  C3'       18.3770   14.9410   31.5800 C.3   378  G378        0.1860
   8068  O3'       18.2520   16.0970   32.4090 O.3   378  G378       -0.3112
   8069  C2'       17.6980   15.1250   30.2280 C.3   378  G378        0.2309
   8070  O2'       17.8290   16.4290   29.7280 O.3   378  G378       -0.2156
   8071  C1'       18.5450   14.2360   29.3140 C.3   378  G378        0.2408
   8072  N1        15.0880   11.0390   27.3770 N.ar  378  G378       -0.1709
   8073  C2        15.2520   12.3750   27.1360 C.ar  378  G378        0.2606
   8074  N2        14.4070   12.9130   26.2540 N.pl3 378  G378       -0.0859
   8075  N3        16.1910   13.1190   27.6980 N.ar  378  G378       -0.1918
   8076  C4        16.9760   12.3960   28.5240 C.ar  378  G378        0.1723
   8077  C5        16.9050   11.0520   28.8150 C.ar  378  G378        0.1748
   8078  C6        15.8930   10.2730   28.2060 C.ar  378  G378        0.3023
   8079  O6        15.6580    9.0720   28.3420 O.2   378  G378       -0.2633
   8080  N7        17.8760   10.6970   29.7370 N.ar  378  G378       -0.2173
   8081  C8        18.5280   11.8040   29.9650 C.ar  378  G378        0.1817
   8082  N9        18.0450   12.8700   29.2500 N.ar  378  G378       -0.2693
   8083  OP1       19.5330   11.0550   34.3670 O.3   378  G378       -0.4373
   8084  OP2       21.6530   11.0400   32.8500 O.co2 378  G378       -0.5172
   8085  P         17.0910   16.2830   33.4740 P.3   379  U379        0.2141
   8086  C5'       15.4540   17.0370   31.5730 C.3   379  U379        0.1812
   8087  O5'       15.8330   16.0360   32.5260 O.3   379  U379       -0.3114
   8088  C4'       14.1890   16.6570   30.8500 C.3   379  U379        0.1773
   8089  O4'       14.4880   15.6190   29.8850 O.3   379  U379       -0.3307
   8090  C3'       13.0730   16.0700   31.7000 C.3   379  U379        0.1860
   8091  O3'       12.3490   17.0970   32.3490 O.3   379  U379       -0.3112
   8092  C2'       12.2740   15.2910   30.6620 C.3   379  U379        0.2309
   8093  O2'       11.4020   16.0460   29.8550 O.3   379  U379       -0.2156
   8094  C1'       13.4020   14.7150   29.8140 C.3   379  U379        0.2420
   8095  N1        13.8780   13.4230   30.3130 N.ar  379  U379       -0.2534
   8096  C2        13.2650   12.2920   29.8170 C.ar  379  U379        0.3546
   8097  O2        12.3460   12.3370   29.0160 O.2   379  U379       -0.2443
   8098  N3        13.7730   11.1090   30.2930 N.ar  379  U379       -0.1530
   8099  C4        14.8040   10.9470   31.1950 C.ar  379  U379        0.2846
   8100  O4        15.1530    9.8110   31.5200 O.2   379  U379       -0.2650
   8101  C5        15.3820   12.1690   31.6620 C.ar  379  U379        0.0814
   8102  C6        14.9230   13.3340   31.2040 C.ar  379  U379        0.0870
   8103  OP1       17.1560   17.6670   33.9280 O.2   379  U379       -0.5172
   8104  OP2       17.0530   15.2490   34.5210 O.co2 379  U379       -0.4373
   8105  P         11.5920   17.0420   33.7370 P.3   380  A380        0.2141
   8106  C5'        9.4480   16.1860   32.5100 C.3   380  A380        0.1812
   8107  O5'       10.5320   15.9000   33.4110 O.3   380  A380       -0.3114
   8108  C4'        8.3590   15.1390   32.5900 C.3   380  A380        0.1773
   8109  O4'        8.7160   14.0220   31.7320 O.3   380  A380       -0.3307
   8110  C3'        8.0910   14.5130   33.9570 C.3   380  A380        0.1860
   8111  O3'        7.1410   15.2450   34.7120 O.3   380  A380       -0.3112
   8112  C2'        7.5180   13.1600   33.5670 C.3   380  A380        0.2309
   8113  O2'        6.1790   13.2850   33.1440 O.3   380  A380       -0.2156
   8114  C1'        8.3950   12.8010   32.3700 C.3   380  A380        0.2408
   8115  N1        10.7430    8.2580   32.8440 N.ar  380  A380       -0.2040
   8116  C2         9.4860    8.5950   32.5320 C.ar  380  A380        0.2016
   8117  N3         8.9400    9.8040   32.4190 N.ar  380  A380       -0.2048
   8118  C4         9.8470   10.7600   32.6870 C.ar  380  A380        0.1692
   8119  C5        11.1790   10.5720   33.0130 C.ar  380  A380        0.1518
   8120  C6        11.6380    9.2440   33.0780 C.ar  380  A380        0.1919
   8121  N6        12.8980    8.9070   33.3690 N.pl3 380  A380       -0.1054
   8122  N7        11.8080   11.7890   33.2240 N.ar  380  A380       -0.2193
   8123  C8        10.8610   12.6730   33.0140 C.ar  380  A380        0.1816
   8124  N9         9.6460   12.1180   32.6980 N.ar  380  A380       -0.2693
   8125  OP1       10.9280   18.3670   33.7480 O.2   380  A380       -0.5172
   8126  OP2       12.3750   16.6820   34.9070 O.co2 380  A380       -0.4373
   8127  P          7.0070   15.0020   36.2900 P.3   381  C381        0.2141
   8128  C5'        5.3290   13.0160   36.3690 C.3   381  C381        0.1812
   8129  O5'        6.6950   13.4420   36.3790 O.3   381  C381       -0.3114
   8130  C4'        5.2200   11.5260   36.5360 C.3   381  C381        0.1773
   8131  O4'        6.0210   10.8530   35.5260 O.3   381  C381       -0.3307
   8132  C3'        5.7460   10.9600   37.8420 C.3   381  C381        0.1860
   8133  O3'        4.8150   11.0800   38.8960 O.3   381  C381       -0.3112
   8134  C2'        5.9340    9.5040   37.4630 C.3   381  C381        0.2309
   8135  O2'        4.7090    8.8080   37.4220 O.3   381  C381       -0.2156
   8136  C1'        6.5450    9.6490   36.0670 C.3   381  C381        0.2420
   8137  N1         8.0110    9.7690   36.1400 N.ar  381  C381       -0.2535
   8138  C2         8.7810    8.6030   36.1780 C.ar  381  C381        0.3532
   8139  O2         8.2100    7.5040   36.1070 O.2   381  C381       -0.2443
   8140  N3        10.1280    8.7040   36.2680 N.ar  381  C381       -0.1739
   8141  C4        10.7010    9.9060   36.3520 C.ar  381  C381        0.1759
   8142  N4        12.0250    9.9590   36.4490 N.pl3 381  C381       -0.1070
   8143  C5         9.9390   11.1070   36.3410 C.ar  381  C381        0.0566
   8144  C6         8.6090   10.9940   36.2410 C.ar  381  C381        0.0850
   8145  OP1        5.7580   15.7090   36.6550 O.2   381  C381       -0.5172
   8146  OP2        8.2450   15.3240   37.0410 O.co2 381  C381       -0.4373
   8147  P          5.3000   11.2490   40.4220 P.3   382  G382        0.2141
   8148  C5'        6.5760    9.1990   41.4510 C.3   382  G382        0.1812
   8149  O5'        5.4720    9.6880   40.6890 O.3   382  G382       -0.3114
   8150  C4'        6.7100    7.7190   41.2430 C.3   382  G382        0.1773
   8151  O4'        7.1740    7.4780   39.8810 O.3   382  G382       -0.3307
   8152  C3'        7.7480    7.0550   42.1310 C.3   382  G382        0.1860
   8153  O3'        7.2010    6.6970   43.3880 O.3   382  G382       -0.3112
   8154  C2'        8.2080    5.9040   41.2520 C.3   382  G382        0.2309
   8155  O2'        7.2470    4.8710   41.1710 O.3   382  G382       -0.2156
   8156  C1'        8.3030    6.6150   39.9020 C.3   382  G382        0.2408
   8157  N1        13.3770    6.5570   39.6880 N.ar  382  G382       -0.1709
   8158  C2        12.5000    5.5130   39.8210 C.ar  382  G382        0.2606
   8159  N2        13.0470    4.2960   39.9180 N.pl3 382  G382       -0.0859
   8160  N3        11.1860    5.6520   39.8540 N.ar  382  G382       -0.1918
   8161  C4        10.8130    6.9450   39.7440 C.ar  382  G382        0.1723
   8162  C5        11.6120    8.0610   39.6130 C.ar  382  G382        0.1748
   8163  C6        13.0180    7.8930   39.5740 C.ar  382  G382        0.3023
   8164  O6        13.8930    8.7550   39.4720 O.2   382  G382       -0.2633
   8165  N7        10.8400    9.2130   39.5410 N.ar  382  G382       -0.2173
   8166  C8         9.6100    8.7850   39.6320 C.ar  382  G382        0.1817
   8167  N9         9.5210    7.4180   39.7560 N.ar  382  G382       -0.2693
   8168  OP1        4.1280   11.7980   41.1700 O.3   382  G382       -0.4373
   8169  OP2        6.6280   11.9340   40.5430 O.co2 382  G382       -0.5172
   8170  P          7.8840    7.2550   44.7530 P.3   383  G383        0.2141
   8171  C5'        8.9820    4.8590   44.7700 C.3   383  G383        0.1812
   8172  O5'        9.1620    6.2990   44.7840 O.3   383  G383       -0.3114
   8173  C4'       10.2990    4.1200   44.7210 C.3   383  G383        0.1773
   8174  O4'       10.9120    4.2710   43.4060 O.3   383  G383       -0.3307
   8175  C3'       11.3880    4.5880   45.6750 C.3   383  G383        0.1860
   8176  O3'       11.2180    4.2100   47.0360 O.3   383  G383       -0.3112
   8177  C2'       12.6190    3.9840   45.0130 C.3   383  G383        0.2309
   8178  O2'       12.7550    2.5860   45.1750 O.3   383  G383       -0.2156
   8179  C1'       12.3310    4.3030   43.5430 C.3   383  G383        0.2408
   8180  N1        16.4410    7.1520   42.6380 N.ar  383  G383       -0.1709
   8181  C2        16.3550    5.8200   42.9480 C.ar  383  G383        0.2606
   8182  N2        17.5120    5.1580   43.0350 N.pl3 383  G383       -0.0859
   8183  N3        15.2170    5.1800   43.1470 N.ar  383  G383       -0.1918
   8184  C4        14.1490    5.9930   43.0160 C.ar  383  G383        0.1723
   8185  C5        14.1260    7.3360   42.7080 C.ar  383  G383        0.1748
   8186  C6        15.3570    8.0070   42.4810 C.ar  383  G383        0.3023
   8187  O6        15.5460    9.1890   42.1860 O.2   383  G383       -0.2633
   8188  N7        12.8210    7.8080   42.6640 N.ar  383  G383       -0.2173
   8189  C8        12.0880    6.7660   42.9510 C.ar  383  G383        0.1817
   8190  N9        12.8280    5.6290   43.1630 N.ar  383  G383       -0.2693
   8191  OP1        6.9530    6.8140   45.8420 O.3   383  G383       -0.4373
   8192  OP2        8.3430    8.6760   44.7300 O.co2 383  G383       -0.5172
   8193  P         11.7500    5.1460   48.2440 P.3   384  U384        0.2141
   8194  C5'       14.0450    3.7980   48.0520 C.3   384  U384        0.1812
   8195  O5'       13.3410    5.0490   48.1880 O.3   384  U384       -0.3114
   8196  C4'       15.5280    4.0630   47.9370 C.3   384  U384        0.1773
   8197  O4'       15.8560    4.5270   46.5920 O.3   384  U384       -0.3307
   8198  C3'       16.0550    5.1640   48.8440 C.3   384  U384        0.1860
   8199  O3'       16.1720    4.7520   50.2010 O.3   384  U384       -0.3112
   8200  C2'       17.3440    5.5620   48.1300 C.3   384  U384        0.2309
   8201  O2'       18.4880    4.7840   48.4170 O.3   384  U384       -0.2156
   8202  C1'       16.9080    5.4890   46.6610 C.3   384  U384        0.2420
   8203  N1        16.4080    6.7950   46.1870 N.ar  384  U384       -0.2534
   8204  C2        17.3360    7.7460   45.7990 C.ar  384  U384        0.3546
   8205  O2        18.5350    7.5350   45.7750 O.2   384  U384       -0.2443
   8206  N3        16.8000    8.9490   45.4140 N.ar  384  U384       -0.1530
   8207  C4        15.4680    9.3030   45.3880 C.ar  384  U384        0.2846
   8208  O4        15.1460   10.4360   45.0210 O.2   384  U384       -0.2650
   8209  C5        14.5730    8.2710   45.8120 C.ar  384  U384        0.0814
   8210  C6        15.0620    7.0860   46.1980 C.ar  384  U384        0.0870
   8211  OP1       11.3340    4.5050   49.5210 O.3   384  U384       -0.4373
   8212  OP2       11.3820    6.5740   48.0010 O.co2 384  U384       -0.5172
   8213  P         16.6910    5.7390   51.3680 P.3   385  G385        0.2141
   8214  C5'       19.1520    6.5120   51.9560 C.3   385  G385        0.1812
   8215  O5'       18.2280    5.9580   51.0100 O.3   385  G385       -0.3114
   8216  C4'       20.5550    6.4020   51.4170 C.3   385  G385        0.1773
   8217  O4'       20.5330    6.3340   49.9600 O.3   385  G385       -0.3307
   8218  C3'       21.4270    7.6010   51.7210 C.3   385  G385        0.1860
   8219  O3'       21.9030    7.5410   53.0530 O.3   385  G385       -0.3112
   8220  C2'       22.4470    7.5480   50.5900 C.3   385  G385        0.2309
   8221  O2'       23.4830    6.6000   50.7490 O.3   385  G385       -0.2156
   8222  C1'       21.5410    7.1810   49.4150 C.3   385  G385        0.2408
   8223  N1        22.1700   11.5170   46.8040 N.ar  385  G385       -0.1709
   8224  C2        23.1150   10.6210   47.2350 C.ar  385  G385        0.2606
   8225  N2        24.3890   10.9220   46.9390 N.pl3 385  G385       -0.0859
   8226  N3        22.8340    9.5170   47.9160 N.ar  385  G385       -0.1918
   8227  C4        21.5060    9.3770   48.1220 C.ar  385  G385        0.1723
   8228  C5        20.4820   10.2150   47.7290 C.ar  385  G385        0.1748
   8229  C6        20.8010   11.3960   47.0080 C.ar  385  G385        0.3023
   8230  O6        20.0370   12.2670   46.5780 O.2   385  G385       -0.2633
   8231  N7        19.2520    9.7150   48.1360 N.ar  385  G385       -0.2173
   8232  C8        19.5430    8.6060   48.7610 C.ar  385  G385        0.1817
   8233  N9        20.8930    8.3400   48.7930 N.ar  385  G385       -0.2693
   8234  OP1       16.6120    4.9460   52.6210 O.3   385  G385       -0.4373
   8235  OP2       16.0230    7.0580   51.2980 O.co2 385  G385       -0.5172
   8236  P         21.7420    8.9120   53.8720 P.3   386  G386        0.2141
   8237  C5'       24.3120    9.2340   53.4290 C.3   386  G386        0.1812
   8238  O5'       22.9660    9.7420   53.2690 O.3   386  G386       -0.3114
   8239  C4'       25.2580    9.8160   52.4020 C.3   386  G386        0.1773
   8240  O4'       24.6540    9.8100   51.0760 O.3   386  G386       -0.3307
   8241  C3'       25.6460   11.2680   52.6190 C.3   386  G386        0.1860
   8242  O3'       26.6330   11.4600   53.6230 O.3   386  G386       -0.3112
   8243  C2'       26.1120   11.6730   51.2270 C.3   386  G386        0.2309
   8244  O2'       27.4580   11.3140   50.9640 O.3   386  G386       -0.2156
   8245  C1'       25.0680   10.9690   50.3570 C.3   386  G386        0.2408
   8246  N1        23.2690   15.1970   48.1810 N.ar  386  G386       -0.1709
   8247  C2        24.5510   14.7020   48.1950 C.ar  386  G386        0.2606
   8248  N2        25.4720   15.4220   47.5390 N.pl3 386  G386       -0.0859
   8249  N3        24.9060   13.5850   48.8100 N.ar  386  G386       -0.1918
   8250  C4        23.8540   12.9810   49.4030 C.ar  386  G386        0.1723
   8251  C5        22.5360   13.3910   49.4460 C.ar  386  G386        0.1748
   8252  C6        22.1710   14.5950   48.7900 C.ar  386  G386        0.3023
   8253  O6        21.0550   15.1180   48.7070 O.2   386  G386       -0.2633
   8254  N7        21.7610   12.4880   50.1620 N.ar  386  G386       -0.2173
   8255  C8        22.6060   11.5630   50.5350 C.ar  386  G386        0.1817
   8256  N9        23.8900   11.7940   50.1000 N.ar  386  G386       -0.2693
   8257  OP1       22.0690    8.6370   55.3040 O.3   386  G386       -0.4373
   8258  OP2       20.4360    9.5390   53.5140 O.co2 386  G386       -0.5172
   8259  P         26.4250   12.7810   54.4910 P.3   387  U387        0.2141
   8260  C5'       28.2670   13.8900   52.9860 C.3   387  U387        0.1812
   8261  O5'       26.9620   13.9660   53.5740 O.3   387  U387       -0.3114
   8262  C4'       28.4750   15.0490   52.0510 C.3   387  U387        0.1773
   8263  O4'       27.4710   15.0370   51.0000 O.3   387  U387       -0.3307
   8264  C3'       28.3040   16.4210   52.6660 C.3   387  U387        0.1860
   8265  O3'       29.4650   16.7960   53.3770 O.3   387  U387       -0.3112
   8266  C2'       28.1040   17.2700   51.4260 C.3   387  U387        0.2309
   8267  O2'       29.3540   17.3540   50.7740 O.3   387  U387       -0.2156
   8268  C1'       27.1740   16.3720   50.6120 C.3   387  U387        0.2420
   8269  N1        25.7420   16.6080   50.8450 N.ar  387  U387       -0.2534
   8270  C2        25.1880   17.7970   50.4020 C.ar  387  U387        0.3546
   8271  O2        25.8410   18.6710   49.8540 O.2   387  U387       -0.2443
   8272  N3        23.8380   17.9240   50.6330 N.ar  387  U387       -0.1530
   8273  C4        23.0050   17.0130   51.2540 C.ar  387  U387        0.2846
   8274  O4        21.8090   17.2760   51.3940 O.2   387  U387       -0.2650
   8275  C5        23.6520   15.8050   51.6670 C.ar  387  U387        0.0814
   8276  C6        24.9630   15.6460   51.4500 C.ar  387  U387        0.0870
   8277  OP1       27.2970   12.7200   55.6930 O.3   387  U387       -0.4373
   8278  OP2       24.9560   12.9910   54.6230 O.co2 387  U387       -0.5172
   8279  P         29.1590   17.5920   54.7030 P.3   388  G388        0.2141
   8280  C5'       28.9270   19.5630   52.9050 C.3   388  G388        0.1812
   8281  O5'       29.2410   19.1190   54.2530 O.3   388  G388       -0.3114
   8282  C4'       28.0950   20.8220   52.9610 C.3   388  G388        0.1773
   8283  O4'       26.7200   20.5060   52.5990 O.3   388  G388       -0.3307
   8284  C3'       28.0640   21.4520   54.3530 C.3   388  G388        0.1860
   8285  O3'       28.3600   22.8340   54.4540 O.3   388  G388       -0.3112
   8286  C2'       26.6800   21.1120   54.9010 C.3   388  G388        0.2309
   8287  O2'       26.1210   22.0440   55.8110 O.3   388  G388       -0.2156
   8288  C1'       25.8470   20.9290   53.6290 C.3   388  G388        0.2408
   8289  N1        20.9140   19.7270   53.7950 N.ar  388  G388       -0.1709
   8290  C2        21.5120   20.8850   53.3630 C.ar  388  G388        0.2606
   8291  N2        20.6880   21.8480   52.9360 N.pl3 388  G388       -0.0859
   8292  N3        22.8210   21.0800   53.3470 N.ar  388  G388       -0.1918
   8293  C4        23.4960   20.0060   53.8100 C.ar  388  G388        0.1723
   8294  C5        22.9950   18.8000   54.2550 C.ar  388  G388        0.1748
   8295  C6        21.5880   18.6020   54.2560 C.ar  388  G388        0.3023
   8296  O6        20.9500   17.5990   54.5940 O.2   388  G388       -0.2633
   8297  N7        24.0240   17.9480   54.6370 N.ar  388  G388       -0.2173
   8298  C8        25.1100   18.6400   54.4260 C.ar  388  G388        0.1817
   8299  N9        24.8640   19.8810   53.8850 N.ar  388  G388       -0.2693
   8300  OP1       30.2760   17.3610   55.6490 O.3   388  G388       -0.4373
   8301  OP2       27.7650   17.3010   55.1210 O.co2 388  G388       -0.5172
   8302  P         28.9110   23.2120   55.8960 P.3   389  U389        0.2141
   8303  C5'       27.9810   25.6050   55.8380 C.3   389  U389        0.1812
   8304  O5'       29.1290   24.7740   55.7450 O.3   389  U389       -0.3114
   8305  C4'       27.9590   26.6080   54.7180 C.3   389  U389        0.1773
   8306  O4'       27.0970   26.1260   53.6470 O.3   389  U389       -0.3307
   8307  C3'       27.3710   27.9370   55.1710 C.3   389  U389        0.1860
   8308  O3'       28.4250   28.8240   55.5640 O.3   389  U389       -0.3112
   8309  C2'       26.3540   28.2780   54.0730 C.3   389  U389        0.2309
   8310  O2'       26.9180   28.9500   52.9580 O.3   389  U389       -0.2156
   8311  C1'       25.8980   26.8830   53.6340 C.3   389  U389        0.2420
   8312  N1        24.8780   26.1320   54.4070 N.ar  389  U389       -0.2534
   8313  C2        23.5500   26.5570   54.4300 C.ar  389  U389        0.3546
   8314  O2        23.1690   27.6010   53.9260 O.2   389  U389       -0.2443
   8315  N3        22.6950   25.7250   55.1100 N.ar  389  U389       -0.1530
   8316  C4        23.0060   24.5310   55.7390 C.ar  389  U389        0.2846
   8317  O4        22.1190   23.8950   56.3160 O.2   389  U389       -0.2650
   8318  C5        24.3820   24.1510   55.6450 C.ar  389  U389        0.0814
   8319  C6        25.2430   24.9320   54.9830 C.ar  389  U389        0.0870
   8320  OP1       30.2120   22.5250   56.0950 O.2   389  U389       -0.5172
   8321  OP2       27.8400   23.1130   56.9180 O.co2 389  U389       -0.4373
   8322  P         28.9790   28.8020   57.0950 P.3   390  G390        0.2141
   8323  C5'       27.4380   30.8190   57.7730 C.3   390  G390        0.1812
   8324  O5'       27.7510   29.4190   57.8960 O.3   390  G390       -0.3114
   8325  C4'       26.0750   30.9900   57.1530 C.3   390  G390        0.1773
   8326  O4'       25.7430   29.7910   56.4060 O.3   390  G390       -0.3307
   8327  C3'       24.9290   31.1560   58.1410 C.3   390  G390        0.1860
   8328  O3'       24.8000   32.5070   58.5590 O.3   390  G390       -0.3112
   8329  C2'       23.7440   30.6280   57.3460 C.3   390  G390        0.2309
   8330  O2'       23.2500   31.5530   56.4030 O.3   390  G390       -0.2156
   8331  C1'       24.3860   29.4410   56.6280 C.3   390  G390        0.2408
   8332  N1        21.3210   26.0370   58.7950 N.ar  390  G390       -0.1709
   8333  C2        21.0150   27.2080   58.1390 C.ar  390  G390        0.2606
   8334  N2        19.7150   27.5130   58.0460 N.pl3 390  G390       -0.0859
   8335  N3        21.9180   28.0180   57.6160 N.ar  390  G390       -0.1918
   8336  C4        23.1760   27.5600   57.7970 C.ar  390  G390        0.1723
   8337  C5        23.5910   26.4110   58.4400 C.ar  390  G390        0.1748
   8338  C6        22.6090   25.5460   59.0000 C.ar  390  G390        0.3023
   8339  O6        22.7740   24.4750   59.6010 O.2   390  G390       -0.2633
   8340  N7        24.9760   26.3050   58.4140 N.ar  390  G390       -0.2173
   8341  C8        25.3700   27.3730   57.7730 C.ar  390  G390        0.1817
   8342  N9        24.3280   28.1770   57.3720 N.ar  390  G390       -0.2693
   8343  OP1       30.0910   29.7910   57.1720 O.2   390  G390       -0.5172
   8344  OP2       29.1680   27.4350   57.6720 O.co2 390  G390       -0.4373
   8345  P         25.2390   32.8770   60.0570 P.3   391  G391        0.2141
   8346  C5'       24.7080   30.8540   61.7140 C.3   391  G391        0.1812
   8347  O5'       24.2500   32.0130   60.9690 O.3   391  G391       -0.3114
   8348  C4'       23.7920   29.6720   61.4740 C.3   391  G391        0.1780
   8349  O4'       24.4410   28.4490   61.9090 O.3   391  G391       -0.3482
   8350  C3'       22.4730   29.7040   62.2320 C.3   391  G391        0.2140
   8351  O3'       21.5160   30.4670   61.4990 O.3   391  G391       -0.2176
   8352  C2'       22.0970   28.2230   62.3500 C.3   391  G391        0.2140
   8353  O2'       21.2270   27.7400   61.3460 O.3   391  G391       -0.2176
   8354  C1'       23.4610   27.5180   62.3270 C.3   391  G391        0.1777
   8355  OP1       24.8990   34.3180   60.2010 O.2   391  G391       -0.5172
   8356  OP2       26.6380   32.4150   60.3170 O.co2 391  G391       -0.4373
@<TRIPOS>BOND
     1   597   576    2
     2   620   599    2
     3   559   576    1
     4   559   558    1
     5   577   579    1
     6   577   578    1
     7   576   578    1
     8   576   598    1
     9   582   599    1
    10   582   581    1
    11   561   560    1
    12   579   581    1
    13   579   580    1
    14   599   621    1
    15   599   601    1
    16   556   558    1
    17   556   554    1
    18   556   557    1
    19   558   560    1
    20   554   555    1
    21   581   583    1
    22   869   870   ar
    23   869   868   ar
    24   539   538    1
    25   574   553    2
    26   560   562    1
    27   584   583    1
    28   866   865    1
    29   600   601    1
    30   600   602    1
    31   870   871   ar
    32   580   585    1
    33   557   562    1
    34   868   873   ar
    35   583   585    1
    36   640   622    2
    37   537   553    1
    38   537   536    1
    39   555   553    1
    40   562   573    1
    41   542   543   ar
    42   542   541   ar
    43   538   536    1
    44   538   540    1
    45   543   544   ar
    46   553   575    1
    47   865   867    1
    48   865   863    1
    49   585   596    1
    50   641   622    1
    51   881   883    1
    52   881   882    1
    53   871   877   ar
    54   871   872   ar
    55   602   604    1
    56   602   603    1
    57   883   884    1
    58   883   885    1
    59   536   534    1
    60   920   902    2
    61   622   605    1
    62   622   624    1
    63   873   872   ar
    64   873   874    1
    65   541   546   ar
    66   888   887    1
    67   886   885    1
    68   886   902    1
    69   867   877    1
    70   867   862    1
    71   605   604    1
    72   540   550    1
    73   540   535    1
    74   864   863    1
    75   864   880    1
    76   900   880    2
    77   544   550   ar
    78   544   545   ar
    79   884   889    1
    80   573   572   ar
    81   573   567   ar
    82   604   606    1
    83   877   876   ar
    84   872   875   ar
    85   863   861    1
    86   534   535    1
    87   534   532    1
    88   885   887    1
    89   603   608    1
    90   596   595   ar
    91   596   590   ar
    92   550   549   ar
    93   566   567   ar
    94   566   564   ar
    95   902   921    1
    96   902   904    1
    97   882   880    1
    98   595   594   ar
    99   887   889    1
   100   880   901    1
   101   889   899    1
   102   664   642    2
   103   903   904    1
   104   903   905    1
   105   862   861    1
   106   546   545   ar
   107   546   547    1
   108   708   687    2
   109   572   571   ar
   110   567   568   ar
   111   861   859    1
   112   624   623    1
   113   545   548   ar
   114   565   564    1
   115   876   875   ar
   116   532   533    1
   117   564   563   ar
   118   467   449    2
   119   590   589   ar
   120   590   591   ar
   121   606   608    1
   122   606   607    1
   123   659   658    2
   124   905   906    1
   125   905   907    1
   126   608   619    1
   127   623   625    1
   128   618   619   ar
   129   618   617   ar
   130   843   842    1
   131   549   548   ar
   132   594   591   ar
   133   589   587   ar
   134   686   665    2
   135   906   911    1
   136   671   687    1
   137   671   670    1
   138   899   898   ar
   139   899   893   ar
   140   571   568   ar
   141   660   661   ar
   142   660   657   ar
   143   687   709    1
   144   687   689    1
   145   568   569   ar
   146   666   668    1
   147   666   667    1
   148   642   663    1
   149   642   644    1
   150   642   628    1
   151   619   613   ar
   152   447   429    2
   153   591   592   ar
   154   859   860    1
   155   668   670    1
   156   668   669    1
   157   533   531    1
   158   617   614   ar
   159   658   657   ar
   160   658   652   ar
   161   898   897   ar
   162   892   893   ar
   163   892   891   ar
   164   563   569   ar
   165   908   907    1
   166   908   922    1
   167   661   662   ar
   168   644   643    1
   169   657   656   ar
   170   449   435    1
   171   449   468    1
   172   449   451    1
   173   893   894   ar
   174   907   909    1
   175   523   522    2
   176   435   434    1
   177   838   839    1
   178   838   840    1
   179   838   836    1
   180   587   588    1
   181   587   586   ar
   182   638   639   ar
   183   638   636   ar
   184   670   672    1
   185   688   689    1
   186   688   690    1
   187   841   840    1
   188   841   858    1
   189   940   922    2
   190   827   826    2
   191   430   432    1
   192   430   431    1
   193   842   844    1
   194   842   840    1
   195   569   570    2
   196   625   627    1
   197   625   626    1
   198   628   627    1
   199   839   844    1
   200   911   909    1
   201   911   912    1
   202   665   667    1
   203   665   685    1
   204   665   648    1
   205   673   672    1
   206   860   858    1
   207   639   632   ar
   208   910   909    1
   209   844   855    1
   210   823   822    1
   211   627   629    1
   212   731   710    2
   213   941   922    1
   214   878   858    2
   215   922   924    1
   216   669   674    1
   217   613   614   ar
   218   613   612   ar
   219   836   837    1
   220   592   586   ar
   221   592   593    2
   222   652   653   ar
   223   432   434    1
   224   432   433    1
   225   429   431    1
   226   429   412    1
   227   429   448    1
   228   614   615   ar
   229   891   890   ar
   230   919   912   ar
   231   919   918   ar
   232   626   631    1
   233   519   518    1
   234   524   522   ar
   235   524   525   ar
   236   531   551    2
   237   531   552    1
   238   531   517    1
   239   522   521   ar
   240   451   450    1
   241   450   452    1
   242   897   894   ar
   243   672   674    1
   244   412   411    1
   245   858   879    1
   246   637   636    2
   247   434   436    1
   248   730   710    1
   249   487   469    2
   250   894   895   ar
   251  1228  1207    2
   252   636   635   ar
   253   912   913   ar
   254   662   656   ar
   255   662   651    1
   256   656   655   ar
   257   643   645    1
   258   826   828   ar
   259   826   825   ar
   260   518   520    1
   261   518   516    1
   262   647   648    1
   263   647   645    1
   264   647   649    1
   265   710   693    1
   266   710   712    1
   267   848   846   ar
   268   848   849   ar
   269   822   824    1
   270   822   820    1
   271   690   692    1
   272   690   691    1
   273   674   684    1
   274   437   436    1
   275   488   469    1
   276   612   610   ar
   277   847   846    1
   278   632   631    1
   279   632   633   ar
   280   693   692    1
   281   918   916   ar
   282   414   413    1
   283   824   825    1
   284   824   819    1
   285   855   849   ar
   286   855   854   ar
   287   526   525    2
   288   828   829   ar
   289   629   631    1
   290   629   630    1
   291   469   455    1
   292   469   471    1
   293   525   527   ar
   294   455   454    1
   295   517   516    1
   296   890   895   ar
   297   653   655   ar
   298   653   654    1
   299   645   646    1
   300   646   651    1
   301   692   694    1
   302   924   923    1
   303   615   616    2
   304   615   609   ar
   305   837   835    1
   306   436   438    1
   307   649   651    1
   308   649   650    1
   309   521   520    1
   310   521   528   ar
   311   433   438    1
   312   895   896    1
   313   846   845   ar
   314   849   850   ar
   315   520   515    1
   316   825   832   ar
   317   452   454    1
   318   452   453    1
   319   923   925    1
   320   411   409    1
   321   411   413    1
   322   516   514    1
   323   913   914    2
   324   913   915   ar
   325   635   633   ar
   326   691   696    1
   327   409   407    1
   328   409   410    1
   329   819   818    1
   330   856   835    2
   331  1207  1209    1
   332  1207  1229    1
   333  1207  1191    1
   334   821   820    1
   335   821   835    1
   336   454   456    1
   337   407   408    1
   338   413   415    1
   339   633   634    2
   340   610   609   ar
   341   610   611    1
   342  1208  1209    1
   343  1208  1210    1
   344   712   711    1
   345   820   818    1
   346   854   853   ar
   347   684   683   ar
   348   684   678   ar
   349   916   915   ar
   350   916   917    1
   351   509   489    2
   352   438   439    1
   353   807   806    2
   354   835   857    1
   355   829   830    1
   356   829   831   ar
   357   754   732    2
   358   527   528   ar
   359   683   682   ar
   360  1248  1230    2
   361  1371  1370    2
   362   427   406    2
   363   818   816    1
   364  1191  1190    1
   365   706   705   ar
   366   706   707   ar
   367   453   458    1
   368   471   470    1
   369  1270  1250    2
   370   845   851   ar
   371   808   806   ar
   372   808   809   ar
   373  1231  1233    1
   374  1231  1232    1
   375   850   853   ar
   376   850   851   ar
   377   832   831   ar
   378   515   514    1
   379   694   696    1
   380   694   695    1
   381   925   926    1
   382   925   927    1
   383   926   931    1
   384  1367  1366    1
   385   514   512    1
   386   696   707    1
   387   410   415    1
   388   408   406    1
   389  1210  1212    1
   390  1210  1211    1
   391  1212  1213    1
   392  1212  1214    1
   393   806   805   ar
   394   711   713    1
   395  1193  1192    1
   396   415   426    1
   397  1233  1234    1
   398  1233  1235    1
   399   705   702   ar
   400   470   472    1
   401   678   677   ar
   402   678   679   ar
   403  1397  1379    2
   404   753   732    1
   405   810   809    1
   406   715   717    1
   407   715   716    1
   408   715   713    1
   409   939   938   ar
   410   939   932   ar
   411   707   701   ar
   412   717   718    1
   413   717   719    1
   414   446   439   ar
   415   446   445   ar
   416   439   440   ar
   417   938   936   ar
   418   456   457    1
   419   456   458    1
   420   732   716    1
   421   732   734    1
   422   677   676   ar
   423  1370  1372   ar
   424  1370  1369   ar
   425  1236  1250    1
   426  1236  1235    1
   427   851   852    2
   428  1366  1368    1
   429  1366  1364    1
   430   728   727   ar
   431   728   729   ar
   432   406   390    1
   433   406   428    1
   434  1398  1379    1
   435  1372  1373   ar
   436   489   475    1
   437   489   510    1
   438   489   491    1
   439   682   679   ar
   440   809   811   ar
   441  1230  1213    1
   442  1230  1232    1
   443  1230  1249    1
   444  1234  1239    1
   445   458   459    1
   446  1250  1271    1
   447  1250  1252    1
   448   529   511    2
   449   466   459   ar
   450   466   465   ar
   451   392   391    1
   452   727   724   ar
   453   816   817    1
   454  1214  1215    1
   455  1214  1216    1
   456  1190  1192    1
   457  1190  1188    1
   458   490   491    1
   459   490   492    1
   460   713   714    1
   461   475   474    1
   462   513   512    1
   463   513   511    1
   464   390   389    1
   465  1379  1365    1
   466  1379  1381    1
   467   927   928    1
   468   927   929    1
   469  1365  1364    1
   470   803   802    1
   471  1238  1237    1
   472   679   680   ar
   473   931   932    1
   474   931   929    1
   475  1235  1237    1
   476  1192  1194    1
   477   964   942    2
   478   932   933   ar
   479  1348  1347    1
   480   790   789    1
   481  1419  1399    2
   482  1211  1216    1
   483   445   443   ar
   484   426   420   ar
   485   426   425   ar
   486   805   804    1
   487   805   812   ar
   488  1368  1369    1
   489  1368  1363    1
   490  1188  1186    1
   491  1188  1189    1
   492  5244  5243    1
   493   928   942    1
   494   440   441    2
   495   440   442   ar
   496  1205  1185    2
   497   734   733    1
   498   733   735    1
   499   459   460   ar
   500  1369  1376   ar
   501   474   472    1
   502   474   476    1
   503   714   719    1
   504   702   701   ar
   505   702   703   ar
   506   472   473    1
   507  4262  4261    1
   508  1364  1362    1
   509   465   463   ar
   510   936   937    2
   511   936   935   ar
   512  1442  1421    2
   513   719   729    1
   514   701   700   ar
   515   729   723   ar
   516   802   804    1
   517   802   800    1
   518  1373  1374    2
   519  1373  1375   ar
   520   419   420   ar
   521   419   417   ar
   522   676   675   ar
   523  1346  1347   ar
   524  1346  1352   ar
   525  1400  1402    1
   526  1400  1401    1
   527   804   799    1
   528   788   789   ar
   529   788   786   ar
   530  1186  1187    1
   531   817   815    1
   532  1187  1185    1
   533   511   495    1
   534   511   530    1
   535  1443  1421    1
   536  1237  1239    1
   537  5238  5243   ar
   538  5238  5239   ar
   539   494   492    1
   540   494   495    1
   541   494   496    1
   542  1239  1240    1
   543   942   963    1
   544   942   944    1
   545   492   493    1
   546   391   389    1
   547   391   393    1
   548   811   812   ar
   549  1353  1352    2
   550   929   930    1
   551  1216  1227    1
   552  1252  1251    1
   553   420   421   ar
   554  1251  1253    1
   555   425   424   ar
   556  1347  1349   ar
   557   789   791   ar
   558  1405  1421    1
   559  1405  1404    1
   560   389   387    1
   561   724   723   ar
   562   724   725   ar
   563  1402  1404    1
   564  1402  1403    1
   565  1385  1399    1
   566  1385  1384    1
   567  1421  1423    1
   568   787   786    2
   569  5243  5242   ar
   570   418   417    1
   571  5367  5366    1
   572   774   755    2
   573   933   935   ar
   574   933   934    2
   575  4257  4258    1
   576  4257  4255    1
   577  4257  4259    1
   578  1171  1170    1
   579   486   485   ar
   580   486   479   ar
   581  1352  1351   ar
   582  1194  1189    1
   583  1194  1204    1
   584  1226  1227   ar
   585  1226  1225   ar
   586   442   443   ar
   587   680   675   ar
   588   680   681    1
   589  4282  4281    1
   590   485   483   ar
   591   473   478    1
   592   443   444    2
   593   417   416   ar
   594  1185  1169    1
   595  1185  1206    1
   596  1381  1380    1
   597  1399  1401    1
   598  1399  1420    1
   599  1376  1375   ar
   600  1387  1386    1
   601  1362  1363    1
   602  1362  1360    1
   603   786   785   ar
   604  5387  5386    1
   605   703   704    2
   606   703   697   ar
   607   700   698   ar
   608  4258  4263    1
   609   723   722   ar
   610  4260  4259    1
   611  4260  4274    1
   612  4277  4278    1
   613  4277  4275    1
   614  4277  4279    1
   615   460   461    2
   616   460   462   ar
   617  5239  5240   ar
   618  4261  4263    1
   619  4261  4259    1
   620  1247  1240   ar
   621  1247  1246   ar
   622  4263  4264    1
   623  1293  1272    2
   624   735   736    1
   625   735   737    1
   626   387   385    1
   627   387   388    1
   628   463   462   ar
   629   463   464    1
   630  1227  1221   ar
   631  4255  4256    1
   632   726   725    1
   633   476   478    1
   634   476   477    1
   635  4278  4283    1
   636   496   497    1
   637   496   498    1
   638  4276  4275    1
   639  4276  4274    1
   640  1382  1380    1
   641  1382  1384    1
   642  1382  1383    1
   643   800   801    1
   644   800   798    1
   645  4242  4241    1
   646  1404  1406    1
   647  1169  1168    1
   648  5383  5382    1
   649  5383  5388    1
   650  1240  1241   ar
   651   799   798    1
   652  5382  5380    1
   653  5382  5384    1
   654  4292  4274    2
   655   725   720   ar
   656   421   424   ar
   657   421   422   ar
   658  1403  1408    1
   659   773   755    1
   660   393   388    1
   661   393   403    1
   662  4280  4279    1
   663  4280  4294    1
   664   493   498    1
   665   815   801    1
   666   815   834    2
   667   815   833    1
   668  1407  1406    1
   669  1349  1350   ar
   670  1384  1386    1
   671  4312  4294    2
   672   944   943    1
   673  1253  1255    1
   674  1253  1254    1
   675   396   395   ar
   676   396   397   ar
   677  4283  4281    1
   678  4283  4284    1
   679   478   479    1
   680   755   738    1
   681   755   757    1
   682  5380  5381    1
   683  4266  4265    2
   684  1225  1222   ar
   685  1256  1272    1
   686  1256  1255    1
   687  1197  1198   ar
   688  1197  1196   ar
   689  5371  5370    2
   690   479   480   ar
   691   791   792   ar
   692  5388  5386    1
   693  5388  5399    1
   694  4274  4293    1
   695   738   737    1
   696  4281  4279    1
   697  1292  1272    1
   698  1330  1329    1
   699   736   741    1
   700   737   739    1
   701  5366  5368    1
   702  5366  5364    1
   703   385   386    1
   704   960   961   ar
   705   960   957   ar
   706  1170  1168    1
   707  1170  1172    1
   708  5368  5363    1
   709  5368  5369    1
   710  1272  1274    1
   711  5242  5245   ar
   712  5242  5241   ar
   713  1386  1388    1
   714   416   422   ar
   715   483   484    2
   716   483   482   ar
   717  1204  1198   ar
   718  1204  1203   ar
   719  1423  1422    1
   720   395   394   ar
   721  1351  1350   ar
   722  1351  1354   ar
   723   698   697   ar
   724   698   699    1
   725  5386  5384    1
   726   798   796    1
   727  1246  1244   ar
   728  1002  1001    2
   729  5363  5362    1
   730  1360  1361    1
   731  1383  1388    1
   732  5385  5384    1
   733  5385  5402    1
   734   722   721   ar
   735   785   792   ar
   736   785   784    1
   737  1406  1408    1
   738   751   750   ar
   739   751   752   ar
   740  1255  1257    1
   741   961   962   ar
   742   498   508    1
   743  4295  4297    1
   744  4295  4296    1
   745  1350  1356   ar
   746   422   423    2
   747  5240  5241   ar
   748  1168  1166    1
   749  1198  1199   ar
   750  4264  4265   ar
   751  4264  4271   ar
   752  5362  5364    1
   753  5362  5360    1
   754  1196  1195   ar
   755  1408  1418    1
   756  4256  4254    1
   757   403   397   ar
   758   403   402   ar
   759  1221  1222   ar
   760  1221  1220   ar
   761   995  1001   ar
   762   995   996   ar
   763  4294  4296    1
   764  4294  4313    1
   765   397   398   ar
   766   959   958    2
   767   750   747   ar
   768   507   508   ar
   769   507   506   ar
   770  4265  4267   ar
   771  1388  1389    1
   772  1241  1242    2
   773  1241  1243   ar
   774  4241  4243    1
   775  4241  4239    1
   776  5365  5364    1
   777  5365  5379    1
   778  4246  4245    2
   779  1254  1259    1
   780  5351  5350    2
   781   943   945    1
   782  5245  5246   ar
   783  4272  4254    2
   784   997   996    1
   785   720   721   ar
   786  5370  5369   ar
   787  5370  5372   ar
   788  5241  5247   ar
   789  1324  1329   ar
   790  1324  1325   ar
   791  4240  4254    1
   792  4240  4239    1
   793  1175  1174   ar
   794  1175  1176   ar
   795  5420  5402    2
   796  1422  1424    1
   797  1222  1223   ar
   798  1329  1328   ar
   799   386   384    1
   800  1166  1167    1
   801  1166  1164    1
   802   480   482   ar
   803   480   481    2
   804  1001  1000   ar
   805  1361  1359    1
   806  5347  5346    1
   807  1309  1308    1
   808  5369  5376   ar
   809  1174  1173   ar
   810  4284  4291   ar
   811  4284  4285   ar
   812  5381  5379    1
   813  5399  5393   ar
   814  5399  5398   ar
   815  4297  4298    1
   816  4297  4299    1
   817  1203  1202   ar
   818   394   399   ar
   819  1172  1167    1
   820  1172  1182    1
   821   508   502   ar
   822   957   958   ar
   823   957   956   ar
   824  4286  4285    2
   825  1354  1355   ar
   826  5392  5393   ar
   827  5392  5390   ar
   828  5403  5405    1
   829  5403  5404    1
   830  5328  5327   ar
   831  5328  5329   ar
   832   757   756    1
   833   741   752    1
   834   741   739    1
   835   784   782    1
   836   784   779    1
   837   752   746   ar
   838  4243  4238    1
   839  4243  4244    1
   840   980   979    2
   841  4254  4273    1
   842  5406  5405    1
   843  5406  5411    1
   844  5400  5379    2
   845  4298  4303    1
   846   404   384    2
   847   958   952   ar
   848  1220  1218   ar
   849   739   740    1
   850   996   998   ar
   851   782   783    1
   852   782   780    1
   853  5405  5407    1
   854   946   945    1
   855   946   951    1
   856   771   772   ar
   857   771   769   ar
   858  5327  5332   ar
   859  1274  1273    1
   860  5402  5404    1
   861  5402  5421    1
   862  1288  1287    1
   863  1244  1243   ar
   864  1244  1245    2
   865  4271  4270   ar
   866   796   797    1
   867  1289  1290   ar
   868  1289  1286   ar
   869  5360  5361    1
   870  4239  4237    1
   871   797   795    1
   872   506   503   ar
   873  5391  5390    1
   874  2437  2416    2
   875   962   956   ar
   876   962   951    1
   877  5393  5394   ar
   878   402   401   ar
   879  1268  1267   ar
   880  1268  1269   ar
   881  5379  5401    1
   882  4291  4290   ar
   883   398   399   ar
   884   398   401   ar
   885  1356  1355   ar
   886  1356  1345    1
   887  4285  4287   ar
   888  1199  1202   ar
   889  1199  1200   ar
   890  1195  1200   ar
   891  4237  4238    1
   892  4237  4235    1
   893  1257  1259    1
   894  1257  1258    1
   895  1164  1165    1
   896  2459  2439    2
   897  4245  4244   ar
   898  4245  4247   ar
   899  5372  5373   ar
   900  1418  1417   ar
   901  1418  1412   ar
   902  5306  5305    1
   903   770   769    2
   904  5398  5397   ar
   905  1325  1326   ar
   906  1176  1182   ar
   907  1176  1177   ar
   908  4267  4268   ar
   909  5350  5352   ar
   910  5350  5349   ar
   911   945   947    1
   912  5390  5389   ar
   913   747   746   ar
   914   747   748   ar
   915   399   400    1
   916  1259  1269    1
   917  5329  5330   ar
   918   772   765   ar
   919  5246  5247   ar
   920  5346  5348    1
   921  5346  5344    1
   922  1173  1178   ar
   923   384   405    1
   924   384   370    1
   925  1182  1181   ar
   926  1378  1359    2
   927  5348  5349    1
   928  5348  5343    1
   929  1343  1344    1
   930  1343  1345    1
   931  1343  1341    1
   932  5247  5237    1
   933  1389  1390   ar
   934  1389  1396   ar
   935  5410  5409    1
   936   956   955   ar
   937  1290  1291   ar
   938  1417  1416   ar
   939  1328  1331   ar
   940  1328  1327   ar
   941  1391  1390    2
   942  5376  5375   ar
   943  5411  5409    1
   944  5411  5412    1
   945   769   768   ar
   946  4252  4234    2
   947  1223  1224    2
   948  1223  1217   ar
   949  4244  4251   ar
   950  1308  1310   ar
   951  1308  1307   ar
   952  1424  1425    1
   953  1424  1426    1
   954   756   758    1
   955   746   745   ar
   956   979   981   ar
   957   979   978   ar
   958   951   949    1
   959  4300  4299    1
   960  4300  4314    1
   961  1267  1264   ar
   962  1359  1377    1
   963  1359  1342    1
   964  1269  1263   ar
   965  5288  5287    1
   966  5304  5305   ar
   967  5304  5310   ar
   968  4299  4301    1
   969  1200  1201    1
   970  1000   999   ar
   971  1000  1003   ar
   972  5352  5353   ar
   973  1345  1340    1
   974   502   503   ar
   975   502   501   ar
   976   779   778    1
   977   981   982   ar
   978  1313  1294    2
   979  1273  1275    1
   980   372   371    1
   981  4303  4301    1
   982  4303  4304    1
   983  1286  1287   ar
   984  1286  1285   ar
   985  1287  1282   ar
   986   780   781    1
   987   780   778    1
   988  4302  4301    1
   989  1425  1430    1
   990  1331  1332   ar
   991  2460  2439    1
   992   749   748    2
   993  1218  1217   ar
   994  1218  1219    1
   995   984   965    2
   996  1310  1311   ar
   997  5332  5333    1
   998  5332  5331   ar
   999   952   953   ar
  1000   947   949    1
  1001   947   948    1
  1002  1152  1151    1
  1003  5349  5356   ar
  1004   998   999   ar
  1005  4270  4268   ar
  1006   503   504   ar
  1007  5311  5310    2
  1008  5394  5397   ar
  1009  5394  5395   ar
  1010   814   795    2
  1011  5305  5307   ar
  1012  1390  1392   ar
  1013  5407  5409    1
  1014  5407  5408    1
  1015  1396  1395   ar
  1016  1440  1439   ar
  1017  1440  1441   ar
  1018   748   742   ar
  1019  5361  5359    1
  1020  4247  4248   ar
  1021  5343  5342    1
  1022  4290  4288   ar
  1023  4287  4288   ar
  1024   370   369    1
  1025  2439  2422    1
  1026  2439  2441    1
  1027  4335  4314    2
  1028  4235  4236    1
  1029  5408  5422    1
  1030   795   781    1
  1031   795   813    1
  1032  4268  4269    2
  1033  1177  1178   ar
  1034  1177  1180   ar
  1035  1165  1163    1
  1036  1024  1023    1
  1037  2416  2399    1
  1038  2416  2438    1
  1039  2416  2418    1
  1040  4236  4234    1
  1041  1412  1411   ar
  1042  1412  1413   ar
  1043  1178  1179    1
  1044  4232  4214    2
  1045  5373  5375   ar
  1046  5373  5374    2
  1047  5389  5395   ar
  1048  1326  1327   ar
  1049  1439  1436   ar
  1050   762   760    1
  1051   762   763    1
  1052   762   764    1
  1053  2399  2398    1
  1054   999  1005   ar
  1055  1327  1333   ar
  1056  1307  1305   ar
  1057  5330  5331   ar
  1058  5330  5336   ar
  1059  5310  5309   ar
  1060  1411  1410   ar
  1061   371   369    1
  1062   371   373    1
  1063  1341  1342    1
  1064  1341  1339    1
  1065  1003  1004   ar
  1066  1181  1180   ar
  1067  5412  5419   ar
  1068  5412  5413   ar
  1069  4234  4253    1
  1070  4234  4220    1
  1071  1463  1444    2
  1072  2417  2418    1
  1073  2417  2419    1
  1074   376   375    2
  1075   765   764    1
  1076   765   766   ar
  1077  5282  5287   ar
  1078  5282  5283   ar
  1079  5237  5232    1
  1080  5237  5235    1
  1081  5419  5418   ar
  1082  5344  5345    1
  1083  5344  5342    1
  1084  1426  1427    1
  1085  1426  1428    1
  1086   955   953   ar
  1087  5345  5359    1
  1088   501   500   ar
  1089   949   950    1
  1090  5287  5286   ar
  1091  1416  1413   ar
  1092  5342  5340    1
  1093  1183  1163    2
  1094  4311  4304   ar
  1095  4311  4310   ar
  1096   778   776    1
  1097  1427  1444    1
  1098   978   976   ar
  1099  4314  4336    1
  1100  4314  4316    1
  1101   760   758    1
  1102   760   761    1
  1103  4288  4289    1
  1104   745   743   ar
  1105  1291  1285   ar
  1106  1291  1281    1
  1107  4304  4305   ar
  1108   758   759    1
  1109   768   766   ar
  1110  5395  5396    2
  1111  2422  2421    1
  1112   759   764    1
  1113  5331  5334   ar
  1114   953   954    1
  1115  1264  1263   ar
  1116  1264  1265   ar
  1117  4251  4250   ar
  1118  1263  1262   ar
  1119   982   975   ar
  1120   948   965    1
  1121  5353  5354    1
  1122  5353  5355   ar
  1123  1282  1283   ar
  1124   369   367    1
  1125  1285  1284   ar
  1126  1462  1444    1
  1127  1151  1153   ar
  1128  1151  1150   ar
  1129  1275  1277    1
  1130  1275  1276    1
  1131   965   983    1
  1132   965   967    1
  1133  1340  1339    1
  1134  1332  1333   ar
  1135  1277  1278    1
  1136  1277  1279    1
  1137  1294  1278    1
  1138  1294  1312    1
  1139  1294  1296    1
  1140  2401  2400    1
  1141  5236  5235    1
  1142   794   775    2
  1143  2585  2584    1
  1144  1441  1430    1
  1145  1441  1435   ar
  1146   777   776    1
  1147   777   775    1
  1148  1311  1304   ar
  1149  1148  1147    1
  1150  1430  1428    1
  1151  5325  5324    1
  1152  5307  5308   ar
  1153  1413  1414   ar
  1154  5414  5413    2
  1155  1276  1281    1
  1156  1444  1446    1
  1157  5356  5355   ar
  1158   742   743   ar
  1159  5359  5377    2
  1160  5359  5378    1
  1161   504   505    1
  1162   504   499   ar
  1163  2441  2440    1
  1164  5232  5231    1
  1165  5413  5415   ar
  1166  1163  1146    1
  1167  1163  1184    1
  1168  1395  1393   ar
  1169  4215  4217    1
  1170  4215  4216    1
  1171  1392  1393   ar
  1172   766   767    2
  1173   375   377   ar
  1174   375   374   ar
  1175  4248  4250   ar
  1176  4248  4249    2
  1177  4315  4316    1
  1178  4315  4317    1
  1179  1333  1323    1
  1180  5442  5422    2
  1181  2419  2421    1
  1182  2419  2420    1
  1183  5336  5326    1
  1184  5336  5335   ar
  1185  5235  5233    1
  1186  2394  2396    1
  1187  2394  2395    1
  1188  1153  1154   ar
  1189  1023  1022   ar
  1190  1023  1018   ar
  1191  5418  5416   ar
  1192  4310  4308   ar
  1193  5326  5324    1
  1194  5326  5321    1
  1195   743   744    1
  1196  1025  1022   ar
  1197  1025  1026   ar
  1198  5283  5284   ar
  1199  1150  1156   ar
  1200  5422  5443    1
  1201  5422  5424    1
  1202  1339  1337    1
  1203  2396  2398    1
  1204  2396  2397    1
  1205  1004  1005   ar
  1206  2398  2400    1
  1207  1358  1336    2
  1208  1005   994    1
  1209  1410  1409   ar
  1210  1436  1435   ar
  1211  1436  1437   ar
  1212   377   378   ar
  1213  2479  2461    2
  1214  5309  5308   ar
  1215  5309  5312   ar
  1216  1305  1304   ar
  1217  1305  1306    2
  1218   373   374    1
  1219   373   368    1
  1220  1146  1145    1
  1221  4214  4200    1
  1222  4214  4216    1
  1223  4214  4233    1
  1224  5324  5322    1
  1225  1281  1279    1
  1226  1335  1314    2
  1227  4305  4306    2
  1228  4305  4307   ar
  1229  2421  2423    1
  1230  4200  4199    1
  1231  1428  1429    1
  1232  5286  5289   ar
  1233  5286  5285   ar
  1234  2414  2393    2
  1235  2557  2558   ar
  1236  2557  2562   ar
  1237   500   499   ar
  1238  1147  1145    1
  1239  1147  1149    1
  1240  2440  2442    1
  1241   976   975   ar
  1242   976   977    2
  1243  4220  4219    1
  1244   775   761    1
  1245   775   793    1
  1246  1262  1261   ar
  1247  5308  5314   ar
  1248  4217  4219    1
  1249  4217  4218    1
  1250  1296  1295    1
  1251  5340  5341    1
  1252  1338  1337    1
  1253  1338  1336    1
  1254   975   974    1
  1255  4202  4201    1
  1256  1265  1266    1
  1257  1265  1260   ar
  1258   374   381   ar
  1259  1304  1303    1
  1260  1022  1021   ar
  1261  1283  1284   ar
  1262  1393  1394    2
  1263  1279  1280    1
  1264  5334  5335   ar
  1265  2400  2402    1
  1266   367   368    1
  1267   367   365    1
  1268  1435  1434   ar
  1269  2558  2559   ar
  1270  4219  4221    1
  1271  5289  5290   ar
  1272  1438  1437    2
  1273  5415  5416   ar
  1274   967   966    1
  1275  1018  1019   ar
  1276  2563  2562    1
  1277  5416  5417    1
  1278  2584  2579   ar
  1279  2584  2583   ar
  1280  5423  5424    1
  1281  5423  5425    1
  1282  1414  1409   ar
  1283  1414  1415    1
  1284  2395  2393    1
  1285  1437  1431   ar
  1286  1145  1143    1
  1287  1154  1155   ar
  1288  1154  1160   ar
  1289  1026  1027   ar
  1290  4317  4318    1
  1291  4317  4319    1
  1292  4308  4307   ar
  1293  4308  4309    2
  1294   378   379    1
  1295   378   380   ar
  1296  5321  5320    1
  1297  1321  1323    1
  1298  1321  1319    1
  1299  1321  1322    1
  1300  4197  4195    1
  1301  4197  4199    1
  1302  4197  4198    1
  1303  5234  5233    1
  1304  5234  5250    1
  1305  5231  5233    1
  1306  5231  5229    1
  1307  1156  1157    2
  1308  1156  1155   ar
  1309  1323  1318    1
  1310  5284  5285   ar
  1311  2420  2425    1
  1312  4195  4196    1
  1313  4318  4323    1
  1314  2562  2561   ar
  1315  5312  5313   ar
  1316  1336  1320    1
  1317  1336  1357    1
  1318  1446  1445    1
  1319  5285  5291   ar
  1320  2480  2461    1
  1321  5341  5339    1
  1322   994   992    1
  1323   994   989    1
  1324  2461  2445    1
  1325  2461  2463    1
  1326  2397  2402    1
  1327  4199  4201    1
  1328  2586  2583   ar
  1329  2586  2587   ar
  1330  5271  5250    2
  1331  2393  2379    1
  1332  2393  2415    1
  1333  2457  2456   ar
  1334  2457  2458   ar
  1335  2444  2442    1
  1336  2444  2446    1
  1337  2444  2445    1
  1338  2579  2580   ar
  1339   381   380   ar
  1340  1261  1260   ar
  1341  5230  5229    1
  1342  5230  5228    1
  1343  1149  1160    1
  1344  1149  1144    1
  1345  2456  2453   ar
  1346  1319  1320    1
  1347  1319  1317    1
  1348  5426  5425    1
  1349  5426  5431    1
  1350  2442  2443    1
  1351  2381  2380    1
  1352  2423  2424    1
  1353  2423  2425    1
  1354   969   974    1
  1355   969   968    1
  1356  1314  1316    1
  1357  1314  1300    1
  1358  1314  1334    1
  1359  1155  1158   ar
  1360  4201  4203    1
  1361  2402  2413    1
  1362  2583  2582   ar
  1363  5322  5320    1
  1364  5322  5323    1
  1365  1316  1315    1
  1366   365   366    1
  1367  5314  5313   ar
  1368  5314  5303    1
  1369  4218  4223    1
  1370  5248  5228    2
  1371  5425  5427    1
  1372  1160  1159   ar
  1373   974   972    1
  1374  1299  1301    1
  1375  1299  1300    1
  1376  1299  1297    1
  1377   966   968    1
  1378   992   993    1
  1379   992   990    1
  1380  1295  1297    1
  1381  2559  2560   ar
  1382  1029  1008    2
  1383  5290  5291   ar
  1384  1460  1461   ar
  1385  1460  1458   ar
  1386  2503  2481    2
  1387  1021  1027   ar
  1388  1021  1020   ar
  1389  1303  1301    1
  1390  1303  1298    1
  1391   353   352    1
  1392  1434  1432   ar
  1393  2379  2378    1
  1394  5320  5318    1
  1395  5249  5228    1
  1396  4212  4194    2
  1397   366   364    1
  1398  2446  2447    1
  1399  2446  2448    1
  1400  1019  1020   ar
  1401  1318  1317    1
  1402  4198  4203    1
  1403  1301  1302    1
  1404  5250  5270    1
  1405  5250  5252    1
  1406  1298  1297    1
  1407  1143  1144    1
  1408  1143  1141    1
  1409  4221  4222    1
  1410  4221  4223    1
  1411  4333  4332   ar
  1412  4333  4334   ar
  1413  1445  1447    1
  1414  5323  5339    1
  1415  5228  5211    1
  1416  1576  1575    1
  1417  1027  1017    1
  1418  2425  2436    1
  1419  5291  5281    1
  1420   989   988    1
  1421  1431  1432   ar
  1422  2462  2463    1
  1423  2462  2464    1
  1424  1459  1458    1
  1425  4196  4194    1
  1426  4319  4320    1
  1427  4319  4321    1
  1428  1461  1454   ar
  1429   968   970    1
  1430  1599  1598    1
  1431  5303  5301    1
  1432  5303  5298    1
  1433  1007   985    2
  1434  4203  4204    1
  1435  2561  2560   ar
  1436  2561  2564   ar
  1437  1499  1498    2
  1438  2587  2588   ar
  1439   970   972    1
  1440   970   971    1
  1441  4323  4334    1
  1442  4323  4321    1
  1443  2542  2541    1
  1444  5440  5441   ar
  1445  5440  5439   ar
  1446  2443  2448    1
  1447   351   352   ar
  1448   351   357   ar
  1449  1317  1315    1
  1450  2458  2448    1
  1451  2458  2452   ar
  1452  5339  5358    2
  1453  5339  5357    1
  1454  4223  4224    1
  1455  2380  2378    1
  1456  2380  2382    1
  1457  2435  2436   ar
  1458  2435  2434   ar
  1459  4320  4337    1
  1460  4332  4329   ar
  1461   352   354   ar
  1462  5431  5441    1
  1463  5431  5429    1
  1464  1432  1433    1
  1465   972   973    1
  1466  2560  2566   ar
  1467  2580  2581   ar
  1468  1158  1159   ar
  1469  1458  1457   ar
  1470  1479  1478    1
  1471  4334  4328   ar
  1472  2453  2454   ar
  1473  2453  2452   ar
  1474   990   988    1
  1475   990   991    1
  1476  5301  5302    1
  1477  5301  5299    1
  1478  1010  1008    1
  1479  1010  1009    1
  1480  4182  4181    1
  1481  1594  1592    1
  1482  1594  1595    1
  1483  1594  1596    1
  1484  2455  2454    1
  1485  2413  2407   ar
  1486  2413  2412   ar
  1487  2378  2376    1
  1488  2582  2588   ar
  1489  2582  2581   ar
  1490  5266  5265    1
  1491  4194  4180    1
  1492  4194  4213    1
  1493  2436  2430   ar
  1494  2498  2497    2
  1495  2406  2407   ar
  1496  2406  2404   ar
  1497  5441  5435   ar
  1498  5439  5436   ar
  1499  1631  1611    2
  1500  5252  5251    1
  1501   358   357    2
  1502  1592  1593    1
  1503  5258  5257    1
  1504  2481  2502    1
  1505  2481  2467    1
  1506  2481  2483    1
  1507  4180  4179    1
  1508  1448  1447    1
  1509  1448  1453    1
  1510   382   364    2
  1511  5427  5428    1
  1512  5427  5429    1
  1513  1141  1142    1
  1514   987   985    1
  1515   987   986    1
  1516  1008   991    1
  1517  1008  1028    1
  1518  1597  1596    1
  1519  1597  1611    1
  1520  1128  1129   ar
  1521  1128  1133   ar
  1522   364   383    1
  1523   364   347    1
  1524  4321  4322    1
  1525   357   356   ar
  1526  1595  1600    1
  1527  5318  5319    1
  1528  5265  5260   ar
  1529  5265  5264   ar
  1530  1129  1130   ar
  1531  2521  2520    2
  1532  1051  1030    2
  1533  1012  1017    1
  1534  1012  1011    1
  1535   988   986    1
  1536  5293  5272    2
  1537  5260  5261   ar
  1538  4356  4337    2
  1539  1447  1449    1
  1540   354   355   ar
  1541  1483  1464    2
  1542  5281  5276    1
  1543  5281  5279    1
  1544  2376  2377    1
  1545  2376  2374    1
  1546  1017  1015    1
  1547  1575  1577    1
  1548  1575  1573    1
  1549  2454  2449   ar
  1550  2452  2451   ar
  1551  2499  2500   ar
  1552  2499  2496   ar
  1553  2588  2578    1
  1554  2464  2466    1
  1555  2464  2465    1
  1556  2405  2404    1
  1557  5257  5255    1
  1558  5257  5259    1
  1559  4355  4337    1
  1560  2407  2408   ar
  1561  5298  5297    1
  1562  1598  1600    1
  1563  1598  1596    1
  1564   971   985    1
  1565  2434  2431   ar
  1566  2564  2565   ar
  1567   985  1006    1
  1568  5430  5429    1
  1569  5264  5267   ar
  1570  5264  5263   ar
  1571  5211  5210    1
  1572  5267  5268   ar
  1573  1580  1579    1
  1574  4337  4339    1
  1575  1454  1453    1
  1576  1454  1455   ar
  1577  1600  1601    1
  1578  4329  4328   ar
  1579  4329  4330   ar
  1580  5428  5444    1
  1581  1577  1572    1
  1582  1577  1588    1
  1583  1480  1478   ar
  1584  1480  1481   ar
  1585  1498  1497   ar
  1586  1498  1500   ar
  1587  2385  2384    2
  1588  2467  2466    1
  1589  5261  5262   ar
  1590  5319  5317    1
  1591  4328  4327   ar
  1592  2382  2377    1
  1593  2382  2383    1
  1594  2541  2540   ar
  1595  2541  2543   ar
  1596  1009  1011    1
  1597  2412  2411   ar
  1598  1478  1477   ar
  1599  1013  1011    1
  1600  1013  1015    1
  1601  1013  1014    1
  1602  4206  4205    2
  1603  4204  4205   ar
  1604  4204  4211   ar
  1605  1574  1573    1
  1606  1574  1591    1
  1607  2404  2403   ar
  1608  4224  4231   ar
  1609  4224  4225   ar
  1610  1572  1571    1
  1611  4181  4179    1
  1612  4181  4183    1
  1613  1536  1537   ar
  1614  1536  1541   ar
  1615  1571  1573    1
  1616  1571  1569    1
  1617  5263  5262   ar
  1618  5263  5269   ar
  1619  5268  5269   ar
  1620  2566  2565   ar
  1621  2566  2556    1
  1622  1457  1455   ar
  1623  1581  1579   ar
  1624  1581  1582   ar
  1625  5435  5436   ar
  1626  5435  5434   ar
  1627  5436  5437   ar
  1628  1449  1450    1
  1629  1449  1451    1
  1630  1134  1133    1
  1631  2497  2496   ar
  1632  2497  2491   ar
  1633  4231  4230   ar
  1634  1015  1016    1
  1635  5299  5297    1
  1636  5299  5300    1
  1637   356   355   ar
  1638   356   359   ar
  1639  5276  5275    1
  1640   355   361   ar
  1641  2540  2538   ar
  1642  1133  1132   ar
  1643  1142  1140    1
  1644  5269  5259    1
  1645  1453  1451    1
  1646  1611  1613    1
  1647  1611  1632    1
  1648  2466  2468    1
  1649  2483  2482    1
  1650  1520  1519    1
  1651  1130  1131   ar
  1652  5255  5256    1
  1653  5255  5253    1
  1654  1609  1591    2
  1655  5226  5205    2
  1656  4179  4177    1
  1657  2500  2501   ar
  1658  2430  2431   ar
  1659  2430  2429   ar
  1660  5279  5280    1
  1661  5279  5277    1
  1662  1612  1613    1
  1663  1612  1614    1
  1664  1542  1541    1
  1665  2496  2495   ar
  1666  2374  2375    1
  1667  1497  1495   ar
  1668   349   348    1
  1669  1593  1591    1
  1670  5227  5205    1
  1671   347   346    1
  1672  1537  1538   ar
  1673   348   346    1
  1674   348   350    1
  1675  5251  5253    1
  1676  1579  1578   ar
  1677  2465  2470    1
  1678  4205  4207   ar
  1679  5210  5212    1
  1680  5210  5208    1
  1681  1455  1456    2
  1682  1500  1501   ar
  1683  2554  2555    1
  1684  2554  2556    1
  1685  2554  2552    1
  1686  4211  4210   ar
  1687  2520  2514   ar
  1688  2520  2519   ar
  1689  5463  5444    2
  1690  4330  4331    2
  1691  4330  4324   ar
  1692  1450  1464    1
  1693  1464  1482    1
  1694  1464  1466    1
  1695  5259  5254    1
  1696  4177  4178    1
  1697  4177  4175    1
  1698  2431  2432   ar
  1699  4327  4325   ar
  1700  2577  2576    1
  1701  5297  5295    1
  1702  2384  2383   ar
  1703  2384  2386   ar
  1704  2543  2544   ar
  1705  1030  1014    1
  1706  1030  1050    1
  1707  1030  1032    1
  1708  2556  2551    1
  1709  2408  2411   ar
  1710  2408  2409   ar
  1711  5207  5205    1
  1712  5207  5206    1
  1713  1481  1474   ar
  1714  2451  2450   ar
  1715  1541  1540   ar
  1716  1591  1610    1
  1717  2449  2450   ar
  1718  1603  1602    2
  1719  5434  5433   ar
  1720  4226  4225    2
  1721  1560  1559    2
  1722  5300  5317    1
  1723  5272  5256    1
  1724  5272  5274    1
  1725  5272  5292    1
  1726  2383  2390   ar
  1727  1556  1555    1
  1728  1588  1582   ar
  1729  1588  1587   ar
  1730  2578  2576    1
  1731  2578  2573    1
  1732  5205  5188    1
  1733  5444  5462    1
  1734  5444  5446    1
  1735   250   232    2
  1736  3646  3645    1
  1737  1569  1570    1
  1738  4225  4227   ar
  1739  5437  5438    1
  1740  5437  5432   ar
  1741   346   344    1
  1742  1582  1583   ar
  1743  1451  1452    1
  1744   359   360   ar
  1745  1477  1475   ar
  1746  4339  4338    1
  1747  5274  5273    1
  1748   361   350    1
  1749   361   360   ar
  1750  2429  2427   ar
  1751  1601  1602   ar
  1752  1601  1608   ar
  1753  3604  3603    1
  1754  4183  4178    1
  1755  4183  4184    1
  1756  5317  5338    2
  1757  5317  5337    1
  1758  5277  5275    1
  1759  5277  5278    1
  1760  5253  5254    1
  1761  2375  2373    1
  1762  2403  2409   ar
  1763  5206  5208    1
  1764  1131  1132   ar
  1765  1131  1137   ar
  1766  1132  1135   ar
  1767   233   234    1
  1768   233   235    1
  1769  2514  2515   ar
  1770  2522  2519   ar
  1771  2522  2523   ar
  1772  2491  2492   ar
  1773  1614  1615    1
  1774  1614  1616    1
  1775  3623  3622    1
  1776  5296  5295    1
  1777  5296  5294    1
  1778  2576  2574    1
  1779  4230  4228   ar
  1780  2478  2477   ar
  1781  2478  2471   ar
  1782  2526  2504    2
  1783  5212  5213    1
  1784  5212  5214    1
  1785  3627  3626    1
  1786  5275  5273    1
  1787   234   232    1
  1788  1161  1140    2
  1789  1519  1514   ar
  1790  1519  1518   ar
  1791  2538  2539    2
  1792  2538  2537   ar
  1793   350   345    1
  1794  2519  2518   ar
  1795  1032  1031    1
  1796  4186  4185    2
  1797  4175  4176    1
  1798  4324  4325   ar
  1799  1140  1162    1
  1800  1140  1124    1
  1801  4325  4326    1
  1802  5208  5209    1
  1803  2482  2484    1
  1804  1602  1604   ar
  1805  1615  1620    1
  1806  2590  2569    2
  1807  2501  2495   ar
  1808  2501  2490    1
  1809   236   235    1
  1810   236   241    1
  1811  5316  5294    2
  1812  2386  2387   ar
  1813  2495  2494   ar
  1814  5433  5432   ar
  1815  2468  2470    1
  1816  2468  2469    1
  1817  2409  2410    2
  1818  1538  1539   ar
  1819  4338  4340    1
  1820  3641  3642    1
  1821  3641  3639    1
  1822  3641  3643    1
  1823  2477  2475   ar
  1824  1578  1584   ar
  1825  1495  1496    2
  1826  1495  1494   ar
  1827  1031  1033    1
  1828  2573  2572    1
  1829  5222  5221    2
  1830  2552  2553    1
  1831  2552  2550    1
  1832  1514  1515   ar
  1833  5460  5461   ar
  1834  5460  5458   ar
  1835  1465  1466    1
  1836  1465  1467    1
  1837   232   251    1
  1838   232   216    1
  1839  2470  2471    1
  1840  5223  5224   ar
  1841  5223  5220   ar
  1842  1125  1126    1
  1843  1125  1123    1
  1844  1125  1127    1
  1845  4207  4208   ar
  1846  2391  2373    2
  1847  4210  4208   ar
  1848   248   249   ar
  1849   248   246   ar
  1850  1501  1494   ar
  1851  1608  1607   ar
  1852   235   237    1
  1853  5203  5182    2
  1854  5224  5225   ar
  1855  2390  2389   ar
  1856  5459  5458    2
  1857  5221  5220   ar
  1858  5221  5215   ar
  1859  4353  4354   ar
  1860  4353  4351   ar
  1861  5220  5219   ar
  1862   247   246    2
  1863  2362  2361    1
  1864  2432  2433    2
  1865  2432  2426   ar
  1866  1555  1557    1
  1867  1555  1553    1
  1868  2544  2537   ar
  1869  3642  3647    1
  1870  1474  1475   ar
  1871  1474  1473    1
  1872  1559  1561   ar
  1873  1559  1558   ar
  1874  3639  3640    1
  1875  1587  1586   ar
  1876   249   242   ar
  1877  3644  3643    1
  1878  3644  3660    1
  1879  2551  2550    1
  1880  5446  5445    1
  1881  1475  1476    2
  1882  3678  3660    2
  1883   246   245   ar
  1884  1540  1539   ar
  1885  1540  1543   ar
  1886  2553  2569    1
  1887  4227  4228   ar
  1888  5461  5454   ar
  1889  2471  2472   ar
  1890  5294  5278    1
  1891  5294  5315    1
  1892  5225  5219   ar
  1893  5225  5214    1
  1894  1137  1127    1
  1895  1137  1136   ar
  1896  5215  5216   ar
  1897  3645  3647    1
  1898  3645  3643    1
  1899  1570  1568    1
  1900  3647  3657    1
  1901  5458  5457   ar
  1902  1653  1633    2
  1903  1583  1584   ar
  1904  1583  1586   ar
  1905  1135  1136   ar
  1906  5219  5218   ar
  1907  3628  3626   ar
  1908  3628  3629   ar
  1909  4352  4351    1
  1910  2427  2426   ar
  1911  2427  2428    1
  1912  4184  4185   ar
  1913  4184  4191   ar
  1914  2485  2484    1
  1915  2485  2490    1
  1916  2373  2392    1
  1917  2373  2356    1
  1918  1617  1616    1
  1919  1617  1633    1
  1920  1124  1123    1
  1921  1557  1558    1
  1922  1557  1552    1
  1923  3603  3605   ar
  1924  3603  3602   ar
  1925  4354  4347   ar
  1926  2537  2536    1
  1927  4176  4174    1
  1928  2571  2569    1
  1929  2571  2570    1
  1930  2523  2524   ar
  1931  4185  4187   ar
  1932  4228  4229    2
  1933  3626  3625   ar
  1934  1494  1493    1
  1935   344   345    1
  1936   344   342    1
  1937  5188  5187    1
  1938   336   335    2
  1939  5214  5209    1
  1940  4208  4209    1
  1941  3622  3624    1
  1942  3622  3620    1
  1943  1561  1562   ar
  1944  2492  2494   ar
  1945  2492  2493    1
  1946  1518  1521   ar
  1947  1518  1517   ar
  1948  5216  5218   ar
  1949  5216  5217    1
  1950  1539  1545   ar
  1951  1521  1522   ar
  1952  4192  4174    2
  1953  2515  2516    1
  1954  2515  2517   ar
  1955  2569  2589    1
  1956  1616  1618    1
  1957  2484  2486    1
  1958  1123  1121    1
  1959  5204  5182    1
  1960  3624  3619    1
  1961  3624  3635    1
  1962  1127  1122    1
  1963   242   241    1
  1964   242   243   ar
  1965  2486  2487    1
  1966  2486  2488    1
  1967  4351  4350   ar
  1968  1503  1484    2
  1969   245   243   ar
  1970  2387  2389   ar
  1971  2387  2388    1
  1972  1584  1585    2
  1973  3661  3663    1
  1974  3661  3662    1
  1975  2490  2488    1
  1976  2504  2487    1
  1977  2504  2525    1
  1978  2504  2506    1
  1979  2574  2572    1
  1980  2574  2575    1
  1981   274   252    2
  1982  4341  4340    1
  1983  4341  4346    1
  1984  2518  2524   ar
  1985  2518  2517   ar
  1986  2550  2548    1
  1987   241   239    1
  1988  1604  1605   ar
  1989  3605  3606   ar
  1990  5448  5453    1
  1991  5448  5447    1
  1992  1558  1565   ar
  1993  1468  1467    1
  1994  1468  1473    1
  1995  1620  1618    1
  1996  1620  1630    1
  1997   243   244    2
  1998  1554  1553    1
  1999  1554  1568    1
  2000  2358  2357    1
  2001  5182  5184    1
  2002  5182  5165    1
  2003  2572  2570    1
  2004  1515  1516   ar
  2005  1634  1636    1
  2006  1634  1635    1
  2007   343   342    1
  2008   343   341    1
  2009  5445  5447    1
  2010  4340  4342    1
  2011  1113  1112    1
  2012  3619  3618    1
  2013  1467  1469    1
  2014  2475  2476    1
  2015  2475  2474   ar
  2016   216   215    1
  2017  1607  1605   ar
  2018  3618  3620    1
  2019  3618  3616    1
  2020  3660  3662    1
  2021  3660  3679    1
  2022  3602  3608   ar
  2023  5454  5453    1
  2024  5454  5455   ar
  2025  2361  2363   ar
  2026  2361  2360   ar
  2027  3621  3620    1
  2028  3621  3638    1
  2029  1033  1035    1
  2030  1033  1034    1
  2031  1619  1618    1
  2032  2356  2355    1
  2033  1629  1630   ar
  2034  1629  1628   ar
  2035  2575  2591    1
  2036  2348  2328    2
  2037  1589  1568    2
  2038  1553  1551    1
  2039  1473  1471    1
  2040  5457  5455   ar
  2041  2349  2328    1
  2042  1543  1544   ar
  2043  5183  5184    1
  2044  5183  5185    1
  2045  2109  2089    2
  2046  5187  5185    1
  2047  5187  5189    1
  2048   335   334   ar
  2049   335   337   ar
  2050  1633  1635    1
  2051  1633  1654    1
  2052   334   332   ar
  2053  1073  1052    2
  2054  1552  1551    1
  2055  3640  3638    1
  2056  4191  4190   ar
  2057  4347  4346    1
  2058  4347  4348   ar
  2059   237   239    1
  2060   237   238    1
  2061  1568  1590    1
  2062  3600  3599    1
  2063   363   341    2
  2064  2488  2489    1
  2065  2524  2513    1
  2066  2549  2548    1
  2067  2549  2547    1
  2068  3629  3635   ar
  2069  3629  3630   ar
  2070  3663  3664    1
  2071  3663  3665    1
  2072  3658  3638    2
  2073   273   252    1
  2074  1469  1471    1
  2075  1469  1470    1
  2076  4174  4160    1
  2077  4174  4193    1
  2078  2363  2364   ar
  2079  1035  1037    1
  2080  1035  1036    1
  2081  3650  3651   ar
  2082  3650  3649   ar
  2083  2357  2355    1
  2084  2357  2359    1
  2085  2472  2474   ar
  2086  2472  2473    2
  2087  2607  2606    1
  2088  3657  3651   ar
  2089  3657  3656   ar
  2090  4187  4188   ar
  2091  4162  4161    1
  2092  2506  2505    1
  2093  3635  3634   ar
  2094  1048  1047   ar
  2095  1048  1049   ar
  2096  1605  1606    1
  2097  1551  1549    1
  2098  2568  2547    2
  2099  5453  5451    1
  2100  3625  3631   ar
  2101  1630  1624   ar
  2102  4350  4348   ar
  2103  1636  1637    1
  2104  1636  1638    1
  2105  2608  2609   ar
  2106  2608  2605   ar
  2107  5447  5449    1
  2108  1517  1516   ar
  2109  1517  1523   ar
  2110   252   238    1
  2111   252   254    1
  2112  5455  5456    2
  2113  5180  5159    2
  2114  1562  1563    1
  2115  1562  1564   ar
  2116  2536  2534    1
  2117  2536  2531    1
  2118  3664  3669    1
  2119  1034  1039    1
  2120  1522  1523   ar
  2121   239   240    1
  2122  2606  2605   ar
  2123  2606  2601   ar
  2124  4346  4344    1
  2125  2609  2610   ar
  2126  1545  1544   ar
  2127  1545  1535    1
  2128  2595  2600    1
  2129  2595  2594    1
  2130  1092  1091    2
  2131  2605  2604   ar
  2132  1493  1491    1
  2133  1493  1488    1
  2134  1047  1044   ar
  2135  1037  1039    1
  2136  1037  1038    1
  2137  1637  1642    1
  2138  1122  1121    1
  2139  3638  3659    1
  2140  2360  2366   ar
  2141  2534  2532    1
  2142  2534  2535    1
  2143  2328  2312    1
  2144  2328  2330    1
  2145  2072  2089    1
  2146  2072  2071    1
  2147  2546  2527    2
  2148  1121  1119    1
  2149   215   213    1
  2150   215   217    1
  2151  1111  1112   ar
  2152  1111  1109   ar
  2153  1112  1114   ar
  2154  4348  4349    2
  2155  1484  1486    1
  2156  1484  1470    1
  2157  1484  1502    1
  2158  4342  4343    1
  2159  4342  4344    1
  2160   341   362    1
  2161   341   327    1
  2162  5185  5186    1
  2163  4160  4159    1
  2164  1628  1625   ar
  2165   333   332    2
  2166  2355  2353    1
  2167  3651  3652   ar
  2168  1074  1052    1
  2169  2317  2318   ar
  2170  2317  2316   ar
  2171  2601  2602   ar
  2172  1471  1472    1
  2173   332   331   ar
  2174  3616  3617    1
  2175  2067  2069    1
  2176  2067  2068    1
  2177  3606  3612   ar
  2178  3606  3607   ar
  2179  2610  2604   ar
  2180  2610  2600    1
  2181  2087  2066    2
  2182  1486  1485    1
  2183  2604  2603   ar
  2184  1565  1564   ar
  2185  5066  5065    1
  2186  5165  5164    1
  2187   337   338   ar
  2188  3649  3648   ar
  2189  1052  1036    1
  2190  1052  1054    1
  2191  1491  1489    1
  2192  1491  1492    1
  2193  2600  2598    1
  2194  2547  2533    1
  2195  2547  2567    1
  2196  2602  2603   ar
  2197  2051  2050    1
  2198   315   314    2
  2199  5189  5190    1
  2200  5189  5191    1
  2201  3599  3601    1
  2202  3599  3597    1
  2203  5181  5159    1
  2204  2314  2313    1
  2205  4376  4357    2
  2206  4161  4159    1
  2207  4161  4163    1
  2208  2069  2071    1
  2209  2069  2070    1
  2210   230   210    2
  2211  1488  1487    1
  2212  2074  2073    1
  2213  4372  4371    1
  2214  2089  2091    1
  2215  2089  2110    1
  2216  3656  3655   ar
  2217  4190  4188   ar
  2218  3608  3607   ar
  2219  3608  3609    2
  2220  3701  3680    2
  2221  3666  3665    1
  2222  3666  3680    1
  2223  2532  2533    1
  2224  2532  2530    1
  2225  2318  2319   ar
  2226  1523  1513    1
  2227  3601  3612    1
  2228  3601  3596    1
  2229  2090  2091    1
  2230  2090  2092    1
  2231  4188  4189    1
  2232  2316  2321   ar
  2233  1039  1049    1
  2234  2531  2530    1
  2235  3630  3631   ar
  2236  3630  3633   ar
  2237   218   217    1
  2238  1049  1043   ar
  2239  2364  2370   ar
  2240  2364  2365   ar
  2241  1535  1533    1
  2242  1535  1530    1
  2243  2591  2612    2
  2244  2591  2593    1
  2245  2591  2611    1
  2246  2592  2594    1
  2247  2592  2593    1
  2248   213   211    1
  2249   213   214    1
  2250  3665  3667    1
  2251  1069  1068    2
  2252  4393  4392    1
  2253  2359  2370    1
  2254  2359  2354    1
  2255  3631  3632    2
  2256  1639  1638    1
  2257  1639  1655    1
  2258  5159  5161    1
  2259  5159  5143    1
  2260  2312  2311    1
  2261  2513  2508    1
  2262  2513  2511    1
  2263  2131  2111    2
  2264  3669  3667    1
  2265  3669  3670    1
  2266  1624  1625   ar
  2267  1624  1623   ar
  2268  4343  4357    1
  2269  5200  5201   ar
  2270  5200  5197   ar
  2271  2594  2596    1
  2272  5201  5202   ar
  2273  3702  3680    1
  2274  4344  4345    1
  2275  3634  3633   ar
  2276  2529  2527    1
  2277  2529  2528    1
  2278  5449  5451    1
  2279  5449  5450    1
  2280  2071  2073    1
  2281  3612  3611   ar
  2282   211   212    1
  2283  1091  1085   ar
  2284  1091  1090   ar
  2285  2313  2311    1
  2286  2313  2315    1
  2287  2508  2507    1
  2288  1489  1487    1
  2289  1489  1490    1
  2290  1638  1640    1
  2291  5157  5137    2
  2292  1109  1110    2
  2293  1109  1108   ar
  2294  2505  2507    1
  2295  1533  1534    1
  2296  1533  1531    1
  2297  3607  3610   ar
  2298  1549  1550    1
  2299  4166  4165    2
  2300  1114  1115   ar
  2301  4159  4157    1
  2302  5186  5191    1
  2303  2049  2066    1
  2304  2049  2048    1
  2305   331   338   ar
  2306   331   330    1
  2307  5451  5452    1
  2308  5479  5478    2
  2309  1120  1119    1
  2310  1120  1118    1
  2311  2509  2511    1
  2312  2509  2507    1
  2313  2509  2510    1
  2314   217   219    1
  2315  3680  3682    1
  2316  1625  1626   ar
  2317  1835  1834    1
  2318  2330  2329    1
  2319   254   253    1
  2320  2366  2365   ar
  2321  2366  2367    2
  2322   327   326    1
  2323  3668  3667    1
  2324  1642  1640    1
  2325  1642  1652    1
  2326  5065  5064   ar
  2327  5065  5060   ar
  2328  2527  2510    1
  2329  2527  2545    1
  2330  5199  5198    2
  2331   297   275    2
  2332  5067  5064   ar
  2333  5067  5068   ar
  2334  1044  1043   ar
  2335  1044  1045   ar
  2336  1525  1504    2
  2337  2370  2369   ar
  2338  5197  5198   ar
  2339  5197  5196   ar
  2340  2353  2354    1
  2341  2353  2351    1
  2342  1085  1086   ar
  2343  5202  5191    1
  2344  5202  5196   ar
  2345  5164  5162    1
  2346  5164  5166    1
  2347  3652  3655   ar
  2348  3652  3653   ar
  2349   328   326    1
  2350   328   330    1
  2351   328   329    1
  2352   326   324    1
  2353  2068  2066    1
  2354  2066  2088    1
  2355  2511  2512    1
  2356  1070  1067   ar
  2357  1070  1071   ar
  2358  4357  4375    1
  2359  4357  4359    1
  2360  1487  1485    1
  2361   314   308   ar
  2362   314   313   ar
  2363  3617  3615    1
  2364  2132  2111    1
  2365  4371  4373   ar
  2366  4371  4370   ar
  2367  5198  5192   ar
  2368  4373  4374   ar
  2369  2530  2528    1
  2370  1676  1655    2
  2371  2073  2075    1
  2372  3648  3653   ar
  2373  1641  1640    1
  2374  2365  2368   ar
  2375  5196  5195   ar
  2376  2092  2094    1
  2377  2092  2093    1
  2378  2070  2075    1
  2379  2311  2309    1
  2380  1623  1622   ar
  2381  3596  3595    1
  2382  5160  5161    1
  2383  5160  5162    1
  2384  2095  2111    1
  2385  2095  2094    1
  2386   196   210    1
  2387   196   195    1
  2388  2319  2320   ar
  2389  2319  2325   ar
  2390  2111  2113    1
  2391  4163  4164    1
  2392  4163  4158    1
  2393  2050  2048    1
  2394  2050  2052    1
  2395  2321  2322    1
  2396  2321  2320   ar
  2397  2046  2048    1
  2398  2046  2044    1
  2399  2046  2047    1
  2400  1677  1655    1
  2401  1054  1053    1
  2402  5158  5137    1
  2403   210   212    1
  2404   210   231    1
  2405  5064  5063   ar
  2406   340   321    2
  2407   198   197    1
  2408  1043  1042   ar
  2409   316   313   ar
  2410   316   317   ar
  2411  2599  2598    1
  2412  2598  2596    1
  2413  5478  5480   ar
  2414  5478  5477   ar
  2415  2339  2338   ar
  2416  2339  2340   ar
  2417  1068  1067   ar
  2418  1068  1062   ar
  2419  1655  1657    1
  2420  3597  3598    1
  2421  3597  3595    1
  2422  3670  3677   ar
  2423  3670  3671   ar
  2424  1550  1548    1
  2425  1651  1652   ar
  2426  1651  1650   ar
  2427  1046  1045    1
  2428  1139  1118    2
  2429  5143  5142    1
  2430  5483  5464    2
  2431  1530  1529    1
  2432  5192  5193   ar
  2433  3598  3615    1
  2434  2329  2331    1
  2435  5480  5481   ar
  2436  5060  5061   ar
  2437  1513  1508    1
  2438  1513  1511    1
  2439  1090  1093   ar
  2440  1090  1089   ar
  2441  3677  3676   ar
  2442  2628  2627    1
  2443   214   219    1
  2444  4165  4164   ar
  2445  4165  4167   ar
  2446   219   229    1
  2447   330   325    1
  2448   253   255    1
  2449  5195  5193   ar
  2450  1115  1108   ar
  2451  2352  2351    1
  2452  2352  2350    1
  2453  1093  1094   ar
  2454  1108  1107    1
  2455  5450  5464    1
  2456   308   309   ar
  2457  1652  1646   ar
  2458  4392  4387   ar
  2459  4392  4391   ar
  2460  5137  5139    1
  2461  5137  5121    1
  2462  3653  3654    1
  2463   313   312   ar
  2464  4157  4158    1
  2465  4157  4155    1
  2466  5068  5069   ar
  2467  1851  1853    1
  2468  1851  1852    1
  2469  2315  2325    1
  2470  2315  2310    1
  2471  1067  1066   ar
  2472  2044  2045    1
  2473  5193  5194    1
  2474  2596  2597    1
  2475  1071  1072   ar
  2476  5162  5163    1
  2477  2075  2086    1
  2478  1490  1504    1
  2479  3595  3593    1
  2480  3611  3610   ar
  2481  1045  1040   ar
  2482  2371  2350    2
  2483   323   321    1
  2484   323   322    1
  2485  1118  1138    1
  2486  1118  1104    1
  2487  1097  1075    2
  2488  2320  2323   ar
  2489  2338  2343   ar
  2490  1626  1627    1
  2491  1626  1621   ar
  2492  5166  5167    1
  2493  5166  5168    1
  2494  1853  1854    1
  2495  1853  1855    1
  2496  1531  1529    1
  2497  1531  1532    1
  2498  2094  2096    1
  2499  4370  4368   ar
  2500  2325  2324   ar
  2501  2627  2626   ar
  2502  2627  2629   ar
  2503  2340  2341   ar
  2504   296   275    1
  2505  4164  4171   ar
  2506  4387  4388   ar
  2507  2047  2052    1
  2508  1508  1507    1
  2509  2626  2624   ar
  2510  1504  1506    1
  2511  1504  1524    1
  2512  1834  1836    1
  2513  1834  1832    1
  2514  2052  2063    1
  2515  2369  2368   ar
  2516  1086  1087    1
  2517  1086  1088   ar
  2518  4374  4367   ar
  2519   275   258    1
  2520   275   277    1
  2521  3615  3636    2
  2522  3615  3637    1
  2523  5477  5475   ar
  2524  1506  1505    1
  2525  4359  4358    1
  2526  2093  2098    1
  2527  1105  1107    1
  2528  1105  1103    1
  2529  1105  1106    1
  2530  3682  3681    1
  2531  2333  2331    1
  2532  2333  2335    1
  2533  2333  2334    1
  2534   270   271   ar
  2535   270   267   ar
  2536  6634  6633    1
  2537   317   318   ar
  2538   193   195    1
  2539   193   191    1
  2540   193   194    1
  2541   324   325    1
  2542   324   322    1
  2543  4167  4168   ar
  2544  3672  3671    2
  2545  1622  1621   ar
  2546   292   291    2
  2547  2629  2630   ar
  2548  1868  1850    2
  2549   321   339    1
  2550   321   304    1
  2551  1854  1859    1
  2552  5481  5474   ar
  2553  1511  1509    1
  2554  1511  1512    1
  2555  3671  3673   ar
  2556  1836  1831    1
  2557  1836  1847    1
  2558   195   197    1
  2559  1650  1647   ar
  2560  2205  2204    1
  2561  4143  4142    1
  2562  5464  5482    1
  2563  5464  5466    1
  2564  1833  1832    1
  2565  1833  1850    1
  2566  5063  5069   ar
  2567  5063  5062   ar
  2568  2624  2625    2
  2569  2624  2623   ar
  2570  1053  1055    1
  2571  1062  1063   ar
  2572  5135  5115    2
  2573  1830  1831    1
  2574  1830  1832    1
  2575  1830  1828    1
  2576  2309  2310    1
  2577  2309  2307    1
  2578   320   298    2
  2579   271   272   ar
  2580  3676  3674   ar
  2581  4394  4391   ar
  2582  4394  4395   ar
  2583   197   199    1
  2584   191   192    1
  2585  1839  1838    1
  2586  5139  5138    1
  2587  1529  1527    1
  2588  4391  4390   ar
  2589  2350  2334    1
  2590  2350  2372    1
  2591  2331  2332    1
  2592  5178  5177   ar
  2593  5178  5179   ar
  2594  5061  5062   ar
  2595  1042  1041   ar
  2596  1107  1102    1
  2597  5142  5140    1
  2598  5142  5144    1
  2599  1532  1548    1
  2600  2335  2336    1
  2601  2335  2337    1
  2602  1856  1855    1
  2603  1856  1870    1
  2604  5069  5059    1
  2605  5177  5174   ar
  2606  1089  1088   ar
  2607  1089  1095   ar
  2608  2203  2204   ar
  2609  2203  2209   ar
  2610   293   294   ar
  2611   293   290   ar
  2612  2630  2623   ar
  2613  1858  1857    1
  2614  5121  5120    1
  2615   309   310    1
  2616   309   311   ar
  2617  2113  2112    1
  2618  1094  1095   ar
  2619  3681  3683    1
  2620  1103  1104    1
  2621  1103  1101    1
  2622   312   318   ar
  2623   312   311   ar
  2624  1646  1647   ar
  2625  1646  1645   ar
  2626  2623  2622    1
  2627  5071  5050    2
  2628  2097  2096    1
  2629  6633  6632   ar
  2630  6633  6635   ar
  2631  5058  5057    1
  2632  2597  2613    1
  2633  1840  1838   ar
  2634  1840  1841   ar
  2635  5138  5140    1
  2636  2210  2209    2
  2637  4155  4156    1
  2638  1509  1507    1
  2639  1509  1510    1
  2640  1548  1567    2
  2641  1548  1566    1
  2642  1657  1656    1
  2643   222   223   ar
  2644   222   221   ar
  2645   269   268    2
  2646   229   223   ar
  2647   229   228   ar
  2648  5163  5168    1
  2649   255   257    1
  2650   255   256    1
  2651  1852  1850    1
  2652  2064  2043    2
  2653  4368  4367   ar
  2654  4368  4369    2
  2655  2323  2324   ar
  2656  1066  1072   ar
  2657  1066  1065   ar
  2658   258   257    1
  2659  5475  5474   ar
  2660  5475  5476    2
  2661  1072  1061    1
  2662  4367  4366    1
  2663   257   259    1
  2664  1855  1857    1
  2665   277   276    1
  2666  5474  5473    1
  2667  5179  5168    1
  2668  5179  5173   ar
  2669  1040  1041   ar
  2670  4358  4360    1
  2671  4171  4170   ar
  2672  6632  6630   ar
  2673  2045  2043    1
  2674  6635  6636   ar
  2675  2096  2098    1
  2676  5057  5059    1
  2677  5057  5055    1
  2678  2112  2114    1
  2679  1859  1857    1
  2680  1859  1860    1
  2681  2343  2344    1
  2682  2343  2342   ar
  2683  2204  2206   ar
  2684   318   307    1
  2685  2086  2085   ar
  2686  2086  2080   ar
  2687  1507  1505    1
  2688  1528  1527    1
  2689  1528  1526    1
  2690  2056  2057   ar
  2691  2056  2054   ar
  2692   291   290   ar
  2693   291   285   ar
  2694  5174  5173   ar
  2695  5174  5175   ar
  2696  2622  2617    1
  2697  2622  2620    1
  2698  2341  2342   ar
  2699  2341  2347   ar
  2700  1647  1648   ar
  2701  3593  3594    1
  2702  1850  1869    1
  2703  5594  5593    1
  2704  1075  1096    1
  2705  1075  1058    1
  2706  1075  1077    1
  2707  5614  5613    1
  2708  1891  1870    2
  2709  1547  1526    2
  2710  1117  1098    2
  2711  4388  4389   ar
  2712  1828  1829    1
  2713   194   199    1
  2714   267   268   ar
  2715   267   266   ar
  2716  1656  1658    1
  2717  1645  1644   ar
  2718   199   200    1
  2719  3673  3674   ar
  2720   294   295   ar
  2721  1838  1837   ar
  2722  2209  2208   ar
  2723  5609  5607    1
  2724  5609  5610    1
  2725  5609  5611    1
  2726  2098  2108    1
  2727  2617  2616    1
  2728  5176  5175    2
  2729  5607  5608    1
  2730  4168  4170   ar
  2731  4168  4169    2
  2732  2152  2133    2
  2733  4156  4154    1
  2734  5140  5141    1
  2735  2055  2054    1
  2736   299   301    1
  2737   299   300    1
  2738  2063  2057   ar
  2739  2063  2062   ar
  2740  1815  1814    1
  2741   290   289   ar
  2742   223   224   ar
  2743  5173  5172   ar
  2744  1057  1055    1
  2745  1057  1058    1
  2746  1057  1059    1
  2747  1095  1084    1
  2748   256   261    1
  2749  5466  5465    1
  2750  4142  4141   ar
  2751  4142  4144   ar
  2752  5136  5115    1
  2753  3674  3675    2
  2754  5175  5169   ar
  2755  5647  5626    2
  2756  2031  2030    1
  2757   268   262   ar
  2758   303   304    1
  2759   303   305    1
  2760   303   301    1
  2761  5116  5117    1
  2762  5116  5118    1
  2763  1055  1056    1
  2764  1847  1841   ar
  2765  1847  1846   ar
  2766  2307  2308    1
  2767  5115  5117    1
  2768  5115  5098    1
  2769  5468  5473    1
  2770  5468  5467    1
  2771  4361  4366    1
  2772  4361  4360    1
  2773   192   190    1
  2774  1063  1065   ar
  2775  1063  1064    1
  2776  6630  6631    2
  2777  6630  6629   ar
  2778  6636  6629   ar
  2779  5144  5145    1
  2780  5144  5146    1
  2781  2332  2337    1
  2782   272   266   ar
  2783   272   261    1
  2784  5059  5054    1
  2785  5612  5611    1
  2786  5612  5626    1
  2787   221   220   ar
  2788  1056  1061    1
  2789  1870  1892    1
  2790  1870  1872    1
  2791  4395  4396   ar
  2792  1102  1101    1
  2793  1841  1842   ar
  2794   298   319    1
  2795   298   300    1
  2796   298   281    1
  2797  1100  1098    1
  2798  1100  1099    1
  2799  2085  2084   ar
  2800  4141  4147   ar
  2801   228   227   ar
  2802   208   190    2
  2803  5120  5118    1
  2804  5120  5122    1
  2805  1674  1673   ar
  2806  1674  1675   ar
  2807  4390  4389   ar
  2808  4390  4396   ar
  2809  2342  2345   ar
  2810  1673  1670   ar
  2811  5610  5615    1
  2812  2337  2347    1
  2813  2043  2029    1
  2814  2043  2065    1
  2815  2057  2058   ar
  2816  2079  2080   ar
  2817  2079  2077   ar
  2818  5499  5498    1
  2819  5473  5471    1
  2820  2308  2306    1
  2821  6629  6628    1
  2822  5624  5606    2
  2823  5172  5170   ar
  2824  2054  2053   ar
  2825  1077  1076    1
  2826  5113  5092    2
  2827  5050  5070    1
  2828  5050  5052    1
  2829  5050  5033    1
  2830  3594  3592    1
  2831  5022  5021    2
  2832  6618  6599    2
  2833  1526  1510    1
  2834  1526  1546    1
  2835  5169  5170   ar
  2836  5051  5052    1
  2837  5051  5053    1
  2838  1101  1099    1
  2839   175   174    1
  2840  1061  1059    1
  2841  5020  5021   ar
  2842  5020  5018   ar
  2843   202   201    2
  2844  4366  4364    1
  2845  2347  2346   ar
  2846  4360  4362    1
  2847  2080  2081   ar
  2848  5019  5018    2
  2849   285   286   ar
  2850  1659  1658    1
  2851  1659  1664    1
  2852  2648  2647    1
  2853  1871  1872    1
  2854  1871  1873    1
  2855  2615  2613    1
  2856  2615  2614    1
  2857  3683  3684    1
  2858  3683  3685    1
  2859   305   307    1
  2860   305   306    1
  2861   266   265   ar
  2862  3723  3703    2
  2863   301   302    1
  2864  5170  5171    1
  2865  4144  4145   ar
  2866  3684  3689    1
  2867  5055  5053    1
  2868  5055  5056    1
  2869  2632  2613    2
  2870  2613  2631    1
  2871  5611  5613    1
  2872  5118  5119    1
  2873   261   259    1
  2874  2206  2207   ar
  2875   307   302    1
  2876  2151  2133    1
  2877   259   260    1
  2878  1098  1116    1
  2879  1098  1081    1
  2880  5054  5053    1
  2881  3699  3698   ar
  2882  3699  3700   ar
  2883   276   278    1
  2884  5627  5628    1
  2885  5627  5629    1
  2886  2107  2108   ar
  2887  2107  2106   ar
  2888  1819  1818    2
  2889  2029  2028    1
  2890  5613  5615    1
  2891  1059  1060    1
  2892  1648  1649    1
  2893  1648  1643   ar
  2894  1860  1867   ar
  2895  1860  1861   ar
  2896  1644  1643   ar
  2897   295   289   ar
  2898   295   284    1
  2899  2108  2102   ar
  2900  3698  3695   ar
  2901  2062  2061   ar
  2902  3999  3979    2
  2903  2621  2620    1
  2904  5615  5616    1
  2905  5465  5467    1
  2906   289   288   ar
  2907  1658  1660    1
  2908  2133  2117    1
  2909  2133  2135    1
  2910  5592  5606    1
  2911  5592  5591    1
  2912  2620  2618    1
  2913  2208  2207   ar
  2914  2208  2211   ar
  2915  4172  4154    2
  2916  6628  6626    1
  2917  6628  6623    1
  2918  5021  5023   ar
  2919  2030  2028    1
  2920  2030  2032    1
  2921  5155  5154   ar
  2922  5155  5156   ar
  2923  4362  4364    1
  2924  4362  4363    1
  2925  2114  2116    1
  2926  2114  2115    1
  2927  2647  2646   ar
  2928  2647  2649   ar
  2929   190   173    1
  2930   190   209    1
  2931  4396  4386    1
  2932  6627  6626    1
  2933  5626  5628    1
  2934  5626  5648    1
  2935  5593  5595    1
  2936  5593  5591    1
  2937  5018  5017   ar
  2938  1814  1816    1
  2939  1814  1812    1
  2940  1837  1843   ar
  2941  2646  2644   ar
  2942  1829  1827    1
  2943  1080  1082    1
  2944  1080  1081    1
  2945  1080  1078    1
  2946   280   281    1
  2947   280   278    1
  2948   280   282    1
  2949   224   227   ar
  2950   224   225   ar
  2951  5141  5146    1
  2952  2616  2614    1
  2953  2616  2618    1
  2954   200   201   ar
  2955   200   207   ar
  2956  5608  5606    1
  2957  4154  4173    1
  2958  4154  4137    1
  2959   262   263   ar
  2960   173   172    1
  2961  6626  6624    1
  2962  4139  4138    1
  2963  5098  5097    1
  2964  1084  1082    1
  2965  1084  1079    1
  2966  2188  2187    2
  2967  1082  1083    1
  2968  5154  5151   ar
  2969  1846  1845   ar
  2970  5467  5469    1
  2971  2295  2294    1
  2972  1867  1866   ar
  2973  3724  3703    1
  2974  5146  5156    1
  2975  2207  2213   ar
  2976  6587  6586    1
  2977  4147  4148    2
  2978  4147  4146   ar
  2979  1862  1861    2
  2980  5090  5072    2
  2981  1675  1664    1
  2982  1675  1669   ar
  2983   220   225   ar
  2984  5598  5597    2
  2985  5606  5625    1
  2986  5498  5500   ar
  2987  5498  5497   ar
  2988   201   203   ar
  2989  5156  5150   ar
  2990  2649  2650   ar
  2991  3685  3686    1
  2992  3685  3687    1
  2993  2078  2077    1
  2994  2077  2076   ar
  2995  1670  1671   ar
  2996  1670  1669   ar
  2997  2117  2116    1
  2998  2084  2081   ar
  2999   179   178    1
  3000   279   278    1
  3001   279   284    1
  3002  2644  2645    2
  3003  2644  2643   ar
  3004  5122  5123    1
  3005  5122  5124    1
  3006  6600  6601    1
  3007  6600  6602    1
  3008  1842  1843   ar
  3009  1842  1845   ar
  3010  4364  4365    1
  3011  5595  5590    1
  3012  5595  5596    1
  3013  1813  1812    1
  3014  1813  1827    1
  3015  1873  1874    1
  3016  1873  1875    1
  3017  2345  2346   ar
  3018  3703  3686    1
  3019  3703  3705    1
  3020  5589  5591    1
  3021  5589  5590    1
  3022  5589  5587    1
  3023   286   288   ar
  3024   286   287    1
  3025  6599  6601    1
  3026  6599  6617    1
  3027  6599  6585    1
  3028  5629  5630    1
  3029  5629  5631    1
  3030  1672  1671    2
  3031  1076  1078    1
  3032  2116  2118    1
  3033  4021  4001    2
  3034  5033  5032    1
  3035  5056  5072    1
  3036  2058  2061   ar
  3037  2058  2059   ar
  3038   174   172    1
  3039   174   176    1
  3040  4138  4140    1
  3041  4138  4136    1
  3042  1664  1662    1
  3043  1861  1863   ar
  3044  2035  2034    2
  3045  2028  2026    1
  3046  2053  2059   ar
  3047  4145  4146   ar
  3048  4145  4151   ar
  3049  2081  2082   ar
  3050  2115  2120    1
  3051  1079  1078    1
  3052  1816  1811    1
  3053  1816  1817    1
  3054  2129  2128   ar
  3055  2129  2130   ar
  3056   265   263   ar
  3057  5092  5114    1
  3058  5092  5094    1
  3059  5092  5078    1
  3060  5151  5150   ar
  3061  5151  5152   ar
  3062  3700  3689    1
  3063  3700  3694   ar
  3064   284   282    1
  3065  5471  5469    1
  3066  5471  5472    1
  3067  5500  5501   ar
  3068   282   283    1
  3069  1874  1879    1
  3070  2650  2643   ar
  3071  2306  2326    2
  3072  2306  2289    1
  3073  2306  2327    1
  3074  2211  2212   ar
  3075   225   226    1
  3076  2618  2619    1
  3077  2643  2642    1
  3078  5150  5149   ar
  3079  4363  4377    1
  3080  3578  3592    1
  3081  3578  3577    1
  3082  3592  3614    2
  3083  3592  3613    1
  3084  2106  2103   ar
  3085  3689  3687    1
  3086  1848  1827    2
  3087  2032  2027    1
  3088  2032  2033    1
  3089   263   264    1
  3090  1818  1817   ar
  3091  1818  1820   ar
  3092  2128  2125   ar
  3093  5072  5091    1
  3094  5072  5074    1
  3095  1660  1662    1
  3096  1660  1661    1
  3097  5497  5495   ar
  3098  2148  2147    2
  3099  4137  4136    1
  3100  1671  1665   ar
  3101  3695  3694   ar
  3102  3695  3696   ar
  3103  1843  1844    2
  3104   207   206   ar
  3105  5519  5518    2
  3106  1812  1810    1
  3107  5469  5470    1
  3108  4022  4001    1
  3109  5119  5124    1
  3110  4146  4149   ar
  3111  4379  4378    1
  3112  4379  4377    1
  3113  2026  2027    1
  3114  2026  2024    1
  3115  5630  5635    1
  3116   172   170    1
  3117  1669  1668   ar
  3118  5153  5152    1
  3119  5023  5024   ar
  3120  1827  1849    1
  3121  2102  2101   ar
  3122  2102  2103   ar
  3123  5017  5024   ar
  3124  5017  5016    1
  3125  6623  6622    1
  3126  5152  5147   ar
  3127  2135  2134    1
  3128  2149  2147   ar
  3129  2149  2150   ar
  3130  5616  5623   ar
  3131  5616  5617   ar
  3132  2289  2288    1
  3133  3697  3696    2
  3134  3979  3963    1
  3135  3979  4000    1
  3136  3979  3981    1
  3137  3580  3579    1
  3138  2187  2186   ar
  3139  2187  2189   ar
  3140  5097  5095    1
  3141  5097  5099    1
  3142  2642  2637    1
  3143  2642  2640    1
  3144  5149  5148   ar
  3145  6586  6584    1
  3146  6586  6588    1
  3147   180   178   ar
  3148   180   181   ar
  3149  2294  2296   ar
  3150  2294  2293   ar
  3151  5618  5617    2
  3152  2059  2060    2
  3153  5597  5596   ar
  3154  5597  5599   ar
  3155  4386  4381    1
  3156  4386  4384    1
  3157  5093  5094    1
  3158  5093  5095    1
  3159  1810  1811    1
  3160  1810  1808    1
  3161  2213  2212   ar
  3162  2213  2202    1
  3163  1866  1864   ar
  3164   178   177   ar
  3165  4001  3985    1
  3166  4001  4003    1
  3167  6591  6590    2
  3168  3963  3962    1
  3169  6624  6625    1
  3170  6624  6622    1
  3171  1817  1824   ar
  3172  5587  5588    1
  3173  2296  2297   ar
  3174  3687  3688    1
  3175  5124  5134    1
  3176  5539  5538    2
  3177  5632  5631    1
  3178  5632  5649    1
  3179  4140  4151    1
  3180  4140  4135    1
  3181  4136  4134    1
  3182  5503  5484    2
  3183  3694  3693   ar
  3184  4151  4150   ar
  3185   203   204   ar
  3186  2637  2636    1
  3187  3696  3690   ar
  3188  4378  4380    1
  3189  5596  5603   ar
  3190  2076  2082   ar
  3191  5011  5016    1
  3192  5011  5010    1
  3193  2147  2146   ar
  3194  3980  3981    1
  3195  3980  3982    1
  3196  2168  2167    1
  3197  2034  2033   ar
  3198  2034  2036   ar
  3199  2101  2100   ar
  3200  5147  5148   ar
  3201  5133  5134   ar
  3202  5133  5132   ar
  3203  1700  1678    2
  3204  1662  1663    1
  3205  4377  4398    2
  3206  4377  4397    1
  3207  1820  1821   ar
  3208  5016  5014    1
  3209  1876  1875    1
  3210  1876  1893    1
  3211   176   171    1
  3212   176   187    1
  3213  5623  5622   ar
  3214  6592  6590   ar
  3215  6592  6593   ar
  3216  2200  2201    1
  3217  2200  2202    1
  3218  2200  2198    1
  3219  2103  2104   ar
  3220  5078  5077    1
  3221  6602  6603    1
  3222  6602  6604    1
  3223  1661  1678    1
  3224   170   171    1
  3225   170   168    1
  3226  5631  5633    1
  3227  4381  4380    1
  3228  2130  2120    1
  3229  2130  2124   ar
  3230  5032  5034    1
  3231  5032  5030    1
  3232  3577  3579    1
  3233  3577  3575    1
  3234  4382  4384    1
  3235  4382  4380    1
  3236  4382  4383    1
  3237  2082  2083    2
  3238  2236  2216    2
  3239  6590  6589   ar
  3240  5501  5494   ar
  3241  1863  1864   ar
  3242  6585  6584    1
  3243  2120  2118    1
  3244  1875  1877    1
  3245  5035  5034    1
  3246  5617  5619   ar
  3247  5134  5128   ar
  3248  2186  2184   ar
  3249  2033  2040   ar
  3250  6584  6582    1
  3251  5095  5096    1
  3252  5518  5517   ar
  3253  5518  5520   ar
  3254  5670  5649    2
  3255  4384  4385    1
  3256  2118  2119    1
  3257  6594  6593    2
  3258  3985  3984    1
  3259  2150  2143   ar
  3260  2619  2633    1
  3261  2172  2153    2
  3262  3705  3704    1
  3263  5495  5494   ar
  3264  5495  5496    2
  3265  2237  2216    1
  3266  1879  1877    1
  3267  1879  1890    1
  3268  2189  2190   ar
  3269  3579  3581    1
  3270  2668  2667    2
  3271  5517  5515   ar
  3272  5634  5633    1
  3273  3977  3957    2
  3274  6625  6639    1
  3275  6593  6595   ar
  3276  2024  2025    1
  3277  5132  5129   ar
  3278  6622  6620    1
  3279  1665  1666   ar
  3280  2202  2197    1
  3281  4149  4150   ar
  3282   206   204   ar
  3283  1668  1666   ar
  3284  5635  5633    1
  3285  5635  5646    1
  3286  1695  1694    2
  3287  6650  6639    2
  3288  1878  1877    1
  3289  5074  5073    1
  3290  5034  5036    1
  3291  2286  2287    1
  3292  2286  2288    1
  3293  2286  2284    1
  3294  2293  2299   ar
  3295  2125  2124   ar
  3296  2125  2126   ar
  3297  6603  6608    1
  3298  2287  2292    1
  3299  5099  5100    1
  3300  5099  5101    1
  3301  3958  3960    1
  3302  3958  3959    1
  3303  5470  5484    1
  3304  1864  1865    2
  3305  4119  4120   ar
  3306  4119  4124   ar
  3307  5599  5600   ar
  3308  6589  6588    1
  3309  6589  6596   ar
  3310  2666  2667   ar
  3311  2666  2664   ar
  3312  2134  2136    1
  3313  4383  4399    1
  3314   181   187   ar
  3315   181   182   ar
  3316  5537  5538   ar
  3317  5537  5535   ar
  3318  1889  1890   ar
  3319  1889  1888   ar
  3320   177   183   ar
  3321  6588  6583    1
  3322   204   205    1
  3323  5494  5493    1
  3324  2292  2290    1
  3325  2292  2303    1
  3326  5538  5540   ar
  3327  5128  5129   ar
  3328  5128  5127   ar
  3329  2288  2290    1
  3330  7888  7867    2
  3331  2667  2669   ar
  3332  5649  5671    1
  3333  5649  5651    1
  3334  3960  3962    1
  3335  3960  3961    1
  3336  1696  1697   ar
  3337  1696  1693   ar
  3338  2640  2641    1
  3339  2640  2638    1
  3340  1914  1893    2
  3341  6637  6619    2
  3342  4125  4124    1
  3343  4134  4135    1
  3344  4134  4132    1
  3345  1678  1699    1
  3346  1678  1680    1
  3347   187   186   ar
  3348  2216  2199    1
  3349  2216  2218    1
  3350  5129  5130   ar
  3351  3982  3984    1
  3352  3982  3983    1
  3353  1799  1798    2
  3354  3574  3572    1
  3355  3574  3573    1
  3356  2665  2664    2
  3357  2036  2037   ar
  3358  6595  6596   ar
  3359  3693  3691   ar
  3360  5484  5502    1
  3361  5484  5486    1
  3362  3962  3964    1
  3363  1808  1809    1
  3364  4003  4002    1
  3365   168   169    1
  3366  3704  3706    1
  3367  5030  5028    1
  3368  5030  5031    1
  3369  2297  2303   ar
  3370  2297  2298   ar
  3371  3690  3691   ar
  3372  7865  7847    2
  3373  1666  1667    1
  3374  5588  5586    1
  3375  2198  2199    1
  3376  2198  2196    1
  3377  2127  2126    1
  3378  5603  5602   ar
  3379  1890  1884   ar
  3380  6605  6604    1
  3381  6605  6619    1
  3382  2167  2169   ar
  3383  2167  2166   ar
  3384  5010  5008    1
  3385  5010  5012    1
  3386  2664  2663   ar
  3387  2169  2170   ar
  3388  2124  2123   ar
  3389  1824  1823   ar
  3390  4120  4121   ar
  3391  3590  3572    2
  3392  4432  4431   ar
  3393  4432  4433   ar
  3394  6604  6606    1
  3395  3965  3964    1
  3396  2025  2023    1
  3397  5127  5126   ar
  3398  2636  2634    1
  3399  2636  2638    1
  3400  2652  2633    2
  3401  1893  1915    1
  3402  1893  1895    1
  3403  5028  5029    1
  3404  4081  4080    1
  3405  3984  3986    1
  3406  2291  2290    1
  3407  5622  5620   ar
  3408  5077  5075    1
  3409  5077  5079    1
  3410  4002  4004    1
  3411   156   155    1
  3412  2146  2144   ar
  3413  2100  2099   ar
  3414  6639  6641    1
  3415  6639  6649    1
  3416  1821  1823   ar
  3417  1821  1822    1
  3418  5520  5521   ar
  3419  4124  4123   ar
  3420  4431  4436   ar
  3421  6641  6640    1
  3422  2012  2011   ar
  3423  2012  2013   ar
  3424  6621  6620    1
  3425  6621  6619    1
  3426  2040  2039   ar
  3427  5619  5620   ar
  3428  2104  2099   ar
  3429  2104  2105    1
  3430  5515  5516    2
  3431  5515  5514   ar
  3432  5645  5646   ar
  3433  5645  5644   ar
  3434  3575  3573    1
  3435  3575  3576    1
  3436  2669  2670   ar
  3437  2126  2121   ar
  3438  5013  5012    1
  3439  5013  5027    1
  3440  5014  5015    1
  3441  5014  5012    1
  3442  4433  4434   ar
  3443  5073  5075    1
  3444  6616  6615   ar
  3445  6616  6609   ar
  3446  2184  2185    2
  3447  2184  2183   ar
  3448  5130  5131    1
  3449  5130  5125   ar
  3450  2303  2302   ar
  3451  2633  2635    1
  3452  2633  2651    1
  3453  3691  3692    1
  3454  1697  1698   ar
  3455  5646  5640   ar
  3456  2635  2634    1
  3457  1694  1693   ar
  3458  1694  1688   ar
  3459  2284  2285    1
  3460  3591  3572    1
  3461  5096  5101    1
  3462  4044  4023    2
  3463  1888  1885   ar
  3464  1795  1794    1
  3465  5075  5076    1
  3466  2190  2183   ar
  3467  6582  6583    1
  3468  6582  6580    1
  3469  2143  2144   ar
  3470  2143  2142    1
  3471  3572  3556    1
  3472  4043  4023    1
  3473  5536  5535    2
  3474  6619  6638    1
  3475  3959  3957    1
  3476  2153  2139    1
  3477  2153  2171    1
  3478  2153  2155    1
  3479  2663  2670   ar
  3480  2663  2662    1
  3481  1693  1692   ar
  3482  5126  5125   ar
  3483  2011  2016   ar
  3484  2138  2136    1
  3485  2138  2139    1
  3486  2138  2140    1
  3487  3581  3576    1
  3488  3581  3582    1
  3489  5535  5534   ar
  3490  3957  3943    1
  3491  3957  3978    1
  3492  2197  2196    1
  3493  6615  6613   ar
  3494  3964  3966    1
  3495  5008  5009    1
  3496  2136  2137    1
  3497  5600  5602   ar
  3498  5600  5601    1
  3499   182   183   ar
  3500   182   185   ar
  3501  5604  5586    2
  3502  2299  2298   ar
  3503  2299  2300    2
  3504  5101  5112    1
  3505  7889  7867    1
  3506  5488  5493    1
  3507  5488  5487    1
  3508  2638  2639    1
  3509  4436  4437    1
  3510  4436  4435   ar
  3511  7845  7827    2
  3512   183   184    2
  3513  4103  4102    1
  3514  5493  5491    1
  3515  5620  5621    1
  3516  2137  2142    1
  3517  6608  6609    1
  3518  6608  6606    1
  3519  5486  5485    1
  3520  7867  7853    1
  3521  7867  7869    1
  3522  6580  6581    1
  3523  5540  5541   ar
  3524  2013  2014   ar
  3525  4455  4454    1
  3526  5574  5573    1
  3527  1798  1800   ar
  3528  1798  1797   ar
  3529  5029  5027    1
  3530  5036  5031    1
  3531  5036  5047    1
  3532  4434  4435   ar
  3533  4434  4440   ar
  3534  2298  2301   ar
  3535  1809  1807    1
  3536  3961  3966    1
  3537   169   167    1
  3538  1680  1679    1
  3539  2662  2657    1
  3540  2662  2660    1
  3541   186   185   ar
  3542  4121  4122   ar
  3543  1800  1801   ar
  3544  2166  2164   ar
  3545  6598  6579    2
  3546  2144  2145    2
  3547  5651  5650    1
  3548  2037  2039   ar
  3549  2037  2038    2
  3550  3983  3988    1
  3551  3707  3706    1
  3552  3707  3712    1
  3553  4132  4133    1
  3554  2183  2182    1
  3555  4399  4401    1
  3556  4399  4420    2
  3557  4399  4419    1
  3558  1884  1885   ar
  3559  1884  1883   ar
  3560  5111  5112   ar
  3561  5111  5110   ar
  3562  5112  5106   ar
  3563  4080  4075   ar
  3564  4080  4079   ar
  3565  6597  6579    1
  3566  4075  4076   ar
  3567  3706  3708    1
  3568  4400  4401    1
  3569  4400  4402    1
  3570  1718  1717    2
  3571  4435  4438   ar
  3572  2170  2163   ar
  3573  5650  5652    1
  3574  2196  2194    1
  3575  5586  5572    1
  3576  5586  5605    1
  3577  4023  4007    1
  3578  4023  4025    1
  3579  5521  5514   ar
  3580  3943  3942    1
  3581  2218  2217    1
  3582  1794  1796    1
  3583  1794  1792    1
  3584  6609  6610   ar
  3585  6606  6607    1
  3586  2123  2122   ar
  3587  5514  5513    1
  3588  7847  7866    1
  3589  7847  7833    1
  3590  7847  7849    1
  3591  4123  4122   ar
  3592  4123  4126   ar
  3593  2657  2656    1
  3594  5049  5027    2
  3595  5644  5641   ar
  3596  3582  3589   ar
  3597  3582  3583   ar
  3598  4430  4440    1
  3599  4430  4425    1
  3600  4430  4428    1
  3601  6643  6642    1
  3602  6643  6648    1
  3603   155   154   ar
  3604   155   157   ar
  3605  1895  1894    1
  3606  2259  2238    2
  3607  2192  2173    2
  3608  4440  4439   ar
  3609  5027  5048    1
  3610  2041  2023    2
  3611  5079  5080    1
  3612  5079  5081    1
  3613  6640  6642    1
  3614  2215  2193    2
  3615  1885  1886   ar
  3616  2142  2140    1
  3617  6642  6644    1
  3618  3589  3588   ar
  3619  4454  4456   ar
  3620  4454  4453   ar
  3621  3986  3987    1
  3622  3986  3988    1
  3623  2023  2042    1
  3624  2023  2007    1
  3625  5009  5007    1
  3626  5110  5107   ar
  3627  2155  2154    1
  3628  5106  5105   ar
  3629  5106  5107   ar
  3630  1688  1689   ar
  3631  4456  4457   ar
  3632  5572  5571    1
  3633  4004  4006    1
  3634  4004  4005    1
  3635  2685  2684    2
  3636  2009  2008    1
  3637  2195  2194    1
  3638  2195  2193    1
  3639  7848  7849    1
  3640  7848  7850    1
  3641  3966  3976    1
  3642  4429  4428    1
  3643  2121  2122   ar
  3644  4122  4128   ar
  3645  5640  5639   ar
  3646  5640  5641   ar
  3647  4007  4006    1
  3648  1698  1692   ar
  3649  1698  1687    1
  3650  2302  2301   ar
  3651  5047  5046   ar
  3652  5047  5041   ar
  3653  5105  5103   ar
  3654  7853  7852    1
  3655  2140  2141    1
  3656  6579  6581    1
  3657  6579  6562    1
  3658  5485  5487    1
  3659  2285  2283    1
  3660  4133  4131    1
  3661  1883  1881   ar
  3662  2686  2684   ar
  3663  2686  2687   ar
  3664  3584  3583    2
  3665  7868  7869    1
  3666  7868  7870    1
  3667  4438  4439   ar
  3668  3945  3944    1
  3669  5534  5541   ar
  3670  5534  5533    1
  3671  1692  1691   ar
  3672  2016  2017    1
  3673  2016  2015   ar
  3674  5107  5108   ar
  3675   188   167    2
  3676  3583  3585   ar
  3677   154   160   ar
  3678  2217  2219    1
  3679  1796  1797    1
  3680  1796  1791    1
  3681  2688  2687    2
  3682  4102  4097   ar
  3683  4102  4101   ar
  3684   152   151    1
  3685  4425  4424    1
  3686  5076  5081    1
  3687  4453  4459   ar
  3688  5040  5041   ar
  3689  5040  5038   ar
  3690  7833  7832    1
  3691  2008  2006    1
  3692  2008  2010    1
  3693  2639  2653    1
  3694  5487  5489    1
  3695   157   158   ar
  3696  1679  1681    1
  3697  2684  2683   ar
  3698  6613  6614    2
  3699  6613  6612   ar
  3700  4451  4450    1
  3701  3556  3555    1
  3702  1797  1804   ar
  3703  6647  6646    1
  3704  5573  5571    1
  3705  5573  5575    1
  3706  2661  2660    1
  3707  1682  1687    1
  3708  1682  1681    1
  3709  4452  4447    1
  3710  4452  4463    1
  3711  4452  4450    1
  3712  3588  3586   ar
  3713  4006  4008    1
  3714  2014  2015   ar
  3715  2014  2020   ar
  3716  4097  4098   ar
  3717  7910  7890    2
  3718  3988  3998    1
  3719  1739  1738    2
  3720  4076  4077   ar
  3721  5103  5104    1
  3722  5103  5102   ar
  3723  5571  5569    1
  3724  4079  4082   ar
  3725  4079  4078   ar
  3726  4457  4463   ar
  3727  4457  4458   ar
  3728  4428  4426    1
  3729  4126  4127   ar
  3730  5491  5489    1
  3731  5491  5492    1
  3732  2687  2689   ar
  3733  2232  2231    1
  3734  5046  5045   ar
  3735  5639  5637   ar
  3736  2304  2283    2
  3737  5041  5042   ar
  3738  1793  1807    1
  3739  1793  1792    1
  3740  7827  7829    1
  3741  7827  7811    1
  3742  7827  7846    1
  3743  5641  5642   ar
  3744  6648  6646    1
  3745   167   150    1
  3746   167   189    1
  3747  2164  2163   ar
  3748  2164  2165    2
  3749  1894  1896    1
  3750  1801  1802    1
  3751  1801  1803   ar
  3752  2660  2658    1
  3753  2163  2162    1
  3754  2007  2006    1
  3755  5108  5102   ar
  3756  5108  5109    2
  3757  7829  7828    1
  3758  1717  1716   ar
  3759  1717  1711   ar
  3760  3997  3998   ar
  3761  3997  3996   ar
  3762  4064  4045    2
  3763  3712  3722    1
  3764  3712  3710    1
  3765  2193  2179    1
  3766  2193  2214    1
  3767  4447  4446    1
  3768  3721  3722   ar
  3769  3721  3720   ar
  3770  5513  5508    1
  3771  5513  5511    1
  3772  1807  1825    2
  3773  1807  1826    1
  3774  4463  4462   ar
  3775  4005  4010    1
  3776  3708  3709    1
  3777  3708  3710    1
  3778  4402  4403    1
  3779  4402  4404    1
  3780  4082  4083   ar
  3781  5489  5490    1
  3782  3585  3586   ar
  3783  5652  5653    1
  3784  5652  5654    1
  3785  1792  1790    1
  3786  2182  2180    1
  3787  2182  2177    1
  3788  5081  5082    1
  3789  4410  4411   ar
  3790  4410  4409   ar
  3791  5026  5007    2
  3792  5039  5038    1
  3793  4025  4024    1
  3794  4459  4458   ar
  3795  4459  4460    2
  3796  2180  2178    1
  3797  2180  2181    1
  3798  6610  6612   ar
  3799  6610  6611    2
  3800  3942  3944    1
  3801  3942  3940    1
  3802  2281  2260    2
  3803  7828  7830    1
  3804  2258  2238    1
  3805  1886  1887    2
  3806  1886  1880   ar
  3807  2015  2018   ar
  3808  5653  5658    1
  3809  5038  5037   ar
  3810  2238  2222    1
  3811  2238  2240    1
  3812  3586  3587    2
  3813  7850  7852    1
  3814  7850  7851    1
  3815  6645  6644    1
  3816  6645  6651    1
  3817  4060  4059    1
  3818  4458  4461   ar
  3819  2656  2654    1
  3820  2656  2658    1
  3821  1719  1716   ar
  3822  1719  1720   ar
  3823  1687  1685    1
  3824  5089  5082   ar
  3825  5089  5088   ar
  3826  1689  1691   ar
  3827  1689  1690    1
  3828  6644  6646    1
  3829  4128  4127   ar
  3830  4128  4118    1
  3831  3722  3716   ar
  3832  7852  7854    1
  3833  2233  2230   ar
  3834  2233  2234   ar
  3835  2683  2682    1
  3836  2683  2690   ar
  3837  5007  5025    1
  3838  5007  4993    1
  3839  2178  2179    1
  3840  2178  2176    1
  3841  3944  3946    1
  3842  2173  2175    1
  3843  2173  2159    1
  3844  2173  2191    1
  3845   151   149    1
  3846   151   153    1
  3847   150   149    1
  3848  2175  2174    1
  3849  2283  2305    1
  3850  2283  2266    1
  3851  3998  3992   ar
  3852  4450  4448    1
  3853  1881  1880   ar
  3854  1881  1882    1
  3855  4411  4412   ar
  3856  3976  3975   ar
  3857  3976  3970   ar
  3858  3709  3725    1
  3859  7811  7810    1
  3860  1681  1683    1
  3861  4101  4104   ar
  3862  4101  4100   ar
  3863  4117  4116    1
  3864  4116  4118    1
  3865  4116  4114    1
  3866  2655  2653    1
  3867  2655  2654    1
  3868  2006  2004    1
  3869  5533  5528    1
  3870  5533  5531    1
  3871  2154  2156    1
  3872  5082  5083   ar
  3873  4403  4408    1
  3874  2010  2020    1
  3875  2010  2005    1
  3876  4019  4018   ar
  3877  4019  4020   ar
  3878  2231  2230   ar
  3879  2231  2226   ar
  3880  2689  2690   ar
  3881  5042  5045   ar
  3882  5042  5043   ar
  3883  4104  4105   ar
  3884  3940  3938    1
  3885  3940  3941    1
  3886  2020  2019   ar
  3887  5508  5507    1
  3888  3555  3557    1
  3889  3555  3553    1
  3890  2682  2677    1
  3891  2682  2680    1
  3892  4462  4461   ar
  3893  2177  2176    1
  3894  1716  1715   ar
  3895  5088  5086   ar
  3896  7870  7871    1
  3897  7870  7872    1
  3898   160   161    2
  3899   160   159   ar
  3900  3720  3717   ar
  3901  4409  4414   ar
  3902  1791  1790    1
  3903  3747  3725    2
  3904  1711  1712   ar
  3905  4078  4077   ar
  3906  4078  4084   ar
  3907  1897  1896    1
  3908  1897  1902    1
  3909  4424  4426    1
  3910  4424  4422    1
  3911  6562  6561    1
  3912  4098  4099   ar
  3913  2230  2229   ar
  3914   158   159   ar
  3915   158   164   ar
  3916  2158  2159    1
  3917  2158  2156    1
  3918  2158  2160    1
  3919  2672  2653    2
  3920  2705  2704    2
  3921  3996  3993   ar
  3922  2219  2221    1
  3923  2219  2220    1
  3924  2653  2671    1
  3925  5575  5576    1
  3926  5575  5570    1
  3927  1782  1781    2
  3928  7832  7830    1
  3929  7832  7834    1
  3930  7830  7831    1
  3931  3975  3974   ar
  3932  1804  1803   ar
  3933  4446  4448    1
  3934  4446  4444    1
  3935  2677  2676    1
  3936  4131  4152    2
  3937  4131  4153    1
  3938  4131  4115    1
  3939  2239  2240    1
  3940  2239  2241    1
  3941  1738  1737   ar
  3942  1738  1740   ar
  3943  5523  5504    2
  3944  2234  2235   ar
  3945  3710  3711    1
  3946  1790  1788    1
  3947  1912  1911   ar
  3948  1912  1913   ar
  3949  2658  2659    1
  3950  2221  2222    1
  3951  2221  2223    1
  3952  3938  3939    1
  3953  4024  4026    1
  3954  6662  6651    2
  3955  5037  5043   ar
  3956  4018  4015   ar
  3957  5637  5636   ar
  3958  5637  5638    1
  3959  3742  3741    2
  3960  4061  4059   ar
  3961  4061  4062   ar
  3962  1896  1898    1
  3963  1780  1781   ar
  3964  1780  1778   ar
  3965  4118  4113    1
  3966  4108  4087    2
  3967  1723  1701    2
  3968  2706  2704   ar
  3969  2706  2707   ar
  3970  2157  2162    1
  3971  2157  2156    1
  3972  1779  1778    2
  3973  1683  1685    1
  3974  1683  1684    1
  3975  5511  5512    1
  3976  5511  5509    1
  3977  4426  4427    1
  3978  5642  5636   ar
  3979  5642  5643    2
  3980  2226  2227   ar
  3981  1911  1908   ar
  3982  4404  4405    1
  3983  4404  4406    1
  3984  5668  5667   ar
  3985  5668  5669   ar
  3986  4008  4010    1
  3987  4008  4009    1
  3988   149   147    1
  3989  2162  2160    1
  3990  4083  4084   ar
  3991  7890  7892    1
  3992  7890  7911    1
  3993  7890  7873    1
  3994  1737  1735   ar
  3995  4063  4045    1
  3996  2704  2703   ar
  3997  5043  5044    2
  3998  4059  4058   ar
  3999  4045  4029    1
  4000  4045  4047    1
  4001  5583  5576   ar
  4002  5583  5582   ar
  4003  6573  6572    2
  4004  5083  5084    2
  4005  5083  5085   ar
  4006  5569  5567    1
  4007  5569  5570    1
  4008  4010  4020    1
  4009  7825  7805    2
  4010  1720  1721   ar
  4011  7871  7876    1
  4012  2708  2707    1
  4013  2176  2174    1
  4014  3716  3717   ar
  4015  3716  3715   ar
  4016  5654  5655    1
  4017  5654  5656    1
  4018  5528  5527    1
  4019  5568  5567    1
  4020  5568  5566    1
  4021  6577  6556    2
  4022  5531  5532    1
  4023  5531  5529    1
  4024  4114  4115    1
  4025  4114  4112    1
  4026   159   162   ar
  4027  5576  5577   ar
  4028  7894  7893    1
  4029  7894  7899    1
  4030  3551  3552    1
  4031  3551  3553    1
  4032  4470  4475    1
  4033  4470  4469    1
  4034  4474  4473    1
  4035  6578  6556    1
  4036  3743  3744   ar
  4037  3743  3740   ar
  4038  5086  5085   ar
  4039  5086  5087    2
  4040  3970  3969   ar
  4041  3970  3971   ar
  4042  4993  4992    1
  4043  2266  2265    1
  4044  5490  5504    1
  4045  2018  2019   ar
  4046  4020  4014   ar
  4047  2160  2161    1
  4048  4040  4041   ar
  4049  4040  4037   ar
  4050  3969  3968   ar
  4051  3725  3746    1
  4052  3725  3727    1
  4053  1935  1916    2
  4054  6651  6653    1
  4055  6651  6661    1
  4056  4475  4476    1
  4057  4475  4473    1
  4058  1685  1686    1
  4059  2681  2680    1
  4060  3557  3558    1
  4061  3557  3559    1
  4062   153   164    1
  4063   153   148    1
  4064  2707  2709   ar
  4065  3717  3718   ar
  4066  3552  3550    1
  4067  7851  7856    1
  4068  3553  3554    1
  4069  4423  4422    1
  4070  4423  4421    1
  4071  6566  6572   ar
  4072  6566  6567   ar
  4073  6561  6559    1
  4074  6561  6563    1
  4075  4448  4449    1
  4076  4100  4099   ar
  4077  4100  4106   ar
  4078  4412  4418   ar
  4079  4412  4413   ar
  4080  2261  2262    1
  4081  2261  2263    1
  4082  1781  1783   ar
  4083  2229  2235   ar
  4084  2229  2228   ar
  4085  5658  5669    1
  4086  5658  5656    1
  4087  2725  2724    1
  4088  6557  6559    1
  4089  6557  6558    1
  4090  5655  5672    1
  4091  7891  7892    1
  4092  7891  7893    1
  4093  3955  3937    2
  4094  6572  6571   ar
  4095  7835  7834    1
  4096  3946  3941    1
  4097  3946  3947    1
  4098  2260  2244    1
  4099  2260  2262    1
  4100  2260  2282    1
  4101  7908  7907   ar
  4102  7908  7909   ar
  4103  4084  4074    1
  4104  2235  2225    1
  4105  6514  6496    2
  4106  3992  3993   ar
  4107  3992  3991   ar
  4108  1778  1777   ar
  4109  7872  7873    1
  4110  7872  7874    1
  4111  5667  5664   ar
  4112   164   163   ar
  4113  4041  4042   ar
  4114  7854  7855    1
  4115  7854  7856    1
  4116  4105  4106   ar
  4117  5506  5504    1
  4118  5506  5505    1
  4119  2004  2005    1
  4120  2004  2002    1
  4121  4086  4065    2
  4122  4444  4445    1
  4123  6568  6567    1
  4124  2220  2225    1
  4125  2244  2243    1
  4126  7907  7904   ar
  4127  4414  4413   ar
  4128  4414  4415    1
  4129  2680  2678    1
  4130  2703  2702    1
  4131  2703  2710   ar
  4132  5582  5580   ar
  4133  4405  4421    1
  4134  5504  5522    1
  4135  7810  7808    1
  4136  7810  7812    1
  4137  4478  4477    2
  4138  1913  1902    1
  4139  1913  1907   ar
  4140  4427  4443    1
  4141  4408  4406    1
  4142  4408  4418    1
  4143  2227  2228   ar
  4144  3993  3994   ar
  4145  3741  3740   ar
  4146  3741  3735   ar
  4147  5669  5663   ar
  4148  6653  6652    1
  4149  6567  6569   ar
  4150  2702  2697    1
  4151  2702  2700    1
  4152  3715  3714   ar
  4153  1902  1900    1
  4154  1715  1721   ar
  4155  1715  1714   ar
  4156  5585  5566    2
  4157  7834  7836    1
  4158  5507  5509    1
  4159  5507  5505    1
  4160  1740  1741   ar
  4161  3974  3971   ar
  4162  5509  5510    1
  4163  4062  4055   ar
  4164  1712  1713    1
  4165  1712  1714   ar
  4166  3939  3937    1
  4167  2241  2243    1
  4168  2241  2242    1
  4169  2724  2723   ar
  4170  2724  2726   ar
  4171  6556  6558    1
  4172  6556  6542    1
  4173  3744  3745   ar
  4174  4029  4028    1
  4175  4406  4407    1
  4176  7813  7812    1
  4177  2723  2729   ar
  4178  7806  7808    1
  4179  7806  7807    1
  4180  4469  4467    1
  4181  4469  4471    1
  4182  4047  4046    1
  4183  3570  3550    2
  4184  3740  3739   ar
  4185  7893  7895    1
  4186  4476  4477   ar
  4187  4476  4483   ar
  4188  2676  2674    1
  4189  2676  2678    1
  4190  2709  2710   ar
  4191  7886  7885   ar
  4192  7886  7887   ar
  4193  6571  6574   ar
  4194  6571  6570   ar
  4195  4039  4038    1
  4196  6494  6476    2
  4197  2659  2673    1
  4198  5577  5578    2
  4199  5577  5579   ar
  4200  1684  1701    1
  4201  4418  4417   ar
  4202  6554  6536    2
  4203  1898  1899    1
  4204  1898  1900    1
  4205  7831  7836    1
  4206  4477  4479   ar
  4207  4015  4014   ar
  4208  4015  4016   ar
  4209  4449  4466    1
  4210  4028  4026    1
  4211  4028  4030    1
  4212  5694  5672    2
  4213  7899  7909    1
  4214  7899  7897    1
  4215  4473  4471    1
  4216  2223  2225    1
  4217  2223  2224    1
  4218  4413  4416   ar
  4219  1908  1907   ar
  4220  1908  1909   ar
  4221  7909  7903   ar
  4222  6559  6560    1
  4223  5656  5657    1
  4224  2263  2265    1
  4225  2263  2264    1
  4226  4026  4027    1
  4227   147   148    1
  4228   147   145    1
  4229  1701  1703    1
  4230  1701  1722    1
  4231  1788  1789    1
  4232  4106  4096    1
  4233  3971  3972   ar
  4234  4058  4056   ar
  4235  7808  7809    1
  4236  4113  4112    1
  4237  1721  1710    1
  4238  2701  2700    1
  4239  2726  2727   ar
  4240  1735  1736    2
  4241  1735  1734   ar
  4242  6574  6575   ar
  4243  7805  7826    1
  4244  7805  7807    1
  4245  7805  7791    1
  4246  4087  4107    1
  4247  4087  4089    1
  4248  4087  4071    1
  4249  6569  6570   ar
  4250  3718  3719    1
  4251  3718  3713   ar
  4252  3949  3948    2
  4253  2265  2267    1
  4254  7856  7857    1
  4255  5566  5584    1
  4256  5566  5550    1
  4257  2729  2730    2
  4258  2729  2728   ar
  4259  3991  3990   ar
  4260  4014  4013   ar
  4261  6570  6576   ar
  4262  7904  7903   ar
  4263  7904  7905   ar
  4264  4421  4442    2
  4265  4421  4441    1
  4266  3968  3967   ar
  4267  2697  2696    1
  4268  4995  4994    1
  4269  5529  5527    1
  4270  5529  5530    1
  4271  4072  4074    1
  4272  4072  4070    1
  4273  4072  4073    1
  4274  7812  7814    1
  4275  4483  4482   ar
  4276  6660  6655    1
  4277  6660  6658    1
  4278  5672  5693    1
  4279  5672  5674    1
  4280   162   163   ar
  4281  4037  4038   ar
  4282  4037  4036   ar
  4283  5580  5579   ar
  4284  5580  5581    1
  4285  1916  1899    1
  4286  1916  1934    1
  4287  1916  1918    1
  4288  6655  6654    1
  4289  7885  7882   ar
  4290  6563  6564    1
  4291  6563  6565    1
  4292  3550  3571    1
  4293  3550  3534    1
  4294  4992  4994    1
  4295  4992  4990    1
  4296  3727  3726    1
  4297  4467  4468    1
  4298  4445  4443    1
  4299  7876  7874    1
  4300  7876  7887    1
  4301  5527  5525    1
  4302  4112  4110    1
  4303  1910  1909    2
  4304  3937  3921    1
  4305  3937  3956    1
  4306  2243  2245    1
  4307  1907  1906   ar
  4308  3562  3561   ar
  4309  3562  3563   ar
  4310  3561  3560   ar
  4311  2674  2675    1
  4312  7906  7905    1
  4313  6534  6516    2
  4314  2700  2698    1
  4315  3559  3554    1
  4316  3559  3569    1
  4317  2727  2728   ar
  4318  2727  2733   ar
  4319  3947  3948   ar
  4320  3947  3954   ar
  4321  6515  6496    1
  4322  4479  4480   ar
  4323  3714  3713   ar
  4324  7903  7902   ar
  4325  6535  6516    1
  4326  4074  4069    1
  4327  3735  3736   ar
  4328  2678  2679    1
  4329  4027  4032    1
  4330  5664  5663   ar
  4331  5664  5665   ar
  4332  6496  6482    1
  4333  6496  6498    1
  4334  2728  2731   ar
  4335  3563  3569   ar
  4336  3563  3564   ar
  4337  1789  1787    1
  4338  7874  7875    1
  4339  2675  2673    1
  4340  7864  7857   ar
  4341  7864  7863   ar
  4342  3569  3568   ar
  4343  6575  6576   ar
  4344  4994  4996    1
  4345  6555  6536    1
  4346  5543  5524    2
  4347  3560  3565   ar
  4348  4042  4036   ar
  4349  4042  4032    1
  4350  7836  7837    1
  4351  1909  1903   ar
  4352  1783  1784   ar
  4353  4038  4033   ar
  4354  7887  7881   ar
  4355  4130  4109    2
  4356  2002  2003    1
  4357  4089  4088    1
  4358  5526  5525    1
  4359  5526  5524    1
  4360  4070  4071    1
  4361  4070  4068    1
  4362  1777  1784   ar
  4363  1777  1776    1
  4364  7905  7900   ar
  4365  1900  1901    1
  4366  6576  6565    1
  4367  5663  5662   ar
  4368  4111  4110    1
  4369  4111  4109    1
  4370  1703  1702    1
  4371  2003  2001    1
  4372  1775  1774    1
  4373  4471  4472    1
  4374  3564  3565   ar
  4375  3564  3567   ar
  4376  4443  4465    2
  4377  4443  4464    1
  4378  2242  2247    1
  4379  3565  3566    1
  4380  4017  4016    1
  4381  3745  3739   ar
  4382  3745  3734    1
  4383  3994  3995    1
  4384  3994  3989   ar
  4385  4482  4480   ar
  4386  3568  3567   ar
  4387  4065  4067    1
  4388  4065  4085    1
  4389  4065  4051    1
  4390  3948  3950   ar
  4391  1741  1734   ar
  4392  3739  3738   ar
  4393  4055  4056   ar
  4394  4055  4054    1
  4395  5549  5550    1
  4396  5549  5551    1
  4397  5549  5547    1
  4398  4067  4066    1
  4399  4016  4011   ar
  4400  6536  6538    1
  4401  6536  6522    1
  4402    30    29    1
  4403  2733  2722    1
  4404  2733  2732   ar
  4405  4417  4416   ar
  4406  5510  5524    1
  4407  7857  7858   ar
  4408  6652  6654    1
  4409  4480  4481    2
  4410  1996  1995    1
  4411  1994  1995   ar
  4412  1994  1992   ar
  4413  1774  1776    1
  4414  1774  1772    1
  4415  4056  4057    2
  4416  2722  2717    1
  4417  2722  2720    1
  4418  3763  3762    2
  4419  2731  2732   ar
  4420  1993  1992    2
  4421  5552  5551    1
  4422  6542  6541    1
  4423  2673  2692    2
  4424  2673  2691    1
  4425  4046  4048    1
  4426  1734  1733    1
  4427  3921  3920    1
  4428  3972  3967   ar
  4429  3972  3973    1
  4430  7898  7897    1
  4431   145   146    1
  4432  6560  6565    1
  4433  7791  7790    1
  4434  4468  4466    1
  4435  1705  1710    1
  4436  1705  1704    1
  4437  3729  3734    1
  4438  3729  3728    1
  4439  7895  7897    1
  4440  7895  7896    1
  4441  4030  4032    1
  4442  4030  4031    1
  4443  4036  4035   ar
  4444  7902  7901   ar
  4445  6537  6538    1
  4446  6537  6539    1
  4447  6516  6502    1
  4448  6516  6518    1
  4449  3954  3953   ar
  4450  3923  3922    1
  4451  4472  4486    1
  4452  2264  2269    1
  4453  2268  2267    1
  4454  6476  6460    1
  4455  6476  6495    1
  4456  6476  6478    1
  4457  4013  4012   ar
  4458  1710  1708    1
  4459  4096  4094    1
  4460  4096  4091    1
  4461  3990  3989   ar
  4462  5524  5542    1
  4463  5530  5544    1
  4464  7863  7861   ar
  4465  6477  6478    1
  4466  6477  6479    1
  4467  3534  3533    1
  4468  3726  3728    1
  4469  5565  5544    2
  4470  4069  4068    1
  4471  6654  6656    1
  4472  4050  4051    1
  4473  4050  4048    1
  4474  4050  4052    1
  4475  1776  1771    1
  4476  7809  7814    1
  4477  4990  4988    1
  4478  4990  4991    1
  4479  2267  2269    1
  4480  7900  7901   ar
  4481  5545  5547    1
  4482  5545  5546    1
  4483  5551  5553    1
  4484  2717  2716    1
  4485  4094  4092    1
  4486  4094  4095    1
  4487  1906  1904   ar
  4488  4490  4495    1
  4489  4490  4489    1
  4490  4466  4485    2
  4491  4466  4484    1
  4492  4092  4093    1
  4493  4092  4090    1
  4494  2246  2245    1
  4495  2696  2698    1
  4496  2696  2694    1
  4497  6482  6481    1
  4498  6498  6497    1
  4499  7882  7881   ar
  4500  7882  7883   ar
  4501  3736  3738   ar
  4502  3736  3737    1
  4503  7844  7837   ar
  4504  7844  7843   ar
  4505  5665  5666    2
  4506  5665  5659   ar
  4507  7837  7838   ar
  4508  4109  4093    1
  4509  4109  4129    1
  4510  7814  7824    1
  4511   137   135   ar
  4512   137   138   ar
  4513  1995  1997   ar
  4514  1992  1991   ar
  4515  1918  1917    1
  4516   139   138    1
  4517  6658  6656    1
  4518  6658  6659    1
  4519   136   135    2
  4520  2721  2720    1
  4521  5005  4987    2
  4522  2245  2247    1
  4523  5674  5673    1
  4524  4049  4048    1
  4525  4049  4054    1
  4526    29    28   ar
  4527    29    31   ar
  4528  3734  3732    1
  4529  1958  1936    2
  4530  2679  2693    1
  4531  1903  1904   ar
  4532  2748  2747    1
  4533  6065  6045    2
  4534  7881  7880   ar
  4535  5662  5660   ar
  4536   146   144    1
  4537  4988  4989    1
  4538  6541  6539    1
  4539  6541  6543    1
  4540  2698  2699    1
  4541  1917  1919    1
  4542  4068  4066    1
  4543  4495  4496    1
  4544  4495  4493    1
  4545  5547  5548    1
  4546    28    34   ar
  4547  6460  6459    1
  4548  4033  4034   ar
  4549  3950  3951   ar
  4550  4091  4090    1
  4551  3922  3920    1
  4552  3922  3924    1
  4553  4054  4052    1
  4554  2247  2257    1
  4555  2022  2001    2
  4556  1702  1704    1
  4557  4989  4987    1
  4558  2720  2718    1
  4559  4088  4090    1
  4560  7896  7912    1
  4561  3762  3764   ar
  4562  3762  3761   ar
  4563  4011  4012   ar
  4564  2695  2694    1
  4565  2695  2693    1
  4566  6656  6657    1
  4567  4052  4053    1
  4568  4494  4493    1
  4569  4489  4487    1
  4570  4489  4491    1
  4571  2001  2021    1
  4572  2001  1987    1
  4573  1904  1905    1
  4574  6043  6023    2
  4575  4996  4991    1
  4576  4996  4997    1
  4577  3728  3730    1
  4578  6497  6499    1
  4579  7858  7859    2
  4580  7858  7860   ar
  4581  1787  1773    1
  4582  1787  1806    2
  4583  1787  1805    1
  4584  7928  7927    1
  4585  1772  1773    1
  4586  1772  1770    1
  4587   135   134   ar
  4588  6502  6501    1
  4589  6522  6521    1
  4590  5544  5546    1
  4591  5544  5564    1
  4592  6518  6517    1
  4593  3920  3918    1
  4594  2269  2280    1
  4595   138   140   ar
  4596    31    32   ar
  4597  6539  6540    1
  4598  4487  4488    1
  4599  2747  2749   ar
  4600  2747  2746   ar
  4601  5673  5675    1
  4602  3953  3951   ar
  4603  1704  1706    1
  4604  7793  7792    1
  4605  2749  2750   ar
  4606  1733  1728    1
  4607  1733  1731    1
  4608  6479  6481    1
  4609  6479  6480    1
  4610  2272  2271    1
  4611  4496  4497   ar
  4612  4496  4503   ar
  4613  4035  4034   ar
  4614  7843  7841   ar
  4615  4498  4497    2
  4616  1708  1706    1
  4617  1708  1709    1
  4618  7884  7883    2
  4619  3764  3765   ar
  4620  7790  7792    1
  4621  7790  7788    1
  4622  7883  7877   ar
  4623  2712  2693    2
  4624  4987  5006    1
  4625  4987  4971    1
  4626  6481  6483    1
  4627  7839  7838    2
  4628  6679  6678    1
  4629  6673  6678   ar
  4630  6673  6674   ar
  4631  7838  7840   ar
  4632  7861  7860   ar
  4633  7861  7862    1
  4634  7803  7785    2
  4635  4999  4998    2
  4636  2273  2271   ar
  4637  2273  2274   ar
  4638  4997  4998   ar
  4639  4997  5004   ar
  4640  7824  7823   ar
  4641  7824  7818   ar
  4642  1706  1707    1
  4643  6551  6550    2
  4644  3951  3952    1
  4645  3533  3535    1
  4646  3533  3531    1
  4647  5659  5660   ar
  4648  7929  7926   ar
  4649  7929  7930   ar
  4650  2746  2752   ar
  4651    34    35    2
  4652    34    33   ar
  4653  5690  5691   ar
  4654  5690  5687   ar
  4655  4488  4486    1
  4656  4497  4499   ar
  4657  5660  5661    1
  4658  2693  2711    1
  4659  4503  4502   ar
  4660  1988  1989    1
  4661  1988  1986    1
  4662  1988  1990    1
  4663  2716  2718    1
  4664  2716  2714    1
  4665  3783  3782    2
  4666  4998  5000   ar
  4667  2699  2713    1
  4668  3927  3926   ar
  4669  3927  3928   ar
  4670  1771  1770    1
  4671  6552  6550   ar
  4672  6552  6553   ar
  4673  4486  4504    2
  4674  4486  4505    1
  4675  5691  5692   ar
  4676  3761  3759   ar
  4677  5004  5003   ar
  4678  7880  7878   ar
  4679  4493  4491    1
  4680  2271  2270   ar
  4681  3926  3925   ar
  4682  6550  6549   ar
  4683  6462  6461    1
  4684  3730  3732    1
  4685  3730  3731    1
  4686  1743  1724    2
  4687  7927  7926   ar
  4688  7927  7922   ar
  4689  7792  7794    1
  4690  2257  2256   ar
  4691  2257  2251   ar
  4692  6678  6677   ar
  4693  1991  1990    1
  4694  1991  1998   ar
  4695  6674  6675   ar
  4696  2280  2274   ar
  4697  2280  2279   ar
  4698  5553  5548    1
  4699  5553  5563    1
  4700  6501  6499    1
  4701  6501  6503    1
  4702  1997  1998   ar
  4703  2745  2740    1
  4704  2745  2756    1
  4705  2745  2743    1
  4706  2750  2756   ar
  4707  2750  2751   ar
  4708  6521  6519    1
  4709  6521  6523    1
  4710  6517  6519    1
  4711    32    33   ar
  4712    32    38   ar
  4713  2274  2275   ar
  4714  7817  7818   ar
  4715  7817  7816   ar
  4716  2715  2714    1
  4717  2715  2713    1
  4718  1936  1957    1
  4719  1936  1922    1
  4720  1936  1938    1
  4721  7823  7822   ar
  4722  3732  3733    1
  4723  7933  7912    2
  4724  2740  2739    1
  4725  7926  7925   ar
  4726  3535  3536    1
  4727  3535  3537    1
  4728  2256  2255   ar
  4729  6553  6546   ar
  4730  6543  6545    1
  4731  6543  6544    1
  4732  1728  1727    1
  4733  6045  6029    1
  4734  6045  6066    1
  4735  6045  6047    1
  4736  7930  7931   ar
  4737  2756  2755   ar
  4738  5000  5001   ar
  4739  6499  6500    1
  4740  4499  4500   ar
  4741   144   166    2
  4742   144   165    1
  4743   144   130    1
  4744  7818  7819   ar
  4745   132   131    1
  4746  4502  4500   ar
  4747  2752  2751   ar
  4748  2752  2753    2
  4749  5003  5001   ar
  4750  1987  1986    1
  4751    33    36   ar
  4752  6549  6547   ar
  4753  1731  1732    1
  4754  1731  1729    1
  4755  2718  2719    1
  4756  6459  6461    1
  4757  6459  6457    1
  4758  5676  5675    1
  4759  5676  5681    1
  4760  1986  1984    1
  4761  2744  2743    1
  4762  1919  1921    1
  4763  1919  1920    1
  4764  3918  3919    1
  4765  3918  3916    1
  4766  3924  3934    1
  4767  3924  3919    1
  4768  1770  1768    1
  4769  1953  1952    2
  4770  7788  7786    1
  4771  7788  7789    1
  4772  4491  4492    1
  4773   131   133    1
  4774   131   129    1
  4775  2751  2754   ar
  4776  6540  6545    1
  4777  7912  7932    1
  4778  7912  7914    1
  4779  7841  7840   ar
  4780  7841  7842    1
  4781   134   133    1
  4782   134   141   ar
  4783  7922  7923   ar
  4784  5001  5002    2
  4785  1975  1974    1
  4786  6657  6663    1
  4787  6029  6028    1
  4788  6546  6547   ar
  4789  6546  6545    1
  4790   140   141   ar
  4791  2270  2276   ar
  4792  1990  1985    1
  4793  4500  4501    2
  4794  7787  7786    1
  4795  7787  7785    1
  4796  2279  2278   ar
  4797  6023  6006    1
  4798  6023  6025    1
  4799  6023  6044    1
  4800  5675  5677    1
  4801   119   118    1
  4802  6547  6548    2
  4803  3765  3758   ar
  4804  7877  7878   ar
  4805  6675  6676   ar
  4806  5562  5563   ar
  4807  5562  5561   ar
  4808  6677  6676   ar
  4809  6677  6680   ar
  4810  5689  5688    2
  4811    38    27    1
  4812    38    37   ar
  4813  5563  5557   ar
  4814  3925  3930   ar
  4815  6088  6067    2
  4816  6024  6025    1
  4817  6024  6026    1
  4818  3539  3538   ar
  4819  3539  3540   ar
  4820  6519  6520    1
  4821  7878  7879    1
  4822  6461  6463    1
  4823    27    25    1
  4824    27    22    1
  4825  2251  2250   ar
  4826  2251  2252   ar
  4827  6532  6533   ar
  4828  6532  6530   ar
  4829  6480  6485    1
  4830  2275  2276   ar
  4831  2275  2278   ar
  4832  3928  3934   ar
  4833  3928  3929   ar
  4834  7785  7804    1
  4835  7785  7769    1
  4836  1922  1921    1
  4837  1954  1955   ar
  4838  1954  1951   ar
  4839  2755  2754   ar
  4840  1726  1724    1
  4841  1726  1725    1
  4842  6046  6047    1
  4843  6046  6048    1
  4844  3782  3781   ar
  4845  3782  3784   ar
  4846  6457  6455    1
  4847  6457  6458    1
  4848  7816  7815   ar
  4849  3548  3528    2
  4850  3538  3543   ar
  4851  6474  6454    2
  4852  4492  4506    1
  4853  5687  5688   ar
  4854  5687  5686   ar
  4855  3531  3529    1
  4856  3531  3532    1
  4857  6684  6663    2
  4858    53    52    2
  4859  6089  6067    1
  4860  6006  6005    1
  4861  1921  1923    1
  4862  6021  6000    2
  4863  2250  2249   ar
  4864  7925  7931   ar
  4865  7925  7924   ar
  4866  1707  1724    1
  4867    26    25    1
  4868  6455  6456    1
  4869  3540  3541   ar
  4870  2743  2741    1
  4871  4971  4970    1
  4872  3529  3530    1
  4873  1920  1925    1
  4874  3759  3758   ar
  4875  3759  3760    2
  4876  6683  6663    1
  4877  7822  7819   ar
  4878  7931  7921    1
  4879    45    50    1
  4880    45    44    1
  4881  2713  2735    2
  4882  2713  2734    1
  4883  6483  6484    1
  4884  6483  6485    1
  4885  6676  6682   ar
  4886  3803  3802    2
  4887  6533  6526   ar
  4888  3934  3933   ar
  4889  5692  5681    1
  4890  5692  5686   ar
  4891  7989  7988    1
  4892  7949  7948    1
  4893  3767  3748    2
  4894   133   128    1
  4895  2255  2252   ar
  4896  1724  1742    1
  4897  2276  2277    2
  4898  2739  2737    1
  4899  2739  2741    1
  4900    49    48    1
  4901  7819  7820   ar
  4902  3781  3779   ar
  4903  6523  6524    1
  4904  6523  6525    1
  4905  3731  3748    1
  4906    36    37   ar
  4907  7916  7921    1
  4908  7916  7915    1
  4909  6531  6530    1
  4910    50    51    1
  4911    50    48    1
  4912  2719  2736    1
  4913  6680  6681   ar
  4914  3543  3544    1
  4915  3543  3542   ar
  4916  3916  3917    1
  4917  3801  3802   ar
  4918  3801  3799   ar
  4919  6663  6665    1
  4920  6513  6512   ar
  4921  6513  6506   ar
  4922  1729  1727    1
  4923  1729  1730    1
  4924  7923  7924   ar
  4925  5688  5682   ar
  4926  1938  1937    1
  4927  3541  3542   ar
  4928  3541  3547   ar
  4929  7914  7913    1
  4930    25    23    1
  4931  6503  6504    1
  4932  6503  6505    1
  4933  3800  3799    2
  4934  3758  3757    1
  4935  6512  6510   ar
  4936   130   129    1
  4937  7966  7965    1
  4938  6530  6529   ar
  4939  4510  4509    1
  4940  4510  4515    1
  4941  6500  6505    1
  4942  1933  1932   ar
  4943  1933  1926   ar
  4944   129   127    1
  4945  7794  7789    1
  4946  7794  7795    1
  4947  1727  1725    1
  4948  5561  5558   ar
  4949  1952  1951   ar
  4950  1952  1946   ar
  4951  2252  2253   ar
  4952  5681  5679    1
  4953  3542  3545   ar
  4954  5717  5695    2
  4955  6067  6051    1
  4956  6067  6069    1
  4957  6026  6028    1
  4958  6026  6027    1
  4959  7913  7915    1
  4960  3537  3547    1
  4961  3537  3532    1
  4962  1769  1768    1
  4963  1769  1767    1
  4964  4507  4509    1
  4965  4507  4508    1
  4966  1955  1956   ar
  4967  1932  1930   ar
  4968  3547  3546   ar
  4969  5557  5556   ar
  4970  5557  5558   ar
  4971  3530  3528    1
  4972  5677  5678    1
  4973  5677  5679    1
  4974  8012  8011    2
  4975    52    51   ar
  4976    52    54   ar
  4977  6028  6030    1
  4978   118   117   ar
  4979   118   120   ar
  4980  3930  3929   ar
  4981  3930  3931    1
  4982  2737  2738    1
  4983    22    21    1
  4984  5686  5685   ar
  4985    44    42    1
  4986    44    46    1
  4987  1951  1950   ar
  4988  7815  7820   ar
  4989  7921  7919    1
  4990   117   115   ar
  4991  3929  3932   ar
  4992  6682  6681   ar
  4993  6682  6672    1
  4994    99    98    1
  4995  6485  6486    1
  4996  3802  3804   ar
  4997  6493  6492   ar
  4998  6493  6486   ar
  4999  1974  1973   ar
  5000  1974  1969   ar
  5001  1984  1985    1
  5002  1984  1982    1
  5003  1976  1973   ar
  5004  1976  1977   ar
  5005  4509  4511    1
  5006  6526  6525    1
  5007  6526  6527   ar
  5008  3545  3546   ar
  5009  2249  2248   ar
  5010  6456  6454    1
  5011  7820  7821    1
  5012  3784  3785   ar
  5013    51    58   ar
  5014  1980  1959    2
  5015  3799  3798   ar
  5016  6520  6525    1
  5017  4970  4972    1
  5018  4970  4968    1
  5019  3528  3549    1
  5020  3528  3514    1
  5021  7964  7965   ar
  5022  7964  7970   ar
  5023  5556  5555   ar
  5024  3748  3750    1
  5025  3748  3766    1
  5026  7948  7947   ar
  5027  7948  7950   ar
  5028  2741  2742    1
  5029  6002  6001    1
  5030  6002  6000    1
  5031  3917  3915    1
  5032    48    46    1
  5033  5558  5559   ar
  5034  7769  7768    1
  5035  6051  6050    1
  5036  3933  3932   ar
  5037  6505  6506    1
  5038  6048  6050    1
  5039  6048  6049    1
  5040  6454  6475    1
  5041  6454  6440    1
  5042  7988  7987   ar
  5043  7988  7990   ar
  5044  7795  7802   ar
  5045  7795  7796   ar
  5046  6008  6007    1
  5047  6001  6003    1
  5048  7915  7917    1
  5049  6463  6458    1
  5050  6463  6473    1
  5051  7802  7801   ar
  5052  2763  2768    1
  5053  2763  2762    1
  5054  3779  3780    2
  5055  3779  3778   ar
  5056  6529  6527   ar
  5057  2738  2736    1
  5058  6667  6672    1
  5059  6667  6666    1
  5060  6506  6507   ar
  5061  6005  6003    1
  5062  6005  6007    1
  5063  7965  7967   ar
  5064  6003  6004    1
  5065  1925  1923    1
  5066  1925  1926    1
  5067  4972  4973    1
  5068  4972  4974    1
  5069    42    43    1
  5070  7987  7993   ar
  5071  6492  6490   ar
  5072  6000  5984    1
  5073  6000  6022    1
  5074    54    55   ar
  5075  2768  2769    1
  5076  2768  2766    1
  5077  6486  6487   ar
  5078  6672  6670    1
  5079  7971  7970    2
  5080  6031  6030    1
  5081  5678  5695    1
  5082  1973  1972   ar
  5083  1786  1767    2
  5084  1923  1924    1
  5085  4506  4508    1
  5086  4506  4527    2
  5087  4506  4528    1
  5088  7947  7945   ar
  5089  4515  4526    1
  5090  4515  4513    1
  5091  2771  2770    2
  5092  2253  2248   ar
  5093  2253  2254    1
  5094  6527  6528    2
  5095  8074  8073    1
  5096   128   127    1
  5097  3750  3749    1
  5098  1982  1983    1
  5099  1730  1744    1
  5100  1926  1927   ar
  5101  6702  6701    2
  5102  5679  5680    1
  5103  8008  8007    1
  5104  5682  5683   ar
  5105  7950  7951   ar
  5106  3757  3752    1
  5107  3757  3755    1
  5108  3752  3751    1
  5109  1937  1939    1
  5110  3935  3915    2
  5111  6510  6511    1
  5112  6510  6509   ar
  5113  6050  6052    1
  5114  1969  1970   ar
  5115  1946  1947   ar
  5116  2736  2758    2
  5117  2736  2757    1
  5118  8011  8013   ar
  5119  8011  8010   ar
  5120  2742  2759    1
  5121  7797  7796    2
  5122  2769  2770   ar
  5123  2769  2776   ar
  5124  7970  7969   ar
  5125  7796  7798   ar
  5126    46    47    1
  5127  2770  2772   ar
  5128   127   125    1
  5129  1767  1750    1
  5130  1767  1785    1
  5131    58    57   ar
  5132   120   121   ar
  5133    47    61    1
  5134  1750  1749    1
  5135  7801  7799   ar
  5136   115   116    2
  5137   115   114   ar
  5138  5695  5716    1
  5139  5695  5697    1
  5140  6665  6664    1
  5141  1977  1978   ar
  5142  6030  6032    1
  5143    23    21    1
  5144    23    24    1
  5145  4985  4965    2
  5146  5555  5554   ar
  5147  2767  2766    1
  5148  5685  5683   ar
  5149  1956  1950   ar
  5150  1956  1945    1
  5151  4526  4525   ar
  5152  4526  4520   ar
  5153  5713  5714   ar
  5154  5713  5710   ar
  5155  6069  6068    1
  5156    98   100   ar
  5157    98    97   ar
  5158  4525  4524   ar
  5159  7990  7991   ar
  5160    21    19    1
  5161  1930  1931    1
  5162  1930  1929   ar
  5163  6027  6032    1
  5164    62    64    1
  5165    62    63    1
  5166  3785  3778   ar
  5167  4514  4513    1
  5168  6109  6090    2
  5169  4976  4975   ar
  5170  4976  4977   ar
  5171  1950  1949   ar
  5172  6007  6009    1
  5173  5559  5554   ar
  5174  5559  5560    1
  5175  8013  8014   ar
  5176  5984  5983    1
  5177  2776  2775   ar
  5178  4967  4966    1
  5179  4967  4965    1
  5180  2772  2773   ar
  5181  5712  5711    2
  5182   103    84    2
  5183  4975  4980   ar
  5184  3915  3936    1
  5185  3915  3899    1
  5186  3804  3805   ar
  5187  8009  8010    1
  5188  8009  8007    1
  5189  8009  8004    1
  5190  4977  4978   ar
  5191  3778  3777    1
  5192  2762  2760    1
  5193  2762  2764    1
  5194  6701  6695   ar
  5195  6701  6700   ar
  5196  6440  6439    1
  5197    55    57   ar
  5198    55    56    2
  5199  7919  7917    1
  5200  7919  7920    1
  5201  7917  7918    1
  5202  3798  3805   ar
  5203  3798  3797    1
  5204  6049  6054    1
  5205  6473  6467   ar
  5206  6473  6472   ar
  5207  4968  4966    1
  5208  4968  4969    1
  5209  3514  3513    1
  5210  5683  5684    1
  5211  7768  7770    1
  5212  7768  7766    1
  5213  4511  4513    1
  5214  4511  4512    1
  5215  5986  5985    1
  5216  7967  7968   ar
  5217  8073  8072   ar
  5218  8073  8075   ar
  5219   100   101   ar
  5220  7993  7994    2
  5221  7993  7992   ar
  5222  7798  7799   ar
  5223  4520  4519   ar
  5224  4520  4521   ar
  5225  7945  7946    2
  5226  7945  7944   ar
  5227  4524  4521   ar
  5228  6507  6509   ar
  5229  6507  6508    2
  5230  6695  6696   ar
  5231  1959  1942    1
  5232  1959  1979    1
  5233  1959  1961    1
  5234  2775  2773   ar
  5235  4980  4981    1
  5236  4980  4979   ar
  5237  1941  1939    1
  5238  1941  1942    1
  5239  1941  1943    1
  5240  6466  6467   ar
  5241  6466  6465   ar
  5242  3749  3751    1
  5243  2773  2774    2
  5244  7799  7800    2
  5245  5714  5715   ar
  5246  2766  2764    1
  5247  4978  4979   ar
  5248  4978  4984   ar
  5249  6664  6666    1
  5250    24    41    1
  5251  4986  4965    1
  5252    82    61    2
  5253    64    65    1
  5254    64    66    1
  5255  6490  6489   ar
  5256  6490  6491    1
  5257  6487  6488    2
  5258  6487  6489   ar
  5259  8010  8017   ar
  5260  7951  7944   ar
  5261  4519  4517   ar
  5262   143   124    2
  5263  1749  1747    1
  5264  1749  1751    1
  5265  2760  2761    1
  5266    43    41    1
  5267  6666  6668    1
  5268    65    70    1
  5269  4965  4948    1
  5270  8072  8078   ar
  5271  6004  6009    1
  5272  7771  7770    1
  5273   126   125    1
  5274   126   124    1
  5275  4979  4982   ar
  5276  8007  8005    1
  5277  4512  4529    1
  5278  8004  8003    1
  5279  3904  3903   ar
  5280  3904  3905   ar
  5281  1939  1940    1
  5282  4521  4522   ar
  5283  1972  1978   ar
  5284  1972  1971   ar
  5285  4974  4984    1
  5286  4974  4969    1
  5287  6125  6124    1
  5288  6442  6441    1
  5289  4984  4983   ar
  5290  7770  7772    1
  5291    97    95   ar
  5292  3751  3753    1
  5293  1927  1929   ar
  5294  1927  1928    2
  5295  6032  6042    1
  5296  1940  1945    1
  5297  6467  6468   ar
  5298  6700  6703   ar
  5299  6700  6699   ar
  5300   121   114   ar
  5301  7969  7968   ar
  5302  7969  7972   ar
  5303  2000  1981    2
  5304  6670  6671    1
  5305  6670  6668    1
  5306  6703  6704   ar
  5307   114   113    1
  5308  1970  1971   ar
  5309  3755  3753    1
  5310  3755  3756    1
  5311  8075  8076   ar
  5312  1947  1949   ar
  5313  1947  1948    1
  5314  1983  1981    1
  5315    61    63    1
  5316    61    83    1
  5317  5697  5696    1
  5318  7944  7943    1
  5319  1765  1744    2
  5320  4982  4983   ar
  5321  6068  6070    1
  5322  1744  1766    1
  5323  1744  1746    1
  5324  3797  3795    1
  5325  3797  3792    1
  5326  6472  6471   ar
  5327  3903  3908   ar
  5328  7991  7992   ar
  5329  7991  7997   ar
  5330  4517  4518    1
  5331  4517  4516   ar
  5332  1978  1968    1
  5333  5710  5711   ar
  5334  5710  5709   ar
  5335  1945  1943    1
  5336  2761  2759    1
  5337  7968  7974   ar
  5338  6085  6086   ar
  5339  6085  6082   ar
  5340  5711  5705   ar
  5341  6052  6054    1
  5342  6052  6053    1
  5343  1961  1960    1
  5344    19    20    1
  5345  6009  6020    1
  5346  6696  6697    1
  5347  6696  6698   ar
  5348  7783  7763    2
  5349  8014  8015    2
  5350  8014  8016   ar
  5351  3901  3900    1
  5352  3905  3906   ar
  5353  4522  4516   ar
  5354  4522  4523    2
  5355  2759  2777    2
  5356  2759  2778    1
  5357  6465  6464   ar
  5358  3753  3754    1
  5359  1752  1751    1
  5360  6787  6788   ar
  5361  6787  6792   ar
  5362  1943  1944    1
  5363  7992  7995   ar
  5364  2764  2765    1
  5365  3899  3898    1
  5366  6090  6108    1
  5367  6090  6092    1
  5368  6090  6073    1
  5369  1745  1747    1
  5370  1745  1746    1
  5371  3777  3772    1
  5372  3777  3775    1
  5373  3796  3795    1
  5374   102    84    1
  5375  5983  5985    1
  5376  5983  5981    1
  5377  6063  6064   ar
  5378  6063  6062   ar
  5379  5985  5987    1
  5380  6086  6087   ar
  5381  1747  1748    1
  5382    84    67    1
  5383    84    86    1
  5384  6788  6789   ar
  5385  8078  8079    2
  5386  8078  8077   ar
  5387  6668  6669    1
  5388   124   142    1
  5389   124   110    1
  5390  8003  8005    1
  5391  8003  8001    1
  5392  6054  6064    1
  5393  7766  7764    1
  5394  7766  7767    1
  5395  7918  7934    1
  5396  6439  6441    1
  5397  6439  6437    1
  5398  3513  3515    1
  5399  3513  3511    1
  5400    20    18    1
  5401  6441  6443    1
  5402    41    59    2
  5403    41    60    1
  5404  3516  3515    1
  5405  6699  6698   ar
  5406  6699  6705   ar
  5407   123   104    2
  5408  3900  3898    1
  5409  3900  3902    1
  5410  1751  1753    1
  5411  6704  6705   ar
  5412   101    94   ar
  5413  7764  7765    1
  5414  8017  8016   ar
  5415  3795  3793    1
  5416  6084  6083    2
  5417  6041  6042   ar
  5418  6041  6040   ar
  5419  8076  8077   ar
  5420  8076  8082   ar
  5421  6042  6036   ar
  5422  3515  3517    1
  5423   111   113    1
  5424   111   109    1
  5425   111   112    1
  5426  1981  1965    1
  5427  1981  1999    1
  5428  7972  7973   ar
  5429  5715  5709   ar
  5430  5715  5704    1
  5431  6468  6471   ar
  5432  6468  6469   ar
  5433  8005  8006    1
  5434  5981  5979    1
  5435  5981  5982    1
  5436  6793  6792    1
  5437    70    81    1
  5438    70    68    1
  5439    66    67    1
  5440    66    68    1
  5441  7765  7763    1
  5442  6124  6126   ar
  5443  6124  6123   ar
  5444    73    72    1
  5445  6725  6724    2
  5446  3908  3909    1
  5447  3908  3907   ar
  5448  7943  7938    1
  5449  7943  7941    1
  5450  6705  6694    1
  5451  3792  3791    1
  5452  6792  6791   ar
  5453  6092  6091    1
  5454  3772  3771    1
  5455    95    94   ar
  5456    95    96    2
  5457  6064  6058   ar
  5458  8077  8080   ar
  5459  7997  7986    1
  5460  7997  7996   ar
  5461  3398  3378    2
  5462     6     5    1
  5463     6    18    1
  5464    74    72   ar
  5465    74    75   ar
  5466   113   108    1
  5467  2783  2788    1
  5468  2783  2782    1
  5469  3787  3768    2
  5470  7985  7984    1
  5471    40    18    2
  5472  8006  8020    1
  5473  2765  2779    1
  5474  1964  1966    1
  5475  1964  1965    1
  5476  1964  1962    1
  5477  4948  4947    1
  5478  6062  6059   ar
  5479  4529  4550    2
  5480  4529  4551    1
  5481  4529  4531    1
  5482  3898  3896    1
  5483  3906  3907   ar
  5484  3906  3912   ar
  5485  7974  7973   ar
  5486  7974  7963    1
  5487  5709  5708   ar
  5488  5696  5698    1
  5489    72    71   ar
  5490  6464  6469   ar
  5491  6082  6083   ar
  5492  6082  6081   ar
  5493  8097  8096    2
  5494  3421  3400    2
  5495  7953  7934    2
  5496   109   110    1
  5497   109   107    1
  5498  5702  5703    1
  5499  5702  5704    1
  5500  5702  5700    1
  5501    81    75   ar
  5502    81    80   ar
  5503  7763  7784    1
  5504  7763  7749    1
  5505  7986  7984    1
  5506  7986  7981    1
  5507  7772  7782    1
  5508  7772  7767    1
  5509  7938  7937    1
  5510  6070  6072    1
  5511  6070  6071    1
  5512  6072  6073    1
  5513  6072  6074    1
  5514  6718  6724   ar
  5515  6718  6719   ar
  5516  6789  6790   ar
  5517  6126  6127   ar
  5518     2     1    1
  5519  1968  1966    1
  5520  1968  1963    1
  5521    75    76   ar
  5522    86    85    1
  5523  1966  1967    1
  5524  3775  3776    1
  5525  3775  3773    1
  5526  5705  5706   ar
  5527  6020  6019   ar
  5528  6020  6014   ar
  5529  5979  5980    1
  5530     5     7    1
  5531     5     3    1
  5532  7995  7996   ar
  5533    94    93    1
  5534  6083  6077   ar
  5535  8082  8071    1
  5536  8082  8081   ar
  5537  6720  6719    1
  5538  1960  1962    1
  5539    18    39    1
  5540  7984  7982    1
  5541  6724  6723   ar
  5542  6810  6809   ar
  5543  6810  6811   ar
  5544  8071  8066    1
  5545  8071  8069    1
  5546  6071  6076    1
  5547     8     7    1
  5548  6437  6435    1
  5549  6437  6438    1
  5550  6469  6470    1
  5551  3754  3768    1
  5552  7782  7781   ar
  5553  7782  7776   ar
  5554  2788  2789    1
  5555  2788  2786    1
  5556  3907  3910   ar
  5557  8001  8002    1
  5558  7934  7936    1
  5559  7934  7952    1
  5560  6446  6445    2
  5561    80    79   ar
  5562  5987  5982    1
  5563  5987  5997    1
  5564    71    77   ar
  5565  8040  8020    2
  5566  7936  7935    1
  5567  7775  7776   ar
  5568  7775  7774   ar
  5569  6087  6081   ar
  5570  6087  6076    1
  5571  6743  6742    1
  5572  5704  5699    1
  5573  6040  6037   ar
  5574  7781  7780   ar
  5575  5699  5698    1
  5576  7776  7777   ar
  5577  1748  1753    1
  5578  6091  6093    1
  5579    68    69    1
  5580    76    77   ar
  5581    76    79   ar
  5582  6123  6121   ar
  5583  3902  3912    1
  5584  3902  3897    1
  5585  3511  3509    1
  5586  3511  3512    1
  5587  6719  6721   ar
  5588  7963  7958    1
  5589  7963  7961    1
  5590  1963  1962    1
  5591  1753  1764    1
  5592  6669  6685    1
  5593  6694  6689    1
  5594  6694  6692    1
  5595  4530  4531    1
  5596  4530  4532    1
  5597  6689  6688    1
  5598  2789  2790   ar
  5599  2789  2796   ar
  5600  2791  2790    2
  5601  6809  6814   ar
  5602  6013  6014   ar
  5603  6013  6011   ar
  5604  8041  8020    1
  5605  3770  3768    1
  5606  3770  3769    1
  5607  6036  6035   ar
  5608  6036  6037   ar
  5609  3912  3911   ar
  5610  7774  7773   ar
  5611  8070  8069    1
  5612  8080  8081   ar
  5613   106   104    1
  5614   106   105    1
  5615  6791  6790   ar
  5616  6791  6794   ar
  5617  2782  2780    1
  5618  2782  2784    1
  5619  8020  8022    1
  5620  6443  6438    1
  5621  6443  6444    1
  5622  2780  2781    1
  5623  1756  1755    1
  5624  4947  4949    1
  5625  4947  4945    1
  5626   104   122    1
  5627   104    90    1
  5628  4533  4532    1
  5629  4533  4538    1
  5630  3523  3522    1
  5631    77    78    2
  5632  6741  6742   ar
  5633  6741  6747   ar
  5634  8094  8089    1
  5635  8094  8095    1
  5636  8094  8092    1
  5637  6019  6018   ar
  5638  8096  8098   ar
  5639  8096  8095   ar
  5640  3509  3510    1
  5641  7780  7777   ar
  5642  6790  6796   ar
  5643  2790  2792   ar
  5644  7777  7778   ar
  5645  3768  3786    1
  5646  3522  3524   ar
  5647  3522  3521   ar
  5648  2796  2795   ar
  5649  8093  8092    1
  5650  8066  8065    1
  5651  5700  5698    1
  5652  5700  5701    1
  5653  3524  3525   ar
  5654  3521  3519   ar
  5655  8089  8088    1
  5656     7     9    1
  5657  3793  3791    1
  5658  3793  3794    1
  5659  3376  3358    2
  5660  3525  3518   ar
  5661  6811  6812   ar
  5662   108   107    1
  5663  3519  3520    2
  5664  3519  3518   ar
  5665  6014  6015   ar
  5666  6436  6435    1
  5667  6436  6434    1
  5668  7773  7778   ar
  5669  3517  3518    1
  5670  3517  3512    1
  5671  6748  6747    2
  5672  6410  6389    2
  5673  6081  6080   ar
  5674  5998  5978    2
  5675  7778  7779    1
  5676  5980  5978    1
  5677  3791  3789    1
  5678  6058  6059   ar
  5679  6058  6057   ar
  5680     1     3    1
  5681  6742  6744   ar
  5682  2792  2793   ar
  5683  7941  7942    1
  5684  7941  7939    1
  5685  2795  2793   ar
  5686  1757  1755   ar
  5687  1757  1758   ar
  5688  6059  6060   ar
  5689  6076  6074    1
  5690  3773  3771    1
  5691  3773  3774    1
  5692  6723  6726   ar
  5693  6723  6722   ar
  5694  6687  6685    1
  5695  6687  6686    1
  5696  5854  5853    1
  5697  3510  3508    1
  5698  3771  3769    1
  5699  7981  7980    1
  5700  6035  6034   ar
  5701  2793  2794    1
  5702  3896  3897    1
  5703  3896  3894    1
  5704  8069  8067    1
  5705  6445  6444   ar
  5706  6445  6447   ar
  5707    89    91    1
  5708    89    90    1
  5709    89    87    1
  5710  5708  5706   ar
  5711  7958  7957    1
  5712  2787  2786    1
  5713     3     4    1
  5714  5706  5707    1
  5715  5990  5989   ar
  5716  5990  5991   ar
  5717  4532  4534    1
  5718  6707  6685    2
  5719  3378  3364    1
  5720  3378  3399    1
  5721  3378  3380    1
  5722  8098  8099   ar
  5723  6074  6075    1
  5724  6037  6038   ar
  5725  8095  8102   ar
  5726  6127  6120   ar
  5727  6747  6746   ar
  5728   107   105    1
  5729  3400  3422    1
  5730  3400  3384    1
  5731  3400  3402    1
  5732  5834  5833    1
  5733  8002  8000    1
  5734  6106  6107   ar
  5735  6106  6104   ar
  5736  6721  6722   ar
  5737  2779  2781    1
  5738  2779  2797    2
  5739  2779  2798    1
  5740  7937  7935    1
  5741  7937  7939    1
  5742  3910  3911   ar
  5743  7749  7748    1
  5744  6444  6451   ar
  5745    85    87    1
  5746  4949  4950    1
  5747  4949  4951    1
  5748    91    93    1
  5749    91    92    1
  5750  6012  6011    1
  5751    93    88    1
  5752  6077  6078   ar
  5753  3384  3383    1
  5754  3830  3808    2
  5755  4943  4945    1
  5756  4943  4944    1
  5757  1755  1754   ar
  5758  6685  6706    1
  5759  3364  3363    1
  5760  5997  5991   ar
  5761  5997  5996   ar
  5762  4959  4958    2
  5763  4548  4549   ar
  5764  4548  4547   ar
  5765  6726  6727   ar
  5766  6011  6010   ar
  5767  2786  2784    1
  5768  6722  6728   ar
  5769  7962  7961    1
  5770  7961  7959    1
  5771  8092  8090    1
  5772  6766  6765    1
  5773  4538  4549    1
  5774  4538  4536    1
  5775  6794  6795   ar
  5776  4952  4958   ar
  5777  4952  4953   ar
  5778  6409  6389    1
  5779  6107  6100   ar
  5780  7939  7940    1
  5781  4954  4953    1
  5782  4549  4543   ar
  5783  4958  4957   ar
  5784  4547  4544   ar
  5785  6796  6786    1
  5786  6796  6795   ar
  5787  6121  6120   ar
  5788  6121  6122    2
  5789  7982  7980    1
  5790  7982  7983    1
  5791  8088  8086    1
  5792  8088  8090    1
  5793  3794  3808    1
  5794  4953  4955   ar
  5795  6744  6745   ar
  5796  5850  5849    1
  5797  5850  5855    1
  5798  1764  1758   ar
  5799  1764  1763   ar
  5800  6814  6815    1
  5801  6814  6813   ar
  5802  4945  4946    1
  5803  5738  5718    2
  5804  5989  5988   ar
  5805  5991  5992   ar
  5806  6018  6015   ar
  5807  3829  3808    1
  5808  3790  3789    1
  5809  3790  3788    1
  5810  6447  6448   ar
  5811    88    87    1
  5812  3379  3380    1
  5813  3379  3381    1
  5814  5978  5999    1
  5815  5978  5964    1
  5816  5849  5847    1
  5817  5849  5851    1
  5818  6093  6094    1
  5819  6093  6095    1
  5820  6688  6686    1
  5821  6688  6690    1
  5822  6015  6016   ar
  5823  6692  6693    1
  5824  6692  6690    1
  5825  1758  1759   ar
  5826  4957  4956   ar
  5827  4957  4960   ar
  5828  6389  6375    1
  5829  6389  6391    1
  5830  2784  2785    1
  5831  6057  6056   ar
  5832  4543  4544   ar
  5833  4543  4542   ar
  5834  4544  4545   ar
  5835  5855  5853    1
  5836  5855  5866    1
  5837  6812  6813   ar
  5838  6812  6818   ar
  5839  4955  4956   ar
  5840  5838  5837    2
  5841  5701  5718    1
  5842  6746  6745   ar
  5843  6746  6749   ar
  5844  6453  6434    2
  5845  8065  8067    1
  5846  8065  8063    1
  5847  8099  8100    2
  5848  8099  8101   ar
  5849  6120  6119    1
  5850  8022  8021    1
  5851  8102  8101   ar
  5852  6434  6452    1
  5853  6434  6417    1
  5854  7980  7978    1
  5855  3808  3810    1
  5856  4956  4962   ar
  5857  4960  4961   ar
  5858  6786  6781    1
  5859  6786  6784    1
  5860  6377  6376    1
  5861  6105  6104    2
  5862  4963  4942    2
  5863  3894  3895    1
  5864  6080  6078   ar
  5865  6060  6061    1
  5866  6060  6055   ar
  5867  3527  3508    2
  5868     9     4    1
  5869     9    10    1
  5870  4542  4540   ar
  5871  6745  6751   ar
  5872  6034  6033   ar
  5873  6727  6728   ar
  5874  4545  4546    2
  5875  4545  4539   ar
  5876  3508  3526    1
  5877  3508  3494    1
  5878  7983  8000    1
  5879  3358  3344    1
  5880  3358  3377    1
  5881  3358  3360    1
  5882  6451  6450   ar
  5883  3774  3788    1
  5884  4964  4942    1
  5885  6104  6103   ar
  5886  6728  6717    1
  5887  5966  5965    1
  5888  6094  6099    1
  5889  5847  5848    1
  5890  3402  3401    1
  5891  5739  5718    1
  5892  5853  5851    1
  5893  5835  5833    1
  5894  5835  5830    1
  5895  5835  5836    1
  5896  4961  4962   ar
  5897  3807  3788    2
  5898  4962  4951    1
  5899  6078  6079    1
  5900  7748  7750    1
  5901  7748  7746    1
  5902  6038  6033   ar
  5903  6038  6039    1
  5904  5996  5995   ar
  5905  8086  8087    1
  5906  8067  8068    1
  5907  5718  5720    1
  5908  5833  5831    1
  5909  3895  3893    1
  5910  4540  4539   ar
  5911  4540  4541    1
  5912  6813  6816   ar
  5913  6765  6767   ar
  5914  6765  6764   ar
  5915  8090  8091    1
  5916  7957  7959    1
  5917  7957  7955    1
  5918  5830  5829    1
  5919  3359  3360    1
  5920  3359  3361    1
  5921  4951  4946    1
  5922  8109  8114    1
  5923  8109  8108    1
  5924  8000  8018    2
  5925  8000  8019    1
  5926  6010  6016   ar
  5927  3383  3381    1
  5928  3383  3385    1
  5929  6690  6691    1
  5930  3381  3382    1
  5931  4534  4536    1
  5932  4534  4535    1
  5933  4944  4942    1
  5934  6375  6374    1
  5935  2785  2799    1
  5936  8021  8023    1
  5937  3788  3806    1
  5938  6767  6768   ar
  5939  6749  6750   ar
  5940  5964  5963    1
  5941  6448  6450   ar
  5942  6448  6449    2
  5943  5859  5857   ar
  5944  5859  5860   ar
  5945  7959  7960    1
  5946  4942  4926    1
  5947  6808  6818    1
  5948  6808  6803    1
  5949  6808  6806    1
  5950  7751  7750    1
  5951  3363  3361    1
  5952  3363  3365    1
  5953  1754  1760   ar
  5954  6781  6780    1
  5955  3344  3343    1
  5956  7750  7752    1
  5957  5858  5857    1
  5958  5988  5993   ar
  5959  6785  6784    1
  5960  6095  6097    1
  5961  6095  6096    1
  5962  4536  4537    1
  5963  5852  5851    1
  5964  5852  5869    1
  5965  6100  6099    1
  5966  6100  6101   ar
  5967  3503  3502    2
  5968  6016  6017    2
  5969  6807  6806    1
  5970  8036  8035    1
  5971  5992  5995   ar
  5972  5992  5993   ar
  5973  6818  6817   ar
  5974  6803  6802    1
  5975  6390  6391    1
  5976  6390  6392    1
  5977  5837  5836   ar
  5978  5837  5839   ar
  5979  3361  3362    1
  5980  1763  1762   ar
  5981  8063  8064    1
  5982  7940  7954    1
  5983  5866  5860   ar
  5984  5866  5865   ar
  5985  6056  6055   ar
  5986  6717  6712    1
  5987  6717  6715    1
  5988  6833  6832    1
  5989  6784  6782    1
  5990  3444  3423    2
  5991  6751  6750   ar
  5992  6751  6740    1
  5993  5829  5831    1
  5994  5829  5827    1
  5995  8037  8038   ar
  5996  8037  8034   ar
  5997  7956  7955    1
  5998  7956  7954    1
  5999  6762  6761    1
  6000  5965  5963    1
  6001  5965  5967    1
  6002  6097  6099    1
  6003  6097  6098    1
  6004  8091  8105    1
  6005  3445  3423    1
  6006  5818  5817    2
  6007  3888  3887    2
  6008  8114  8124    1
  6009  8114  8112    1
  6010  6376  6374    1
  6011  6376  6378    1
  6012    12    11    2
  6013    10    11   ar
  6014    10    17   ar
  6015  8068  8085    1
  6016  8117  8116   ar
  6017  8117  8118   ar
  6018  5836  5843   ar
  6019  5857  5856   ar
  6020  6417  6416    1
  6021  1759  1760   ar
  6022  1759  1762   ar
  6023  6129  6110    2
  6024  3366  3365    1
  6025  5860  5861   ar
  6026  6764  6770   ar
  6027  7761  7743    2
  6028  2803  2808    1
  6029  2803  2802    1
  6030  3401  3403    1
  6031  3386  3385    1
  6032  8106  8108    1
  6033  8106  8107    1
  6034  4535  4552    1
  6035  6119  6117    1
  6036  6119  6114    1
  6037  8087  8085    1
  6038  7762  7743    1
  6039  8116  8115   ar
  6040  3502  3501   ar
  6041  3502  3504   ar
  6042  7978  7979    1
  6043  8108  8110    1
  6044  6151  6130    2
  6045  5832  5831    1
  6046  5832  5846    1
  6047  7976  7954    2
  6048  5993  5994    1
  6049  3886  3887   ar
  6050  3886  3884   ar
  6051  3914  3893    2
  6052  8038  8039   ar
  6053  8064  8062    1
  6054  3494  3493    1
  6055  8035  8034   ar
  6056  8035  8030   ar
  6057  6117  6118    1
  6058  6117  6115    1
  6059  8118  8124   ar
  6060  8118  8119   ar
  6061  7745  7743    1
  6062  7745  7744    1
  6063  8124  8123   ar
  6064  6103  6101   ar
  6065  8034  8033   ar
  6066  5970  5969    2
  6067  6763  6758    1
  6068  6763  6761    1
  6069  6763  6774    1
  6070  6740  6738    1
  6071  6740  6735    1
  6072  7979  7977    1
  6073  5848  5846    1
  6074  3826  3827   ar
  6075  3826  3823   ar
  6076  3501  3499   ar
  6077  6712  6711    1
  6078  3885  3884    2
  6079  3810  3809    1
  6080    11    13   ar
  6081  7746  7744    1
  6082  7746  7747    1
  6083  8115  8120   ar
  6084  8084  8062    2
  6085  6806  6804    1
  6086  3893  3913    1
  6087  3893  3879    1
  6088  5890  5869    2
  6089  6374  6372    1
  6090  5963  5961    1
  6091  3385  3387    1
  6092  6768  6774   ar
  6093  6768  6769   ar
  6094  5867  5846    2
  6095  7954  7975    1
  6096  6816  6817   ar
  6097    17    16   ar
  6098  3504  3505   ar
  6099  3887  3889   ar
  6100  3423  3406    1
  6101  3423  3425    1
  6102  3365  3367    1
  6103  1760  1761    2
  6104  7743  7726    1
  6105  6393  6392    1
  6106  6393  6398    1
  6107  5865  5864   ar
  6108  3825  3824    2
  6109  8119  8120   ar
  6110  8119  8122   ar
  6111  8123  8122   ar
  6112  8024  8023    1
  6113  8024  8029    1
  6114  5839  5840   ar
  6115  6758  6757    1
  6116  6101  6102    2
  6117  2800  2802    1
  6118  2800  2801    1
  6119  8120  8121    1
  6120  5720  5719    1
  6121  6407  6406   ar
  6122  6407  6408   ar
  6123  8113  8112    1
  6124  3884  3883   ar
  6125  3495  3493    1
  6126  3495  3496    1
  6127  3495  3497    1
  6128  6691  6708    1
  6129  3382  3387    1
  6130  2808  2809    1
  6131  2808  2806    1
  6132  6392  6394    1
  6133  7960  7977    1
  6134  8023  8025    1
  6135  8030  8031   ar
  6136  2816  2815   ar
  6137  2816  2809   ar
  6138  6406  6403   ar
  6139  6802  6804    1
  6140  6802  6800    1
  6141  3406  3405    1
  6142  5814  5813    1
  6143  3827  3828   ar
  6144  6096  6110    1
  6145  6730  6708    2
  6146  3493  3491    1
  6147  3339  3341    1
  6148  3339  3340    1
  6149  5827  5828    1
  6150  6761  6759    1
  6151  5719  5721    1
  6152  2802  2804    1
  6153  5870  5872    1
  6154  5870  5871    1
  6155  6774  6773   ar
  6156  2801  2799    1
  6157  3343  3341    1
  6158  3343  3345    1
  6159  6715  6716    1
  6160  6715  6713    1
  6161  8039  8033   ar
  6162  8039  8029    1
  6163  3356  3338    2
  6164  7759  7760   ar
  6165  7759  7757   ar
  6166  3499  3500    2
  6167  3499  3498   ar
  6168  6780  6782    1
  6169  6780  6778    1
  6170  2815  2813   ar
  6171  7760  7753   ar
  6172  2799  2817    2
  6173  2799  2818    1
  6174  7758  7757    2
  6175  8033  8032   ar
  6176  7757  7756   ar
  6177  5869  5871    1
  6178  5869  5891    1
  6179  6739  6738    1
  6180  2809  2810   ar
  6181  7752  7753    1
  6182  7752  7747    1
  6183  6832  6834   ar
  6184  6832  6831   ar
  6185  8107  8105    1
  6186  5846  5868    1
  6187  7753  7754   ar
  6188  6419  6418    1
  6189  7756  7754   ar
  6190  6114  6113    1
  6191  6738  6736    1
  6192  7754  7755    2
  6193  8085  8103    2
  6194  8085  8104    1
  6195  5856  5862   ar
  6196  5873  5872    1
  6197  5873  5878    1
  6198  3505  3498   ar
  6199  4926  4925    1
  6200  5817  5819   ar
  6201  5817  5816   ar
  6202  3341  3342    1
  6203  5861  5864   ar
  6204  5861  5862   ar
  6205  6782  6783    1
  6206  3362  3367    1
  6207  5843  5842   ar
  6208  8112  8110    1
  6209  6770  6769   ar
  6210  6770  6771    2
  6211  5967  5968    1
  6212  5967  5962    1
  6213  6378  6373    1
  6214  6378  6379    1
  6215  3346  3345    1
  6216  6381  6380    2
  6217  3403  3405    1
  6218  3403  3404    1
  6219  6110  6112    1
  6220  6110  6128    1
  6221  3809  3811    1
  6222  8062  8083    1
  6223  8062  8048    1
  6224  3498  3497    1
  6225  6735  6734    1
  6226  6115  6113    1
  6227  6115  6116    1
  6228  6416  6418    1
  6229  6416  6414    1
  6230  8105  8125    2
  6231  8105  8126    1
  6232  2813  2814    2
  6233  2813  2812   ar
  6234  5969  5968   ar
  6235  5969  5971   ar
  6236  6372  6373    1
  6237  6372  6370    1
  6238  6769  6772   ar
  6239  8031  8032   ar
  6240  5961  5962    1
  6241  5961  5959    1
  6242  3823  3824   ar
  6243  3823  3822   ar
  6244  2810  2812   ar
  6245  2810  2811    2
  6246    13    14   ar
  6247  5819  5820   ar
  6248  5872  5874    1
  6249  6834  6835   ar
  6250  3824  3818   ar
  6251  5952  5951    1
  6252  5946  5947   ar
  6253  5946  5951   ar
  6254  3387  3397    1
  6255  8029  8027    1
  6256  7977  7999    2
  6257  7977  7998    1
  6258  3880  3881    1
  6259  3880  3878    1
  6260  3880  3882    1
  6261    16    14   ar
  6262  8027  8025    1
  6263  8027  8028    1
  6264  6804  6805    1
  6265  8110  8111    1
  6266  3889  3890   ar
  6267  4552  4571    2
  6268  4552  4570    1
  6269  4552  4554    1
  6270  6757  6759    1
  6271  6757  6755    1
  6272  5813  5815    1
  6273  5813  5811    1
  6274  6408  6398    1
  6275  6408  6402   ar
  6276  6800  6801    1
  6277  5722  5721    1
  6278  5722  5727    1
  6279  4936  4935    1
  6280  6708  6710    1
  6281  6708  6729    1
  6282  8025  8026    1
  6283  6134  6133    1
  6284  6134  6139    1
  6285  3507  3488    2
  6286  6130  6116    1
  6287  6130  6132    1
  6288  6130  6150    1
  6289  3405  3407    1
  6290  6710  6709    1
  6291  5862  5863    2
  6292  6831  6837   ar
  6293  3367  3368    1
  6294  3390  3389   ar
  6295  3390  3391   ar
  6296  3883  3890   ar
  6297  3883  3882    1
  6298  6131  6133    1
  6299  6131  6132    1
  6300  3879  3878    1
  6301  6403  6402   ar
  6302  6403  6404   ar
  6303  6112  6111    1
  6304  5815  5816    1
  6305  5815  5810    1
  6306  6778  6779    1
  6307  5736  5735   ar
  6308  5736  5737   ar
  6309  3345  3347    1
  6310  2807  2806    1
  6311  5840  5842   ar
  6312  5840  5841    2
  6313  5780  5779    2
  6314  6398  6396    1
  6315  6711  6713    1
  6316  6711  6709    1
  6317  3867  3866    1
  6318  3497  3492    1
  6319  5968  5975   ar
  6320  4925  4927    1
  6321  4925  4923    1
  6322  6405  6404    1
  6323  4930  4935   ar
  6324  4930  4931   ar
  6325  6418  6420    1
  6326  3482  3481    1
  6327  6805  6821    1
  6328  5971  5972   ar
  6329  5947  5948   ar
  6330  5721  5723    1
  6331  4935  4934   ar
  6332  5951  5950   ar
  6333  3425  3424    1
  6334  6380  6379   ar
  6335  6380  6382   ar
  6336  6825  6824    1
  6337  6825  6830    1
  6338    14    15    2
  6339  3340  3338    1
  6340  6773  6772   ar
  6341  4567  4566    2
  6342  3878  3876    1
  6343  2806  2804    1
  6344  3490  3488    1
  6345  3490  3489    1
  6346  3812  3811    1
  6347  3812  3817    1
  6348  6379  6386   ar
  6349  6113  6111    1
  6350  5878  5889    1
  6351  5878  5876    1
  6352  3828  3822   ar
  6353  3828  3817    1
  6354  4568  4566   ar
  6355  4568  4569   ar
  6356  6759  6760    1
  6357  6133  6135    1
  6358  6783  6799    1
  6359  6713  6714    1
  6360  5735  5732   ar
  6361  5816  5823   ar
  6362  7726  7725    1
  6363  3389  3388   ar
  6364  5828  5826    1
  6365  3412  3411    1
  6366  5798  5797    2
  6367  7741  7720    2
  6368  4566  4565   ar
  6369  6394  6396    1
  6370  6394  6395    1
  6371  4927  4928    1
  6372  4927  4929    1
  6373  6414  6415    1
  6374  6414  6412    1
  6375  3338  3321    1
  6376  3338  3357    1
  6377  4931  4932   ar
  6378  6402  6401   ar
  6379  7742  7720    1
  6380  2804  2805    1
  6381  4556  4561    1
  6382  4556  4555    1
  6383  6822  6824    1
  6384  6822  6823    1
  6385  8111  8127    1
  6386  6404  6399   ar
  6387  4569  4562   ar
  6388  4941  4920    2
  6389  3491  3492    1
  6390  3491  3489    1
  6391  3882  3877    1
  6392  8061  8042    2
  6393  4940  4920    1
  6394  5959  5960    1
  6395  4934  4937   ar
  6396  4934  4933   ar
  6397  6370  6371    1
  6398  5773  5779   ar
  6399  5773  5774   ar
  6400  5799  5797   ar
  6401  5799  5800   ar
  6402  8048  8047    1
  6403  3465  3446    2
  6404  3822  3821   ar
  6405  6420  6415    1
  6406  6420  6431    1
  6407  3404  3409    1
  6408  6736  6734    1
  6409  6736  6737    1
  6410  3811  3813    1
  6411  4554  4553    1
  6412  6396  6397    1
  6413  3342  3347    1
  6414  6801  6799    1
  6415  3375  3368   ar
  6416  3375  3374   ar
  6417  5757  5756    2
  6418  4937  4938   ar
  6419  4565  4563   ar
  6420  5930  5929    1
  6421  5801  5800    2
  6422  6423  6422    1
  6423  3488  3506    1
  6424  3488  3472    1
  6425  6760  6777    1
  6426  6824  6826    1
  6427  3397  3391   ar
  6428  3397  3396   ar
  6429  6755  6756    1
  6430  4562  4563   ar
  6431  4562  4561    1
  6432  6734  6732    1
  6433  4922  4920    1
  6434  4922  4921    1
  6435  3368  3369   ar
  6436  3818  3819   ar
  6437  3391  3392   ar
  6438  3483  3480   ar
  6439  3483  3484   ar
  6440  4932  4933   ar
  6441  5820  5821    1
  6442  5820  5822   ar
  6443  6835  6841   ar
  6444  6835  6836   ar
  6445  6413  6412    1
  6446  6413  6411    1
  6447  4933  4939   ar
  6448  5888  5889   ar
  6449  5888  5887   ar
  6450  5779  5778   ar
  6451  5889  5883   ar
  6452  3424  3426    1
  6453  6139  6149    1
  6454  6139  6137    1
  6455  5737  5727    1
  6456  5737  5731   ar
  6457  5877  5876    1
  6458  4563  4564    2
  6459  7725  7727    1
  6460  7725  7723    1
  6461  5727  5725    1
  6462  6382  6383   ar
  6463  3866  3861   ar
  6464  3866  3865   ar
  6465  6424  6422   ar
  6466  6424  6425   ar
  6467  5775  5774    1
  6468  6432  6411    2
  6469  5810  5809    1
  6470  3481  3480   ar
  6471  3481  3476   ar
  6472  3817  3815    1
  6473  4920  4906    1
  6474  4561  4559    1
  6475  5797  5796   ar
  6476  3861  3862   ar
  6477  4553  4555    1
  6478  4938  4939   ar
  6479  5874  5876    1
  6480  5874  5875    1
  6481  6386  6385   ar
  6482  3487  3466    2
  6483  5812  5811    1
  6484  5812  5826    1
  6485  5948  5949   ar
  6486  7720  7722    1
  6487  7720  7706    1
  6488  8026  8042    1
  6489  6779  6777    1
  6490  5811  5809    1
  6491  3347  3348    1
  6492  6830  6841    1
  6493  6830  6828    1
  6494  3408  3407    1
  6495  6837  6836   ar
  6496  6837  6838    2
  6497  5975  5974   ar
  6498  6823  6821    1
  6499  3407  3409    1
  6500  5972  5973    1
  6501  5972  5974   ar
  6502  3321  3320    1
  6503  6395  6411    1
  6504  6138  6137    1
  6505  4939  4929    1
  6506  5950  5949   ar
  6507  5950  5953   ar
  6508  2805  2819    1
  6509  8131  8136    1
  6510  8131  8130    1
  6511  3413  3411   ar
  6512  3413  3414   ar
  6513  3448  3447    1
  6514  3448  3446    1
  6515  5800  5802   ar
  6516  8043  8045    1
  6517  8043  8044    1
  6518  3480  3479   ar
  6519  3411  3410   ar
  6520  6401  6400   ar
  6521  6371  6369    1
  6522  3833  3832    1
  6523  3833  3831    1
  6524  6422  6421   ar
  6525  6756  6754    1
  6526  6399  6400   ar
  6527  6799  6820    2
  6528  6799  6819    1
  6529  3813  3815    1
  6530  3813  3814    1
  6531  3388  3393   ar
  6532  4923  4921    1
  6533  4923  4924    1
  6534  4555  4557    1
  6535  6714  6731    1
  6536  5960  5958    1
  6537  5723  5724    1
  6538  5723  5725    1
  6539  5774  5776   ar
  6540  6737  6754    1
  6541  3484  3485   ar
  6542  5762  5740    2
  6543  3374  3372   ar
  6544  6733  6732    1
  6545  6733  6731    1
  6546  5875  5892    1
  6547  6821  6842    2
  6548  6821  6843    1
  6549  6841  6840   ar
  6550  5732  5731   ar
  6551  5732  5733   ar
  6552  3323  3322    1
  6553  7727  7728    1
  6554  7727  7729    1
  6555  5809  5807    1
  6556  5823  5822   ar
  6557  6149  6148   ar
  6558  6149  6143   ar
  6559  3447  3449    1
  6560  8047  8045    1
  6561  8047  8049    1
  6562  5844  5826    2
  6563  4929  4924    1
  6564  5826  5845    1
  6565  6411  6433    1
  6566  6836  6839   ar
  6567  5887  5884   ar
  6568  7722  7721    1
  6569  6431  6425   ar
  6570  6431  6430   ar
  6571  5949  5955   ar
  6572  3876  3877    1
  6573  3876  3874    1
  6574  5883  5882   ar
  6575  5883  5884   ar
  6576  6829  6828    1
  6577  3476  3477   ar
  6578  8042  8044    1
  6579  8042  8060    1
  6580  3409  3420    1
  6581  6148  6147   ar
  6582  6135  6137    1
  6583  6135  6136    1
  6584  6387  6369    2
  6585  3821  3819   ar
  6586  3446  3429    1
  6587  3446  3464    1
  6588  6425  6426   ar
  6589  3832  3834    1
  6590  3369  3370    2
  6591  3369  3371   ar
  6592  8136  8137    1
  6593  8136  8134    1
  6594  3819  3820    1
  6595  5756  5755   ar
  6596  5756  5750   ar
  6597  5929  5924   ar
  6598  5929  5928   ar
  6599  6777  6798    2
  6600  6777  6797    1
  6601  3871  3851    2
  6602  8139  8138    2
  6603  5758  5755   ar
  6604  5758  5759   ar
  6605  6383  6385   ar
  6606  6383  6384    2
  6607  3875  3874    1
  6608  3875  3873    1
  6609  8137  8138   ar
  6610  8137  8144   ar
  6611  7719  7700    2
  6612  3396  3395   ar
  6613  3865  3868   ar
  6614  3865  3864   ar
  6615  8138  8140   ar
  6616  3892  3873    2
  6617  7721  7723    1
  6618  5731  5730   ar
  6619  3849  3831    2
  6620  8144  8143   ar
  6621  7718  7700    1
  6622  5953  5954   ar
  6623  8140  8141   ar
  6624  5882  5880   ar
  6625  3392  3393   ar
  6626  3392  3395   ar
  6627  8127  8129    1
  6628  8127  8145    2
  6629  8127  8146    1
  6630  3862  3863   ar
  6631  6143  6142   ar
  6632  6143  6144   ar
  6633  5924  5925   ar
  6634  8143  8141   ar
  6635  3868  3869   ar
  6636  8141  8142    1
  6637  3834  3835    1
  6638  3834  3836    1
  6639  8128  8129    1
  6640  8128  8130    1
  6641  8045  8046    1
  6642  5724  5740    1
  6643  5725  5726    1
  6644  7737  7736    2
  6645  6142  6141   ar
  6646  3815  3816    1
  6647  5884  5885   ar
  6648  5734  5733    1
  6649  3472  3471    1
  6650  7698  7680    2
  6651  3467  3468    1
  6652  3467  3469    1
  6653  7723  7724    1
  6654  3429  3428    1
  6655  6826  6828    1
  6656  6826  6827    1
  6657  5778  5781   ar
  6658  5778  5777   ar
  6659  3426  3428    1
  6660  3426  3427    1
  6661  3471  3469    1
  6662  3471  3473    1
  6663  8130  8132    1
  6664  3428  3430    1
  6665  7736  7735   ar
  6666  7736  7730   ar
  6667  7738  7735   ar
  6668  7738  7739   ar
  6669  3348  3355   ar
  6670  3348  3349   ar
  6671  6147  6144   ar
  6672  3479  3485   ar
  6673  3479  3478   ar
  6674  3393  3394    1
  6675  7735  7734   ar
  6676  3814  3831    1
  6677  5755  5754   ar
  6678  5796  5795    1
  6679  5796  5803   ar
  6680  6136  6152    1
  6681  3414  3420   ar
  6682  3414  3415   ar
  6683  7739  7740   ar
  6684  7730  7731   ar
  6685  5733  5728   ar
  6686  3485  3475    1
  6687  6754  6775    2
  6688  6754  6776    1
  6689  6731  6752    2
  6690  6731  6753    1
  6691  3831  3850    1
  6692  3322  3320    1
  6693  3322  3324    1
  6694  6421  6427   ar
  6695  6369  6388    1
  6696  6369  6353    1
  6697  3410  3416   ar
  6698  3320  3318    1
  6699  3835  3840    1
  6700  3462  3463   ar
  6701  3462  3460   ar
  6702  3466  3486    1
  6703  3466  3468    1
  6704  3466  3452    1
  6705  7706  7705    1
  6706  6144  6145   ar
  6707  4919  4900    2
  6708  7734  7740   ar
  6709  7734  7733   ar
  6710  4559  4557    1
  6711  4559  4560    1
  6712  4915  4914    1
  6713  3372  3371   ar
  6714  3372  3373    2
  6715  7740  7729    1
  6716  7699  7680    1
  6717  3355  3354   ar
  6718  7731  7733   ar
  6719  7731  7732    1
  6720  6827  6844    1
  6721  5740  5761    1
  6722  5740  5742    1
  6723  3839  3838    1
  6724  6430  6429   ar
  6725  4906  4905    1
  6726  3420  3419   ar
  6727  3477  3478   ar
  6728  7700  7702    1
  6729  7700  7686    1
  6730  5908  5907    1
  6731  4899  4877    2
  6732  3873  3891    1
  6733  3873  3857    1
  6734  5802  5803   ar
  6735  5955  5954   ar
  6736  5955  5945    1
  6737  6141  6140   ar
  6738  6840  6839   ar
  6739  5750  5751   ar
  6740  4557  4558    1
  6741  5776  5777   ar
  6742  3442  3441   ar
  6743  3442  3443   ar
  6744  7729  7724    1
  6745  3427  3432    1
  6746  3461  3460    2
  6747  5928  5931   ar
  6748  5928  5927   ar
  6749  2819  2841    2
  6750  2819  2840    1
  6751  2819  2821    1
  6752  5759  5760   ar
  6753  5913  5892    2
  6754  8049  8050    1
  6755  8049  8051    1
  6756  5943  5944    1
  6757  5943  5945    1
  6758  5943  5941    1
  6759  3350  3349    2
  6760  5931  5932   ar
  6761  3864  3863   ar
  6762  3864  3870   ar
  6763  5880  5881    1
  6764  5880  5879   ar
  6765  6426  6427   ar
  6766  6426  6429   ar
  6767  4918  4900    1
  6768  5781  5782   ar
  6769  3837  3851    1
  6770  3837  3836    1
  6771  6355  6354    1
  6772  5958  5976    2
  6773  5958  5977    1
  6774  5958  5942    1
  6775  4588  4587    1
  6776  5892  5912    1
  6777  5892  5894    1
  6778  2836  2835    2
  6779  5795  5793    1
  6780  5795  5790    1
  6781  2823  2828    1
  6782  2823  2822    1
  6783  3441  3438   ar
  6784  3469  3470    1
  6785  3463  3456   ar
  6786  4853  4833    2
  6787  5807  5808    1
  6788  2837  2838   ar
  6789  2837  2834   ar
  6790  5793  5794    1
  6791  5793  5791    1
  6792  3449  3451    1
  6793  3449  3450    1
  6794  3473  3475    1
  6795  3473  3474    1
  6796  5777  5783   ar
  6797  4876  4855    2
  6798  4875  4855    1
  6799  5885  5879   ar
  6800  5885  5886    2
  6801  7680  7682    1
  6802  7680  7663    1
  6803  6145  6140   ar
  6804  6145  6146    1
  6805  3349  3351   ar
  6806  3869  3870   ar
  6807  5730  5729   ar
  6808  2820  2821    1
  6809  2820  2822    1
  6810  3460  3459   ar
  6811  7702  7701    1
  6812  3851  3872    1
  6813  3851  3853    1
  6814  4914  4916   ar
  6815  4914  4913   ar
  6816  8135  8134    1
  6817  2838  2839   ar
  6818  5925  5926   ar
  6819  2835  2834   ar
  6820  2835  2829   ar
  6821  8134  8132    1
  6822  3318  3316    1
  6823  3318  3319    1
  6824  2834  2833   ar
  6825  4916  4917   ar
  6826  7705  7707    1
  6827  7705  7703    1
  6828  3840  3838    1
  6829  3840  3841    1
  6830  8058  8059   ar
  6831  8058  8056   ar
  6832  3836  3838    1
  6833  6427  6428    2
  6834  4900  4902    1
  6835  4900  4883    1
  6836  4902  4901    1
  6837  5909  5906   ar
  6838  5909  5910   ar
  6839  8059  8052   ar
  6840  3475  3470    1
  6841  4898  4877    1
  6842  4905  4907    1
  6843  4905  4903    1
  6844  3451  3452    1
  6845  3451  3453    1
  6846  4831  4810    2
  6847  5945  5940    1
  6848  3327  3326    1
  6849  6353  6352    1
  6850  8046  8051    1
  6851  2829  2830   ar
  6852  2839  2833   ar
  6853  2839  2828    1
  6854  2833  2832   ar
  6855  8132  8133    1
  6856  3415  3416   ar
  6857  3415  3418   ar
  6858  4693  4692    1
  6859  5941  5942    1
  6860  5941  5939    1
  6861  5728  5729   ar
  6862  7678  7657    2
  6863  3354  3352   ar
  6864  4913  4911   ar
  6865  3430  3432    1
  6866  3430  3431    1
  6867  3870  3860    1
  6868  3416  3417    2
  6869  5808  5806    1
  6870  4587  4586   ar
  6871  4587  4582   ar
  6872  5754  5760   ar
  6873  5754  5753   ar
  6874  4589  4586   ar
  6875  4589  4590   ar
  6876  3443  3432    1
  6877  3443  3437   ar
  6878  6354  6352    1
  6879  6354  6356    1
  6880  5742  5741    1
  6881  4877  4879    1
  6882  4877  4861    1
  6883  5907  5906   ar
  6884  5907  5902   ar
  6885  8057  8056    1
  6886  8056  8055   ar
  6887  2828  2826    1
  6888  3450  3455    1
  6889  2830  2832   ar
  6890  2830  2831    1
  6891  4762  4761    1
  6892  7682  7681    1
  6893  3316  3317    1
  6894  4855  4857    1
  6895  4855  4839    1
  6896  2822  2824    1
  6897  4917  4910   ar
  6898  8051  8052    1
  6899  8052  8053   ar
  6900  3324  3319    1
  6901  3324  3335    1
  6902  4854  4833    1
  6903  5927  5926   ar
  6904  5927  5933   ar
  6905  3419  3418   ar
  6906  4558  4572    1
  6907  7701  7703    1
  6908  3328  3326   ar
  6909  3328  3329   ar
  6910  5760  5749    1
  6911  7686  7685    1
  6912  5932  5933   ar
  6913  6358  6359   ar
  6914  6358  6357   ar
  6915  5906  5905   ar
  6916  4907  4908    1
  6917  4907  4909    1
  6918  5751  5753   ar
  6919  5751  5752    1
  6920  4586  4585   ar
  6921  6152  6173    2
  6922  6152  6154    1
  6923  6152  6174    1
  6924  5894  5893    1
  6925  3857  3856    1
  6926  5910  5911   ar
  6927  7707  7708    1
  6928  7707  7709    1
  6929  6844  6865    2
  6930  6844  6866    1
  6931  6844  6846    1
  6932  6359  6360   ar
  6933  3456  3455    1
  6934  3456  3457   ar
  6935  5782  5783   ar
  6936  3438  3437   ar
  6937  3438  3439   ar
  6938  3856  3858    1
  6939  3856  3854    1
  6940  3853  3852    1
  6941  4833  4816    1
  6942  4833  4835    1
  6943  4582  4583   ar
  6944  3351  3352   ar
  6945  3326  3325   ar
  6946  8055  8053   ar
  6947  4911  4910   ar
  6948  4911  4912    2
  6949  3459  3457   ar
  6950  8053  8054    2
  6951  5783  5772    1
  6952  5790  5789    1
  6953  4590  4591   ar
  6954  7663  7662    1
  6955  7703  7704    1
  6956  4910  4909    1
  6957  5791  5792    1
  6958  5791  5789    1
  6959  6352  6350    1
  6960  3858  3860    1
  6961  3858  3859    1
  6962  7658  7659    1
  6963  7658  7660    1
  6964  4901  4903    1
  6965  6154  6153    1
  6966  3352  3353    1
  6967  3336  3315    2
  6968  3841  3848   ar
  6969  3841  3842   ar
  6970  3440  3439    2
  6971  7685  7683    1
  6972  7685  7687    1
  6973  4879  4878    1
  6974  3437  3436   ar
  6975  5902  5903   ar
  6976  5935  5914    2
  6977  7716  7717   ar
  6978  7716  7714   ar
  6979  8133  8147    1
  6980  4903  4904    1
  6981  3455  3453    1
  6982  6357  6362   ar
  6983  5933  5923    1
  6984  7681  7683    1
  6985  7679  7657    1
  6986  7657  7659    1
  6987  7657  7643    1
  6988  7715  7714    1
  6989  6845  6846    1
  6990  6845  6847    1
  6991  4857  4856    1
  6992  3317  3315    1
  6993  5940  5939    1
  6994  7717  7710   ar
  6995  3453  3454    1
  6996  3860  3855    1
  6997  7714  7713   ar
  6998  3457  3458    2
  6999  3329  3335   ar
  7000  3329  3330   ar
  7001  3335  3334   ar
  7002  4585  4591   ar
  7003  4585  4584   ar
  7004  4861  4860    1
  7005  4810  4832    1
  7006  4810  4812    1
  7007  4810  4796    1
  7008  4692  4694   ar
  7009  4692  4691   ar
  7010  4839  4838    1
  7011  4761  4756   ar
  7012  4761  4760   ar
  7013  3439  3433   ar
  7014  4883  4882    1
  7015  3843  3842    2
  7016  4593  4572    2
  7017  4712  4711    1
  7018  3848  3847   ar
  7019  4583  4584   ar
  7020  5792  5806    1
  7021  6356  6366    1
  7022  6356  6351    1
  7023  4816  4815    1
  7024  4591  4581    1
  7025  4756  4757   ar
  7026  4909  4904    1
  7027  5939  5937    1
  7028  5741  5743    1
  7029  5744  5749    1
  7030  5744  5743    1
  7031  4856  4858    1
  7032  7710  7709    1
  7033  7710  7711   ar
  7034  6360  6366   ar
  7035  6360  6361   ar
  7036  7713  7711   ar
  7037  6848  6847    1
  7038  6848  6853    1
  7039  2824  2826    1
  7040  2824  2825    1
  7041  5905  5911   ar
  7042  5905  5904   ar
  7043  3852  3854    1
  7044  5911  5901    1
  7045  5957  5936    2
  7046  5789  5787    1
  7047  8164  8163    2
  7048  5938  5937    1
  7049  5938  5936    1
  7050  5806  5824    2
  7051  5806  5825    1
  7052  2826  2827    1
  7053  3325  3331   ar
  7054  5749  5747    1
  7055  4835  4834    1
  7056  7709  7704    1
  7057  7711  7712    2
  7058  4572  4574    1
  7059  4572  4592    1
  7060  4811  4812    1
  7061  4811  4813    1
  7062  7655  7637    2
  7063  3842  3844   ar
  7064  8165  8162   ar
  7065  8165  8166   ar
  7066  7662  7660    1
  7067  7662  7664    1
  7068  4878  4880    1
  7069  4694  4695   ar
  7070  8163  8162   ar
  7071  8163  8157   ar
  7072  5893  5895    1
  7073  4670  4669   ar
  7074  4670  4671   ar
  7075  3854  3855    1
  7076  8162  8161   ar
  7077  4669  4674   ar
  7078  8166  8167   ar
  7079  4882  4880    1
  7080  4882  4884    1
  7081  7683  7684    1
  7082  7660  7661    1
  7083  8157  8158   ar
  7084  6366  6365   ar
  7085  8161  8167   ar
  7086  8161  8160   ar
  7087  6350  6351    1
  7088  6350  6348    1
  7089  8167  8156    1
  7090  3315  3337    1
  7091  3315  3298    1
  7092  4576  4581    1
  7093  4576  4575    1
  7094  4894  4893    2
  7095  4860  4858    1
  7096  4860  4862    1
  7097  5772  5770    1
  7098  5772  5767    1
  7099  8158  8160   ar
  7100  8158  8159    1
  7101  4691  4697   ar
  7102  4834  4836    1
  7103  6153  6155    1
  7104  4895  4896   ar
  7105  4895  4892   ar
  7106  6847  6849    1
  7107  5785  5763    2
  7108  8151  8156    1
  7109  8151  8150    1
  7110  6362  6361   ar
  7111  6362  6363    1
  7112  4796  4795    1
  7113  8156  8154    1
  7114  7687  7688    1
  7115  7687  7689    1
  7116  4574  4573    1
  7117  5903  5904   ar
  7118  3436  3434   ar
  7119  6156  6155    1
  7120  6156  6161    1
  7121  5743  5745    1
  7122  4581  4579    1
  7123  4760  4763   ar
  7124  4760  4759   ar
  7125  4838  4836    1
  7126  4838  4840    1
  7127  3334  3333   ar
  7128  6170  6171   ar
  7129  6170  6167   ar
  7130  6361  6364   ar
  7131  3330  3331   ar
  7132  3330  3333   ar
  7133  4689  4688    1
  7134  6171  6172   ar
  7135  4896  4897   ar
  7136  7696  7697   ar
  7137  7696  7694   ar
  7138  4763  4764   ar
  7139  5896  5901    1
  7140  5896  5895    1
  7141  4609  4608    1
  7142  7697  7690   ar
  7143  3433  3434   ar
  7144  5914  5916    1
  7145  5914  5934    1
  7146  5914  5898    1
  7147  2850  2849    1
  7148  5923  5921    1
  7149  5923  5918    1
  7150  7643  7642    1
  7151  5921  5919    1
  7152  5921  5922    1
  7153  5916  5915    1
  7154  3304  3303    1
  7155  4757  4758   ar
  7156  5936  5920    1
  7157  5936  5956    1
  7158  5745  5747    1
  7159  5745  5746    1
  7160  3847  3845   ar
  7161  4858  4859    1
  7162  4815  4813    1
  7163  4815  4817    1
  7164  4893  4892   ar
  7165  4893  4887   ar
  7166  6863  6862   ar
  7167  6863  6864   ar
  7168  4892  4891   ar
  7169  5897  5895    1
  7170  5897  5899    1
  7171  5897  5898    1
  7172  3331  3332    2
  7173  4880  4881    1
  7174  5770  5768    1
  7175  5770  5771    1
  7176  4711  4713    1
  7177  4711  4709    1
  7178  8147  8169    2
  7179  8147  8149    1
  7180  8147  8168    1
  7181  3098  3097    1
  7182  5919  5920    1
  7183  5919  5917    1
  7184  4716  4715    2
  7185  7656  7637    1
  7186  6853  6864    1
  7187  6853  6851    1
  7188  4813  4814    1
  7189  2825  2842    1
  7190  4573  4575    1
  7191  4671  4672   ar
  7192  5901  5899    1
  7193  5788  5787    1
  7194  5788  5786    1
  7195  5747  5748    1
  7196  4653  4652    2
  7197  3434  3435    1
  7198  6862  6859   ar
  7199  6864  6858   ar
  7200  4836  4837    1
  7201  3300  3299    1
  7202  3844  3845   ar
  7203  6155  6157    1
  7204  4884  4886    1
  7205  4884  4885    1
  7206  8149  8148    1
  7207  7637  7639    1
  7208  7637  7623    1
  7209  4674  4675    1
  7210  4674  4673   ar
  7211  6365  6364   ar
  7212  5767  5766    1
  7213  6172  6161    1
  7214  6172  6166   ar
  7215  4713  4708    1
  7216  4713  4714    1
  7217  6169  6168    2
  7218  6167  6168   ar
  7219  6167  6166   ar
  7220  7684  7689    1
  7221  3298  3297    1
  7222  4646  4652   ar
  7223  4646  4647   ar
  7224  4695  4701   ar
  7225  4695  4696   ar
  7226  5899  5900    1
  7227  4648  4647    1
  7228  6348  6349    1
  7229  2844  2843    1
  7230  2844  2842    1
  7231  4897  4891   ar
  7232  4897  4886    1
  7233  2848  2847    1
  7234  2848  2864    1
  7235  7664  7665    1
  7236  7664  7666    1
  7237  4575  4577    1
  7238  5918  5917    1
  7239  7694  7695    1
  7240  7694  7693   ar
  7241  2885  2864    2
  7242  6161  6159    1
  7243  7690  7689    1
  7244  7690  7691   ar
  7245  4887  4888   ar
  7246  7661  7666    1
  7247  4891  4890   ar
  7248  3097  3096   ar
  7249  3097  3099   ar
  7250  6168  6162   ar
  7251  3845  3846    1
  7252  2845  2846    1
  7253  2845  2843    1
  7254  2845  2847    1
  7255  4759  4758   ar
  7256  4759  4765   ar
  7257  4862  4863    1
  7258  4862  4864    1
  7259  4608  4607   ar
  7260  4608  4610   ar
  7261  4688  4690    1
  7262  4688  4686    1
  7263  6349  6347    1
  7264  4791  4792    1
  7265  4791  4793    1
  7266  4697  4696   ar
  7267  4697  4698    2
  7268  4873  4872   ar
  7269  4873  4874   ar
  7270  4690  4701    1
  7271  4690  4685    1
  7272  6859  6858   ar
  7273  6859  6860   ar
  7274  6858  6857   ar
  7275  8155  8154    1
  7276  4795  4793    1
  7277  4795  4797    1
  7278  6166  6165   ar
  7279  4881  4886    1
  7280  5768  5766    1
  7281  5768  5769    1
  7282  3303  3305   ar
  7283  3303  3302   ar
  7284  8150  8148    1
  7285  8150  8152    1
  7286  4872  4869   ar
  7287  8154  8152    1
  7288  4710  4709    1
  7289  4710  4724    1
  7290  5763  5746    1
  7291  5763  5765    1
  7292  5763  5784    1
  7293  4764  4765   ar
  7294  4652  4651   ar
  7295  6849  6851    1
  7296  6849  6850    1
  7297  4792  4790    1
  7298  3096  3094   ar
  7299  4840  4841    1
  7300  4840  4842    1
  7301  3299  3297    1
  7302  3299  3301    1
  7303  4859  4864    1
  7304  5915  5917    1
  7305  4715  4714   ar
  7306  4715  4717   ar
  7307  4630  4629    1
  7308  3099  3100   ar
  7309  4708  4707    1
  7310  2846  2851    1
  7311  3050  3049   ar
  7312  3050  3051   ar
  7313  3049  3054   ar
  7314  4607  4605   ar
  7315  7639  7638    1
  7316  4793  4794    1
  7317  4647  4649   ar
  7318  5805  5786    2
  7319  4579  4577    1
  7320  4579  4580    1
  7321  7642  7640    1
  7322  7642  7644    1
  7323  4672  4673   ar
  7324  4672  4678   ar
  7325  3305  3306   ar
  7326  4701  4700   ar
  7327  5765  5764    1
  7328  4709  4707    1
  7329  6857  6855   ar
  7330  2849  2847    1
  7331  2849  2851    1
  7332  4818  4817    1
  7333  2842  2862    2
  7334  2842  2863    1
  7335  4696  4699   ar
  7336  4817  4819    1
  7337  4624  4629   ar
  7338  4624  4625   ar
  7339  4888  4890   ar
  7340  4888  4889    1
  7341  4714  4721   ar
  7342  6860  6861    2
  7343  6860  6854   ar
  7344  4610  4611   ar
  7345  6851  6852    1
  7346  7635  7617    2
  7347  7693  7691   ar
  7348  2864  2886    1
  7349  2864  2866    1
  7350  7691  7692    2
  7351  6162  6163   ar
  7352  4577  4578    1
  7353  4673  4676   ar
  7354  4744  4724    2
  7355  3297  3295    1
  7356  4874  4864    1
  7357  4874  4868   ar
  7358  2851  2861    1
  7359  7623  7622    1
  7360  3302  3308   ar
  7361  7666  7677    1
  7362  5766  5764    1
  7363  5786  5769    1
  7364  5786  5804    1
  7365  4814  4819    1
  7366  6165  6163   ar
  7367  4765  4755    1
  7368  7638  7640    1
  7369  4707  4705    1
  7370  6190  6189    1
  7371  3094  3095    2
  7372  3094  3093   ar
  7373  4837  4842    1
  7374  6850  6867    1
  7375  3100  3093   ar
  7376  4869  4868   ar
  7377  4869  4870   ar
  7378  6157  6159    1
  7379  6157  6158    1
  7380  6855  6854   ar
  7381  6855  6856    1
  7382  2865  2866    1
  7383  2865  2867    1
  7384  4629  4628   ar
  7385  4685  4684    1
  7386  4851  4850   ar
  7387  4851  4852   ar
  7388  7676  7677   ar
  7389  7676  7675   ar
  7390  4808  4790    2
  7391  6163  6164    1
  7392  4798  4797    1
  7393  8152  8153    1
  7394  7640  7641    1
  7395  8187  8186    2
  7396  7645  7644    1
  7397  4717  4718   ar
  7398  4797  4799    1
  7399  4871  4870    1
  7400  3093  3092    1
  7401  4625  4626   ar
  7402  7677  7671   ar
  7403  4605  4606    2
  7404  4605  4604   ar
  7405  3051  3052   ar
  7406  6159  6160    1
  7407  4868  4867   ar
  7408  4842  4852    1
  7409  4766  4746    2
  7410  6368  6347    2
  7411  4724  4726    1
  7412  4724  4745    1
  7413  8186  8180   ar
  7414  8186  8185   ar
  7415  4769  4771    1
  7416  4769  4770    1
  7417  3072  3073   ar
  7418  3072  3071   ar
  7419  7644  7646    1
  7420  3054  3055    1
  7421  3054  3053   ar
  7422  4870  4865   ar
  7423  6347  6367    1
  7424  6347  6333    1
  7425  4850  4847   ar
  7426  4686  4684    1
  7427  4686  4687    1
  7428  4790  4809    1
  7429  4790  4774    1
  7430  4611  4604   ar
  7431  3306  3312   ar
  7432  3306  3307   ar
  7433  4819  4830    1
  7434  4651  4650   ar
  7435  4651  4654   ar
  7436  3073  3074   ar
  7437  8180  8181   ar
  7438  7675  7672   ar
  7439  4852  4846   ar
  7440  8188  8185   ar
  7441  8188  8189   ar
  7442  4678  4668    1
  7443  4678  4677   ar
  7444  4721  4720   ar
  7445  8185  8184   ar
  7446  7618  7619    1
  7447  7618  7620    1
  7448  3301  3312    1
  7449  3301  3296    1
  7450  4684  4682    1
  7451  4687  4704    1
  7452  4829  4830   ar
  7453  4829  4828   ar
  7454  4649  4650   ar
  7455  4700  4699   ar
  7456  3308  3307   ar
  7457  3308  3309    2
  7458  3069  3068    1
  7459  4753  4755    1
  7460  4753  4754    1
  7461  4753  4751    1
  7462  3087  3092    1
  7463  3087  3086    1
  7464  6189  6191   ar
  7465  6189  6188   ar
  7466  4789  4768    2
  7467  4604  4603    1
  7468  6158  6175    1
  7469  4771  4772    1
  7470  4771  4773    1
  7471  3092  3090    1
  7472  8181  8182    1
  7473  8181  8183   ar
  7474  8189  8190   ar
  7475  4794  4799    1
  7476  4613  4594    2
  7477  4667  4666    1
  7478  3295  3296    1
  7479  3295  3293    1
  7480  4676  4677   ar
  7481  4668  4666    1
  7482  4668  4663    1
  7483  4728  4727    1
  7484  4728  4733    1
  7485  7622  7620    1
  7486  7622  7624    1
  7487  8184  8183   ar
  7488  8184  8190   ar
  7489  2867  2868    1
  7490  2867  2869    1
  7491  6191  6192   ar
  7492  7671  7672   ar
  7493  7671  7670   ar
  7494  4830  4824   ar
  7495  4755  4750    1
  7496  3312  3311   ar
  7497  4867  4866   ar
  7498  4730  4746    1
  7499  4730  4729    1
  7500  4578  4594    1
  7501  6342  6341    1
  7502  7617  7619    1
  7503  7617  7636    1
  7504  7617  7601    1
  7505  2861  2855   ar
  7506  2861  2860   ar
  7507  4726  4725    1
  7508  6340  6341   ar
  7509  6340  6338   ar
  7510  8190  8179    1
  7511  3307  3310   ar
  7512  6339  6338    2
  7513  4628  4627   ar
  7514  4628  4631   ar
  7515  4650  4656   ar
  7516  7672  7673   ar
  7517  4865  4866   ar
  7518  4727  4729    1
  7519  4727  4725    1
  7520  3071  3076   ar
  7521  4718  4720   ar
  7522  4718  4719    2
  7523  2868  2873    1
  7524  2854  2855   ar
  7525  2854  2853   ar
  7526  4828  4825   ar
  7527  8153  8170    1
  7528  7620  7621    1
  7529  4770  4768    1
  7530  4736  4735   ar
  7531  4736  4737   ar
  7532  4626  4627   ar
  7533  8174  8179    1
  7534  8174  8173    1
  7535  3052  3053   ar
  7536  3052  3058   ar
  7537  4705  4706    1
  7538  6335  6334    1
  7539  4847  4846   ar
  7540  4847  4848   ar
  7541  4666  4664    1
  7542  4654  4655   ar
  7543  4799  4800    1
  7544  3118  3117    2
  7545  6341  6343   ar
  7546  4735  4734   ar
  7547  6338  6337   ar
  7548  6334  6332    1
  7549  6334  6336    1
  7550  4846  4845   ar
  7551  7670  7668   ar
  7552  8179  8177    1
  7553  6867  6888    2
  7554  6867  6887    1
  7555  6867  6869    1
  7556  3053  3056   ar
  7557  4772  4777    1
  7558  7641  7646    1
  7559  4746  4748    1
  7560  4746  4767    1
  7561  4706  4704    1
  7562  3070  3068    1
  7563  3070  3065    1
  7564  3070  3080    1
  7565  6188  6186   ar
  7566  4751  4752    1
  7567  4751  4749    1
  7568  6333  6332    1
  7569  4733  4743    1
  7570  4733  4731    1
  7571  4774  4773    1
  7572  2855  2856   ar
  7573  3074  3080   ar
  7574  3074  3075   ar
  7575  4627  4633   ar
  7576  2909  2887    2
  7577  3286  3285    1
  7578  7646  7647    1
  7579  4594  4596    1
  7580  4594  4612    1
  7581  6194  6175    2
  7582  7601  7600    1
  7583  4631  4632   ar
  7584  4603  4598    1
  7585  4603  4601    1
  7586  4773  4775    1
  7587  3293  3294    1
  7588  3068  3066    1
  7589  7654  7653   ar
  7590  7654  7647   ar
  7591  4824  4825   ar
  7592  4824  4823   ar
  7593  4750  4749    1
  7594  2860  2859   ar
  7595  4768  4752    1
  7596  4768  4788    1
  7597  4596  4595    1
  7598  7673  7674    2
  7599  7673  7667   ar
  7600  3311  3310   ar
  7601  4807  4800   ar
  7602  4807  4806   ar
  7603  4729  4731    1
  7604  4663  4662    1
  7605  2908  2887    1
  7606  7625  7624    1
  7607  6192  6185   ar
  7608  4598  4597    1
  7609  4704  4723    2
  7610  4704  4722    1
  7611  6175  6193    1
  7612  6175  6177    1
  7613  4825  4826   ar
  7614  3280  3285   ar
  7615  3280  3281   ar
  7616  6332  6330    1
  7617  4682  4683    1
  7618  7624  7626    1
  7619  4800  4801   ar
  7620  3065  3064    1
  7621  3086  3084    1
  7622  3086  3088    1
  7623  4737  4743   ar
  7624  4737  4738   ar
  7625  7653  7651   ar
  7626  2870  2869    1
  7627  2870  2887    1
  7628  7647  7648   ar
  7629  3117  3116   ar
  7630  3117  3119   ar
  7631  6337  6336    1
  7632  6337  6344   ar
  7633  6343  6344   ar
  7634  7668  7667   ar
  7635  7668  7669    1
  7636  4848  4849    1
  7637  4848  4843   ar
  7638  2853  2852   ar
  7639  4734  4739   ar
  7640  3080  3079   ar
  7641  4845  4844   ar
  7642  3084  3085    1
  7643  3116  3114   ar
  7644  6869  6868    1
  7645  4743  4742   ar
  7646  2869  2871    1
  7647  6884  6885   ar
  7648  6884  6881   ar
  7649  2887  2889    1
  7650  6885  6886   ar
  7651  3090  3091    1
  7652  3090  3088    1
  7653  3285  3284   ar
  7654  4748  4747    1
  7655  3294  3292    1
  7656  3076  3075   ar
  7657  3076  3077    1
  7658  4656  4655   ar
  7659  4656  4645    1
  7660  4823  4821   ar
  7661  3058  3048    1
  7662  3058  3057   ar
  7663  6336  6331    1
  7664  6871  6876    1
  7665  6871  6870    1
  7666  6186  6185   ar
  7667  6186  6187    2
  7668  4806  4804   ar
  7669  2873  2871    1
  7670  2873  2884    1
  7671  7648  7649    2
  7672  7648  7650   ar
  7673  4749  4747    1
  7674  8173  8171    1
  7675  8173  8175    1
  7676  8192  8170    2
  7677  3281  3282   ar
  7678  3047  3046    1
  7679  3075  3078   ar
  7680  7651  7650   ar
  7681  7651  7652    1
  7682  4731  4732    1
  7683  8170  8172    1
  7684  8170  8191    1
  7685  4777  4775    1
  7686  4777  4787    1
  7687  8171  8172    1
  7688  3056  3057   ar
  7689  4683  4681    1
  7690  7621  7626    1
  7691  3048  3046    1
  7692  3048  3043    1
  7693  6185  6184    1
  7694  4632  4633   ar
  7695  4633  4623    1
  7696  6883  6882    1
  7697  2883  2884   ar
  7698  2883  2882   ar
  7699  4664  4662    1
  7700  4664  4665    1
  7701  6881  6882   ar
  7702  6881  6880   ar
  7703  4801  4802    2
  7704  4801  4803   ar
  7705  6886  6876    1
  7706  6886  6880   ar
  7707  3064  3066    1
  7708  3064  3062    1
  7709  2856  2859   ar
  7710  2856  2857   ar
  7711  4826  4827    2
  7712  4826  4820   ar
  7713  4844  4843   ar
  7714  8177  8178    1
  7715  8177  8175    1
  7716  8208  8207    2
  7717  4738  4739   ar
  7718  4738  4741   ar
  7719  3119  3120   ar
  7720  4739  4740    1
  7721  3114  3115    2
  7722  3114  3113   ar
  7723  2872  2871    1
  7724  3088  3089    1
  7725  6876  6874    1
  7726  6868  6870    1
  7727  4662  4660    1
  7728  3066  3067    1
  7729  6882  6877   ar
  7730  4775  4776    1
  7731  4595  4597    1
  7732  4742  4741   ar
  7733  4601  4599    1
  7734  4601  4602    1
  7735  7600  7598    1
  7736  7600  7602    1
  7737  3046  3044    1
  7738  4821  4820   ar
  7739  4821  4822    1
  7740  6880  6879   ar
  7741  7626  7627    1
  7742  3067  3083    1
  7743  2884  2878   ar
  7744  4597  4599    1
  7745  8207  8206   ar
  7746  8207  8209   ar
  7747  3085  3083    1
  7748  6322  6321    2
  7749  8206  8204   ar
  7750  3284  3283   ar
  7751  3284  3287   ar
  7752  2852  2857   ar
  7753  6179  6184    1
  7754  6179  6178    1
  7755  6177  6176    1
  7756  3079  3078   ar
  7757  4804  4803   ar
  7758  4804  4805    2
  7759  7603  7602    1
  7760  3138  3137    2
  7761  4645  4643    1
  7762  4645  4640    1
  7763  6870  6872    1
  7764  3313  3292    2
  7765  4665  4681    1
  7766  6330  6331    1
  7767  6330  6328    1
  7768  6176  6178    1
  7769  3282  3283   ar
  7770  4787  4781   ar
  7771  4787  4786   ar
  7772  8175  8176    1
  7773  3120  3113   ar
  7774  8205  8204    2
  7775  2882  2879   ar
  7776  3113  3112    1
  7777  8204  8203   ar
  7778  7596  7598    1
  7779  7596  7597    1
  7780  4780  4781   ar
  7781  4780  4779   ar
  7782  8209  8210   ar
  7783  3292  3314    1
  7784  3292  3276    1
  7785  2857  2858    1
  7786  4623  4618    1
  7787  4623  4621    1
  7788  6877  6878   ar
  7789  4599  4600    1
  7790  7598  7599    1
  7791  7634  7627   ar
  7792  7634  7633   ar
  7793  3043  3042    1
  7794  6879  6878   ar
  7795  6346  6327    2
  7796  3283  3289   ar
  7797  7627  7628   ar
  7798  3287  3288   ar
  7799  6184  6182    1
  7800  2889  2888    1
  7801  7602  7604    1
  7802  6329  6328    1
  7803  6329  6327    1
  7804  4781  4782   ar
  7805  4681  4703    2
  7806  4681  4702    1
  7807  4643  4644    1
  7808  4643  4641    1
  7809  8203  8210   ar
  7810  8203  8202    1
  7811  2943  2942   ar
  7812  2943  2944   ar
  7813  3062  3063    1
  7814  6321  6320   ar
  7815  6321  6323   ar
  7816  4786  4785   ar
  7817  3136  3137   ar
  7818  3136  3134   ar
  7819  3291  3270    2
  7820  3137  3139   ar
  7821  2942  2947   ar
  7822  6178  6180    1
  7823  6282  6262    2
  7824  3083  3102    2
  7825  3083  3101    1
  7826  7615  7595    2
  7827  7633  7631   ar
  7828  4779  4778   ar
  7829  3089  3103    1
  7830  4660  4661    1
  7831  4661  4659    1
  7832  8230  8229    2
  7833  2878  2879   ar
  7834  2878  2877   ar
  7835  8197  8202    1
  7836  8197  8196    1
  7837  7628  7629    2
  7838  7628  7630   ar
  7839  3112  3107    1
  7840  3112  3110    1
  7841  4640  4639    1
  7842  8202  8200    1
  7843  6874  6872    1
  7844  6874  6875    1
  7845  4618  4617    1
  7846  6320  6318   ar
  7847  2944  2945   ar
  7848  6323  6324   ar
  7849  6260  6240    2
  7850  3107  3106    1
  7851  6327  6345    1
  7852  6327  6313    1
  7853  4621  4622    1
  7854  4621  4619    1
  7855  6182  6180    1
  7856  6182  6183    1
  7857  8223  8229   ar
  7858  8223  8224   ar
  7859  3044  3042    1
  7860  3044  3045    1
  7861  3288  3289   ar
  7862  2879  2880   ar
  7863  3063  3061    1
  7864  2888  2890    1
  7865  6872  6873    1
  7866  3289  3279    1
  7867  3276  3275    1
  7868  3277  3275    1
  7869  3277  3278    1
  7870  3277  3279    1
  7871  4782  4785   ar
  7872  4782  4783   ar
  7873  8225  8224    1
  7874  2905  2906   ar
  7875  2905  2902   ar
  7876  3135  3134    2
  7877  4635  4614    2
  7878  8229  8228   ar
  7879  3028  3027    1
  7880  8176  8193    1
  7881  7597  7595    1
  7882  3134  3133   ar
  7883  3042  3040    1
  7884  7631  7630   ar
  7885  7631  7632    1
  7886  6326  6307    2
  7887  4641  4639    1
  7888  4641  4642    1
  7889  3174  3173   ar
  7890  3174  3175   ar
  7891  2931  2910    2
  7892  3275  3273    1
  7893  2947  2948    1
  7894  2947  2946   ar
  7895  6306  6284    2
  7896  8224  8226   ar
  7897  4778  4783   ar
  7898  7599  7604    1
  7899  4600  4614    1
  7900  3139  3140   ar
  7901  3105  3103    1
  7902  3105  3104    1
  7903  2904  2903    2
  7904  3173  3178   ar
  7905  2877  2875   ar
  7906  2906  2907   ar
  7907  3045  3061    1
  7908  3158  3157    1
  7909  6283  6262    1
  7910  7604  7614    1
  7911  3122  3103    2
  7912  6180  6181    1
  7913  6305  6284    1
  7914  2945  2946   ar
  7915  2945  2951   ar
  7916  2940  2939    1
  7917  4783  4784    1
  7918  7595  7616    1
  7919  7595  7579    1
  7920  3156  3157   ar
  7921  3156  3154   ar
  7922  8248  8247    1
  7923  6324  6317   ar
  7924  4616  4614    1
  7925  4616  4615    1
  7926  6262  6246    1
  7927  6262  6264    1
  7928  6318  6319    2
  7929  6318  6317   ar
  7930  3103  3121    1
  7931  3155  3154    2
  7932  3279  3274    1
  7933  3272  3270    1
  7934  3272  3271    1
  7935  4680  4659    2
  7936  3270  3253    1
  7937  3270  3290    1
  7938  8228  8227   ar
  7939  8228  8231   ar
  7940  6261  6240    1
  7941  4639  4637    1
  7942  6238  6217    2
  7943  3175  3176   ar
  7944  2946  2949   ar
  7945  4614  4634    1
  7946  4619  4617    1
  7947  4619  4620    1
  7948  6240  6242    1
  7949  6240  6223    1
  7950  4659  4642    1
  7951  4659  4679    1
  7952  6904  6903    1
  7953  8226  8227   ar
  7954  8196  8194    1
  7955  8196  8198    1
  7956  3133  3140   ar
  7957  3133  3132    1
  7958  6325  6307    1
  7959  3157  3159   ar
  7960  2902  2903   ar
  7961  2902  2901   ar
  7962  8212  8193    2
  7963  6873  6889    1
  7964  2880  2881    2
  7965  2880  2874   ar
  7966  6317  6316    1
  7967  4617  4615    1
  7968  6284  6286    1
  7969  6284  6268    1
  7970  8194  8195    1
  7971  3154  3153   ar
  7972  3110  3111    1
  7973  3110  3108    1
  7974  3259  3258    1
  7975  3061  3081    2
  7976  3061  3082    1
  7977  3106  3104    1
  7978  3106  3108    1
  7979  3024  3023    1
  7980  8227  8233   ar
  7981  2903  2897   ar
  7982  8200  8201    1
  7983  8200  8198    1
  7984  8231  8232   ar
  7985  6307  6309    1
  7986  6307  6290    1
  7987  7614  7613   ar
  7988  7614  7608   ar
  7989  6301  6300    2
  7990  8246  8247   ar
  7991  8246  8252   ar
  7992  6241  6242    1
  7993  6241  6243    1
  7994  2951  2941    1
  7995  2951  2950   ar
  7996  8195  8193    1
  7997  6313  6312    1
  7998  8247  8249   ar
  7999  6246  6245    1
  8000  2941  2939    1
  8001  2941  2936    1
  8002  3178  3179    1
  8003  3178  3177   ar
  8004  8193  8211    1
  8005  3255  3254    1
  8006  3027  3029   ar
  8007  3027  3026   ar
  8008  6905  6903   ar
  8009  6905  6906   ar
  8010  6312  6314    1
  8011  6312  6310    1
  8012  2890  2892    1
  8013  2890  2891    1
  8014  4637  4638    1
  8015  3040  3041    1
  8016  3253  3252    1
  8017  2939  2937    1
  8018  6903  6902   ar
  8019  6314  6316    1
  8020  6314  6315    1
  8021  3221  3220    1
  8022  7613  7612   ar
  8023  2875  2874   ar
  8024  2875  2876    1
  8025  3041  3039    1
  8026  6309  6308    1
  8027  6286  6285    1
  8028  6181  6195    1
  8029  7607  7608   ar
  8030  7607  7606   ar
  8031  3029  3030   ar
  8032  3273  3274    1
  8033  3273  3271    1
  8034  2910  2893    1
  8035  2910  2930    1
  8036  2910  2912    1
  8037  7608  7609   ar
  8038  2892  2893    1
  8039  2892  2894    1
  8040  2891  2896    1
  8041  2949  2950   ar
  8042  2907  2901   ar
  8043  2907  2896    1
  8044  3176  3177   ar
  8045  3176  3182   ar
  8046  6264  6263    1
  8047  6239  6217    1
  8048  7579  7578    1
  8049  8253  8252    2
  8050  7581  7580    1
  8051  6225  6224    1
  8052  6908  6889    2
  8053  3197  3196    2
  8054  8232  8233   ar
  8055  6906  6899   ar
  8056  8252  8251   ar
  8057  8233  8222    1
  8058  3108  3109    1
  8059  8249  8250   ar
  8060  6222  6223    1
  8061  6222  6224    1
  8062  6222  6220    1
  8063  3132  3127    1
  8064  3132  3130    1
  8065  6302  6299   ar
  8066  6302  6303   ar
  8067  8198  8199    1
  8068  6217  6219    1
  8069  6217  6201    1
  8070  6300  6299   ar
  8071  6300  6294   ar
  8072  3177  3180   ar
  8073  6902  6900   ar
  8074  4658  4636    2
  8075  6316  6311    1
  8076  4620  4636    1
  8077  3159  3160   ar
  8078  7612  7609   ar
  8079  2901  2900   ar
  8080  7606  7605   ar
  8081  3153  3160   ar
  8082  3153  3152    1
  8083  3127  3126    1
  8084  6243  6245    1
  8085  6243  6244    1
  8086  3026  3032   ar
  8087  3258  3260   ar
  8088  3258  3257   ar
  8089  7609  7610   ar
  8090  6224  6226    1
  8091  6263  6265    1
  8092  6245  6247    1
  8093  6889  6891    1
  8094  6889  6907    1
  8095  6299  6298   ar
  8096  3260  3261   ar
  8097  6926  6925    2
  8098  2936  2935    1
  8099  3023  3025    1
  8100  3023  3021    1
  8101  6268  6267    1
  8102  2897  2898   ar
  8103  6285  6287    1
  8104  6899  6900   ar
  8105  6899  6898    1
  8106  8250  8251   ar
  8107  8250  8256   ar
  8108  8222  8217    1
  8109  8222  8220    1
  8110  6219  6218    1
  8111  6218  6220    1
  8112  2896  2894    1
  8113  8251  8254   ar
  8114  7580  7578    1
  8115  7580  7582    1
  8116  6303  6304   ar
  8117  3182  3172    1
  8118  3182  3181   ar
  8119  3220  3215   ar
  8120  3220  3219   ar
  8121  6900  6901    2
  8122  3172  3170    1
  8123  3172  3167    1
  8124  2912  2911    1
  8125  2911  2913    1
  8126  6290  6289    1
  8127  6308  6310    1
  8128  4638  4636    1
  8129  3196  3198   ar
  8130  3196  3195   ar
  8131  6310  6311    1
  8132  3254  3252    1
  8133  3254  3256    1
  8134  6294  6295   ar
  8135  3252  3250    1
  8136  6893  6898    1
  8137  6893  6892    1
  8138  7605  7610   ar
  8139  3152  3150    1
  8140  3152  3147    1
  8141  3171  3170    1
  8142  6289  6287    1
  8143  6289  6291    1
  8144  7610  7611    1
  8145  4636  4657    1
  8146  3059  3039    2
  8147  7578  7576    1
  8148  3222  3219   ar
  8149  3222  3223   ar
  8150  3039  3022    1
  8151  3039  3060    1
  8152  3025  3036    1
  8153  3025  3020    1
  8154  3030  3036   ar
  8155  3030  3031   ar
  8156  2894  2895    1
  8157  2937  2938    1
  8158  2937  2935    1
  8159  8271  8270    2
  8160  6220  6221    1
  8161  6919  6925   ar
  8162  6919  6920   ar
  8163  3194  3195    1
  8164  3194  3189    1
  8165  3194  3192    1
  8166  3198  3199   ar
  8167  3193  3192    1
  8168  3180  3181   ar
  8169  3022  3021    1
  8170  6891  6890    1
  8171  8217  8216    1
  8172  6898  6896    1
  8173  6925  6924   ar
  8174  3215  3216   ar
  8175  6195  6215    2
  8176  6195  6197    1
  8177  6195  6216    1
  8178  6201  6200    1
  8179  6267  6265    1
  8180  6267  6269    1
  8181  2938  2954    1
  8182  3257  3263   ar
  8183  3219  3218   ar
  8184  2935  2933    1
  8185  8256  8245    1
  8186  8256  8255   ar
  8187  6298  6304   ar
  8188  6298  6297   ar
  8189  8254  8255   ar
  8190  3130  3131    1
  8191  3130  3128    1
  8192  3195  3202   ar
  8193  3109  3123    1
  8194  8199  8213    1
  8195  3256  3267    1
  8196  3256  3251    1
  8197  3170  3168    1
  8198  3151  3150    1
  8199  3167  3166    1
  8200  6304  6293    1
  8201  2900  2898   ar
  8202  3189  3188    1
  8203  2921  2922   ar
  8204  2921  2920   ar
  8205  6287  6288    1
  8206  6921  6920    1
  8207  6265  6266    1
  8208  8245  8240    1
  8209  8245  8243    1
  8210  3150  3148    1
  8211  2898  2899    1
  8212  8270  8272   ar
  8213  8270  8269   ar
  8214  3036  3035   ar
  8215  3032  3031   ar
  8216  3032  3033    2
  8217  6295  6297   ar
  8218  6295  6296    1
  8219  3261  3267   ar
  8220  3261  3262   ar
  8221  3021  3019    1
  8222  6197  6196    1
  8223  6244  6249    1
  8224  3126  3124    1
  8225  3126  3128    1
  8226  6920  6922   ar
  8227  2973  2954    2
  8228  3147  3146    1
  8229  8220  8221    1
  8230  8220  8218    1
  8231  6890  6892    1
  8232  7585  7584   ar
  8233  7585  7586   ar
  8234  8268  8269    1
  8235  8268  8263    1
  8236  8268  8266    1
  8237  6247  6248    1
  8238  6247  6249    1
  8239  8272  8273   ar
  8240  7584  7583   ar
  8241  3125  3124    1
  8242  3125  3123    1
  8243  3192  3190    1
  8244  2972  2954    1
  8245  2922  2923   ar
  8246  6226  6221    1
  8247  6226  6237    1
  8248  3223  3224   ar
  8249  6291  6293    1
  8250  6291  6292    1
  8251  3250  3251    1
  8252  3250  3248    1
  8253  2913  2914    1
  8254  2913  2915    1
  8255  3020  3019    1
  8256  3031  3034   ar
  8257  8267  8266    1
  8258  2914  2919    1
  8259  3199  3200    2
  8260  3199  3201   ar
  8261  2920  2925   ar
  8262  7594  7573    2
  8263  6892  6894    1
  8264  6288  6293    1
  8265  8269  8276   ar
  8266  7582  7592    1
  8267  7582  7577    1
  8268  6236  6237   ar
  8269  6236  6235   ar
  8270  2954  2956    1
  8271  3267  3266   ar
  8272  6924  6927   ar
  8273  6924  6923   ar
  8274  3019  3017    1
  8275  8244  8243    1
  8276  3142  3123    2
  8277  8263  8262    1
  8278  8215  8213    1
  8279  8215  8214    1
  8280  7576  7577    1
  8281  7576  7574    1
  8282  8240  8239    1
  8283  6200  6202    1
  8284  6200  6198    1
  8285  3128  3129    1
  8286  3202  3201   ar
  8287  3216  3217   ar
  8288  7583  7588   ar
  8289  7586  7592   ar
  8290  7586  7587   ar
  8291  3011  3010    1
  8292  3123  3141    1
  8293  3218  3224   ar
  8294  3218  3217   ar
  8295  8243  8241    1
  8296  8273  8274    2
  8297  8273  8275   ar
  8298  3263  3262   ar
  8299  3263  3264    2
  8300  6944  6943    1
  8301  7592  7591   ar
  8302  8235  8213    2
  8303  2990  2989    1
  8304  6927  6928   ar
  8305  3188  3190    1
  8306  3188  3186    1
  8307  6280  6279   ar
  8308  6280  6281   ar
  8309  3009  3010   ar
  8310  3009  3007   ar
  8311  6237  6231   ar
  8312  8213  8234    1
  8313  6249  6259    1
  8314  6266  6271    1
  8315  8216  8218    1
  8316  8216  8214    1
  8317  6922  6923   ar
  8318  8266  8264    1
  8319  6258  6259   ar
  8320  6258  6257   ar
  8321  3166  3168    1
  8322  3166  3164    1
  8323  3262  3265   ar
  8324  8276  8275   ar
  8325  6269  6271    1
  8326  6269  6270    1
  8327  6896  6894    1
  8328  6896  6897    1
  8329  2933  2934    1
  8330  6923  6929   ar
  8331  3008  3007    2
  8332  3224  3214    1
  8333  6279  6276   ar
  8334  7588  7587   ar
  8335  7588  7589    1
  8336  6942  6943   ar
  8337  6942  6948   ar
  8338  3168  3169    1
  8339  6196  6198    1
  8340  6235  6232   ar
  8341  7587  7590   ar
  8342  3035  3034   ar
  8343  2934  2932    1
  8344  8218  8219    1
  8345  2923  2924   ar
  8346  2923  2929   ar
  8347  7575  7574    1
  8348  7575  7573    1
  8349  3148  3146    1
  8350  3148  3149    1
  8351  6259  6253   ar
  8352  6894  6895    1
  8353  6949  6948    2
  8354  3248  3249    1
  8355  2925  2924   ar
  8356  2925  2926    1
  8357  7591  7590   ar
  8358  3190  3191    1
  8359  3146  3144    1
  8360  3010  3012   ar
  8361  6202  6203    1
  8362  6202  6204    1
  8363  6257  6254   ar
  8364  7573  7593    1
  8365  7573  7556    1
  8366  6198  6199    1
  8367  8262  8264    1
  8368  8262  8260    1
  8369  2915  2916    1
  8370  2915  2917    1
  8371  3007  3006   ar
  8372  6943  6945   ar
  8373  3266  3265   ar
  8374  2919  2929    1
  8375  2919  2917    1
  8376  6281  6271    1
  8377  6281  6275   ar
  8378  6928  6929   ar
  8379  3186  3187    1
  8380  3209  3214    1
  8381  3209  3208    1
  8382  6929  6918    1
  8383  3017  3018    1
  8384  6948  6947   ar
  8385  2924  2927   ar
  8386  8239  8241    1
  8387  8239  8237    1
  8388  2929  2928   ar
  8389  2956  2955    1
  8390  3129  3143    1
  8391  3249  3247    1
  8392  2916  2932    1
  8393  3169  3185    1
  8394  3164  3165    1
  8395  3191  3205    1
  8396  6231  6232   ar
  8397  6231  6230   ar
  8398  8283  8282    1
  8399  8283  8288    1
  8400  2989  2984   ar
  8401  2989  2988   ar
  8402  8241  8242    1
  8403  6276  6275   ar
  8404  6276  6277   ar
  8405  3145  3144    1
  8406  3145  3143    1
  8407  8264  8265    1
  8408  6253  6254   ar
  8409  6253  6252   ar
  8410  3214  3212    1
  8411  6213  6212   ar
  8412  6213  6214   ar
  8413  6232  6233   ar
  8414  3187  3185    1
  8415  3149  3163    1
  8416  6254  6255   ar
  8417  3162  3143    2
  8418  8280  8282    1
  8419  8280  8281    1
  8420  8291  8290    1
  8421  6275  6274   ar
  8422  2955  2957    1
  8423  8310  8309    1
  8424  8282  8284    1
  8425  3165  3163    1
  8426  2932  2952    2
  8427  2932  2953    1
  8428  8260  8261    1
  8429  2984  2985   ar
  8430  2917  2918    1
  8431  3206  3208    1
  8432  3206  3207    1
  8433  6212  6209   ar
  8434  8219  8236    1
  8435  7556  7555    1
  8436  6278  6277    1
  8437  6895  6909    1
  8438  3018  3016    1
  8439  6918  6913    1
  8440  6918  6916    1
  8441  2970  2971   ar
  8442  2970  2968   ar
  8443  8238  8237    1
  8444  8238  8236    1
  8445  3143  3161    1
  8446  6204  6199    1
  8447  6204  6214    1
  8448  6945  6946   ar
  8449  6913  6912    1
  8450  6277  6272   ar
  8451  8292  8290   ar
  8452  8292  8293   ar
  8453  8290  8289   ar
  8454  6252  6251   ar
  8455  8265  8279    1
  8456  3012  3013   ar
  8457  6214  6208   ar
  8458  2928  2927   ar
  8459  6230  6228   ar
  8460  6965  6966   ar
  8461  6965  6970   ar
  8462  3208  3210    1
  8463  2991  2988   ar
  8464  2991  2992   ar
  8465  3006  3013   ar
  8466  3006  3005    1
  8467  6971  6970    1
  8468  8258  8236    2
  8469  6931  6909    2
  8470  8261  8259    1
  8471  2988  2987   ar
  8472  8242  8259    1
  8473  8288  8299    1
  8474  8288  8286    1
  8475  8311  8306    1
  8476  8311  8309    1
  8477  8311  8312    1
  8478  6947  6946   ar
  8479  6947  6950   ar
  8480  3185  3204    2
  8481  3185  3203    1
  8482  8306  8305    1
  8483  2995  2974    2
  8484  6255  6256    1
  8485  6255  6250   ar
  8486  2971  2964   ar
  8487  8289  8295   ar
  8488  2969  2968    1
  8489  8293  8299   ar
  8490  8293  8294   ar
  8491  3163  3184    2
  8492  3163  3183    1
  8493  6966  6967   ar
  8494  8236  8257    1
  8495  8299  8298   ar
  8496  6274  6273   ar
  8497  8314  8313    2
  8498  6209  6208   ar
  8499  6209  6210   ar
  8500  6970  6969   ar
  8501  3212  3210    1
  8502  3212  3213    1
  8503  3207  3205    1
  8504  6233  6234    2
  8505  6233  6227   ar
  8506  6946  6952   ar
  8507  7558  7557    1
  8508  3205  3226    2
  8509  3205  3225    1
  8510  8309  8307    1
  8511  3247  3233    1
  8512  3247  3269    2
  8513  3247  3268    1
  8514  3003  3005    1
  8515  3003  3004    1
  8516  3003  3001    1
  8517  6251  6250   ar
  8518  6208  6207   ar
  8519  2968  2967   ar
  8520  6909  6911    1
  8521  6909  6930    1
  8522  8281  8279    1
  8523  8294  8295   ar
  8524  8294  8297   ar
  8525  8295  8296    2
  8526  6272  6273   ar
  8527  3005  3000    1
  8528  2985  2986   ar
  8529  8284  8285    1
  8530  8284  8286    1
  8531  2957  2958    1
  8532  2957  2959    1
  8533  8312  8313   ar
  8534  8312  8319   ar
  8535  8298  8297   ar
  8536  8313  8315   ar
  8537  7555  7557    1
  8538  7555  7553    1
  8539  3233  3232    1
  8540  8285  8302    1
  8541  2958  2963    1
  8542  8259  8278    2
  8543  8259  8277    1
  8544  6211  6210    1
  8545  6911  6910    1
  8546  6228  6227   ar
  8547  6228  6229    1
  8548  6916  6917    1
  8549  6916  6914    1
  8550  7557  7559    1
  8551  6210  6205   ar
  8552  3210  3211    1
  8553  6950  6951   ar
  8554  8279  8301    2
  8555  8279  8300    1
  8556  8305  8307    1
  8557  8305  8303    1
  8558  6912  6910    1
  8559  6912  6914    1
  8560  3016  3037    2
  8561  3016  3038    1
  8562  3016  3002    1
  8563  6967  6968   ar
  8564  6988  6987   ar
  8565  6988  6989   ar
  8566  2992  2993   ar
  8567  6969  6968   ar
  8568  6969  6972   ar
  8569  2987  2986   ar
  8570  2987  2993   ar
  8571  8286  8287    1
  8572  8319  8318   ar
  8573  6987  6992   ar
  8574  6207  6206   ar
  8575  2964  2963    1
  8576  2964  2965   ar
  8577  2959  2960    1
  8578  2959  2961    1
  8579  2974  2960    1
  8580  2974  2994    1
  8581  2974  2976    1
  8582  8315  8316   ar
  8583  8307  8308    1
  8584  3001  3002    1
  8585  3001  2999    1
  8586  6968  6974   ar
  8587  6952  6951   ar
  8588  6952  6941    1
  8589  6989  6990   ar
  8590  7553  7551    1
  8591  7553  7554    1
  8592  6914  6915    1
  8593  6205  6206   ar
  8594  3211  3227    1
  8595  2967  2965   ar
  8596  2963  2961    1
  8597  6972  6973   ar
  8598  8308  8322    1
  8599  2993  2983    1
  8600  8318  8316   ar
  8601  3232  3230    1
  8602  3232  3234    1
  8603  3000  2999    1
  8604  8316  8317    2
  8605  8304  8303    1
  8606  8304  8302    1
  8607  7551  7552    1
  8608  7007  7006    1
  8609  8302  8320    2
  8610  8302  8321    1
  8611  6992  6993    1
  8612  6992  6991   ar
  8613  2965  2966    2
  8614  2976  2975    1
  8615  6936  6941    1
  8616  6936  6935    1
  8617  6941  6939    1
  8618  6974  6973   ar
  8619  6974  6964    1
  8620  7559  7554    1
  8621  7559  7570    1
  8622  6990  6991   ar
  8623  6990  6996   ar
  8624  7562  7561    1
  8625  7011  7010    2
  8626  2961  2962    1
  8627  3235  3234    1
  8628  2999  2997    1
  8629  3228  3230    1
  8630  3228  3229    1
  8631  7563  7561   ar
  8632  7563  7564   ar
  8633  8330  8329    1
  8634  8326  8331    1
  8635  8326  8325    1
  8636  3230  3231    1
  8637  7571  7550    2
  8638  6991  6994   ar
  8639  8331  8329    1
  8640  8331  8342    1
  8641  3015  2996    2
  8642  7561  7560   ar
  8643  7552  7550    1
  8644  3234  3236    1
  8645  6964  6959    1
  8646  6964  6962    1
  8647  6915  6932    1
  8648  7008  7006    1
  8649  7008  7003    1
  8650  7008  7009    1
  8651  6985  6984    1
  8652  2998  2997    1
  8653  2998  2996    1
  8654  7570  7564   ar
  8655  7570  7569   ar
  8656  6986  6996    1
  8657  6986  6984    1
  8658  6986  6981    1
  8659  6996  6995   ar
  8660  7564  7565   ar
  8661  7010  7009   ar
  8662  7010  7012   ar
  8663  7006  7004    1
  8664  3227  3229    1
  8665  3227  3245    2
  8666  3227  3246    1
  8667  2983  2978    1
  8668  2983  2981    1
  8669  8322  8343    2
  8670  8322  8344    1
  8671  8322  8324    1
  8672  8325  8323    1
  8673  8325  8327    1
  8674  7003  7002    1
  8675  6984  6982    1
  8676  6935  6933    1
  8677  6935  6937    1
  8678  8329  8327    1
  8679  7560  7566   ar
  8680  8342  8341   ar
  8681  8342  8336   ar
  8682  7023  7022    1
  8683  7023  7028    1
  8684  2975  2977    1
  8685  7550  7572    1
  8686  7550  7536    1
  8687  7009  7016   ar
  8688  6959  6958    1
  8689  6994  6995   ar
  8690  2978  2977    1
  8691  2979  2981    1
  8692  2979  2977    1
  8693  2979  2980    1
  8694  7569  7568   ar
  8695  6934  6933    1
  8696  6934  6932    1
  8697  2981  2982    1
  8698  6939  6940    1
  8699  6939  6937    1
  8700  8335  8336   ar
  8701  8335  8333   ar
  8702  7012  7013   ar
  8703  2996  2980    1
  8704  2996  3014    1
  8705  7565  7566   ar
  8706  7565  7568   ar
  8707  6963  6962    1
  8708  7002  7004    1
  8709  7002  7000    1
  8710  6962  6960    1
  8711  8341  8340   ar
  8712  8323  8324    1
  8713  8336  8337   ar
  8714  3231  3236    1
  8715  6981  6980    1
  8716  3236  3237    1
  8717  6954  6932    2
  8718  7022  7020    1
  8719  7022  7024    1
  8720  7566  7567    2
  8721  6932  6953    1
  8722  7020  7021    1
  8723  8334  8333    1
  8724  7028  7038    1
  8725  7028  7026    1
  8726  8333  8332   ar
  8727  8327  8328    1
  8728  7004  7005    1
  8729  7027  7026    1
  8730  7005  7019    1
  8731  6937  6938    1
  8732  7016  7015   ar
  8733  8340  8337   ar
  8734  8337  8338   ar
  8735  8328  8345    1
  8736  7013  7015   ar
  8737  7013  7014    1
  8738  6938  6955    1
  8739  7536  7535    1
  8740  6982  6980    1
  8741  6982  6983    1
  8742  7038  7037   ar
  8743  7038  7032   ar
  8744  7000  7001    1
  8745  8332  8338   ar
  8746  3239  3238    2
  8747  6958  6960    1
  8748  6958  6956    1
  8749  6980  6978    1
  8750  8338  8339    2
  8751  7026  7024    1
  8752  7538  7537    1
  8753  7037  7036   ar
  8754  6960  6961    1
  8755  7031  7032   ar
  8756  7031  7030   ar
  8757  3237  3238   ar
  8758  3237  3244   ar
  8759  7032  7033   ar
  8760  7024  7025    1
  8761  7021  7019    1
  8762  6983  6999    1
  8763  3238  3240   ar
  8764  6957  6956    1
  8765  6957  6955    1
  8766  7019  7039    2
  8767  7019  7040    1
  8768  7036  7033   ar
  8769  7030  7029   ar
  8770  7537  7535    1
  8771  7537  7539    1
  8772  7025  7041    1
  8773  7001  6999    1
  8774  7033  7034   ar
  8775  7535  7533    1
  8776  6976  6955    2
  8777  6955  6975    1
  8778  3244  3243   ar
  8779  8345  8355    2
  8780  8345  8356    1
  8781  8345  8347    1
  8782  6961  6977    1
  8783  6978  6979    1
  8784  7029  7034   ar
  8785  7034  7035    1
  8786  6979  6977    1
  8787  7542  7541    2
  8788  6999  7017    2
  8789  6999  7018    1
  8790  3240  3241   ar
  8791  7042  7043    1
  8792  7042  7044    1
  8793  7045  7044    1
  8794  7045  7050    1
  8795  8347  8346    1
  8796  7541  7543   ar
  8797  7541  7540   ar
  8798  7043  7041    1
  8799  7061  7041    2
  8800  7041  7062    1
  8801  7539  7540    1
  8802  7539  7534    1
  8803  7533  7531    1
  8804  7533  7534    1
  8805  3243  3241   ar
  8806  6977  6998    2
  8807  6977  6997    1
  8808  7543  7544   ar
  8809  8353  8352    1
  8810  7044  7046    1
  8811  7540  7547   ar
  8812  8348  8346    1
  8813  8348  8349    1
  8814  8348  8350    1
  8815  8351  8350    1
  8816  3241  3242    2
  8817  7544  7545    2
  8818  7544  7546   ar
  8819  7059  7060   ar
  8820  7059  7058   ar
  8821  7531  7532    1
  8822  7050  7060    1
  8823  7050  7048    1
  8824  8349  8354    1
  8825  7547  7546   ar
  8826  7532  7530    1
  8827  7549  7530    2
  8828  7060  7054   ar
  8829  7058  7055   ar
  8830  8350  8352    1
  8831  8354  8352    1
  8832  7548  7530    1
  8833  7530  7516    1
  8834  7054  7055   ar
  8835  7054  7053   ar
  8836  7055  7056   ar
  8837  7046  7048    1
  8838  7046  7047    1
  8839  7048  7049    1
  8840  7053  7052   ar
  8841  7056  7057    1
  8842  7056  7051   ar
  8843  7047  7063    1
  8844  7052  7051   ar
  8845  7516  7515    1
  8846  7518  7517    1
  8847  7517  7515    1
  8848  7517  7519    1
  8849  7525  7524    2
  8850  7515  7513    1
  8851  7523  7524   ar
  8852  7523  7521   ar
  8853  7524  7526   ar
  8854  7063  7065    1
  8855  7063  7084    2
  8856  7063  7085    1
  8857  7522  7521    2
  8858  7521  7520   ar
  8859  7526  7527   ar
  8860  7065  7064    1
  8861  7529  7510    2
  8862  7520  7527   ar
  8863  7520  7519    1
  8864  7519  7514    1
  8865  7067  7072    1
  8866  7067  7066    1
  8867  7082  7081   ar
  8868  7082  7083   ar
  8869  7081  7078   ar
  8870  7512  7510    1
  8871  7512  7511    1
  8872  7064  7066    1
  8873  7513  7514    1
  8874  7513  7511    1
  8875  7083  7072    1
  8876  7083  7077   ar
  8877  7510  7528    1
  8878  7510  7496    1
  8879  7072  7070    1
  8880  7066  7068    1
  8881  7078  7077   ar
  8882  7078  7079   ar
  8883  7080  7079    2
  8884  7077  7076   ar
  8885  7505  7504    1
  8886  7466  7445    2
  8887  7079  7073   ar
  8888  7509  7490    2
  8889  7489  7467    2
  8890  7076  7074   ar
  8891  7465  7445    1
  8892  7073  7074   ar
  8893  7504  7506   ar
  8894  7504  7503   ar
  8895  7074  7075    1
  8896  7506  7507   ar
  8897  7443  7423    2
  8898  7070  7068    1
  8899  7070  7071    1
  8900  7068  7069    1
  8901  7445  7429    1
  8902  7445  7447    1
  8903  7496  7495    1
  8904  7488  7467    1
  8905  7444  7423    1
  8906  7503  7501   ar
  8907  7467  7469    1
  8908  7467  7451    1
  8909  7490  7508    1
  8910  7490  7492    1
  8911  7490  7473    1
  8912  7431  7430    1
  8913  7507  7500   ar
  8914  7495  7497    1
  8915  7495  7493    1
  8916  7101  7100    2
  8917  7492  7491    1
  8918  7423  7425    1
  8919  7423  7409    1
  8920  7446  7447    1
  8921  7446  7448    1
  8922  7497  7498    1
  8923  7497  7499    1
  8924  7501  7500   ar
  8925  7501  7502    2
  8926  7069  7086    1
  8927  7428  7430    1
  8928  7428  7429    1
  8929  7428  7426    1
  8930  7421  7403    2
  8931  7430  7432    1
  8932  7500  7499    1
  8933  7100  7102   ar
  8934  7100  7099   ar
  8935  7469  7468    1
  8936  7425  7424    1
  8937  7102  7103   ar
  8938  7105  7086    2
  8939  7451  7450    1
  8940  7484  7483    2
  8941  7485  7486   ar
  8942  7485  7482   ar
  8943  7473  7472    1
  8944  7499  7494    1
  8945  7099  7097   ar
  8946  7491  7493    1
  8947  7493  7494    1
  8948  7103  7096   ar
  8949  7448  7450    1
  8950  7448  7449    1
  8951  7409  7408    1
  8952  7424  7426    1
  8953  7086  7088    1
  8954  7086  7104    1
  8955  7450  7452    1
  8956  7426  7427    1
  8957  7486  7487   ar
  8958  7403  7422    1
  8959  7403  7405    1
  8960  7403  7389    1
  8961  7472  7470    1
  8962  7472  7474    1
  8963  7483  7482   ar
  8964  7483  7477   ar
  8965  7468  7470    1
  8966  7441  7442   ar
  8967  7441  7440   ar
  8968  7482  7481   ar
  8969  7432  7442    1
  8970  7432  7427    1
  8971  7097  7096   ar
  8972  7097  7098    2
  8973  7404  7405    1
  8974  7404  7406    1
  8975  7096  7095    1
  8976  7401  7383    2
  8977  7088  7087    1
  8978  7090  7095    1
  8979  7090  7089    1
  8980  7442  7436   ar
  8981  7440  7437   ar
  8982  7408  7406    1
  8983  7408  7410    1
  8984  7470  7471    1
  8985  7449  7454    1
  8986  7477  7478   ar
  8987  7487  7481   ar
  8988  7487  7476    1
  8989  7095  7093    1
  8990  7474  7476    1
  8991  7474  7475    1
  8992  7389  7388    1
  8993  7481  7480   ar
  8994  7087  7089    1
  8995  7406  7407    1
  8996  7463  7462   ar
  8997  7463  7464   ar
  8998  7452  7453    1
  8999  7452  7454    1
  9000  7436  7437   ar
  9001  7436  7435   ar
  9002  7437  7438   ar
  9003  7089  7091    1
  9004  7462  7459   ar
  9005  7383  7402    1
  9006  7383  7385    1
  9007  7383  7369    1
  9008  7476  7471    1
  9009  7478  7480   ar
  9010  7478  7479    1
  9011  7454  7464    1
  9012  7410  7411    1
  9013  7410  7412    1
  9014  7435  7434   ar
  9015  7464  7458   ar
  9016  7438  7439    1
  9017  7438  7433   ar
  9018  7388  7386    1
  9019  7388  7390    1
  9020  7385  7384    1
  9021  7407  7412    1
  9022  7384  7386    1
  9023  7093  7091    1
  9024  7093  7094    1
  9025  7420  7419   ar
  9026  7420  7413   ar
  9027  7091  7092    1
  9028  7369  7368    1
  9029  7434  7433   ar
  9030  7419  7417   ar
  9031  7459  7458   ar
  9032  7459  7460   ar
  9033  7386  7387    1
  9034  7412  7413    1
  9035  7458  7457   ar
  9036  7413  7414   ar
  9037  7390  7391    1
  9038  7390  7392    1
  9039  7381  7363    2
  9040  7417  7418    2
  9041  7417  7416   ar
  9042  7461  7460    1
  9043  7460  7455   ar
  9044  7092  7106    1
  9045  7414  7416   ar
  9046  7414  7415    2
  9047  7368  7366    1
  9048  7368  7370    1
  9049  7457  7456   ar
  9050  7364  7366    1
  9051  7364  7365    1
  9052  7122  7121    1
  9053  7127  7106    2
  9054  7387  7392    1
  9055  7366  7367    1
  9056  7392  7393    1
  9057  7363  7365    1
  9058  7363  7382    1
  9059  7363  7346    1
  9060  7455  7456   ar
  9061  7400  7393   ar
  9062  7400  7399   ar
  9063  7371  7370    1
  9064  7106  7108    1
  9065  7106  7126    1
  9066  7370  7372    1
  9067  7121  7120   ar
  9068  7121  7116   ar
  9069  7393  7394   ar
  9070  7123  7120   ar
  9071  7123  7124   ar
  9072  7399  7397   ar
  9073  7120  7119   ar
  9074  7108  7107    1
  9075  7116  7117   ar
  9076  7346  7345    1
  9077  7394  7395    2
  9078  7394  7396   ar
  9079  7143  7142    2
  9080  7107  7109    1
  9081  7367  7372    1
  9082  7124  7125   ar
  9083  7397  7396   ar
  9084  7397  7398    1
  9085  7372  7373    1
  9086  7119  7125   ar
  9087  7119  7118   ar
  9088  7117  7118   ar
  9089  7380  7373   ar
  9090  7380  7379   ar
  9091  7125  7115    1
  9092  7373  7374   ar
  9093  7160  7159    1
  9094  7142  7141   ar
  9095  7142  7144   ar
  9096  7348  7347    1
  9097  7345  7347    1
  9098  7345  7343    1
  9099  7379  7377   ar
  9100  7361  7340    2
  9101  7109  7110    1
  9102  7109  7111    1
  9103  7158  7159   ar
  9104  7158  7164   ar
  9105  7141  7139   ar
  9106  7159  7161   ar
  9107  7110  7115    1
  9108  7347  7349    1
  9109  7374  7375    2
  9110  7374  7376   ar
  9111  7165  7164    2
  9112  7164  7163   ar
  9113  7113  7115    1
  9114  7113  7111    1
  9115  7113  7114    1
  9116  7343  7341    1
  9117  7343  7344    1
  9118  7161  7162   ar
  9119  7377  7376   ar
  9120  7377  7378    1
  9121  7144  7145   ar
  9122  7341  7342    1
  9123  7342  7340    1
  9124  7111  7112    1
  9125  7183  7182    1
  9126  7340  7362    1
  9127  7340  7326    1
  9128  7163  7162   ar
  9129  7163  7166   ar
  9130  7162  7168   ar
  9131  7139  7140    2
  9132  7139  7138   ar
  9133  7182  7181   ar
  9134  7182  7184   ar
  9135  7166  7167   ar
  9136  7181  7187   ar
  9137  7168  7157    1
  9138  7168  7167   ar
  9139  7349  7344    1
  9140  7349  7360    1
  9141  7157  7152    1
  9142  7157  7155    1
  9143  7145  7138   ar
  9144  7184  7185   ar
  9145  7152  7151    1
  9146  7112  7128    1
  9147  7187  7188    2
  9148  7187  7186   ar
  9149  7138  7137    1
  9150  7353  7354   ar
  9151  7353  7351   ar
  9152  7146  7128    2
  9153  7326  7325    1
  9154  7360  7354   ar
  9155  7360  7359   ar
  9156  7352  7351    1
  9157  7185  7186   ar
  9158  7185  7191   ar
  9159  7156  7155    1
  9160  7354  7355   ar
  9161  7351  7350   ar
  9162  7186  7189   ar
  9163  7359  7358   ar
  9164  7206  7205    2
  9165  7155  7153    1
  9166  7179  7178    1
  9167  7128  7130    1
  9168  7128  7147    1
  9169  7191  7180    1
  9170  7191  7190   ar
  9171  7355  7358   ar
  9172  7355  7356   ar
  9173  7180  7178    1
  9174  7180  7175    1
  9175  7350  7356   ar
  9176  7189  7190   ar
  9177  7151  7149    1
  9178  7151  7153    1
  9179  7356  7357    2
  9180  7325  7327    1
  9181  7325  7323    1
  9182  7130  7129    1
  9183  7137  7132    1
  9184  7137  7135    1
  9185  7132  7131    1
  9186  7205  7207   ar
  9187  7205  7204   ar
  9188  7178  7176    1
  9189  7207  7208   ar
  9190  7175  7174    1
  9191  7129  7131    1
  9192  7328  7327    1
  9193  7149  7150    1
  9194  7150  7148    1
  9195  7153  7154    1
  9196  7202  7201    1
  9197  7203  7198    1
  9198  7203  7204    1
  9199  7203  7201    1
  9200  7327  7329    1
  9201  7135  7133    1
  9202  7135  7136    1
  9203  7133  7131    1
  9204  7133  7134    1
  9205  7198  7197    1
  9206  7204  7211   ar
  9207  7321  7323    1
  9208  7321  7322    1
  9209  7323  7324    1
  9210  7208  7209    1
  9211  7208  7210   ar
  9212  7174  7176    1
  9213  7174  7172    1
  9214  7201  7199    1
  9215  7154  7171    1
  9216  7176  7177    1
  9217  7322  7320    1
  9218  7170  7148    2
  9219  7211  7210   ar
  9220  7197  7199    1
  9221  7197  7195    1
  9222  7134  7148    1
  9223  7148  7169    1
  9224  7226  7225    1
  9225  7177  7194    1
  9226  7218  7223    1
  9227  7218  7217    1
  9228  7329  7324    1
  9229  7329  7330    1
  9230  7173  7172    1
  9231  7173  7171    1
  9232  7227  7225   ar
  9233  7227  7228   ar
  9234  7225  7224   ar
  9235  7223  7234    1
  9236  7223  7221    1
  9237  7337  7330   ar
  9238  7337  7336   ar
  9239  7196  7195    1
  9240  7196  7194    1
  9241  7199  7200    1
  9242  7330  7331   ar
  9243  7171  7193    2
  9244  7171  7192    1
  9245  7228  7234   ar
  9246  7228  7229   ar
  9247  7234  7233   ar
  9248  7336  7334   ar
  9249  7224  7230   ar
  9250  7217  7215    1
  9251  7217  7219    1
  9252  7222  7221    1
  9253  7320  7338    2
  9254  7320  7339    1
  9255  7320  7303    1
  9256  7305  7304    1
  9257  7194  7212    2
  9258  7194  7213    1
  9259  7331  7332    2
  9260  7331  7333   ar
  9261  7215  7216    1
  9262  7229  7230   ar
  9263  7229  7232   ar
  9264  7200  7214    1
  9265  7230  7231    2
  9266  7233  7232   ar
  9267  7221  7219    1
  9268  7334  7333   ar
  9269  7334  7335    1
  9270  7303  7302    1
  9271  7304  7302    1
  9272  7304  7306    1
  9273  7219  7220    1
  9274  7216  7214    1
  9275  7272  7271    2
  9276  7302  7300    1
  9277  7214  7236    2
  9278  7214  7235    1
  9279  7220  7237    1
  9280  7270  7271   ar
  9281  7270  7268   ar
  9282  7306  7317    1
  9283  7306  7301    1
  9284  7316  7317   ar
  9285  7316  7315   ar
  9286  7317  7311   ar
  9287  7271  7273   ar
  9288  7241  7246    1
  9289  7241  7240    1
  9290  7269  7268    2
  9291  7315  7312   ar
  9292  7246  7247    1
  9293  7246  7244    1
  9294  7311  7312   ar
  9295  7311  7310   ar
  9296  7249  7248    2
  9297  7312  7313   ar
  9298  7245  7244    1
  9299  7268  7267   ar
  9300  7310  7308   ar
  9301  7300  7301    1
  9302  7300  7298    1
  9303  7247  7248   ar
  9304  7247  7254   ar
  9305  7248  7250   ar
  9306  7313  7314    2
  9307  7313  7307   ar
  9308  7239  7237    1
  9309  7239  7238    1
  9310  7308  7307   ar
  9311  7308  7309    1
  9312  7237  7255    2
  9313  7237  7256    1
  9314  7254  7253   ar
  9315  7250  7251   ar
  9316  7240  7238    1
  9317  7240  7242    1
  9318  7244  7242    1
  9319  7273  7274   ar
  9320  7253  7251   ar
  9321  7251  7252    2
  9322  7298  7299    1
  9323  7267  7274   ar
  9324  7267  7266    1
  9325  7242  7243    1
  9326  7264  7265    1
  9327  7264  7266    1
  9328  7264  7262    1
  9329  7243  7257    1
  9330  7299  7297    1
  9331  7266  7261    1
  9332  7262  7263    1
  9333  7262  7260    1
  9334  7263  7277    1
  9335  7281  7280    1
  9336  7281  7286    1
  9337  7279  7278    1
  9338  7279  7277    1
  9339  7261  7260    1
  9340  7297  7319    2
  9341  7297  7318    1
  9342  7297  7283    1
  9343  7257  7275    2
  9344  7257  7259    1
  9345  7257  7276    1
  9346  7280  7278    1
  9347  7280  7282    1
  9348  7294  7293   ar
  9349  7294  7287   ar
  9350  7259  7258    1
  9351  7260  7258    1
  9352  7286  7287    1
  9353  7286  7284    1
  9354  7293  7291   ar
  9355  7287  7288   ar
  9356  7291  7292    1
  9357  7291  7290   ar
  9358  7288  7290   ar
  9359  7288  7289    2
  9360  7277  7295    2
  9361  7277  7296    1
  9362  7283  7282    1
  9363  7282  7284    1
  9364  7284  7285    1
