ligand
 OpenBabel11021811503D
libRbt.so/2013.1/901 2013/11/27
 11 12  0  0  0  0  0  0  0  0999 V2000
    3.6800  -19.6785   25.9221 N   0  0  0  0  0  0  0  0  0  0  0  0
    3.3548  -19.3302   27.1915 C   0  0  0  0  0  0  0  0  0  0  0  0
    4.3128  -18.6942   28.0456 N   0  0  0  0  0  0  0  0  0  0  0  0
    2.1267  -19.5793   27.6800 N   0  0  0  0  0  0  0  0  0  0  0  0
    1.1614  -20.1874   26.9093 C   0  0  0  0  0  0  0  0  0  0  0  0
    1.4665  -20.5560   25.6118 C   0  0  0  0  0  0  0  0  0  0  0  0
    2.7782  -20.2854   25.1199 C   0  0  0  0  0  0  0  0  0  0  0  0
    3.1285  -20.6553   23.7826 N   0  0  0  0  0  0  0  0  0  0  0  0
    0.3284  -21.1381   25.0868 N   0  0  0  0  0  0  0  0  0  0  0  0
   -0.6369  -21.1333   26.0281 C   0  0  0  0  0  0  0  0  0  0  0  0
   -0.1538  -20.5608   27.1487 N   0  0  0  0  0  0  0  0  0  0  0  0
  1  7  2  0  0  0  0
  1  2  1  0  0  0  0
  2  3  1  0  0  0  0
  2  4  2  0  0  0  0
  4  5  1  0  0  0  0
  5  6  2  0  0  0  0
  5 11  1  0  0  0  0
  6  7  1  0  0  0  0
  6  9  1  0  0  0  0
  7  8  1  0  0  0  0
  9 10  1  0  0  0  0
 10 11  2  0  0  0  0
M  END
>  <CHROM.1>
1.98190763,-20.15416751,26.23365864,-0.41277375,-0.31320618,-1.91974857

>  <Name>
ligand

>  <RI>
0

>  <Rbt.Current_Directory>
/home/itssahil/PROJECTS/Mol_Feturizer/New_Systems/rnas/4LVZ

>  <Rbt.Executable>
rbdock ($Id: //depot/dev/client3/rdock/2013.1/src/exe/rbdock.cxx#4 $)

>  <Rbt.Library>
libRbt.so (2013.1, Build901 2013/11/27)

>  <Rbt.Parameter_File>
/export/apps/rDock/src/rDock_2013.1_src/data/scripts/dock_solv.prm

>  <Rbt.Receptor>
prm/pocket_docking_6.prm

>  <SCORE>
-8.64038

>  <SCORE.INTER>
-8.64038

>  <SCORE.INTER.CONST>
1

>  <SCORE.INTER.POLAR>
0

>  <SCORE.INTER.ROT>
0

>  <SCORE.INTER.SOLV>
16.4696

>  <SCORE.INTER.VDW>
-14.8501

>  <SCORE.INTER.norm>
-0.785489

>  <SCORE.INTRA>
0

>  <SCORE.INTRA.DIHEDRAL>
0

>  <SCORE.INTRA.DIHEDRAL.0>
0

>  <SCORE.INTRA.POLAR>
0

>  <SCORE.INTRA.POLAR.0>
0

>  <SCORE.INTRA.REPUL>
0

>  <SCORE.INTRA.REPUL.0>
0

>  <SCORE.INTRA.SOLV>
0

>  <SCORE.INTRA.SOLV.lig_0>
-49.4056

>  <SCORE.INTRA.VDW>
0

>  <SCORE.INTRA.VDW.0>
0

>  <SCORE.INTRA.norm>
0

>  <SCORE.RESTR>
0

>  <SCORE.RESTR.CAVITY>
0

>  <SCORE.RESTR.norm>
0

>  <SCORE.SYSTEM>
0

>  <SCORE.SYSTEM.CONST>
0

>  <SCORE.SYSTEM.DIHEDRAL>
0

>  <SCORE.SYSTEM.SOLV>
0

>  <SCORE.SYSTEM.norm>
0

>  <SCORE.heavy>
11

>  <SCORE.norm>
-0.785489

>  <RMSD>
0.301

$$$$
ligand
 OpenBabel11021811503D
libRbt.so/2013.1/901 2013/11/27
 11 12  0  0  0  0  0  0  0  0999 V2000
    3.7558  -19.9939   26.0021 N   0  0  0  0  0  0  0  0  0  0  0  0
    3.3972  -19.4079   27.1711 C   0  0  0  0  0  0  0  0  0  0  0  0
    4.3651  -18.7233   27.9752 N   0  0  0  0  0  0  0  0  0  0  0  0
    2.1255  -19.4608   27.6056 N   0  0  0  0  0  0  0  0  0  0  0  0
    1.1486  -20.1031   26.8784 C   0  0  0  0  0  0  0  0  0  0  0  0
    1.4866  -20.7120   25.6837 C   0  0  0  0  0  0  0  0  0  0  0  0
    2.8438  -20.6460   25.2483 C   0  0  0  0  0  0  0  0  0  0  0  0
    3.2287  -21.2670   24.0178 N   0  0  0  0  0  0  0  0  0  0  0  0
    0.3271  -21.2719   25.1819 N   0  0  0  0  0  0  0  0  0  0  0  0
   -0.6833  -21.0221   26.0389 C   0  0  0  0  0  0  0  0  0  0  0  0
   -0.2083  -20.3126   27.0820 N   0  0  0  0  0  0  0  0  0  0  0  0
  1  7  2  0  0  0  0
  1  2  1  0  0  0  0
  2  3  1  0  0  0  0
  2  4  2  0  0  0  0
  4  5  1  0  0  0  0
  5  6  2  0  0  0  0
  5 11  1  0  0  0  0
  6  7  1  0  0  0  0
  6  9  1  0  0  0  0
  7  8  1  0  0  0  0
  9 10  1  0  0  0  0
 10 11  2  0  0  0  0
M  END
>  <CHROM.1>
2.00429352,-20.25770861,26.26630137,-0.43099663,-0.20103087,-2.09245870

>  <Name>
ligand

>  <RI>
0

>  <Rbt.Current_Directory>
/home/itssahil/PROJECTS/Mol_Feturizer/New_Systems/rnas/4LVZ

>  <Rbt.Executable>
rbdock ($Id: //depot/dev/client3/rdock/2013.1/src/exe/rbdock.cxx#4 $)

>  <Rbt.Library>
libRbt.so (2013.1, Build901 2013/11/27)

>  <Rbt.Parameter_File>
/export/apps/rDock/src/rDock_2013.1_src/data/scripts/dock_solv.prm

>  <Rbt.Receptor>
prm/pocket_docking_3.prm

>  <SCORE>
-8.69586

>  <SCORE.INTER>
-8.69586

>  <SCORE.INTER.CONST>
1

>  <SCORE.INTER.POLAR>
0

>  <SCORE.INTER.ROT>
0

>  <SCORE.INTER.SOLV>
15.9011

>  <SCORE.INTER.VDW>
-14.6976

>  <SCORE.INTER.norm>
-0.790532

>  <SCORE.INTRA>
0

>  <SCORE.INTRA.DIHEDRAL>
0

>  <SCORE.INTRA.DIHEDRAL.0>
0

>  <SCORE.INTRA.POLAR>
0

>  <SCORE.INTRA.POLAR.0>
0

>  <SCORE.INTRA.REPUL>
0

>  <SCORE.INTRA.REPUL.0>
0

>  <SCORE.INTRA.SOLV>
0

>  <SCORE.INTRA.SOLV.lig_0>
-49.4056

>  <SCORE.INTRA.VDW>
0

>  <SCORE.INTRA.VDW.0>
0

>  <SCORE.INTRA.norm>
0

>  <SCORE.RESTR>
0

>  <SCORE.RESTR.CAVITY>
0

>  <SCORE.RESTR.norm>
0

>  <SCORE.SYSTEM>
0

>  <SCORE.SYSTEM.CONST>
0

>  <SCORE.SYSTEM.DIHEDRAL>
0

>  <SCORE.SYSTEM.SOLV>
0

>  <SCORE.SYSTEM.norm>
0

>  <SCORE.heavy>
11

>  <SCORE.norm>
-0.790532

>  <RMSD>
0.317

$$$$
ligand
 OpenBabel11021811503D
libRbt.so/2013.1/901 2013/11/27
 11 12  0  0  0  0  0  0  0  0999 V2000
    3.7343  -19.9865   26.0040 N   0  0  0  0  0  0  0  0  0  0  0  0
    3.4024  -19.3947   27.1780 C   0  0  0  0  0  0  0  0  0  0  0  0
    4.3922  -18.7231   27.9661 N   0  0  0  0  0  0  0  0  0  0  0  0
    2.1371  -19.4297   27.6325 N   0  0  0  0  0  0  0  0  0  0  0  0
    1.1400  -20.0588   26.9214 C   0  0  0  0  0  0  0  0  0  0  0  0
    1.4507  -20.6732   25.7220 C   0  0  0  0  0  0  0  0  0  0  0  0
    2.8016  -20.6264   25.2653 C   0  0  0  0  0  0  0  0  0  0  0  0
    3.1585  -21.2535   24.0295 N   0  0  0  0  0  0  0  0  0  0  0  0
    0.2757  -21.2172   25.2390 N   0  0  0  0  0  0  0  0  0  0  0  0
   -0.7175  -20.9528   26.1116 C   0  0  0  0  0  0  0  0  0  0  0  0
   -0.2163  -20.2493   27.1464 N   0  0  0  0  0  0  0  0  0  0  0  0
  1  7  2  0  0  0  0
  1  2  1  0  0  0  0
  2  3  1  0  0  0  0
  2  4  2  0  0  0  0
  4  5  1  0  0  0  0
  5  6  2  0  0  0  0
  5 11  1  0  0  0  0
  6  7  1  0  0  0  0
  6  9  1  0  0  0  0
  7  8  1  0  0  0  0
  9 10  1  0  0  0  0
 10 11  2  0  0  0  0
M  END
>  <CHROM.1>
1.98373848,-20.22571898,26.29598603,-0.41002222,-0.19678969,-2.08911798

>  <Name>
ligand

>  <RI>
0

>  <Rbt.Current_Directory>
/home/itssahil/PROJECTS/Mol_Feturizer/New_Systems/rnas/4LVZ

>  <Rbt.Executable>
rbdock ($Id: //depot/dev/client3/rdock/2013.1/src/exe/rbdock.cxx#4 $)

>  <Rbt.Library>
libRbt.so (2013.1, Build901 2013/11/27)

>  <Rbt.Parameter_File>
/export/apps/rDock/src/rDock_2013.1_src/data/scripts/dock_solv.prm

>  <Rbt.Receptor>
prm/pocket_docking_3.prm

>  <SCORE>
-8.76236

>  <SCORE.INTER>
-8.76236

>  <SCORE.INTER.CONST>
1

>  <SCORE.INTER.POLAR>
0

>  <SCORE.INTER.ROT>
0

>  <SCORE.INTER.SOLV>
16.0719

>  <SCORE.INTER.VDW>
-14.7989

>  <SCORE.INTER.norm>
-0.796578

>  <SCORE.INTRA>
0

>  <SCORE.INTRA.DIHEDRAL>
0

>  <SCORE.INTRA.DIHEDRAL.0>
0

>  <SCORE.INTRA.POLAR>
0

>  <SCORE.INTRA.POLAR.0>
0

>  <SCORE.INTRA.REPUL>
0

>  <SCORE.INTRA.REPUL.0>
0

>  <SCORE.INTRA.SOLV>
0

>  <SCORE.INTRA.SOLV.lig_0>
-49.4056

>  <SCORE.INTRA.VDW>
0

>  <SCORE.INTRA.VDW.0>
0

>  <SCORE.INTRA.norm>
0

>  <SCORE.RESTR>
0

>  <SCORE.RESTR.CAVITY>
0

>  <SCORE.RESTR.norm>
0

>  <SCORE.SYSTEM>
0

>  <SCORE.SYSTEM.CONST>
0

>  <SCORE.SYSTEM.DIHEDRAL>
0

>  <SCORE.SYSTEM.SOLV>
0

>  <SCORE.SYSTEM.norm>
0

>  <SCORE.heavy>
11

>  <SCORE.norm>
-0.796578

>  <RMSD>
0.321

$$$$
ligand
 OpenBabel11021811503D
libRbt.so/2013.1/901 2013/11/27
 11 12  0  0  0  0  0  0  0  0999 V2000
    3.6852  -19.7011   25.9107 N   0  0  0  0  0  0  0  0  0  0  0  0
    3.3631  -19.3144   27.1698 C   0  0  0  0  0  0  0  0  0  0  0  0
    4.3349  -18.6883   28.0157 N   0  0  0  0  0  0  0  0  0  0  0  0
    2.1251  -19.5151   27.6557 N   0  0  0  0  0  0  0  0  0  0  0  0
    1.1464  -20.1112   26.8925 C   0  0  0  0  0  0  0  0  0  0  0  0
    1.4478  -20.5181   25.6057 C   0  0  0  0  0  0  0  0  0  0  0  0
    2.7701  -20.2986   25.1165 C   0  0  0  0  0  0  0  0  0  0  0  0
    3.1169  -20.7092   23.7902 N   0  0  0  0  0  0  0  0  0  0  0  0
    0.2957  -21.0774   25.0864 N   0  0  0  0  0  0  0  0  0  0  0  0
   -0.6745  -21.0221   26.0209 C   0  0  0  0  0  0  0  0  0  0  0  0
   -0.1809  -20.4390   27.1315 N   0  0  0  0  0  0  0  0  0  0  0  0
  1  7  2  0  0  0  0
  1  2  1  0  0  0  0
  2  3  1  0  0  0  0
  2  4  2  0  0  0  0
  4  5  1  0  0  0  0
  5  6  2  0  0  0  0
  5 11  1  0  0  0  0
  6  7  1  0  0  0  0
  6  9  1  0  0  0  0
  7  8  1  0  0  0  0
  9 10  1  0  0  0  0
 10 11  2  0  0  0  0
M  END
>  <CHROM.1>
1.97154945,-20.11805073,26.22171987,-0.40778316,-0.28264790,-1.94093174

>  <Name>
ligand

>  <RI>
0

>  <Rbt.Current_Directory>
/home/itssahil/PROJECTS/Mol_Feturizer/New_Systems/rnas/4LVZ

>  <Rbt.Executable>
rbdock ($Id: //depot/dev/client3/rdock/2013.1/src/exe/rbdock.cxx#4 $)

>  <Rbt.Library>
libRbt.so (2013.1, Build901 2013/11/27)

>  <Rbt.Parameter_File>
/export/apps/rDock/src/rDock_2013.1_src/data/scripts/dock_solv.prm

>  <Rbt.Receptor>
prm/pocket_docking_6.prm

>  <SCORE>
-8.64583

>  <SCORE.INTER>
-8.64583

>  <SCORE.INTER.CONST>
1

>  <SCORE.INTER.POLAR>
0

>  <SCORE.INTER.ROT>
0

>  <SCORE.INTER.SOLV>
16.4461

>  <SCORE.INTER.VDW>
-14.8459

>  <SCORE.INTER.norm>
-0.785985

>  <SCORE.INTRA>
0

>  <SCORE.INTRA.DIHEDRAL>
0

>  <SCORE.INTRA.DIHEDRAL.0>
0

>  <SCORE.INTRA.POLAR>
0

>  <SCORE.INTRA.POLAR.0>
0

>  <SCORE.INTRA.REPUL>
0

>  <SCORE.INTRA.REPUL.0>
0

>  <SCORE.INTRA.SOLV>
0

>  <SCORE.INTRA.SOLV.lig_0>
-49.4056

>  <SCORE.INTRA.VDW>
0

>  <SCORE.INTRA.VDW.0>
0

>  <SCORE.INTRA.norm>
0

>  <SCORE.RESTR>
0

>  <SCORE.RESTR.CAVITY>
0

>  <SCORE.RESTR.norm>
0

>  <SCORE.SYSTEM>
0

>  <SCORE.SYSTEM.CONST>
0

>  <SCORE.SYSTEM.DIHEDRAL>
0

>  <SCORE.SYSTEM.SOLV>
0

>  <SCORE.SYSTEM.norm>
0

>  <SCORE.heavy>
11

>  <SCORE.norm>
-0.785985

>  <RMSD>
0.321

$$$$
ligand
 OpenBabel11021811503D
libRbt.so/2013.1/901 2013/11/27
 11 12  0  0  0  0  0  0  0  0999 V2000
    3.7368  -19.9677   26.0026 N   0  0  0  0  0  0  0  0  0  0  0  0
    3.3982  -19.3752   27.1743 C   0  0  0  0  0  0  0  0  0  0  0  0
    4.3808  -18.6912   27.9608 N   0  0  0  0  0  0  0  0  0  0  0  0
    2.1329  -19.4212   27.6280 N   0  0  0  0  0  0  0  0  0  0  0  0
    1.1427  -20.0626   26.9184 C   0  0  0  0  0  0  0  0  0  0  0  0
    1.4602  -20.6780   25.7214 C   0  0  0  0  0  0  0  0  0  0  0  0
    2.8110  -20.6193   25.2654 C   0  0  0  0  0  0  0  0  0  0  0  0
    3.1749  -21.2471   24.0320 N   0  0  0  0  0  0  0  0  0  0  0  0
    0.2911  -21.2352   25.2395 N   0  0  0  0  0  0  0  0  0  0  0  0
   -0.7053  -20.9777   26.1105 C   0  0  0  0  0  0  0  0  0  0  0  0
   -0.2118  -20.2657   27.1432 N   0  0  0  0  0  0  0  0  0  0  0  0
  1  7  2  0  0  0  0
  1  2  1  0  0  0  0
  2  3  1  0  0  0  0
  2  4  2  0  0  0  0
  4  5  1  0  0  0  0
  5  6  2  0  0  0  0
  5 11  1  0  0  0  0
  6  7  1  0  0  0  0
  6  9  1  0  0  0  0
  7  8  1  0  0  0  0
  9 10  1  0  0  0  0
 10 11  2  0  0  0  0
M  END
>  <CHROM.1>
1.98844379,-20.22326644,26.29419379,-0.41565415,-0.20503426,-2.09367794

>  <Name>
ligand

>  <RI>
0

>  <Rbt.Current_Directory>
/home/itssahil/PROJECTS/Mol_Feturizer/New_Systems/rnas/4LVZ

>  <Rbt.Executable>
rbdock ($Id: //depot/dev/client3/rdock/2013.1/src/exe/rbdock.cxx#4 $)

>  <Rbt.Library>
libRbt.so (2013.1, Build901 2013/11/27)

>  <Rbt.Parameter_File>
/export/apps/rDock/src/rDock_2013.1_src/data/scripts/dock_solv.prm

>  <Rbt.Receptor>
prm/pocket_docking_8.prm

>  <SCORE>
-8.72618

>  <SCORE.INTER>
-8.72618

>  <SCORE.INTER.CONST>
1

>  <SCORE.INTER.POLAR>
0

>  <SCORE.INTER.ROT>
0

>  <SCORE.INTER.SOLV>
16.0998

>  <SCORE.INTER.VDW>
-14.7841

>  <SCORE.INTER.norm>
-0.793289

>  <SCORE.INTRA>
0

>  <SCORE.INTRA.DIHEDRAL>
0

>  <SCORE.INTRA.DIHEDRAL.0>
0

>  <SCORE.INTRA.POLAR>
0

>  <SCORE.INTRA.POLAR.0>
0

>  <SCORE.INTRA.REPUL>
0

>  <SCORE.INTRA.REPUL.0>
0

>  <SCORE.INTRA.SOLV>
0

>  <SCORE.INTRA.SOLV.lig_0>
-49.4056

>  <SCORE.INTRA.VDW>
0

>  <SCORE.INTRA.VDW.0>
0

>  <SCORE.INTRA.norm>
0

>  <SCORE.RESTR>
0

>  <SCORE.RESTR.CAVITY>
0

>  <SCORE.RESTR.norm>
0

>  <SCORE.SYSTEM>
0

>  <SCORE.SYSTEM.CONST>
0

>  <SCORE.SYSTEM.DIHEDRAL>
0

>  <SCORE.SYSTEM.SOLV>
0

>  <SCORE.SYSTEM.norm>
0

>  <SCORE.heavy>
11

>  <SCORE.norm>
-0.793289

>  <RMSD>
0.321

$$$$
ligand
 OpenBabel11021811503D
libRbt.so/2013.1/901 2013/11/27
 11 12  0  0  0  0  0  0  0  0999 V2000
    3.7590  -19.9827   26.0355 N   0  0  0  0  0  0  0  0  0  0  0  0
    3.4200  -19.3897   27.2068 C   0  0  0  0  0  0  0  0  0  0  0  0
    4.4053  -18.7185   28.0009 N   0  0  0  0  0  0  0  0  0  0  0  0
    2.1517  -19.4231   27.6530 N   0  0  0  0  0  0  0  0  0  0  0  0
    1.1587  -20.0519   26.9359 C   0  0  0  0  0  0  0  0  0  0  0  0
    1.4766  -20.6674   25.7391 C   0  0  0  0  0  0  0  0  0  0  0  0
    2.8306  -20.6223   25.2912 C   0  0  0  0  0  0  0  0  0  0  0  0
    3.1949  -21.2507   24.0582 N   0  0  0  0  0  0  0  0  0  0  0  0
    0.3043  -21.2107   25.2488 N   0  0  0  0  0  0  0  0  0  0  0  0
   -0.6943  -20.9446   26.1146 C   0  0  0  0  0  0  0  0  0  0  0  0
   -0.1992  -20.2408   27.1522 N   0  0  0  0  0  0  0  0  0  0  0  0
  1  7  2  0  0  0  0
  1  2  1  0  0  0  0
  2  3  1  0  0  0  0
  2  4  2  0  0  0  0
  4  5  1  0  0  0  0
  5  6  2  0  0  0  0
  5 11  1  0  0  0  0
  6  7  1  0  0  0  0
  6  9  1  0  0  0  0
  7  8  1  0  0  0  0
  9 10  1  0  0  0  0
 10 11  2  0  0  0  0
M  END
>  <CHROM.1>
2.00632880,-20.22003446,26.31618157,-0.41533193,-0.19269877,-2.09090910

>  <Name>
ligand

>  <RI>
0

>  <Rbt.Current_Directory>
/home/itssahil/PROJECTS/Mol_Feturizer/New_Systems/rnas/4LVZ

>  <Rbt.Executable>
rbdock ($Id: //depot/dev/client3/rdock/2013.1/src/exe/rbdock.cxx#4 $)

>  <Rbt.Library>
libRbt.so (2013.1, Build901 2013/11/27)

>  <Rbt.Parameter_File>
/export/apps/rDock/src/rDock_2013.1_src/data/scripts/dock_solv.prm

>  <Rbt.Receptor>
prm/pocket_docking_7.prm

>  <SCORE>
-8.70637

>  <SCORE.INTER>
-8.70637

>  <SCORE.INTER.CONST>
1

>  <SCORE.INTER.POLAR>
0

>  <SCORE.INTER.ROT>
0

>  <SCORE.INTER.SOLV>
15.8785

>  <SCORE.INTER.VDW>
-14.6971

>  <SCORE.INTER.norm>
-0.791488

>  <SCORE.INTRA>
0

>  <SCORE.INTRA.DIHEDRAL>
0

>  <SCORE.INTRA.DIHEDRAL.0>
0

>  <SCORE.INTRA.POLAR>
0

>  <SCORE.INTRA.POLAR.0>
0

>  <SCORE.INTRA.REPUL>
0

>  <SCORE.INTRA.REPUL.0>
0

>  <SCORE.INTRA.SOLV>
0

>  <SCORE.INTRA.SOLV.lig_0>
-49.4056

>  <SCORE.INTRA.VDW>
0

>  <SCORE.INTRA.VDW.0>
0

>  <SCORE.INTRA.norm>
0

>  <SCORE.RESTR>
0

>  <SCORE.RESTR.CAVITY>
0

>  <SCORE.RESTR.norm>
0

>  <SCORE.SYSTEM>
0

>  <SCORE.SYSTEM.CONST>
0

>  <SCORE.SYSTEM.DIHEDRAL>
0

>  <SCORE.SYSTEM.SOLV>
0

>  <SCORE.SYSTEM.norm>
0

>  <SCORE.heavy>
11

>  <SCORE.norm>
-0.791488

>  <RMSD>
0.324

$$$$
ligand
 OpenBabel11021811503D
libRbt.so/2013.1/901 2013/11/27
 11 12  0  0  0  0  0  0  0  0999 V2000
    3.7563  -19.9771   26.0586 N   0  0  0  0  0  0  0  0  0  0  0  0
    3.4124  -19.3842   27.2286 C   0  0  0  0  0  0  0  0  0  0  0  0
    4.3951  -18.7161   28.0286 N   0  0  0  0  0  0  0  0  0  0  0  0
    2.1417  -19.4148   27.6679 N   0  0  0  0  0  0  0  0  0  0  0  0
    1.1510  -20.0405   26.9449 C   0  0  0  0  0  0  0  0  0  0  0  0
    1.4738  -20.6559   25.7493 C   0  0  0  0  0  0  0  0  0  0  0  0
    2.8303  -20.6137   25.3088 C   0  0  0  0  0  0  0  0  0  0  0  0
    3.1997  -21.2420   24.0772 N   0  0  0  0  0  0  0  0  0  0  0  0
    0.3029  -21.1958   25.2522 N   0  0  0  0  0  0  0  0  0  0  0  0
   -0.6997  -20.9280   26.1129 C   0  0  0  0  0  0  0  0  0  0  0  0
   -0.2085  -20.2263   27.1537 N   0  0  0  0  0  0  0  0  0  0  0  0
  1  7  2  0  0  0  0
  1  2  1  0  0  0  0
  2  3  1  0  0  0  0
  2  4  2  0  0  0  0
  4  5  1  0  0  0  0
  5  6  2  0  0  0  0
  5 11  1  0  0  0  0
  6  7  1  0  0  0  0
  6  9  1  0  0  0  0
  7  8  1  0  0  0  0
  9 10  1  0  0  0  0
 10 11  2  0  0  0  0
M  END
>  <CHROM.1>
2.00155945,-20.21027527,26.32962420,-0.41884394,-0.18785962,-2.09075414

>  <Name>
ligand

>  <RI>
0

>  <Rbt.Current_Directory>
/home/itssahil/PROJECTS/Mol_Feturizer/New_Systems/rnas/4LVZ

>  <Rbt.Executable>
rbdock ($Id: //depot/dev/client3/rdock/2013.1/src/exe/rbdock.cxx#4 $)

>  <Rbt.Library>
libRbt.so (2013.1, Build901 2013/11/27)

>  <Rbt.Parameter_File>
/export/apps/rDock/src/rDock_2013.1_src/data/scripts/dock_solv.prm

>  <Rbt.Receptor>
prm/pocket_docking_4.prm

>  <SCORE>
-8.69985

>  <SCORE.INTER>
-8.69985

>  <SCORE.INTER.CONST>
1

>  <SCORE.INTER.POLAR>
0

>  <SCORE.INTER.ROT>
0

>  <SCORE.INTER.SOLV>
15.9086

>  <SCORE.INTER.VDW>
-14.7028

>  <SCORE.INTER.norm>
-0.790895

>  <SCORE.INTRA>
0

>  <SCORE.INTRA.DIHEDRAL>
0

>  <SCORE.INTRA.DIHEDRAL.0>
0

>  <SCORE.INTRA.POLAR>
0

>  <SCORE.INTRA.POLAR.0>
0

>  <SCORE.INTRA.REPUL>
0

>  <SCORE.INTRA.REPUL.0>
0

>  <SCORE.INTRA.SOLV>
0

>  <SCORE.INTRA.SOLV.lig_0>
-49.4056

>  <SCORE.INTRA.VDW>
0

>  <SCORE.INTRA.VDW.0>
0

>  <SCORE.INTRA.norm>
0

>  <SCORE.RESTR>
0

>  <SCORE.RESTR.CAVITY>
0

>  <SCORE.RESTR.norm>
0

>  <SCORE.SYSTEM>
0

>  <SCORE.SYSTEM.CONST>
0

>  <SCORE.SYSTEM.DIHEDRAL>
0

>  <SCORE.SYSTEM.SOLV>
0

>  <SCORE.SYSTEM.norm>
0

>  <SCORE.heavy>
11

>  <SCORE.norm>
-0.790895

>  <RMSD>
0.337

$$$$
ligand
 OpenBabel11021811503D
libRbt.so/2013.1/901 2013/11/27
 11 12  0  0  0  0  0  0  0  0999 V2000
    3.6730  -19.6656   25.8877 N   0  0  0  0  0  0  0  0  0  0  0  0
    3.3455  -19.2947   27.1501 C   0  0  0  0  0  0  0  0  0  0  0  0
    4.3072  -18.6590   28.0004 N   0  0  0  0  0  0  0  0  0  0  0  0
    2.1116  -19.5205   27.6352 N   0  0  0  0  0  0  0  0  0  0  0  0
    1.1425  -20.1269   26.8679 C   0  0  0  0  0  0  0  0  0  0  0  0
    1.4497  -20.5181   25.5776 C   0  0  0  0  0  0  0  0  0  0  0  0
    2.7676  -20.2721   25.0893 C   0  0  0  0  0  0  0  0  0  0  0  0
    3.1202  -20.6659   23.7594 N   0  0  0  0  0  0  0  0  0  0  0  0
    0.3069  -21.0928   25.0546 N   0  0  0  0  0  0  0  0  0  0  0  0
   -0.6633  -21.0616   25.9902 C   0  0  0  0  0  0  0  0  0  0  0  0
   -0.1788  -20.4793   27.1052 N   0  0  0  0  0  0  0  0  0  0  0  0
  1  7  2  0  0  0  0
  1  2  1  0  0  0  0
  2  3  1  0  0  0  0
  2  4  2  0  0  0  0
  4  5  1  0  0  0  0
  5  6  2  0  0  0  0
  5 11  1  0  0  0  0
  6  7  1  0  0  0  0
  6  9  1  0  0  0  0
  7  8  1  0  0  0  0
  9 10  1  0  0  0  0
 10 11  2  0  0  0  0
M  END
>  <CHROM.1>
1.96705591,-20.11421701,26.19647749,-0.41339563,-0.29886159,-1.93438405

>  <Name>
ligand

>  <RI>
0

>  <Rbt.Current_Directory>
/home/itssahil/PROJECTS/Mol_Feturizer/New_Systems/rnas/4LVZ

>  <Rbt.Executable>
rbdock ($Id: //depot/dev/client3/rdock/2013.1/src/exe/rbdock.cxx#4 $)

>  <Rbt.Library>
libRbt.so (2013.1, Build901 2013/11/27)

>  <Rbt.Parameter_File>
/export/apps/rDock/src/rDock_2013.1_src/data/scripts/dock_solv.prm

>  <Rbt.Receptor>
prm/pocket_docking_6.prm

>  <SCORE>
-8.67984

>  <SCORE.INTER>
-8.67984

>  <SCORE.INTER.CONST>
1

>  <SCORE.INTER.POLAR>
0

>  <SCORE.INTER.ROT>
0

>  <SCORE.INTER.SOLV>
16.7081

>  <SCORE.INTER.VDW>
-14.9559

>  <SCORE.INTER.norm>
-0.789076

>  <SCORE.INTRA>
0

>  <SCORE.INTRA.DIHEDRAL>
0

>  <SCORE.INTRA.DIHEDRAL.0>
0

>  <SCORE.INTRA.POLAR>
0

>  <SCORE.INTRA.POLAR.0>
0

>  <SCORE.INTRA.REPUL>
0

>  <SCORE.INTRA.REPUL.0>
0

>  <SCORE.INTRA.SOLV>
0

>  <SCORE.INTRA.SOLV.lig_0>
-49.4056

>  <SCORE.INTRA.VDW>
0

>  <SCORE.INTRA.VDW.0>
0

>  <SCORE.INTRA.norm>
0

>  <SCORE.RESTR>
0

>  <SCORE.RESTR.CAVITY>
0

>  <SCORE.RESTR.norm>
0

>  <SCORE.SYSTEM>
0

>  <SCORE.SYSTEM.CONST>
0

>  <SCORE.SYSTEM.DIHEDRAL>
0

>  <SCORE.SYSTEM.SOLV>
0

>  <SCORE.SYSTEM.norm>
0

>  <SCORE.heavy>
11

>  <SCORE.norm>
-0.789076

>  <RMSD>
0.338

$$$$
ligand
 OpenBabel11021811503D
libRbt.so/2013.1/901 2013/11/27
 11 12  0  0  0  0  0  0  0  0999 V2000
    3.7456  -19.9645   26.0165 N   0  0  0  0  0  0  0  0  0  0  0  0
    3.4087  -19.3631   27.1842 C   0  0  0  0  0  0  0  0  0  0  0  0
    4.3959  -18.6879   27.9726 N   0  0  0  0  0  0  0  0  0  0  0  0
    2.1409  -19.3918   27.6321 N   0  0  0  0  0  0  0  0  0  0  0  0
    1.1462  -20.0239   26.9204 C   0  0  0  0  0  0  0  0  0  0  0  0
    1.4619  -20.6480   25.7274 C   0  0  0  0  0  0  0  0  0  0  0  0
    2.8153  -20.6077   25.2776 C   0  0  0  0  0  0  0  0  0  0  0  0
    3.1773  -21.2449   24.0484 N   0  0  0  0  0  0  0  0  0  0  0  0
    0.2882  -21.1929   25.2421 N   0  0  0  0  0  0  0  0  0  0  0  0
   -0.7090  -20.9197   26.1073 C   0  0  0  0  0  0  0  0  0  0  0  0
   -0.2117  -20.2096   27.1396 N   0  0  0  0  0  0  0  0  0  0  0  0
  1  7  2  0  0  0  0
  1  2  1  0  0  0  0
  2  3  1  0  0  0  0
  2  4  2  0  0  0  0
  4  5  1  0  0  0  0
  5  6  2  0  0  0  0
  5 11  1  0  0  0  0
  6  7  1  0  0  0  0
  6  9  1  0  0  0  0
  7  8  1  0  0  0  0
  9 10  1  0  0  0  0
 10 11  2  0  0  0  0
M  END
>  <CHROM.1>
1.99288993,-20.19745739,26.30083476,-0.41358189,-0.19209954,-2.09730750

>  <Name>
ligand

>  <RI>
0

>  <Rbt.Current_Directory>
/home/itssahil/PROJECTS/Mol_Feturizer/New_Systems/rnas/4LVZ

>  <Rbt.Executable>
rbdock ($Id: //depot/dev/client3/rdock/2013.1/src/exe/rbdock.cxx#4 $)

>  <Rbt.Library>
libRbt.so (2013.1, Build901 2013/11/27)

>  <Rbt.Parameter_File>
/export/apps/rDock/src/rDock_2013.1_src/data/scripts/dock_solv.prm

>  <Rbt.Receptor>
prm/pocket_docking_3.prm

>  <SCORE>
-8.72167

>  <SCORE.INTER>
-8.72167

>  <SCORE.INTER.CONST>
1

>  <SCORE.INTER.POLAR>
0

>  <SCORE.INTER.ROT>
0

>  <SCORE.INTER.SOLV>
16.0569

>  <SCORE.INTER.VDW>
-14.7668

>  <SCORE.INTER.norm>
-0.792879

>  <SCORE.INTRA>
0

>  <SCORE.INTRA.DIHEDRAL>
0

>  <SCORE.INTRA.DIHEDRAL.0>
0

>  <SCORE.INTRA.POLAR>
0

>  <SCORE.INTRA.POLAR.0>
0

>  <SCORE.INTRA.REPUL>
0

>  <SCORE.INTRA.REPUL.0>
0

>  <SCORE.INTRA.SOLV>
0

>  <SCORE.INTRA.SOLV.lig_0>
-49.4056

>  <SCORE.INTRA.VDW>
0

>  <SCORE.INTRA.VDW.0>
0

>  <SCORE.INTRA.norm>
0

>  <SCORE.RESTR>
0

>  <SCORE.RESTR.CAVITY>
0

>  <SCORE.RESTR.norm>
0

>  <SCORE.SYSTEM>
0

>  <SCORE.SYSTEM.CONST>
0

>  <SCORE.SYSTEM.DIHEDRAL>
0

>  <SCORE.SYSTEM.SOLV>
0

>  <SCORE.SYSTEM.norm>
0

>  <SCORE.heavy>
11

>  <SCORE.norm>
-0.792879

>  <RMSD>
0.340

$$$$
ligand
 OpenBabel11021811503D
libRbt.so/2013.1/901 2013/11/27
 11 12  0  0  0  0  0  0  0  0999 V2000
    3.7658  -19.9601   26.0124 N   0  0  0  0  0  0  0  0  0  0  0  0
    3.4147  -19.3553   27.1741 C   0  0  0  0  0  0  0  0  0  0  0  0
    4.3911  -18.6732   27.9699 N   0  0  0  0  0  0  0  0  0  0  0  0
    2.1424  -19.3869   27.6090 N   0  0  0  0  0  0  0  0  0  0  0  0
    1.1575  -20.0257   26.8896 C   0  0  0  0  0  0  0  0  0  0  0  0
    1.4878  -20.6534   25.7025 C   0  0  0  0  0  0  0  0  0  0  0  0
    2.8457  -20.6099   25.2666 C   0  0  0  0  0  0  0  0  0  0  0  0
    3.2229  -21.2507   24.0438 N   0  0  0  0  0  0  0  0  0  0  0  0
    0.3213  -21.2047   25.2073 N   0  0  0  0  0  0  0  0  0  0  0  0
   -0.6858  -20.9317   26.0610 C   0  0  0  0  0  0  0  0  0  0  0  0
   -0.2020  -20.2156   27.0954 N   0  0  0  0  0  0  0  0  0  0  0  0
  1  7  2  0  0  0  0
  1  2  1  0  0  0  0
  2  3  1  0  0  0  0
  2  4  2  0  0  0  0
  4  5  1  0  0  0  0
  5  6  2  0  0  0  0
  5 11  1  0  0  0  0
  6  7  1  0  0  0  0
  6  9  1  0  0  0  0
  7  8  1  0  0  0  0
  9 10  1  0  0  0  0
 10 11  2  0  0  0  0
M  END
>  <CHROM.1>
2.01118087,-20.19855738,26.27951809,-0.42462742,-0.19007913,-2.10348745

>  <Name>
ligand

>  <RI>
0

>  <Rbt.Current_Directory>
/home/itssahil/PROJECTS/Mol_Feturizer/New_Systems/rnas/4LVZ

>  <Rbt.Executable>
rbdock ($Id: //depot/dev/client3/rdock/2013.1/src/exe/rbdock.cxx#4 $)

>  <Rbt.Library>
libRbt.so (2013.1, Build901 2013/11/27)

>  <Rbt.Parameter_File>
/export/apps/rDock/src/rDock_2013.1_src/data/scripts/dock_solv.prm

>  <Rbt.Receptor>
prm/pocket_docking_6.prm

>  <SCORE>
-8.73314

>  <SCORE.INTER>
-8.73314

>  <SCORE.INTER.CONST>
1

>  <SCORE.INTER.POLAR>
0

>  <SCORE.INTER.ROT>
0

>  <SCORE.INTER.SOLV>
15.9352

>  <SCORE.INTER.VDW>
-14.7338

>  <SCORE.INTER.norm>
-0.793922

>  <SCORE.INTRA>
0

>  <SCORE.INTRA.DIHEDRAL>
0

>  <SCORE.INTRA.DIHEDRAL.0>
0

>  <SCORE.INTRA.POLAR>
0

>  <SCORE.INTRA.POLAR.0>
0

>  <SCORE.INTRA.REPUL>
0

>  <SCORE.INTRA.REPUL.0>
0

>  <SCORE.INTRA.SOLV>
0

>  <SCORE.INTRA.SOLV.lig_0>
-49.4056

>  <SCORE.INTRA.VDW>
0

>  <SCORE.INTRA.VDW.0>
0

>  <SCORE.INTRA.norm>
0

>  <SCORE.RESTR>
0

>  <SCORE.RESTR.CAVITY>
0

>  <SCORE.RESTR.norm>
0

>  <SCORE.SYSTEM>
0

>  <SCORE.SYSTEM.CONST>
0

>  <SCORE.SYSTEM.DIHEDRAL>
0

>  <SCORE.SYSTEM.SOLV>
0

>  <SCORE.SYSTEM.norm>
0

>  <SCORE.heavy>
11

>  <SCORE.norm>
-0.793922

>  <RMSD>
0.345

$$$$
ligand
 OpenBabel11021811503D
libRbt.so/2013.1/901 2013/11/27
 11 12  0  0  0  0  0  0  0  0999 V2000
    3.7393  -19.9851   26.0123 N   0  0  0  0  0  0  0  0  0  0  0  0
    3.4051  -19.3753   27.1764 C   0  0  0  0  0  0  0  0  0  0  0  0
    4.3961  -18.7041   27.9634 N   0  0  0  0  0  0  0  0  0  0  0  0
    2.1363  -19.3918   27.6221 N   0  0  0  0  0  0  0  0  0  0  0  0
    1.1379  -20.0195   26.9116 C   0  0  0  0  0  0  0  0  0  0  0  0
    1.4508  -20.6519   25.7223 C   0  0  0  0  0  0  0  0  0  0  0  0
    2.8054  -20.6246   25.2749 C   0  0  0  0  0  0  0  0  0  0  0  0
    3.1646  -21.2707   24.0495 N   0  0  0  0  0  0  0  0  0  0  0  0
    0.2738  -21.1899   25.2375 N   0  0  0  0  0  0  0  0  0  0  0  0
   -0.7228  -20.9045   26.0995 C   0  0  0  0  0  0  0  0  0  0  0  0
   -0.2219  -20.1933   27.1292 N   0  0  0  0  0  0  0  0  0  0  0  0
  1  7  2  0  0  0  0
  1  2  1  0  0  0  0
  2  3  1  0  0  0  0
  2  4  2  0  0  0  0
  4  5  1  0  0  0  0
  5  6  2  0  0  0  0
  5 11  1  0  0  0  0
  6  7  1  0  0  0  0
  6  9  1  0  0  0  0
  7  8  1  0  0  0  0
  9 10  1  0  0  0  0
 10 11  2  0  0  0  0
M  END
>  <CHROM.1>
1.98431648,-20.20280765,26.29452765,-0.41113982,-0.18431902,-2.10176519

>  <Name>
ligand

>  <RI>
0

>  <Rbt.Current_Directory>
/home/itssahil/PROJECTS/Mol_Feturizer/New_Systems/rnas/4LVZ

>  <Rbt.Executable>
rbdock ($Id: //depot/dev/client3/rdock/2013.1/src/exe/rbdock.cxx#4 $)

>  <Rbt.Library>
libRbt.so (2013.1, Build901 2013/11/27)

>  <Rbt.Parameter_File>
/export/apps/rDock/src/rDock_2013.1_src/data/scripts/dock_solv.prm

>  <Rbt.Receptor>
prm/pocket_docking_7.prm

>  <SCORE>
-8.71892

>  <SCORE.INTER>
-8.71892

>  <SCORE.INTER.CONST>
1

>  <SCORE.INTER.POLAR>
0

>  <SCORE.INTER.ROT>
0

>  <SCORE.INTER.SOLV>
16.0993

>  <SCORE.INTER.VDW>
-14.779

>  <SCORE.INTER.norm>
-0.792629

>  <SCORE.INTRA>
0

>  <SCORE.INTRA.DIHEDRAL>
0

>  <SCORE.INTRA.DIHEDRAL.0>
0

>  <SCORE.INTRA.POLAR>
0

>  <SCORE.INTRA.POLAR.0>
0

>  <SCORE.INTRA.REPUL>
0

>  <SCORE.INTRA.REPUL.0>
0

>  <SCORE.INTRA.SOLV>
0

>  <SCORE.INTRA.SOLV.lig_0>
-49.4056

>  <SCORE.INTRA.VDW>
0

>  <SCORE.INTRA.VDW.0>
0

>  <SCORE.INTRA.norm>
0

>  <SCORE.RESTR>
0

>  <SCORE.RESTR.CAVITY>
0

>  <SCORE.RESTR.norm>
0

>  <SCORE.SYSTEM>
0

>  <SCORE.SYSTEM.CONST>
0

>  <SCORE.SYSTEM.DIHEDRAL>
0

>  <SCORE.SYSTEM.SOLV>
0

>  <SCORE.SYSTEM.norm>
0

>  <SCORE.heavy>
11

>  <SCORE.norm>
-0.792629

>  <RMSD>
0.348

$$$$
ligand
 OpenBabel11021811503D
libRbt.so/2013.1/901 2013/11/27
 11 12  0  0  0  0  0  0  0  0999 V2000
    3.7540  -19.9623   26.0299 N   0  0  0  0  0  0  0  0  0  0  0  0
    3.4124  -19.3505   27.1908 C   0  0  0  0  0  0  0  0  0  0  0  0
    4.3963  -18.6684   27.9773 N   0  0  0  0  0  0  0  0  0  0  0  0
    2.1427  -19.3751   27.6336 N   0  0  0  0  0  0  0  0  0  0  0  0
    1.1509  -20.0135   26.9234 C   0  0  0  0  0  0  0  0  0  0  0  0
    1.4715  -20.6482   25.7373 C   0  0  0  0  0  0  0  0  0  0  0  0
    2.8268  -20.6120   25.2929 C   0  0  0  0  0  0  0  0  0  0  0  0
    3.1939  -21.2602   24.0710 N   0  0  0  0  0  0  0  0  0  0  0  0
    0.2998  -21.1973   25.2520 N   0  0  0  0  0  0  0  0  0  0  0  0
   -0.7010  -20.9162   26.1105 C   0  0  0  0  0  0  0  0  0  0  0  0
   -0.2080  -20.1970   27.1385 N   0  0  0  0  0  0  0  0  0  0  0  0
  1  7  2  0  0  0  0
  1  2  1  0  0  0  0
  2  3  1  0  0  0  0
  2  4  2  0  0  0  0
  4  5  1  0  0  0  0
  5  6  2  0  0  0  0
  5 11  1  0  0  0  0
  6  7  1  0  0  0  0
  6  9  1  0  0  0  0
  7  8  1  0  0  0  0
  9 10  1  0  0  0  0
 10 11  2  0  0  0  0
M  END
>  <CHROM.1>
2.00013653,-20.19257124,26.30896484,-0.41721661,-0.18986714,-2.10689985

>  <Name>
ligand

>  <RI>
0

>  <Rbt.Current_Directory>
/home/itssahil/PROJECTS/Mol_Feturizer/New_Systems/rnas/4LVZ

>  <Rbt.Executable>
rbdock ($Id: //depot/dev/client3/rdock/2013.1/src/exe/rbdock.cxx#4 $)

>  <Rbt.Library>
libRbt.so (2013.1, Build901 2013/11/27)

>  <Rbt.Parameter_File>
/export/apps/rDock/src/rDock_2013.1_src/data/scripts/dock_solv.prm

>  <Rbt.Receptor>
prm/pocket_docking_4.prm

>  <SCORE>
-8.72832

>  <SCORE.INTER>
-8.72832

>  <SCORE.INTER.CONST>
1

>  <SCORE.INTER.POLAR>
0

>  <SCORE.INTER.ROT>
0

>  <SCORE.INTER.SOLV>
16.0303

>  <SCORE.INTER.VDW>
-14.7623

>  <SCORE.INTER.norm>
-0.793484

>  <SCORE.INTRA>
0

>  <SCORE.INTRA.DIHEDRAL>
0

>  <SCORE.INTRA.DIHEDRAL.0>
0

>  <SCORE.INTRA.POLAR>
0

>  <SCORE.INTRA.POLAR.0>
0

>  <SCORE.INTRA.REPUL>
0

>  <SCORE.INTRA.REPUL.0>
0

>  <SCORE.INTRA.SOLV>
0

>  <SCORE.INTRA.SOLV.lig_0>
-49.4056

>  <SCORE.INTRA.VDW>
0

>  <SCORE.INTRA.VDW.0>
0

>  <SCORE.INTRA.norm>
0

>  <SCORE.RESTR>
0

>  <SCORE.RESTR.CAVITY>
0

>  <SCORE.RESTR.norm>
0

>  <SCORE.SYSTEM>
0

>  <SCORE.SYSTEM.CONST>
0

>  <SCORE.SYSTEM.DIHEDRAL>
0

>  <SCORE.SYSTEM.SOLV>
0

>  <SCORE.SYSTEM.norm>
0

>  <SCORE.heavy>
11

>  <SCORE.norm>
-0.793484

>  <RMSD>
0.350

$$$$
ligand
 OpenBabel11021811503D
libRbt.so/2013.1/901 2013/11/27
 11 12  0  0  0  0  0  0  0  0999 V2000
    3.7762  -19.9807   26.0253 N   0  0  0  0  0  0  0  0  0  0  0  0
    3.4223  -19.3637   27.1797 C   0  0  0  0  0  0  0  0  0  0  0  0
    4.3984  -18.6804   27.9749 N   0  0  0  0  0  0  0  0  0  0  0  0
    2.1475  -19.3839   27.6078 N   0  0  0  0  0  0  0  0  0  0  0  0
    1.1627  -20.0231   26.8886 C   0  0  0  0  0  0  0  0  0  0  0  0
    1.4957  -20.6632   25.7088 C   0  0  0  0  0  0  0  0  0  0  0  0
    2.8563  -20.6315   25.2801 C   0  0  0  0  0  0  0  0  0  0  0  0
    3.2362  -21.2853   24.0651 N   0  0  0  0  0  0  0  0  0  0  0  0
    0.3287  -21.2119   25.2121 N   0  0  0  0  0  0  0  0  0  0  0  0
   -0.6814  -20.9254   26.0578 C   0  0  0  0  0  0  0  0  0  0  0  0
   -0.1990  -20.2031   27.0885 N   0  0  0  0  0  0  0  0  0  0  0  0
  1  7  2  0  0  0  0
  1  2  1  0  0  0  0
  2  3  1  0  0  0  0
  2  4  2  0  0  0  0
  4  5  1  0  0  0  0
  5  6  2  0  0  0  0
  5 11  1  0  0  0  0
  6  7  1  0  0  0  0
  6  9  1  0  0  0  0
  7  8  1  0  0  0  0
  9 10  1  0  0  0  0
 10 11  2  0  0  0  0
M  END
>  <CHROM.1>
2.01866779,-20.20638240,26.28478200,-0.42632321,-0.18214214,-2.11256428

>  <Name>
ligand

>  <RI>
0

>  <Rbt.Current_Directory>
/home/itssahil/PROJECTS/Mol_Feturizer/New_Systems/rnas/4LVZ

>  <Rbt.Executable>
rbdock ($Id: //depot/dev/client3/rdock/2013.1/src/exe/rbdock.cxx#4 $)

>  <Rbt.Library>
libRbt.so (2013.1, Build901 2013/11/27)

>  <Rbt.Parameter_File>
/export/apps/rDock/src/rDock_2013.1_src/data/scripts/dock_solv.prm

>  <Rbt.Receptor>
prm/pocket_docking_3.prm

>  <SCORE>
-8.74224

>  <SCORE.INTER>
-8.74224

>  <SCORE.INTER.CONST>
1

>  <SCORE.INTER.POLAR>
0

>  <SCORE.INTER.ROT>
0

>  <SCORE.INTER.SOLV>
15.859

>  <SCORE.INTER.VDW>
-14.7145

>  <SCORE.INTER.norm>
-0.794749

>  <SCORE.INTRA>
0

>  <SCORE.INTRA.DIHEDRAL>
0

>  <SCORE.INTRA.DIHEDRAL.0>
0

>  <SCORE.INTRA.POLAR>
0

>  <SCORE.INTRA.POLAR.0>
0

>  <SCORE.INTRA.REPUL>
0

>  <SCORE.INTRA.REPUL.0>
0

>  <SCORE.INTRA.SOLV>
0

>  <SCORE.INTRA.SOLV.lig_0>
-49.4056

>  <SCORE.INTRA.VDW>
0

>  <SCORE.INTRA.VDW.0>
0

>  <SCORE.INTRA.norm>
0

>  <SCORE.RESTR>
0

>  <SCORE.RESTR.CAVITY>
0

>  <SCORE.RESTR.norm>
0

>  <SCORE.SYSTEM>
0

>  <SCORE.SYSTEM.CONST>
0

>  <SCORE.SYSTEM.DIHEDRAL>
0

>  <SCORE.SYSTEM.SOLV>
0

>  <SCORE.SYSTEM.norm>
0

>  <SCORE.heavy>
11

>  <SCORE.norm>
-0.794749

>  <RMSD>
0.352

$$$$
ligand
 OpenBabel11021811503D
libRbt.so/2013.1/901 2013/11/27
 11 12  0  0  0  0  0  0  0  0999 V2000
    3.6581  -19.8106   26.0136 N   0  0  0  0  0  0  0  0  0  0  0  0
    3.3464  -19.3044   27.2323 C   0  0  0  0  0  0  0  0  0  0  0  0
    4.3419  -18.6578   28.0341 N   0  0  0  0  0  0  0  0  0  0  0  0
    2.0965  -19.4030   27.7190 N   0  0  0  0  0  0  0  0  0  0  0  0
    1.0950  -20.0124   26.9970 C   0  0  0  0  0  0  0  0  0  0  0  0
    1.3852  -20.5400   25.7522 C   0  0  0  0  0  0  0  0  0  0  0  0
    2.7203  -20.4272   25.2616 C   0  0  0  0  0  0  0  0  0  0  0  0
    3.0560  -20.9640   23.9782 N   0  0  0  0  0  0  0  0  0  0  0  0
    0.2106  -21.0840   25.2682 N   0  0  0  0  0  0  0  0  0  0  0  0
   -0.7625  -20.9031   26.1837 C   0  0  0  0  0  0  0  0  0  0  0  0
   -0.2487  -20.2538   27.2474 N   0  0  0  0  0  0  0  0  0  0  0  0
  1  7  2  0  0  0  0
  1  2  1  0  0  0  0
  2  3  1  0  0  0  0
  2  4  2  0  0  0  0
  4  5  1  0  0  0  0
  5  6  2  0  0  0  0
  5 11  1  0  0  0  0
  6  7  1  0  0  0  0
  6  9  1  0  0  0  0
  7  8  1  0  0  0  0
  9 10  1  0  0  0  0
 10 11  2  0  0  0  0
M  END
>  <CHROM.1>
1.92363516,-20.11578631,26.33867943,-0.39632848,-0.23367902,-2.02179608

>  <Name>
ligand

>  <RI>
0

>  <Rbt.Current_Directory>
/home/itssahil/PROJECTS/Mol_Feturizer/New_Systems/rnas/4LVZ

>  <Rbt.Executable>
rbdock ($Id: //depot/dev/client3/rdock/2013.1/src/exe/rbdock.cxx#4 $)

>  <Rbt.Library>
libRbt.so (2013.1, Build901 2013/11/27)

>  <Rbt.Parameter_File>
/export/apps/rDock/src/rDock_2013.1_src/data/scripts/dock_solv.prm

>  <Rbt.Receptor>
prm/pocket_docking_4.prm

>  <SCORE>
-8.68807

>  <SCORE.INTER>
-8.68807

>  <SCORE.INTER.CONST>
1

>  <SCORE.INTER.POLAR>
0

>  <SCORE.INTER.ROT>
0

>  <SCORE.INTER.SOLV>
16.6623

>  <SCORE.INTER.VDW>
-14.9461

>  <SCORE.INTER.norm>
-0.789825

>  <SCORE.INTRA>
0

>  <SCORE.INTRA.DIHEDRAL>
0

>  <SCORE.INTRA.DIHEDRAL.0>
0

>  <SCORE.INTRA.POLAR>
0

>  <SCORE.INTRA.POLAR.0>
0

>  <SCORE.INTRA.REPUL>
0

>  <SCORE.INTRA.REPUL.0>
0

>  <SCORE.INTRA.SOLV>
0

>  <SCORE.INTRA.SOLV.lig_0>
-49.4056

>  <SCORE.INTRA.VDW>
0

>  <SCORE.INTRA.VDW.0>
0

>  <SCORE.INTRA.norm>
0

>  <SCORE.RESTR>
0

>  <SCORE.RESTR.CAVITY>
0

>  <SCORE.RESTR.norm>
0

>  <SCORE.SYSTEM>
0

>  <SCORE.SYSTEM.CONST>
0

>  <SCORE.SYSTEM.DIHEDRAL>
0

>  <SCORE.SYSTEM.SOLV>
0

>  <SCORE.SYSTEM.norm>
0

>  <SCORE.heavy>
11

>  <SCORE.norm>
-0.789825

>  <RMSD>
0.354

$$$$
ligand
 OpenBabel11021811503D
libRbt.so/2013.1/901 2013/11/27
 11 12  0  0  0  0  0  0  0  0999 V2000
    3.7757  -19.9820   26.0293 N   0  0  0  0  0  0  0  0  0  0  0  0
    3.4203  -19.3606   27.1809 C   0  0  0  0  0  0  0  0  0  0  0  0
    4.3954  -18.6748   27.9751 N   0  0  0  0  0  0  0  0  0  0  0  0
    2.1449  -19.3789   27.6072 N   0  0  0  0  0  0  0  0  0  0  0  0
    1.1610  -20.0205   26.8889 C   0  0  0  0  0  0  0  0  0  0  0  0
    1.4956  -20.6649   25.7120 C   0  0  0  0  0  0  0  0  0  0  0  0
    2.8568  -20.6352   25.2851 C   0  0  0  0  0  0  0  0  0  0  0  0
    3.2383  -21.2935   24.0731 N   0  0  0  0  0  0  0  0  0  0  0  0
    0.3291  -21.2151   25.2155 N   0  0  0  0  0  0  0  0  0  0  0  0
   -0.6822  -20.9252   26.0586 C   0  0  0  0  0  0  0  0  0  0  0  0
   -0.2010  -20.1993   27.0875 N   0  0  0  0  0  0  0  0  0  0  0  0
  1  7  2  0  0  0  0
  1  2  1  0  0  0  0
  2  3  1  0  0  0  0
  2  4  2  0  0  0  0
  4  5  1  0  0  0  0
  5  6  2  0  0  0  0
  5 11  1  0  0  0  0
  6  7  1  0  0  0  0
  6  9  1  0  0  0  0
  7  8  1  0  0  0  0
  9 10  1  0  0  0  0
 10 11  2  0  0  0  0
M  END
>  <CHROM.1>
2.01780361,-20.20620238,26.28702726,-0.42745708,-0.18113105,-2.11640395

>  <Name>
ligand

>  <RI>
0

>  <Rbt.Current_Directory>
/home/itssahil/PROJECTS/Mol_Feturizer/New_Systems/rnas/4LVZ

>  <Rbt.Executable>
rbdock ($Id: //depot/dev/client3/rdock/2013.1/src/exe/rbdock.cxx#4 $)

>  <Rbt.Library>
libRbt.so (2013.1, Build901 2013/11/27)

>  <Rbt.Parameter_File>
/export/apps/rDock/src/rDock_2013.1_src/data/scripts/dock_solv.prm

>  <Rbt.Receptor>
prm/pocket_docking_7.prm

>  <SCORE>
-8.74155

>  <SCORE.INTER>
-8.74155

>  <SCORE.INTER.CONST>
1

>  <SCORE.INTER.POLAR>
0

>  <SCORE.INTER.ROT>
0

>  <SCORE.INTER.SOLV>
15.876

>  <SCORE.INTER.VDW>
-14.7197

>  <SCORE.INTER.norm>
-0.794686

>  <SCORE.INTRA>
0

>  <SCORE.INTRA.DIHEDRAL>
0

>  <SCORE.INTRA.DIHEDRAL.0>
0

>  <SCORE.INTRA.POLAR>
0

>  <SCORE.INTRA.POLAR.0>
0

>  <SCORE.INTRA.REPUL>
0

>  <SCORE.INTRA.REPUL.0>
0

>  <SCORE.INTRA.SOLV>
0

>  <SCORE.INTRA.SOLV.lig_0>
-49.4056

>  <SCORE.INTRA.VDW>
0

>  <SCORE.INTRA.VDW.0>
0

>  <SCORE.INTRA.norm>
0

>  <SCORE.RESTR>
0

>  <SCORE.RESTR.CAVITY>
0

>  <SCORE.RESTR.norm>
0

>  <SCORE.SYSTEM>
0

>  <SCORE.SYSTEM.CONST>
0

>  <SCORE.SYSTEM.DIHEDRAL>
0

>  <SCORE.SYSTEM.SOLV>
0

>  <SCORE.SYSTEM.norm>
0

>  <SCORE.heavy>
11

>  <SCORE.norm>
-0.794686

>  <RMSD>
0.356

$$$$
ligand
 OpenBabel11021811503D
libRbt.so/2013.1/901 2013/11/27
 11 12  0  0  0  0  0  0  0  0999 V2000
    3.8226  -20.0459   25.9257 N   0  0  0  0  0  0  0  0  0  0  0  0
    3.4859  -19.4202   27.0806 C   0  0  0  0  0  0  0  0  0  0  0  0
    4.4796  -18.7603   27.8737 N   0  0  0  0  0  0  0  0  0  0  0  0
    2.2118  -19.4099   27.5113 N   0  0  0  0  0  0  0  0  0  0  0  0
    1.2106  -20.0256   26.7942 C   0  0  0  0  0  0  0  0  0  0  0  0
    1.5260  -20.6737   25.6140 C   0  0  0  0  0  0  0  0  0  0  0  0
    2.8860  -20.6747   25.1825 C   0  0  0  0  0  0  0  0  0  0  0  0
    3.2478  -21.3376   23.9670 N   0  0  0  0  0  0  0  0  0  0  0  0
    0.3452  -21.1945   25.1197 N   0  0  0  0  0  0  0  0  0  0  0  0
   -0.6562  -20.8838   25.9673 C   0  0  0  0  0  0  0  0  0  0  0  0
   -0.1545  -20.1730   26.9969 N   0  0  0  0  0  0  0  0  0  0  0  0
  1  7  2  0  0  0  0
  1  2  1  0  0  0  0
  2  3  1  0  0  0  0
  2  4  2  0  0  0  0
  4  5  1  0  0  0  0
  5  6  2  0  0  0  0
  5 11  1  0  0  0  0
  6  7  1  0  0  0  0
  6  9  1  0  0  0  0
  7  8  1  0  0  0  0
  9 10  1  0  0  0  0
 10 11  2  0  0  0  0
M  END
>  <CHROM.1>
2.06078786,-20.22940762,26.18876754,-0.41211271,-0.16270033,-2.11038144

>  <Name>
ligand

>  <RI>
0

>  <Rbt.Current_Directory>
/home/itssahil/PROJECTS/Mol_Feturizer/New_Systems/rnas/4LVZ

>  <Rbt.Executable>
rbdock ($Id: //depot/dev/client3/rdock/2013.1/src/exe/rbdock.cxx#4 $)

>  <Rbt.Library>
libRbt.so (2013.1, Build901 2013/11/27)

>  <Rbt.Parameter_File>
/export/apps/rDock/src/rDock_2013.1_src/data/scripts/dock_solv.prm

>  <Rbt.Receptor>
prm/pocket_docking_8.prm

>  <SCORE>
-8.6864

>  <SCORE.INTER>
-8.6864

>  <SCORE.INTER.CONST>
1

>  <SCORE.INTER.POLAR>
0

>  <SCORE.INTER.ROT>
0

>  <SCORE.INTER.SOLV>
15.4317

>  <SCORE.INTER.VDW>
-14.5348

>  <SCORE.INTER.norm>
-0.789673

>  <SCORE.INTRA>
0

>  <SCORE.INTRA.DIHEDRAL>
0

>  <SCORE.INTRA.DIHEDRAL.0>
0

>  <SCORE.INTRA.POLAR>
0

>  <SCORE.INTRA.POLAR.0>
0

>  <SCORE.INTRA.REPUL>
0

>  <SCORE.INTRA.REPUL.0>
0

>  <SCORE.INTRA.SOLV>
0

>  <SCORE.INTRA.SOLV.lig_0>
-49.4056

>  <SCORE.INTRA.VDW>
0

>  <SCORE.INTRA.VDW.0>
0

>  <SCORE.INTRA.norm>
0

>  <SCORE.RESTR>
0

>  <SCORE.RESTR.CAVITY>
0

>  <SCORE.RESTR.norm>
0

>  <SCORE.SYSTEM>
0

>  <SCORE.SYSTEM.CONST>
0

>  <SCORE.SYSTEM.DIHEDRAL>
0

>  <SCORE.SYSTEM.SOLV>
0

>  <SCORE.SYSTEM.norm>
0

>  <SCORE.heavy>
11

>  <SCORE.norm>
-0.789673

>  <RMSD>
0.356

$$$$
ligand
 OpenBabel11021811503D
libRbt.so/2013.1/901 2013/11/27
 11 12  0  0  0  0  0  0  0  0999 V2000
    3.7524  -19.9669   26.0323 N   0  0  0  0  0  0  0  0  0  0  0  0
    3.4123  -19.3511   27.1915 C   0  0  0  0  0  0  0  0  0  0  0  0
    4.3988  -18.6733   27.9785 N   0  0  0  0  0  0  0  0  0  0  0  0
    2.1417  -19.3675   27.6321 N   0  0  0  0  0  0  0  0  0  0  0  0
    1.1474  -20.0013   26.9213 C   0  0  0  0  0  0  0  0  0  0  0  0
    1.4664  -20.6400   25.7369 C   0  0  0  0  0  0  0  0  0  0  0  0
    2.8227  -20.6126   25.2948 C   0  0  0  0  0  0  0  0  0  0  0  0
    3.1881  -21.2651   24.0747 N   0  0  0  0  0  0  0  0  0  0  0  0
    0.2924  -21.1832   25.2506 N   0  0  0  0  0  0  0  0  0  0  0  0
   -0.7082  -20.8948   26.1069 C   0  0  0  0  0  0  0  0  0  0  0  0
   -0.2128  -20.1766   27.1344 N   0  0  0  0  0  0  0  0  0  0  0  0
  1  7  2  0  0  0  0
  1  2  1  0  0  0  0
  2  3  1  0  0  0  0
  2  4  2  0  0  0  0
  4  5  1  0  0  0  0
  5  6  2  0  0  0  0
  5 11  1  0  0  0  0
  6  7  1  0  0  0  0
  6  9  1  0  0  0  0
  7  8  1  0  0  0  0
  9 10  1  0  0  0  0
 10 11  2  0  0  0  0
M  END
>  <CHROM.1>
1.99670162,-20.18650345,26.30867952,-0.41569886,-0.18397490,-2.10842463

>  <Name>
ligand

>  <RI>
0

>  <Rbt.Current_Directory>
/home/itssahil/PROJECTS/Mol_Feturizer/New_Systems/rnas/4LVZ

>  <Rbt.Executable>
rbdock ($Id: //depot/dev/client3/rdock/2013.1/src/exe/rbdock.cxx#4 $)

>  <Rbt.Library>
libRbt.so (2013.1, Build901 2013/11/27)

>  <Rbt.Parameter_File>
/export/apps/rDock/src/rDock_2013.1_src/data/scripts/dock_solv.prm

>  <Rbt.Receptor>
prm/pocket_docking_5.prm

>  <SCORE>
-8.7284

>  <SCORE.INTER>
-8.7284

>  <SCORE.INTER.CONST>
1

>  <SCORE.INTER.POLAR>
0

>  <SCORE.INTER.ROT>
0

>  <SCORE.INTER.SOLV>
16.0475

>  <SCORE.INTER.VDW>
-14.7681

>  <SCORE.INTER.norm>
-0.793491

>  <SCORE.INTRA>
0

>  <SCORE.INTRA.DIHEDRAL>
0

>  <SCORE.INTRA.DIHEDRAL.0>
0

>  <SCORE.INTRA.POLAR>
0

>  <SCORE.INTRA.POLAR.0>
0

>  <SCORE.INTRA.REPUL>
0

>  <SCORE.INTRA.REPUL.0>
0

>  <SCORE.INTRA.SOLV>
0

>  <SCORE.INTRA.SOLV.lig_0>
-49.4056

>  <SCORE.INTRA.VDW>
0

>  <SCORE.INTRA.VDW.0>
0

>  <SCORE.INTRA.norm>
0

>  <SCORE.RESTR>
0

>  <SCORE.RESTR.CAVITY>
0

>  <SCORE.RESTR.norm>
0

>  <SCORE.SYSTEM>
0

>  <SCORE.SYSTEM.CONST>
0

>  <SCORE.SYSTEM.DIHEDRAL>
0

>  <SCORE.SYSTEM.SOLV>
0

>  <SCORE.SYSTEM.norm>
0

>  <SCORE.heavy>
11

>  <SCORE.norm>
-0.793491

>  <RMSD>
0.358

$$$$
ligand
 OpenBabel11021811503D
libRbt.so/2013.1/901 2013/11/27
 11 12  0  0  0  0  0  0  0  0999 V2000
    3.7731  -19.9813   26.0326 N   0  0  0  0  0  0  0  0  0  0  0  0
    3.4186  -19.3562   27.1825 C   0  0  0  0  0  0  0  0  0  0  0  0
    4.3949  -18.6700   27.9750 N   0  0  0  0  0  0  0  0  0  0  0  0
    2.1431  -19.3711   27.6087 N   0  0  0  0  0  0  0  0  0  0  0  0
    1.1581  -20.0128   26.8920 C   0  0  0  0  0  0  0  0  0  0  0  0
    1.4917  -20.6610   25.7168 C   0  0  0  0  0  0  0  0  0  0  0  0
    2.8530  -20.6349   25.2901 C   0  0  0  0  0  0  0  0  0  0  0  0
    3.2335  -21.2971   24.0798 N   0  0  0  0  0  0  0  0  0  0  0  0
    0.3243  -21.2103   25.2217 N   0  0  0  0  0  0  0  0  0  0  0  0
   -0.6866  -20.9164   26.0640 C   0  0  0  0  0  0  0  0  0  0  0  0
   -0.2042  -20.1886   27.0909 N   0  0  0  0  0  0  0  0  0  0  0  0
  1  7  2  0  0  0  0
  1  2  1  0  0  0  0
  2  3  1  0  0  0  0
  2  4  2  0  0  0  0
  4  5  1  0  0  0  0
  5  6  2  0  0  0  0
  5 11  1  0  0  0  0
  6  7  1  0  0  0  0
  6  9  1  0  0  0  0
  7  8  1  0  0  0  0
  9 10  1  0  0  0  0
 10 11  2  0  0  0  0
M  END
>  <CHROM.1>
2.01468916,-20.20164561,26.29072610,-0.42659946,-0.17952529,-2.11893079

>  <Name>
ligand

>  <RI>
0

>  <Rbt.Current_Directory>
/home/itssahil/PROJECTS/Mol_Feturizer/New_Systems/rnas/4LVZ

>  <Rbt.Executable>
rbdock ($Id: //depot/dev/client3/rdock/2013.1/src/exe/rbdock.cxx#4 $)

>  <Rbt.Library>
libRbt.so (2013.1, Build901 2013/11/27)

>  <Rbt.Parameter_File>
/export/apps/rDock/src/rDock_2013.1_src/data/scripts/dock_solv.prm

>  <Rbt.Receptor>
prm/pocket_docking_4.prm

>  <SCORE>
-8.73933

>  <SCORE.INTER>
-8.73933

>  <SCORE.INTER.CONST>
1

>  <SCORE.INTER.POLAR>
0

>  <SCORE.INTER.ROT>
0

>  <SCORE.INTER.SOLV>
15.9066

>  <SCORE.INTER.VDW>
-14.7284

>  <SCORE.INTER.norm>
-0.794485

>  <SCORE.INTRA>
0

>  <SCORE.INTRA.DIHEDRAL>
0

>  <SCORE.INTRA.DIHEDRAL.0>
0

>  <SCORE.INTRA.POLAR>
0

>  <SCORE.INTRA.POLAR.0>
0

>  <SCORE.INTRA.REPUL>
0

>  <SCORE.INTRA.REPUL.0>
0

>  <SCORE.INTRA.SOLV>
0

>  <SCORE.INTRA.SOLV.lig_0>
-49.4056

>  <SCORE.INTRA.VDW>
0

>  <SCORE.INTRA.VDW.0>
0

>  <SCORE.INTRA.norm>
0

>  <SCORE.RESTR>
0

>  <SCORE.RESTR.CAVITY>
0

>  <SCORE.RESTR.norm>
0

>  <SCORE.SYSTEM>
0

>  <SCORE.SYSTEM.CONST>
0

>  <SCORE.SYSTEM.DIHEDRAL>
0

>  <SCORE.SYSTEM.SOLV>
0

>  <SCORE.SYSTEM.norm>
0

>  <SCORE.heavy>
11

>  <SCORE.norm>
-0.794485

>  <RMSD>
0.361

$$$$
ligand
 OpenBabel11021811503D
libRbt.so/2013.1/901 2013/11/27
 11 12  0  0  0  0  0  0  0  0999 V2000
    3.7385  -20.0098   26.0232 N   0  0  0  0  0  0  0  0  0  0  0  0
    3.3976  -19.3770   27.1730 C   0  0  0  0  0  0  0  0  0  0  0  0
    4.3846  -18.6921   27.9533 N   0  0  0  0  0  0  0  0  0  0  0  0
    2.1259  -19.3828   27.6106 N   0  0  0  0  0  0  0  0  0  0  0  0
    1.1312  -20.0228   26.9058 C   0  0  0  0  0  0  0  0  0  0  0  0
    1.4508  -20.6787   25.7311 C   0  0  0  0  0  0  0  0  0  0  0  0
    2.8084  -20.6620   25.2922 C   0  0  0  0  0  0  0  0  0  0  0  0
    3.1745  -21.3324   24.0820 N   0  0  0  0  0  0  0  0  0  0  0  0
    0.2761  -21.2242   25.2491 N   0  0  0  0  0  0  0  0  0  0  0  0
   -0.7256  -20.9206   26.0988 C   0  0  0  0  0  0  0  0  0  0  0  0
   -0.2303  -20.1903   27.1177 N   0  0  0  0  0  0  0  0  0  0  0  0
  1  7  2  0  0  0  0
  1  2  1  0  0  0  0
  2  3  1  0  0  0  0
  2  4  2  0  0  0  0
  4  5  1  0  0  0  0
  5  6  2  0  0  0  0
  5 11  1  0  0  0  0
  6  7  1  0  0  0  0
  6  9  1  0  0  0  0
  7  8  1  0  0  0  0
  9 10  1  0  0  0  0
 10 11  2  0  0  0  0
M  END
>  <CHROM.1>
1.98130895,-20.21928230,26.29799760,-0.41605854,-0.17958292,-2.12209527

>  <Name>
ligand

>  <RI>
0

>  <Rbt.Current_Directory>
/home/itssahil/PROJECTS/Mol_Feturizer/New_Systems/rnas/4LVZ

>  <Rbt.Executable>
rbdock ($Id: //depot/dev/client3/rdock/2013.1/src/exe/rbdock.cxx#4 $)

>  <Rbt.Library>
libRbt.so (2013.1, Build901 2013/11/27)

>  <Rbt.Parameter_File>
/export/apps/rDock/src/rDock_2013.1_src/data/scripts/dock_solv.prm

>  <Rbt.Receptor>
prm/pocket_docking_5.prm

>  <SCORE>
-8.71157

>  <SCORE.INTER>
-8.71157

>  <SCORE.INTER.CONST>
1

>  <SCORE.INTER.POLAR>
0

>  <SCORE.INTER.ROT>
0

>  <SCORE.INTER.SOLV>
16.1479

>  <SCORE.INTER.VDW>
-14.7903

>  <SCORE.INTER.norm>
-0.791961

>  <SCORE.INTRA>
0

>  <SCORE.INTRA.DIHEDRAL>
0

>  <SCORE.INTRA.DIHEDRAL.0>
0

>  <SCORE.INTRA.POLAR>
0

>  <SCORE.INTRA.POLAR.0>
0

>  <SCORE.INTRA.REPUL>
0

>  <SCORE.INTRA.REPUL.0>
0

>  <SCORE.INTRA.SOLV>
0

>  <SCORE.INTRA.SOLV.lig_0>
-49.4056

>  <SCORE.INTRA.VDW>
0

>  <SCORE.INTRA.VDW.0>
0

>  <SCORE.INTRA.norm>
0

>  <SCORE.RESTR>
0

>  <SCORE.RESTR.CAVITY>
0

>  <SCORE.RESTR.norm>
0

>  <SCORE.SYSTEM>
0

>  <SCORE.SYSTEM.CONST>
0

>  <SCORE.SYSTEM.DIHEDRAL>
0

>  <SCORE.SYSTEM.SOLV>
0

>  <SCORE.SYSTEM.norm>
0

>  <SCORE.heavy>
11

>  <SCORE.norm>
-0.791961

>  <RMSD>
0.362

$$$$
ligand
 OpenBabel11021811503D
libRbt.so/2013.1/901 2013/11/27
 11 12  0  0  0  0  0  0  0  0999 V2000
    3.7758  -19.9782   26.0278 N   0  0  0  0  0  0  0  0  0  0  0  0
    3.4172  -19.3655   27.1831 C   0  0  0  0  0  0  0  0  0  0  0  0
    4.3917  -18.6935   27.9897 N   0  0  0  0  0  0  0  0  0  0  0  0
    2.1390  -19.3798   27.6014 N   0  0  0  0  0  0  0  0  0  0  0  0
    1.1556  -20.0082   26.8710 C   0  0  0  0  0  0  0  0  0  0  0  0
    1.4934  -20.6436   25.6900 C   0  0  0  0  0  0  0  0  0  0  0  0
    2.8573  -20.6184   25.2718 C   0  0  0  0  0  0  0  0  0  0  0  0
    3.2422  -21.2676   24.0559 N   0  0  0  0  0  0  0  0  0  0  0  0
    0.3265  -21.1816   25.1812 N   0  0  0  0  0  0  0  0  0  0  0  0
   -0.6881  -20.8933   26.0209 C   0  0  0  0  0  0  0  0  0  0  0  0
   -0.2087  -20.1803   27.0595 N   0  0  0  0  0  0  0  0  0  0  0  0
  1  7  2  0  0  0  0
  1  2  1  0  0  0  0
  2  3  1  0  0  0  0
  2  4  2  0  0  0  0
  4  5  1  0  0  0  0
  5  6  2  0  0  0  0
  5 11  1  0  0  0  0
  6  7  1  0  0  0  0
  6  9  1  0  0  0  0
  7  8  1  0  0  0  0
  9 10  1  0  0  0  0
 10 11  2  0  0  0  0
M  END
>  <CHROM.1>
2.01488880,-20.19364111,26.27262382,-0.42948974,-0.17255611,-2.10723797

>  <Name>
ligand

>  <RI>
0

>  <Rbt.Current_Directory>
/home/itssahil/PROJECTS/Mol_Feturizer/New_Systems/rnas/4LVZ

>  <Rbt.Executable>
rbdock ($Id: //depot/dev/client3/rdock/2013.1/src/exe/rbdock.cxx#4 $)

>  <Rbt.Library>
libRbt.so (2013.1, Build901 2013/11/27)

>  <Rbt.Parameter_File>
/export/apps/rDock/src/rDock_2013.1_src/data/scripts/dock_solv.prm

>  <Rbt.Receptor>
prm/pocket_docking_8.prm

>  <SCORE>
-8.71374

>  <SCORE.INTER>
-8.71374

>  <SCORE.INTER.CONST>
1

>  <SCORE.INTER.POLAR>
0

>  <SCORE.INTER.ROT>
0

>  <SCORE.INTER.SOLV>
15.866

>  <SCORE.INTER.VDW>
-14.6978

>  <SCORE.INTER.norm>
-0.792158

>  <SCORE.INTRA>
0

>  <SCORE.INTRA.DIHEDRAL>
0

>  <SCORE.INTRA.DIHEDRAL.0>
0

>  <SCORE.INTRA.POLAR>
0

>  <SCORE.INTRA.POLAR.0>
0

>  <SCORE.INTRA.REPUL>
0

>  <SCORE.INTRA.REPUL.0>
0

>  <SCORE.INTRA.SOLV>
0

>  <SCORE.INTRA.SOLV.lig_0>
-49.4056

>  <SCORE.INTRA.VDW>
0

>  <SCORE.INTRA.VDW.0>
0

>  <SCORE.INTRA.norm>
0

>  <SCORE.RESTR>
0

>  <SCORE.RESTR.CAVITY>
0

>  <SCORE.RESTR.norm>
0

>  <SCORE.SYSTEM>
0

>  <SCORE.SYSTEM.CONST>
0

>  <SCORE.SYSTEM.DIHEDRAL>
0

>  <SCORE.SYSTEM.SOLV>
0

>  <SCORE.SYSTEM.norm>
0

>  <SCORE.heavy>
11

>  <SCORE.norm>
-0.792158

>  <RMSD>
0.366

$$$$
ligand
 OpenBabel11021811503D
libRbt.so/2013.1/901 2013/11/27
 11 12  0  0  0  0  0  0  0  0999 V2000
    3.8197  -20.0613   25.9693 N   0  0  0  0  0  0  0  0  0  0  0  0
    3.4620  -19.4270   27.1131 C   0  0  0  0  0  0  0  0  0  0  0  0
    4.4405  -18.7575   27.9170 N   0  0  0  0  0  0  0  0  0  0  0  0
    2.1809  -19.4167   27.5224 N   0  0  0  0  0  0  0  0  0  0  0  0
    1.1935  -20.0414   26.7940 C   0  0  0  0  0  0  0  0  0  0  0  0
    1.5303  -20.6985   25.6247 C   0  0  0  0  0  0  0  0  0  0  0  0
    2.8973  -20.6991   25.2160 C   0  0  0  0  0  0  0  0  0  0  0  0
    3.2812  -21.3713   24.0123 N   0  0  0  0  0  0  0  0  0  0  0  0
    0.3594  -21.2269   25.1153 N   0  0  0  0  0  0  0  0  0  0  0  0
   -0.6568  -20.9119   25.9434 C   0  0  0  0  0  0  0  0  0  0  0  0
   -0.1744  -20.1910   26.9752 N   0  0  0  0  0  0  0  0  0  0  0  0
  1  7  2  0  0  0  0
  1  2  1  0  0  0  0
  2  3  1  0  0  0  0
  2  4  2  0  0  0  0
  4  5  1  0  0  0  0
  5  6  2  0  0  0  0
  5 11  1  0  0  0  0
  6  7  1  0  0  0  0
  6  9  1  0  0  0  0
  7  8  1  0  0  0  0
  9 10  1  0  0  0  0
 10 11  2  0  0  0  0
M  END
>  <CHROM.1>
2.05421818,-20.24779063,26.20453284,-0.42804632,-0.15647708,-2.12139036

>  <Name>
ligand

>  <RI>
0

>  <Rbt.Current_Directory>
/home/itssahil/PROJECTS/Mol_Feturizer/New_Systems/rnas/4LVZ

>  <Rbt.Executable>
rbdock ($Id: //depot/dev/client3/rdock/2013.1/src/exe/rbdock.cxx#4 $)

>  <Rbt.Library>
libRbt.so (2013.1, Build901 2013/11/27)

>  <Rbt.Parameter_File>
/export/apps/rDock/src/rDock_2013.1_src/data/scripts/dock_solv.prm

>  <Rbt.Receptor>
prm/pocket_docking_5.prm

>  <SCORE>
-8.6762

>  <SCORE.INTER>
-8.6762

>  <SCORE.INTER.CONST>
1

>  <SCORE.INTER.POLAR>
0

>  <SCORE.INTER.ROT>
0

>  <SCORE.INTER.SOLV>
15.4655

>  <SCORE.INTER.VDW>
-14.5393

>  <SCORE.INTER.norm>
-0.788746

>  <SCORE.INTRA>
0

>  <SCORE.INTRA.DIHEDRAL>
0

>  <SCORE.INTRA.DIHEDRAL.0>
0

>  <SCORE.INTRA.POLAR>
0

>  <SCORE.INTRA.POLAR.0>
0

>  <SCORE.INTRA.REPUL>
0

>  <SCORE.INTRA.REPUL.0>
0

>  <SCORE.INTRA.SOLV>
0

>  <SCORE.INTRA.SOLV.lig_0>
-49.4056

>  <SCORE.INTRA.VDW>
0

>  <SCORE.INTRA.VDW.0>
0

>  <SCORE.INTRA.norm>
0

>  <SCORE.RESTR>
0

>  <SCORE.RESTR.CAVITY>
0

>  <SCORE.RESTR.norm>
0

>  <SCORE.SYSTEM>
0

>  <SCORE.SYSTEM.CONST>
0

>  <SCORE.SYSTEM.DIHEDRAL>
0

>  <SCORE.SYSTEM.SOLV>
0

>  <SCORE.SYSTEM.norm>
0

>  <SCORE.heavy>
11

>  <SCORE.norm>
-0.788746

>  <RMSD>
0.368

$$$$
ligand
 OpenBabel11021811503D
libRbt.so/2013.1/901 2013/11/27
 11 12  0  0  0  0  0  0  0  0999 V2000
    3.7924  -20.0495   25.9790 N   0  0  0  0  0  0  0  0  0  0  0  0
    3.4144  -19.4198   27.1188 C   0  0  0  0  0  0  0  0  0  0  0  0
    4.3749  -18.7340   27.9306 N   0  0  0  0  0  0  0  0  0  0  0  0
    2.1297  -19.4296   27.5166 N   0  0  0  0  0  0  0  0  0  0  0  0
    1.1590  -20.0707   26.7801 C   0  0  0  0  0  0  0  0  0  0  0  0
    1.5166  -20.7235   25.6147 C   0  0  0  0  0  0  0  0  0  0  0  0
    2.8871  -20.7027   25.2182 C   0  0  0  0  0  0  0  0  0  0  0  0
    3.2924  -21.3699   24.0187 N   0  0  0  0  0  0  0  0  0  0  0  0
    0.3589  -21.2710   25.0954 N   0  0  0  0  0  0  0  0  0  0  0  0
   -0.6696  -20.9715   25.9141 C   0  0  0  0  0  0  0  0  0  0  0  0
   -0.2080  -20.2419   26.9493 N   0  0  0  0  0  0  0  0  0  0  0  0
  1  7  2  0  0  0  0
  1  2  1  0  0  0  0
  2  3  1  0  0  0  0
  2  4  2  0  0  0  0
  4  5  1  0  0  0  0
  5  6  2  0  0  0  0
  5 11  1  0  0  0  0
  6  7  1  0  0  0  0
  6  9  1  0  0  0  0
  7  8  1  0  0  0  0
  9 10  1  0  0  0  0
 10 11  2  0  0  0  0
M  END
>  <CHROM.1>
2.02808220,-20.26391239,26.19862904,-0.44423895,-0.16537867,-2.12506166

>  <Name>
ligand

>  <RI>
0

>  <Rbt.Current_Directory>
/home/itssahil/PROJECTS/Mol_Feturizer/New_Systems/rnas/4LVZ

>  <Rbt.Executable>
rbdock ($Id: //depot/dev/client3/rdock/2013.1/src/exe/rbdock.cxx#4 $)

>  <Rbt.Library>
libRbt.so (2013.1, Build901 2013/11/27)

>  <Rbt.Parameter_File>
/export/apps/rDock/src/rDock_2013.1_src/data/scripts/dock_solv.prm

>  <Rbt.Receptor>
prm/pocket_docking_4.prm

>  <SCORE>
-8.72674

>  <SCORE.INTER>
-8.72674

>  <SCORE.INTER.CONST>
1

>  <SCORE.INTER.POLAR>
0

>  <SCORE.INTER.ROT>
0

>  <SCORE.INTER.SOLV>
15.6889

>  <SCORE.INTER.VDW>
-14.6475

>  <SCORE.INTER.norm>
-0.79334

>  <SCORE.INTRA>
0

>  <SCORE.INTRA.DIHEDRAL>
0

>  <SCORE.INTRA.DIHEDRAL.0>
0

>  <SCORE.INTRA.POLAR>
0

>  <SCORE.INTRA.POLAR.0>
0

>  <SCORE.INTRA.REPUL>
0

>  <SCORE.INTRA.REPUL.0>
0

>  <SCORE.INTRA.SOLV>
0

>  <SCORE.INTRA.SOLV.lig_0>
-49.4056

>  <SCORE.INTRA.VDW>
0

>  <SCORE.INTRA.VDW.0>
0

>  <SCORE.INTRA.norm>
0

>  <SCORE.RESTR>
0

>  <SCORE.RESTR.CAVITY>
0

>  <SCORE.RESTR.norm>
0

>  <SCORE.SYSTEM>
0

>  <SCORE.SYSTEM.CONST>
0

>  <SCORE.SYSTEM.DIHEDRAL>
0

>  <SCORE.SYSTEM.SOLV>
0

>  <SCORE.SYSTEM.norm>
0

>  <SCORE.heavy>
11

>  <SCORE.norm>
-0.79334

>  <RMSD>
0.377

$$$$
ligand
 OpenBabel11021811503D
libRbt.so/2013.1/901 2013/11/27
 11 12  0  0  0  0  0  0  0  0999 V2000
    3.7622  -20.0009   26.0353 N   0  0  0  0  0  0  0  0  0  0  0  0
    3.3873  -19.3918   27.1873 C   0  0  0  0  0  0  0  0  0  0  0  0
    4.3503  -18.7222   28.0096 N   0  0  0  0  0  0  0  0  0  0  0  0
    2.1034  -19.4075   27.5875 N   0  0  0  0  0  0  0  0  0  0  0  0
    1.1304  -20.0337   26.8414 C   0  0  0  0  0  0  0  0  0  0  0  0
    1.4849  -20.6654   25.6634 C   0  0  0  0  0  0  0  0  0  0  0  0
    2.8546  -20.6389   25.2644 C   0  0  0  0  0  0  0  0  0  0  0  0
    3.2566  -21.2843   24.0521 N   0  0  0  0  0  0  0  0  0  0  0  0
    0.3254  -21.2019   25.1365 N   0  0  0  0  0  0  0  0  0  0  0  0
   -0.7010  -20.9164   25.9627 C   0  0  0  0  0  0  0  0  0  0  0  0
   -0.2364  -20.2065   27.0102 N   0  0  0  0  0  0  0  0  0  0  0  0
  1  7  2  0  0  0  0
  1  2  1  0  0  0  0
  2  3  1  0  0  0  0
  2  4  2  0  0  0  0
  4  5  1  0  0  0  0
  5  6  2  0  0  0  0
  5 11  1  0  0  0  0
  6  7  1  0  0  0  0
  6  9  1  0  0  0  0
  7  8  1  0  0  0  0
  9 10  1  0  0  0  0
 10 11  2  0  0  0  0
M  END
>  <CHROM.1>
1.99810276,-20.21724453,26.25460920,-0.44181806,-0.16545606,-2.10622767

>  <Name>
ligand

>  <RI>
0

>  <Rbt.Current_Directory>
/home/itssahil/PROJECTS/Mol_Feturizer/New_Systems/rnas/4LVZ

>  <Rbt.Executable>
rbdock ($Id: //depot/dev/client3/rdock/2013.1/src/exe/rbdock.cxx#4 $)

>  <Rbt.Library>
libRbt.so (2013.1, Build901 2013/11/27)

>  <Rbt.Parameter_File>
/export/apps/rDock/src/rDock_2013.1_src/data/scripts/dock_solv.prm

>  <Rbt.Receptor>
prm/pocket_docking_4.prm

>  <SCORE>
-8.71934

>  <SCORE.INTER>
-8.71934

>  <SCORE.INTER.CONST>
1

>  <SCORE.INTER.POLAR>
0

>  <SCORE.INTER.ROT>
0

>  <SCORE.INTER.SOLV>
15.9489

>  <SCORE.INTER.VDW>
-14.7292

>  <SCORE.INTER.norm>
-0.792667

>  <SCORE.INTRA>
0

>  <SCORE.INTRA.DIHEDRAL>
0

>  <SCORE.INTRA.DIHEDRAL.0>
0

>  <SCORE.INTRA.POLAR>
0

>  <SCORE.INTRA.POLAR.0>
0

>  <SCORE.INTRA.REPUL>
0

>  <SCORE.INTRA.REPUL.0>
0

>  <SCORE.INTRA.SOLV>
0

>  <SCORE.INTRA.SOLV.lig_0>
-49.4056

>  <SCORE.INTRA.VDW>
0

>  <SCORE.INTRA.VDW.0>
0

>  <SCORE.INTRA.norm>
0

>  <SCORE.RESTR>
0

>  <SCORE.RESTR.CAVITY>
0

>  <SCORE.RESTR.norm>
0

>  <SCORE.SYSTEM>
0

>  <SCORE.SYSTEM.CONST>
0

>  <SCORE.SYSTEM.DIHEDRAL>
0

>  <SCORE.SYSTEM.SOLV>
0

>  <SCORE.SYSTEM.norm>
0

>  <SCORE.heavy>
11

>  <SCORE.norm>
-0.792667

>  <RMSD>
0.377

$$$$
ligand
 OpenBabel11021811503D
libRbt.so/2013.1/901 2013/11/27
 11 12  0  0  0  0  0  0  0  0999 V2000
    3.7464  -19.9896   26.0400 N   0  0  0  0  0  0  0  0  0  0  0  0
    3.4044  -19.3533   27.1875 C   0  0  0  0  0  0  0  0  0  0  0  0
    4.3916  -18.6713   27.9700 N   0  0  0  0  0  0  0  0  0  0  0  0
    2.1311  -19.3530   27.6207 N   0  0  0  0  0  0  0  0  0  0  0  0
    1.1361  -19.9899   26.9138 C   0  0  0  0  0  0  0  0  0  0  0  0
    1.4569  -20.6492   25.7413 C   0  0  0  0  0  0  0  0  0  0  0  0
    2.8160  -20.6392   25.3069 C   0  0  0  0  0  0  0  0  0  0  0  0
    3.1834  -21.3132   24.0992 N   0  0  0  0  0  0  0  0  0  0  0  0
    0.2815  -21.1906   25.2562 N   0  0  0  0  0  0  0  0  0  0  0  0
   -0.7218  -20.8812   26.1020 C   0  0  0  0  0  0  0  0  0  0  0  0
   -0.2268  -20.1512   27.1213 N   0  0  0  0  0  0  0  0  0  0  0  0
  1  7  2  0  0  0  0
  1  2  1  0  0  0  0
  2  3  1  0  0  0  0
  2  4  2  0  0  0  0
  4  5  1  0  0  0  0
  5  6  2  0  0  0  0
  5 11  1  0  0  0  0
  6  7  1  0  0  0  0
  6  9  1  0  0  0  0
  7  8  1  0  0  0  0
  9 10  1  0  0  0  0
 10 11  2  0  0  0  0
M  END
>  <CHROM.1>
1.98742883,-20.19112196,26.30917086,-0.41671020,-0.17415440,-2.12395948

>  <Name>
ligand

>  <RI>
0

>  <Rbt.Current_Directory>
/home/itssahil/PROJECTS/Mol_Feturizer/New_Systems/rnas/4LVZ

>  <Rbt.Executable>
rbdock ($Id: //depot/dev/client3/rdock/2013.1/src/exe/rbdock.cxx#4 $)

>  <Rbt.Library>
libRbt.so (2013.1, Build901 2013/11/27)

>  <Rbt.Parameter_File>
/export/apps/rDock/src/rDock_2013.1_src/data/scripts/dock_solv.prm

>  <Rbt.Receptor>
prm/pocket_docking_5.prm

>  <SCORE>
-8.71709

>  <SCORE.INTER>
-8.71709

>  <SCORE.INTER.CONST>
1

>  <SCORE.INTER.POLAR>
0

>  <SCORE.INTER.ROT>
0

>  <SCORE.INTER.SOLV>
16.127

>  <SCORE.INTER.VDW>
-14.7871

>  <SCORE.INTER.norm>
-0.792463

>  <SCORE.INTRA>
0

>  <SCORE.INTRA.DIHEDRAL>
0

>  <SCORE.INTRA.DIHEDRAL.0>
0

>  <SCORE.INTRA.POLAR>
0

>  <SCORE.INTRA.POLAR.0>
0

>  <SCORE.INTRA.REPUL>
0

>  <SCORE.INTRA.REPUL.0>
0

>  <SCORE.INTRA.SOLV>
0

>  <SCORE.INTRA.SOLV.lig_0>
-49.4056

>  <SCORE.INTRA.VDW>
0

>  <SCORE.INTRA.VDW.0>
0

>  <SCORE.INTRA.norm>
0

>  <SCORE.RESTR>
0

>  <SCORE.RESTR.CAVITY>
0

>  <SCORE.RESTR.norm>
0

>  <SCORE.SYSTEM>
0

>  <SCORE.SYSTEM.CONST>
0

>  <SCORE.SYSTEM.DIHEDRAL>
0

>  <SCORE.SYSTEM.SOLV>
0

>  <SCORE.SYSTEM.norm>
0

>  <SCORE.heavy>
11

>  <SCORE.norm>
-0.792463

>  <RMSD>
0.377

$$$$
ligand
 OpenBabel11021811503D
libRbt.so/2013.1/901 2013/11/27
 11 12  0  0  0  0  0  0  0  0999 V2000
    3.7933  -20.0019   26.0030 N   0  0  0  0  0  0  0  0  0  0  0  0
    3.4252  -19.3812   27.1510 C   0  0  0  0  0  0  0  0  0  0  0  0
    4.3941  -18.7088   27.9642 N   0  0  0  0  0  0  0  0  0  0  0  0
    2.1427  -19.3877   27.5558 N   0  0  0  0  0  0  0  0  0  0  0  0
    1.1643  -20.0160   26.8185 C   0  0  0  0  0  0  0  0  0  0  0  0
    1.5118  -20.6594   25.6448 C   0  0  0  0  0  0  0  0  0  0  0  0
    2.8802  -20.6425   25.2409 C   0  0  0  0  0  0  0  0  0  0  0  0
    3.2750  -21.3001   24.0328 N   0  0  0  0  0  0  0  0  0  0  0  0
    0.3481  -21.1952   25.1267 N   0  0  0  0  0  0  0  0  0  0  0  0
   -0.6741  -20.8979   25.9540 C   0  0  0  0  0  0  0  0  0  0  0  0
   -0.2027  -20.1811   26.9936 N   0  0  0  0  0  0  0  0  0  0  0  0
  1  7  2  0  0  0  0
  1  2  1  0  0  0  0
  2  3  1  0  0  0  0
  2  4  2  0  0  0  0
  4  5  1  0  0  0  0
  5  6  2  0  0  0  0
  5 11  1  0  0  0  0
  6  7  1  0  0  0  0
  6  9  1  0  0  0  0
  7  8  1  0  0  0  0
  9 10  1  0  0  0  0
 10 11  2  0  0  0  0
M  END
>  <CHROM.1>
2.02906999,-20.20842586,26.23038708,-0.43645112,-0.16341370,-2.11400346

>  <Name>
ligand

>  <RI>
0

>  <Rbt.Current_Directory>
/home/itssahil/PROJECTS/Mol_Feturizer/New_Systems/rnas/4LVZ

>  <Rbt.Executable>
rbdock ($Id: //depot/dev/client3/rdock/2013.1/src/exe/rbdock.cxx#4 $)

>  <Rbt.Library>
libRbt.so (2013.1, Build901 2013/11/27)

>  <Rbt.Parameter_File>
/export/apps/rDock/src/rDock_2013.1_src/data/scripts/dock_solv.prm

>  <Rbt.Receptor>
prm/pocket_docking_7.prm

>  <SCORE>
-8.74089

>  <SCORE.INTER>
-8.74089

>  <SCORE.INTER.CONST>
1

>  <SCORE.INTER.POLAR>
0

>  <SCORE.INTER.ROT>
0

>  <SCORE.INTER.SOLV>
15.7291

>  <SCORE.INTER.VDW>
-14.6703

>  <SCORE.INTER.norm>
-0.794627

>  <SCORE.INTRA>
0

>  <SCORE.INTRA.DIHEDRAL>
0

>  <SCORE.INTRA.DIHEDRAL.0>
0

>  <SCORE.INTRA.POLAR>
0

>  <SCORE.INTRA.POLAR.0>
0

>  <SCORE.INTRA.REPUL>
0

>  <SCORE.INTRA.REPUL.0>
0

>  <SCORE.INTRA.SOLV>
0

>  <SCORE.INTRA.SOLV.lig_0>
-49.4056

>  <SCORE.INTRA.VDW>
0

>  <SCORE.INTRA.VDW.0>
0

>  <SCORE.INTRA.norm>
0

>  <SCORE.RESTR>
0

>  <SCORE.RESTR.CAVITY>
0

>  <SCORE.RESTR.norm>
0

>  <SCORE.SYSTEM>
0

>  <SCORE.SYSTEM.CONST>
0

>  <SCORE.SYSTEM.DIHEDRAL>
0

>  <SCORE.SYSTEM.SOLV>
0

>  <SCORE.SYSTEM.norm>
0

>  <SCORE.heavy>
11

>  <SCORE.norm>
-0.794627

>  <RMSD>
0.377

$$$$
ligand
 OpenBabel11021811503D
libRbt.so/2013.1/901 2013/11/27
 11 12  0  0  0  0  0  0  0  0999 V2000
    3.7883  -20.0243   25.9889 N   0  0  0  0  0  0  0  0  0  0  0  0
    3.4053  -19.3964   27.1281 C   0  0  0  0  0  0  0  0  0  0  0  0
    4.3611  -18.7062   27.9418 N   0  0  0  0  0  0  0  0  0  0  0  0
    2.1199  -19.4121   27.5235 N   0  0  0  0  0  0  0  0  0  0  0  0
    1.1535  -20.0575   26.7851 C   0  0  0  0  0  0  0  0  0  0  0  0
    1.5163  -20.7086   25.6203 C   0  0  0  0  0  0  0  0  0  0  0  0
    2.8875  -20.6815   25.2264 C   0  0  0  0  0  0  0  0  0  0  0  0
    3.2980  -21.3467   24.0276 N   0  0  0  0  0  0  0  0  0  0  0  0
    0.3621  -21.2614   25.0988 N   0  0  0  0  0  0  0  0  0  0  0  0
   -0.6693  -20.9666   25.9156 C   0  0  0  0  0  0  0  0  0  0  0  0
   -0.2129  -20.2350   26.9517 N   0  0  0  0  0  0  0  0  0  0  0  0
  1  7  2  0  0  0  0
  1  2  1  0  0  0  0
  2  3  1  0  0  0  0
  2  4  2  0  0  0  0
  4  5  1  0  0  0  0
  5  6  2  0  0  0  0
  5 11  1  0  0  0  0
  6  7  1  0  0  0  0
  6  9  1  0  0  0  0
  7  8  1  0  0  0  0
  9 10  1  0  0  0  0
 10 11  2  0  0  0  0
M  END
>  <CHROM.1>
2.02461213,-20.24672096,26.20524977,-0.44829486,-0.16828496,-2.12564389

>  <Name>
ligand

>  <RI>
0

>  <Rbt.Current_Directory>
/home/itssahil/PROJECTS/Mol_Feturizer/New_Systems/rnas/4LVZ

>  <Rbt.Executable>
rbdock ($Id: //depot/dev/client3/rdock/2013.1/src/exe/rbdock.cxx#4 $)

>  <Rbt.Library>
libRbt.so (2013.1, Build901 2013/11/27)

>  <Rbt.Parameter_File>
/export/apps/rDock/src/rDock_2013.1_src/data/scripts/dock_solv.prm

>  <Rbt.Receptor>
prm/pocket_docking_6.prm

>  <SCORE>
-8.70498

>  <SCORE.INTER>
-8.70498

>  <SCORE.INTER.CONST>
1

>  <SCORE.INTER.POLAR>
0

>  <SCORE.INTER.ROT>
0

>  <SCORE.INTER.SOLV>
15.772

>  <SCORE.INTER.VDW>
-14.6607

>  <SCORE.INTER.norm>
-0.791361

>  <SCORE.INTRA>
0

>  <SCORE.INTRA.DIHEDRAL>
0

>  <SCORE.INTRA.DIHEDRAL.0>
0

>  <SCORE.INTRA.POLAR>
0

>  <SCORE.INTRA.POLAR.0>
0

>  <SCORE.INTRA.REPUL>
0

>  <SCORE.INTRA.REPUL.0>
0

>  <SCORE.INTRA.SOLV>
0

>  <SCORE.INTRA.SOLV.lig_0>
-49.4056

>  <SCORE.INTRA.VDW>
0

>  <SCORE.INTRA.VDW.0>
0

>  <SCORE.INTRA.norm>
0

>  <SCORE.RESTR>
0

>  <SCORE.RESTR.CAVITY>
0

>  <SCORE.RESTR.norm>
0

>  <SCORE.SYSTEM>
0

>  <SCORE.SYSTEM.CONST>
0

>  <SCORE.SYSTEM.DIHEDRAL>
0

>  <SCORE.SYSTEM.SOLV>
0

>  <SCORE.SYSTEM.norm>
0

>  <SCORE.heavy>
11

>  <SCORE.norm>
-0.791361

>  <RMSD>
0.381

$$$$
ligand
 OpenBabel11021811503D
libRbt.so/2013.1/901 2013/11/27
 11 12  0  0  0  0  0  0  0  0999 V2000
    3.7918  -20.0151   26.0159 N   0  0  0  0  0  0  0  0  0  0  0  0
    3.4211  -19.3896   27.1604 C   0  0  0  0  0  0  0  0  0  0  0  0
    4.3890  -18.7183   27.9756 N   0  0  0  0  0  0  0  0  0  0  0  0
    2.1368  -19.3900   27.5597 N   0  0  0  0  0  0  0  0  0  0  0  0
    1.1592  -20.0169   26.8202 C   0  0  0  0  0  0  0  0  0  0  0  0
    1.5093  -20.6652   25.6500 C   0  0  0  0  0  0  0  0  0  0  0  0
    2.8794  -20.6547   25.2518 C   0  0  0  0  0  0  0  0  0  0  0  0
    3.2770  -21.3175   24.0474 N   0  0  0  0  0  0  0  0  0  0  0  0
    0.3458  -21.1983   25.1285 N   0  0  0  0  0  0  0  0  0  0  0  0
   -0.6788  -20.8947   25.9505 C   0  0  0  0  0  0  0  0  0  0  0  0
   -0.2090  -20.1765   26.9900 N   0  0  0  0  0  0  0  0  0  0  0  0
  1  7  2  0  0  0  0
  1  2  1  0  0  0  0
  2  3  1  0  0  0  0
  2  4  2  0  0  0  0
  4  5  1  0  0  0  0
  5  6  2  0  0  0  0
  5 11  1  0  0  0  0
  6  7  1  0  0  0  0
  6  9  1  0  0  0  0
  7  8  1  0  0  0  0
  9 10  1  0  0  0  0
 10 11  2  0  0  0  0
M  END
>  <CHROM.1>
2.02579164,-20.21441206,26.23633812,-0.43817461,-0.15802691,-2.11735231

>  <Name>
ligand

>  <RI>
0

>  <Rbt.Current_Directory>
/home/itssahil/PROJECTS/Mol_Feturizer/New_Systems/rnas/4LVZ

>  <Rbt.Executable>
rbdock ($Id: //depot/dev/client3/rdock/2013.1/src/exe/rbdock.cxx#4 $)

>  <Rbt.Library>
libRbt.so (2013.1, Build901 2013/11/27)

>  <Rbt.Parameter_File>
/export/apps/rDock/src/rDock_2013.1_src/data/scripts/dock_solv.prm

>  <Rbt.Receptor>
prm/pocket_docking_5.prm

>  <SCORE>
-8.73843

>  <SCORE.INTER>
-8.73843

>  <SCORE.INTER.CONST>
1

>  <SCORE.INTER.POLAR>
0

>  <SCORE.INTER.ROT>
0

>  <SCORE.INTER.SOLV>
15.7356

>  <SCORE.INTER.VDW>
-14.6708

>  <SCORE.INTER.norm>
-0.794403

>  <SCORE.INTRA>
0

>  <SCORE.INTRA.DIHEDRAL>
0

>  <SCORE.INTRA.DIHEDRAL.0>
0

>  <SCORE.INTRA.POLAR>
0

>  <SCORE.INTRA.POLAR.0>
0

>  <SCORE.INTRA.REPUL>
0

>  <SCORE.INTRA.REPUL.0>
0

>  <SCORE.INTRA.SOLV>
0

>  <SCORE.INTRA.SOLV.lig_0>
-49.4056

>  <SCORE.INTRA.VDW>
0

>  <SCORE.INTRA.VDW.0>
0

>  <SCORE.INTRA.norm>
0

>  <SCORE.RESTR>
0

>  <SCORE.RESTR.CAVITY>
0

>  <SCORE.RESTR.norm>
0

>  <SCORE.SYSTEM>
0

>  <SCORE.SYSTEM.CONST>
0

>  <SCORE.SYSTEM.DIHEDRAL>
0

>  <SCORE.SYSTEM.SOLV>
0

>  <SCORE.SYSTEM.norm>
0

>  <SCORE.heavy>
11

>  <SCORE.norm>
-0.794403

>  <RMSD>
0.382

$$$$
ligand
 OpenBabel11021811503D
libRbt.so/2013.1/901 2013/11/27
 11 12  0  0  0  0  0  0  0  0999 V2000
    3.7963  -20.0260   26.0207 N   0  0  0  0  0  0  0  0  0  0  0  0
    3.4237  -19.3877   27.1576 C   0  0  0  0  0  0  0  0  0  0  0  0
    4.3897  -18.7050   27.9654 N   0  0  0  0  0  0  0  0  0  0  0  0
    2.1392  -19.3861   27.5562 N   0  0  0  0  0  0  0  0  0  0  0  0
    1.1633  -20.0236   26.8235 C   0  0  0  0  0  0  0  0  0  0  0  0
    1.5154  -20.6849   25.6612 C   0  0  0  0  0  0  0  0  0  0  0  0
    2.8857  -20.6763   25.2637 C   0  0  0  0  0  0  0  0  0  0  0  0
    3.2853  -21.3524   24.0674 N   0  0  0  0  0  0  0  0  0  0  0  0
    0.3533  -21.2265   25.1453 N   0  0  0  0  0  0  0  0  0  0  0  0
   -0.6724  -20.9152   25.9631 C   0  0  0  0  0  0  0  0  0  0  0  0
   -0.2048  -20.1839   26.9943 N   0  0  0  0  0  0  0  0  0  0  0  0
  1  7  2  0  0  0  0
  1  2  1  0  0  0  0
  2  3  1  0  0  0  0
  2  4  2  0  0  0  0
  4  5  1  0  0  0  0
  5  6  2  0  0  0  0
  5 11  1  0  0  0  0
  6  7  1  0  0  0  0
  6  9  1  0  0  0  0
  7  8  1  0  0  0  0
  9 10  1  0  0  0  0
 10 11  2  0  0  0  0
M  END
>  <CHROM.1>
2.03058001,-20.22619603,26.24249319,-0.43975673,-0.15942797,-2.12934917

>  <Name>
ligand

>  <RI>
0

>  <Rbt.Current_Directory>
/home/itssahil/PROJECTS/Mol_Feturizer/New_Systems/rnas/4LVZ

>  <Rbt.Executable>
rbdock ($Id: //depot/dev/client3/rdock/2013.1/src/exe/rbdock.cxx#4 $)

>  <Rbt.Library>
libRbt.so (2013.1, Build901 2013/11/27)

>  <Rbt.Parameter_File>
/export/apps/rDock/src/rDock_2013.1_src/data/scripts/dock_solv.prm

>  <Rbt.Receptor>
prm/pocket_docking_5.prm

>  <SCORE>
-8.71429

>  <SCORE.INTER>
-8.71429

>  <SCORE.INTER.CONST>
1

>  <SCORE.INTER.POLAR>
0

>  <SCORE.INTER.ROT>
0

>  <SCORE.INTER.SOLV>
15.7199

>  <SCORE.INTER.VDW>
-14.6495

>  <SCORE.INTER.norm>
-0.792208

>  <SCORE.INTRA>
0

>  <SCORE.INTRA.DIHEDRAL>
0

>  <SCORE.INTRA.DIHEDRAL.0>
0

>  <SCORE.INTRA.POLAR>
0

>  <SCORE.INTRA.POLAR.0>
0

>  <SCORE.INTRA.REPUL>
0

>  <SCORE.INTRA.REPUL.0>
0

>  <SCORE.INTRA.SOLV>
0

>  <SCORE.INTRA.SOLV.lig_0>
-49.4056

>  <SCORE.INTRA.VDW>
0

>  <SCORE.INTRA.VDW.0>
0

>  <SCORE.INTRA.norm>
0

>  <SCORE.RESTR>
0

>  <SCORE.RESTR.CAVITY>
0

>  <SCORE.RESTR.norm>
0

>  <SCORE.SYSTEM>
0

>  <SCORE.SYSTEM.CONST>
0

>  <SCORE.SYSTEM.DIHEDRAL>
0

>  <SCORE.SYSTEM.SOLV>
0

>  <SCORE.SYSTEM.norm>
0

>  <SCORE.heavy>
11

>  <SCORE.norm>
-0.792208

>  <RMSD>
0.383

$$$$
ligand
 OpenBabel11021811503D
libRbt.so/2013.1/901 2013/11/27
 11 12  0  0  0  0  0  0  0  0999 V2000
    3.8080  -19.9985   26.0077 N   0  0  0  0  0  0  0  0  0  0  0  0
    3.4310  -19.3717   27.1495 C   0  0  0  0  0  0  0  0  0  0  0  0
    4.3926  -18.6902   27.9636 N   0  0  0  0  0  0  0  0  0  0  0  0
    2.1462  -19.3804   27.5470 N   0  0  0  0  0  0  0  0  0  0  0  0
    1.1744  -20.0173   26.8084 C   0  0  0  0  0  0  0  0  0  0  0  0
    1.5310  -20.6671   25.6410 C   0  0  0  0  0  0  0  0  0  0  0  0
    2.9016  -20.6476   25.2447 C   0  0  0  0  0  0  0  0  0  0  0  0
    3.3058  -21.3117   24.0432 N   0  0  0  0  0  0  0  0  0  0  0  0
    0.3723  -21.2109   25.1198 N   0  0  0  0  0  0  0  0  0  0  0  0
   -0.6557  -20.9121   25.9393 C   0  0  0  0  0  0  0  0  0  0  0  0
   -0.1929  -20.1866   26.9768 N   0  0  0  0  0  0  0  0  0  0  0  0
  1  7  2  0  0  0  0
  1  2  1  0  0  0  0
  2  3  1  0  0  0  0
  2  4  2  0  0  0  0
  4  5  1  0  0  0  0
  5  6  2  0  0  0  0
  5 11  1  0  0  0  0
  6  7  1  0  0  0  0
  6  9  1  0  0  0  0
  7  8  1  0  0  0  0
  9 10  1  0  0  0  0
 10 11  2  0  0  0  0
M  END
>  <CHROM.1>
2.04325049,-20.21031914,26.22644604,-0.44338355,-0.16374673,-2.12174846

>  <Name>
ligand

>  <RI>
0

>  <Rbt.Current_Directory>
/home/itssahil/PROJECTS/Mol_Feturizer/New_Systems/rnas/4LVZ

>  <Rbt.Executable>
rbdock ($Id: //depot/dev/client3/rdock/2013.1/src/exe/rbdock.cxx#4 $)

>  <Rbt.Library>
libRbt.so (2013.1, Build901 2013/11/27)

>  <Rbt.Parameter_File>
/export/apps/rDock/src/rDock_2013.1_src/data/scripts/dock_solv.prm

>  <Rbt.Receptor>
prm/pocket_docking_8.prm

>  <SCORE>
-8.71308

>  <SCORE.INTER>
-8.71308

>  <SCORE.INTER.CONST>
1

>  <SCORE.INTER.POLAR>
0

>  <SCORE.INTER.ROT>
0

>  <SCORE.INTER.SOLV>
15.6587

>  <SCORE.INTER.VDW>
-14.6283

>  <SCORE.INTER.norm>
-0.792098

>  <SCORE.INTRA>
0

>  <SCORE.INTRA.DIHEDRAL>
0

>  <SCORE.INTRA.DIHEDRAL.0>
0

>  <SCORE.INTRA.POLAR>
0

>  <SCORE.INTRA.POLAR.0>
0

>  <SCORE.INTRA.REPUL>
0

>  <SCORE.INTRA.REPUL.0>
0

>  <SCORE.INTRA.SOLV>
0

>  <SCORE.INTRA.SOLV.lig_0>
-49.4056

>  <SCORE.INTRA.VDW>
0

>  <SCORE.INTRA.VDW.0>
0

>  <SCORE.INTRA.norm>
0

>  <SCORE.RESTR>
0

>  <SCORE.RESTR.CAVITY>
0

>  <SCORE.RESTR.norm>
0

>  <SCORE.SYSTEM>
0

>  <SCORE.SYSTEM.CONST>
0

>  <SCORE.SYSTEM.DIHEDRAL>
0

>  <SCORE.SYSTEM.SOLV>
0

>  <SCORE.SYSTEM.norm>
0

>  <SCORE.heavy>
11

>  <SCORE.norm>
-0.792098

>  <RMSD>
0.383

$$$$
ligand
 OpenBabel11021811503D
libRbt.so/2013.1/901 2013/11/27
 11 12  0  0  0  0  0  0  0  0999 V2000
    3.7658  -20.0096   26.0486 N   0  0  0  0  0  0  0  0  0  0  0  0
    3.3861  -19.3903   27.1936 C   0  0  0  0  0  0  0  0  0  0  0  0
    4.3459  -18.7142   28.0144 N   0  0  0  0  0  0  0  0  0  0  0  0
    2.1005  -19.4017   27.5881 N   0  0  0  0  0  0  0  0  0  0  0  0
    1.1304  -20.0338   26.8431 C   0  0  0  0  0  0  0  0  0  0  0  0
    1.4897  -20.6759   25.6722 C   0  0  0  0  0  0  0  0  0  0  0  0
    2.8612  -20.6537   25.2792 C   0  0  0  0  0  0  0  0  0  0  0  0
    3.2683  -21.3098   24.0743 N   0  0  0  0  0  0  0  0  0  0  0  0
    0.3323  -21.2162   25.1448 N   0  0  0  0  0  0  0  0  0  0  0  0
   -0.6976  -20.9229   25.9639 C   0  0  0  0  0  0  0  0  0  0  0  0
   -0.2372  -20.2043   27.0072 N   0  0  0  0  0  0  0  0  0  0  0  0
  1  7  2  0  0  0  0
  1  2  1  0  0  0  0
  2  3  1  0  0  0  0
  2  4  2  0  0  0  0
  4  5  1  0  0  0  0
  5  6  2  0  0  0  0
  5 11  1  0  0  0  0
  6  7  1  0  0  0  0
  6  9  1  0  0  0  0
  7  8  1  0  0  0  0
  9 10  1  0  0  0  0
 10 11  2  0  0  0  0
M  END
>  <CHROM.1>
2.00058880,-20.22292944,26.26184937,-0.44539619,-0.16259559,-2.11547992

>  <Name>
ligand

>  <RI>
0

>  <Rbt.Current_Directory>
/home/itssahil/PROJECTS/Mol_Feturizer/New_Systems/rnas/4LVZ

>  <Rbt.Executable>
rbdock ($Id: //depot/dev/client3/rdock/2013.1/src/exe/rbdock.cxx#4 $)

>  <Rbt.Library>
libRbt.so (2013.1, Build901 2013/11/27)

>  <Rbt.Parameter_File>
/export/apps/rDock/src/rDock_2013.1_src/data/scripts/dock_solv.prm

>  <Rbt.Receptor>
prm/pocket_docking_3.prm

>  <SCORE>
-8.72188

>  <SCORE.INTER>
-8.72188

>  <SCORE.INTER.CONST>
1

>  <SCORE.INTER.POLAR>
0

>  <SCORE.INTER.ROT>
0

>  <SCORE.INTER.SOLV>
15.9454

>  <SCORE.INTER.VDW>
-14.7297

>  <SCORE.INTER.norm>
-0.792899

>  <SCORE.INTRA>
0

>  <SCORE.INTRA.DIHEDRAL>
0

>  <SCORE.INTRA.DIHEDRAL.0>
0

>  <SCORE.INTRA.POLAR>
0

>  <SCORE.INTRA.POLAR.0>
0

>  <SCORE.INTRA.REPUL>
0

>  <SCORE.INTRA.REPUL.0>
0

>  <SCORE.INTRA.SOLV>
0

>  <SCORE.INTRA.SOLV.lig_0>
-49.4056

>  <SCORE.INTRA.VDW>
0

>  <SCORE.INTRA.VDW.0>
0

>  <SCORE.INTRA.norm>
0

>  <SCORE.RESTR>
0

>  <SCORE.RESTR.CAVITY>
0

>  <SCORE.RESTR.norm>
0

>  <SCORE.SYSTEM>
0

>  <SCORE.SYSTEM.CONST>
0

>  <SCORE.SYSTEM.DIHEDRAL>
0

>  <SCORE.SYSTEM.SOLV>
0

>  <SCORE.SYSTEM.norm>
0

>  <SCORE.heavy>
11

>  <SCORE.norm>
-0.792899

>  <RMSD>
0.384

$$$$
ligand
 OpenBabel11021811503D
libRbt.so/2013.1/901 2013/11/27
 11 12  0  0  0  0  0  0  0  0999 V2000
    3.8086  -19.9938   26.0012 N   0  0  0  0  0  0  0  0  0  0  0  0
    3.4265  -19.3674   27.1414 C   0  0  0  0  0  0  0  0  0  0  0  0
    4.3833  -18.6802   27.9564 N   0  0  0  0  0  0  0  0  0  0  0  0
    2.1410  -19.3819   27.5367 N   0  0  0  0  0  0  0  0  0  0  0  0
    1.1737  -20.0245   26.7971 C   0  0  0  0  0  0  0  0  0  0  0  0
    1.5356  -20.6740   25.6311 C   0  0  0  0  0  0  0  0  0  0  0  0
    2.9068  -20.6483   25.2373 C   0  0  0  0  0  0  0  0  0  0  0  0
    3.3165  -21.3119   24.0375 N   0  0  0  0  0  0  0  0  0  0  0  0
    0.3806  -21.2240   25.1085 N   0  0  0  0  0  0  0  0  0  0  0  0
   -0.6504  -20.9292   25.9258 C   0  0  0  0  0  0  0  0  0  0  0  0
   -0.1930  -20.2002   26.9632 N   0  0  0  0  0  0  0  0  0  0  0  0
  1  7  2  0  0  0  0
  1  2  1  0  0  0  0
  2  3  1  0  0  0  0
  2  4  2  0  0  0  0
  4  5  1  0  0  0  0
  5  6  2  0  0  0  0
  5 11  1  0  0  0  0
  6  7  1  0  0  0  0
  6  9  1  0  0  0  0
  7  8  1  0  0  0  0
  9 10  1  0  0  0  0
 10 11  2  0  0  0  0
M  END
>  <CHROM.1>
2.04456528,-20.21396616,26.21694846,-0.44755356,-0.16693329,-2.12371245

>  <Name>
ligand

>  <RI>
0

>  <Rbt.Current_Directory>
/home/itssahil/PROJECTS/Mol_Feturizer/New_Systems/rnas/4LVZ

>  <Rbt.Executable>
rbdock ($Id: //depot/dev/client3/rdock/2013.1/src/exe/rbdock.cxx#4 $)

>  <Rbt.Library>
libRbt.so (2013.1, Build901 2013/11/27)

>  <Rbt.Parameter_File>
/export/apps/rDock/src/rDock_2013.1_src/data/scripts/dock_solv.prm

>  <Rbt.Receptor>
prm/pocket_docking_8.prm

>  <SCORE>
-8.70639

>  <SCORE.INTER>
-8.70639

>  <SCORE.INTER.CONST>
1

>  <SCORE.INTER.POLAR>
0

>  <SCORE.INTER.ROT>
0

>  <SCORE.INTER.SOLV>
15.6702

>  <SCORE.INTER.VDW>
-14.6277

>  <SCORE.INTER.norm>
-0.79149

>  <SCORE.INTRA>
0

>  <SCORE.INTRA.DIHEDRAL>
0

>  <SCORE.INTRA.DIHEDRAL.0>
0

>  <SCORE.INTRA.POLAR>
0

>  <SCORE.INTRA.POLAR.0>
0

>  <SCORE.INTRA.REPUL>
0

>  <SCORE.INTRA.REPUL.0>
0

>  <SCORE.INTRA.SOLV>
0

>  <SCORE.INTRA.SOLV.lig_0>
-49.4056

>  <SCORE.INTRA.VDW>
0

>  <SCORE.INTRA.VDW.0>
0

>  <SCORE.INTRA.norm>
0

>  <SCORE.RESTR>
0

>  <SCORE.RESTR.CAVITY>
0

>  <SCORE.RESTR.norm>
0

>  <SCORE.SYSTEM>
0

>  <SCORE.SYSTEM.CONST>
0

>  <SCORE.SYSTEM.DIHEDRAL>
0

>  <SCORE.SYSTEM.SOLV>
0

>  <SCORE.SYSTEM.norm>
0

>  <SCORE.heavy>
11

>  <SCORE.norm>
-0.79149

>  <RMSD>
0.384

$$$$
ligand
 OpenBabel11021811503D
libRbt.so/2013.1/901 2013/11/27
 11 12  0  0  0  0  0  0  0  0999 V2000
    3.7980  -20.0009   25.9932 N   0  0  0  0  0  0  0  0  0  0  0  0
    3.4106  -19.3802   27.1348 C   0  0  0  0  0  0  0  0  0  0  0  0
    4.3629  -18.6936   27.9556 N   0  0  0  0  0  0  0  0  0  0  0  0
    2.1240  -19.4001   27.5261 N   0  0  0  0  0  0  0  0  0  0  0  0
    1.1608  -20.0425   26.7809 C   0  0  0  0  0  0  0  0  0  0  0  0
    1.5282  -20.6861   25.6134 C   0  0  0  0  0  0  0  0  0  0  0  0
    2.9005  -20.6548   25.2239 C   0  0  0  0  0  0  0  0  0  0  0  0
    3.3157  -21.3123   24.0226 N   0  0  0  0  0  0  0  0  0  0  0  0
    0.3763  -21.2374   25.0850 N   0  0  0  0  0  0  0  0  0  0  0  0
   -0.6580  -20.9489   25.9003 C   0  0  0  0  0  0  0  0  0  0  0  0
   -0.2059  -20.2228   26.9421 N   0  0  0  0  0  0  0  0  0  0  0  0
  1  7  2  0  0  0  0
  1  2  1  0  0  0  0
  2  3  1  0  0  0  0
  2  4  2  0  0  0  0
  4  5  1  0  0  0  0
  5  6  2  0  0  0  0
  5 11  1  0  0  0  0
  6  7  1  0  0  0  0
  6  9  1  0  0  0  0
  7  8  1  0  0  0  0
  9 10  1  0  0  0  0
 10 11  2  0  0  0  0
M  END
>  <CHROM.1>
2.03396420,-20.22703612,26.20265904,-0.45173979,-0.16782316,-2.12030989

>  <Name>
ligand

>  <RI>
0

>  <Rbt.Current_Directory>
/home/itssahil/PROJECTS/Mol_Feturizer/New_Systems/rnas/4LVZ

>  <Rbt.Executable>
rbdock ($Id: //depot/dev/client3/rdock/2013.1/src/exe/rbdock.cxx#4 $)

>  <Rbt.Library>
libRbt.so (2013.1, Build901 2013/11/27)

>  <Rbt.Parameter_File>
/export/apps/rDock/src/rDock_2013.1_src/data/scripts/dock_solv.prm

>  <Rbt.Receptor>
prm/pocket_docking_7.prm

>  <SCORE>
-8.71559

>  <SCORE.INTER>
-8.71559

>  <SCORE.INTER.CONST>
1

>  <SCORE.INTER.POLAR>
0

>  <SCORE.INTER.ROT>
0

>  <SCORE.INTER.SOLV>
15.7304

>  <SCORE.INTER.VDW>
-14.6538

>  <SCORE.INTER.norm>
-0.792326

>  <SCORE.INTRA>
0

>  <SCORE.INTRA.DIHEDRAL>
0

>  <SCORE.INTRA.DIHEDRAL.0>
0

>  <SCORE.INTRA.POLAR>
0

>  <SCORE.INTRA.POLAR.0>
0

>  <SCORE.INTRA.REPUL>
0

>  <SCORE.INTRA.REPUL.0>
0

>  <SCORE.INTRA.SOLV>
0

>  <SCORE.INTRA.SOLV.lig_0>
-49.4056

>  <SCORE.INTRA.VDW>
0

>  <SCORE.INTRA.VDW.0>
0

>  <SCORE.INTRA.norm>
0

>  <SCORE.RESTR>
0

>  <SCORE.RESTR.CAVITY>
0

>  <SCORE.RESTR.norm>
0

>  <SCORE.SYSTEM>
0

>  <SCORE.SYSTEM.CONST>
0

>  <SCORE.SYSTEM.DIHEDRAL>
0

>  <SCORE.SYSTEM.SOLV>
0

>  <SCORE.SYSTEM.norm>
0

>  <SCORE.heavy>
11

>  <SCORE.norm>
-0.792326

>  <RMSD>
0.386

$$$$
ligand
 OpenBabel11021811503D
libRbt.so/2013.1/901 2013/11/27
 11 12  0  0  0  0  0  0  0  0999 V2000
    3.7985  -20.0027   26.0137 N   0  0  0  0  0  0  0  0  0  0  0  0
    3.4253  -19.3775   27.1575 C   0  0  0  0  0  0  0  0  0  0  0  0
    4.3913  -18.7053   27.9743 N   0  0  0  0  0  0  0  0  0  0  0  0
    2.1404  -19.3791   27.5547 N   0  0  0  0  0  0  0  0  0  0  0  0
    1.1646  -20.0069   26.8136 C   0  0  0  0  0  0  0  0  0  0  0  0
    1.5173  -20.6549   25.6440 C   0  0  0  0  0  0  0  0  0  0  0  0
    2.8881  -20.6431   25.2481 C   0  0  0  0  0  0  0  0  0  0  0  0
    3.2882  -21.3055   24.0444 N   0  0  0  0  0  0  0  0  0  0  0  0
    0.3552  -21.1891   25.1206 N   0  0  0  0  0  0  0  0  0  0  0  0
   -0.6711  -20.8864   25.9409 C   0  0  0  0  0  0  0  0  0  0  0  0
   -0.2038  -20.1677   26.9811 N   0  0  0  0  0  0  0  0  0  0  0  0
  1  7  2  0  0  0  0
  1  2  1  0  0  0  0
  2  3  1  0  0  0  0
  2  4  2  0  0  0  0
  4  5  1  0  0  0  0
  5  6  2  0  0  0  0
  5 11  1  0  0  0  0
  6  7  1  0  0  0  0
  6  9  1  0  0  0  0
  7  8  1  0  0  0  0
  9 10  1  0  0  0  0
 10 11  2  0  0  0  0
M  END
>  <CHROM.1>
2.03235782,-20.20362251,26.23117465,-0.44010838,-0.15795408,-2.11767513

>  <Name>
ligand

>  <RI>
0

>  <Rbt.Current_Directory>
/home/itssahil/PROJECTS/Mol_Feturizer/New_Systems/rnas/4LVZ

>  <Rbt.Executable>
rbdock ($Id: //depot/dev/client3/rdock/2013.1/src/exe/rbdock.cxx#4 $)

>  <Rbt.Library>
libRbt.so (2013.1, Build901 2013/11/27)

>  <Rbt.Parameter_File>
/export/apps/rDock/src/rDock_2013.1_src/data/scripts/dock_solv.prm

>  <Rbt.Receptor>
prm/pocket_docking_7.prm

>  <SCORE>
-8.7368

>  <SCORE.INTER>
-8.7368

>  <SCORE.INTER.CONST>
1

>  <SCORE.INTER.POLAR>
0

>  <SCORE.INTER.ROT>
0

>  <SCORE.INTER.SOLV>
15.7125

>  <SCORE.INTER.VDW>
-14.662

>  <SCORE.INTER.norm>
-0.794254

>  <SCORE.INTRA>
0

>  <SCORE.INTRA.DIHEDRAL>
0

>  <SCORE.INTRA.DIHEDRAL.0>
0

>  <SCORE.INTRA.POLAR>
0

>  <SCORE.INTRA.POLAR.0>
0

>  <SCORE.INTRA.REPUL>
0

>  <SCORE.INTRA.REPUL.0>
0

>  <SCORE.INTRA.SOLV>
0

>  <SCORE.INTRA.SOLV.lig_0>
-49.4056

>  <SCORE.INTRA.VDW>
0

>  <SCORE.INTRA.VDW.0>
0

>  <SCORE.INTRA.norm>
0

>  <SCORE.RESTR>
0

>  <SCORE.RESTR.CAVITY>
0

>  <SCORE.RESTR.norm>
0

>  <SCORE.SYSTEM>
0

>  <SCORE.SYSTEM.CONST>
0

>  <SCORE.SYSTEM.DIHEDRAL>
0

>  <SCORE.SYSTEM.SOLV>
0

>  <SCORE.SYSTEM.norm>
0

>  <SCORE.heavy>
11

>  <SCORE.norm>
-0.794254

>  <RMSD>
0.387

$$$$
ligand
 OpenBabel11021811503D
libRbt.so/2013.1/901 2013/11/27
 11 12  0  0  0  0  0  0  0  0999 V2000
    3.7986  -19.9937   26.0656 N   0  0  0  0  0  0  0  0  0  0  0  0
    3.4184  -19.3729   27.2096 C   0  0  0  0  0  0  0  0  0  0  0  0
    4.3794  -18.7040   28.0349 N   0  0  0  0  0  0  0  0  0  0  0  0
    2.1311  -19.3759   27.5989 N   0  0  0  0  0  0  0  0  0  0  0  0
    1.1598  -20.0007   26.8494 C   0  0  0  0  0  0  0  0  0  0  0  0
    1.5196  -20.6442   25.6794 C   0  0  0  0  0  0  0  0  0  0  0  0
    2.8927  -20.6310   25.2920 C   0  0  0  0  0  0  0  0  0  0  0  0
    3.3002  -21.2887   24.0881 N   0  0  0  0  0  0  0  0  0  0  0  0
    0.3606  -21.1762   25.1468 N   0  0  0  0  0  0  0  0  0  0  0  0
   -0.6706  -20.8766   25.9619 C   0  0  0  0  0  0  0  0  0  0  0  0
   -0.2096  -20.1620   27.0078 N   0  0  0  0  0  0  0  0  0  0  0  0
  1  7  2  0  0  0  0
  1  2  1  0  0  0  0
  2  3  1  0  0  0  0
  2  4  2  0  0  0  0
  4  5  1  0  0  0  0
  5  6  2  0  0  0  0
  5 11  1  0  0  0  0
  6  7  1  0  0  0  0
  6  9  1  0  0  0  0
  7  8  1  0  0  0  0
  9 10  1  0  0  0  0
 10 11  2  0  0  0  0
M  END
>  <CHROM.1>
2.03107221,-20.19523905,26.27149432,-0.44535610,-0.15467170,-2.11456948

>  <Name>
ligand

>  <RI>
0

>  <Rbt.Current_Directory>
/home/itssahil/PROJECTS/Mol_Feturizer/New_Systems/rnas/4LVZ

>  <Rbt.Executable>
rbdock ($Id: //depot/dev/client3/rdock/2013.1/src/exe/rbdock.cxx#4 $)

>  <Rbt.Library>
libRbt.so (2013.1, Build901 2013/11/27)

>  <Rbt.Parameter_File>
/export/apps/rDock/src/rDock_2013.1_src/data/scripts/dock_solv.prm

>  <Rbt.Receptor>
prm/pocket_docking_4.prm

>  <SCORE>
-8.73218

>  <SCORE.INTER>
-8.73218

>  <SCORE.INTER.CONST>
1

>  <SCORE.INTER.POLAR>
0

>  <SCORE.INTER.ROT>
0

>  <SCORE.INTER.SOLV>
15.7245

>  <SCORE.INTER.VDW>
-14.663

>  <SCORE.INTER.norm>
-0.793835

>  <SCORE.INTRA>
0

>  <SCORE.INTRA.DIHEDRAL>
0

>  <SCORE.INTRA.DIHEDRAL.0>
0

>  <SCORE.INTRA.POLAR>
0

>  <SCORE.INTRA.POLAR.0>
0

>  <SCORE.INTRA.REPUL>
0

>  <SCORE.INTRA.REPUL.0>
0

>  <SCORE.INTRA.SOLV>
0

>  <SCORE.INTRA.SOLV.lig_0>
-49.4056

>  <SCORE.INTRA.VDW>
0

>  <SCORE.INTRA.VDW.0>
0

>  <SCORE.INTRA.norm>
0

>  <SCORE.RESTR>
0

>  <SCORE.RESTR.CAVITY>
0

>  <SCORE.RESTR.norm>
0

>  <SCORE.SYSTEM>
0

>  <SCORE.SYSTEM.CONST>
0

>  <SCORE.SYSTEM.DIHEDRAL>
0

>  <SCORE.SYSTEM.SOLV>
0

>  <SCORE.SYSTEM.norm>
0

>  <SCORE.heavy>
11

>  <SCORE.norm>
-0.793835

>  <RMSD>
0.392

$$$$
ligand
 OpenBabel11021811503D
libRbt.so/2013.1/901 2013/11/27
 11 12  0  0  0  0  0  0  0  0999 V2000
    3.7853  -20.0421   26.0249 N   0  0  0  0  0  0  0  0  0  0  0  0
    3.4147  -19.4008   27.1607 C   0  0  0  0  0  0  0  0  0  0  0  0
    4.3843  -18.7272   27.9720 N   0  0  0  0  0  0  0  0  0  0  0  0
    2.1290  -19.3873   27.5549 N   0  0  0  0  0  0  0  0  0  0  0  0
    1.1497  -20.0156   26.8187 C   0  0  0  0  0  0  0  0  0  0  0  0
    1.4996  -20.6798   25.6574 C   0  0  0  0  0  0  0  0  0  0  0  0
    2.8713  -20.6837   25.2646 C   0  0  0  0  0  0  0  0  0  0  0  0
    3.2687  -21.3632   24.0695 N   0  0  0  0  0  0  0  0  0  0  0  0
    0.3343  -21.2104   25.1374 N   0  0  0  0  0  0  0  0  0  0  0  0
   -0.6913  -20.8899   25.9518 C   0  0  0  0  0  0  0  0  0  0  0  0
   -0.2204  -20.1632   26.9848 N   0  0  0  0  0  0  0  0  0  0  0  0
  1  7  2  0  0  0  0
  1  2  1  0  0  0  0
  2  3  1  0  0  0  0
  2  4  2  0  0  0  0
  4  5  1  0  0  0  0
  5  6  2  0  0  0  0
  5 11  1  0  0  0  0
  6  7  1  0  0  0  0
  6  9  1  0  0  0  0
  7  8  1  0  0  0  0
  9 10  1  0  0  0  0
 10 11  2  0  0  0  0
M  END
>  <CHROM.1>
2.01704576,-20.22603171,26.24059059,-0.43770464,-0.14975553,-2.12873824

>  <Name>
ligand

>  <RI>
0

>  <Rbt.Current_Directory>
/home/itssahil/PROJECTS/Mol_Feturizer/New_Systems/rnas/4LVZ

>  <Rbt.Executable>
rbdock ($Id: //depot/dev/client3/rdock/2013.1/src/exe/rbdock.cxx#4 $)

>  <Rbt.Library>
libRbt.so (2013.1, Build901 2013/11/27)

>  <Rbt.Parameter_File>
/export/apps/rDock/src/rDock_2013.1_src/data/scripts/dock_solv.prm

>  <Rbt.Receptor>
prm/pocket_docking_7.prm

>  <SCORE>
-8.73373

>  <SCORE.INTER>
-8.73373

>  <SCORE.INTER.CONST>
1

>  <SCORE.INTER.POLAR>
0

>  <SCORE.INTER.ROT>
0

>  <SCORE.INTER.SOLV>
15.777

>  <SCORE.INTER.VDW>
-14.6815

>  <SCORE.INTER.norm>
-0.793975

>  <SCORE.INTRA>
0

>  <SCORE.INTRA.DIHEDRAL>
0

>  <SCORE.INTRA.DIHEDRAL.0>
0

>  <SCORE.INTRA.POLAR>
0

>  <SCORE.INTRA.POLAR.0>
0

>  <SCORE.INTRA.REPUL>
0

>  <SCORE.INTRA.REPUL.0>
0

>  <SCORE.INTRA.SOLV>
0

>  <SCORE.INTRA.SOLV.lig_0>
-49.4056

>  <SCORE.INTRA.VDW>
0

>  <SCORE.INTRA.VDW.0>
0

>  <SCORE.INTRA.norm>
0

>  <SCORE.RESTR>
0

>  <SCORE.RESTR.CAVITY>
0

>  <SCORE.RESTR.norm>
0

>  <SCORE.SYSTEM>
0

>  <SCORE.SYSTEM.CONST>
0

>  <SCORE.SYSTEM.DIHEDRAL>
0

>  <SCORE.SYSTEM.SOLV>
0

>  <SCORE.SYSTEM.norm>
0

>  <SCORE.heavy>
11

>  <SCORE.norm>
-0.793975

>  <RMSD>
0.393

$$$$
ligand
 OpenBabel11021811503D
libRbt.so/2013.1/901 2013/11/27
 11 12  0  0  0  0  0  0  0  0999 V2000
    3.8124  -20.3129   25.9393 N   0  0  0  0  0  0  0  0  0  0  0  0
    3.5806  -20.1695   27.2676 C   0  0  0  0  0  0  0  0  0  0  0  0
    4.6488  -19.8538   28.1683 N   0  0  0  0  0  0  0  0  0  0  0  0
    2.3434  -20.3264   27.7709 N   0  0  0  0  0  0  0  0  0  0  0  0
    1.2747  -20.6299   26.9576 C   0  0  0  0  0  0  0  0  0  0  0  0
    1.4826  -20.7846   25.5992 C   0  0  0  0  0  0  0  0  0  0  0  0
    2.8058  -20.6184   25.0917 C   0  0  0  0  0  0  0  0  0  0  0  0
    3.0569  -20.7734   23.6914 N   0  0  0  0  0  0  0  0  0  0  0  0
    0.2543  -21.0846   25.0415 N   0  0  0  0  0  0  0  0  0  0  0  0
   -0.6716  -21.1194   26.0210 C   0  0  0  0  0  0  0  0  0  0  0  0
   -0.0748  -20.8472   27.1985 N   0  0  0  0  0  0  0  0  0  0  0  0
  1  7  2  0  0  0  0
  1  2  1  0  0  0  0
  2  3  1  0  0  0  0
  2  4  2  0  0  0  0
  4  5  1  0  0  0  0
  5  6  2  0  0  0  0
  5 11  1  0  0  0  0
  6  7  1  0  0  0  0
  6  9  1  0  0  0  0
  7  8  1  0  0  0  0
  9 10  1  0  0  0  0
 10 11  2  0  0  0  0
M  END
>  <CHROM.1>
2.07103440,-20.58777082,26.25403714,-0.33224749,-0.17762662,-1.71045261

>  <Name>
ligand

>  <RI>
0

>  <Rbt.Current_Directory>
/home/itssahil/PROJECTS/Mol_Feturizer/New_Systems/rnas/4LVZ

>  <Rbt.Executable>
rbdock ($Id: //depot/dev/client3/rdock/2013.1/src/exe/rbdock.cxx#4 $)

>  <Rbt.Library>
libRbt.so (2013.1, Build901 2013/11/27)

>  <Rbt.Parameter_File>
/export/apps/rDock/src/rDock_2013.1_src/data/scripts/dock_solv.prm

>  <Rbt.Receptor>
prm/pocket_docking_4.prm

>  <SCORE>
-8.57649

>  <SCORE.INTER>
-8.57649

>  <SCORE.INTER.CONST>
1

>  <SCORE.INTER.POLAR>
0

>  <SCORE.INTER.ROT>
0

>  <SCORE.INTER.SOLV>
12.2348

>  <SCORE.INTER.VDW>
-13.3959

>  <SCORE.INTER.norm>
-0.779681

>  <SCORE.INTRA>
0

>  <SCORE.INTRA.DIHEDRAL>
0

>  <SCORE.INTRA.DIHEDRAL.0>
0

>  <SCORE.INTRA.POLAR>
0

>  <SCORE.INTRA.POLAR.0>
0

>  <SCORE.INTRA.REPUL>
0

>  <SCORE.INTRA.REPUL.0>
0

>  <SCORE.INTRA.SOLV>
0

>  <SCORE.INTRA.SOLV.lig_0>
-49.4056

>  <SCORE.INTRA.VDW>
0

>  <SCORE.INTRA.VDW.0>
0

>  <SCORE.INTRA.norm>
0

>  <SCORE.RESTR>
0

>  <SCORE.RESTR.CAVITY>
0

>  <SCORE.RESTR.norm>
0

>  <SCORE.SYSTEM>
0

>  <SCORE.SYSTEM.CONST>
0

>  <SCORE.SYSTEM.DIHEDRAL>
0

>  <SCORE.SYSTEM.SOLV>
0

>  <SCORE.SYSTEM.norm>
0

>  <SCORE.heavy>
11

>  <SCORE.norm>
-0.779681

>  <RMSD>
0.451

$$$$
ligand
 OpenBabel11021811503D
libRbt.so/2013.1/901 2013/11/27
 11 12  0  0  0  0  0  0  0  0999 V2000
    3.7208  -20.4702   25.9983 N   0  0  0  0  0  0  0  0  0  0  0  0
    3.4180  -20.0623   27.2555 C   0  0  0  0  0  0  0  0  0  0  0  0
    4.4485  -19.6472   28.1598 N   0  0  0  0  0  0  0  0  0  0  0  0
    2.1435  -20.0438   27.6846 N   0  0  0  0  0  0  0  0  0  0  0  0
    1.1079  -20.4302   26.8636 C   0  0  0  0  0  0  0  0  0  0  0  0
    1.3880  -20.8534   25.5772 C   0  0  0  0  0  0  0  0  0  0  0  0
    2.7490  -20.8689   25.1489 C   0  0  0  0  0  0  0  0  0  0  0  0
    3.0747  -21.3031   23.8247 N   0  0  0  0  0  0  0  0  0  0  0  0
    0.1779  -21.1779   24.9940 N   0  0  0  0  0  0  0  0  0  0  0  0
   -0.8073  -20.9682   25.8903 C   0  0  0  0  0  0  0  0  0  0  0  0
   -0.2664  -20.5140   27.0383 N   0  0  0  0  0  0  0  0  0  0  0  0
  1  7  2  0  0  0  0
  1  2  1  0  0  0  0
  2  3  1  0  0  0  0
  2  4  2  0  0  0  0
  4  5  1  0  0  0  0
  5  6  2  0  0  0  0
  5 11  1  0  0  0  0
  6  7  1  0  0  0  0
  6  9  1  0  0  0  0
  7  8  1  0  0  0  0
  9 10  1  0  0  0  0
 10 11  2  0  0  0  0
M  END
>  <CHROM.1>
1.94751274,-20.57211305,26.22652694,-0.38386301,-0.09456710,-1.90720824

>  <Name>
ligand

>  <RI>
0

>  <Rbt.Current_Directory>
/home/itssahil/PROJECTS/Mol_Feturizer/New_Systems/rnas/4LVZ

>  <Rbt.Executable>
rbdock ($Id: //depot/dev/client3/rdock/2013.1/src/exe/rbdock.cxx#4 $)

>  <Rbt.Library>
libRbt.so (2013.1, Build901 2013/11/27)

>  <Rbt.Parameter_File>
/export/apps/rDock/src/rDock_2013.1_src/data/scripts/dock_solv.prm

>  <Rbt.Receptor>
prm/pocket_docking_7.prm

>  <SCORE>
-8.61314

>  <SCORE.INTER>
-8.61314

>  <SCORE.INTER.CONST>
1

>  <SCORE.INTER.POLAR>
0

>  <SCORE.INTER.ROT>
0

>  <SCORE.INTER.SOLV>
13.8885

>  <SCORE.INTER.VDW>
-13.9716

>  <SCORE.INTER.norm>
-0.783013

>  <SCORE.INTRA>
0

>  <SCORE.INTRA.DIHEDRAL>
0

>  <SCORE.INTRA.DIHEDRAL.0>
0

>  <SCORE.INTRA.POLAR>
0

>  <SCORE.INTRA.POLAR.0>
0

>  <SCORE.INTRA.REPUL>
0

>  <SCORE.INTRA.REPUL.0>
0

>  <SCORE.INTRA.SOLV>
0

>  <SCORE.INTRA.SOLV.lig_0>
-49.4056

>  <SCORE.INTRA.VDW>
0

>  <SCORE.INTRA.VDW.0>
0

>  <SCORE.INTRA.norm>
0

>  <SCORE.RESTR>
0

>  <SCORE.RESTR.CAVITY>
0

>  <SCORE.RESTR.norm>
0

>  <SCORE.SYSTEM>
0

>  <SCORE.SYSTEM.CONST>
0

>  <SCORE.SYSTEM.DIHEDRAL>
0

>  <SCORE.SYSTEM.SOLV>
0

>  <SCORE.SYSTEM.norm>
0

>  <SCORE.heavy>
11

>  <SCORE.norm>
-0.783013

>  <RMSD>
0.466

$$$$
ligand
 OpenBabel11021811503D
libRbt.so/2013.1/901 2013/11/27
 11 12  0  0  0  0  0  0  0  0999 V2000
    3.8328  -20.5684   25.9788 N   0  0  0  0  0  0  0  0  0  0  0  0
    3.5690  -20.1924   27.2546 C   0  0  0  0  0  0  0  0  0  0  0  0
    4.6300  -19.8318   28.1469 N   0  0  0  0  0  0  0  0  0  0  0  0
    2.3054  -20.1552   27.7136 N   0  0  0  0  0  0  0  0  0  0  0  0
    1.2420  -20.4896   26.9055 C   0  0  0  0  0  0  0  0  0  0  0  0
    1.4820  -20.8795   25.6006 C   0  0  0  0  0  0  0  0  0  0  0  0
    2.8321  -20.9160   25.1405 C   0  0  0  0  0  0  0  0  0  0  0  0
    3.1165  -21.3167   23.7965 N   0  0  0  0  0  0  0  0  0  0  0  0
    0.2510  -21.1551   25.0362 N   0  0  0  0  0  0  0  0  0  0  0  0
   -0.7080  -20.9487   25.9611 C   0  0  0  0  0  0  0  0  0  0  0  0
   -0.1298  -20.5441   27.1096 N   0  0  0  0  0  0  0  0  0  0  0  0
  1  7  2  0  0  0  0
  1  2  1  0  0  0  0
  2  3  1  0  0  0  0
  2  4  2  0  0  0  0
  4  5  1  0  0  0  0
  5  6  2  0  0  0  0
  5 11  1  0  0  0  0
  6  7  1  0  0  0  0
  6  9  1  0  0  0  0
  7  8  1  0  0  0  0
  9 10  1  0  0  0  0
 10 11  2  0  0  0  0
M  END
>  <CHROM.1>
2.06302430,-20.63273761,26.24506590,-0.35398054,-0.07750096,-1.87379647

>  <Name>
ligand

>  <RI>
0

>  <Rbt.Current_Directory>
/home/itssahil/PROJECTS/Mol_Feturizer/New_Systems/rnas/4LVZ

>  <Rbt.Executable>
rbdock ($Id: //depot/dev/client3/rdock/2013.1/src/exe/rbdock.cxx#4 $)

>  <Rbt.Library>
libRbt.so (2013.1, Build901 2013/11/27)

>  <Rbt.Parameter_File>
/export/apps/rDock/src/rDock_2013.1_src/data/scripts/dock_solv.prm

>  <Rbt.Receptor>
prm/pocket_docking_6.prm

>  <SCORE>
-8.60796

>  <SCORE.INTER>
-8.60796

>  <SCORE.INTER.CONST>
1

>  <SCORE.INTER.POLAR>
0

>  <SCORE.INTER.ROT>
0

>  <SCORE.INTER.SOLV>
12.7102

>  <SCORE.INTER.VDW>
-13.5754

>  <SCORE.INTER.norm>
-0.782542

>  <SCORE.INTRA>
0

>  <SCORE.INTRA.DIHEDRAL>
0

>  <SCORE.INTRA.DIHEDRAL.0>
0

>  <SCORE.INTRA.POLAR>
0

>  <SCORE.INTRA.POLAR.0>
0

>  <SCORE.INTRA.REPUL>
0

>  <SCORE.INTRA.REPUL.0>
0

>  <SCORE.INTRA.SOLV>
0

>  <SCORE.INTRA.SOLV.lig_0>
-49.4056

>  <SCORE.INTRA.VDW>
0

>  <SCORE.INTRA.VDW.0>
0

>  <SCORE.INTRA.norm>
0

>  <SCORE.RESTR>
0

>  <SCORE.RESTR.CAVITY>
0

>  <SCORE.RESTR.norm>
0

>  <SCORE.SYSTEM>
0

>  <SCORE.SYSTEM.CONST>
0

>  <SCORE.SYSTEM.DIHEDRAL>
0

>  <SCORE.SYSTEM.SOLV>
0

>  <SCORE.SYSTEM.norm>
0

>  <SCORE.heavy>
11

>  <SCORE.norm>
-0.782542

>  <RMSD>
0.490

$$$$
ligand
 OpenBabel11021811503D
libRbt.so/2013.1/901 2013/11/27
 11 12  0  0  0  0  0  0  0  0999 V2000
    3.8305  -20.5719   25.9763 N   0  0  0  0  0  0  0  0  0  0  0  0
    3.5716  -20.2030   27.2551 C   0  0  0  0  0  0  0  0  0  0  0  0
    4.6364  -19.8525   28.1469 N   0  0  0  0  0  0  0  0  0  0  0  0
    2.3093  -20.1633   27.7176 N   0  0  0  0  0  0  0  0  0  0  0  0
    1.2424  -20.4881   26.9102 C   0  0  0  0  0  0  0  0  0  0  0  0
    1.4774  -20.8707   25.6022 C   0  0  0  0  0  0  0  0  0  0  0  0
    2.8261  -20.9099   25.1383 C   0  0  0  0  0  0  0  0  0  0  0  0
    3.1054  -21.3033   23.7910 N   0  0  0  0  0  0  0  0  0  0  0  0
    0.2438  -21.1374   25.0393 N   0  0  0  0  0  0  0  0  0  0  0  0
   -0.7119  -20.9329   25.9680 C   0  0  0  0  0  0  0  0  0  0  0  0
   -0.1291  -20.5382   27.1175 N   0  0  0  0  0  0  0  0  0  0  0  0
  1  7  2  0  0  0  0
  1  2  1  0  0  0  0
  2  3  1  0  0  0  0
  2  4  2  0  0  0  0
  4  5  1  0  0  0  0
  5  6  2  0  0  0  0
  5 11  1  0  0  0  0
  6  7  1  0  0  0  0
  6  9  1  0  0  0  0
  7  8  1  0  0  0  0
  9 10  1  0  0  0  0
 10 11  2  0  0  0  0
M  END
>  <CHROM.1>
2.06114935,-20.63047739,26.24668831,-0.35024064,-0.07422520,-1.86712869

>  <Name>
ligand

>  <RI>
0

>  <Rbt.Current_Directory>
/home/itssahil/PROJECTS/Mol_Feturizer/New_Systems/rnas/4LVZ

>  <Rbt.Executable>
rbdock ($Id: //depot/dev/client3/rdock/2013.1/src/exe/rbdock.cxx#4 $)

>  <Rbt.Library>
libRbt.so (2013.1, Build901 2013/11/27)

>  <Rbt.Parameter_File>
/export/apps/rDock/src/rDock_2013.1_src/data/scripts/dock_solv.prm

>  <Rbt.Receptor>
prm/pocket_docking_7.prm

>  <SCORE>
-8.60949

>  <SCORE.INTER>
-8.60949

>  <SCORE.INTER.CONST>
1

>  <SCORE.INTER.POLAR>
0

>  <SCORE.INTER.ROT>
0

>  <SCORE.INTER.SOLV>
12.6946

>  <SCORE.INTER.VDW>
-13.5712

>  <SCORE.INTER.norm>
-0.782681

>  <SCORE.INTRA>
0

>  <SCORE.INTRA.DIHEDRAL>
0

>  <SCORE.INTRA.DIHEDRAL.0>
0

>  <SCORE.INTRA.POLAR>
0

>  <SCORE.INTRA.POLAR.0>
0

>  <SCORE.INTRA.REPUL>
0

>  <SCORE.INTRA.REPUL.0>
0

>  <SCORE.INTRA.SOLV>
0

>  <SCORE.INTRA.SOLV.lig_0>
-49.4056

>  <SCORE.INTRA.VDW>
0

>  <SCORE.INTRA.VDW.0>
0

>  <SCORE.INTRA.norm>
0

>  <SCORE.RESTR>
0

>  <SCORE.RESTR.CAVITY>
0

>  <SCORE.RESTR.norm>
0

>  <SCORE.SYSTEM>
0

>  <SCORE.SYSTEM.CONST>
0

>  <SCORE.SYSTEM.DIHEDRAL>
0

>  <SCORE.SYSTEM.SOLV>
0

>  <SCORE.SYSTEM.norm>
0

>  <SCORE.heavy>
11

>  <SCORE.norm>
-0.782681

>  <RMSD>
0.494

$$$$
ligand
 OpenBabel11021811503D
libRbt.so/2013.1/901 2013/11/27
 11 12  0  0  0  0  0  0  0  0999 V2000
    3.7999  -20.5883   25.9315 N   0  0  0  0  0  0  0  0  0  0  0  0
    3.5454  -20.1898   27.2023 C   0  0  0  0  0  0  0  0  0  0  0  0
    4.6139  -19.8272   28.0849 N   0  0  0  0  0  0  0  0  0  0  0  0
    2.2841  -20.1316   27.6656 N   0  0  0  0  0  0  0  0  0  0  0  0
    1.2138  -20.4666   26.8669 C   0  0  0  0  0  0  0  0  0  0  0  0
    1.4443  -20.8792   25.5672 C   0  0  0  0  0  0  0  0  0  0  0  0
    2.7920  -20.9376   25.1024 C   0  0  0  0  0  0  0  0  0  0  0  0
    3.0666  -21.3621   23.7637 N   0  0  0  0  0  0  0  0  0  0  0  0
    0.2081  -21.1498   25.0119 N   0  0  0  0  0  0  0  0  0  0  0  0
   -0.7449  -20.9186   25.9372 C   0  0  0  0  0  0  0  0  0  0  0  0
   -0.1576  -20.5029   27.0771 N   0  0  0  0  0  0  0  0  0  0  0  0
  1  7  2  0  0  0  0
  1  2  1  0  0  0  0
  2  3  1  0  0  0  0
  2  4  2  0  0  0  0
  4  5  1  0  0  0  0
  5  6  2  0  0  0  0
  5 11  1  0  0  0  0
  6  7  1  0  0  0  0
  6  9  1  0  0  0  0
  7  8  1  0  0  0  0
  9 10  1  0  0  0  0
 10 11  2  0  0  0  0
M  END
>  <CHROM.1>
2.03060398,-20.62894957,26.20551612,-0.34682784,-0.06822298,-1.88867387

>  <Name>
ligand

>  <RI>
0

>  <Rbt.Current_Directory>
/home/itssahil/PROJECTS/Mol_Feturizer/New_Systems/rnas/4LVZ

>  <Rbt.Executable>
rbdock ($Id: //depot/dev/client3/rdock/2013.1/src/exe/rbdock.cxx#4 $)

>  <Rbt.Library>
libRbt.so (2013.1, Build901 2013/11/27)

>  <Rbt.Parameter_File>
/export/apps/rDock/src/rDock_2013.1_src/data/scripts/dock_solv.prm

>  <Rbt.Receptor>
prm/pocket_docking_7.prm

>  <SCORE>
-8.59311

>  <SCORE.INTER>
-8.59311

>  <SCORE.INTER.CONST>
1

>  <SCORE.INTER.POLAR>
0

>  <SCORE.INTER.ROT>
0

>  <SCORE.INTER.SOLV>
13.0033

>  <SCORE.INTER.VDW>
-13.6632

>  <SCORE.INTER.norm>
-0.781192

>  <SCORE.INTRA>
0

>  <SCORE.INTRA.DIHEDRAL>
0

>  <SCORE.INTRA.DIHEDRAL.0>
0

>  <SCORE.INTRA.POLAR>
0

>  <SCORE.INTRA.POLAR.0>
0

>  <SCORE.INTRA.REPUL>
0

>  <SCORE.INTRA.REPUL.0>
0

>  <SCORE.INTRA.SOLV>
0

>  <SCORE.INTRA.SOLV.lig_0>
-49.4056

>  <SCORE.INTRA.VDW>
0

>  <SCORE.INTRA.VDW.0>
0

>  <SCORE.INTRA.norm>
0

>  <SCORE.RESTR>
0

>  <SCORE.RESTR.CAVITY>
0

>  <SCORE.RESTR.norm>
0

>  <SCORE.SYSTEM>
0

>  <SCORE.SYSTEM.CONST>
0

>  <SCORE.SYSTEM.DIHEDRAL>
0

>  <SCORE.SYSTEM.SOLV>
0

>  <SCORE.SYSTEM.norm>
0

>  <SCORE.heavy>
11

>  <SCORE.norm>
-0.781192

>  <RMSD>
0.502

$$$$
ligand
 OpenBabel11021811503D
libRbt.so/2013.1/901 2013/11/27
 11 12  0  0  0  0  0  0  0  0999 V2000
    3.7563  -20.4267   26.0305 N   0  0  0  0  0  0  0  0  0  0  0  0
    3.4980  -20.3049   27.3560 C   0  0  0  0  0  0  0  0  0  0  0  0
    4.5537  -20.0407   28.2875 N   0  0  0  0  0  0  0  0  0  0  0  0
    2.2452  -20.4352   27.8276 N   0  0  0  0  0  0  0  0  0  0  0  0
    1.1873  -20.6889   26.9838 C   0  0  0  0  0  0  0  0  0  0  0  0
    1.4221  -20.8207   25.6274 C   0  0  0  0  0  0  0  0  0  0  0  0
    2.7611  -20.6836   25.1538 C   0  0  0  0  0  0  0  0  0  0  0  0
    3.0401  -20.8161   23.7565 N   0  0  0  0  0  0  0  0  0  0  0  0
    0.1988  -21.0717   25.0356 N   0  0  0  0  0  0  0  0  0  0  0  0
   -0.7503  -21.0996   25.9927 C   0  0  0  0  0  0  0  0  0  0  0  0
   -0.1733  -20.8707   27.1892 N   0  0  0  0  0  0  0  0  0  0  0  0
  1  7  2  0  0  0  0
  1  2  1  0  0  0  0
  2  3  1  0  0  0  0
  2  4  2  0  0  0  0
  4  5  1  0  0  0  0
  5  6  2  0  0  0  0
  5 11  1  0  0  0  0
  6  7  1  0  0  0  0
  6  9  1  0  0  0  0
  7  8  1  0  0  0  0
  9 10  1  0  0  0  0
 10 11  2  0  0  0  0
M  END
>  <CHROM.1>
2.00069303,-20.65576375,26.29958112,-0.35142645,-0.14506976,-1.69180626

>  <Name>
ligand

>  <RI>
0

>  <Rbt.Current_Directory>
/home/itssahil/PROJECTS/Mol_Feturizer/New_Systems/rnas/4LVZ

>  <Rbt.Executable>
rbdock ($Id: //depot/dev/client3/rdock/2013.1/src/exe/rbdock.cxx#4 $)

>  <Rbt.Library>
libRbt.so (2013.1, Build901 2013/11/27)

>  <Rbt.Parameter_File>
/export/apps/rDock/src/rDock_2013.1_src/data/scripts/dock_solv.prm

>  <Rbt.Receptor>
prm/pocket_docking_7.prm

>  <SCORE>
-8.57312

>  <SCORE.INTER>
-8.57312

>  <SCORE.INTER.CONST>
1

>  <SCORE.INTER.POLAR>
0

>  <SCORE.INTER.ROT>
0

>  <SCORE.INTER.SOLV>
12.611

>  <SCORE.INTER.VDW>
-13.5191

>  <SCORE.INTER.norm>
-0.779375

>  <SCORE.INTRA>
0

>  <SCORE.INTRA.DIHEDRAL>
0

>  <SCORE.INTRA.DIHEDRAL.0>
0

>  <SCORE.INTRA.POLAR>
0

>  <SCORE.INTRA.POLAR.0>
0

>  <SCORE.INTRA.REPUL>
0

>  <SCORE.INTRA.REPUL.0>
0

>  <SCORE.INTRA.SOLV>
0

>  <SCORE.INTRA.SOLV.lig_0>
-49.4056

>  <SCORE.INTRA.VDW>
0

>  <SCORE.INTRA.VDW.0>
0

>  <SCORE.INTRA.norm>
0

>  <SCORE.RESTR>
0

>  <SCORE.RESTR.CAVITY>
0

>  <SCORE.RESTR.norm>
0

>  <SCORE.SYSTEM>
0

>  <SCORE.SYSTEM.CONST>
0

>  <SCORE.SYSTEM.DIHEDRAL>
0

>  <SCORE.SYSTEM.SOLV>
0

>  <SCORE.SYSTEM.norm>
0

>  <SCORE.heavy>
11

>  <SCORE.norm>
-0.779375

>  <RMSD>
0.556

$$$$
ligand
 OpenBabel11021811503D
libRbt.so/2013.1/901 2013/11/27
 11 12  0  0  0  0  0  0  0  0999 V2000
    3.8334  -20.4052   26.0035 N   0  0  0  0  0  0  0  0  0  0  0  0
    3.5889  -20.3328   27.3353 C   0  0  0  0  0  0  0  0  0  0  0  0
    4.6524  -20.0903   28.2638 N   0  0  0  0  0  0  0  0  0  0  0  0
    2.3430  -20.4928   27.8157 N   0  0  0  0  0  0  0  0  0  0  0  0
    1.2782  -20.7280   26.9751 C   0  0  0  0  0  0  0  0  0  0  0  0
    1.4989  -20.8095   25.6124 C   0  0  0  0  0  0  0  0  0  0  0  0
    2.8310  -20.6417   25.1293 C   0  0  0  0  0  0  0  0  0  0  0  0
    3.0954  -20.7220   23.7252 N   0  0  0  0  0  0  0  0  0  0  0  0
    0.2716  -21.0525   25.0256 N   0  0  0  0  0  0  0  0  0  0  0  0
   -0.6663  -21.1241   25.9916 C   0  0  0  0  0  0  0  0  0  0  0  0
   -0.0781  -20.9312   27.1890 N   0  0  0  0  0  0  0  0  0  0  0  0
  1  7  2  0  0  0  0
  1  2  1  0  0  0  0
  2  3  1  0  0  0  0
  2  4  2  0  0  0  0
  4  5  1  0  0  0  0
  5  6  2  0  0  0  0
  5 11  1  0  0  0  0
  6  7  1  0  0  0  0
  6  9  1  0  0  0  0
  7  8  1  0  0  0  0
  9 10  1  0  0  0  0
 10 11  2  0  0  0  0
M  END
>  <CHROM.1>
2.08337885,-20.66216053,26.28360690,-0.34124886,-0.15655727,-1.65506660

>  <Name>
ligand

>  <RI>
0

>  <Rbt.Current_Directory>
/home/itssahil/PROJECTS/Mol_Feturizer/New_Systems/rnas/4LVZ

>  <Rbt.Executable>
rbdock ($Id: //depot/dev/client3/rdock/2013.1/src/exe/rbdock.cxx#4 $)

>  <Rbt.Library>
libRbt.so (2013.1, Build901 2013/11/27)

>  <Rbt.Parameter_File>
/export/apps/rDock/src/rDock_2013.1_src/data/scripts/dock_solv.prm

>  <Rbt.Receptor>
prm/pocket_docking_3.prm

>  <SCORE>
-8.55809

>  <SCORE.INTER>
-8.55809

>  <SCORE.INTER.CONST>
1

>  <SCORE.INTER.POLAR>
0

>  <SCORE.INTER.ROT>
0

>  <SCORE.INTER.SOLV>
11.975

>  <SCORE.INTER.VDW>
-13.2971

>  <SCORE.INTER.norm>
-0.778009

>  <SCORE.INTRA>
0

>  <SCORE.INTRA.DIHEDRAL>
0

>  <SCORE.INTRA.DIHEDRAL.0>
0

>  <SCORE.INTRA.POLAR>
0

>  <SCORE.INTRA.POLAR.0>
0

>  <SCORE.INTRA.REPUL>
0

>  <SCORE.INTRA.REPUL.0>
0

>  <SCORE.INTRA.SOLV>
0

>  <SCORE.INTRA.SOLV.lig_0>
-49.4056

>  <SCORE.INTRA.VDW>
0

>  <SCORE.INTRA.VDW.0>
0

>  <SCORE.INTRA.norm>
0

>  <SCORE.RESTR>
0

>  <SCORE.RESTR.CAVITY>
0

>  <SCORE.RESTR.norm>
0

>  <SCORE.SYSTEM>
0

>  <SCORE.SYSTEM.CONST>
0

>  <SCORE.SYSTEM.DIHEDRAL>
0

>  <SCORE.SYSTEM.SOLV>
0

>  <SCORE.SYSTEM.norm>
0

>  <SCORE.heavy>
11

>  <SCORE.norm>
-0.778009

>  <RMSD>
0.567

$$$$
ligand
 OpenBabel11021811503D
libRbt.so/2013.1/901 2013/11/27
 11 12  0  0  0  0  0  0  0  0999 V2000
    3.7564  -20.4402   26.0580 N   0  0  0  0  0  0  0  0  0  0  0  0
    3.4832  -20.3214   27.3808 C   0  0  0  0  0  0  0  0  0  0  0  0
    4.5298  -20.0692   28.3258 N   0  0  0  0  0  0  0  0  0  0  0  0
    2.2239  -20.4436   27.8369 N   0  0  0  0  0  0  0  0  0  0  0  0
    1.1742  -20.6857   26.9795 C   0  0  0  0  0  0  0  0  0  0  0  0
    1.4242  -20.8141   25.6255 C   0  0  0  0  0  0  0  0  0  0  0  0
    2.7697  -20.6859   25.1685 C   0  0  0  0  0  0  0  0  0  0  0  0
    3.0644  -20.8152   23.7741 N   0  0  0  0  0  0  0  0  0  0  0  0
    0.2061  -21.0531   25.0182 N   0  0  0  0  0  0  0  0  0  0  0  0
   -0.7546  -21.0771   25.9638 C   0  0  0  0  0  0  0  0  0  0  0  0
   -0.1901  -20.8574   27.1680 N   0  0  0  0  0  0  0  0  0  0  0  0
  1  7  2  0  0  0  0
  1  2  1  0  0  0  0
  2  3  1  0  0  0  0
  2  4  2  0  0  0  0
  4  5  1  0  0  0  0
  5  6  2  0  0  0  0
  5 11  1  0  0  0  0
  6  7  1  0  0  0  0
  6  9  1  0  0  0  0
  7  8  1  0  0  0  0
  9 10  1  0  0  0  0
 10 11  2  0  0  0  0
M  END
>  <CHROM.1>
1.99595238,-20.65634265,26.30519468,-0.36243568,-0.13577307,-1.68947153

>  <Name>
ligand

>  <RI>
0

>  <Rbt.Current_Directory>
/home/itssahil/PROJECTS/Mol_Feturizer/New_Systems/rnas/4LVZ

>  <Rbt.Executable>
rbdock ($Id: //depot/dev/client3/rdock/2013.1/src/exe/rbdock.cxx#4 $)

>  <Rbt.Library>
libRbt.so (2013.1, Build901 2013/11/27)

>  <Rbt.Parameter_File>
/export/apps/rDock/src/rDock_2013.1_src/data/scripts/dock_solv.prm

>  <Rbt.Receptor>
prm/pocket_docking_3.prm

>  <SCORE>
-8.56557

>  <SCORE.INTER>
-8.56557

>  <SCORE.INTER.CONST>
1

>  <SCORE.INTER.POLAR>
0

>  <SCORE.INTER.ROT>
0

>  <SCORE.INTER.SOLV>
12.5811

>  <SCORE.INTER.VDW>
-13.5041

>  <SCORE.INTER.norm>
-0.778689

>  <SCORE.INTRA>
0

>  <SCORE.INTRA.DIHEDRAL>
0

>  <SCORE.INTRA.DIHEDRAL.0>
0

>  <SCORE.INTRA.POLAR>
0

>  <SCORE.INTRA.POLAR.0>
0

>  <SCORE.INTRA.REPUL>
0

>  <SCORE.INTRA.REPUL.0>
0

>  <SCORE.INTRA.SOLV>
0

>  <SCORE.INTRA.SOLV.lig_0>
-49.4056

>  <SCORE.INTRA.VDW>
0

>  <SCORE.INTRA.VDW.0>
0

>  <SCORE.INTRA.norm>
0

>  <SCORE.RESTR>
0

>  <SCORE.RESTR.CAVITY>
0

>  <SCORE.RESTR.norm>
0

>  <SCORE.SYSTEM>
0

>  <SCORE.SYSTEM.CONST>
0

>  <SCORE.SYSTEM.DIHEDRAL>
0

>  <SCORE.SYSTEM.SOLV>
0

>  <SCORE.SYSTEM.norm>
0

>  <SCORE.heavy>
11

>  <SCORE.norm>
-0.778689

>  <RMSD>
0.575

$$$$
ligand
 OpenBabel11021811503D
libRbt.so/2013.1/901 2013/11/27
 11 12  0  0  0  0  0  0  0  0999 V2000
    3.7405  -20.4423   26.0705 N   0  0  0  0  0  0  0  0  0  0  0  0
    3.4652  -20.3515   27.3951 C   0  0  0  0  0  0  0  0  0  0  0  0
    4.5063  -20.0919   28.3441 N   0  0  0  0  0  0  0  0  0  0  0  0
    2.2091  -20.5090   27.8491 N   0  0  0  0  0  0  0  0  0  0  0  0
    1.1646  -20.7600   26.9878 C   0  0  0  0  0  0  0  0  0  0  0  0
    1.4169  -20.8605   25.6318 C   0  0  0  0  0  0  0  0  0  0  0  0
    2.7591  -20.6950   25.1770 C   0  0  0  0  0  0  0  0  0  0  0  0
    3.0561  -20.7947   23.7806 N   0  0  0  0  0  0  0  0  0  0  0  0
    0.2041  -21.1162   25.0206 N   0  0  0  0  0  0  0  0  0  0  0  0
   -0.7554  -21.1771   25.9658 C   0  0  0  0  0  0  0  0  0  0  0  0
   -0.1955  -20.9649   27.1734 N   0  0  0  0  0  0  0  0  0  0  0  0
  1  7  2  0  0  0  0
  1  2  1  0  0  0  0
  2  3  1  0  0  0  0
  2  4  2  0  0  0  0
  4  5  1  0  0  0  0
  5  6  2  0  0  0  0
  5 11  1  0  0  0  0
  6  7  1  0  0  0  0
  6  9  1  0  0  0  0
  7  8  1  0  0  0  0
  9 10  1  0  0  0  0
 10 11  2  0  0  0  0
M  END
>  <CHROM.1>
1.98530924,-20.70135113,26.31406309,-0.36471220,-0.15775391,-1.67325008

>  <Name>
ligand

>  <RI>
0

>  <Rbt.Current_Directory>
/home/itssahil/PROJECTS/Mol_Feturizer/New_Systems/rnas/4LVZ

>  <Rbt.Executable>
rbdock ($Id: //depot/dev/client3/rdock/2013.1/src/exe/rbdock.cxx#4 $)

>  <Rbt.Library>
libRbt.so (2013.1, Build901 2013/11/27)

>  <Rbt.Parameter_File>
/export/apps/rDock/src/rDock_2013.1_src/data/scripts/dock_solv.prm

>  <Rbt.Receptor>
prm/pocket_docking_6.prm

>  <SCORE>
-8.68062

>  <SCORE.INTER>
-8.68062

>  <SCORE.INTER.CONST>
1

>  <SCORE.INTER.POLAR>
0

>  <SCORE.INTER.ROT>
0

>  <SCORE.INTER.SOLV>
12.6491

>  <SCORE.INTER.VDW>
-13.6035

>  <SCORE.INTER.norm>
-0.789147

>  <SCORE.INTRA>
0

>  <SCORE.INTRA.DIHEDRAL>
0

>  <SCORE.INTRA.DIHEDRAL.0>
0

>  <SCORE.INTRA.POLAR>
0

>  <SCORE.INTRA.POLAR.0>
0

>  <SCORE.INTRA.REPUL>
0

>  <SCORE.INTRA.REPUL.0>
0

>  <SCORE.INTRA.SOLV>
0

>  <SCORE.INTRA.SOLV.lig_0>
-49.4056

>  <SCORE.INTRA.VDW>
0

>  <SCORE.INTRA.VDW.0>
0

>  <SCORE.INTRA.norm>
0

>  <SCORE.RESTR>
0

>  <SCORE.RESTR.CAVITY>
0

>  <SCORE.RESTR.norm>
0

>  <SCORE.SYSTEM>
0

>  <SCORE.SYSTEM.CONST>
0

>  <SCORE.SYSTEM.DIHEDRAL>
0

>  <SCORE.SYSTEM.SOLV>
0

>  <SCORE.SYSTEM.norm>
0

>  <SCORE.heavy>
11

>  <SCORE.norm>
-0.789147

>  <RMSD>
0.601

$$$$
ligand
 OpenBabel11021811503D
libRbt.so/2013.1/901 2013/11/27
 11 12  0  0  0  0  0  0  0  0999 V2000
    3.7517  -20.4439   26.0483 N   0  0  0  0  0  0  0  0  0  0  0  0
    3.4877  -20.3658   27.3760 C   0  0  0  0  0  0  0  0  0  0  0  0
    4.5368  -20.1149   28.3186 N   0  0  0  0  0  0  0  0  0  0  0  0
    2.2356  -20.5281   27.8392 N   0  0  0  0  0  0  0  0  0  0  0  0
    1.1839  -20.7712   26.9846 C   0  0  0  0  0  0  0  0  0  0  0  0
    1.4246  -20.8586   25.6256 C   0  0  0  0  0  0  0  0  0  0  0  0
    2.7628  -20.6883   25.1609 C   0  0  0  0  0  0  0  0  0  0  0  0
    3.0478  -20.7746   23.7612 N   0  0  0  0  0  0  0  0  0  0  0  0
    0.2067  -21.1090   25.0224 N   0  0  0  0  0  0  0  0  0  0  0  0
   -0.7447  -21.1792   25.9751 C   0  0  0  0  0  0  0  0  0  0  0  0
   -0.1746  -20.9784   27.1799 N   0  0  0  0  0  0  0  0  0  0  0  0
  1  7  2  0  0  0  0
  1  2  1  0  0  0  0
  2  3  1  0  0  0  0
  2  4  2  0  0  0  0
  4  5  1  0  0  0  0
  5  6  2  0  0  0  0
  5 11  1  0  0  0  0
  6  7  1  0  0  0  0
  6  9  1  0  0  0  0
  7  8  1  0  0  0  0
  9 10  1  0  0  0  0
 10 11  2  0  0  0  0
M  END
>  <CHROM.1>
1.99872936,-20.70585341,26.30442530,-0.35611776,-0.15889608,-1.66233814

>  <Name>
ligand

>  <RI>
0

>  <Rbt.Current_Directory>
/home/itssahil/PROJECTS/Mol_Feturizer/New_Systems/rnas/4LVZ

>  <Rbt.Executable>
rbdock ($Id: //depot/dev/client3/rdock/2013.1/src/exe/rbdock.cxx#4 $)

>  <Rbt.Library>
libRbt.so (2013.1, Build901 2013/11/27)

>  <Rbt.Parameter_File>
/export/apps/rDock/src/rDock_2013.1_src/data/scripts/dock_solv.prm

>  <Rbt.Receptor>
prm/pocket_docking_3.prm

>  <SCORE>
-8.65088

>  <SCORE.INTER>
-8.65088

>  <SCORE.INTER.CONST>
1

>  <SCORE.INTER.POLAR>
0

>  <SCORE.INTER.ROT>
0

>  <SCORE.INTER.SOLV>
12.5465

>  <SCORE.INTER.VDW>
-13.5494

>  <SCORE.INTER.norm>
-0.786444

>  <SCORE.INTRA>
0

>  <SCORE.INTRA.DIHEDRAL>
0

>  <SCORE.INTRA.DIHEDRAL.0>
0

>  <SCORE.INTRA.POLAR>
0

>  <SCORE.INTRA.POLAR.0>
0

>  <SCORE.INTRA.REPUL>
0

>  <SCORE.INTRA.REPUL.0>
0

>  <SCORE.INTRA.SOLV>
0

>  <SCORE.INTRA.SOLV.lig_0>
-49.4056

>  <SCORE.INTRA.VDW>
0

>  <SCORE.INTRA.VDW.0>
0

>  <SCORE.INTRA.norm>
0

>  <SCORE.RESTR>
0

>  <SCORE.RESTR.CAVITY>
0

>  <SCORE.RESTR.norm>
0

>  <SCORE.SYSTEM>
0

>  <SCORE.SYSTEM.CONST>
0

>  <SCORE.SYSTEM.DIHEDRAL>
0

>  <SCORE.SYSTEM.SOLV>
0

>  <SCORE.SYSTEM.norm>
0

>  <SCORE.heavy>
11

>  <SCORE.norm>
-0.786444

>  <RMSD>
0.603

$$$$
ligand
 OpenBabel11021811503D
libRbt.so/2013.1/901 2013/11/27
 11 12  0  0  0  0  0  0  0  0999 V2000
    3.7346  -20.4387   26.0662 N   0  0  0  0  0  0  0  0  0  0  0  0
    3.4602  -20.3521   27.3913 C   0  0  0  0  0  0  0  0  0  0  0  0
    4.5018  -20.0950   28.3404 N   0  0  0  0  0  0  0  0  0  0  0  0
    2.2044  -20.5115   27.8456 N   0  0  0  0  0  0  0  0  0  0  0  0
    1.1595  -20.7602   26.9843 C   0  0  0  0  0  0  0  0  0  0  0  0
    1.4109  -20.8563   25.6278 C   0  0  0  0  0  0  0  0  0  0  0  0
    2.7528  -20.6889   25.1726 C   0  0  0  0  0  0  0  0  0  0  0  0
    3.0488  -20.7841   23.7757 N   0  0  0  0  0  0  0  0  0  0  0  0
    0.1978  -21.1107   25.0166 N   0  0  0  0  0  0  0  0  0  0  0  0
   -0.7610  -21.1748   25.9622 C   0  0  0  0  0  0  0  0  0  0  0  0
   -0.2004  -20.9662   27.1702 N   0  0  0  0  0  0  0  0  0  0  0  0
  1  7  2  0  0  0  0
  1  2  1  0  0  0  0
  2  3  1  0  0  0  0
  2  4  2  0  0  0  0
  4  5  1  0  0  0  0
  5  6  2  0  0  0  0
  5 11  1  0  0  0  0
  6  7  1  0  0  0  0
  6  9  1  0  0  0  0
  7  8  1  0  0  0  0
  9 10  1  0  0  0  0
 10 11  2  0  0  0  0
M  END
>  <CHROM.1>
1.97972231,-20.69913041,26.31016106,-0.36407892,-0.15819816,-1.67002620

>  <Name>
ligand

>  <RI>
0

>  <Rbt.Current_Directory>
/home/itssahil/PROJECTS/Mol_Feturizer/New_Systems/rnas/4LVZ

>  <Rbt.Executable>
rbdock ($Id: //depot/dev/client3/rdock/2013.1/src/exe/rbdock.cxx#4 $)

>  <Rbt.Library>
libRbt.so (2013.1, Build901 2013/11/27)

>  <Rbt.Parameter_File>
/export/apps/rDock/src/rDock_2013.1_src/data/scripts/dock_solv.prm

>  <Rbt.Receptor>
prm/pocket_docking_8.prm

>  <SCORE>
-8.6592

>  <SCORE.INTER>
-8.6592

>  <SCORE.INTER.CONST>
1

>  <SCORE.INTER.POLAR>
0

>  <SCORE.INTER.ROT>
0

>  <SCORE.INTER.SOLV>
12.6764

>  <SCORE.INTER.VDW>
-13.5983

>  <SCORE.INTER.norm>
-0.7872

>  <SCORE.INTRA>
0

>  <SCORE.INTRA.DIHEDRAL>
0

>  <SCORE.INTRA.DIHEDRAL.0>
0

>  <SCORE.INTRA.POLAR>
0

>  <SCORE.INTRA.POLAR.0>
0

>  <SCORE.INTRA.REPUL>
0

>  <SCORE.INTRA.REPUL.0>
0

>  <SCORE.INTRA.SOLV>
0

>  <SCORE.INTRA.SOLV.lig_0>
-49.4056

>  <SCORE.INTRA.VDW>
0

>  <SCORE.INTRA.VDW.0>
0

>  <SCORE.INTRA.norm>
0

>  <SCORE.RESTR>
0

>  <SCORE.RESTR.CAVITY>
0

>  <SCORE.RESTR.norm>
0

>  <SCORE.SYSTEM>
0

>  <SCORE.SYSTEM.CONST>
0

>  <SCORE.SYSTEM.DIHEDRAL>
0

>  <SCORE.SYSTEM.SOLV>
0

>  <SCORE.SYSTEM.norm>
0

>  <SCORE.heavy>
11

>  <SCORE.norm>
-0.7872

>  <RMSD>
0.603

$$$$
ligand
 OpenBabel11021811503D
libRbt.so/2013.1/901 2013/11/27
 11 12  0  0  0  0  0  0  0  0999 V2000
    3.7507  -20.4399   26.0313 N   0  0  0  0  0  0  0  0  0  0  0  0
    3.4913  -20.3691   27.3604 C   0  0  0  0  0  0  0  0  0  0  0  0
    4.5432  -20.1210   28.3005 N   0  0  0  0  0  0  0  0  0  0  0  0
    2.2411  -20.5362   27.8271 N   0  0  0  0  0  0  0  0  0  0  0  0
    1.1869  -20.7771   26.9749 C   0  0  0  0  0  0  0  0  0  0  0  0
    1.4229  -20.8571   25.6147 C   0  0  0  0  0  0  0  0  0  0  0  0
    2.7592  -20.6818   25.1462 C   0  0  0  0  0  0  0  0  0  0  0  0
    3.0394  -20.7603   23.7450 N   0  0  0  0  0  0  0  0  0  0  0  0
    0.2034  -21.1068   25.0145 N   0  0  0  0  0  0  0  0  0  0  0  0
   -0.7445  -21.1838   25.9702 C   0  0  0  0  0  0  0  0  0  0  0  0
   -0.1704  -20.9880   27.1740 N   0  0  0  0  0  0  0  0  0  0  0  0
  1  7  2  0  0  0  0
  1  2  1  0  0  0  0
  2  3  1  0  0  0  0
  2  4  2  0  0  0  0
  4  5  1  0  0  0  0
  5  6  2  0  0  0  0
  5 11  1  0  0  0  0
  6  7  1  0  0  0  0
  6  9  1  0  0  0  0
  7  8  1  0  0  0  0
  9 10  1  0  0  0  0
 10 11  2  0  0  0  0
M  END
>  <CHROM.1>
1.99920650,-20.70665084,26.29228168,-0.35273808,-0.16117335,-1.65667794

>  <Name>
ligand

>  <RI>
0

>  <Rbt.Current_Directory>
/home/itssahil/PROJECTS/Mol_Feturizer/New_Systems/rnas/4LVZ

>  <Rbt.Executable>
rbdock ($Id: //depot/dev/client3/rdock/2013.1/src/exe/rbdock.cxx#4 $)

>  <Rbt.Library>
libRbt.so (2013.1, Build901 2013/11/27)

>  <Rbt.Parameter_File>
/export/apps/rDock/src/rDock_2013.1_src/data/scripts/dock_solv.prm

>  <Rbt.Receptor>
prm/pocket_docking_7.prm

>  <SCORE>
-8.64702

>  <SCORE.INTER>
-8.64702

>  <SCORE.INTER.CONST>
1

>  <SCORE.INTER.POLAR>
0

>  <SCORE.INTER.ROT>
0

>  <SCORE.INTER.SOLV>
12.5542

>  <SCORE.INTER.VDW>
-13.5494

>  <SCORE.INTER.norm>
-0.786093

>  <SCORE.INTRA>
0

>  <SCORE.INTRA.DIHEDRAL>
0

>  <SCORE.INTRA.DIHEDRAL.0>
0

>  <SCORE.INTRA.POLAR>
0

>  <SCORE.INTRA.POLAR.0>
0

>  <SCORE.INTRA.REPUL>
0

>  <SCORE.INTRA.REPUL.0>
0

>  <SCORE.INTRA.SOLV>
0

>  <SCORE.INTRA.SOLV.lig_0>
-49.4056

>  <SCORE.INTRA.VDW>
0

>  <SCORE.INTRA.VDW.0>
0

>  <SCORE.INTRA.norm>
0

>  <SCORE.RESTR>
0

>  <SCORE.RESTR.CAVITY>
0

>  <SCORE.RESTR.norm>
0

>  <SCORE.SYSTEM>
0

>  <SCORE.SYSTEM.CONST>
0

>  <SCORE.SYSTEM.DIHEDRAL>
0

>  <SCORE.SYSTEM.SOLV>
0

>  <SCORE.SYSTEM.norm>
0

>  <SCORE.heavy>
11

>  <SCORE.norm>
-0.786093

>  <RMSD>
0.605

$$$$
ligand
 OpenBabel11021811503D
libRbt.so/2013.1/901 2013/11/27
 11 12  0  0  0  0  0  0  0  0999 V2000
    3.7334  -20.4421   26.0725 N   0  0  0  0  0  0  0  0  0  0  0  0
    3.4573  -20.3549   27.3971 C   0  0  0  0  0  0  0  0  0  0  0  0
    4.4974  -20.0957   28.3474 N   0  0  0  0  0  0  0  0  0  0  0  0
    2.2012  -20.5157   27.8501 N   0  0  0  0  0  0  0  0  0  0  0  0
    1.1577  -20.7666   26.9877 C   0  0  0  0  0  0  0  0  0  0  0  0
    1.4108  -20.8634   25.6316 C   0  0  0  0  0  0  0  0  0  0  0  0
    2.7530  -20.6944   25.1779 C   0  0  0  0  0  0  0  0  0  0  0  0
    3.0509  -20.7902   23.7815 N   0  0  0  0  0  0  0  0  0  0  0  0
    0.1989  -21.1199   25.0192 N   0  0  0  0  0  0  0  0  0  0  0  0
   -0.7611  -21.1847   25.9637 C   0  0  0  0  0  0  0  0  0  0  0  0
   -0.2022  -20.9744   27.1721 N   0  0  0  0  0  0  0  0  0  0  0  0
  1  7  2  0  0  0  0
  1  2  1  0  0  0  0
  2  3  1  0  0  0  0
  2  4  2  0  0  0  0
  4  5  1  0  0  0  0
  5  6  2  0  0  0  0
  5 11  1  0  0  0  0
  6  7  1  0  0  0  0
  6  9  1  0  0  0  0
  7  8  1  0  0  0  0
  9 10  1  0  0  0  0
 10 11  2  0  0  0  0
M  END
>  <CHROM.1>
1.97860446,-20.70485927,26.31452815,-0.36542980,-0.15949442,-1.67099129

>  <Name>
ligand

>  <RI>
0

>  <Rbt.Current_Directory>
/home/itssahil/PROJECTS/Mol_Feturizer/New_Systems/rnas/4LVZ

>  <Rbt.Executable>
rbdock ($Id: //depot/dev/client3/rdock/2013.1/src/exe/rbdock.cxx#4 $)

>  <Rbt.Library>
libRbt.so (2013.1, Build901 2013/11/27)

>  <Rbt.Parameter_File>
/export/apps/rDock/src/rDock_2013.1_src/data/scripts/dock_solv.prm

>  <Rbt.Receptor>
prm/pocket_docking_5.prm

>  <SCORE>
-8.66705

>  <SCORE.INTER>
-8.66705

>  <SCORE.INTER.CONST>
1

>  <SCORE.INTER.POLAR>
0

>  <SCORE.INTER.ROT>
0

>  <SCORE.INTER.SOLV>
12.6897

>  <SCORE.INTER.VDW>
-13.6079

>  <SCORE.INTER.norm>
-0.787913

>  <SCORE.INTRA>
0

>  <SCORE.INTRA.DIHEDRAL>
0

>  <SCORE.INTRA.DIHEDRAL.0>
0

>  <SCORE.INTRA.POLAR>
0

>  <SCORE.INTRA.POLAR.0>
0

>  <SCORE.INTRA.REPUL>
0

>  <SCORE.INTRA.REPUL.0>
0

>  <SCORE.INTRA.SOLV>
0

>  <SCORE.INTRA.SOLV.lig_0>
-49.4056

>  <SCORE.INTRA.VDW>
0

>  <SCORE.INTRA.VDW.0>
0

>  <SCORE.INTRA.norm>
0

>  <SCORE.RESTR>
0

>  <SCORE.RESTR.CAVITY>
0

>  <SCORE.RESTR.norm>
0

>  <SCORE.SYSTEM>
0

>  <SCORE.SYSTEM.CONST>
0

>  <SCORE.SYSTEM.DIHEDRAL>
0

>  <SCORE.SYSTEM.SOLV>
0

>  <SCORE.SYSTEM.norm>
0

>  <SCORE.heavy>
11

>  <SCORE.norm>
-0.787913

>  <RMSD>
0.606

$$$$
ligand
 OpenBabel11021811503D
libRbt.so/2013.1/901 2013/11/27
 11 12  0  0  0  0  0  0  0  0999 V2000
    3.7451  -20.4454   26.0539 N   0  0  0  0  0  0  0  0  0  0  0  0
    3.4736  -20.3669   27.3800 C   0  0  0  0  0  0  0  0  0  0  0  0
    4.5176  -20.1177   28.3287 N   0  0  0  0  0  0  0  0  0  0  0  0
    2.2185  -20.5272   27.8359 N   0  0  0  0  0  0  0  0  0  0  0  0
    1.1714  -20.7687   26.9751 C   0  0  0  0  0  0  0  0  0  0  0  0
    1.4199  -20.8565   25.6176 C   0  0  0  0  0  0  0  0  0  0  0  0
    2.7611  -20.6883   25.1607 C   0  0  0  0  0  0  0  0  0  0  0  0
    3.0541  -20.7750   23.7627 N   0  0  0  0  0  0  0  0  0  0  0  0
    0.2051  -21.1049   25.0073 N   0  0  0  0  0  0  0  0  0  0  0  0
   -0.7519  -21.1736   25.9544 C   0  0  0  0  0  0  0  0  0  0  0  0
   -0.1885  -20.9737   27.1625 N   0  0  0  0  0  0  0  0  0  0  0  0
  1  7  2  0  0  0  0
  1  2  1  0  0  0  0
  2  3  1  0  0  0  0
  2  4  2  0  0  0  0
  4  5  1  0  0  0  0
  5  6  2  0  0  0  0
  5 11  1  0  0  0  0
  6  7  1  0  0  0  0
  6  9  1  0  0  0  0
  7  8  1  0  0  0  0
  9 10  1  0  0  0  0
 10 11  2  0  0  0  0
M  END
>  <CHROM.1>
1.99031792,-20.70461661,26.29976538,-0.36184453,-0.15678809,-1.66322567

>  <Name>
ligand

>  <RI>
0

>  <Rbt.Current_Directory>
/home/itssahil/PROJECTS/Mol_Feturizer/New_Systems/rnas/4LVZ

>  <Rbt.Executable>
rbdock ($Id: //depot/dev/client3/rdock/2013.1/src/exe/rbdock.cxx#4 $)

>  <Rbt.Library>
libRbt.so (2013.1, Build901 2013/11/27)

>  <Rbt.Parameter_File>
/export/apps/rDock/src/rDock_2013.1_src/data/scripts/dock_solv.prm

>  <Rbt.Receptor>
prm/pocket_docking_5.prm

>  <SCORE>
-8.64258

>  <SCORE.INTER>
-8.64258

>  <SCORE.INTER.CONST>
1

>  <SCORE.INTER.POLAR>
0

>  <SCORE.INTER.ROT>
0

>  <SCORE.INTER.SOLV>
12.5931

>  <SCORE.INTER.VDW>
-13.5594

>  <SCORE.INTER.norm>
-0.785689

>  <SCORE.INTRA>
0

>  <SCORE.INTRA.DIHEDRAL>
0

>  <SCORE.INTRA.DIHEDRAL.0>
0

>  <SCORE.INTRA.POLAR>
0

>  <SCORE.INTRA.POLAR.0>
0

>  <SCORE.INTRA.REPUL>
0

>  <SCORE.INTRA.REPUL.0>
0

>  <SCORE.INTRA.SOLV>
0

>  <SCORE.INTRA.SOLV.lig_0>
-49.4056

>  <SCORE.INTRA.VDW>
0

>  <SCORE.INTRA.VDW.0>
0

>  <SCORE.INTRA.norm>
0

>  <SCORE.RESTR>
0

>  <SCORE.RESTR.CAVITY>
0

>  <SCORE.RESTR.norm>
0

>  <SCORE.SYSTEM>
0

>  <SCORE.SYSTEM.CONST>
0

>  <SCORE.SYSTEM.DIHEDRAL>
0

>  <SCORE.SYSTEM.SOLV>
0

>  <SCORE.SYSTEM.norm>
0

>  <SCORE.heavy>
11

>  <SCORE.norm>
-0.785689

>  <RMSD>
0.609

$$$$
ligand
 OpenBabel11021811503D
libRbt.so/2013.1/901 2013/11/27
 11 12  0  0  0  0  0  0  0  0999 V2000
    3.7381  -20.4398   26.0411 N   0  0  0  0  0  0  0  0  0  0  0  0
    3.4741  -20.3683   27.3692 C   0  0  0  0  0  0  0  0  0  0  0  0
    4.5230  -20.1211   28.3129 N   0  0  0  0  0  0  0  0  0  0  0  0
    2.2221  -20.5338   27.8316 N   0  0  0  0  0  0  0  0  0  0  0  0
    1.1706  -20.7736   26.9757 C   0  0  0  0  0  0  0  0  0  0  0  0
    1.4114  -20.8544   25.6164 C   0  0  0  0  0  0  0  0  0  0  0  0
    2.7495  -20.6808   25.1525 C   0  0  0  0  0  0  0  0  0  0  0  0
    3.0346  -20.7602   23.7524 N   0  0  0  0  0  0  0  0  0  0  0  0
    0.1937  -21.1028   25.0119 N   0  0  0  0  0  0  0  0  0  0  0  0
   -0.7577  -21.1783   25.9642 C   0  0  0  0  0  0  0  0  0  0  0  0
   -0.1877  -20.9828   27.1700 N   0  0  0  0  0  0  0  0  0  0  0  0
  1  7  2  0  0  0  0
  1  2  1  0  0  0  0
  2  3  1  0  0  0  0
  2  4  2  0  0  0  0
  4  5  1  0  0  0  0
  5  6  2  0  0  0  0
  5 11  1  0  0  0  0
  6  7  1  0  0  0  0
  6  9  1  0  0  0  0
  7  8  1  0  0  0  0
  9 10  1  0  0  0  0
 10 11  2  0  0  0  0
M  END
>  <CHROM.1>
1.98541215,-20.70440743,26.29591720,-0.35621500,-0.15966729,-1.65756765

>  <Name>
ligand

>  <RI>
0

>  <Rbt.Current_Directory>
/home/itssahil/PROJECTS/Mol_Feturizer/New_Systems/rnas/4LVZ

>  <Rbt.Executable>
rbdock ($Id: //depot/dev/client3/rdock/2013.1/src/exe/rbdock.cxx#4 $)

>  <Rbt.Library>
libRbt.so (2013.1, Build901 2013/11/27)

>  <Rbt.Parameter_File>
/export/apps/rDock/src/rDock_2013.1_src/data/scripts/dock_solv.prm

>  <Rbt.Receptor>
prm/pocket_docking_6.prm

>  <SCORE>
-8.64131

>  <SCORE.INTER>
-8.64131

>  <SCORE.INTER.CONST>
1

>  <SCORE.INTER.POLAR>
0

>  <SCORE.INTER.ROT>
0

>  <SCORE.INTER.SOLV>
12.634

>  <SCORE.INTER.VDW>
-13.5722

>  <SCORE.INTER.norm>
-0.785574

>  <SCORE.INTRA>
0

>  <SCORE.INTRA.DIHEDRAL>
0

>  <SCORE.INTRA.DIHEDRAL.0>
0

>  <SCORE.INTRA.POLAR>
0

>  <SCORE.INTRA.POLAR.0>
0

>  <SCORE.INTRA.REPUL>
0

>  <SCORE.INTRA.REPUL.0>
0

>  <SCORE.INTRA.SOLV>
0

>  <SCORE.INTRA.SOLV.lig_0>
-49.4056

>  <SCORE.INTRA.VDW>
0

>  <SCORE.INTRA.VDW.0>
0

>  <SCORE.INTRA.norm>
0

>  <SCORE.RESTR>
0

>  <SCORE.RESTR.CAVITY>
0

>  <SCORE.RESTR.norm>
0

>  <SCORE.SYSTEM>
0

>  <SCORE.SYSTEM.CONST>
0

>  <SCORE.SYSTEM.DIHEDRAL>
0

>  <SCORE.SYSTEM.SOLV>
0

>  <SCORE.SYSTEM.norm>
0

>  <SCORE.heavy>
11

>  <SCORE.norm>
-0.785574

>  <RMSD>
0.609

$$$$
ligand
 OpenBabel11021811503D
libRbt.so/2013.1/901 2013/11/27
 11 12  0  0  0  0  0  0  0  0999 V2000
    3.7703  -20.3805   26.1152 N   0  0  0  0  0  0  0  0  0  0  0  0
    3.4792  -20.3357   27.4387 C   0  0  0  0  0  0  0  0  0  0  0  0
    4.5066  -20.0960   28.4077 N   0  0  0  0  0  0  0  0  0  0  0  0
    2.2199  -20.5213   27.8728 N   0  0  0  0  0  0  0  0  0  0  0  0
    1.1880  -20.7553   26.9918 C   0  0  0  0  0  0  0  0  0  0  0  0
    1.4566  -20.8090   25.6363 C   0  0  0  0  0  0  0  0  0  0  0  0
    2.8020  -20.6145   25.2027 C   0  0  0  0  0  0  0  0  0  0  0  0
    3.1157  -20.6656   23.8074 N   0  0  0  0  0  0  0  0  0  0  0  0
    0.2537  -21.0577   25.0032 N   0  0  0  0  0  0  0  0  0  0  0  0
   -0.7157  -21.1595   25.9347 C   0  0  0  0  0  0  0  0  0  0  0  0
   -0.1718  -20.9807   27.1550 N   0  0  0  0  0  0  0  0  0  0  0  0
  1  7  2  0  0  0  0
  1  2  1  0  0  0  0
  2  3  1  0  0  0  0
  2  4  2  0  0  0  0
  4  5  1  0  0  0  0
  5  6  2  0  0  0  0
  5 11  1  0  0  0  0
  6  7  1  0  0  0  0
  6  9  1  0  0  0  0
  7  8  1  0  0  0  0
  9 10  1  0  0  0  0
 10 11  2  0  0  0  0
M  END
>  <CHROM.1>
2.01551204,-20.66608667,26.32989283,-0.37719865,-0.16758382,-1.64284613

>  <Name>
ligand

>  <RI>
0

>  <Rbt.Current_Directory>
/home/itssahil/PROJECTS/Mol_Feturizer/New_Systems/rnas/4LVZ

>  <Rbt.Executable>
rbdock ($Id: //depot/dev/client3/rdock/2013.1/src/exe/rbdock.cxx#4 $)

>  <Rbt.Library>
libRbt.so (2013.1, Build901 2013/11/27)

>  <Rbt.Parameter_File>
/export/apps/rDock/src/rDock_2013.1_src/data/scripts/dock_solv.prm

>  <Rbt.Receptor>
prm/pocket_docking_7.prm

>  <SCORE>
-8.58785

>  <SCORE.INTER>
-8.58785

>  <SCORE.INTER.CONST>
1

>  <SCORE.INTER.POLAR>
0

>  <SCORE.INTER.ROT>
0

>  <SCORE.INTER.SOLV>
12.3138

>  <SCORE.INTER.VDW>
-13.4298

>  <SCORE.INTER.norm>
-0.780714

>  <SCORE.INTRA>
0

>  <SCORE.INTRA.DIHEDRAL>
0

>  <SCORE.INTRA.DIHEDRAL.0>
0

>  <SCORE.INTRA.POLAR>
0

>  <SCORE.INTRA.POLAR.0>
0

>  <SCORE.INTRA.REPUL>
0

>  <SCORE.INTRA.REPUL.0>
0

>  <SCORE.INTRA.SOLV>
0

>  <SCORE.INTRA.SOLV.lig_0>
-49.4056

>  <SCORE.INTRA.VDW>
0

>  <SCORE.INTRA.VDW.0>
0

>  <SCORE.INTRA.norm>
0

>  <SCORE.RESTR>
0

>  <SCORE.RESTR.CAVITY>
0

>  <SCORE.RESTR.norm>
0

>  <SCORE.SYSTEM>
0

>  <SCORE.SYSTEM.CONST>
0

>  <SCORE.SYSTEM.DIHEDRAL>
0

>  <SCORE.SYSTEM.SOLV>
0

>  <SCORE.SYSTEM.norm>
0

>  <SCORE.heavy>
11

>  <SCORE.norm>
-0.780714

>  <RMSD>
0.609

$$$$
ligand
 OpenBabel11021811503D
libRbt.so/2013.1/901 2013/11/27
 11 12  0  0  0  0  0  0  0  0999 V2000
    3.7468  -20.4452   26.0334 N   0  0  0  0  0  0  0  0  0  0  0  0
    3.4901  -20.3778   27.3632 C   0  0  0  0  0  0  0  0  0  0  0  0
    4.5444  -20.1346   28.3020 N   0  0  0  0  0  0  0  0  0  0  0  0
    2.2405  -20.5437   27.8319 N   0  0  0  0  0  0  0  0  0  0  0  0
    1.1841  -20.7799   26.9810 C   0  0  0  0  0  0  0  0  0  0  0  0
    1.4174  -20.8564   25.6201 C   0  0  0  0  0  0  0  0  0  0  0  0
    2.7531  -20.6824   25.1495 C   0  0  0  0  0  0  0  0  0  0  0  0
    3.0305  -20.7574   23.7476 N   0  0  0  0  0  0  0  0  0  0  0  0
    0.1962  -21.1018   25.0215 N   0  0  0  0  0  0  0  0  0  0  0  0
   -0.7500  -21.1796   25.9788 C   0  0  0  0  0  0  0  0  0  0  0  0
   -0.1733  -20.9885   27.1820 N   0  0  0  0  0  0  0  0  0  0  0  0
  1  7  2  0  0  0  0
  1  2  1  0  0  0  0
  2  3  1  0  0  0  0
  2  4  2  0  0  0  0
  4  5  1  0  0  0  0
  5  6  2  0  0  0  0
  5 11  1  0  0  0  0
  6  7  1  0  0  0  0
  6  9  1  0  0  0  0
  7  8  1  0  0  0  0
  9 10  1  0  0  0  0
 10 11  2  0  0  0  0
M  END
>  <CHROM.1>
1.99528132,-20.70909347,26.29697856,-0.35062648,-0.15927249,-1.65342263

>  <Name>
ligand

>  <RI>
0

>  <Rbt.Current_Directory>
/home/itssahil/PROJECTS/Mol_Feturizer/New_Systems/rnas/4LVZ

>  <Rbt.Executable>
rbdock ($Id: //depot/dev/client3/rdock/2013.1/src/exe/rbdock.cxx#4 $)

>  <Rbt.Library>
libRbt.so (2013.1, Build901 2013/11/27)

>  <Rbt.Parameter_File>
/export/apps/rDock/src/rDock_2013.1_src/data/scripts/dock_solv.prm

>  <Rbt.Receptor>
prm/pocket_docking_6.prm

>  <SCORE>
-8.64534

>  <SCORE.INTER>
-8.64534

>  <SCORE.INTER.CONST>
1

>  <SCORE.INTER.POLAR>
0

>  <SCORE.INTER.ROT>
0

>  <SCORE.INTER.SOLV>
12.5836

>  <SCORE.INTER.VDW>
-13.5581

>  <SCORE.INTER.norm>
-0.78594

>  <SCORE.INTRA>
0

>  <SCORE.INTRA.DIHEDRAL>
0

>  <SCORE.INTRA.DIHEDRAL.0>
0

>  <SCORE.INTRA.POLAR>
0

>  <SCORE.INTRA.POLAR.0>
0

>  <SCORE.INTRA.REPUL>
0

>  <SCORE.INTRA.REPUL.0>
0

>  <SCORE.INTRA.SOLV>
0

>  <SCORE.INTRA.SOLV.lig_0>
-49.4056

>  <SCORE.INTRA.VDW>
0

>  <SCORE.INTRA.VDW.0>
0

>  <SCORE.INTRA.norm>
0

>  <SCORE.RESTR>
0

>  <SCORE.RESTR.CAVITY>
0

>  <SCORE.RESTR.norm>
0

>  <SCORE.SYSTEM>
0

>  <SCORE.SYSTEM.CONST>
0

>  <SCORE.SYSTEM.DIHEDRAL>
0

>  <SCORE.SYSTEM.SOLV>
0

>  <SCORE.SYSTEM.norm>
0

>  <SCORE.heavy>
11

>  <SCORE.norm>
-0.78594

>  <RMSD>
0.610

$$$$
ligand
 OpenBabel11021811503D
libRbt.so/2013.1/901 2013/11/27
 11 12  0  0  0  0  0  0  0  0999 V2000
    3.7661  -20.4541   26.0645 N   0  0  0  0  0  0  0  0  0  0  0  0
    3.4967  -20.3805   27.3914 C   0  0  0  0  0  0  0  0  0  0  0  0
    4.5423  -20.1354   28.3394 N   0  0  0  0  0  0  0  0  0  0  0  0
    2.2423  -20.5421   27.8487 N   0  0  0  0  0  0  0  0  0  0  0  0
    1.1937  -20.7798   26.9886 C   0  0  0  0  0  0  0  0  0  0  0  0
    1.4400  -20.8625   25.6303 C   0  0  0  0  0  0  0  0  0  0  0  0
    2.7806  -20.6931   25.1720 C   0  0  0  0  0  0  0  0  0  0  0  0
    3.0714  -20.7746   23.7732 N   0  0  0  0  0  0  0  0  0  0  0  0
    0.2242  -21.1081   25.0210 N   0  0  0  0  0  0  0  0  0  0  0  0
   -0.7313  -21.1800   25.9693 C   0  0  0  0  0  0  0  0  0  0  0  0
   -0.1659  -20.9850   27.1773 N   0  0  0  0  0  0  0  0  0  0  0  0
  1  7  2  0  0  0  0
  1  2  1  0  0  0  0
  2  3  1  0  0  0  0
  2  4  2  0  0  0  0
  4  5  1  0  0  0  0
  5  6  2  0  0  0  0
  5 11  1  0  0  0  0
  6  7  1  0  0  0  0
  6  9  1  0  0  0  0
  7  8  1  0  0  0  0
  9 10  1  0  0  0  0
 10 11  2  0  0  0  0
M  END
>  <CHROM.1>
2.01162147,-20.71348842,26.31219016,-0.36023659,-0.15650947,-1.65914819

>  <Name>
ligand

>  <RI>
0

>  <Rbt.Current_Directory>
/home/itssahil/PROJECTS/Mol_Feturizer/New_Systems/rnas/4LVZ

>  <Rbt.Executable>
rbdock ($Id: //depot/dev/client3/rdock/2013.1/src/exe/rbdock.cxx#4 $)

>  <Rbt.Library>
libRbt.so (2013.1, Build901 2013/11/27)

>  <Rbt.Parameter_File>
/export/apps/rDock/src/rDock_2013.1_src/data/scripts/dock_solv.prm

>  <Rbt.Receptor>
prm/pocket_docking_5.prm

>  <SCORE>
-8.64474

>  <SCORE.INTER>
-8.64474

>  <SCORE.INTER.CONST>
1

>  <SCORE.INTER.POLAR>
0

>  <SCORE.INTER.ROT>
0

>  <SCORE.INTER.SOLV>
12.457

>  <SCORE.INTER.VDW>
-13.5155

>  <SCORE.INTER.norm>
-0.785886

>  <SCORE.INTRA>
0

>  <SCORE.INTRA.DIHEDRAL>
0

>  <SCORE.INTRA.DIHEDRAL.0>
0

>  <SCORE.INTRA.POLAR>
0

>  <SCORE.INTRA.POLAR.0>
0

>  <SCORE.INTRA.REPUL>
0

>  <SCORE.INTRA.REPUL.0>
0

>  <SCORE.INTRA.SOLV>
0

>  <SCORE.INTRA.SOLV.lig_0>
-49.4056

>  <SCORE.INTRA.VDW>
0

>  <SCORE.INTRA.VDW.0>
0

>  <SCORE.INTRA.norm>
0

>  <SCORE.RESTR>
0

>  <SCORE.RESTR.CAVITY>
0

>  <SCORE.RESTR.norm>
0

>  <SCORE.SYSTEM>
0

>  <SCORE.SYSTEM.CONST>
0

>  <SCORE.SYSTEM.DIHEDRAL>
0

>  <SCORE.SYSTEM.SOLV>
0

>  <SCORE.SYSTEM.norm>
0

>  <SCORE.heavy>
11

>  <SCORE.norm>
-0.785886

>  <RMSD>
0.613

$$$$
ligand
 OpenBabel11021811503D
libRbt.so/2013.1/901 2013/11/27
 11 12  0  0  0  0  0  0  0  0999 V2000
    3.7458  -20.4506   26.0441 N   0  0  0  0  0  0  0  0  0  0  0  0
    3.4797  -20.3859   27.3721 C   0  0  0  0  0  0  0  0  0  0  0  0
    4.5277  -20.1472   28.3190 N   0  0  0  0  0  0  0  0  0  0  0  0
    2.2264  -20.5502   27.8314 N   0  0  0  0  0  0  0  0  0  0  0  0
    1.1756  -20.7820   26.9724 C   0  0  0  0  0  0  0  0  0  0  0  0
    1.4185  -20.8558   25.6130 C   0  0  0  0  0  0  0  0  0  0  0  0
    2.7580  -20.6836   25.1524 C   0  0  0  0  0  0  0  0  0  0  0  0
    3.0453  -20.7559   23.7524 N   0  0  0  0  0  0  0  0  0  0  0  0
    0.2012  -21.0971   25.0050 N   0  0  0  0  0  0  0  0  0  0  0  0
   -0.7521  -21.1751   25.9553 C   0  0  0  0  0  0  0  0  0  0  0  0
   -0.1836  -20.9882   27.1631 N   0  0  0  0  0  0  0  0  0  0  0  0
  1  7  2  0  0  0  0
  1  2  1  0  0  0  0
  2  3  1  0  0  0  0
  2  4  2  0  0  0  0
  4  5  1  0  0  0  0
  5  6  2  0  0  0  0
  5 11  1  0  0  0  0
  6  7  1  0  0  0  0
  6  9  1  0  0  0  0
  7  8  1  0  0  0  0
  9 10  1  0  0  0  0
 10 11  2  0  0  0  0
M  END
>  <CHROM.1>
1.99184661,-20.71136656,26.29438077,-0.35770857,-0.15652316,-1.65213433

>  <Name>
ligand

>  <RI>
0

>  <Rbt.Current_Directory>
/home/itssahil/PROJECTS/Mol_Feturizer/New_Systems/rnas/4LVZ

>  <Rbt.Executable>
rbdock ($Id: //depot/dev/client3/rdock/2013.1/src/exe/rbdock.cxx#4 $)

>  <Rbt.Library>
libRbt.so (2013.1, Build901 2013/11/27)

>  <Rbt.Parameter_File>
/export/apps/rDock/src/rDock_2013.1_src/data/scripts/dock_solv.prm

>  <Rbt.Receptor>
prm/pocket_docking_8.prm

>  <SCORE>
-8.636

>  <SCORE.INTER>
-8.636

>  <SCORE.INTER.CONST>
1

>  <SCORE.INTER.POLAR>
0

>  <SCORE.INTER.ROT>
0

>  <SCORE.INTER.SOLV>
12.5952

>  <SCORE.INTER.VDW>
-13.5557

>  <SCORE.INTER.norm>
-0.785091

>  <SCORE.INTRA>
0

>  <SCORE.INTRA.DIHEDRAL>
0

>  <SCORE.INTRA.DIHEDRAL.0>
0

>  <SCORE.INTRA.POLAR>
0

>  <SCORE.INTRA.POLAR.0>
0

>  <SCORE.INTRA.REPUL>
0

>  <SCORE.INTRA.REPUL.0>
0

>  <SCORE.INTRA.SOLV>
0

>  <SCORE.INTRA.SOLV.lig_0>
-49.4056

>  <SCORE.INTRA.VDW>
0

>  <SCORE.INTRA.VDW.0>
0

>  <SCORE.INTRA.norm>
0

>  <SCORE.RESTR>
0

>  <SCORE.RESTR.CAVITY>
0

>  <SCORE.RESTR.norm>
0

>  <SCORE.SYSTEM>
0

>  <SCORE.SYSTEM.CONST>
0

>  <SCORE.SYSTEM.DIHEDRAL>
0

>  <SCORE.SYSTEM.SOLV>
0

>  <SCORE.SYSTEM.norm>
0

>  <SCORE.heavy>
11

>  <SCORE.norm>
-0.785091

>  <RMSD>
0.620

$$$$
ligand
 OpenBabel11021811503D
libRbt.so/2013.1/901 2013/11/27
 11 12  0  0  0  0  0  0  0  0999 V2000
    3.7366  -20.4492   26.0560 N   0  0  0  0  0  0  0  0  0  0  0  0
    3.4658  -20.3848   27.3831 C   0  0  0  0  0  0  0  0  0  0  0  0
    4.5104  -20.1464   28.3338 N   0  0  0  0  0  0  0  0  0  0  0  0
    2.2109  -20.5493   27.8379 N   0  0  0  0  0  0  0  0  0  0  0  0
    1.1632  -20.7809   26.9752 C   0  0  0  0  0  0  0  0  0  0  0  0
    1.4109  -20.8543   25.6166 C   0  0  0  0  0  0  0  0  0  0  0  0
    2.7519  -20.6819   25.1608 C   0  0  0  0  0  0  0  0  0  0  0  0
    3.0441  -20.7538   23.7618 N   0  0  0  0  0  0  0  0  0  0  0  0
    0.1957  -21.0955   25.0043 N   0  0  0  0  0  0  0  0  0  0  0  0
   -0.7609  -21.1738   25.9512 C   0  0  0  0  0  0  0  0  0  0  0  0
   -0.1967  -20.9872   27.1611 N   0  0  0  0  0  0  0  0  0  0  0  0
  1  7  2  0  0  0  0
  1  2  1  0  0  0  0
  2  3  1  0  0  0  0
  2  4  2  0  0  0  0
  4  5  1  0  0  0  0
  5  6  2  0  0  0  0
  5 11  1  0  0  0  0
  6  7  1  0  0  0  0
  6  9  1  0  0  0  0
  7  8  1  0  0  0  0
  9 10  1  0  0  0  0
 10 11  2  0  0  0  0
M  END
>  <CHROM.1>
1.98176781,-20.71007644,26.30006131,-0.36125349,-0.15627583,-1.65238973

>  <Name>
ligand

>  <RI>
0

>  <Rbt.Current_Directory>
/home/itssahil/PROJECTS/Mol_Feturizer/New_Systems/rnas/4LVZ

>  <Rbt.Executable>
rbdock ($Id: //depot/dev/client3/rdock/2013.1/src/exe/rbdock.cxx#4 $)

>  <Rbt.Library>
libRbt.so (2013.1, Build901 2013/11/27)

>  <Rbt.Parameter_File>
/export/apps/rDock/src/rDock_2013.1_src/data/scripts/dock_solv.prm

>  <Rbt.Receptor>
prm/pocket_docking_7.prm

>  <SCORE>
-8.62843

>  <SCORE.INTER>
-8.62843

>  <SCORE.INTER.CONST>
1

>  <SCORE.INTER.POLAR>
0

>  <SCORE.INTER.ROT>
0

>  <SCORE.INTER.SOLV>
12.6497

>  <SCORE.INTER.VDW>
-13.5689

>  <SCORE.INTER.norm>
-0.784403

>  <SCORE.INTRA>
0

>  <SCORE.INTRA.DIHEDRAL>
0

>  <SCORE.INTRA.DIHEDRAL.0>
0

>  <SCORE.INTRA.POLAR>
0

>  <SCORE.INTRA.POLAR.0>
0

>  <SCORE.INTRA.REPUL>
0

>  <SCORE.INTRA.REPUL.0>
0

>  <SCORE.INTRA.SOLV>
0

>  <SCORE.INTRA.SOLV.lig_0>
-49.4056

>  <SCORE.INTRA.VDW>
0

>  <SCORE.INTRA.VDW.0>
0

>  <SCORE.INTRA.norm>
0

>  <SCORE.RESTR>
0

>  <SCORE.RESTR.CAVITY>
0

>  <SCORE.RESTR.norm>
0

>  <SCORE.SYSTEM>
0

>  <SCORE.SYSTEM.CONST>
0

>  <SCORE.SYSTEM.DIHEDRAL>
0

>  <SCORE.SYSTEM.SOLV>
0

>  <SCORE.SYSTEM.norm>
0

>  <SCORE.heavy>
11

>  <SCORE.norm>
-0.784403

>  <RMSD>
0.624

$$$$
ligand
 OpenBabel11021811503D
libRbt.so/2013.1/901 2013/11/27
 11 12  0  0  0  0  0  0  0  0999 V2000
    3.7241  -20.3630   25.4450 N   0  0  0  0  0  0  0  0  0  0  0  0
    3.2292  -20.6118   24.2074 C   0  0  0  0  0  0  0  0  0  0  0  0
    4.0823  -20.5820   23.0570 N   0  0  0  0  0  0  0  0  0  0  0  0
    1.9245  -20.8865   24.0306 N   0  0  0  0  0  0  0  0  0  0  0  0
    1.0533  -20.9305   25.0958 C   0  0  0  0  0  0  0  0  0  0  0  0
    1.5302  -20.6780   26.3690 C   0  0  0  0  0  0  0  0  0  0  0  0
    2.9172  -20.3836   26.5284 C   0  0  0  0  0  0  0  0  0  0  0  0
    3.4439  -20.1154   27.8317 N   0  0  0  0  0  0  0  0  0  0  0  0
    0.4508  -20.7851   27.2254 N   0  0  0  0  0  0  0  0  0  0  0  0
   -0.6484  -21.0854   26.5048 C   0  0  0  0  0  0  0  0  0  0  0  0
   -0.3082  -21.1779   25.2038 N   0  0  0  0  0  0  0  0  0  0  0  0
  1  7  2  0  0  0  0
  1  2  1  0  0  0  0
  2  3  1  0  0  0  0
  2  4  2  0  0  0  0
  4  5  1  0  0  0  0
  5  6  2  0  0  0  0
  5 11  1  0  0  0  0
  6  7  1  0  0  0  0
  6  9  1  0  0  0  0
  7  8  1  0  0  0  0
  9 10  1  0  0  0  0
 10 11  2  0  0  0  0
M  END
>  <CHROM.1>
1.96814925,-20.68754468,25.58039814,-0.53833130,0.19245593,1.44780211

>  <Name>
ligand

>  <RI>
0

>  <Rbt.Current_Directory>
/home/itssahil/PROJECTS/Mol_Feturizer/New_Systems/rnas/4LVZ

>  <Rbt.Executable>
rbdock ($Id: //depot/dev/client3/rdock/2013.1/src/exe/rbdock.cxx#4 $)

>  <Rbt.Library>
libRbt.so (2013.1, Build901 2013/11/27)

>  <Rbt.Parameter_File>
/export/apps/rDock/src/rDock_2013.1_src/data/scripts/dock_solv.prm

>  <Rbt.Receptor>
prm/pocket_docking_3.prm

>  <SCORE>
-9.43287

>  <SCORE.INTER>
-9.43287

>  <SCORE.INTER.CONST>
1

>  <SCORE.INTER.POLAR>
0

>  <SCORE.INTER.ROT>
0

>  <SCORE.INTER.SOLV>
11.3337

>  <SCORE.INTER.VDW>
-13.6665

>  <SCORE.INTER.norm>
-0.857534

>  <SCORE.INTRA>
0

>  <SCORE.INTRA.DIHEDRAL>
0

>  <SCORE.INTRA.DIHEDRAL.0>
0

>  <SCORE.INTRA.POLAR>
0

>  <SCORE.INTRA.POLAR.0>
0

>  <SCORE.INTRA.REPUL>
0

>  <SCORE.INTRA.REPUL.0>
0

>  <SCORE.INTRA.SOLV>
0

>  <SCORE.INTRA.SOLV.lig_0>
-49.4056

>  <SCORE.INTRA.VDW>
0

>  <SCORE.INTRA.VDW.0>
0

>  <SCORE.INTRA.norm>
0

>  <SCORE.RESTR>
0

>  <SCORE.RESTR.CAVITY>
0

>  <SCORE.RESTR.norm>
0

>  <SCORE.SYSTEM>
0

>  <SCORE.SYSTEM.CONST>
0

>  <SCORE.SYSTEM.DIHEDRAL>
0

>  <SCORE.SYSTEM.SOLV>
0

>  <SCORE.SYSTEM.norm>
0

>  <SCORE.heavy>
11

>  <SCORE.norm>
-0.857534

>  <RMSD>
2.770

$$$$
ligand
 OpenBabel11021811503D
libRbt.so/2013.1/901 2013/11/27
 11 12  0  0  0  0  0  0  0  0999 V2000
    3.7313  -20.3665   25.4501 N   0  0  0  0  0  0  0  0  0  0  0  0
    3.2386  -20.6237   24.2133 C   0  0  0  0  0  0  0  0  0  0  0  0
    4.0941  -20.6035   23.0645 N   0  0  0  0  0  0  0  0  0  0  0  0
    1.9339  -20.8978   24.0357 N   0  0  0  0  0  0  0  0  0  0  0  0
    1.0604  -20.9328   25.0994 C   0  0  0  0  0  0  0  0  0  0  0  0
    1.5350  -20.6717   26.3718 C   0  0  0  0  0  0  0  0  0  0  0  0
    2.9221  -20.3781   26.5318 C   0  0  0  0  0  0  0  0  0  0  0  0
    3.4465  -20.1011   27.8342 N   0  0  0  0  0  0  0  0  0  0  0  0
    0.4538  -20.7711   27.2266 N   0  0  0  0  0  0  0  0  0  0  0  0
   -0.6444  -21.0751   26.5060 C   0  0  0  0  0  0  0  0  0  0  0  0
   -0.3016  -21.1775   25.2064 N   0  0  0  0  0  0  0  0  0  0  0  0
  1  7  2  0  0  0  0
  1  2  1  0  0  0  0
  2  3  1  0  0  0  0
  2  4  2  0  0  0  0
  4  5  1  0  0  0  0
  5  6  2  0  0  0  0
  5 11  1  0  0  0  0
  6  7  1  0  0  0  0
  6  9  1  0  0  0  0
  7  8  1  0  0  0  0
  9 10  1  0  0  0  0
 10 11  2  0  0  0  0
M  END
>  <CHROM.1>
1.97460396,-20.68766335,25.58414302,-0.53642239,0.19079527,1.44014552

>  <Name>
ligand

>  <RI>
0

>  <Rbt.Current_Directory>
/home/itssahil/PROJECTS/Mol_Feturizer/New_Systems/rnas/4LVZ

>  <Rbt.Executable>
rbdock ($Id: //depot/dev/client3/rdock/2013.1/src/exe/rbdock.cxx#4 $)

>  <Rbt.Library>
libRbt.so (2013.1, Build901 2013/11/27)

>  <Rbt.Parameter_File>
/export/apps/rDock/src/rDock_2013.1_src/data/scripts/dock_solv.prm

>  <Rbt.Receptor>
prm/pocket_docking_5.prm

>  <SCORE>
-9.43462

>  <SCORE.INTER>
-9.43462

>  <SCORE.INTER.CONST>
1

>  <SCORE.INTER.POLAR>
0

>  <SCORE.INTER.ROT>
0

>  <SCORE.INTER.SOLV>
11.3358

>  <SCORE.INTER.VDW>
-13.6683

>  <SCORE.INTER.norm>
-0.857692

>  <SCORE.INTRA>
0

>  <SCORE.INTRA.DIHEDRAL>
0

>  <SCORE.INTRA.DIHEDRAL.0>
0

>  <SCORE.INTRA.POLAR>
0

>  <SCORE.INTRA.POLAR.0>
0

>  <SCORE.INTRA.REPUL>
0

>  <SCORE.INTRA.REPUL.0>
0

>  <SCORE.INTRA.SOLV>
0

>  <SCORE.INTRA.SOLV.lig_0>
-49.4056

>  <SCORE.INTRA.VDW>
0

>  <SCORE.INTRA.VDW.0>
0

>  <SCORE.INTRA.norm>
0

>  <SCORE.RESTR>
0

>  <SCORE.RESTR.CAVITY>
0

>  <SCORE.RESTR.norm>
0

>  <SCORE.SYSTEM>
0

>  <SCORE.SYSTEM.CONST>
0

>  <SCORE.SYSTEM.DIHEDRAL>
0

>  <SCORE.SYSTEM.SOLV>
0

>  <SCORE.SYSTEM.norm>
0

>  <SCORE.heavy>
11

>  <SCORE.norm>
-0.857692

>  <RMSD>
2.771

$$$$
ligand
 OpenBabel11021811503D
libRbt.so/2013.1/901 2013/11/27
 11 12  0  0  0  0  0  0  0  0999 V2000
    3.7402  -20.4748   25.4536 N   0  0  0  0  0  0  0  0  0  0  0  0
    3.2334  -20.6623   24.2100 C   0  0  0  0  0  0  0  0  0  0  0  0
    4.0842  -20.6247   23.0581 N   0  0  0  0  0  0  0  0  0  0  0  0
    1.9190  -20.8821   24.0287 N   0  0  0  0  0  0  0  0  0  0  0  0
    1.0493  -20.9303   25.0950 C   0  0  0  0  0  0  0  0  0  0  0  0
    1.5384  -20.7397   26.3744 C   0  0  0  0  0  0  0  0  0  0  0  0
    2.9358  -20.5026   26.5385 C   0  0  0  0  0  0  0  0  0  0  0  0
    3.4753  -20.2992   27.8483 N   0  0  0  0  0  0  0  0  0  0  0  0
    0.4579  -20.8360   27.2305 N   0  0  0  0  0  0  0  0  0  0  0  0
   -0.6535  -21.0703   26.5042 C   0  0  0  0  0  0  0  0  0  0  0  0
   -0.3202  -21.1305   25.1995 N   0  0  0  0  0  0  0  0  0  0  0  0
  1  7  2  0  0  0  0
  1  2  1  0  0  0  0
  2  3  1  0  0  0  0
  2  4  2  0  0  0  0
  4  5  1  0  0  0  0
  5  6  2  0  0  0  0
  5 11  1  0  0  0  0
  6  7  1  0  0  0  0
  6  9  1  0  0  0  0
  7  8  1  0  0  0  0
  9 10  1  0  0  0  0
 10 11  2  0  0  0  0
M  END
>  <CHROM.1>
1.97374624,-20.73835886,25.58425297,-0.54540884,0.15576622,1.48338448

>  <Name>
ligand

>  <RI>
0

>  <Rbt.Current_Directory>
/home/itssahil/PROJECTS/Mol_Feturizer/New_Systems/rnas/4LVZ

>  <Rbt.Executable>
rbdock ($Id: //depot/dev/client3/rdock/2013.1/src/exe/rbdock.cxx#4 $)

>  <Rbt.Library>
libRbt.so (2013.1, Build901 2013/11/27)

>  <Rbt.Parameter_File>
/export/apps/rDock/src/rDock_2013.1_src/data/scripts/dock_solv.prm

>  <Rbt.Receptor>
prm/pocket_docking_7.prm

>  <SCORE>
-9.43358

>  <SCORE.INTER>
-9.43358

>  <SCORE.INTER.CONST>
1

>  <SCORE.INTER.POLAR>
0

>  <SCORE.INTER.ROT>
0

>  <SCORE.INTER.SOLV>
11.0945

>  <SCORE.INTER.VDW>
-13.5872

>  <SCORE.INTER.norm>
-0.857598

>  <SCORE.INTRA>
0

>  <SCORE.INTRA.DIHEDRAL>
0

>  <SCORE.INTRA.DIHEDRAL.0>
0

>  <SCORE.INTRA.POLAR>
0

>  <SCORE.INTRA.POLAR.0>
0

>  <SCORE.INTRA.REPUL>
0

>  <SCORE.INTRA.REPUL.0>
0

>  <SCORE.INTRA.SOLV>
0

>  <SCORE.INTRA.SOLV.lig_0>
-49.4056

>  <SCORE.INTRA.VDW>
0

>  <SCORE.INTRA.VDW.0>
0

>  <SCORE.INTRA.norm>
0

>  <SCORE.RESTR>
0

>  <SCORE.RESTR.CAVITY>
0

>  <SCORE.RESTR.norm>
0

>  <SCORE.SYSTEM>
0

>  <SCORE.SYSTEM.CONST>
0

>  <SCORE.SYSTEM.DIHEDRAL>
0

>  <SCORE.SYSTEM.SOLV>
0

>  <SCORE.SYSTEM.norm>
0

>  <SCORE.heavy>
11

>  <SCORE.norm>
-0.857598

>  <RMSD>
2.774

$$$$
ligand
 OpenBabel11021811503D
libRbt.so/2013.1/901 2013/11/27
 11 12  0  0  0  0  0  0  0  0999 V2000
    3.7267  -20.4718   25.4253 N   0  0  0  0  0  0  0  0  0  0  0  0
    3.2138  -20.6896   24.1892 C   0  0  0  0  0  0  0  0  0  0  0  0
    4.0586  -20.6782   23.0324 N   0  0  0  0  0  0  0  0  0  0  0  0
    1.8988  -20.9156   24.0200 N   0  0  0  0  0  0  0  0  0  0  0  0
    1.0347  -20.9397   25.0916 C   0  0  0  0  0  0  0  0  0  0  0  0
    1.5301  -20.7179   26.3635 C   0  0  0  0  0  0  0  0  0  0  0  0
    2.9279  -20.4749   26.5148 C   0  0  0  0  0  0  0  0  0  0  0  0
    3.4738  -20.2395   27.8165 N   0  0  0  0  0  0  0  0  0  0  0  0
    0.4541  -20.7953   27.2273 N   0  0  0  0  0  0  0  0  0  0  0  0
   -0.6606  -21.0485   26.5125 C   0  0  0  0  0  0  0  0  0  0  0  0
   -0.3339  -21.1393   25.2080 N   0  0  0  0  0  0  0  0  0  0  0  0
  1  7  2  0  0  0  0
  1  2  1  0  0  0  0
  2  3  1  0  0  0  0
  2  4  2  0  0  0  0
  4  5  1  0  0  0  0
  5  6  2  0  0  0  0
  5 11  1  0  0  0  0
  6  7  1  0  0  0  0
  6  9  1  0  0  0  0
  7  8  1  0  0  0  0
  9 10  1  0  0  0  0
 10 11  2  0  0  0  0
M  END
>  <CHROM.1>
1.96136283,-20.73475340,25.57138011,-0.55045022,0.15778584,1.46033798

>  <Name>
ligand

>  <RI>
0

>  <Rbt.Current_Directory>
/home/itssahil/PROJECTS/Mol_Feturizer/New_Systems/rnas/4LVZ

>  <Rbt.Executable>
rbdock ($Id: //depot/dev/client3/rdock/2013.1/src/exe/rbdock.cxx#4 $)

>  <Rbt.Library>
libRbt.so (2013.1, Build901 2013/11/27)

>  <Rbt.Parameter_File>
/export/apps/rDock/src/rDock_2013.1_src/data/scripts/dock_solv.prm

>  <Rbt.Receptor>
prm/pocket_docking_5.prm

>  <SCORE>
-9.45643

>  <SCORE.INTER>
-9.45643

>  <SCORE.INTER.CONST>
1

>  <SCORE.INTER.POLAR>
0

>  <SCORE.INTER.ROT>
0

>  <SCORE.INTER.SOLV>
11.313

>  <SCORE.INTER.VDW>
-13.6753

>  <SCORE.INTER.norm>
-0.859675

>  <SCORE.INTRA>
0

>  <SCORE.INTRA.DIHEDRAL>
0

>  <SCORE.INTRA.DIHEDRAL.0>
0

>  <SCORE.INTRA.POLAR>
0

>  <SCORE.INTRA.POLAR.0>
0

>  <SCORE.INTRA.REPUL>
0

>  <SCORE.INTRA.REPUL.0>
0

>  <SCORE.INTRA.SOLV>
0

>  <SCORE.INTRA.SOLV.lig_0>
-49.4056

>  <SCORE.INTRA.VDW>
0

>  <SCORE.INTRA.VDW.0>
0

>  <SCORE.INTRA.norm>
0

>  <SCORE.RESTR>
0

>  <SCORE.RESTR.CAVITY>
0

>  <SCORE.RESTR.norm>
0

>  <SCORE.SYSTEM>
0

>  <SCORE.SYSTEM.CONST>
0

>  <SCORE.SYSTEM.DIHEDRAL>
0

>  <SCORE.SYSTEM.SOLV>
0

>  <SCORE.SYSTEM.norm>
0

>  <SCORE.heavy>
11

>  <SCORE.norm>
-0.859675

>  <RMSD>
2.784

$$$$
ligand
 OpenBabel11021811503D
libRbt.so/2013.1/901 2013/11/27
 11 12  0  0  0  0  0  0  0  0999 V2000
    3.7429  -20.4177   25.3546 N   0  0  0  0  0  0  0  0  0  0  0  0
    3.1884  -20.6207   24.1340 C   0  0  0  0  0  0  0  0  0  0  0  0
    3.9878  -20.5630   22.9468 N   0  0  0  0  0  0  0  0  0  0  0  0
    1.8737  -20.8751   24.0093 N   0  0  0  0  0  0  0  0  0  0  0  0
    1.0520  -20.9440   25.1119 C   0  0  0  0  0  0  0  0  0  0  0  0
    1.5902  -20.7383   26.3690 C   0  0  0  0  0  0  0  0  0  0  0  0
    2.9867  -20.4646   26.4731 C   0  0  0  0  0  0  0  0  0  0  0  0
    3.5762  -20.2447   27.7584 N   0  0  0  0  0  0  0  0  0  0  0  0
    0.5502  -20.8613   27.2708 N   0  0  0  0  0  0  0  0  0  0  0  0
   -0.5848  -21.1258   26.5929 C   0  0  0  0  0  0  0  0  0  0  0  0
   -0.3061  -21.1798   25.2752 N   0  0  0  0  0  0  0  0  0  0  0  0
  1  7  2  0  0  0  0
  1  2  1  0  0  0  0
  2  3  1  0  0  0  0
  2  4  2  0  0  0  0
  4  5  1  0  0  0  0
  5  6  2  0  0  0  0
  5 11  1  0  0  0  0
  6  7  1  0  0  0  0
  6  9  1  0  0  0  0
  7  8  1  0  0  0  0
  9 10  1  0  0  0  0
 10 11  2  0  0  0  0
M  END
>  <CHROM.1>
1.99116382,-20.72711347,25.56100904,-0.58646981,0.18545765,1.48907228

>  <Name>
ligand

>  <RI>
0

>  <Rbt.Current_Directory>
/home/itssahil/PROJECTS/Mol_Feturizer/New_Systems/rnas/4LVZ

>  <Rbt.Executable>
rbdock ($Id: //depot/dev/client3/rdock/2013.1/src/exe/rbdock.cxx#4 $)

>  <Rbt.Library>
libRbt.so (2013.1, Build901 2013/11/27)

>  <Rbt.Parameter_File>
/export/apps/rDock/src/rDock_2013.1_src/data/scripts/dock_solv.prm

>  <Rbt.Receptor>
prm/pocket_docking_3.prm

>  <SCORE>
-9.44278

>  <SCORE.INTER>
-9.44278

>  <SCORE.INTER.CONST>
1

>  <SCORE.INTER.POLAR>
0

>  <SCORE.INTER.ROT>
0

>  <SCORE.INTER.SOLV>
11.06

>  <SCORE.INTER.VDW>
-13.5819

>  <SCORE.INTER.norm>
-0.858435

>  <SCORE.INTRA>
0

>  <SCORE.INTRA.DIHEDRAL>
0

>  <SCORE.INTRA.DIHEDRAL.0>
0

>  <SCORE.INTRA.POLAR>
0

>  <SCORE.INTRA.POLAR.0>
0

>  <SCORE.INTRA.REPUL>
0

>  <SCORE.INTRA.REPUL.0>
0

>  <SCORE.INTRA.SOLV>
0

>  <SCORE.INTRA.SOLV.lig_0>
-49.4056

>  <SCORE.INTRA.VDW>
0

>  <SCORE.INTRA.VDW.0>
0

>  <SCORE.INTRA.norm>
0

>  <SCORE.RESTR>
0

>  <SCORE.RESTR.CAVITY>
0

>  <SCORE.RESTR.norm>
0

>  <SCORE.SYSTEM>
0

>  <SCORE.SYSTEM.CONST>
0

>  <SCORE.SYSTEM.DIHEDRAL>
0

>  <SCORE.SYSTEM.SOLV>
0

>  <SCORE.SYSTEM.norm>
0

>  <SCORE.heavy>
11

>  <SCORE.norm>
-0.858435

>  <RMSD>
2.785

$$$$
ligand
 OpenBabel11021811503D
libRbt.so/2013.1/901 2013/11/27
 11 12  0  0  0  0  0  0  0  0999 V2000
    3.7464  -20.3210   25.3064 N   0  0  0  0  0  0  0  0  0  0  0  0
    3.1641  -20.5508   24.1036 C   0  0  0  0  0  0  0  0  0  0  0  0
    3.9237  -20.4617   22.8924 N   0  0  0  0  0  0  0  0  0  0  0  0
    1.8584  -20.8619   24.0196 N   0  0  0  0  0  0  0  0  0  0  0  0
    1.0745  -20.9633   25.1469 C   0  0  0  0  0  0  0  0  0  0  0  0
    1.6415  -20.7314   26.3867 C   0  0  0  0  0  0  0  0  0  0  0  0
    3.0273  -20.3975   26.4475 C   0  0  0  0  0  0  0  0  0  0  0  0
    3.6458  -20.1491   27.7139 N   0  0  0  0  0  0  0  0  0  0  0  0
    0.6358  -20.8967   27.3200 N   0  0  0  0  0  0  0  0  0  0  0  0
   -0.5069  -21.2117   26.6774 C   0  0  0  0  0  0  0  0  0  0  0  0
   -0.2665  -21.2569   25.3519 N   0  0  0  0  0  0  0  0  0  0  0  0
  1  7  2  0  0  0  0
  1  2  1  0  0  0  0
  2  3  1  0  0  0  0
  2  4  2  0  0  0  0
  4  5  1  0  0  0  0
  5  6  2  0  0  0  0
  5 11  1  0  0  0  0
  6  7  1  0  0  0  0
  6  9  1  0  0  0  0
  7  8  1  0  0  0  0
  9 10  1  0  0  0  0
 10 11  2  0  0  0  0
M  END
>  <CHROM.1>
2.01672387,-20.70500300,25.56671982,-0.61410792,0.23087794,1.49289165

>  <Name>
ligand

>  <RI>
0

>  <Rbt.Current_Directory>
/home/itssahil/PROJECTS/Mol_Feturizer/New_Systems/rnas/4LVZ

>  <Rbt.Executable>
rbdock ($Id: //depot/dev/client3/rdock/2013.1/src/exe/rbdock.cxx#4 $)

>  <Rbt.Library>
libRbt.so (2013.1, Build901 2013/11/27)

>  <Rbt.Parameter_File>
/export/apps/rDock/src/rDock_2013.1_src/data/scripts/dock_solv.prm

>  <Rbt.Receptor>
prm/pocket_docking_7.prm

>  <SCORE>
-9.4119

>  <SCORE.INTER>
-9.4119

>  <SCORE.INTER.CONST>
1

>  <SCORE.INTER.POLAR>
0

>  <SCORE.INTER.ROT>
0

>  <SCORE.INTER.SOLV>
11.0745

>  <SCORE.INTER.VDW>
-13.5661

>  <SCORE.INTER.norm>
-0.855627

>  <SCORE.INTRA>
0

>  <SCORE.INTRA.DIHEDRAL>
0

>  <SCORE.INTRA.DIHEDRAL.0>
0

>  <SCORE.INTRA.POLAR>
0

>  <SCORE.INTRA.POLAR.0>
0

>  <SCORE.INTRA.REPUL>
0

>  <SCORE.INTRA.REPUL.0>
0

>  <SCORE.INTRA.SOLV>
0

>  <SCORE.INTRA.SOLV.lig_0>
-49.4056

>  <SCORE.INTRA.VDW>
0

>  <SCORE.INTRA.VDW.0>
0

>  <SCORE.INTRA.norm>
0

>  <SCORE.RESTR>
0

>  <SCORE.RESTR.CAVITY>
0

>  <SCORE.RESTR.norm>
0

>  <SCORE.SYSTEM>
0

>  <SCORE.SYSTEM.CONST>
0

>  <SCORE.SYSTEM.DIHEDRAL>
0

>  <SCORE.SYSTEM.SOLV>
0

>  <SCORE.SYSTEM.norm>
0

>  <SCORE.heavy>
11

>  <SCORE.norm>
-0.855627

>  <RMSD>
2.785

$$$$
ligand
 OpenBabel11021811503D
libRbt.so/2013.1/901 2013/11/27
 11 12  0  0  0  0  0  0  0  0999 V2000
    3.7192  -20.4618   25.3955 N   0  0  0  0  0  0  0  0  0  0  0  0
    3.1816  -20.6740   24.1689 C   0  0  0  0  0  0  0  0  0  0  0  0
    4.0003  -20.6406   22.9939 N   0  0  0  0  0  0  0  0  0  0  0  0
    1.8661  -20.9150   24.0266 N   0  0  0  0  0  0  0  0  0  0  0  0
    1.0264  -20.9605   25.1167 C   0  0  0  0  0  0  0  0  0  0  0  0
    1.5471  -20.7449   26.3796 C   0  0  0  0  0  0  0  0  0  0  0  0
    2.9449  -20.4858   26.5023 C   0  0  0  0  0  0  0  0  0  0  0  0
    3.5166  -20.2563   27.7940 N   0  0  0  0  0  0  0  0  0  0  0  0
    0.4917  -20.8445   27.2661 N   0  0  0  0  0  0  0  0  0  0  0  0
   -0.6354  -21.1047   26.5736 C   0  0  0  0  0  0  0  0  0  0  0  0
   -0.3367  -21.1786   25.2613 N   0  0  0  0  0  0  0  0  0  0  0  0
  1  7  2  0  0  0  0
  1  2  1  0  0  0  0
  2  3  1  0  0  0  0
  2  4  2  0  0  0  0
  4  5  1  0  0  0  0
  5  6  2  0  0  0  0
  5 11  1  0  0  0  0
  6  7  1  0  0  0  0
  6  9  1  0  0  0  0
  7  8  1  0  0  0  0
  9 10  1  0  0  0  0
 10 11  2  0  0  0  0
M  END
>  <CHROM.1>
1.96088729,-20.74857632,25.57791682,-0.57149125,0.17257701,1.47374420

>  <Name>
ligand

>  <RI>
0

>  <Rbt.Current_Directory>
/home/itssahil/PROJECTS/Mol_Feturizer/New_Systems/rnas/4LVZ

>  <Rbt.Executable>
rbdock ($Id: //depot/dev/client3/rdock/2013.1/src/exe/rbdock.cxx#4 $)

>  <Rbt.Library>
libRbt.so (2013.1, Build901 2013/11/27)

>  <Rbt.Parameter_File>
/export/apps/rDock/src/rDock_2013.1_src/data/scripts/dock_solv.prm

>  <Rbt.Receptor>
prm/pocket_docking_7.prm

>  <SCORE>
-9.40971

>  <SCORE.INTER>
-9.40971

>  <SCORE.INTER.CONST>
1

>  <SCORE.INTER.POLAR>
0

>  <SCORE.INTER.ROT>
0

>  <SCORE.INTER.SOLV>
11.3137

>  <SCORE.INTER.VDW>
-13.6444

>  <SCORE.INTER.norm>
-0.855428

>  <SCORE.INTRA>
0

>  <SCORE.INTRA.DIHEDRAL>
0

>  <SCORE.INTRA.DIHEDRAL.0>
0

>  <SCORE.INTRA.POLAR>
0

>  <SCORE.INTRA.POLAR.0>
0

>  <SCORE.INTRA.REPUL>
0

>  <SCORE.INTRA.REPUL.0>
0

>  <SCORE.INTRA.SOLV>
0

>  <SCORE.INTRA.SOLV.lig_0>
-49.4056

>  <SCORE.INTRA.VDW>
0

>  <SCORE.INTRA.VDW.0>
0

>  <SCORE.INTRA.norm>
0

>  <SCORE.RESTR>
0

>  <SCORE.RESTR.CAVITY>
0

>  <SCORE.RESTR.norm>
0

>  <SCORE.SYSTEM>
0

>  <SCORE.SYSTEM.CONST>
0

>  <SCORE.SYSTEM.DIHEDRAL>
0

>  <SCORE.SYSTEM.SOLV>
0

>  <SCORE.SYSTEM.norm>
0

>  <SCORE.heavy>
11

>  <SCORE.norm>
-0.855428

>  <RMSD>
2.786

$$$$
ligand
 OpenBabel11021811503D
libRbt.so/2013.1/901 2013/11/27
 11 12  0  0  0  0  0  0  0  0999 V2000
    3.7234  -20.4648   25.3910 N   0  0  0  0  0  0  0  0  0  0  0  0
    3.1787  -20.6856   24.1691 C   0  0  0  0  0  0  0  0  0  0  0  0
    3.9897  -20.6562   22.9887 N   0  0  0  0  0  0  0  0  0  0  0  0
    1.8631  -20.9315   24.0366 N   0  0  0  0  0  0  0  0  0  0  0  0
    1.0306  -20.9736   25.1323 C   0  0  0  0  0  0  0  0  0  0  0  0
    1.5587  -20.7493   26.3906 C   0  0  0  0  0  0  0  0  0  0  0  0
    2.9563  -20.4850   26.5029 C   0  0  0  0  0  0  0  0  0  0  0  0
    3.5356  -20.2465   27.7895 N   0  0  0  0  0  0  0  0  0  0  0  0
    0.5093  -20.8472   27.2844 N   0  0  0  0  0  0  0  0  0  0  0  0
   -0.6214  -21.1149   26.6007 C   0  0  0  0  0  0  0  0  0  0  0  0
   -0.3308  -21.1952   25.2869 N   0  0  0  0  0  0  0  0  0  0  0  0
  1  7  2  0  0  0  0
  1  2  1  0  0  0  0
  2  3  1  0  0  0  0
  2  4  2  0  0  0  0
  4  5  1  0  0  0  0
  5  6  2  0  0  0  0
  5 11  1  0  0  0  0
  6  7  1  0  0  0  0
  6  9  1  0  0  0  0
  7  8  1  0  0  0  0
  9 10  1  0  0  0  0
 10 11  2  0  0  0  0
M  END
>  <CHROM.1>
1.96729847,-20.75612096,25.58632192,-0.57766288,0.17638793,1.46921724

>  <Name>
ligand

>  <RI>
0

>  <Rbt.Current_Directory>
/home/itssahil/PROJECTS/Mol_Feturizer/New_Systems/rnas/4LVZ

>  <Rbt.Executable>
rbdock ($Id: //depot/dev/client3/rdock/2013.1/src/exe/rbdock.cxx#4 $)

>  <Rbt.Library>
libRbt.so (2013.1, Build901 2013/11/27)

>  <Rbt.Parameter_File>
/export/apps/rDock/src/rDock_2013.1_src/data/scripts/dock_solv.prm

>  <Rbt.Receptor>
prm/pocket_docking_3.prm

>  <SCORE>
-9.42316

>  <SCORE.INTER>
-9.42316

>  <SCORE.INTER.CONST>
1

>  <SCORE.INTER.POLAR>
0

>  <SCORE.INTER.ROT>
0

>  <SCORE.INTER.SOLV>
11.3376

>  <SCORE.INTER.VDW>
-13.6613

>  <SCORE.INTER.norm>
-0.856651

>  <SCORE.INTRA>
0

>  <SCORE.INTRA.DIHEDRAL>
0

>  <SCORE.INTRA.DIHEDRAL.0>
0

>  <SCORE.INTRA.POLAR>
0

>  <SCORE.INTRA.POLAR.0>
0

>  <SCORE.INTRA.REPUL>
0

>  <SCORE.INTRA.REPUL.0>
0

>  <SCORE.INTRA.SOLV>
0

>  <SCORE.INTRA.SOLV.lig_0>
-49.4056

>  <SCORE.INTRA.VDW>
0

>  <SCORE.INTRA.VDW.0>
0

>  <SCORE.INTRA.norm>
0

>  <SCORE.RESTR>
0

>  <SCORE.RESTR.CAVITY>
0

>  <SCORE.RESTR.norm>
0

>  <SCORE.SYSTEM>
0

>  <SCORE.SYSTEM.CONST>
0

>  <SCORE.SYSTEM.DIHEDRAL>
0

>  <SCORE.SYSTEM.SOLV>
0

>  <SCORE.SYSTEM.norm>
0

>  <SCORE.heavy>
11

>  <SCORE.norm>
-0.856651

>  <RMSD>
2.787

$$$$
ligand
 OpenBabel11021811503D
libRbt.so/2013.1/901 2013/11/27
 11 12  0  0  0  0  0  0  0  0999 V2000
    3.7237  -20.4656   25.3869 N   0  0  0  0  0  0  0  0  0  0  0  0
    3.1977  -20.6660   24.1533 C   0  0  0  0  0  0  0  0  0  0  0  0
    4.0302  -20.6378   22.9879 N   0  0  0  0  0  0  0  0  0  0  0  0
    1.8811  -20.8900   23.9949 N   0  0  0  0  0  0  0  0  0  0  0  0
    1.0283  -20.9296   25.0751 C   0  0  0  0  0  0  0  0  0  0  0  0
    1.5371  -20.7258   26.3448 C   0  0  0  0  0  0  0  0  0  0  0  0
    2.9364  -20.4845   26.4846 C   0  0  0  0  0  0  0  0  0  0  0  0
    3.4961  -20.2675   27.7837 N   0  0  0  0  0  0  0  0  0  0  0  0
    0.4704  -20.8159   27.2187 N   0  0  0  0  0  0  0  0  0  0  0  0
   -0.6518  -21.0592   26.5123 C   0  0  0  0  0  0  0  0  0  0  0  0
   -0.3389  -21.1314   25.2031 N   0  0  0  0  0  0  0  0  0  0  0  0
  1  7  2  0  0  0  0
  1  2  1  0  0  0  0
  2  3  1  0  0  0  0
  2  4  2  0  0  0  0
  4  5  1  0  0  0  0
  5  6  2  0  0  0  0
  5 11  1  0  0  0  0
  6  7  1  0  0  0  0
  6  9  1  0  0  0  0
  7  8  1  0  0  0  0
  9 10  1  0  0  0  0
 10 11  2  0  0  0  0
M  END
>  <CHROM.1>
1.95998909,-20.73121623,25.54791930,-0.56109768,0.15914570,1.47626106

>  <Name>
ligand

>  <RI>
0

>  <Rbt.Current_Directory>
/home/itssahil/PROJECTS/Mol_Feturizer/New_Systems/rnas/4LVZ

>  <Rbt.Executable>
rbdock ($Id: //depot/dev/client3/rdock/2013.1/src/exe/rbdock.cxx#4 $)

>  <Rbt.Library>
libRbt.so (2013.1, Build901 2013/11/27)

>  <Rbt.Parameter_File>
/export/apps/rDock/src/rDock_2013.1_src/data/scripts/dock_solv.prm

>  <Rbt.Receptor>
prm/pocket_docking_4.prm

>  <SCORE>
-9.52402

>  <SCORE.INTER>
-9.52402

>  <SCORE.INTER.CONST>
1

>  <SCORE.INTER.POLAR>
0

>  <SCORE.INTER.ROT>
0

>  <SCORE.INTER.SOLV>
11.2063

>  <SCORE.INTER.VDW>
-13.6848

>  <SCORE.INTER.norm>
-0.86582

>  <SCORE.INTRA>
0

>  <SCORE.INTRA.DIHEDRAL>
0

>  <SCORE.INTRA.DIHEDRAL.0>
0

>  <SCORE.INTRA.POLAR>
0

>  <SCORE.INTRA.POLAR.0>
0

>  <SCORE.INTRA.REPUL>
0

>  <SCORE.INTRA.REPUL.0>
0

>  <SCORE.INTRA.SOLV>
0

>  <SCORE.INTRA.SOLV.lig_0>
-49.4056

>  <SCORE.INTRA.VDW>
0

>  <SCORE.INTRA.VDW.0>
0

>  <SCORE.INTRA.norm>
0

>  <SCORE.RESTR>
0

>  <SCORE.RESTR.CAVITY>
0

>  <SCORE.RESTR.norm>
0

>  <SCORE.SYSTEM>
0

>  <SCORE.SYSTEM.CONST>
0

>  <SCORE.SYSTEM.DIHEDRAL>
0

>  <SCORE.SYSTEM.SOLV>
0

>  <SCORE.SYSTEM.norm>
0

>  <SCORE.heavy>
11

>  <SCORE.norm>
-0.86582

>  <RMSD>
2.789

$$$$
ligand
 OpenBabel11021811503D
libRbt.so/2013.1/901 2013/11/27
 11 12  0  0  0  0  0  0  0  0999 V2000
    3.7134  -20.4765   25.3927 N   0  0  0  0  0  0  0  0  0  0  0  0
    3.1802  -20.6843   24.1634 C   0  0  0  0  0  0  0  0  0  0  0  0
    4.0047  -20.6566   22.9924 N   0  0  0  0  0  0  0  0  0  0  0  0
    1.8636  -20.9153   24.0147 N   0  0  0  0  0  0  0  0  0  0  0  0
    1.0184  -20.9550   25.1008 C   0  0  0  0  0  0  0  0  0  0  0  0
    1.5347  -20.7437   26.3662 C   0  0  0  0  0  0  0  0  0  0  0  0
    2.9337  -20.4951   26.4958 C   0  0  0  0  0  0  0  0  0  0  0  0
    3.5009  -20.2703   27.7902 N   0  0  0  0  0  0  0  0  0  0  0  0
    0.4743  -20.8357   27.2477 N   0  0  0  0  0  0  0  0  0  0  0  0
   -0.6514  -21.0872   26.5497 C   0  0  0  0  0  0  0  0  0  0  0  0
   -0.3470  -21.1629   25.2388 N   0  0  0  0  0  0  0  0  0  0  0  0
  1  7  2  0  0  0  0
  1  2  1  0  0  0  0
  2  3  1  0  0  0  0
  2  4  2  0  0  0  0
  4  5  1  0  0  0  0
  5  6  2  0  0  0  0
  5 11  1  0  0  0  0
  6  7  1  0  0  0  0
  6  9  1  0  0  0  0
  7  8  1  0  0  0  0
  9 10  1  0  0  0  0
 10 11  2  0  0  0  0
M  END
>  <CHROM.1>
1.95219208,-20.75019852,25.56657357,-0.56740417,0.16467195,1.47343253

>  <Name>
ligand

>  <RI>
0

>  <Rbt.Current_Directory>
/home/itssahil/PROJECTS/Mol_Feturizer/New_Systems/rnas/4LVZ

>  <Rbt.Executable>
rbdock ($Id: //depot/dev/client3/rdock/2013.1/src/exe/rbdock.cxx#4 $)

>  <Rbt.Library>
libRbt.so (2013.1, Build901 2013/11/27)

>  <Rbt.Parameter_File>
/export/apps/rDock/src/rDock_2013.1_src/data/scripts/dock_solv.prm

>  <Rbt.Receptor>
prm/pocket_docking_5.prm

>  <SCORE>
-9.39883

>  <SCORE.INTER>
-9.39883

>  <SCORE.INTER.CONST>
1

>  <SCORE.INTER.POLAR>
0

>  <SCORE.INTER.ROT>
0

>  <SCORE.INTER.SOLV>
11.3493

>  <SCORE.INTER.VDW>
-13.649

>  <SCORE.INTER.norm>
-0.854439

>  <SCORE.INTRA>
0

>  <SCORE.INTRA.DIHEDRAL>
0

>  <SCORE.INTRA.DIHEDRAL.0>
0

>  <SCORE.INTRA.POLAR>
0

>  <SCORE.INTRA.POLAR.0>
0

>  <SCORE.INTRA.REPUL>
0

>  <SCORE.INTRA.REPUL.0>
0

>  <SCORE.INTRA.SOLV>
0

>  <SCORE.INTRA.SOLV.lig_0>
-49.4056

>  <SCORE.INTRA.VDW>
0

>  <SCORE.INTRA.VDW.0>
0

>  <SCORE.INTRA.norm>
0

>  <SCORE.RESTR>
0

>  <SCORE.RESTR.CAVITY>
0

>  <SCORE.RESTR.norm>
0

>  <SCORE.SYSTEM>
0

>  <SCORE.SYSTEM.CONST>
0

>  <SCORE.SYSTEM.DIHEDRAL>
0

>  <SCORE.SYSTEM.SOLV>
0

>  <SCORE.SYSTEM.norm>
0

>  <SCORE.heavy>
11

>  <SCORE.norm>
-0.854439

>  <RMSD>
2.789

$$$$
ligand
 OpenBabel11021811503D
libRbt.so/2013.1/901 2013/11/27
 11 12  0  0  0  0  0  0  0  0999 V2000
    3.7357  -20.4293   25.3621 N   0  0  0  0  0  0  0  0  0  0  0  0
    3.1922  -20.6456   24.1388 C   0  0  0  0  0  0  0  0  0  0  0  0
    4.0005  -20.5912   22.9574 N   0  0  0  0  0  0  0  0  0  0  0  0
    1.8804  -20.9105   24.0060 N   0  0  0  0  0  0  0  0  0  0  0  0
    1.0506  -20.9770   25.1026 C   0  0  0  0  0  0  0  0  0  0  0  0
    1.5775  -20.7578   26.3623 C   0  0  0  0  0  0  0  0  0  0  0  0
    2.9711  -20.4731   26.4750 C   0  0  0  0  0  0  0  0  0  0  0  0
    3.5490  -20.2391   27.7631 N   0  0  0  0  0  0  0  0  0  0  0  0
    0.5314  -20.8814   27.2568 N   0  0  0  0  0  0  0  0  0  0  0  0
   -0.5963  -21.1594   26.5722 C   0  0  0  0  0  0  0  0  0  0  0  0
   -0.3069  -21.2214   25.2571 N   0  0  0  0  0  0  0  0  0  0  0  0
  1  7  2  0  0  0  0
  1  2  1  0  0  0  0
  2  3  1  0  0  0  0
  2  4  2  0  0  0  0
  4  5  1  0  0  0  0
  5  6  2  0  0  0  0
  5 11  1  0  0  0  0
  6  7  1  0  0  0  0
  6  9  1  0  0  0  0
  7  8  1  0  0  0  0
  9 10  1  0  0  0  0
 10 11  2  0  0  0  0
M  END
>  <CHROM.1>
1.98466341,-20.74983607,25.55729677,-0.57793525,0.19201539,1.47979454

>  <Name>
ligand

>  <RI>
0

>  <Rbt.Current_Directory>
/home/itssahil/PROJECTS/Mol_Feturizer/New_Systems/rnas/4LVZ

>  <Rbt.Executable>
rbdock ($Id: //depot/dev/client3/rdock/2013.1/src/exe/rbdock.cxx#4 $)

>  <Rbt.Library>
libRbt.so (2013.1, Build901 2013/11/27)

>  <Rbt.Parameter_File>
/export/apps/rDock/src/rDock_2013.1_src/data/scripts/dock_solv.prm

>  <Rbt.Receptor>
prm/pocket_docking_5.prm

>  <SCORE>
-9.44912

>  <SCORE.INTER>
-9.44912

>  <SCORE.INTER.CONST>
1

>  <SCORE.INTER.POLAR>
0

>  <SCORE.INTER.ROT>
0

>  <SCORE.INTER.SOLV>
11.1184

>  <SCORE.INTER.VDW>
-13.6055

>  <SCORE.INTER.norm>
-0.859011

>  <SCORE.INTRA>
0

>  <SCORE.INTRA.DIHEDRAL>
0

>  <SCORE.INTRA.DIHEDRAL.0>
0

>  <SCORE.INTRA.POLAR>
0

>  <SCORE.INTRA.POLAR.0>
0

>  <SCORE.INTRA.REPUL>
0

>  <SCORE.INTRA.REPUL.0>
0

>  <SCORE.INTRA.SOLV>
0

>  <SCORE.INTRA.SOLV.lig_0>
-49.4056

>  <SCORE.INTRA.VDW>
0

>  <SCORE.INTRA.VDW.0>
0

>  <SCORE.INTRA.norm>
0

>  <SCORE.RESTR>
0

>  <SCORE.RESTR.CAVITY>
0

>  <SCORE.RESTR.norm>
0

>  <SCORE.SYSTEM>
0

>  <SCORE.SYSTEM.CONST>
0

>  <SCORE.SYSTEM.DIHEDRAL>
0

>  <SCORE.SYSTEM.SOLV>
0

>  <SCORE.SYSTEM.norm>
0

>  <SCORE.heavy>
11

>  <SCORE.norm>
-0.859011

>  <RMSD>
2.789

$$$$
ligand
 OpenBabel11021811503D
libRbt.so/2013.1/901 2013/11/27
 11 12  0  0  0  0  0  0  0  0999 V2000
    3.7120  -20.5164   25.4062 N   0  0  0  0  0  0  0  0  0  0  0  0
    3.1893  -20.6905   24.1672 C   0  0  0  0  0  0  0  0  0  0  0  0
    4.0281  -20.6586   23.0064 N   0  0  0  0  0  0  0  0  0  0  0  0
    1.8701  -20.8911   23.9990 N   0  0  0  0  0  0  0  0  0  0  0  0
    1.0113  -20.9328   25.0743 C   0  0  0  0  0  0  0  0  0  0  0  0
    1.5166  -20.7556   26.3493 C   0  0  0  0  0  0  0  0  0  0  0  0
    2.9189  -20.5388   26.4996 C   0  0  0  0  0  0  0  0  0  0  0  0
    3.4752  -20.3497   27.8045 N   0  0  0  0  0  0  0  0  0  0  0  0
    0.4441  -20.8414   27.2165 N   0  0  0  0  0  0  0  0  0  0  0  0
   -0.6781  -21.0566   26.5010 C   0  0  0  0  0  0  0  0  0  0  0  0
   -0.3596  -21.1146   25.1926 N   0  0  0  0  0  0  0  0  0  0  0  0
  1  7  2  0  0  0  0
  1  2  1  0  0  0  0
  2  3  1  0  0  0  0
  2  4  2  0  0  0  0
  4  5  1  0  0  0  0
  5  6  2  0  0  0  0
  5 11  1  0  0  0  0
  6  7  1  0  0  0  0
  6  9  1  0  0  0  0
  7  8  1  0  0  0  0
  9 10  1  0  0  0  0
 10 11  2  0  0  0  0
M  END
>  <CHROM.1>
1.94350096,-20.75624728,25.55452482,-0.55741061,0.14285450,1.49030036

>  <Name>
ligand

>  <RI>
0

>  <Rbt.Current_Directory>
/home/itssahil/PROJECTS/Mol_Feturizer/New_Systems/rnas/4LVZ

>  <Rbt.Executable>
rbdock ($Id: //depot/dev/client3/rdock/2013.1/src/exe/rbdock.cxx#4 $)

>  <Rbt.Library>
libRbt.so (2013.1, Build901 2013/11/27)

>  <Rbt.Parameter_File>
/export/apps/rDock/src/rDock_2013.1_src/data/scripts/dock_solv.prm

>  <Rbt.Receptor>
prm/pocket_docking_6.prm

>  <SCORE>
-9.46147

>  <SCORE.INTER>
-9.46147

>  <SCORE.INTER.CONST>
1

>  <SCORE.INTER.POLAR>
0

>  <SCORE.INTER.ROT>
0

>  <SCORE.INTER.SOLV>
11.3074

>  <SCORE.INTER.VDW>
-13.6768

>  <SCORE.INTER.norm>
-0.860134

>  <SCORE.INTRA>
0

>  <SCORE.INTRA.DIHEDRAL>
0

>  <SCORE.INTRA.DIHEDRAL.0>
0

>  <SCORE.INTRA.POLAR>
0

>  <SCORE.INTRA.POLAR.0>
0

>  <SCORE.INTRA.REPUL>
0

>  <SCORE.INTRA.REPUL.0>
0

>  <SCORE.INTRA.SOLV>
0

>  <SCORE.INTRA.SOLV.lig_0>
-49.4056

>  <SCORE.INTRA.VDW>
0

>  <SCORE.INTRA.VDW.0>
0

>  <SCORE.INTRA.norm>
0

>  <SCORE.RESTR>
0

>  <SCORE.RESTR.CAVITY>
0

>  <SCORE.RESTR.norm>
0

>  <SCORE.SYSTEM>
0

>  <SCORE.SYSTEM.CONST>
0

>  <SCORE.SYSTEM.DIHEDRAL>
0

>  <SCORE.SYSTEM.SOLV>
0

>  <SCORE.SYSTEM.norm>
0

>  <SCORE.heavy>
11

>  <SCORE.norm>
-0.860134

>  <RMSD>
2.789

$$$$
ligand
 OpenBabel11021811503D
libRbt.so/2013.1/901 2013/11/27
 11 12  0  0  0  0  0  0  0  0999 V2000
    3.7414  -20.4448   25.3591 N   0  0  0  0  0  0  0  0  0  0  0  0
    3.1847  -20.6586   24.1413 C   0  0  0  0  0  0  0  0  0  0  0  0
    3.9833  -20.6183   22.9528 N   0  0  0  0  0  0  0  0  0  0  0  0
    1.8685  -20.9075   24.0207 N   0  0  0  0  0  0  0  0  0  0  0  0
    1.0475  -20.9598   25.1247 C   0  0  0  0  0  0  0  0  0  0  0  0
    1.5880  -20.7428   26.3790 C   0  0  0  0  0  0  0  0  0  0  0  0
    2.9860  -20.4752   26.4787 C   0  0  0  0  0  0  0  0  0  0  0  0
    3.5779  -20.2440   27.7609 N   0  0  0  0  0  0  0  0  0  0  0  0
    0.5482  -20.8502   27.2830 N   0  0  0  0  0  0  0  0  0  0  0  0
   -0.5887  -21.1165   26.6091 C   0  0  0  0  0  0  0  0  0  0  0  0
   -0.3116  -21.1866   25.2918 N   0  0  0  0  0  0  0  0  0  0  0  0
  1  7  2  0  0  0  0
  1  2  1  0  0  0  0
  2  3  1  0  0  0  0
  2  4  2  0  0  0  0
  4  5  1  0  0  0  0
  5  6  2  0  0  0  0
  5 11  1  0  0  0  0
  6  7  1  0  0  0  0
  6  9  1  0  0  0  0
  7  8  1  0  0  0  0
  9 10  1  0  0  0  0
 10 11  2  0  0  0  0
M  END
>  <CHROM.1>
1.98824975,-20.74274932,25.57052826,-0.58786953,0.18034589,1.47813271

>  <Name>
ligand

>  <RI>
0

>  <Rbt.Current_Directory>
/home/itssahil/PROJECTS/Mol_Feturizer/New_Systems/rnas/4LVZ

>  <Rbt.Executable>
rbdock ($Id: //depot/dev/client3/rdock/2013.1/src/exe/rbdock.cxx#4 $)

>  <Rbt.Library>
libRbt.so (2013.1, Build901 2013/11/27)

>  <Rbt.Parameter_File>
/export/apps/rDock/src/rDock_2013.1_src/data/scripts/dock_solv.prm

>  <Rbt.Receptor>
prm/pocket_docking_8.prm

>  <SCORE>
-9.43734

>  <SCORE.INTER>
-9.43734

>  <SCORE.INTER.CONST>
1

>  <SCORE.INTER.POLAR>
0

>  <SCORE.INTER.ROT>
0

>  <SCORE.INTER.SOLV>
11.1598

>  <SCORE.INTER.VDW>
-13.6115

>  <SCORE.INTER.norm>
-0.85794

>  <SCORE.INTRA>
0

>  <SCORE.INTRA.DIHEDRAL>
0

>  <SCORE.INTRA.DIHEDRAL.0>
0

>  <SCORE.INTRA.POLAR>
0

>  <SCORE.INTRA.POLAR.0>
0

>  <SCORE.INTRA.REPUL>
0

>  <SCORE.INTRA.REPUL.0>
0

>  <SCORE.INTRA.SOLV>
0

>  <SCORE.INTRA.SOLV.lig_0>
-49.4056

>  <SCORE.INTRA.VDW>
0

>  <SCORE.INTRA.VDW.0>
0

>  <SCORE.INTRA.norm>
0

>  <SCORE.RESTR>
0

>  <SCORE.RESTR.CAVITY>
0

>  <SCORE.RESTR.norm>
0

>  <SCORE.SYSTEM>
0

>  <SCORE.SYSTEM.CONST>
0

>  <SCORE.SYSTEM.DIHEDRAL>
0

>  <SCORE.SYSTEM.SOLV>
0

>  <SCORE.SYSTEM.norm>
0

>  <SCORE.heavy>
11

>  <SCORE.norm>
-0.85794

>  <RMSD>
2.789

$$$$
ligand
 OpenBabel11021811503D
libRbt.so/2013.1/901 2013/11/27
 11 12  0  0  0  0  0  0  0  0999 V2000
    3.7226  -20.4548   25.3755 N   0  0  0  0  0  0  0  0  0  0  0  0
    3.1942  -20.6593   24.1437 C   0  0  0  0  0  0  0  0  0  0  0  0
    4.0237  -20.6314   22.9762 N   0  0  0  0  0  0  0  0  0  0  0  0
    1.8778  -20.8872   23.9890 N   0  0  0  0  0  0  0  0  0  0  0  0
    1.0278  -20.9268   25.0714 C   0  0  0  0  0  0  0  0  0  0  0  0
    1.5391  -20.7188   26.3393 C   0  0  0  0  0  0  0  0  0  0  0  0
    2.9381  -20.4735   26.4752 C   0  0  0  0  0  0  0  0  0  0  0  0
    3.5003  -20.2521   27.7725 N   0  0  0  0  0  0  0  0  0  0  0  0
    0.4748  -20.8099   27.2161 N   0  0  0  0  0  0  0  0  0  0  0  0
   -0.6485  -21.0578   26.5129 C   0  0  0  0  0  0  0  0  0  0  0  0
   -0.3386  -21.1320   25.2032 N   0  0  0  0  0  0  0  0  0  0  0  0
  1  7  2  0  0  0  0
  1  2  1  0  0  0  0
  2  3  1  0  0  0  0
  2  4  2  0  0  0  0
  4  5  1  0  0  0  0
  5  6  2  0  0  0  0
  5 11  1  0  0  0  0
  6  7  1  0  0  0  0
  6  9  1  0  0  0  0
  7  8  1  0  0  0  0
  9 10  1  0  0  0  0
 10 11  2  0  0  0  0
M  END
>  <CHROM.1>
1.96006609,-20.72485825,25.54145482,-0.56331225,0.16208443,1.47442765

>  <Name>
ligand

>  <RI>
0

>  <Rbt.Current_Directory>
/home/itssahil/PROJECTS/Mol_Feturizer/New_Systems/rnas/4LVZ

>  <Rbt.Executable>
rbdock ($Id: //depot/dev/client3/rdock/2013.1/src/exe/rbdock.cxx#4 $)

>  <Rbt.Library>
libRbt.so (2013.1, Build901 2013/11/27)

>  <Rbt.Parameter_File>
/export/apps/rDock/src/rDock_2013.1_src/data/scripts/dock_solv.prm

>  <Rbt.Receptor>
prm/pocket_docking_3.prm

>  <SCORE>
-9.53177

>  <SCORE.INTER>
-9.53177

>  <SCORE.INTER.CONST>
1

>  <SCORE.INTER.POLAR>
0

>  <SCORE.INTER.ROT>
0

>  <SCORE.INTER.SOLV>
11.1992

>  <SCORE.INTER.VDW>
-13.6876

>  <SCORE.INTER.norm>
-0.866525

>  <SCORE.INTRA>
0

>  <SCORE.INTRA.DIHEDRAL>
0

>  <SCORE.INTRA.DIHEDRAL.0>
0

>  <SCORE.INTRA.POLAR>
0

>  <SCORE.INTRA.POLAR.0>
0

>  <SCORE.INTRA.REPUL>
0

>  <SCORE.INTRA.REPUL.0>
0

>  <SCORE.INTRA.SOLV>
0

>  <SCORE.INTRA.SOLV.lig_0>
-49.4056

>  <SCORE.INTRA.VDW>
0

>  <SCORE.INTRA.VDW.0>
0

>  <SCORE.INTRA.norm>
0

>  <SCORE.RESTR>
0

>  <SCORE.RESTR.CAVITY>
0

>  <SCORE.RESTR.norm>
0

>  <SCORE.SYSTEM>
0

>  <SCORE.SYSTEM.CONST>
0

>  <SCORE.SYSTEM.DIHEDRAL>
0

>  <SCORE.SYSTEM.SOLV>
0

>  <SCORE.SYSTEM.norm>
0

>  <SCORE.heavy>
11

>  <SCORE.norm>
-0.866525

>  <RMSD>
2.790

$$$$
ligand
 OpenBabel11021811503D
libRbt.so/2013.1/901 2013/11/27
 11 12  0  0  0  0  0  0  0  0999 V2000
    3.7234  -20.4439   25.3712 N   0  0  0  0  0  0  0  0  0  0  0  0
    3.1934  -20.6521   24.1406 C   0  0  0  0  0  0  0  0  0  0  0  0
    4.0205  -20.6223   22.9714 N   0  0  0  0  0  0  0  0  0  0  0  0
    1.8776  -20.8854   23.9888 N   0  0  0  0  0  0  0  0  0  0  0  0
    1.0299  -20.9270   25.0729 C   0  0  0  0  0  0  0  0  0  0  0  0
    1.5429  -20.7155   26.3396 C   0  0  0  0  0  0  0  0  0  0  0  0
    2.9412  -20.4644   26.4724 C   0  0  0  0  0  0  0  0  0  0  0  0
    3.5051  -20.2392   27.7683 N   0  0  0  0  0  0  0  0  0  0  0  0
    0.4807  -20.8097   27.2186 N   0  0  0  0  0  0  0  0  0  0  0  0
   -0.6430  -21.0629   26.5179 C   0  0  0  0  0  0  0  0  0  0  0  0
   -0.3354  -21.1375   25.2076 N   0  0  0  0  0  0  0  0  0  0  0  0
  1  7  2  0  0  0  0
  1  2  1  0  0  0  0
  2  3  1  0  0  0  0
  2  4  2  0  0  0  0
  4  5  1  0  0  0  0
  5  6  2  0  0  0  0
  5 11  1  0  0  0  0
  6  7  1  0  0  0  0
  6  9  1  0  0  0  0
  7  8  1  0  0  0  0
  9 10  1  0  0  0  0
 10 11  2  0  0  0  0
M  END
>  <CHROM.1>
1.96230134,-20.72081473,25.54089030,-0.56490584,0.16622432,1.47347456

>  <Name>
ligand

>  <RI>
0

>  <Rbt.Current_Directory>
/home/itssahil/PROJECTS/Mol_Feturizer/New_Systems/rnas/4LVZ

>  <Rbt.Executable>
rbdock ($Id: //depot/dev/client3/rdock/2013.1/src/exe/rbdock.cxx#4 $)

>  <Rbt.Library>
libRbt.so (2013.1, Build901 2013/11/27)

>  <Rbt.Parameter_File>
/export/apps/rDock/src/rDock_2013.1_src/data/scripts/dock_solv.prm

>  <Rbt.Receptor>
prm/pocket_docking_3.prm

>  <SCORE>
-9.54153

>  <SCORE.INTER>
-9.54153

>  <SCORE.INTER.CONST>
1

>  <SCORE.INTER.POLAR>
0

>  <SCORE.INTER.ROT>
0

>  <SCORE.INTER.SOLV>
11.1856

>  <SCORE.INTER.VDW>
-13.6896

>  <SCORE.INTER.norm>
-0.867412

>  <SCORE.INTRA>
0

>  <SCORE.INTRA.DIHEDRAL>
0

>  <SCORE.INTRA.DIHEDRAL.0>
0

>  <SCORE.INTRA.POLAR>
0

>  <SCORE.INTRA.POLAR.0>
0

>  <SCORE.INTRA.REPUL>
0

>  <SCORE.INTRA.REPUL.0>
0

>  <SCORE.INTRA.SOLV>
0

>  <SCORE.INTRA.SOLV.lig_0>
-49.4056

>  <SCORE.INTRA.VDW>
0

>  <SCORE.INTRA.VDW.0>
0

>  <SCORE.INTRA.norm>
0

>  <SCORE.RESTR>
0

>  <SCORE.RESTR.CAVITY>
0

>  <SCORE.RESTR.norm>
0

>  <SCORE.SYSTEM>
0

>  <SCORE.SYSTEM.CONST>
0

>  <SCORE.SYSTEM.DIHEDRAL>
0

>  <SCORE.SYSTEM.SOLV>
0

>  <SCORE.SYSTEM.norm>
0

>  <SCORE.heavy>
11

>  <SCORE.norm>
-0.867412

>  <RMSD>
2.790

$$$$
ligand
 OpenBabel11021811503D
libRbt.so/2013.1/901 2013/11/27
 11 12  0  0  0  0  0  0  0  0999 V2000
    3.7650  -20.3369   25.2881 N   0  0  0  0  0  0  0  0  0  0  0  0
    3.1758  -20.5695   24.0892 C   0  0  0  0  0  0  0  0  0  0  0  0
    3.9313  -20.4962   22.8744 N   0  0  0  0  0  0  0  0  0  0  0  0
    1.8668  -20.8687   24.0125 N   0  0  0  0  0  0  0  0  0  0  0  0
    1.0865  -20.9547   25.1436 C   0  0  0  0  0  0  0  0  0  0  0  0
    1.6607  -20.7196   26.3795 C   0  0  0  0  0  0  0  0  0  0  0  0
    3.0499  -20.3986   26.4325 C   0  0  0  0  0  0  0  0  0  0  0  0
    3.6758  -20.1473   27.6947 N   0  0  0  0  0  0  0  0  0  0  0  0
    0.6572  -20.8687   27.3179 N   0  0  0  0  0  0  0  0  0  0  0  0
   -0.4910  -21.1771   26.6822 C   0  0  0  0  0  0  0  0  0  0  0  0
   -0.2564  -21.2339   25.3560 N   0  0  0  0  0  0  0  0  0  0  0  0
  1  7  2  0  0  0  0
  1  2  1  0  0  0  0
  2  3  1  0  0  0  0
  2  4  2  0  0  0  0
  4  5  1  0  0  0  0
  5  6  2  0  0  0  0
  5 11  1  0  0  0  0
  6  7  1  0  0  0  0
  6  9  1  0  0  0  0
  7  8  1  0  0  0  0
  9 10  1  0  0  0  0
 10 11  2  0  0  0  0
M  END
>  <CHROM.1>
2.03283874,-20.70250028,25.55792503,-0.61900048,0.22164007,1.48698165

>  <Name>
ligand

>  <RI>
0

>  <Rbt.Current_Directory>
/home/itssahil/PROJECTS/Mol_Feturizer/New_Systems/rnas/4LVZ

>  <Rbt.Executable>
rbdock ($Id: //depot/dev/client3/rdock/2013.1/src/exe/rbdock.cxx#4 $)

>  <Rbt.Library>
libRbt.so (2013.1, Build901 2013/11/27)

>  <Rbt.Parameter_File>
/export/apps/rDock/src/rDock_2013.1_src/data/scripts/dock_solv.prm

>  <Rbt.Receptor>
prm/pocket_docking_8.prm

>  <SCORE>
-9.45893

>  <SCORE.INTER>
-9.45893

>  <SCORE.INTER.CONST>
1

>  <SCORE.INTER.POLAR>
0

>  <SCORE.INTER.ROT>
0

>  <SCORE.INTER.SOLV>
10.9521

>  <SCORE.INTER.VDW>
-13.5566

>  <SCORE.INTER.norm>
-0.859903

>  <SCORE.INTRA>
0

>  <SCORE.INTRA.DIHEDRAL>
0

>  <SCORE.INTRA.DIHEDRAL.0>
0

>  <SCORE.INTRA.POLAR>
0

>  <SCORE.INTRA.POLAR.0>
0

>  <SCORE.INTRA.REPUL>
0

>  <SCORE.INTRA.REPUL.0>
0

>  <SCORE.INTRA.SOLV>
0

>  <SCORE.INTRA.SOLV.lig_0>
-49.4056

>  <SCORE.INTRA.VDW>
0

>  <SCORE.INTRA.VDW.0>
0

>  <SCORE.INTRA.norm>
0

>  <SCORE.RESTR>
0

>  <SCORE.RESTR.CAVITY>
0

>  <SCORE.RESTR.norm>
0

>  <SCORE.SYSTEM>
0

>  <SCORE.SYSTEM.CONST>
0

>  <SCORE.SYSTEM.DIHEDRAL>
0

>  <SCORE.SYSTEM.SOLV>
0

>  <SCORE.SYSTEM.norm>
0

>  <SCORE.heavy>
11

>  <SCORE.norm>
-0.859903

>  <RMSD>
2.790

$$$$
ligand
 OpenBabel11021811503D
libRbt.so/2013.1/901 2013/11/27
 11 12  0  0  0  0  0  0  0  0999 V2000
    3.7124  -20.4680   25.4001 N   0  0  0  0  0  0  0  0  0  0  0  0
    3.1918  -20.6912   24.1682 C   0  0  0  0  0  0  0  0  0  0  0  0
    4.0289  -20.6825   23.0058 N   0  0  0  0  0  0  0  0  0  0  0  0
    1.8761  -20.9200   24.0085 N   0  0  0  0  0  0  0  0  0  0  0  0
    1.0191  -20.9417   25.0859 C   0  0  0  0  0  0  0  0  0  0  0  0
    1.5224  -20.7145   26.3537 C   0  0  0  0  0  0  0  0  0  0  0  0
    2.9208  -20.4686   26.4949 C   0  0  0  0  0  0  0  0  0  0  0  0
    3.4749  -20.2276   27.7921 N   0  0  0  0  0  0  0  0  0  0  0  0
    0.4523  -20.7907   27.2248 N   0  0  0  0  0  0  0  0  0  0  0  0
   -0.6667  -21.0484   26.5183 C   0  0  0  0  0  0  0  0  0  0  0  0
   -0.3483  -21.1434   25.2119 N   0  0  0  0  0  0  0  0  0  0  0  0
  1  7  2  0  0  0  0
  1  2  1  0  0  0  0
  2  3  1  0  0  0  0
  2  4  2  0  0  0  0
  4  5  1  0  0  0  0
  5  6  2  0  0  0  0
  5 11  1  0  0  0  0
  6  7  1  0  0  0  0
  6  9  1  0  0  0  0
  7  8  1  0  0  0  0
  9 10  1  0  0  0  0
 10 11  2  0  0  0  0
M  END
>  <CHROM.1>
1.94854121,-20.73350599,25.55876269,-0.55687953,0.16025672,1.45776500

>  <Name>
ligand

>  <RI>
0

>  <Rbt.Current_Directory>
/home/itssahil/PROJECTS/Mol_Feturizer/New_Systems/rnas/4LVZ

>  <Rbt.Executable>
rbdock ($Id: //depot/dev/client3/rdock/2013.1/src/exe/rbdock.cxx#4 $)

>  <Rbt.Library>
libRbt.so (2013.1, Build901 2013/11/27)

>  <Rbt.Parameter_File>
/export/apps/rDock/src/rDock_2013.1_src/data/scripts/dock_solv.prm

>  <Rbt.Receptor>
prm/pocket_docking_8.prm

>  <SCORE>
-9.48245

>  <SCORE.INTER>
-9.48245

>  <SCORE.INTER.CONST>
1

>  <SCORE.INTER.POLAR>
0

>  <SCORE.INTER.ROT>
0

>  <SCORE.INTER.SOLV>
11.4216

>  <SCORE.INTER.VDW>
-13.7288

>  <SCORE.INTER.norm>
-0.862041

>  <SCORE.INTRA>
0

>  <SCORE.INTRA.DIHEDRAL>
0

>  <SCORE.INTRA.DIHEDRAL.0>
0

>  <SCORE.INTRA.POLAR>
0

>  <SCORE.INTRA.POLAR.0>
0

>  <SCORE.INTRA.REPUL>
0

>  <SCORE.INTRA.REPUL.0>
0

>  <SCORE.INTRA.SOLV>
0

>  <SCORE.INTRA.SOLV.lig_0>
-49.4056

>  <SCORE.INTRA.VDW>
0

>  <SCORE.INTRA.VDW.0>
0

>  <SCORE.INTRA.norm>
0

>  <SCORE.RESTR>
0

>  <SCORE.RESTR.CAVITY>
0

>  <SCORE.RESTR.norm>
0

>  <SCORE.SYSTEM>
0

>  <SCORE.SYSTEM.CONST>
0

>  <SCORE.SYSTEM.DIHEDRAL>
0

>  <SCORE.SYSTEM.SOLV>
0

>  <SCORE.SYSTEM.norm>
0

>  <SCORE.heavy>
11

>  <SCORE.norm>
-0.862041

>  <RMSD>
2.790

$$$$
ligand
 OpenBabel11021811503D
libRbt.so/2013.1/901 2013/11/27
 11 12  0  0  0  0  0  0  0  0999 V2000
    3.7223  -20.4466   25.3697 N   0  0  0  0  0  0  0  0  0  0  0  0
    3.1915  -20.6527   24.1391 C   0  0  0  0  0  0  0  0  0  0  0  0
    4.0181  -20.6222   22.9696 N   0  0  0  0  0  0  0  0  0  0  0  0
    1.8755  -20.8849   23.9876 N   0  0  0  0  0  0  0  0  0  0  0  0
    1.0283  -20.9272   25.0721 C   0  0  0  0  0  0  0  0  0  0  0  0
    1.5421  -20.7176   26.3388 C   0  0  0  0  0  0  0  0  0  0  0  0
    2.9406  -20.4678   26.4713 C   0  0  0  0  0  0  0  0  0  0  0  0
    3.5053  -20.2447   27.7672 N   0  0  0  0  0  0  0  0  0  0  0  0
    0.4802  -20.8122   27.2182 N   0  0  0  0  0  0  0  0  0  0  0  0
   -0.6440  -21.0636   26.5178 C   0  0  0  0  0  0  0  0  0  0  0  0
   -0.3371  -21.1368   25.2073 N   0  0  0  0  0  0  0  0  0  0  0  0
  1  7  2  0  0  0  0
  1  2  1  0  0  0  0
  2  3  1  0  0  0  0
  2  4  2  0  0  0  0
  4  5  1  0  0  0  0
  5  6  2  0  0  0  0
  5 11  1  0  0  0  0
  6  7  1  0  0  0  0
  6  9  1  0  0  0  0
  7  8  1  0  0  0  0
  9 10  1  0  0  0  0
 10 11  2  0  0  0  0
M  END
>  <CHROM.1>
1.96105809,-20.72229401,25.53990832,-0.56547903,0.16549623,1.47483872

>  <Name>
ligand

>  <RI>
0

>  <Rbt.Current_Directory>
/home/itssahil/PROJECTS/Mol_Feturizer/New_Systems/rnas/4LVZ

>  <Rbt.Executable>
rbdock ($Id: //depot/dev/client3/rdock/2013.1/src/exe/rbdock.cxx#4 $)

>  <Rbt.Library>
libRbt.so (2013.1, Build901 2013/11/27)

>  <Rbt.Parameter_File>
/export/apps/rDock/src/rDock_2013.1_src/data/scripts/dock_solv.prm

>  <Rbt.Receptor>
prm/pocket_docking_6.prm

>  <SCORE>
-9.53973

>  <SCORE.INTER>
-9.53973

>  <SCORE.INTER.CONST>
1

>  <SCORE.INTER.POLAR>
0

>  <SCORE.INTER.ROT>
0

>  <SCORE.INTER.SOLV>
11.1895

>  <SCORE.INTER.VDW>
-13.6897

>  <SCORE.INTER.norm>
-0.867249

>  <SCORE.INTRA>
0

>  <SCORE.INTRA.DIHEDRAL>
0

>  <SCORE.INTRA.DIHEDRAL.0>
0

>  <SCORE.INTRA.POLAR>
0

>  <SCORE.INTRA.POLAR.0>
0

>  <SCORE.INTRA.REPUL>
0

>  <SCORE.INTRA.REPUL.0>
0

>  <SCORE.INTRA.SOLV>
0

>  <SCORE.INTRA.SOLV.lig_0>
-49.4056

>  <SCORE.INTRA.VDW>
0

>  <SCORE.INTRA.VDW.0>
0

>  <SCORE.INTRA.norm>
0

>  <SCORE.RESTR>
0

>  <SCORE.RESTR.CAVITY>
0

>  <SCORE.RESTR.norm>
0

>  <SCORE.SYSTEM>
0

>  <SCORE.SYSTEM.CONST>
0

>  <SCORE.SYSTEM.DIHEDRAL>
0

>  <SCORE.SYSTEM.SOLV>
0

>  <SCORE.SYSTEM.norm>
0

>  <SCORE.heavy>
11

>  <SCORE.norm>
-0.867249

>  <RMSD>
2.791

$$$$
ligand
 OpenBabel11021811503D
libRbt.so/2013.1/901 2013/11/27
 11 12  0  0  0  0  0  0  0  0999 V2000
    3.7661  -20.3940   25.3181 N   0  0  0  0  0  0  0  0  0  0  0  0
    3.1960  -20.6272   24.1101 C   0  0  0  0  0  0  0  0  0  0  0  0
    3.9780  -20.5885   22.9106 N   0  0  0  0  0  0  0  0  0  0  0  0
    1.8817  -20.8943   24.0097 N   0  0  0  0  0  0  0  0  0  0  0  0
    1.0763  -20.9462   25.1252 C   0  0  0  0  0  0  0  0  0  0  0  0
    1.6306  -20.7097   26.3698 C   0  0  0  0  0  0  0  0  0  0  0  0
    3.0261  -20.4230   26.4480 C   0  0  0  0  0  0  0  0  0  0  0  0
    3.6321  -20.1713   27.7198 N   0  0  0  0  0  0  0  0  0  0  0  0
    0.6045  -20.8215   27.2888 N   0  0  0  0  0  0  0  0  0  0  0  0
   -0.5378  -21.1091   26.6329 C   0  0  0  0  0  0  0  0  0  0  0  0
   -0.2774  -21.1889   25.3128 N   0  0  0  0  0  0  0  0  0  0  0  0
  1  7  2  0  0  0  0
  1  2  1  0  0  0  0
  2  3  1  0  0  0  0
  2  4  2  0  0  0  0
  4  5  1  0  0  0  0
  5  6  2  0  0  0  0
  5 11  1  0  0  0  0
  6  7  1  0  0  0  0
  6  9  1  0  0  0  0
  7  8  1  0  0  0  0
  9 10  1  0  0  0  0
 10 11  2  0  0  0  0
M  END
>  <CHROM.1>
2.01997298,-20.71251700,25.55606769,-0.60019549,0.19459039,1.47049266

>  <Name>
ligand

>  <RI>
0

>  <Rbt.Current_Directory>
/home/itssahil/PROJECTS/Mol_Feturizer/New_Systems/rnas/4LVZ

>  <Rbt.Executable>
rbdock ($Id: //depot/dev/client3/rdock/2013.1/src/exe/rbdock.cxx#4 $)

>  <Rbt.Library>
libRbt.so (2013.1, Build901 2013/11/27)

>  <Rbt.Parameter_File>
/export/apps/rDock/src/rDock_2013.1_src/data/scripts/dock_solv.prm

>  <Rbt.Receptor>
prm/pocket_docking_7.prm

>  <SCORE>
-9.44637

>  <SCORE.INTER>
-9.44637

>  <SCORE.INTER.CONST>
1

>  <SCORE.INTER.POLAR>
0

>  <SCORE.INTER.ROT>
0

>  <SCORE.INTER.SOLV>
10.9929

>  <SCORE.INTER.VDW>
-13.5619

>  <SCORE.INTER.norm>
-0.858761

>  <SCORE.INTRA>
0

>  <SCORE.INTRA.DIHEDRAL>
0

>  <SCORE.INTRA.DIHEDRAL.0>
0

>  <SCORE.INTRA.POLAR>
0

>  <SCORE.INTRA.POLAR.0>
0

>  <SCORE.INTRA.REPUL>
0

>  <SCORE.INTRA.REPUL.0>
0

>  <SCORE.INTRA.SOLV>
0

>  <SCORE.INTRA.SOLV.lig_0>
-49.4056

>  <SCORE.INTRA.VDW>
0

>  <SCORE.INTRA.VDW.0>
0

>  <SCORE.INTRA.norm>
0

>  <SCORE.RESTR>
0

>  <SCORE.RESTR.CAVITY>
0

>  <SCORE.RESTR.norm>
0

>  <SCORE.SYSTEM>
0

>  <SCORE.SYSTEM.CONST>
0

>  <SCORE.SYSTEM.DIHEDRAL>
0

>  <SCORE.SYSTEM.SOLV>
0

>  <SCORE.SYSTEM.norm>
0

>  <SCORE.heavy>
11

>  <SCORE.norm>
-0.858761

>  <RMSD>
2.792

$$$$
ligand
 OpenBabel11021811503D
libRbt.so/2013.1/901 2013/11/27
 11 12  0  0  0  0  0  0  0  0999 V2000
    3.7642  -20.4002   25.3162 N   0  0  0  0  0  0  0  0  0  0  0  0
    3.1900  -20.6276   24.1091 C   0  0  0  0  0  0  0  0  0  0  0  0
    3.9681  -20.5838   22.9072 N   0  0  0  0  0  0  0  0  0  0  0  0
    1.8753  -20.8938   24.0118 N   0  0  0  0  0  0  0  0  0  0  0  0
    1.0735  -20.9505   25.1296 C   0  0  0  0  0  0  0  0  0  0  0  0
    1.6320  -20.7199   26.3735 C   0  0  0  0  0  0  0  0  0  0  0  0
    3.0279  -20.4341   26.4484 C   0  0  0  0  0  0  0  0  0  0  0  0
    3.6381  -20.1885   27.7194 N   0  0  0  0  0  0  0  0  0  0  0  0
    0.6089  -20.8356   27.2953 N   0  0  0  0  0  0  0  0  0  0  0  0
   -0.5357  -21.1198   26.6419 C   0  0  0  0  0  0  0  0  0  0  0  0
   -0.2796  -21.1936   25.3206 N   0  0  0  0  0  0  0  0  0  0  0  0
  1  7  2  0  0  0  0
  1  2  1  0  0  0  0
  2  3  1  0  0  0  0
  2  4  2  0  0  0  0
  4  5  1  0  0  0  0
  5  6  2  0  0  0  0
  5 11  1  0  0  0  0
  6  7  1  0  0  0  0
  6  9  1  0  0  0  0
  7  8  1  0  0  0  0
  9 10  1  0  0  0  0
 10 11  2  0  0  0  0
M  END
>  <CHROM.1>
2.01870450,-20.71917822,25.55849396,-0.60356219,0.19454571,1.47572650

>  <Name>
ligand

>  <RI>
0

>  <Rbt.Current_Directory>
/home/itssahil/PROJECTS/Mol_Feturizer/New_Systems/rnas/4LVZ

>  <Rbt.Executable>
rbdock ($Id: //depot/dev/client3/rdock/2013.1/src/exe/rbdock.cxx#4 $)

>  <Rbt.Library>
libRbt.so (2013.1, Build901 2013/11/27)

>  <Rbt.Parameter_File>
/export/apps/rDock/src/rDock_2013.1_src/data/scripts/dock_solv.prm

>  <Rbt.Receptor>
prm/pocket_docking_7.prm

>  <SCORE>
-9.44737

>  <SCORE.INTER>
-9.44737

>  <SCORE.INTER.CONST>
1

>  <SCORE.INTER.POLAR>
0

>  <SCORE.INTER.ROT>
0

>  <SCORE.INTER.SOLV>
10.991

>  <SCORE.INTER.VDW>
-13.5619

>  <SCORE.INTER.norm>
-0.858852

>  <SCORE.INTRA>
0

>  <SCORE.INTRA.DIHEDRAL>
0

>  <SCORE.INTRA.DIHEDRAL.0>
0

>  <SCORE.INTRA.POLAR>
0

>  <SCORE.INTRA.POLAR.0>
0

>  <SCORE.INTRA.REPUL>
0

>  <SCORE.INTRA.REPUL.0>
0

>  <SCORE.INTRA.SOLV>
0

>  <SCORE.INTRA.SOLV.lig_0>
-49.4056

>  <SCORE.INTRA.VDW>
0

>  <SCORE.INTRA.VDW.0>
0

>  <SCORE.INTRA.norm>
0

>  <SCORE.RESTR>
0

>  <SCORE.RESTR.CAVITY>
0

>  <SCORE.RESTR.norm>
0

>  <SCORE.SYSTEM>
0

>  <SCORE.SYSTEM.CONST>
0

>  <SCORE.SYSTEM.DIHEDRAL>
0

>  <SCORE.SYSTEM.SOLV>
0

>  <SCORE.SYSTEM.norm>
0

>  <SCORE.heavy>
11

>  <SCORE.norm>
-0.858852

>  <RMSD>
2.792

$$$$
ligand
 OpenBabel11021811503D
libRbt.so/2013.1/901 2013/11/27
 11 12  0  0  0  0  0  0  0  0999 V2000
    3.6785  -20.4185   25.3381 N   0  0  0  0  0  0  0  0  0  0  0  0
    3.1162  -20.6195   24.1207 C   0  0  0  0  0  0  0  0  0  0  0  0
    3.9076  -20.5574   22.9283 N   0  0  0  0  0  0  0  0  0  0  0  0
    1.8012  -20.8760   24.0041 N   0  0  0  0  0  0  0  0  0  0  0  0
    0.9869  -20.9491   25.1120 C   0  0  0  0  0  0  0  0  0  0  0  0
    1.5332  -20.7455   26.3660 C   0  0  0  0  0  0  0  0  0  0  0  0
    2.9298  -20.4695   26.4614 C   0  0  0  0  0  0  0  0  0  0  0  0
    3.5275  -20.2517   27.7433 N   0  0  0  0  0  0  0  0  0  0  0  0
    0.4994  -20.8726   27.2743 N   0  0  0  0  0  0  0  0  0  0  0  0
   -0.6395  -21.1375   26.6033 C   0  0  0  0  0  0  0  0  0  0  0  0
   -0.3695  -21.1877   25.2837 N   0  0  0  0  0  0  0  0  0  0  0  0
  1  7  2  0  0  0  0
  1  2  1  0  0  0  0
  2  3  1  0  0  0  0
  2  4  2  0  0  0  0
  4  5  1  0  0  0  0
  5  6  2  0  0  0  0
  5 11  1  0  0  0  0
  6  7  1  0  0  0  0
  6  9  1  0  0  0  0
  7  8  1  0  0  0  0
  9 10  1  0  0  0  0
 10 11  2  0  0  0  0
M  END
>  <CHROM.1>
1.92873426,-20.73160102,25.55534852,-0.59307978,0.18778490,1.49277251

>  <Name>
ligand

>  <RI>
0

>  <Rbt.Current_Directory>
/home/itssahil/PROJECTS/Mol_Feturizer/New_Systems/rnas/4LVZ

>  <Rbt.Executable>
rbdock ($Id: //depot/dev/client3/rdock/2013.1/src/exe/rbdock.cxx#4 $)

>  <Rbt.Library>
libRbt.so (2013.1, Build901 2013/11/27)

>  <Rbt.Parameter_File>
/export/apps/rDock/src/rDock_2013.1_src/data/scripts/dock_solv.prm

>  <Rbt.Receptor>
prm/pocket_docking_8.prm

>  <SCORE>
-9.41254

>  <SCORE.INTER>
-9.41254

>  <SCORE.INTER.CONST>
1

>  <SCORE.INTER.POLAR>
0

>  <SCORE.INTER.ROT>
0

>  <SCORE.INTER.SOLV>
11.5509

>  <SCORE.INTER.VDW>
-13.7253

>  <SCORE.INTER.norm>
-0.855686

>  <SCORE.INTRA>
0

>  <SCORE.INTRA.DIHEDRAL>
0

>  <SCORE.INTRA.DIHEDRAL.0>
0

>  <SCORE.INTRA.POLAR>
0

>  <SCORE.INTRA.POLAR.0>
0

>  <SCORE.INTRA.REPUL>
0

>  <SCORE.INTRA.REPUL.0>
0

>  <SCORE.INTRA.SOLV>
0

>  <SCORE.INTRA.SOLV.lig_0>
-49.4056

>  <SCORE.INTRA.VDW>
0

>  <SCORE.INTRA.VDW.0>
0

>  <SCORE.INTRA.norm>
0

>  <SCORE.RESTR>
0

>  <SCORE.RESTR.CAVITY>
0

>  <SCORE.RESTR.norm>
0

>  <SCORE.SYSTEM>
0

>  <SCORE.SYSTEM.CONST>
0

>  <SCORE.SYSTEM.DIHEDRAL>
0

>  <SCORE.SYSTEM.SOLV>
0

>  <SCORE.SYSTEM.norm>
0

>  <SCORE.heavy>
11

>  <SCORE.norm>
-0.855686

>  <RMSD>
2.792

$$$$
ligand
 OpenBabel11021811503D
libRbt.so/2013.1/901 2013/11/27
 11 12  0  0  0  0  0  0  0  0999 V2000
    3.6784  -20.4090   25.3398 N   0  0  0  0  0  0  0  0  0  0  0  0
    3.1157  -20.6291   24.1259 C   0  0  0  0  0  0  0  0  0  0  0  0
    3.9020  -20.5631   22.9304 N   0  0  0  0  0  0  0  0  0  0  0  0
    1.8047  -20.9085   24.0158 N   0  0  0  0  0  0  0  0  0  0  0  0
    0.9955  -20.9866   25.1270 C   0  0  0  0  0  0  0  0  0  0  0  0
    1.5423  -20.7640   26.3775 C   0  0  0  0  0  0  0  0  0  0  0  0
    2.9344  -20.4637   26.4660 C   0  0  0  0  0  0  0  0  0  0  0  0
    3.5325  -20.2259   27.7441 N   0  0  0  0  0  0  0  0  0  0  0  0
    0.5138  -20.9012   27.2903 N   0  0  0  0  0  0  0  0  0  0  0  0
   -0.6228  -21.1905   26.6253 C   0  0  0  0  0  0  0  0  0  0  0  0
   -0.3563  -21.2466   25.3051 N   0  0  0  0  0  0  0  0  0  0  0  0
  1  7  2  0  0  0  0
  1  2  1  0  0  0  0
  2  3  1  0  0  0  0
  2  4  2  0  0  0  0
  4  5  1  0  0  0  0
  5  6  2  0  0  0  0
  5 11  1  0  0  0  0
  6  7  1  0  0  0  0
  6  9  1  0  0  0  0
  7  8  1  0  0  0  0
  9 10  1  0  0  0  0
 10 11  2  0  0  0  0
M  END
>  <CHROM.1>
1.93488805,-20.74976354,25.56543591,-0.59506425,0.20481153,1.48530372

>  <Name>
ligand

>  <RI>
0

>  <Rbt.Current_Directory>
/home/itssahil/PROJECTS/Mol_Feturizer/New_Systems/rnas/4LVZ

>  <Rbt.Executable>
rbdock ($Id: //depot/dev/client3/rdock/2013.1/src/exe/rbdock.cxx#4 $)

>  <Rbt.Library>
libRbt.so (2013.1, Build901 2013/11/27)

>  <Rbt.Parameter_File>
/export/apps/rDock/src/rDock_2013.1_src/data/scripts/dock_solv.prm

>  <Rbt.Receptor>
prm/pocket_docking_5.prm

>  <SCORE>
-9.40854

>  <SCORE.INTER>
-9.40854

>  <SCORE.INTER.CONST>
1

>  <SCORE.INTER.POLAR>
0

>  <SCORE.INTER.ROT>
0

>  <SCORE.INTER.SOLV>
11.5956

>  <SCORE.INTER.VDW>
-13.7376

>  <SCORE.INTER.norm>
-0.855322

>  <SCORE.INTRA>
0

>  <SCORE.INTRA.DIHEDRAL>
0

>  <SCORE.INTRA.DIHEDRAL.0>
0

>  <SCORE.INTRA.POLAR>
0

>  <SCORE.INTRA.POLAR.0>
0

>  <SCORE.INTRA.REPUL>
0

>  <SCORE.INTRA.REPUL.0>
0

>  <SCORE.INTRA.SOLV>
0

>  <SCORE.INTRA.SOLV.lig_0>
-49.4056

>  <SCORE.INTRA.VDW>
0

>  <SCORE.INTRA.VDW.0>
0

>  <SCORE.INTRA.norm>
0

>  <SCORE.RESTR>
0

>  <SCORE.RESTR.CAVITY>
0

>  <SCORE.RESTR.norm>
0

>  <SCORE.SYSTEM>
0

>  <SCORE.SYSTEM.CONST>
0

>  <SCORE.SYSTEM.DIHEDRAL>
0

>  <SCORE.SYSTEM.SOLV>
0

>  <SCORE.SYSTEM.norm>
0

>  <SCORE.heavy>
11

>  <SCORE.norm>
-0.855322

>  <RMSD>
2.793

$$$$
ligand
 OpenBabel11021811503D
libRbt.so/2013.1/901 2013/11/27
 11 12  0  0  0  0  0  0  0  0999 V2000
    3.6474  -20.2735   25.2828 N   0  0  0  0  0  0  0  0  0  0  0  0
    3.0458  -20.5501   24.0995 C   0  0  0  0  0  0  0  0  0  0  0  0
    3.7775  -20.4769   22.8703 N   0  0  0  0  0  0  0  0  0  0  0  0
    1.7464  -20.8937   24.0522 N   0  0  0  0  0  0  0  0  0  0  0  0
    0.9888  -20.9822   25.1985 C   0  0  0  0  0  0  0  0  0  0  0  0
    1.5759  -20.7028   26.4190 C   0  0  0  0  0  0  0  0  0  0  0  0
    2.9544  -20.3351   26.4409 C   0  0  0  0  0  0  0  0  0  0  0  0
    3.5931  -20.0374   27.6864 N   0  0  0  0  0  0  0  0  0  0  0  0
    0.5942  -20.8656   27.3779 N   0  0  0  0  0  0  0  0  0  0  0  0
   -0.5538  -21.2248   26.7690 C   0  0  0  0  0  0  0  0  0  0  0  0
   -0.3402  -21.3011   25.4402 N   0  0  0  0  0  0  0  0  0  0  0  0
  1  7  2  0  0  0  0
  1  2  1  0  0  0  0
  2  3  1  0  0  0  0
  2  4  2  0  0  0  0
  4  5  1  0  0  0  0
  5  6  2  0  0  0  0
  5 11  1  0  0  0  0
  6  7  1  0  0  0  0
  6  9  1  0  0  0  0
  7  8  1  0  0  0  0
  9 10  1  0  0  0  0
 10 11  2  0  0  0  0
M  END
>  <CHROM.1>
1.93320906,-20.69039395,25.59071792,-0.63374161,0.25629176,1.47015863

>  <Name>
ligand

>  <RI>
0

>  <Rbt.Current_Directory>
/home/itssahil/PROJECTS/Mol_Feturizer/New_Systems/rnas/4LVZ

>  <Rbt.Executable>
rbdock ($Id: //depot/dev/client3/rdock/2013.1/src/exe/rbdock.cxx#4 $)

>  <Rbt.Library>
libRbt.so (2013.1, Build901 2013/11/27)

>  <Rbt.Parameter_File>
/export/apps/rDock/src/rDock_2013.1_src/data/scripts/dock_solv.prm

>  <Rbt.Receptor>
prm/pocket_docking_7.prm

>  <SCORE>
-9.35135

>  <SCORE.INTER>
-9.35135

>  <SCORE.INTER.CONST>
1

>  <SCORE.INTER.POLAR>
0

>  <SCORE.INTER.ROT>
0

>  <SCORE.INTER.SOLV>
12.0665

>  <SCORE.INTER.VDW>
-13.8564

>  <SCORE.INTER.norm>
-0.850123

>  <SCORE.INTRA>
0

>  <SCORE.INTRA.DIHEDRAL>
0

>  <SCORE.INTRA.DIHEDRAL.0>
0

>  <SCORE.INTRA.POLAR>
0

>  <SCORE.INTRA.POLAR.0>
0

>  <SCORE.INTRA.REPUL>
0

>  <SCORE.INTRA.REPUL.0>
0

>  <SCORE.INTRA.SOLV>
0

>  <SCORE.INTRA.SOLV.lig_0>
-49.4056

>  <SCORE.INTRA.VDW>
0

>  <SCORE.INTRA.VDW.0>
0

>  <SCORE.INTRA.norm>
0

>  <SCORE.RESTR>
0

>  <SCORE.RESTR.CAVITY>
0

>  <SCORE.RESTR.norm>
0

>  <SCORE.SYSTEM>
0

>  <SCORE.SYSTEM.CONST>
0

>  <SCORE.SYSTEM.DIHEDRAL>
0

>  <SCORE.SYSTEM.SOLV>
0

>  <SCORE.SYSTEM.norm>
0

>  <SCORE.heavy>
11

>  <SCORE.norm>
-0.850123

>  <RMSD>
2.793

$$$$
ligand
 OpenBabel11021811503D
libRbt.so/2013.1/901 2013/11/27
 11 12  0  0  0  0  0  0  0  0999 V2000
    3.7714  -20.3988   25.3098 N   0  0  0  0  0  0  0  0  0  0  0  0
    3.1943  -20.6318   24.1051 C   0  0  0  0  0  0  0  0  0  0  0  0
    3.9695  -20.5936   22.9011 N   0  0  0  0  0  0  0  0  0  0  0  0
    1.8793  -20.8984   24.0123 N   0  0  0  0  0  0  0  0  0  0  0  0
    1.0803  -20.9498   25.1323 C   0  0  0  0  0  0  0  0  0  0  0  0
    1.6418  -20.7134   26.3738 C   0  0  0  0  0  0  0  0  0  0  0  0
    3.0379  -20.4273   26.4439 C   0  0  0  0  0  0  0  0  0  0  0  0
    3.6512  -20.1757   27.7122 N   0  0  0  0  0  0  0  0  0  0  0  0
    0.6210  -20.8246   27.2986 N   0  0  0  0  0  0  0  0  0  0  0  0
   -0.5252  -21.1119   26.6493 C   0  0  0  0  0  0  0  0  0  0  0  0
   -0.2724  -21.1919   25.3277 N   0  0  0  0  0  0  0  0  0  0  0  0
  1  7  2  0  0  0  0
  1  2  1  0  0  0  0
  2  3  1  0  0  0  0
  2  4  2  0  0  0  0
  4  5  1  0  0  0  0
  5  6  2  0  0  0  0
  5 11  1  0  0  0  0
  6  7  1  0  0  0  0
  6  9  1  0  0  0  0
  7  8  1  0  0  0  0
  9 10  1  0  0  0  0
 10 11  2  0  0  0  0
M  END
>  <CHROM.1>
2.02654011,-20.71647364,25.55779159,-0.60603675,0.19474383,1.47149496

>  <Name>
ligand

>  <RI>
0

>  <Rbt.Current_Directory>
/home/itssahil/PROJECTS/Mol_Feturizer/New_Systems/rnas/4LVZ

>  <Rbt.Executable>
rbdock ($Id: //depot/dev/client3/rdock/2013.1/src/exe/rbdock.cxx#4 $)

>  <Rbt.Library>
libRbt.so (2013.1, Build901 2013/11/27)

>  <Rbt.Parameter_File>
/export/apps/rDock/src/rDock_2013.1_src/data/scripts/dock_solv.prm

>  <Rbt.Receptor>
prm/pocket_docking_3.prm

>  <SCORE>
-9.46446

>  <SCORE.INTER>
-9.46446

>  <SCORE.INTER.CONST>
1

>  <SCORE.INTER.POLAR>
0

>  <SCORE.INTER.ROT>
0

>  <SCORE.INTER.SOLV>
10.962

>  <SCORE.INTER.VDW>
-13.5636

>  <SCORE.INTER.norm>
-0.860406

>  <SCORE.INTRA>
0

>  <SCORE.INTRA.DIHEDRAL>
0

>  <SCORE.INTRA.DIHEDRAL.0>
0

>  <SCORE.INTRA.POLAR>
0

>  <SCORE.INTRA.POLAR.0>
0

>  <SCORE.INTRA.REPUL>
0

>  <SCORE.INTRA.REPUL.0>
0

>  <SCORE.INTRA.SOLV>
0

>  <SCORE.INTRA.SOLV.lig_0>
-49.4056

>  <SCORE.INTRA.VDW>
0

>  <SCORE.INTRA.VDW.0>
0

>  <SCORE.INTRA.norm>
0

>  <SCORE.RESTR>
0

>  <SCORE.RESTR.CAVITY>
0

>  <SCORE.RESTR.norm>
0

>  <SCORE.SYSTEM>
0

>  <SCORE.SYSTEM.CONST>
0

>  <SCORE.SYSTEM.DIHEDRAL>
0

>  <SCORE.SYSTEM.SOLV>
0

>  <SCORE.SYSTEM.norm>
0

>  <SCORE.heavy>
11

>  <SCORE.norm>
-0.860406

>  <RMSD>
2.794

$$$$
ligand
 OpenBabel11021811503D
libRbt.so/2013.1/901 2013/11/27
 11 12  0  0  0  0  0  0  0  0999 V2000
    3.6970  -20.4590   25.3581 N   0  0  0  0  0  0  0  0  0  0  0  0
    3.1448  -20.6726   24.1383 C   0  0  0  0  0  0  0  0  0  0  0  0
    3.9484  -20.6363   22.9531 N   0  0  0  0  0  0  0  0  0  0  0  0
    1.8284  -20.9177   24.0125 N   0  0  0  0  0  0  0  0  0  0  0  0
    1.0026  -20.9662   25.1131 C   0  0  0  0  0  0  0  0  0  0  0  0
    1.5385  -20.7493   26.3694 C   0  0  0  0  0  0  0  0  0  0  0  0
    2.9368  -20.4857   26.4746 C   0  0  0  0  0  0  0  0  0  0  0  0
    3.5241  -20.2547   27.7590 N   0  0  0  0  0  0  0  0  0  0  0  0
    0.4946  -20.8524   27.2691 N   0  0  0  0  0  0  0  0  0  0  0  0
   -0.6403  -21.1160   26.5908 C   0  0  0  0  0  0  0  0  0  0  0  0
   -0.3578  -21.1887   25.2748 N   0  0  0  0  0  0  0  0  0  0  0  0
  1  7  2  0  0  0  0
  1  2  1  0  0  0  0
  2  3  1  0  0  0  0
  2  4  2  0  0  0  0
  4  5  1  0  0  0  0
  5  6  2  0  0  0  0
  5 11  1  0  0  0  0
  6  7  1  0  0  0  0
  6  9  1  0  0  0  0
  7  8  1  0  0  0  0
  9 10  1  0  0  0  0
 10 11  2  0  0  0  0
M  END
>  <CHROM.1>
1.94212231,-20.75140321,25.56257472,-0.58391269,0.17695390,1.47617656

>  <Name>
ligand

>  <RI>
0

>  <Rbt.Current_Directory>
/home/itssahil/PROJECTS/Mol_Feturizer/New_Systems/rnas/4LVZ

>  <Rbt.Executable>
rbdock ($Id: //depot/dev/client3/rdock/2013.1/src/exe/rbdock.cxx#4 $)

>  <Rbt.Library>
libRbt.so (2013.1, Build901 2013/11/27)

>  <Rbt.Parameter_File>
/export/apps/rDock/src/rDock_2013.1_src/data/scripts/dock_solv.prm

>  <Rbt.Receptor>
prm/pocket_docking_6.prm

>  <SCORE>
-9.42405

>  <SCORE.INTER>
-9.42405

>  <SCORE.INTER.CONST>
1

>  <SCORE.INTER.POLAR>
0

>  <SCORE.INTER.ROT>
0

>  <SCORE.INTER.SOLV>
11.4891

>  <SCORE.INTER.VDW>
-13.7124

>  <SCORE.INTER.norm>
-0.856732

>  <SCORE.INTRA>
0

>  <SCORE.INTRA.DIHEDRAL>
0

>  <SCORE.INTRA.DIHEDRAL.0>
0

>  <SCORE.INTRA.POLAR>
0

>  <SCORE.INTRA.POLAR.0>
0

>  <SCORE.INTRA.REPUL>
0

>  <SCORE.INTRA.REPUL.0>
0

>  <SCORE.INTRA.SOLV>
0

>  <SCORE.INTRA.SOLV.lig_0>
-49.4056

>  <SCORE.INTRA.VDW>
0

>  <SCORE.INTRA.VDW.0>
0

>  <SCORE.INTRA.norm>
0

>  <SCORE.RESTR>
0

>  <SCORE.RESTR.CAVITY>
0

>  <SCORE.RESTR.norm>
0

>  <SCORE.SYSTEM>
0

>  <SCORE.SYSTEM.CONST>
0

>  <SCORE.SYSTEM.DIHEDRAL>
0

>  <SCORE.SYSTEM.SOLV>
0

>  <SCORE.SYSTEM.norm>
0

>  <SCORE.heavy>
11

>  <SCORE.norm>
-0.856732

>  <RMSD>
2.794

$$$$
ligand
 OpenBabel11021811503D
libRbt.so/2013.1/901 2013/11/27
 11 12  0  0  0  0  0  0  0  0999 V2000
    3.7389  -20.3830   25.2987 N   0  0  0  0  0  0  0  0  0  0  0  0
    3.1519  -20.6098   24.0977 C   0  0  0  0  0  0  0  0  0  0  0  0
    3.9147  -20.5533   22.8865 N   0  0  0  0  0  0  0  0  0  0  0  0
    1.8385  -20.8872   24.0153 N   0  0  0  0  0  0  0  0  0  0  0  0
    1.0512  -20.9563   25.1426 C   0  0  0  0  0  0  0  0  0  0  0  0
    1.6229  -20.7266   26.3807 C   0  0  0  0  0  0  0  0  0  0  0  0
    3.0171  -20.4287   26.4397 C   0  0  0  0  0  0  0  0  0  0  0  0
    3.6407  -20.1836   27.7042 N   0  0  0  0  0  0  0  0  0  0  0  0
    0.6123  -20.8557   27.3144 N   0  0  0  0  0  0  0  0  0  0  0  0
   -0.5376  -21.1471   26.6738 C   0  0  0  0  0  0  0  0  0  0  0  0
   -0.2973  -21.2124   25.3491 N   0  0  0  0  0  0  0  0  0  0  0  0
  1  7  2  0  0  0  0
  1  2  1  0  0  0  0
  2  3  1  0  0  0  0
  2  4  2  0  0  0  0
  4  5  1  0  0  0  0
  5  6  2  0  0  0  0
  5 11  1  0  0  0  0
  6  7  1  0  0  0  0
  6  9  1  0  0  0  0
  7  8  1  0  0  0  0
  9 10  1  0  0  0  0
 10 11  2  0  0  0  0
M  END
>  <CHROM.1>
1.99950214,-20.71859148,25.56093388,-0.61526733,0.20452776,1.48280826

>  <Name>
ligand

>  <RI>
0

>  <Rbt.Current_Directory>
/home/itssahil/PROJECTS/Mol_Feturizer/New_Systems/rnas/4LVZ

>  <Rbt.Executable>
rbdock ($Id: //depot/dev/client3/rdock/2013.1/src/exe/rbdock.cxx#4 $)

>  <Rbt.Library>
libRbt.so (2013.1, Build901 2013/11/27)

>  <Rbt.Parameter_File>
/export/apps/rDock/src/rDock_2013.1_src/data/scripts/dock_solv.prm

>  <Rbt.Receptor>
prm/pocket_docking_7.prm

>  <SCORE>
-9.43842

>  <SCORE.INTER>
-9.43842

>  <SCORE.INTER.CONST>
1

>  <SCORE.INTER.POLAR>
0

>  <SCORE.INTER.ROT>
0

>  <SCORE.INTER.SOLV>
11.1839

>  <SCORE.INTER.VDW>
-13.6202

>  <SCORE.INTER.norm>
-0.858039

>  <SCORE.INTRA>
0

>  <SCORE.INTRA.DIHEDRAL>
0

>  <SCORE.INTRA.DIHEDRAL.0>
0

>  <SCORE.INTRA.POLAR>
0

>  <SCORE.INTRA.POLAR.0>
0

>  <SCORE.INTRA.REPUL>
0

>  <SCORE.INTRA.REPUL.0>
0

>  <SCORE.INTRA.SOLV>
0

>  <SCORE.INTRA.SOLV.lig_0>
-49.4056

>  <SCORE.INTRA.VDW>
0

>  <SCORE.INTRA.VDW.0>
0

>  <SCORE.INTRA.norm>
0

>  <SCORE.RESTR>
0

>  <SCORE.RESTR.CAVITY>
0

>  <SCORE.RESTR.norm>
0

>  <SCORE.SYSTEM>
0

>  <SCORE.SYSTEM.CONST>
0

>  <SCORE.SYSTEM.DIHEDRAL>
0

>  <SCORE.SYSTEM.SOLV>
0

>  <SCORE.SYSTEM.norm>
0

>  <SCORE.heavy>
11

>  <SCORE.norm>
-0.858039

>  <RMSD>
2.794

$$$$
ligand
 OpenBabel11021811503D
libRbt.so/2013.1/901 2013/11/27
 11 12  0  0  0  0  0  0  0  0999 V2000
    3.7406  -20.4418   25.3404 N   0  0  0  0  0  0  0  0  0  0  0  0
    3.2004  -20.6411   24.1128 C   0  0  0  0  0  0  0  0  0  0  0  0
    4.0190  -20.6099   22.9377 N   0  0  0  0  0  0  0  0  0  0  0  0
    1.8823  -20.8669   23.9696 N   0  0  0  0  0  0  0  0  0  0  0  0
    1.0425  -20.9095   25.0598 C   0  0  0  0  0  0  0  0  0  0  0  0
    1.5659  -20.7068   26.3236 C   0  0  0  0  0  0  0  0  0  0  0  0
    2.9664  -20.4636   26.4473 C   0  0  0  0  0  0  0  0  0  0  0  0
    3.5411  -20.2477   27.7401 N   0  0  0  0  0  0  0  0  0  0  0  0
    0.5098  -20.7999   27.2100 N   0  0  0  0  0  0  0  0  0  0  0  0
   -0.6204  -21.0439   26.5165 C   0  0  0  0  0  0  0  0  0  0  0  0
   -0.3228  -21.1136   25.2037 N   0  0  0  0  0  0  0  0  0  0  0  0
  1  7  2  0  0  0  0
  1  2  1  0  0  0  0
  2  3  1  0  0  0  0
  2  4  2  0  0  0  0
  4  5  1  0  0  0  0
  5  6  2  0  0  0  0
  5 11  1  0  0  0  0
  6  7  1  0  0  0  0
  6  9  1  0  0  0  0
  7  8  1  0  0  0  0
  9 10  1  0  0  0  0
 10 11  2  0  0  0  0
M  END
>  <CHROM.1>
1.97935875,-20.71041043,25.52184228,-0.57288602,0.16178927,1.47966857

>  <Name>
ligand

>  <RI>
0

>  <Rbt.Current_Directory>
/home/itssahil/PROJECTS/Mol_Feturizer/New_Systems/rnas/4LVZ

>  <Rbt.Executable>
rbdock ($Id: //depot/dev/client3/rdock/2013.1/src/exe/rbdock.cxx#4 $)

>  <Rbt.Library>
libRbt.so (2013.1, Build901 2013/11/27)

>  <Rbt.Parameter_File>
/export/apps/rDock/src/rDock_2013.1_src/data/scripts/dock_solv.prm

>  <Rbt.Receptor>
prm/pocket_docking_8.prm

>  <SCORE>
-9.4753

>  <SCORE.INTER>
-9.4753

>  <SCORE.INTER.CONST>
1

>  <SCORE.INTER.POLAR>
0

>  <SCORE.INTER.ROT>
0

>  <SCORE.INTER.SOLV>
11.0298

>  <SCORE.INTER.VDW>
-13.5935

>  <SCORE.INTER.norm>
-0.861391

>  <SCORE.INTRA>
0

>  <SCORE.INTRA.DIHEDRAL>
0

>  <SCORE.INTRA.DIHEDRAL.0>
0

>  <SCORE.INTRA.POLAR>
0

>  <SCORE.INTRA.POLAR.0>
0

>  <SCORE.INTRA.REPUL>
0

>  <SCORE.INTRA.REPUL.0>
0

>  <SCORE.INTRA.SOLV>
0

>  <SCORE.INTRA.SOLV.lig_0>
-49.4056

>  <SCORE.INTRA.VDW>
0

>  <SCORE.INTRA.VDW.0>
0

>  <SCORE.INTRA.norm>
0

>  <SCORE.RESTR>
0

>  <SCORE.RESTR.CAVITY>
0

>  <SCORE.RESTR.norm>
0

>  <SCORE.SYSTEM>
0

>  <SCORE.SYSTEM.CONST>
0

>  <SCORE.SYSTEM.DIHEDRAL>
0

>  <SCORE.SYSTEM.SOLV>
0

>  <SCORE.SYSTEM.norm>
0

>  <SCORE.heavy>
11

>  <SCORE.norm>
-0.861391

>  <RMSD>
2.794

$$$$
ligand
 OpenBabel11021811503D
libRbt.so/2013.1/901 2013/11/27
 11 12  0  0  0  0  0  0  0  0999 V2000
    3.7516  -20.4010   25.3066 N   0  0  0  0  0  0  0  0  0  0  0  0
    3.1773  -20.6262   24.0991 C   0  0  0  0  0  0  0  0  0  0  0  0
    3.9556  -20.5810   22.8973 N   0  0  0  0  0  0  0  0  0  0  0  0
    1.8624  -20.8913   24.0013 N   0  0  0  0  0  0  0  0  0  0  0  0
    1.0605  -20.9491   25.1190 C   0  0  0  0  0  0  0  0  0  0  0  0
    1.6191  -20.7208   26.3633 C   0  0  0  0  0  0  0  0  0  0  0  0
    3.0152  -20.4360   26.4387 C   0  0  0  0  0  0  0  0  0  0  0  0
    3.6255  -20.1928   27.7101 N   0  0  0  0  0  0  0  0  0  0  0  0
    0.5958  -20.8371   27.2848 N   0  0  0  0  0  0  0  0  0  0  0  0
   -0.5489  -21.1195   26.6309 C   0  0  0  0  0  0  0  0  0  0  0  0
   -0.2928  -21.1915   25.3095 N   0  0  0  0  0  0  0  0  0  0  0  0
  1  7  2  0  0  0  0
  1  2  1  0  0  0  0
  2  3  1  0  0  0  0
  2  4  2  0  0  0  0
  4  5  1  0  0  0  0
  5  6  2  0  0  0  0
  5 11  1  0  0  0  0
  6  7  1  0  0  0  0
  6  9  1  0  0  0  0
  7  8  1  0  0  0  0
  9 10  1  0  0  0  0
 10 11  2  0  0  0  0
M  END
>  <CHROM.1>
2.00585998,-20.71906188,25.54825147,-0.60355608,0.19383170,1.47723376

>  <Name>
ligand

>  <RI>
0

>  <Rbt.Current_Directory>
/home/itssahil/PROJECTS/Mol_Feturizer/New_Systems/rnas/4LVZ

>  <Rbt.Executable>
rbdock ($Id: //depot/dev/client3/rdock/2013.1/src/exe/rbdock.cxx#4 $)

>  <Rbt.Library>
libRbt.so (2013.1, Build901 2013/11/27)

>  <Rbt.Parameter_File>
/export/apps/rDock/src/rDock_2013.1_src/data/scripts/dock_solv.prm

>  <Rbt.Receptor>
prm/pocket_docking_3.prm

>  <SCORE>
-9.44533

>  <SCORE.INTER>
-9.44533

>  <SCORE.INTER.CONST>
1

>  <SCORE.INTER.POLAR>
0

>  <SCORE.INTER.ROT>
0

>  <SCORE.INTER.SOLV>
11.0602

>  <SCORE.INTER.VDW>
-13.5836

>  <SCORE.INTER.norm>
-0.858666

>  <SCORE.INTRA>
0

>  <SCORE.INTRA.DIHEDRAL>
0

>  <SCORE.INTRA.DIHEDRAL.0>
0

>  <SCORE.INTRA.POLAR>
0

>  <SCORE.INTRA.POLAR.0>
0

>  <SCORE.INTRA.REPUL>
0

>  <SCORE.INTRA.REPUL.0>
0

>  <SCORE.INTRA.SOLV>
0

>  <SCORE.INTRA.SOLV.lig_0>
-49.4056

>  <SCORE.INTRA.VDW>
0

>  <SCORE.INTRA.VDW.0>
0

>  <SCORE.INTRA.norm>
0

>  <SCORE.RESTR>
0

>  <SCORE.RESTR.CAVITY>
0

>  <SCORE.RESTR.norm>
0

>  <SCORE.SYSTEM>
0

>  <SCORE.SYSTEM.CONST>
0

>  <SCORE.SYSTEM.DIHEDRAL>
0

>  <SCORE.SYSTEM.SOLV>
0

>  <SCORE.SYSTEM.norm>
0

>  <SCORE.heavy>
11

>  <SCORE.norm>
-0.858666

>  <RMSD>
2.795

$$$$
ligand
 OpenBabel11021811503D
libRbt.so/2013.1/901 2013/11/27
 11 12  0  0  0  0  0  0  0  0999 V2000
    3.6519  -20.3605   25.2939 N   0  0  0  0  0  0  0  0  0  0  0  0
    3.0435  -20.5877   24.1037 C   0  0  0  0  0  0  0  0  0  0  0  0
    3.7753  -20.4916   22.8760 N   0  0  0  0  0  0  0  0  0  0  0  0
    1.7372  -20.9030   24.0478 N   0  0  0  0  0  0  0  0  0  0  0  0
    0.9793  -21.0113   25.1921 C   0  0  0  0  0  0  0  0  0  0  0  0
    1.5733  -20.7822   26.4197 C   0  0  0  0  0  0  0  0  0  0  0  0
    2.9590  -20.4438   26.4507 C   0  0  0  0  0  0  0  0  0  0  0  0
    3.6051  -20.1981   27.7037 N   0  0  0  0  0  0  0  0  0  0  0  0
    0.5894  -20.9544   27.3748 N   0  0  0  0  0  0  0  0  0  0  0  0
   -0.5664  -21.2708   26.7569 C   0  0  0  0  0  0  0  0  0  0  0  0
   -0.3558  -21.3102   25.4261 N   0  0  0  0  0  0  0  0  0  0  0  0
  1  7  2  0  0  0  0
  1  2  1  0  0  0  0
  2  3  1  0  0  0  0
  2  4  2  0  0  0  0
  4  5  1  0  0  0  0
  5  6  2  0  0  0  0
  5 11  1  0  0  0  0
  6  7  1  0  0  0  0
  6  9  1  0  0  0  0
  7  8  1  0  0  0  0
  9 10  1  0  0  0  0
 10 11  2  0  0  0  0
M  END
>  <CHROM.1>
1.92986002,-20.75136868,25.59163954,-0.63694823,0.23587004,1.50197617

>  <Name>
ligand

>  <RI>
0

>  <Rbt.Current_Directory>
/home/itssahil/PROJECTS/Mol_Feturizer/New_Systems/rnas/4LVZ

>  <Rbt.Executable>
rbdock ($Id: //depot/dev/client3/rdock/2013.1/src/exe/rbdock.cxx#4 $)

>  <Rbt.Library>
libRbt.so (2013.1, Build901 2013/11/27)

>  <Rbt.Parameter_File>
/export/apps/rDock/src/rDock_2013.1_src/data/scripts/dock_solv.prm

>  <Rbt.Receptor>
prm/pocket_docking_4.prm

>  <SCORE>
-9.43187

>  <SCORE.INTER>
-9.43187

>  <SCORE.INTER.CONST>
1

>  <SCORE.INTER.POLAR>
0

>  <SCORE.INTER.ROT>
0

>  <SCORE.INTER.SOLV>
11.8592

>  <SCORE.INTER.VDW>
-13.841

>  <SCORE.INTER.norm>
-0.857443

>  <SCORE.INTRA>
0

>  <SCORE.INTRA.DIHEDRAL>
0

>  <SCORE.INTRA.DIHEDRAL.0>
0

>  <SCORE.INTRA.POLAR>
0

>  <SCORE.INTRA.POLAR.0>
0

>  <SCORE.INTRA.REPUL>
0

>  <SCORE.INTRA.REPUL.0>
0

>  <SCORE.INTRA.SOLV>
0

>  <SCORE.INTRA.SOLV.lig_0>
-49.4056

>  <SCORE.INTRA.VDW>
0

>  <SCORE.INTRA.VDW.0>
0

>  <SCORE.INTRA.norm>
0

>  <SCORE.RESTR>
0

>  <SCORE.RESTR.CAVITY>
0

>  <SCORE.RESTR.norm>
0

>  <SCORE.SYSTEM>
0

>  <SCORE.SYSTEM.CONST>
0

>  <SCORE.SYSTEM.DIHEDRAL>
0

>  <SCORE.SYSTEM.SOLV>
0

>  <SCORE.SYSTEM.norm>
0

>  <SCORE.heavy>
11

>  <SCORE.norm>
-0.857443

>  <RMSD>
2.795

$$$$
ligand
 OpenBabel11021811503D
libRbt.so/2013.1/901 2013/11/27
 11 12  0  0  0  0  0  0  0  0999 V2000
    3.7616  -20.4092   25.3134 N   0  0  0  0  0  0  0  0  0  0  0  0
    3.1914  -20.6359   24.1042 C   0  0  0  0  0  0  0  0  0  0  0  0
    3.9753  -20.6002   22.9058 N   0  0  0  0  0  0  0  0  0  0  0  0
    1.8755  -20.8937   24.0016 N   0  0  0  0  0  0  0  0  0  0  0  0
    1.0682  -20.9422   25.1159 C   0  0  0  0  0  0  0  0  0  0  0  0
    1.6226  -20.7121   26.3617 C   0  0  0  0  0  0  0  0  0  0  0  0
    3.0200  -20.4353   26.4423 C   0  0  0  0  0  0  0  0  0  0  0  0
    3.6259  -20.1904   27.7154 N   0  0  0  0  0  0  0  0  0  0  0  0
    0.5945  -20.8186   27.2791 N   0  0  0  0  0  0  0  0  0  0  0  0
   -0.5489  -21.0970   26.6212 C   0  0  0  0  0  0  0  0  0  0  0  0
   -0.2873  -21.1759   25.3012 N   0  0  0  0  0  0  0  0  0  0  0  0
  1  7  2  0  0  0  0
  1  2  1  0  0  0  0
  2  3  1  0  0  0  0
  2  4  2  0  0  0  0
  4  5  1  0  0  0  0
  5  6  2  0  0  0  0
  5 11  1  0  0  0  0
  6  7  1  0  0  0  0
  6  9  1  0  0  0  0
  7  8  1  0  0  0  0
  9 10  1  0  0  0  0
 10 11  2  0  0  0  0
M  END
>  <CHROM.1>
2.01296703,-20.71600835,25.54846469,-0.59957607,0.18756005,1.47240684

>  <Name>
ligand

>  <RI>
0

>  <Rbt.Current_Directory>
/home/itssahil/PROJECTS/Mol_Feturizer/New_Systems/rnas/4LVZ

>  <Rbt.Executable>
rbdock ($Id: //depot/dev/client3/rdock/2013.1/src/exe/rbdock.cxx#4 $)

>  <Rbt.Library>
libRbt.so (2013.1, Build901 2013/11/27)

>  <Rbt.Parameter_File>
/export/apps/rDock/src/rDock_2013.1_src/data/scripts/dock_solv.prm

>  <Rbt.Receptor>
prm/pocket_docking_5.prm

>  <SCORE>
-9.45113

>  <SCORE.INTER>
-9.45113

>  <SCORE.INTER.CONST>
1

>  <SCORE.INTER.POLAR>
0

>  <SCORE.INTER.ROT>
0

>  <SCORE.INTER.SOLV>
11.0008

>  <SCORE.INTER.VDW>
-13.5677

>  <SCORE.INTER.norm>
-0.859194

>  <SCORE.INTRA>
0

>  <SCORE.INTRA.DIHEDRAL>
0

>  <SCORE.INTRA.DIHEDRAL.0>
0

>  <SCORE.INTRA.POLAR>
0

>  <SCORE.INTRA.POLAR.0>
0

>  <SCORE.INTRA.REPUL>
0

>  <SCORE.INTRA.REPUL.0>
0

>  <SCORE.INTRA.SOLV>
0

>  <SCORE.INTRA.SOLV.lig_0>
-49.4056

>  <SCORE.INTRA.VDW>
0

>  <SCORE.INTRA.VDW.0>
0

>  <SCORE.INTRA.norm>
0

>  <SCORE.RESTR>
0

>  <SCORE.RESTR.CAVITY>
0

>  <SCORE.RESTR.norm>
0

>  <SCORE.SYSTEM>
0

>  <SCORE.SYSTEM.CONST>
0

>  <SCORE.SYSTEM.DIHEDRAL>
0

>  <SCORE.SYSTEM.SOLV>
0

>  <SCORE.SYSTEM.norm>
0

>  <SCORE.heavy>
11

>  <SCORE.norm>
-0.859194

>  <RMSD>
2.795

$$$$
ligand
 OpenBabel11021811503D
libRbt.so/2013.1/901 2013/11/27
 11 12  0  0  0  0  0  0  0  0999 V2000
    3.7378  -20.3788   25.2975 N   0  0  0  0  0  0  0  0  0  0  0  0
    3.1521  -20.6126   24.0971 C   0  0  0  0  0  0  0  0  0  0  0  0
    3.9145  -20.5550   22.8857 N   0  0  0  0  0  0  0  0  0  0  0  0
    1.8404  -20.8983   24.0156 N   0  0  0  0  0  0  0  0  0  0  0  0
    1.0535  -20.9688   25.1432 C   0  0  0  0  0  0  0  0  0  0  0  0
    1.6240  -20.7321   26.3805 C   0  0  0  0  0  0  0  0  0  0  0  0
    3.0163  -20.4256   26.4387 C   0  0  0  0  0  0  0  0  0  0  0  0
    3.6385  -20.1730   27.7024 N   0  0  0  0  0  0  0  0  0  0  0  0
    0.6142  -20.8646   27.3147 N   0  0  0  0  0  0  0  0  0  0  0  0
   -0.5340  -21.1647   26.6751 C   0  0  0  0  0  0  0  0  0  0  0  0
   -0.2933  -21.2324   25.3505 N   0  0  0  0  0  0  0  0  0  0  0  0
  1  7  2  0  0  0  0
  1  2  1  0  0  0  0
  2  3  1  0  0  0  0
  2  4  2  0  0  0  0
  4  5  1  0  0  0  0
  5  6  2  0  0  0  0
  5 11  1  0  0  0  0
  6  7  1  0  0  0  0
  6  9  1  0  0  0  0
  7  8  1  0  0  0  0
  9 10  1  0  0  0  0
 10 11  2  0  0  0  0
M  END
>  <CHROM.1>
2.00043382,-20.72414183,25.56076874,-0.61478442,0.21056568,1.47979906

>  <Name>
ligand

>  <RI>
0

>  <Rbt.Current_Directory>
/home/itssahil/PROJECTS/Mol_Feturizer/New_Systems/rnas/4LVZ

>  <Rbt.Executable>
rbdock ($Id: //depot/dev/client3/rdock/2013.1/src/exe/rbdock.cxx#4 $)

>  <Rbt.Library>
libRbt.so (2013.1, Build901 2013/11/27)

>  <Rbt.Parameter_File>
/export/apps/rDock/src/rDock_2013.1_src/data/scripts/dock_solv.prm

>  <Rbt.Receptor>
prm/pocket_docking_5.prm

>  <SCORE>
-9.48812

>  <SCORE.INTER>
-9.48812

>  <SCORE.INTER.CONST>
1

>  <SCORE.INTER.POLAR>
0

>  <SCORE.INTER.ROT>
0

>  <SCORE.INTER.SOLV>
11.2083

>  <SCORE.INTER.VDW>
-13.6615

>  <SCORE.INTER.norm>
-0.862556

>  <SCORE.INTRA>
0

>  <SCORE.INTRA.DIHEDRAL>
0

>  <SCORE.INTRA.DIHEDRAL.0>
0

>  <SCORE.INTRA.POLAR>
0

>  <SCORE.INTRA.POLAR.0>
0

>  <SCORE.INTRA.REPUL>
0

>  <SCORE.INTRA.REPUL.0>
0

>  <SCORE.INTRA.SOLV>
0

>  <SCORE.INTRA.SOLV.lig_0>
-49.4056

>  <SCORE.INTRA.VDW>
0

>  <SCORE.INTRA.VDW.0>
0

>  <SCORE.INTRA.norm>
0

>  <SCORE.RESTR>
0

>  <SCORE.RESTR.CAVITY>
0

>  <SCORE.RESTR.norm>
0

>  <SCORE.SYSTEM>
0

>  <SCORE.SYSTEM.CONST>
0

>  <SCORE.SYSTEM.DIHEDRAL>
0

>  <SCORE.SYSTEM.SOLV>
0

>  <SCORE.SYSTEM.norm>
0

>  <SCORE.heavy>
11

>  <SCORE.norm>
-0.862556

>  <RMSD>
2.795

$$$$
ligand
 OpenBabel11021811503D
libRbt.so/2013.1/901 2013/11/27
 11 12  0  0  0  0  0  0  0  0999 V2000
    3.7351  -20.3706   25.2947 N   0  0  0  0  0  0  0  0  0  0  0  0
    3.1500  -20.6095   24.0951 C   0  0  0  0  0  0  0  0  0  0  0  0
    3.9121  -20.5535   22.8835 N   0  0  0  0  0  0  0  0  0  0  0  0
    1.8390  -20.8989   24.0145 N   0  0  0  0  0  0  0  0  0  0  0  0
    1.0524  -20.9683   25.1424 C   0  0  0  0  0  0  0  0  0  0  0  0
    1.6223  -20.7264   26.3790 C   0  0  0  0  0  0  0  0  0  0  0  0
    3.0137  -20.4160   26.4361 C   0  0  0  0  0  0  0  0  0  0  0  0
    3.6354  -20.1581   27.6991 N   0  0  0  0  0  0  0  0  0  0  0  0
    0.6129  -20.8588   27.3136 N   0  0  0  0  0  0  0  0  0  0  0  0
   -0.5345  -21.1639   26.6749 C   0  0  0  0  0  0  0  0  0  0  0  0
   -0.2937  -21.2349   25.3505 N   0  0  0  0  0  0  0  0  0  0  0  0
  1  7  2  0  0  0  0
  1  2  1  0  0  0  0
  2  3  1  0  0  0  0
  2  4  2  0  0  0  0
  4  5  1  0  0  0  0
  5  6  2  0  0  0  0
  5 11  1  0  0  0  0
  6  7  1  0  0  0  0
  6  9  1  0  0  0  0
  7  8  1  0  0  0  0
  9 10  1  0  0  0  0
 10 11  2  0  0  0  0
M  END
>  <CHROM.1>
1.99866744,-20.71984098,25.55915769,-0.61458622,0.21323582,1.47682353

>  <Name>
ligand

>  <RI>
0

>  <Rbt.Current_Directory>
/home/itssahil/PROJECTS/Mol_Feturizer/New_Systems/rnas/4LVZ

>  <Rbt.Executable>
rbdock ($Id: //depot/dev/client3/rdock/2013.1/src/exe/rbdock.cxx#4 $)

>  <Rbt.Library>
libRbt.so (2013.1, Build901 2013/11/27)

>  <Rbt.Parameter_File>
/export/apps/rDock/src/rDock_2013.1_src/data/scripts/dock_solv.prm

>  <Rbt.Receptor>
prm/pocket_docking_5.prm

>  <SCORE>
-9.48362

>  <SCORE.INTER>
-9.48362

>  <SCORE.INTER.CONST>
1

>  <SCORE.INTER.POLAR>
0

>  <SCORE.INTER.ROT>
0

>  <SCORE.INTER.SOLV>
11.243

>  <SCORE.INTER.VDW>
-13.6701

>  <SCORE.INTER.norm>
-0.862148

>  <SCORE.INTRA>
0

>  <SCORE.INTRA.DIHEDRAL>
0

>  <SCORE.INTRA.DIHEDRAL.0>
0

>  <SCORE.INTRA.POLAR>
0

>  <SCORE.INTRA.POLAR.0>
0

>  <SCORE.INTRA.REPUL>
0

>  <SCORE.INTRA.REPUL.0>
0

>  <SCORE.INTRA.SOLV>
0

>  <SCORE.INTRA.SOLV.lig_0>
-49.4056

>  <SCORE.INTRA.VDW>
0

>  <SCORE.INTRA.VDW.0>
0

>  <SCORE.INTRA.norm>
0

>  <SCORE.RESTR>
0

>  <SCORE.RESTR.CAVITY>
0

>  <SCORE.RESTR.norm>
0

>  <SCORE.SYSTEM>
0

>  <SCORE.SYSTEM.CONST>
0

>  <SCORE.SYSTEM.DIHEDRAL>
0

>  <SCORE.SYSTEM.SOLV>
0

>  <SCORE.SYSTEM.norm>
0

>  <SCORE.heavy>
11

>  <SCORE.norm>
-0.862148

>  <RMSD>
2.795

$$$$
ligand
 OpenBabel11021811503D
libRbt.so/2013.1/901 2013/11/27
 11 12  0  0  0  0  0  0  0  0999 V2000
    3.7380  -20.3841   25.2996 N   0  0  0  0  0  0  0  0  0  0  0  0
    3.1514  -20.6202   24.1001 C   0  0  0  0  0  0  0  0  0  0  0  0
    3.9107  -20.5550   22.8872 N   0  0  0  0  0  0  0  0  0  0  0  0
    1.8416  -20.9151   24.0210 N   0  0  0  0  0  0  0  0  0  0  0  0
    1.0577  -20.9933   25.1502 C   0  0  0  0  0  0  0  0  0  0  0  0
    1.6291  -20.7546   26.3866 C   0  0  0  0  0  0  0  0  0  0  0  0
    3.0193  -20.4381   26.4423 C   0  0  0  0  0  0  0  0  0  0  0  0
    3.6424  -20.1833   27.7051 N   0  0  0  0  0  0  0  0  0  0  0  0
    0.6224  -20.8960   27.3228 N   0  0  0  0  0  0  0  0  0  0  0  0
   -0.5250  -21.2033   26.6851 C   0  0  0  0  0  0  0  0  0  0  0  0
   -0.2867  -21.2670   25.3599 N   0  0  0  0  0  0  0  0  0  0  0  0
  1  7  2  0  0  0  0
  1  2  1  0  0  0  0
  2  3  1  0  0  0  0
  2  4  2  0  0  0  0
  4  5  1  0  0  0  0
  5  6  2  0  0  0  0
  5 11  1  0  0  0  0
  6  7  1  0  0  0  0
  6  9  1  0  0  0  0
  7  8  1  0  0  0  0
  9 10  1  0  0  0  0
 10 11  2  0  0  0  0
M  END
>  <CHROM.1>
2.00374054,-20.74251774,25.56607205,-0.61633601,0.21795877,1.48185055

>  <Name>
ligand

>  <RI>
0

>  <Rbt.Current_Directory>
/home/itssahil/PROJECTS/Mol_Feturizer/New_Systems/rnas/4LVZ

>  <Rbt.Executable>
rbdock ($Id: //depot/dev/client3/rdock/2013.1/src/exe/rbdock.cxx#4 $)

>  <Rbt.Library>
libRbt.so (2013.1, Build901 2013/11/27)

>  <Rbt.Parameter_File>
/export/apps/rDock/src/rDock_2013.1_src/data/scripts/dock_solv.prm

>  <Rbt.Receptor>
prm/pocket_docking_7.prm

>  <SCORE>
-9.42912

>  <SCORE.INTER>
-9.42912

>  <SCORE.INTER.CONST>
1

>  <SCORE.INTER.POLAR>
0

>  <SCORE.INTER.ROT>
0

>  <SCORE.INTER.SOLV>
11.2078

>  <SCORE.INTER.VDW>
-13.622

>  <SCORE.INTER.norm>
-0.857192

>  <SCORE.INTRA>
0

>  <SCORE.INTRA.DIHEDRAL>
0

>  <SCORE.INTRA.DIHEDRAL.0>
0

>  <SCORE.INTRA.POLAR>
0

>  <SCORE.INTRA.POLAR.0>
0

>  <SCORE.INTRA.REPUL>
0

>  <SCORE.INTRA.REPUL.0>
0

>  <SCORE.INTRA.SOLV>
0

>  <SCORE.INTRA.SOLV.lig_0>
-49.4056

>  <SCORE.INTRA.VDW>
0

>  <SCORE.INTRA.VDW.0>
0

>  <SCORE.INTRA.norm>
0

>  <SCORE.RESTR>
0

>  <SCORE.RESTR.CAVITY>
0

>  <SCORE.RESTR.norm>
0

>  <SCORE.SYSTEM>
0

>  <SCORE.SYSTEM.CONST>
0

>  <SCORE.SYSTEM.DIHEDRAL>
0

>  <SCORE.SYSTEM.SOLV>
0

>  <SCORE.SYSTEM.norm>
0

>  <SCORE.heavy>
11

>  <SCORE.norm>
-0.857192

>  <RMSD>
2.795

$$$$
ligand
 OpenBabel11021811503D
libRbt.so/2013.1/901 2013/11/27
 11 12  0  0  0  0  0  0  0  0999 V2000
    3.6486  -20.3597   25.2928 N   0  0  0  0  0  0  0  0  0  0  0  0
    3.0414  -20.5899   24.1024 C   0  0  0  0  0  0  0  0  0  0  0  0
    3.7736  -20.4929   22.8751 N   0  0  0  0  0  0  0  0  0  0  0  0
    1.7361  -20.9088   24.0462 N   0  0  0  0  0  0  0  0  0  0  0  0
    0.9778  -21.0180   25.1902 C   0  0  0  0  0  0  0  0  0  0  0  0
    1.5705  -20.7860   26.4179 C   0  0  0  0  0  0  0  0  0  0  0  0
    2.9553  -20.4437   26.4492 C   0  0  0  0  0  0  0  0  0  0  0  0
    3.5999  -20.1949   27.7024 N   0  0  0  0  0  0  0  0  0  0  0  0
    0.5865  -20.9599   27.3726 N   0  0  0  0  0  0  0  0  0  0  0  0
   -0.5680  -21.2802   26.7544 C   0  0  0  0  0  0  0  0  0  0  0  0
   -0.3566  -21.3204   25.4238 N   0  0  0  0  0  0  0  0  0  0  0  0
  1  7  2  0  0  0  0
  1  2  1  0  0  0  0
  2  3  1  0  0  0  0
  2  4  2  0  0  0  0
  4  5  1  0  0  0  0
  5  6  2  0  0  0  0
  5 11  1  0  0  0  0
  6  7  1  0  0  0  0
  6  9  1  0  0  0  0
  7  8  1  0  0  0  0
  9 10  1  0  0  0  0
 10 11  2  0  0  0  0
M  END
>  <CHROM.1>
1.92742594,-20.75504512,25.58997132,-0.63618532,0.23860500,1.50074964

>  <Name>
ligand

>  <RI>
0

>  <Rbt.Current_Directory>
/home/itssahil/PROJECTS/Mol_Feturizer/New_Systems/rnas/4LVZ

>  <Rbt.Executable>
rbdock ($Id: //depot/dev/client3/rdock/2013.1/src/exe/rbdock.cxx#4 $)

>  <Rbt.Library>
libRbt.so (2013.1, Build901 2013/11/27)

>  <Rbt.Parameter_File>
/export/apps/rDock/src/rDock_2013.1_src/data/scripts/dock_solv.prm

>  <Rbt.Receptor>
prm/pocket_docking_4.prm

>  <SCORE>
-9.43166

>  <SCORE.INTER>
-9.43166

>  <SCORE.INTER.CONST>
1

>  <SCORE.INTER.POLAR>
0

>  <SCORE.INTER.ROT>
0

>  <SCORE.INTER.SOLV>
11.886

>  <SCORE.INTER.VDW>
-13.8498

>  <SCORE.INTER.norm>
-0.857424

>  <SCORE.INTRA>
0

>  <SCORE.INTRA.DIHEDRAL>
0

>  <SCORE.INTRA.DIHEDRAL.0>
0

>  <SCORE.INTRA.POLAR>
0

>  <SCORE.INTRA.POLAR.0>
0

>  <SCORE.INTRA.REPUL>
0

>  <SCORE.INTRA.REPUL.0>
0

>  <SCORE.INTRA.SOLV>
0

>  <SCORE.INTRA.SOLV.lig_0>
-49.4056

>  <SCORE.INTRA.VDW>
0

>  <SCORE.INTRA.VDW.0>
0

>  <SCORE.INTRA.norm>
0

>  <SCORE.RESTR>
0

>  <SCORE.RESTR.CAVITY>
0

>  <SCORE.RESTR.norm>
0

>  <SCORE.SYSTEM>
0

>  <SCORE.SYSTEM.CONST>
0

>  <SCORE.SYSTEM.DIHEDRAL>
0

>  <SCORE.SYSTEM.SOLV>
0

>  <SCORE.SYSTEM.norm>
0

>  <SCORE.heavy>
11

>  <SCORE.norm>
-0.857424

>  <RMSD>
2.796

$$$$
ligand
 OpenBabel11021811503D
libRbt.so/2013.1/901 2013/11/27
 11 12  0  0  0  0  0  0  0  0999 V2000
    3.7360  -20.4516   25.3571 N   0  0  0  0  0  0  0  0  0  0  0  0
    3.2076  -20.6695   24.1275 C   0  0  0  0  0  0  0  0  0  0  0  0
    4.0361  -20.6476   22.9591 N   0  0  0  0  0  0  0  0  0  0  0  0
    1.8922  -20.9053   23.9758 N   0  0  0  0  0  0  0  0  0  0  0  0
    1.0433  -20.9397   25.0593 C   0  0  0  0  0  0  0  0  0  0  0  0
    1.5546  -20.7182   26.3249 C   0  0  0  0  0  0  0  0  0  0  0  0
    2.9524  -20.4647   26.4575 C   0  0  0  0  0  0  0  0  0  0  0  0
    3.5146  -20.2292   27.7524 N   0  0  0  0  0  0  0  0  0  0  0  0
    0.4914  -20.8070   27.2033 N   0  0  0  0  0  0  0  0  0  0  0  0
   -0.6312  -21.0666   26.5032 C   0  0  0  0  0  0  0  0  0  0  0  0
   -0.3219  -21.1506   25.1940 N   0  0  0  0  0  0  0  0  0  0  0  0
  1  7  2  0  0  0  0
  1  2  1  0  0  0  0
  2  3  1  0  0  0  0
  2  4  2  0  0  0  0
  4  5  1  0  0  0  0
  5  6  2  0  0  0  0
  5 11  1  0  0  0  0
  6  7  1  0  0  0  0
  6  9  1  0  0  0  0
  7  8  1  0  0  0  0
  9 10  1  0  0  0  0
 10 11  2  0  0  0  0
M  END
>  <CHROM.1>
1.97492926,-20.72906158,25.52678030,-0.56360957,0.16715236,1.46579949

>  <Name>
ligand

>  <RI>
0

>  <Rbt.Current_Directory>
/home/itssahil/PROJECTS/Mol_Feturizer/New_Systems/rnas/4LVZ

>  <Rbt.Executable>
rbdock ($Id: //depot/dev/client3/rdock/2013.1/src/exe/rbdock.cxx#4 $)

>  <Rbt.Library>
libRbt.so (2013.1, Build901 2013/11/27)

>  <Rbt.Parameter_File>
/export/apps/rDock/src/rDock_2013.1_src/data/scripts/dock_solv.prm

>  <Rbt.Receptor>
prm/pocket_docking_6.prm

>  <SCORE>
-9.50948

>  <SCORE.INTER>
-9.50948

>  <SCORE.INTER.CONST>
1

>  <SCORE.INTER.POLAR>
0

>  <SCORE.INTER.ROT>
0

>  <SCORE.INTER.SOLV>
11.1208

>  <SCORE.INTER.VDW>
-13.6466

>  <SCORE.INTER.norm>
-0.864498

>  <SCORE.INTRA>
0

>  <SCORE.INTRA.DIHEDRAL>
0

>  <SCORE.INTRA.DIHEDRAL.0>
0

>  <SCORE.INTRA.POLAR>
0

>  <SCORE.INTRA.POLAR.0>
0

>  <SCORE.INTRA.REPUL>
0

>  <SCORE.INTRA.REPUL.0>
0

>  <SCORE.INTRA.SOLV>
0

>  <SCORE.INTRA.SOLV.lig_0>
-49.4056

>  <SCORE.INTRA.VDW>
0

>  <SCORE.INTRA.VDW.0>
0

>  <SCORE.INTRA.norm>
0

>  <SCORE.RESTR>
0

>  <SCORE.RESTR.CAVITY>
0

>  <SCORE.RESTR.norm>
0

>  <SCORE.SYSTEM>
0

>  <SCORE.SYSTEM.CONST>
0

>  <SCORE.SYSTEM.DIHEDRAL>
0

>  <SCORE.SYSTEM.SOLV>
0

>  <SCORE.SYSTEM.norm>
0

>  <SCORE.heavy>
11

>  <SCORE.norm>
-0.864498

>  <RMSD>
2.796

$$$$
ligand
 OpenBabel11021811503D
libRbt.so/2013.1/901 2013/11/27
 11 12  0  0  0  0  0  0  0  0999 V2000
    3.7122  -20.3455   25.3428 N   0  0  0  0  0  0  0  0  0  0  0  0
    3.1893  -20.6432   24.1277 C   0  0  0  0  0  0  0  0  0  0  0  0
    4.0155  -20.6580   22.9576 N   0  0  0  0  0  0  0  0  0  0  0  0
    1.8814  -20.9258   23.9920 N   0  0  0  0  0  0  0  0  0  0  0  0
    1.0351  -20.9286   25.0780 C   0  0  0  0  0  0  0  0  0  0  0  0
    1.5408  -20.6258   26.3290 C   0  0  0  0  0  0  0  0  0  0  0  0
    2.9306  -20.3241   26.4445 C   0  0  0  0  0  0  0  0  0  0  0  0
    3.4868  -20.0044   27.7237 N   0  0  0  0  0  0  0  0  0  0  0  0
    0.4817  -20.7000   27.2136 N   0  0  0  0  0  0  0  0  0  0  0  0
   -0.6334  -21.0293   26.5310 C   0  0  0  0  0  0  0  0  0  0  0  0
   -0.3231  -21.1727   25.2271 N   0  0  0  0  0  0  0  0  0  0  0  0
  1  7  2  0  0  0  0
  1  2  1  0  0  0  0
  2  3  1  0  0  0  0
  2  4  2  0  0  0  0
  4  5  1  0  0  0  0
  5  6  2  0  0  0  0
  5 11  1  0  0  0  0
  6  7  1  0  0  0  0
  6  9  1  0  0  0  0
  7  8  1  0  0  0  0
  9 10  1  0  0  0  0
 10 11  2  0  0  0  0
M  END
>  <CHROM.1>
1.96045168,-20.66598885,25.53139152,-0.56147847,0.19697670,1.41294015

>  <Name>
ligand

>  <RI>
0

>  <Rbt.Current_Directory>
/home/itssahil/PROJECTS/Mol_Feturizer/New_Systems/rnas/4LVZ

>  <Rbt.Executable>
rbdock ($Id: //depot/dev/client3/rdock/2013.1/src/exe/rbdock.cxx#4 $)

>  <Rbt.Library>
libRbt.so (2013.1, Build901 2013/11/27)

>  <Rbt.Parameter_File>
/export/apps/rDock/src/rDock_2013.1_src/data/scripts/dock_solv.prm

>  <Rbt.Receptor>
prm/pocket_docking_7.prm

>  <SCORE>
-9.39338

>  <SCORE.INTER>
-9.39338

>  <SCORE.INTER.CONST>
1

>  <SCORE.INTER.POLAR>
0

>  <SCORE.INTER.ROT>
0

>  <SCORE.INTER.SOLV>
11.5903

>  <SCORE.INTER.VDW>
-13.7257

>  <SCORE.INTER.norm>
-0.853944

>  <SCORE.INTRA>
0

>  <SCORE.INTRA.DIHEDRAL>
0

>  <SCORE.INTRA.DIHEDRAL.0>
0

>  <SCORE.INTRA.POLAR>
0

>  <SCORE.INTRA.POLAR.0>
0

>  <SCORE.INTRA.REPUL>
0

>  <SCORE.INTRA.REPUL.0>
0

>  <SCORE.INTRA.SOLV>
0

>  <SCORE.INTRA.SOLV.lig_0>
-49.4056

>  <SCORE.INTRA.VDW>
0

>  <SCORE.INTRA.VDW.0>
0

>  <SCORE.INTRA.norm>
0

>  <SCORE.RESTR>
0

>  <SCORE.RESTR.CAVITY>
0

>  <SCORE.RESTR.norm>
0

>  <SCORE.SYSTEM>
0

>  <SCORE.SYSTEM.CONST>
0

>  <SCORE.SYSTEM.DIHEDRAL>
0

>  <SCORE.SYSTEM.SOLV>
0

>  <SCORE.SYSTEM.norm>
0

>  <SCORE.heavy>
11

>  <SCORE.norm>
-0.853944

>  <RMSD>
2.796

$$$$
ligand
 OpenBabel11021811503D
libRbt.so/2013.1/901 2013/11/27
 11 12  0  0  0  0  0  0  0  0999 V2000
    3.7471  -20.4486   25.3409 N   0  0  0  0  0  0  0  0  0  0  0  0
    3.2105  -20.6631   24.1143 C   0  0  0  0  0  0  0  0  0  0  0  0
    4.0303  -20.6331   22.9400 N   0  0  0  0  0  0  0  0  0  0  0  0
    1.8949  -20.9030   23.9712 N   0  0  0  0  0  0  0  0  0  0  0  0
    1.0541  -20.9451   25.0607 C   0  0  0  0  0  0  0  0  0  0  0  0
    1.5738  -20.7272   26.3235 C   0  0  0  0  0  0  0  0  0  0  0  0
    2.9717  -20.4692   26.4470 C   0  0  0  0  0  0  0  0  0  0  0  0
    3.5425  -20.2373   27.7387 N   0  0  0  0  0  0  0  0  0  0  0  0
    0.5175  -20.8236   27.2093 N   0  0  0  0  0  0  0  0  0  0  0  0
   -0.6093  -21.0843   26.5163 C   0  0  0  0  0  0  0  0  0  0  0  0
   -0.3093  -21.1615   25.2045 N   0  0  0  0  0  0  0  0  0  0  0  0
  1  7  2  0  0  0  0
  1  2  1  0  0  0  0
  2  3  1  0  0  0  0
  2  4  2  0  0  0  0
  4  5  1  0  0  0  0
  5  6  2  0  0  0  0
  5 11  1  0  0  0  0
  6  7  1  0  0  0  0
  6  9  1  0  0  0  0
  7  8  1  0  0  0  0
  9 10  1  0  0  0  0
 10 11  2  0  0  0  0
M  END
>  <CHROM.1>
1.98835658,-20.73311854,25.52230618,-0.57063084,0.17147107,1.47130492

>  <Name>
ligand

>  <RI>
0

>  <Rbt.Current_Directory>
/home/itssahil/PROJECTS/Mol_Feturizer/New_Systems/rnas/4LVZ

>  <Rbt.Executable>
rbdock ($Id: //depot/dev/client3/rdock/2013.1/src/exe/rbdock.cxx#4 $)

>  <Rbt.Library>
libRbt.so (2013.1, Build901 2013/11/27)

>  <Rbt.Parameter_File>
/export/apps/rDock/src/rDock_2013.1_src/data/scripts/dock_solv.prm

>  <Rbt.Receptor>
prm/pocket_docking_7.prm

>  <SCORE>
-9.50522

>  <SCORE.INTER>
-9.50522

>  <SCORE.INTER.CONST>
1

>  <SCORE.INTER.POLAR>
0

>  <SCORE.INTER.ROT>
0

>  <SCORE.INTER.SOLV>
11.0201

>  <SCORE.INTER.VDW>
-13.6102

>  <SCORE.INTER.norm>
-0.864111

>  <SCORE.INTRA>
0

>  <SCORE.INTRA.DIHEDRAL>
0

>  <SCORE.INTRA.DIHEDRAL.0>
0

>  <SCORE.INTRA.POLAR>
0

>  <SCORE.INTRA.POLAR.0>
0

>  <SCORE.INTRA.REPUL>
0

>  <SCORE.INTRA.REPUL.0>
0

>  <SCORE.INTRA.SOLV>
0

>  <SCORE.INTRA.SOLV.lig_0>
-49.4056

>  <SCORE.INTRA.VDW>
0

>  <SCORE.INTRA.VDW.0>
0

>  <SCORE.INTRA.norm>
0

>  <SCORE.RESTR>
0

>  <SCORE.RESTR.CAVITY>
0

>  <SCORE.RESTR.norm>
0

>  <SCORE.SYSTEM>
0

>  <SCORE.SYSTEM.CONST>
0

>  <SCORE.SYSTEM.DIHEDRAL>
0

>  <SCORE.SYSTEM.SOLV>
0

>  <SCORE.SYSTEM.norm>
0

>  <SCORE.heavy>
11

>  <SCORE.norm>
-0.864111

>  <RMSD>
2.797

$$$$
ligand
 OpenBabel11021811503D
libRbt.so/2013.1/901 2013/11/27
 11 12  0  0  0  0  0  0  0  0999 V2000
    3.7282  -20.3947   25.2884 N   0  0  0  0  0  0  0  0  0  0  0  0
    3.1452  -20.6174   24.0846 C   0  0  0  0  0  0  0  0  0  0  0  0
    3.9131  -20.5613   22.8766 N   0  0  0  0  0  0  0  0  0  0  0  0
    1.8312  -20.8902   23.9964 N   0  0  0  0  0  0  0  0  0  0  0  0
    1.0391  -20.9586   25.1205 C   0  0  0  0  0  0  0  0  0  0  0  0
    1.6067  -20.7331   26.3612 C   0  0  0  0  0  0  0  0  0  0  0  0
    3.0016  -20.4401   26.4264 C   0  0  0  0  0  0  0  0  0  0  0  0
    3.6209  -20.1994   27.6939 N   0  0  0  0  0  0  0  0  0  0  0  0
    0.5919  -20.8604   27.2906 N   0  0  0  0  0  0  0  0  0  0  0  0
   -0.5565  -21.1466   26.6449 C   0  0  0  0  0  0  0  0  0  0  0  0
   -0.3110  -21.2103   25.3210 N   0  0  0  0  0  0  0  0  0  0  0  0
  1  7  2  0  0  0  0
  1  2  1  0  0  0  0
  2  3  1  0  0  0  0
  2  4  2  0  0  0  0
  4  5  1  0  0  0  0
  5  6  2  0  0  0  0
  5 11  1  0  0  0  0
  6  7  1  0  0  0  0
  6  9  1  0  0  0  0
  7  8  1  0  0  0  0
  9 10  1  0  0  0  0
 10 11  2  0  0  0  0
M  END
>  <CHROM.1>
1.98655390,-20.72484449,25.54300704,-0.61148695,0.20075739,1.48385578

>  <Name>
ligand

>  <RI>
0

>  <Rbt.Current_Directory>
/home/itssahil/PROJECTS/Mol_Feturizer/New_Systems/rnas/4LVZ

>  <Rbt.Executable>
rbdock ($Id: //depot/dev/client3/rdock/2013.1/src/exe/rbdock.cxx#4 $)

>  <Rbt.Library>
libRbt.so (2013.1, Build901 2013/11/27)

>  <Rbt.Parameter_File>
/export/apps/rDock/src/rDock_2013.1_src/data/scripts/dock_solv.prm

>  <Rbt.Receptor>
prm/pocket_docking_6.prm

>  <SCORE>
-9.4586

>  <SCORE.INTER>
-9.4586

>  <SCORE.INTER.CONST>
1

>  <SCORE.INTER.POLAR>
0

>  <SCORE.INTER.ROT>
0

>  <SCORE.INTER.SOLV>
11.2206

>  <SCORE.INTER.VDW>
-13.6459

>  <SCORE.INTER.norm>
-0.859873

>  <SCORE.INTRA>
0

>  <SCORE.INTRA.DIHEDRAL>
0

>  <SCORE.INTRA.DIHEDRAL.0>
0

>  <SCORE.INTRA.POLAR>
0

>  <SCORE.INTRA.POLAR.0>
0

>  <SCORE.INTRA.REPUL>
0

>  <SCORE.INTRA.REPUL.0>
0

>  <SCORE.INTRA.SOLV>
0

>  <SCORE.INTRA.SOLV.lig_0>
-49.4056

>  <SCORE.INTRA.VDW>
0

>  <SCORE.INTRA.VDW.0>
0

>  <SCORE.INTRA.norm>
0

>  <SCORE.RESTR>
0

>  <SCORE.RESTR.CAVITY>
0

>  <SCORE.RESTR.norm>
0

>  <SCORE.SYSTEM>
0

>  <SCORE.SYSTEM.CONST>
0

>  <SCORE.SYSTEM.DIHEDRAL>
0

>  <SCORE.SYSTEM.SOLV>
0

>  <SCORE.SYSTEM.norm>
0

>  <SCORE.heavy>
11

>  <SCORE.norm>
-0.859873

>  <RMSD>
2.798

$$$$
ligand
 OpenBabel11021811503D
libRbt.so/2013.1/901 2013/11/27
 11 12  0  0  0  0  0  0  0  0999 V2000
    3.7723  -20.4035   25.2952 N   0  0  0  0  0  0  0  0  0  0  0  0
    3.1910  -20.6466   24.0946 C   0  0  0  0  0  0  0  0  0  0  0  0
    3.9609  -20.6134   22.8870 N   0  0  0  0  0  0  0  0  0  0  0  0
    1.8767  -20.9187   24.0091 N   0  0  0  0  0  0  0  0  0  0  0  0
    1.0826  -20.9658   25.1328 C   0  0  0  0  0  0  0  0  0  0  0  0
    1.6485  -20.7192   26.3703 C   0  0  0  0  0  0  0  0  0  0  0  0
    3.0438  -20.4274   26.4326 C   0  0  0  0  0  0  0  0  0  0  0  0
    3.6615  -20.1652   27.6966 N   0  0  0  0  0  0  0  0  0  0  0  0
    0.6320  -20.8282   27.3001 N   0  0  0  0  0  0  0  0  0  0  0  0
   -0.5158  -21.1240   26.6577 C   0  0  0  0  0  0  0  0  0  0  0  0
   -0.2683  -21.2117   25.3356 N   0  0  0  0  0  0  0  0  0  0  0  0
  1  7  2  0  0  0  0
  1  2  1  0  0  0  0
  2  3  1  0  0  0  0
  2  4  2  0  0  0  0
  4  5  1  0  0  0  0
  5  6  2  0  0  0  0
  5 11  1  0  0  0  0
  6  7  1  0  0  0  0
  6  9  1  0  0  0  0
  7  8  1  0  0  0  0
  9 10  1  0  0  0  0
 10 11  2  0  0  0  0
M  END
>  <CHROM.1>
2.02972504,-20.72616622,25.55271639,-0.60996582,0.19891729,1.46574723

>  <Name>
ligand

>  <RI>
0

>  <Rbt.Current_Directory>
/home/itssahil/PROJECTS/Mol_Feturizer/New_Systems/rnas/4LVZ

>  <Rbt.Executable>
rbdock ($Id: //depot/dev/client3/rdock/2013.1/src/exe/rbdock.cxx#4 $)

>  <Rbt.Library>
libRbt.so (2013.1, Build901 2013/11/27)

>  <Rbt.Parameter_File>
/export/apps/rDock/src/rDock_2013.1_src/data/scripts/dock_solv.prm

>  <Rbt.Receptor>
prm/pocket_docking_7.prm

>  <SCORE>
-9.44791

>  <SCORE.INTER>
-9.44791

>  <SCORE.INTER.CONST>
1

>  <SCORE.INTER.POLAR>
0

>  <SCORE.INTER.ROT>
0

>  <SCORE.INTER.SOLV>
10.9816

>  <SCORE.INTER.VDW>
-13.5591

>  <SCORE.INTER.norm>
-0.858901

>  <SCORE.INTRA>
0

>  <SCORE.INTRA.DIHEDRAL>
0

>  <SCORE.INTRA.DIHEDRAL.0>
0

>  <SCORE.INTRA.POLAR>
0

>  <SCORE.INTRA.POLAR.0>
0

>  <SCORE.INTRA.REPUL>
0

>  <SCORE.INTRA.REPUL.0>
0

>  <SCORE.INTRA.SOLV>
0

>  <SCORE.INTRA.SOLV.lig_0>
-49.4056

>  <SCORE.INTRA.VDW>
0

>  <SCORE.INTRA.VDW.0>
0

>  <SCORE.INTRA.norm>
0

>  <SCORE.RESTR>
0

>  <SCORE.RESTR.CAVITY>
0

>  <SCORE.RESTR.norm>
0

>  <SCORE.SYSTEM>
0

>  <SCORE.SYSTEM.CONST>
0

>  <SCORE.SYSTEM.DIHEDRAL>
0

>  <SCORE.SYSTEM.SOLV>
0

>  <SCORE.SYSTEM.norm>
0

>  <SCORE.heavy>
11

>  <SCORE.norm>
-0.858901

>  <RMSD>
2.799

$$$$
ligand
 OpenBabel11021811503D
libRbt.so/2013.1/901 2013/11/27
 11 12  0  0  0  0  0  0  0  0999 V2000
    3.7705  -20.3946   25.2936 N   0  0  0  0  0  0  0  0  0  0  0  0
    3.1916  -20.6424   24.0927 C   0  0  0  0  0  0  0  0  0  0  0  0
    3.9628  -20.6083   22.8860 N   0  0  0  0  0  0  0  0  0  0  0  0
    1.8785  -20.9201   24.0063 N   0  0  0  0  0  0  0  0  0  0  0  0
    1.0833  -20.9683   25.1292 C   0  0  0  0  0  0  0  0  0  0  0  0
    1.6468  -20.7169   26.3668 C   0  0  0  0  0  0  0  0  0  0  0  0
    3.0408  -20.4192   26.4302 C   0  0  0  0  0  0  0  0  0  0  0  0
    3.6559  -20.1520   27.6944 N   0  0  0  0  0  0  0  0  0  0  0  0
    0.6297  -20.8283   27.2957 N   0  0  0  0  0  0  0  0  0  0  0  0
   -0.5162  -21.1301   26.6525 C   0  0  0  0  0  0  0  0  0  0  0  0
   -0.2667  -21.2194   25.3309 N   0  0  0  0  0  0  0  0  0  0  0  0
  1  7  2  0  0  0  0
  1  2  1  0  0  0  0
  2  3  1  0  0  0  0
  2  4  2  0  0  0  0
  4  5  1  0  0  0  0
  5  6  2  0  0  0  0
  5 11  1  0  0  0  0
  6  7  1  0  0  0  0
  6  9  1  0  0  0  0
  7  8  1  0  0  0  0
  9 10  1  0  0  0  0
 10 11  2  0  0  0  0
M  END
>  <CHROM.1>
2.02901402,-20.72390204,25.54970734,-0.60834492,0.20292653,1.46345072

>  <Name>
ligand

>  <RI>
0

>  <Rbt.Current_Directory>
/home/itssahil/PROJECTS/Mol_Feturizer/New_Systems/rnas/4LVZ

>  <Rbt.Executable>
rbdock ($Id: //depot/dev/client3/rdock/2013.1/src/exe/rbdock.cxx#4 $)

>  <Rbt.Library>
libRbt.so (2013.1, Build901 2013/11/27)

>  <Rbt.Parameter_File>
/export/apps/rDock/src/rDock_2013.1_src/data/scripts/dock_solv.prm

>  <Rbt.Receptor>
prm/pocket_docking_8.prm

>  <SCORE>
-9.45003

>  <SCORE.INTER>
-9.45003

>  <SCORE.INTER.CONST>
1

>  <SCORE.INTER.POLAR>
0

>  <SCORE.INTER.ROT>
0

>  <SCORE.INTER.SOLV>
10.998

>  <SCORE.INTER.VDW>
-13.566

>  <SCORE.INTER.norm>
-0.859094

>  <SCORE.INTRA>
0

>  <SCORE.INTRA.DIHEDRAL>
0

>  <SCORE.INTRA.DIHEDRAL.0>
0

>  <SCORE.INTRA.POLAR>
0

>  <SCORE.INTRA.POLAR.0>
0

>  <SCORE.INTRA.REPUL>
0

>  <SCORE.INTRA.REPUL.0>
0

>  <SCORE.INTRA.SOLV>
0

>  <SCORE.INTRA.SOLV.lig_0>
-49.4056

>  <SCORE.INTRA.VDW>
0

>  <SCORE.INTRA.VDW.0>
0

>  <SCORE.INTRA.norm>
0

>  <SCORE.RESTR>
0

>  <SCORE.RESTR.CAVITY>
0

>  <SCORE.RESTR.norm>
0

>  <SCORE.SYSTEM>
0

>  <SCORE.SYSTEM.CONST>
0

>  <SCORE.SYSTEM.DIHEDRAL>
0

>  <SCORE.SYSTEM.SOLV>
0

>  <SCORE.SYSTEM.norm>
0

>  <SCORE.heavy>
11

>  <SCORE.norm>
-0.859094

>  <RMSD>
2.799

$$$$
ligand
 OpenBabel11021811503D
libRbt.so/2013.1/901 2013/11/27
 11 12  0  0  0  0  0  0  0  0999 V2000
    3.7373  -20.3913   25.2775 N   0  0  0  0  0  0  0  0  0  0  0  0
    3.1474  -20.6224   24.0786 C   0  0  0  0  0  0  0  0  0  0  0  0
    3.9075  -20.5712   22.8655 N   0  0  0  0  0  0  0  0  0  0  0  0
    1.8336  -20.8993   24.0003 N   0  0  0  0  0  0  0  0  0  0  0  0
    1.0488  -20.9635   25.1297 C   0  0  0  0  0  0  0  0  0  0  0  0
    1.6235  -20.7293   26.3655 C   0  0  0  0  0  0  0  0  0  0  0  0
    3.0179  -20.4321   26.4203 C   0  0  0  0  0  0  0  0  0  0  0  0
    3.6446  -20.1824   27.6824 N   0  0  0  0  0  0  0  0  0  0  0  0
    0.6149  -20.8540   27.3020 N   0  0  0  0  0  0  0  0  0  0  0  0
   -0.5367  -21.1472   26.6652 C   0  0  0  0  0  0  0  0  0  0  0  0
   -0.2994  -21.2178   25.3402 N   0  0  0  0  0  0  0  0  0  0  0  0
  1  7  2  0  0  0  0
  1  2  1  0  0  0  0
  2  3  1  0  0  0  0
  2  4  2  0  0  0  0
  4  5  1  0  0  0  0
  5  6  2  0  0  0  0
  5 11  1  0  0  0  0
  6  7  1  0  0  0  0
  6  9  1  0  0  0  0
  7  8  1  0  0  0  0
  9 10  1  0  0  0  0
 10 11  2  0  0  0  0
M  END
>  <CHROM.1>
1.99821199,-20.72472575,25.54491483,-0.61761625,0.20408659,1.47934762

>  <Name>
ligand

>  <RI>
0

>  <Rbt.Current_Directory>
/home/itssahil/PROJECTS/Mol_Feturizer/New_Systems/rnas/4LVZ

>  <Rbt.Executable>
rbdock ($Id: //depot/dev/client3/rdock/2013.1/src/exe/rbdock.cxx#4 $)

>  <Rbt.Library>
libRbt.so (2013.1, Build901 2013/11/27)

>  <Rbt.Parameter_File>
/export/apps/rDock/src/rDock_2013.1_src/data/scripts/dock_solv.prm

>  <Rbt.Receptor>
prm/pocket_docking_4.prm

>  <SCORE>
-9.44983

>  <SCORE.INTER>
-9.44983

>  <SCORE.INTER.CONST>
1

>  <SCORE.INTER.POLAR>
0

>  <SCORE.INTER.ROT>
0

>  <SCORE.INTER.SOLV>
11.1839

>  <SCORE.INTER.VDW>
-13.6279

>  <SCORE.INTER.norm>
-0.859075

>  <SCORE.INTRA>
0

>  <SCORE.INTRA.DIHEDRAL>
0

>  <SCORE.INTRA.DIHEDRAL.0>
0

>  <SCORE.INTRA.POLAR>
0

>  <SCORE.INTRA.POLAR.0>
0

>  <SCORE.INTRA.REPUL>
0

>  <SCORE.INTRA.REPUL.0>
0

>  <SCORE.INTRA.SOLV>
0

>  <SCORE.INTRA.SOLV.lig_0>
-49.4056

>  <SCORE.INTRA.VDW>
0

>  <SCORE.INTRA.VDW.0>
0

>  <SCORE.INTRA.norm>
0

>  <SCORE.RESTR>
0

>  <SCORE.RESTR.CAVITY>
0

>  <SCORE.RESTR.norm>
0

>  <SCORE.SYSTEM>
0

>  <SCORE.SYSTEM.CONST>
0

>  <SCORE.SYSTEM.DIHEDRAL>
0

>  <SCORE.SYSTEM.SOLV>
0

>  <SCORE.SYSTEM.norm>
0

>  <SCORE.heavy>
11

>  <SCORE.norm>
-0.859075

>  <RMSD>
2.800

$$$$
ligand
 OpenBabel11021811503D
libRbt.so/2013.1/901 2013/11/27
 11 12  0  0  0  0  0  0  0  0999 V2000
    3.7409  -20.4655   25.3469 N   0  0  0  0  0  0  0  0  0  0  0  0
    3.2084  -20.6846   24.1192 C   0  0  0  0  0  0  0  0  0  0  0  0
    4.0340  -20.6700   22.9487 N   0  0  0  0  0  0  0  0  0  0  0  0
    1.8916  -20.9149   23.9716 N   0  0  0  0  0  0  0  0  0  0  0  0
    1.0453  -20.9422   25.0573 C   0  0  0  0  0  0  0  0  0  0  0  0
    1.5608  -20.7193   26.3210 C   0  0  0  0  0  0  0  0  0  0  0  0
    2.9601  -20.4718   26.4493 C   0  0  0  0  0  0  0  0  0  0  0  0
    3.5265  -20.2351   27.7420 N   0  0  0  0  0  0  0  0  0  0  0  0
    0.4994  -20.8006   27.2023 N   0  0  0  0  0  0  0  0  0  0  0  0
   -0.6261  -21.0572   26.5058 C   0  0  0  0  0  0  0  0  0  0  0  0
   -0.3205  -21.1465   25.1960 N   0  0  0  0  0  0  0  0  0  0  0  0
  1  7  2  0  0  0  0
  1  2  1  0  0  0  0
  2  3  1  0  0  0  0
  2  4  2  0  0  0  0
  4  5  1  0  0  0  0
  5  6  2  0  0  0  0
  5 11  1  0  0  0  0
  6  7  1  0  0  0  0
  6  9  1  0  0  0  0
  7  8  1  0  0  0  0
  9 10  1  0  0  0  0
 10 11  2  0  0  0  0
M  END
>  <CHROM.1>
1.97902081,-20.73442846,25.52181191,-0.56664737,0.16286499,1.46333795

>  <Name>
ligand

>  <RI>
0

>  <Rbt.Current_Directory>
/home/itssahil/PROJECTS/Mol_Feturizer/New_Systems/rnas/4LVZ

>  <Rbt.Executable>
rbdock ($Id: //depot/dev/client3/rdock/2013.1/src/exe/rbdock.cxx#4 $)

>  <Rbt.Library>
libRbt.so (2013.1, Build901 2013/11/27)

>  <Rbt.Parameter_File>
/export/apps/rDock/src/rDock_2013.1_src/data/scripts/dock_solv.prm

>  <Rbt.Receptor>
prm/pocket_docking_4.prm

>  <SCORE>
-9.51822

>  <SCORE.INTER>
-9.51822

>  <SCORE.INTER.CONST>
1

>  <SCORE.INTER.POLAR>
0

>  <SCORE.INTER.ROT>
0

>  <SCORE.INTER.SOLV>
11.1199

>  <SCORE.INTER.VDW>
-13.6521

>  <SCORE.INTER.norm>
-0.865293

>  <SCORE.INTRA>
0

>  <SCORE.INTRA.DIHEDRAL>
0

>  <SCORE.INTRA.DIHEDRAL.0>
0

>  <SCORE.INTRA.POLAR>
0

>  <SCORE.INTRA.POLAR.0>
0

>  <SCORE.INTRA.REPUL>
0

>  <SCORE.INTRA.REPUL.0>
0

>  <SCORE.INTRA.SOLV>
0

>  <SCORE.INTRA.SOLV.lig_0>
-49.4056

>  <SCORE.INTRA.VDW>
0

>  <SCORE.INTRA.VDW.0>
0

>  <SCORE.INTRA.norm>
0

>  <SCORE.RESTR>
0

>  <SCORE.RESTR.CAVITY>
0

>  <SCORE.RESTR.norm>
0

>  <SCORE.SYSTEM>
0

>  <SCORE.SYSTEM.CONST>
0

>  <SCORE.SYSTEM.DIHEDRAL>
0

>  <SCORE.SYSTEM.SOLV>
0

>  <SCORE.SYSTEM.norm>
0

>  <SCORE.heavy>
11

>  <SCORE.norm>
-0.865293

>  <RMSD>
2.800

$$$$
ligand
 OpenBabel11021811503D
libRbt.so/2013.1/901 2013/11/27
 11 12  0  0  0  0  0  0  0  0999 V2000
    3.7643  -20.5024   25.3611 N   0  0  0  0  0  0  0  0  0  0  0  0
    3.2341  -20.7183   24.1319 C   0  0  0  0  0  0  0  0  0  0  0  0
    4.0642  -20.7152   22.9645 N   0  0  0  0  0  0  0  0  0  0  0  0
    1.9154  -20.9343   23.9798 N   0  0  0  0  0  0  0  0  0  0  0  0
    1.0648  -20.9500   25.0623 C   0  0  0  0  0  0  0  0  0  0  0  0
    1.5779  -20.7300   26.3274 C   0  0  0  0  0  0  0  0  0  0  0  0
    2.9794  -20.4976   26.4606 C   0  0  0  0  0  0  0  0  0  0  0  0
    3.5436  -20.2644   27.7549 N   0  0  0  0  0  0  0  0  0  0  0  0
    0.5125  -20.7978   27.2049 N   0  0  0  0  0  0  0  0  0  0  0  0
   -0.6132  -21.0435   26.5048 C   0  0  0  0  0  0  0  0  0  0  0  0
   -0.3037  -21.1389   25.1963 N   0  0  0  0  0  0  0  0  0  0  0  0
  1  7  2  0  0  0  0
  1  2  1  0  0  0  0
  2  3  1  0  0  0  0
  2  4  2  0  0  0  0
  4  5  1  0  0  0  0
  5  6  2  0  0  0  0
  5 11  1  0  0  0  0
  6  7  1  0  0  0  0
  6  9  1  0  0  0  0
  7  8  1  0  0  0  0
  9 10  1  0  0  0  0
 10 11  2  0  0  0  0
M  END
>  <CHROM.1>
1.99899801,-20.75150573,25.52990914,-0.56406084,0.15152632,1.46079351

>  <Name>
ligand

>  <RI>
0

>  <Rbt.Current_Directory>
/home/itssahil/PROJECTS/Mol_Feturizer/New_Systems/rnas/4LVZ

>  <Rbt.Executable>
rbdock ($Id: //depot/dev/client3/rdock/2013.1/src/exe/rbdock.cxx#4 $)

>  <Rbt.Library>
libRbt.so (2013.1, Build901 2013/11/27)

>  <Rbt.Parameter_File>
/export/apps/rDock/src/rDock_2013.1_src/data/scripts/dock_solv.prm

>  <Rbt.Receptor>
prm/pocket_docking_5.prm

>  <SCORE>
-9.46684

>  <SCORE.INTER>
-9.46684

>  <SCORE.INTER.CONST>
1

>  <SCORE.INTER.POLAR>
0

>  <SCORE.INTER.ROT>
0

>  <SCORE.INTER.SOLV>
11.0208

>  <SCORE.INTER.VDW>
-13.5848

>  <SCORE.INTER.norm>
-0.860622

>  <SCORE.INTRA>
0

>  <SCORE.INTRA.DIHEDRAL>
0

>  <SCORE.INTRA.DIHEDRAL.0>
0

>  <SCORE.INTRA.POLAR>
0

>  <SCORE.INTRA.POLAR.0>
0

>  <SCORE.INTRA.REPUL>
0

>  <SCORE.INTRA.REPUL.0>
0

>  <SCORE.INTRA.SOLV>
0

>  <SCORE.INTRA.SOLV.lig_0>
-49.4056

>  <SCORE.INTRA.VDW>
0

>  <SCORE.INTRA.VDW.0>
0

>  <SCORE.INTRA.norm>
0

>  <SCORE.RESTR>
0

>  <SCORE.RESTR.CAVITY>
0

>  <SCORE.RESTR.norm>
0

>  <SCORE.SYSTEM>
0

>  <SCORE.SYSTEM.CONST>
0

>  <SCORE.SYSTEM.DIHEDRAL>
0

>  <SCORE.SYSTEM.SOLV>
0

>  <SCORE.SYSTEM.norm>
0

>  <SCORE.heavy>
11

>  <SCORE.norm>
-0.860622

>  <RMSD>
2.800

$$$$
ligand
 OpenBabel11021811503D
libRbt.so/2013.1/901 2013/11/27
 11 12  0  0  0  0  0  0  0  0999 V2000
    3.7446  -20.4232   25.3002 N   0  0  0  0  0  0  0  0  0  0  0  0
    3.1661  -20.6560   24.0961 C   0  0  0  0  0  0  0  0  0  0  0  0
    3.9415  -20.6259   22.8920 N   0  0  0  0  0  0  0  0  0  0  0  0
    1.8495  -20.9145   24.0040 N   0  0  0  0  0  0  0  0  0  0  0  0
    1.0501  -20.9578   25.1241 C   0  0  0  0  0  0  0  0  0  0  0  0
    1.6131  -20.7215   26.3649 C   0  0  0  0  0  0  0  0  0  0  0  0
    3.0110  -20.4440   26.4343 C   0  0  0  0  0  0  0  0  0  0  0  0
    3.6258  -20.1928   27.7019 N   0  0  0  0  0  0  0  0  0  0  0  0
    0.5915  -20.8238   27.2900 N   0  0  0  0  0  0  0  0  0  0  0  0
   -0.5564  -21.1056   26.6415 C   0  0  0  0  0  0  0  0  0  0  0  0
   -0.3041  -21.1909   25.3201 N   0  0  0  0  0  0  0  0  0  0  0  0
  1  7  2  0  0  0  0
  1  2  1  0  0  0  0
  2  3  1  0  0  0  0
  2  4  2  0  0  0  0
  4  5  1  0  0  0  0
  5  6  2  0  0  0  0
  5 11  1  0  0  0  0
  6  7  1  0  0  0  0
  6  9  1  0  0  0  0
  7  8  1  0  0  0  0
  9 10  1  0  0  0  0
 10 11  2  0  0  0  0
M  END
>  <CHROM.1>
1.99778522,-20.72927367,25.54897730,-0.60666013,0.18848518,1.46887162

>  <Name>
ligand

>  <RI>
0

>  <Rbt.Current_Directory>
/home/itssahil/PROJECTS/Mol_Feturizer/New_Systems/rnas/4LVZ

>  <Rbt.Executable>
rbdock ($Id: //depot/dev/client3/rdock/2013.1/src/exe/rbdock.cxx#4 $)

>  <Rbt.Library>
libRbt.so (2013.1, Build901 2013/11/27)

>  <Rbt.Parameter_File>
/export/apps/rDock/src/rDock_2013.1_src/data/scripts/dock_solv.prm

>  <Rbt.Receptor>
prm/pocket_docking_5.prm

>  <SCORE>
-9.43801

>  <SCORE.INTER>
-9.43801

>  <SCORE.INTER.CONST>
1

>  <SCORE.INTER.POLAR>
0

>  <SCORE.INTER.ROT>
0

>  <SCORE.INTER.SOLV>
11.1707

>  <SCORE.INTER.VDW>
-13.6156

>  <SCORE.INTER.norm>
-0.858001

>  <SCORE.INTRA>
0

>  <SCORE.INTRA.DIHEDRAL>
0

>  <SCORE.INTRA.DIHEDRAL.0>
0

>  <SCORE.INTRA.POLAR>
0

>  <SCORE.INTRA.POLAR.0>
0

>  <SCORE.INTRA.REPUL>
0

>  <SCORE.INTRA.REPUL.0>
0

>  <SCORE.INTRA.SOLV>
0

>  <SCORE.INTRA.SOLV.lig_0>
-49.4056

>  <SCORE.INTRA.VDW>
0

>  <SCORE.INTRA.VDW.0>
0

>  <SCORE.INTRA.norm>
0

>  <SCORE.RESTR>
0

>  <SCORE.RESTR.CAVITY>
0

>  <SCORE.RESTR.norm>
0

>  <SCORE.SYSTEM>
0

>  <SCORE.SYSTEM.CONST>
0

>  <SCORE.SYSTEM.DIHEDRAL>
0

>  <SCORE.SYSTEM.SOLV>
0

>  <SCORE.SYSTEM.norm>
0

>  <SCORE.heavy>
11

>  <SCORE.norm>
-0.858001

>  <RMSD>
2.800

$$$$
ligand
 OpenBabel11021811503D
libRbt.so/2013.1/901 2013/11/27
 11 12  0  0  0  0  0  0  0  0999 V2000
    3.7365  -20.4568   25.3422 N   0  0  0  0  0  0  0  0  0  0  0  0
    3.2060  -20.6756   24.1137 C   0  0  0  0  0  0  0  0  0  0  0  0
    4.0327  -20.6555   22.9440 N   0  0  0  0  0  0  0  0  0  0  0  0
    1.8902  -20.9107   23.9643 N   0  0  0  0  0  0  0  0  0  0  0  0
    1.0430  -20.9434   25.0492 C   0  0  0  0  0  0  0  0  0  0  0  0
    1.5564  -20.7209   26.3138 C   0  0  0  0  0  0  0  0  0  0  0  0
    2.9547  -20.4682   26.4439 C   0  0  0  0  0  0  0  0  0  0  0  0
    3.5190  -20.2318   27.7376 N   0  0  0  0  0  0  0  0  0  0  0  0
    0.4946  -20.8080   27.1940 N   0  0  0  0  0  0  0  0  0  0  0  0
   -0.6293  -21.0676   26.4959 C   0  0  0  0  0  0  0  0  0  0  0  0
   -0.3221  -21.1532   25.1862 N   0  0  0  0  0  0  0  0  0  0  0  0
  1  7  2  0  0  0  0
  1  2  1  0  0  0  0
  2  3  1  0  0  0  0
  2  4  2  0  0  0  0
  4  5  1  0  0  0  0
  5  6  2  0  0  0  0
  5 11  1  0  0  0  0
  6  7  1  0  0  0  0
  6  9  1  0  0  0  0
  7  8  1  0  0  0  0
  9 10  1  0  0  0  0
 10 11  2  0  0  0  0
M  END
>  <CHROM.1>
1.97551860,-20.73285924,25.51498602,-0.56527792,0.16660819,1.46502699

>  <Name>
ligand

>  <RI>
0

>  <Rbt.Current_Directory>
/home/itssahil/PROJECTS/Mol_Feturizer/New_Systems/rnas/4LVZ

>  <Rbt.Executable>
rbdock ($Id: //depot/dev/client3/rdock/2013.1/src/exe/rbdock.cxx#4 $)

>  <Rbt.Library>
libRbt.so (2013.1, Build901 2013/11/27)

>  <Rbt.Parameter_File>
/export/apps/rDock/src/rDock_2013.1_src/data/scripts/dock_solv.prm

>  <Rbt.Receptor>
prm/pocket_docking_6.prm

>  <SCORE>
-9.51845

>  <SCORE.INTER>
-9.51845

>  <SCORE.INTER.CONST>
1

>  <SCORE.INTER.POLAR>
0

>  <SCORE.INTER.ROT>
0

>  <SCORE.INTER.SOLV>
11.1137

>  <SCORE.INTER.VDW>
-13.6502

>  <SCORE.INTER.norm>
-0.865313

>  <SCORE.INTRA>
0

>  <SCORE.INTRA.DIHEDRAL>
0

>  <SCORE.INTRA.DIHEDRAL.0>
0

>  <SCORE.INTRA.POLAR>
0

>  <SCORE.INTRA.POLAR.0>
0

>  <SCORE.INTRA.REPUL>
0

>  <SCORE.INTRA.REPUL.0>
0

>  <SCORE.INTRA.SOLV>
0

>  <SCORE.INTRA.SOLV.lig_0>
-49.4056

>  <SCORE.INTRA.VDW>
0

>  <SCORE.INTRA.VDW.0>
0

>  <SCORE.INTRA.norm>
0

>  <SCORE.RESTR>
0

>  <SCORE.RESTR.CAVITY>
0

>  <SCORE.RESTR.norm>
0

>  <SCORE.SYSTEM>
0

>  <SCORE.SYSTEM.CONST>
0

>  <SCORE.SYSTEM.DIHEDRAL>
0

>  <SCORE.SYSTEM.SOLV>
0

>  <SCORE.SYSTEM.norm>
0

>  <SCORE.heavy>
11

>  <SCORE.norm>
-0.865313

>  <RMSD>
2.800

$$$$
ligand
 OpenBabel11021811503D
libRbt.so/2013.1/901 2013/11/27
 11 12  0  0  0  0  0  0  0  0999 V2000
    3.7384  -20.4688   25.3508 N   0  0  0  0  0  0  0  0  0  0  0  0
    3.2071  -20.6896   24.1230 C   0  0  0  0  0  0  0  0  0  0  0  0
    4.0337  -20.6759   22.9532 N   0  0  0  0  0  0  0  0  0  0  0  0
    1.8905  -20.9206   23.9745 N   0  0  0  0  0  0  0  0  0  0  0  0
    1.0433  -20.9470   25.0595 C   0  0  0  0  0  0  0  0  0  0  0  0
    1.5576  -20.7224   26.3234 C   0  0  0  0  0  0  0  0  0  0  0  0
    2.9567  -20.4741   26.4526 C   0  0  0  0  0  0  0  0  0  0  0  0
    3.5219  -20.2357   27.7455 N   0  0  0  0  0  0  0  0  0  0  0  0
    0.4955  -20.8032   27.2039 N   0  0  0  0  0  0  0  0  0  0  0  0
   -0.6293  -21.0611   26.5068 C   0  0  0  0  0  0  0  0  0  0  0  0
   -0.3226  -21.1517   25.1973 N   0  0  0  0  0  0  0  0  0  0  0  0
  1  7  2  0  0  0  0
  1  2  1  0  0  0  0
  2  3  1  0  0  0  0
  2  4  2  0  0  0  0
  4  5  1  0  0  0  0
  5  6  2  0  0  0  0
  5 11  1  0  0  0  0
  6  7  1  0  0  0  0
  6  9  1  0  0  0  0
  7  8  1  0  0  0  0
  9 10  1  0  0  0  0
 10 11  2  0  0  0  0
M  END
>  <CHROM.1>
1.97652309,-20.73828469,25.52460522,-0.56573803,0.16321515,1.46203198

>  <Name>
ligand

>  <RI>
0

>  <Rbt.Current_Directory>
/home/itssahil/PROJECTS/Mol_Feturizer/New_Systems/rnas/4LVZ

>  <Rbt.Executable>
rbdock ($Id: //depot/dev/client3/rdock/2013.1/src/exe/rbdock.cxx#4 $)

>  <Rbt.Library>
libRbt.so (2013.1, Build901 2013/11/27)

>  <Rbt.Parameter_File>
/export/apps/rDock/src/rDock_2013.1_src/data/scripts/dock_solv.prm

>  <Rbt.Receptor>
prm/pocket_docking_6.prm

>  <SCORE>
-9.51607

>  <SCORE.INTER>
-9.51607

>  <SCORE.INTER.CONST>
1

>  <SCORE.INTER.POLAR>
0

>  <SCORE.INTER.ROT>
0

>  <SCORE.INTER.SOLV>
11.1486

>  <SCORE.INTER.VDW>
-13.6602

>  <SCORE.INTER.norm>
-0.865097

>  <SCORE.INTRA>
0

>  <SCORE.INTRA.DIHEDRAL>
0

>  <SCORE.INTRA.DIHEDRAL.0>
0

>  <SCORE.INTRA.POLAR>
0

>  <SCORE.INTRA.POLAR.0>
0

>  <SCORE.INTRA.REPUL>
0

>  <SCORE.INTRA.REPUL.0>
0

>  <SCORE.INTRA.SOLV>
0

>  <SCORE.INTRA.SOLV.lig_0>
-49.4056

>  <SCORE.INTRA.VDW>
0

>  <SCORE.INTRA.VDW.0>
0

>  <SCORE.INTRA.norm>
0

>  <SCORE.RESTR>
0

>  <SCORE.RESTR.CAVITY>
0

>  <SCORE.RESTR.norm>
0

>  <SCORE.SYSTEM>
0

>  <SCORE.SYSTEM.CONST>
0

>  <SCORE.SYSTEM.DIHEDRAL>
0

>  <SCORE.SYSTEM.SOLV>
0

>  <SCORE.SYSTEM.norm>
0

>  <SCORE.heavy>
11

>  <SCORE.norm>
-0.865097

>  <RMSD>
2.800

$$$$
ligand
 OpenBabel11021811503D
libRbt.so/2013.1/901 2013/11/27
 11 12  0  0  0  0  0  0  0  0999 V2000
    3.7562  -20.4154   25.3077 N   0  0  0  0  0  0  0  0  0  0  0  0
    3.1951  -20.6516   24.0961 C   0  0  0  0  0  0  0  0  0  0  0  0
    3.9857  -20.6145   22.9021 N   0  0  0  0  0  0  0  0  0  0  0  0
    1.8818  -20.9202   23.9867 N   0  0  0  0  0  0  0  0  0  0  0  0
    1.0684  -20.9707   25.0964 C   0  0  0  0  0  0  0  0  0  0  0  0
    1.6135  -20.7311   26.3446 C   0  0  0  0  0  0  0  0  0  0  0  0
    3.0081  -20.4428   26.4323 C   0  0  0  0  0  0  0  0  0  0  0  0
    3.6046  -20.1880   27.7079 N   0  0  0  0  0  0  0  0  0  0  0  0
    0.5809  -20.8420   27.2563 N   0  0  0  0  0  0  0  0  0  0  0  0
   -0.5564  -21.1322   26.5928 C   0  0  0  0  0  0  0  0  0  0  0  0
   -0.2863  -21.2143   25.2747 N   0  0  0  0  0  0  0  0  0  0  0  0
  1  7  2  0  0  0  0
  1  2  1  0  0  0  0
  2  3  1  0  0  0  0
  2  4  2  0  0  0  0
  4  5  1  0  0  0  0
  5  6  2  0  0  0  0
  5 11  1  0  0  0  0
  6  7  1  0  0  0  0
  6  9  1  0  0  0  0
  7  8  1  0  0  0  0
  9 10  1  0  0  0  0
 10 11  2  0  0  0  0
M  END
>  <CHROM.1>
2.00870868,-20.73517874,25.53365353,-0.59276003,0.19484643,1.46703393

>  <Name>
ligand

>  <RI>
0

>  <Rbt.Current_Directory>
/home/itssahil/PROJECTS/Mol_Feturizer/New_Systems/rnas/4LVZ

>  <Rbt.Executable>
rbdock ($Id: //depot/dev/client3/rdock/2013.1/src/exe/rbdock.cxx#4 $)

>  <Rbt.Library>
libRbt.so (2013.1, Build901 2013/11/27)

>  <Rbt.Parameter_File>
/export/apps/rDock/src/rDock_2013.1_src/data/scripts/dock_solv.prm

>  <Rbt.Receptor>
prm/pocket_docking_7.prm

>  <SCORE>
-9.41445

>  <SCORE.INTER>
-9.41445

>  <SCORE.INTER.CONST>
1

>  <SCORE.INTER.POLAR>
0

>  <SCORE.INTER.ROT>
0

>  <SCORE.INTER.SOLV>
11.0183

>  <SCORE.INTER.VDW>
-13.5491

>  <SCORE.INTER.norm>
-0.855859

>  <SCORE.INTRA>
0

>  <SCORE.INTRA.DIHEDRAL>
0

>  <SCORE.INTRA.DIHEDRAL.0>
0

>  <SCORE.INTRA.POLAR>
0

>  <SCORE.INTRA.POLAR.0>
0

>  <SCORE.INTRA.REPUL>
0

>  <SCORE.INTRA.REPUL.0>
0

>  <SCORE.INTRA.SOLV>
0

>  <SCORE.INTRA.SOLV.lig_0>
-49.4056

>  <SCORE.INTRA.VDW>
0

>  <SCORE.INTRA.VDW.0>
0

>  <SCORE.INTRA.norm>
0

>  <SCORE.RESTR>
0

>  <SCORE.RESTR.CAVITY>
0

>  <SCORE.RESTR.norm>
0

>  <SCORE.SYSTEM>
0

>  <SCORE.SYSTEM.CONST>
0

>  <SCORE.SYSTEM.DIHEDRAL>
0

>  <SCORE.SYSTEM.SOLV>
0

>  <SCORE.SYSTEM.norm>
0

>  <SCORE.heavy>
11

>  <SCORE.norm>
-0.855859

>  <RMSD>
2.800

$$$$
ligand
 OpenBabel11021811503D
libRbt.so/2013.1/901 2013/11/27
 11 12  0  0  0  0  0  0  0  0999 V2000
    3.7400  -20.3831   25.2800 N   0  0  0  0  0  0  0  0  0  0  0  0
    3.1553  -20.6187   24.0795 C   0  0  0  0  0  0  0  0  0  0  0  0
    3.9169  -20.5544   22.8679 N   0  0  0  0  0  0  0  0  0  0  0  0
    1.8454  -20.9123   23.9980 N   0  0  0  0  0  0  0  0  0  0  0  0
    1.0594  -20.9896   25.1258 C   0  0  0  0  0  0  0  0  0  0  0  0
    1.6288  -20.7513   26.3632 C   0  0  0  0  0  0  0  0  0  0  0  0
    3.0192  -20.4363   26.4214 C   0  0  0  0  0  0  0  0  0  0  0  0
    3.6403  -20.1819   27.6853 N   0  0  0  0  0  0  0  0  0  0  0  0
    0.6202  -20.8915   27.2976 N   0  0  0  0  0  0  0  0  0  0  0  0
   -0.5264  -21.1978   26.6578 C   0  0  0  0  0  0  0  0  0  0  0  0
   -0.2857  -21.2618   25.3331 N   0  0  0  0  0  0  0  0  0  0  0  0
  1  7  2  0  0  0  0
  1  2  1  0  0  0  0
  2  3  1  0  0  0  0
  2  4  2  0  0  0  0
  4  5  1  0  0  0  0
  5  6  2  0  0  0  0
  5 11  1  0  0  0  0
  6  7  1  0  0  0  0
  6  9  1  0  0  0  0
  7  8  1  0  0  0  0
  9 10  1  0  0  0  0
 10 11  2  0  0  0  0
M  END
>  <CHROM.1>
2.00489491,-20.73971238,25.54334818,-0.61457069,0.21676371,1.48137538

>  <Name>
ligand

>  <RI>
0

>  <Rbt.Current_Directory>
/home/itssahil/PROJECTS/Mol_Feturizer/New_Systems/rnas/4LVZ

>  <Rbt.Executable>
rbdock ($Id: //depot/dev/client3/rdock/2013.1/src/exe/rbdock.cxx#4 $)

>  <Rbt.Library>
libRbt.so (2013.1, Build901 2013/11/27)

>  <Rbt.Parameter_File>
/export/apps/rDock/src/rDock_2013.1_src/data/scripts/dock_solv.prm

>  <Rbt.Receptor>
prm/pocket_docking_7.prm

>  <SCORE>
-9.43179

>  <SCORE.INTER>
-9.43179

>  <SCORE.INTER.CONST>
1

>  <SCORE.INTER.POLAR>
0

>  <SCORE.INTER.ROT>
0

>  <SCORE.INTER.SOLV>
11.1395

>  <SCORE.INTER.VDW>
-13.601

>  <SCORE.INTER.norm>
-0.857435

>  <SCORE.INTRA>
0

>  <SCORE.INTRA.DIHEDRAL>
0

>  <SCORE.INTRA.DIHEDRAL.0>
0

>  <SCORE.INTRA.POLAR>
0

>  <SCORE.INTRA.POLAR.0>
0

>  <SCORE.INTRA.REPUL>
0

>  <SCORE.INTRA.REPUL.0>
0

>  <SCORE.INTRA.SOLV>
0

>  <SCORE.INTRA.SOLV.lig_0>
-49.4056

>  <SCORE.INTRA.VDW>
0

>  <SCORE.INTRA.VDW.0>
0

>  <SCORE.INTRA.norm>
0

>  <SCORE.RESTR>
0

>  <SCORE.RESTR.CAVITY>
0

>  <SCORE.RESTR.norm>
0

>  <SCORE.SYSTEM>
0

>  <SCORE.SYSTEM.CONST>
0

>  <SCORE.SYSTEM.DIHEDRAL>
0

>  <SCORE.SYSTEM.SOLV>
0

>  <SCORE.SYSTEM.norm>
0

>  <SCORE.heavy>
11

>  <SCORE.norm>
-0.857435

>  <RMSD>
2.800

$$$$
ligand
 OpenBabel11021811503D
libRbt.so/2013.1/901 2013/11/27
 11 12  0  0  0  0  0  0  0  0999 V2000
    3.7374  -20.3618   25.2734 N   0  0  0  0  0  0  0  0  0  0  0  0
    3.1490  -20.6154   24.0784 C   0  0  0  0  0  0  0  0  0  0  0  0
    3.9074  -20.5726   22.8640 N   0  0  0  0  0  0  0  0  0  0  0  0
    1.8381  -20.9072   24.0052 N   0  0  0  0  0  0  0  0  0  0  0  0
    1.0550  -20.9643   25.1361 C   0  0  0  0  0  0  0  0  0  0  0  0
    1.6282  -20.7073   26.3680 C   0  0  0  0  0  0  0  0  0  0  0  0
    3.0195  -20.3947   26.4174 C   0  0  0  0  0  0  0  0  0  0  0  0
    3.6446  -20.1213   27.6754 N   0  0  0  0  0  0  0  0  0  0  0  0
    0.6219  -20.8299   27.3072 N   0  0  0  0  0  0  0  0  0  0  0  0
   -0.5271  -21.1438   26.6755 C   0  0  0  0  0  0  0  0  0  0  0  0
   -0.2902  -21.2299   25.3514 N   0  0  0  0  0  0  0  0  0  0  0  0
  1  7  2  0  0  0  0
  1  2  1  0  0  0  0
  2  3  1  0  0  0  0
  2  4  2  0  0  0  0
  4  5  1  0  0  0  0
  5  6  2  0  0  0  0
  5 11  1  0  0  0  0
  6  7  1  0  0  0  0
  6  9  1  0  0  0  0
  7  8  1  0  0  0  0
  9 10  1  0  0  0  0
 10 11  2  0  0  0  0
M  END
>  <CHROM.1>
2.00219789,-20.70988639,25.54708381,-0.61751374,0.21466494,1.46576947

>  <Name>
ligand

>  <RI>
0

>  <Rbt.Current_Directory>
/home/itssahil/PROJECTS/Mol_Feturizer/New_Systems/rnas/4LVZ

>  <Rbt.Executable>
rbdock ($Id: //depot/dev/client3/rdock/2013.1/src/exe/rbdock.cxx#4 $)

>  <Rbt.Library>
libRbt.so (2013.1, Build901 2013/11/27)

>  <Rbt.Parameter_File>
/export/apps/rDock/src/rDock_2013.1_src/data/scripts/dock_solv.prm

>  <Rbt.Receptor>
prm/pocket_docking_8.prm

>  <SCORE>
-9.4323

>  <SCORE.INTER>
-9.4323

>  <SCORE.INTER.CONST>
1

>  <SCORE.INTER.POLAR>
0

>  <SCORE.INTER.ROT>
0

>  <SCORE.INTER.SOLV>
11.2646

>  <SCORE.INTER.VDW>
-13.6431

>  <SCORE.INTER.norm>
-0.857482

>  <SCORE.INTRA>
0

>  <SCORE.INTRA.DIHEDRAL>
0

>  <SCORE.INTRA.DIHEDRAL.0>
0

>  <SCORE.INTRA.POLAR>
0

>  <SCORE.INTRA.POLAR.0>
0

>  <SCORE.INTRA.REPUL>
0

>  <SCORE.INTRA.REPUL.0>
0

>  <SCORE.INTRA.SOLV>
0

>  <SCORE.INTRA.SOLV.lig_0>
-49.4056

>  <SCORE.INTRA.VDW>
0

>  <SCORE.INTRA.VDW.0>
0

>  <SCORE.INTRA.norm>
0

>  <SCORE.RESTR>
0

>  <SCORE.RESTR.CAVITY>
0

>  <SCORE.RESTR.norm>
0

>  <SCORE.SYSTEM>
0

>  <SCORE.SYSTEM.CONST>
0

>  <SCORE.SYSTEM.DIHEDRAL>
0

>  <SCORE.SYSTEM.SOLV>
0

>  <SCORE.SYSTEM.norm>
0

>  <SCORE.heavy>
11

>  <SCORE.norm>
-0.857482

>  <RMSD>
2.800

$$$$
ligand
 OpenBabel11021811503D
libRbt.so/2013.1/901 2013/11/27
 11 12  0  0  0  0  0  0  0  0999 V2000
    3.7338  -20.4548   25.3410 N   0  0  0  0  0  0  0  0  0  0  0  0
    3.2031  -20.6714   24.1122 C   0  0  0  0  0  0  0  0  0  0  0  0
    4.0294  -20.6481   22.9423 N   0  0  0  0  0  0  0  0  0  0  0  0
    1.8875  -20.9074   23.9628 N   0  0  0  0  0  0  0  0  0  0  0  0
    1.0407  -20.9432   25.0478 C   0  0  0  0  0  0  0  0  0  0  0  0
    1.5544  -20.7229   26.3128 C   0  0  0  0  0  0  0  0  0  0  0  0
    2.9524  -20.4692   26.4430 C   0  0  0  0  0  0  0  0  0  0  0  0
    3.5170  -20.2351   27.7370 N   0  0  0  0  0  0  0  0  0  0  0  0
    0.4929  -20.8130   27.1931 N   0  0  0  0  0  0  0  0  0  0  0  0
   -0.6309  -21.0721   26.4949 C   0  0  0  0  0  0  0  0  0  0  0  0
   -0.3242  -21.1546   25.1849 N   0  0  0  0  0  0  0  0  0  0  0  0
  1  7  2  0  0  0  0
  1  2  1  0  0  0  0
  2  3  1  0  0  0  0
  2  4  2  0  0  0  0
  4  5  1  0  0  0  0
  5  6  2  0  0  0  0
  5 11  1  0  0  0  0
  6  7  1  0  0  0  0
  6  9  1  0  0  0  0
  7  8  1  0  0  0  0
  9 10  1  0  0  0  0
 10 11  2  0  0  0  0
M  END
>  <CHROM.1>
1.97318652,-20.73282884,25.51380844,-0.56552646,0.16757195,1.46722414

>  <Name>
ligand

>  <RI>
0

>  <Rbt.Current_Directory>
/home/itssahil/PROJECTS/Mol_Feturizer/New_Systems/rnas/4LVZ

>  <Rbt.Executable>
rbdock ($Id: //depot/dev/client3/rdock/2013.1/src/exe/rbdock.cxx#4 $)

>  <Rbt.Library>
libRbt.so (2013.1, Build901 2013/11/27)

>  <Rbt.Parameter_File>
/export/apps/rDock/src/rDock_2013.1_src/data/scripts/dock_solv.prm

>  <Rbt.Receptor>
prm/pocket_docking_8.prm

>  <SCORE>
-9.51572

>  <SCORE.INTER>
-9.51572

>  <SCORE.INTER.CONST>
1

>  <SCORE.INTER.POLAR>
0

>  <SCORE.INTER.ROT>
0

>  <SCORE.INTER.SOLV>
11.116

>  <SCORE.INTER.VDW>
-13.6491

>  <SCORE.INTER.norm>
-0.865065

>  <SCORE.INTRA>
0

>  <SCORE.INTRA.DIHEDRAL>
0

>  <SCORE.INTRA.DIHEDRAL.0>
0

>  <SCORE.INTRA.POLAR>
0

>  <SCORE.INTRA.POLAR.0>
0

>  <SCORE.INTRA.REPUL>
0

>  <SCORE.INTRA.REPUL.0>
0

>  <SCORE.INTRA.SOLV>
0

>  <SCORE.INTRA.SOLV.lig_0>
-49.4056

>  <SCORE.INTRA.VDW>
0

>  <SCORE.INTRA.VDW.0>
0

>  <SCORE.INTRA.norm>
0

>  <SCORE.RESTR>
0

>  <SCORE.RESTR.CAVITY>
0

>  <SCORE.RESTR.norm>
0

>  <SCORE.SYSTEM>
0

>  <SCORE.SYSTEM.CONST>
0

>  <SCORE.SYSTEM.DIHEDRAL>
0

>  <SCORE.SYSTEM.SOLV>
0

>  <SCORE.SYSTEM.norm>
0

>  <SCORE.heavy>
11

>  <SCORE.norm>
-0.865065

>  <RMSD>
2.800

$$$$
ligand
 OpenBabel11021811503D
libRbt.so/2013.1/901 2013/11/27
 11 12  0  0  0  0  0  0  0  0999 V2000
    3.6854  -20.3402   25.2463 N   0  0  0  0  0  0  0  0  0  0  0  0
    3.0603  -20.5788   24.0670 C   0  0  0  0  0  0  0  0  0  0  0  0
    3.7745  -20.4932   22.8282 N   0  0  0  0  0  0  0  0  0  0  0  0
    1.7537  -20.8954   24.0326 N   0  0  0  0  0  0  0  0  0  0  0  0
    1.0121  -20.9939   25.1885 C   0  0  0  0  0  0  0  0  0  0  0  0
    1.6234  -20.7531   26.4054 C   0  0  0  0  0  0  0  0  0  0  0  0
    3.0092  -20.4134   26.4135 C   0  0  0  0  0  0  0  0  0  0  0  0
    3.6728  -20.1558   27.6550 N   0  0  0  0  0  0  0  0  0  0  0  0
    0.6534  -20.9174   27.3759 N   0  0  0  0  0  0  0  0  0  0  0  0
   -0.5108  -21.2402   26.7775 C   0  0  0  0  0  0  0  0  0  0  0  0
   -0.3192  -21.2917   25.4443 N   0  0  0  0  0  0  0  0  0  0  0  0
  1  7  2  0  0  0  0
  1  2  1  0  0  0  0
  2  3  1  0  0  0  0
  2  4  2  0  0  0  0
  4  5  1  0  0  0  0
  5  6  2  0  0  0  0
  5 11  1  0  0  0  0
  6  7  1  0  0  0  0
  6  9  1  0  0  0  0
  7  8  1  0  0  0  0
  9 10  1  0  0  0  0
 10 11  2  0  0  0  0
M  END
>  <CHROM.1>
1.96811612,-20.72963483,25.57208893,-0.65151243,0.23770421,1.49627064

>  <Name>
ligand

>  <RI>
0

>  <Rbt.Current_Directory>
/home/itssahil/PROJECTS/Mol_Feturizer/New_Systems/rnas/4LVZ

>  <Rbt.Executable>
rbdock ($Id: //depot/dev/client3/rdock/2013.1/src/exe/rbdock.cxx#4 $)

>  <Rbt.Library>
libRbt.so (2013.1, Build901 2013/11/27)

>  <Rbt.Parameter_File>
/export/apps/rDock/src/rDock_2013.1_src/data/scripts/dock_solv.prm

>  <Rbt.Receptor>
prm/pocket_docking_4.prm

>  <SCORE>
-9.44226

>  <SCORE.INTER>
-9.44226

>  <SCORE.INTER.CONST>
1

>  <SCORE.INTER.POLAR>
0

>  <SCORE.INTER.ROT>
0

>  <SCORE.INTER.SOLV>
11.6115

>  <SCORE.INTER.VDW>
-13.7654

>  <SCORE.INTER.norm>
-0.858388

>  <SCORE.INTRA>
0

>  <SCORE.INTRA.DIHEDRAL>
0

>  <SCORE.INTRA.DIHEDRAL.0>
0

>  <SCORE.INTRA.POLAR>
0

>  <SCORE.INTRA.POLAR.0>
0

>  <SCORE.INTRA.REPUL>
0

>  <SCORE.INTRA.REPUL.0>
0

>  <SCORE.INTRA.SOLV>
0

>  <SCORE.INTRA.SOLV.lig_0>
-49.4056

>  <SCORE.INTRA.VDW>
0

>  <SCORE.INTRA.VDW.0>
0

>  <SCORE.INTRA.norm>
0

>  <SCORE.RESTR>
0

>  <SCORE.RESTR.CAVITY>
0

>  <SCORE.RESTR.norm>
0

>  <SCORE.SYSTEM>
0

>  <SCORE.SYSTEM.CONST>
0

>  <SCORE.SYSTEM.DIHEDRAL>
0

>  <SCORE.SYSTEM.SOLV>
0

>  <SCORE.SYSTEM.norm>
0

>  <SCORE.heavy>
11

>  <SCORE.norm>
-0.858388

>  <RMSD>
2.801

$$$$
ligand
 OpenBabel11021811503D
libRbt.so/2013.1/901 2013/11/27
 11 12  0  0  0  0  0  0  0  0999 V2000
    3.7365  -20.4715   25.3482 N   0  0  0  0  0  0  0  0  0  0  0  0
    3.2046  -20.6961   24.1213 C   0  0  0  0  0  0  0  0  0  0  0  0
    4.0305  -20.6857   22.9510 N   0  0  0  0  0  0  0  0  0  0  0  0
    1.8880  -20.9279   23.9742 N   0  0  0  0  0  0  0  0  0  0  0  0
    1.0414  -20.9513   25.0598 C   0  0  0  0  0  0  0  0  0  0  0  0
    1.5563  -20.7228   26.3227 C   0  0  0  0  0  0  0  0  0  0  0  0
    2.9554  -20.4737   26.4504 C   0  0  0  0  0  0  0  0  0  0  0  0
    3.5213  -20.2313   27.7423 N   0  0  0  0  0  0  0  0  0  0  0  0
    0.4948  -20.8012   27.2041 N   0  0  0  0  0  0  0  0  0  0  0  0
   -0.6304  -21.0615   26.5083 C   0  0  0  0  0  0  0  0  0  0  0  0
   -0.3244  -21.1559   25.1990 N   0  0  0  0  0  0  0  0  0  0  0  0
  1  7  2  0  0  0  0
  1  2  1  0  0  0  0
  2  3  1  0  0  0  0
  2  4  2  0  0  0  0
  4  5  1  0  0  0  0
  5  6  2  0  0  0  0
  5 11  1  0  0  0  0
  6  7  1  0  0  0  0
  6  9  1  0  0  0  0
  7  8  1  0  0  0  0
  9 10  1  0  0  0  0
 10 11  2  0  0  0  0
M  END
>  <CHROM.1>
1.97480337,-20.74093433,25.52372717,-0.56627271,0.16353963,1.45913826

>  <Name>
ligand

>  <RI>
0

>  <Rbt.Current_Directory>
/home/itssahil/PROJECTS/Mol_Feturizer/New_Systems/rnas/4LVZ

>  <Rbt.Executable>
rbdock ($Id: //depot/dev/client3/rdock/2013.1/src/exe/rbdock.cxx#4 $)

>  <Rbt.Library>
libRbt.so (2013.1, Build901 2013/11/27)

>  <Rbt.Parameter_File>
/export/apps/rDock/src/rDock_2013.1_src/data/scripts/dock_solv.prm

>  <Rbt.Receptor>
prm/pocket_docking_6.prm

>  <SCORE>
-9.51629

>  <SCORE.INTER>
-9.51629

>  <SCORE.INTER.CONST>
1

>  <SCORE.INTER.POLAR>
0

>  <SCORE.INTER.ROT>
0

>  <SCORE.INTER.SOLV>
11.1797

>  <SCORE.INTER.VDW>
-13.6708

>  <SCORE.INTER.norm>
-0.865118

>  <SCORE.INTRA>
0

>  <SCORE.INTRA.DIHEDRAL>
0

>  <SCORE.INTRA.DIHEDRAL.0>
0

>  <SCORE.INTRA.POLAR>
0

>  <SCORE.INTRA.POLAR.0>
0

>  <SCORE.INTRA.REPUL>
0

>  <SCORE.INTRA.REPUL.0>
0

>  <SCORE.INTRA.SOLV>
0

>  <SCORE.INTRA.SOLV.lig_0>
-49.4056

>  <SCORE.INTRA.VDW>
0

>  <SCORE.INTRA.VDW.0>
0

>  <SCORE.INTRA.norm>
0

>  <SCORE.RESTR>
0

>  <SCORE.RESTR.CAVITY>
0

>  <SCORE.RESTR.norm>
0

>  <SCORE.SYSTEM>
0

>  <SCORE.SYSTEM.CONST>
0

>  <SCORE.SYSTEM.DIHEDRAL>
0

>  <SCORE.SYSTEM.SOLV>
0

>  <SCORE.SYSTEM.norm>
0

>  <SCORE.heavy>
11

>  <SCORE.norm>
-0.865118

>  <RMSD>
2.801

$$$$
ligand
 OpenBabel11021811503D
libRbt.so/2013.1/901 2013/11/27
 11 12  0  0  0  0  0  0  0  0999 V2000
    3.7400  -20.4686   25.3435 N   0  0  0  0  0  0  0  0  0  0  0  0
    3.2081  -20.6922   24.1164 C   0  0  0  0  0  0  0  0  0  0  0  0
    4.0342  -20.6809   22.9462 N   0  0  0  0  0  0  0  0  0  0  0  0
    1.8916  -20.9240   23.9691 N   0  0  0  0  0  0  0  0  0  0  0  0
    1.0449  -20.9484   25.0546 C   0  0  0  0  0  0  0  0  0  0  0  0
    1.5597  -20.7207   26.3177 C   0  0  0  0  0  0  0  0  0  0  0  0
    2.9588  -20.4717   26.4457 C   0  0  0  0  0  0  0  0  0  0  0  0
    3.5246  -20.2302   27.7378 N   0  0  0  0  0  0  0  0  0  0  0  0
    0.4981  -20.7999   27.1989 N   0  0  0  0  0  0  0  0  0  0  0  0
   -0.6269  -21.0597   26.5029 C   0  0  0  0  0  0  0  0  0  0  0  0
   -0.3208  -21.1532   25.1935 N   0  0  0  0  0  0  0  0  0  0  0  0
  1  7  2  0  0  0  0
  1  2  1  0  0  0  0
  2  3  1  0  0  0  0
  2  4  2  0  0  0  0
  4  5  1  0  0  0  0
  5  6  2  0  0  0  0
  5 11  1  0  0  0  0
  6  7  1  0  0  0  0
  6  9  1  0  0  0  0
  7  8  1  0  0  0  0
  9 10  1  0  0  0  0
 10 11  2  0  0  0  0
M  END
>  <CHROM.1>
1.97829346,-20.73826402,25.51874338,-0.56619600,0.16360938,1.45988901

>  <Name>
ligand

>  <RI>
0

>  <Rbt.Current_Directory>
/home/itssahil/PROJECTS/Mol_Feturizer/New_Systems/rnas/4LVZ

>  <Rbt.Executable>
rbdock ($Id: //depot/dev/client3/rdock/2013.1/src/exe/rbdock.cxx#4 $)

>  <Rbt.Library>
libRbt.so (2013.1, Build901 2013/11/27)

>  <Rbt.Parameter_File>
/export/apps/rDock/src/rDock_2013.1_src/data/scripts/dock_solv.prm

>  <Rbt.Receptor>
prm/pocket_docking_3.prm

>  <SCORE>
-9.52309

>  <SCORE.INTER>
-9.52309

>  <SCORE.INTER.CONST>
1

>  <SCORE.INTER.POLAR>
0

>  <SCORE.INTER.ROT>
0

>  <SCORE.INTER.SOLV>
11.1399

>  <SCORE.INTER.VDW>
-13.662

>  <SCORE.INTER.norm>
-0.865736

>  <SCORE.INTRA>
0

>  <SCORE.INTRA.DIHEDRAL>
0

>  <SCORE.INTRA.DIHEDRAL.0>
0

>  <SCORE.INTRA.POLAR>
0

>  <SCORE.INTRA.POLAR.0>
0

>  <SCORE.INTRA.REPUL>
0

>  <SCORE.INTRA.REPUL.0>
0

>  <SCORE.INTRA.SOLV>
0

>  <SCORE.INTRA.SOLV.lig_0>
-49.4056

>  <SCORE.INTRA.VDW>
0

>  <SCORE.INTRA.VDW.0>
0

>  <SCORE.INTRA.norm>
0

>  <SCORE.RESTR>
0

>  <SCORE.RESTR.CAVITY>
0

>  <SCORE.RESTR.norm>
0

>  <SCORE.SYSTEM>
0

>  <SCORE.SYSTEM.CONST>
0

>  <SCORE.SYSTEM.DIHEDRAL>
0

>  <SCORE.SYSTEM.SOLV>
0

>  <SCORE.SYSTEM.norm>
0

>  <SCORE.heavy>
11

>  <SCORE.norm>
-0.865736

>  <RMSD>
2.802

$$$$
ligand
 OpenBabel11021811503D
libRbt.so/2013.1/901 2013/11/27
 11 12  0  0  0  0  0  0  0  0999 V2000
    3.7224  -20.4064   25.2833 N   0  0  0  0  0  0  0  0  0  0  0  0
    3.1381  -20.6361   24.0815 C   0  0  0  0  0  0  0  0  0  0  0  0
    3.9056  -20.5919   22.8727 N   0  0  0  0  0  0  0  0  0  0  0  0
    1.8232  -20.9050   23.9960 N   0  0  0  0  0  0  0  0  0  0  0  0
    1.0313  -20.9622   25.1209 C   0  0  0  0  0  0  0  0  0  0  0  0
    1.6003  -20.7293   26.3596 C   0  0  0  0  0  0  0  0  0  0  0  0
    2.9962  -20.4406   26.4220 C   0  0  0  0  0  0  0  0  0  0  0  0
    3.6170  -20.1925   27.6873 N   0  0  0  0  0  0  0  0  0  0  0  0
    0.5855  -20.8460   27.2904 N   0  0  0  0  0  0  0  0  0  0  0  0
   -0.5642  -21.1332   26.6474 C   0  0  0  0  0  0  0  0  0  0  0  0
   -0.3196  -21.2078   25.3239 N   0  0  0  0  0  0  0  0  0  0  0  0
  1  7  2  0  0  0  0
  1  2  1  0  0  0  0
  2  3  1  0  0  0  0
  2  4  2  0  0  0  0
  4  5  1  0  0  0  0
  5  6  2  0  0  0  0
  5 11  1  0  0  0  0
  6  7  1  0  0  0  0
  6  9  1  0  0  0  0
  7  8  1  0  0  0  0
  9 10  1  0  0  0  0
 10 11  2  0  0  0  0
M  END
>  <CHROM.1>
1.97979360,-20.72854926,25.54117832,-0.61226767,0.19735786,1.47643599

>  <Name>
ligand

>  <RI>
0

>  <Rbt.Current_Directory>
/home/itssahil/PROJECTS/Mol_Feturizer/New_Systems/rnas/4LVZ

>  <Rbt.Executable>
rbdock ($Id: //depot/dev/client3/rdock/2013.1/src/exe/rbdock.cxx#4 $)

>  <Rbt.Library>
libRbt.so (2013.1, Build901 2013/11/27)

>  <Rbt.Parameter_File>
/export/apps/rDock/src/rDock_2013.1_src/data/scripts/dock_solv.prm

>  <Rbt.Receptor>
prm/pocket_docking_4.prm

>  <SCORE>
-9.45537

>  <SCORE.INTER>
-9.45537

>  <SCORE.INTER.CONST>
1

>  <SCORE.INTER.POLAR>
0

>  <SCORE.INTER.ROT>
0

>  <SCORE.INTER.SOLV>
11.2997

>  <SCORE.INTER.VDW>
-13.6701

>  <SCORE.INTER.norm>
-0.85958

>  <SCORE.INTRA>
0

>  <SCORE.INTRA.DIHEDRAL>
0

>  <SCORE.INTRA.DIHEDRAL.0>
0

>  <SCORE.INTRA.POLAR>
0

>  <SCORE.INTRA.POLAR.0>
0

>  <SCORE.INTRA.REPUL>
0

>  <SCORE.INTRA.REPUL.0>
0

>  <SCORE.INTRA.SOLV>
0

>  <SCORE.INTRA.SOLV.lig_0>
-49.4056

>  <SCORE.INTRA.VDW>
0

>  <SCORE.INTRA.VDW.0>
0

>  <SCORE.INTRA.norm>
0

>  <SCORE.RESTR>
0

>  <SCORE.RESTR.CAVITY>
0

>  <SCORE.RESTR.norm>
0

>  <SCORE.SYSTEM>
0

>  <SCORE.SYSTEM.CONST>
0

>  <SCORE.SYSTEM.DIHEDRAL>
0

>  <SCORE.SYSTEM.SOLV>
0

>  <SCORE.SYSTEM.norm>
0

>  <SCORE.heavy>
11

>  <SCORE.norm>
-0.85958

>  <RMSD>
2.802

$$$$
ligand
 OpenBabel11021811503D
libRbt.so/2013.1/901 2013/11/27
 11 12  0  0  0  0  0  0  0  0999 V2000
    3.7069  -20.3477   25.2705 N   0  0  0  0  0  0  0  0  0  0  0  0
    3.1240  -20.6075   24.0742 C   0  0  0  0  0  0  0  0  0  0  0  0
    3.8858  -20.5614   22.8620 N   0  0  0  0  0  0  0  0  0  0  0  0
    1.8154  -20.9087   23.9975 N   0  0  0  0  0  0  0  0  0  0  0  0
    1.0293  -20.9695   25.1261 C   0  0  0  0  0  0  0  0  0  0  0  0
    1.5969  -20.7064   26.3594 C   0  0  0  0  0  0  0  0  0  0  0  0
    2.9858  -20.3838   26.4124 C   0  0  0  0  0  0  0  0  0  0  0  0
    3.6051  -20.1039   27.6718 N   0  0  0  0  0  0  0  0  0  0  0  0
    0.5886  -20.8346   27.2957 N   0  0  0  0  0  0  0  0  0  0  0  0
   -0.5562  -21.1576   26.6610 C   0  0  0  0  0  0  0  0  0  0  0  0
   -0.3147  -21.2443   25.3377 N   0  0  0  0  0  0  0  0  0  0  0  0
  1  7  2  0  0  0  0
  1  2  1  0  0  0  0
  2  3  1  0  0  0  0
  2  4  2  0  0  0  0
  4  5  1  0  0  0  0
  5  6  2  0  0  0  0
  5 11  1  0  0  0  0
  6  7  1  0  0  0  0
  6  9  1  0  0  0  0
  7  8  1  0  0  0  0
  9 10  1  0  0  0  0
 10 11  2  0  0  0  0
M  END
>  <CHROM.1>
1.97340585,-20.70768339,25.53954360,-0.61365191,0.22140058,1.46325945

>  <Name>
ligand

>  <RI>
0

>  <Rbt.Current_Directory>
/home/itssahil/PROJECTS/Mol_Feturizer/New_Systems/rnas/4LVZ

>  <Rbt.Executable>
rbdock ($Id: //depot/dev/client3/rdock/2013.1/src/exe/rbdock.cxx#4 $)

>  <Rbt.Library>
libRbt.so (2013.1, Build901 2013/11/27)

>  <Rbt.Parameter_File>
/export/apps/rDock/src/rDock_2013.1_src/data/scripts/dock_solv.prm

>  <Rbt.Receptor>
prm/pocket_docking_8.prm

>  <SCORE>
-9.38758

>  <SCORE.INTER>
-9.38758

>  <SCORE.INTER.CONST>
1

>  <SCORE.INTER.POLAR>
0

>  <SCORE.INTER.ROT>
0

>  <SCORE.INTER.SOLV>
11.4948

>  <SCORE.INTER.VDW>
-13.69

>  <SCORE.INTER.norm>
-0.853417

>  <SCORE.INTRA>
0

>  <SCORE.INTRA.DIHEDRAL>
0

>  <SCORE.INTRA.DIHEDRAL.0>
0

>  <SCORE.INTRA.POLAR>
0

>  <SCORE.INTRA.POLAR.0>
0

>  <SCORE.INTRA.REPUL>
0

>  <SCORE.INTRA.REPUL.0>
0

>  <SCORE.INTRA.SOLV>
0

>  <SCORE.INTRA.SOLV.lig_0>
-49.4056

>  <SCORE.INTRA.VDW>
0

>  <SCORE.INTRA.VDW.0>
0

>  <SCORE.INTRA.norm>
0

>  <SCORE.RESTR>
0

>  <SCORE.RESTR.CAVITY>
0

>  <SCORE.RESTR.norm>
0

>  <SCORE.SYSTEM>
0

>  <SCORE.SYSTEM.CONST>
0

>  <SCORE.SYSTEM.DIHEDRAL>
0

>  <SCORE.SYSTEM.SOLV>
0

>  <SCORE.SYSTEM.norm>
0

>  <SCORE.heavy>
11

>  <SCORE.norm>
-0.853417

>  <RMSD>
2.802

$$$$
ligand
 OpenBabel11021811503D
libRbt.so/2013.1/901 2013/11/27
 11 12  0  0  0  0  0  0  0  0999 V2000
    3.7198  -20.4100   25.2810 N   0  0  0  0  0  0  0  0  0  0  0  0
    3.1369  -20.6336   24.0773 C   0  0  0  0  0  0  0  0  0  0  0  0
    3.9066  -20.5876   22.8701 N   0  0  0  0  0  0  0  0  0  0  0  0
    1.8212  -20.8981   23.9886 N   0  0  0  0  0  0  0  0  0  0  0  0
    1.0273  -20.9567   25.1119 C   0  0  0  0  0  0  0  0  0  0  0  0
    1.5947  -20.7299   26.3524 C   0  0  0  0  0  0  0  0  0  0  0  0
    2.9915  -20.4459   26.4183 C   0  0  0  0  0  0  0  0  0  0  0  0
    3.6109  -20.2042   27.6855 N   0  0  0  0  0  0  0  0  0  0  0  0
    0.5780  -20.8467   27.2811 N   0  0  0  0  0  0  0  0  0  0  0  0
   -0.5714  -21.1280   26.6350 C   0  0  0  0  0  0  0  0  0  0  0  0
   -0.3248  -21.1987   25.3118 N   0  0  0  0  0  0  0  0  0  0  0  0
  1  7  2  0  0  0  0
  1  2  1  0  0  0  0
  2  3  1  0  0  0  0
  2  4  2  0  0  0  0
  4  5  1  0  0  0  0
  5  6  2  0  0  0  0
  5 11  1  0  0  0  0
  6  7  1  0  0  0  0
  6  9  1  0  0  0  0
  7  8  1  0  0  0  0
  9 10  1  0  0  0  0
 10 11  2  0  0  0  0
M  END
>  <CHROM.1>
1.97571045,-20.72752574,25.53470807,-0.61080114,0.19405143,1.47966434

>  <Name>
ligand

>  <RI>
0

>  <Rbt.Current_Directory>
/home/itssahil/PROJECTS/Mol_Feturizer/New_Systems/rnas/4LVZ

>  <Rbt.Executable>
rbdock ($Id: //depot/dev/client3/rdock/2013.1/src/exe/rbdock.cxx#4 $)

>  <Rbt.Library>
libRbt.so (2013.1, Build901 2013/11/27)

>  <Rbt.Parameter_File>
/export/apps/rDock/src/rDock_2013.1_src/data/scripts/dock_solv.prm

>  <Rbt.Receptor>
prm/pocket_docking_4.prm

>  <SCORE>
-9.45176

>  <SCORE.INTER>
-9.45176

>  <SCORE.INTER.CONST>
1

>  <SCORE.INTER.POLAR>
0

>  <SCORE.INTER.ROT>
0

>  <SCORE.INTER.SOLV>
11.2947

>  <SCORE.INTER.VDW>
-13.6661

>  <SCORE.INTER.norm>
-0.859251

>  <SCORE.INTRA>
0

>  <SCORE.INTRA.DIHEDRAL>
0

>  <SCORE.INTRA.DIHEDRAL.0>
0

>  <SCORE.INTRA.POLAR>
0

>  <SCORE.INTRA.POLAR.0>
0

>  <SCORE.INTRA.REPUL>
0

>  <SCORE.INTRA.REPUL.0>
0

>  <SCORE.INTRA.SOLV>
0

>  <SCORE.INTRA.SOLV.lig_0>
-49.4056

>  <SCORE.INTRA.VDW>
0

>  <SCORE.INTRA.VDW.0>
0

>  <SCORE.INTRA.norm>
0

>  <SCORE.RESTR>
0

>  <SCORE.RESTR.CAVITY>
0

>  <SCORE.RESTR.norm>
0

>  <SCORE.SYSTEM>
0

>  <SCORE.SYSTEM.CONST>
0

>  <SCORE.SYSTEM.DIHEDRAL>
0

>  <SCORE.SYSTEM.SOLV>
0

>  <SCORE.SYSTEM.norm>
0

>  <SCORE.heavy>
11

>  <SCORE.norm>
-0.859251

>  <RMSD>
2.803

$$$$
ligand
 OpenBabel11021811503D
libRbt.so/2013.1/901 2013/11/27
 11 12  0  0  0  0  0  0  0  0999 V2000
    3.6512  -20.3122   25.2396 N   0  0  0  0  0  0  0  0  0  0  0  0
    3.0237  -20.5648   24.0644 C   0  0  0  0  0  0  0  0  0  0  0  0
    3.7309  -20.4767   22.8219 N   0  0  0  0  0  0  0  0  0  0  0  0
    1.7210  -20.8983   24.0379 N   0  0  0  0  0  0  0  0  0  0  0  0
    0.9862  -21.0002   25.1978 C   0  0  0  0  0  0  0  0  0  0  0  0
    1.6000  -20.7453   26.4105 C   0  0  0  0  0  0  0  0  0  0  0  0
    2.9813  -20.3879   26.4103 C   0  0  0  0  0  0  0  0  0  0  0  0
    3.6473  -20.1154   27.6473 N   0  0  0  0  0  0  0  0  0  0  0  0
    0.6366  -20.9168   27.3864 N   0  0  0  0  0  0  0  0  0  0  0  0
   -0.5261  -21.2576   26.7952 C   0  0  0  0  0  0  0  0  0  0  0  0
   -0.3400  -21.3135   25.4613 N   0  0  0  0  0  0  0  0  0  0  0  0
  1  7  2  0  0  0  0
  1  2  1  0  0  0  0
  2  3  1  0  0  0  0
  2  4  2  0  0  0  0
  4  5  1  0  0  0  0
  5  6  2  0  0  0  0
  5 11  1  0  0  0  0
  6  7  1  0  0  0  0
  6  9  1  0  0  0  0
  7  8  1  0  0  0  0
  9 10  1  0  0  0  0
 10 11  2  0  0  0  0
M  END
>  <CHROM.1>
1.94050242,-20.72175028,25.57544141,-0.65530643,0.25076560,1.49200427

>  <Name>
ligand

>  <RI>
0

>  <Rbt.Current_Directory>
/home/itssahil/PROJECTS/Mol_Feturizer/New_Systems/rnas/4LVZ

>  <Rbt.Executable>
rbdock ($Id: //depot/dev/client3/rdock/2013.1/src/exe/rbdock.cxx#4 $)

>  <Rbt.Library>
libRbt.so (2013.1, Build901 2013/11/27)

>  <Rbt.Parameter_File>
/export/apps/rDock/src/rDock_2013.1_src/data/scripts/dock_solv.prm

>  <Rbt.Receptor>
prm/pocket_docking_7.prm

>  <SCORE>
-9.42632

>  <SCORE.INTER>
-9.42632

>  <SCORE.INTER.CONST>
1

>  <SCORE.INTER.POLAR>
0

>  <SCORE.INTER.ROT>
0

>  <SCORE.INTER.SOLV>
11.9188

>  <SCORE.INTER.VDW>
-13.8572

>  <SCORE.INTER.norm>
-0.856939

>  <SCORE.INTRA>
0

>  <SCORE.INTRA.DIHEDRAL>
0

>  <SCORE.INTRA.DIHEDRAL.0>
0

>  <SCORE.INTRA.POLAR>
0

>  <SCORE.INTRA.POLAR.0>
0

>  <SCORE.INTRA.REPUL>
0

>  <SCORE.INTRA.REPUL.0>
0

>  <SCORE.INTRA.SOLV>
0

>  <SCORE.INTRA.SOLV.lig_0>
-49.4056

>  <SCORE.INTRA.VDW>
0

>  <SCORE.INTRA.VDW.0>
0

>  <SCORE.INTRA.norm>
0

>  <SCORE.RESTR>
0

>  <SCORE.RESTR.CAVITY>
0

>  <SCORE.RESTR.norm>
0

>  <SCORE.SYSTEM>
0

>  <SCORE.SYSTEM.CONST>
0

>  <SCORE.SYSTEM.DIHEDRAL>
0

>  <SCORE.SYSTEM.SOLV>
0

>  <SCORE.SYSTEM.norm>
0

>  <SCORE.heavy>
11

>  <SCORE.norm>
-0.856939

>  <RMSD>
2.803

$$$$
ligand
 OpenBabel11021811503D
libRbt.so/2013.1/901 2013/11/27
 11 12  0  0  0  0  0  0  0  0999 V2000
    3.6727  -20.3587   25.2529 N   0  0  0  0  0  0  0  0  0  0  0  0
    3.0533  -20.6007   24.0713 C   0  0  0  0  0  0  0  0  0  0  0  0
    3.7737  -20.5200   22.8357 N   0  0  0  0  0  0  0  0  0  0  0  0
    1.7465  -20.9162   24.0315 N   0  0  0  0  0  0  0  0  0  0  0  0
    0.9991  -21.0100   25.1840 C   0  0  0  0  0  0  0  0  0  0  0  0
    1.6045  -20.7657   26.4031 C   0  0  0  0  0  0  0  0  0  0  0  0
    2.9906  -20.4274   26.4170 C   0  0  0  0  0  0  0  0  0  0  0  0
    3.6482  -20.1662   27.6608 N   0  0  0  0  0  0  0  0  0  0  0  0
    0.6295  -20.9257   27.3693 N   0  0  0  0  0  0  0  0  0  0  0  0
   -0.5320  -21.2495   26.7662 C   0  0  0  0  0  0  0  0  0  0  0  0
   -0.3338  -21.3056   25.4341 N   0  0  0  0  0  0  0  0  0  0  0  0
  1  7  2  0  0  0  0
  1  2  1  0  0  0  0
  2  3  1  0  0  0  0
  2  4  2  0  0  0  0
  4  5  1  0  0  0  0
  5  6  2  0  0  0  0
  5 11  1  0  0  0  0
  6  7  1  0  0  0  0
  6  9  1  0  0  0  0
  7  8  1  0  0  0  0
  9 10  1  0  0  0  0
 10 11  2  0  0  0  0
M  END
>  <CHROM.1>
1.95342306,-20.74539531,25.57141739,-0.64647338,0.23632880,1.49171523

>  <Name>
ligand

>  <RI>
0

>  <Rbt.Current_Directory>
/home/itssahil/PROJECTS/Mol_Feturizer/New_Systems/rnas/4LVZ

>  <Rbt.Executable>
rbdock ($Id: //depot/dev/client3/rdock/2013.1/src/exe/rbdock.cxx#4 $)

>  <Rbt.Library>
libRbt.so (2013.1, Build901 2013/11/27)

>  <Rbt.Parameter_File>
/export/apps/rDock/src/rDock_2013.1_src/data/scripts/dock_solv.prm

>  <Rbt.Receptor>
prm/pocket_docking_3.prm

>  <SCORE>
-9.42024

>  <SCORE.INTER>
-9.42024

>  <SCORE.INTER.CONST>
1

>  <SCORE.INTER.POLAR>
0

>  <SCORE.INTER.ROT>
0

>  <SCORE.INTER.SOLV>
11.7281

>  <SCORE.INTER.VDW>
-13.7895

>  <SCORE.INTER.norm>
-0.856385

>  <SCORE.INTRA>
0

>  <SCORE.INTRA.DIHEDRAL>
0

>  <SCORE.INTRA.DIHEDRAL.0>
0

>  <SCORE.INTRA.POLAR>
0

>  <SCORE.INTRA.POLAR.0>
0

>  <SCORE.INTRA.REPUL>
0

>  <SCORE.INTRA.REPUL.0>
0

>  <SCORE.INTRA.SOLV>
0

>  <SCORE.INTRA.SOLV.lig_0>
-49.4056

>  <SCORE.INTRA.VDW>
0

>  <SCORE.INTRA.VDW.0>
0

>  <SCORE.INTRA.norm>
0

>  <SCORE.RESTR>
0

>  <SCORE.RESTR.CAVITY>
0

>  <SCORE.RESTR.norm>
0

>  <SCORE.SYSTEM>
0

>  <SCORE.SYSTEM.CONST>
0

>  <SCORE.SYSTEM.DIHEDRAL>
0

>  <SCORE.SYSTEM.SOLV>
0

>  <SCORE.SYSTEM.norm>
0

>  <SCORE.heavy>
11

>  <SCORE.norm>
-0.856385

>  <RMSD>
2.804

$$$$
ligand
 OpenBabel11021811503D
libRbt.so/2013.1/901 2013/11/27
 11 12  0  0  0  0  0  0  0  0999 V2000
    3.6193  -20.2464   25.2533 N   0  0  0  0  0  0  0  0  0  0  0  0
    3.0216  -20.5603   24.0773 C   0  0  0  0  0  0  0  0  0  0  0  0
    3.7485  -20.4939   22.8448 N   0  0  0  0  0  0  0  0  0  0  0  0
    1.7306  -20.9356   24.0404 N   0  0  0  0  0  0  0  0  0  0  0  0
    0.9781  -21.0194   25.1903 C   0  0  0  0  0  0  0  0  0  0  0  0
    1.5613  -20.7024   26.4035 C   0  0  0  0  0  0  0  0  0  0  0  0
    2.9307  -20.3017   26.4142 C   0  0  0  0  0  0  0  0  0  0  0  0
    3.5651  -19.9646   27.6519 N   0  0  0  0  0  0  0  0  0  0  0  0
    0.5860  -20.8696   27.3682 N   0  0  0  0  0  0  0  0  0  0  0  0
   -0.5546  -21.2677   26.7696 C   0  0  0  0  0  0  0  0  0  0  0  0
   -0.3424  -21.3650   25.4421 N   0  0  0  0  0  0  0  0  0  0  0  0
  1  7  2  0  0  0  0
  1  2  1  0  0  0  0
  2  3  1  0  0  0  0
  2  4  2  0  0  0  0
  4  5  1  0  0  0  0
  5  6  2  0  0  0  0
  5 11  1  0  0  0  0
  6  7  1  0  0  0  0
  6  9  1  0  0  0  0
  7  8  1  0  0  0  0
  9 10  1  0  0  0  0
 10 11  2  0  0  0  0
M  END
>  <CHROM.1>
1.91620883,-20.69772091,25.57411825,-0.63371378,0.28018147,1.45056655

>  <Name>
ligand

>  <RI>
0

>  <Rbt.Current_Directory>
/home/itssahil/PROJECTS/Mol_Feturizer/New_Systems/rnas/4LVZ

>  <Rbt.Executable>
rbdock ($Id: //depot/dev/client3/rdock/2013.1/src/exe/rbdock.cxx#4 $)

>  <Rbt.Library>
libRbt.so (2013.1, Build901 2013/11/27)

>  <Rbt.Parameter_File>
/export/apps/rDock/src/rDock_2013.1_src/data/scripts/dock_solv.prm

>  <Rbt.Receptor>
prm/pocket_docking_5.prm

>  <SCORE>
-9.41272

>  <SCORE.INTER>
-9.41272

>  <SCORE.INTER.CONST>
1

>  <SCORE.INTER.POLAR>
0

>  <SCORE.INTER.ROT>
0

>  <SCORE.INTER.SOLV>
12.3253

>  <SCORE.INTER.VDW>
-13.9836

>  <SCORE.INTER.norm>
-0.855702

>  <SCORE.INTRA>
0

>  <SCORE.INTRA.DIHEDRAL>
0

>  <SCORE.INTRA.DIHEDRAL.0>
0

>  <SCORE.INTRA.POLAR>
0

>  <SCORE.INTRA.POLAR.0>
0

>  <SCORE.INTRA.REPUL>
0

>  <SCORE.INTRA.REPUL.0>
0

>  <SCORE.INTRA.SOLV>
0

>  <SCORE.INTRA.SOLV.lig_0>
-49.4056

>  <SCORE.INTRA.VDW>
0

>  <SCORE.INTRA.VDW.0>
0

>  <SCORE.INTRA.norm>
0

>  <SCORE.RESTR>
0

>  <SCORE.RESTR.CAVITY>
0

>  <SCORE.RESTR.norm>
0

>  <SCORE.SYSTEM>
0

>  <SCORE.SYSTEM.CONST>
0

>  <SCORE.SYSTEM.DIHEDRAL>
0

>  <SCORE.SYSTEM.SOLV>
0

>  <SCORE.SYSTEM.norm>
0

>  <SCORE.heavy>
11

>  <SCORE.norm>
-0.855702

>  <RMSD>
2.804

$$$$
ligand
 OpenBabel11021811503D
libRbt.so/2013.1/901 2013/11/27
 11 12  0  0  0  0  0  0  0  0999 V2000
    3.6472  -20.3761   25.2597 N   0  0  0  0  0  0  0  0  0  0  0  0
    3.0324  -20.6060   24.0732 C   0  0  0  0  0  0  0  0  0  0  0  0
    3.7622  -20.5319   22.8428 N   0  0  0  0  0  0  0  0  0  0  0  0
    1.7217  -20.9031   24.0238 N   0  0  0  0  0  0  0  0  0  0  0  0
    0.9653  -20.9898   25.1710 C   0  0  0  0  0  0  0  0  0  0  0  0
    1.5659  -20.7574   26.3948 C   0  0  0  0  0  0  0  0  0  0  0  0
    2.9564  -20.4385   26.4190 C   0  0  0  0  0  0  0  0  0  0  0  0
    3.6092  -20.1901   27.6680 N   0  0  0  0  0  0  0  0  0  0  0  0
    0.5822  -20.9065   27.3540 N   0  0  0  0  0  0  0  0  0  0  0  0
   -0.5796  -21.2123   26.7422 C   0  0  0  0  0  0  0  0  0  0  0  0
   -0.3732  -21.2674   25.4113 N   0  0  0  0  0  0  0  0  0  0  0  0
  1  7  2  0  0  0  0
  1  2  1  0  0  0  0
  2  3  1  0  0  0  0
  2  4  2  0  0  0  0
  4  5  1  0  0  0  0
  5  6  2  0  0  0  0
  5 11  1  0  0  0  0
  6  7  1  0  0  0  0
  6  9  1  0  0  0  0
  7  8  1  0  0  0  0
  9 10  1  0  0  0  0
 10 11  2  0  0  0  0
M  END
>  <CHROM.1>
1.92060368,-20.73958613,25.56557086,-0.64072634,0.22190065,1.49329132

>  <Name>
ligand

>  <RI>
0

>  <Rbt.Current_Directory>
/home/itssahil/PROJECTS/Mol_Feturizer/New_Systems/rnas/4LVZ

>  <Rbt.Executable>
rbdock ($Id: //depot/dev/client3/rdock/2013.1/src/exe/rbdock.cxx#4 $)

>  <Rbt.Library>
libRbt.so (2013.1, Build901 2013/11/27)

>  <Rbt.Parameter_File>
/export/apps/rDock/src/rDock_2013.1_src/data/scripts/dock_solv.prm

>  <Rbt.Receptor>
prm/pocket_docking_8.prm

>  <SCORE>
-9.40518

>  <SCORE.INTER>
-9.40518

>  <SCORE.INTER.CONST>
1

>  <SCORE.INTER.POLAR>
0

>  <SCORE.INTER.ROT>
0

>  <SCORE.INTER.SOLV>
11.8935

>  <SCORE.INTER.VDW>
-13.8346

>  <SCORE.INTER.norm>
-0.855016

>  <SCORE.INTRA>
0

>  <SCORE.INTRA.DIHEDRAL>
0

>  <SCORE.INTRA.DIHEDRAL.0>
0

>  <SCORE.INTRA.POLAR>
0

>  <SCORE.INTRA.POLAR.0>
0

>  <SCORE.INTRA.REPUL>
0

>  <SCORE.INTRA.REPUL.0>
0

>  <SCORE.INTRA.SOLV>
0

>  <SCORE.INTRA.SOLV.lig_0>
-49.4056

>  <SCORE.INTRA.VDW>
0

>  <SCORE.INTRA.VDW.0>
0

>  <SCORE.INTRA.norm>
0

>  <SCORE.RESTR>
0

>  <SCORE.RESTR.CAVITY>
0

>  <SCORE.RESTR.norm>
0

>  <SCORE.SYSTEM>
0

>  <SCORE.SYSTEM.CONST>
0

>  <SCORE.SYSTEM.DIHEDRAL>
0

>  <SCORE.SYSTEM.SOLV>
0

>  <SCORE.SYSTEM.norm>
0

>  <SCORE.heavy>
11

>  <SCORE.norm>
-0.855016

>  <RMSD>
2.804

$$$$
ligand
 OpenBabel11021811503D
libRbt.so/2013.1/901 2013/11/27
 11 12  0  0  0  0  0  0  0  0999 V2000
    3.7323  -20.4715   25.3433 N   0  0  0  0  0  0  0  0  0  0  0  0
    3.2028  -20.7049   24.1171 C   0  0  0  0  0  0  0  0  0  0  0  0
    4.0302  -20.6983   22.9478 N   0  0  0  0  0  0  0  0  0  0  0  0
    1.8872  -20.9421   23.9696 N   0  0  0  0  0  0  0  0  0  0  0  0
    1.0392  -20.9622   25.0542 C   0  0  0  0  0  0  0  0  0  0  0  0
    1.5517  -20.7247   26.3164 C   0  0  0  0  0  0  0  0  0  0  0  0
    2.9498  -20.4702   26.4446 C   0  0  0  0  0  0  0  0  0  0  0  0
    3.5132  -20.2184   27.7357 N   0  0  0  0  0  0  0  0  0  0  0  0
    0.4893  -20.8018   27.1969 N   0  0  0  0  0  0  0  0  0  0  0  0
   -0.6340  -21.0699   26.5012 C   0  0  0  0  0  0  0  0  0  0  0  0
   -0.3260  -21.1708   25.1928 N   0  0  0  0  0  0  0  0  0  0  0  0
  1  7  2  0  0  0  0
  1  2  1  0  0  0  0
  2  3  1  0  0  0  0
  2  4  2  0  0  0  0
  4  5  1  0  0  0  0
  5  6  2  0  0  0  0
  5 11  1  0  0  0  0
  6  7  1  0  0  0  0
  6  9  1  0  0  0  0
  7  8  1  0  0  0  0
  9 10  1  0  0  0  0
 10 11  2  0  0  0  0
M  END
>  <CHROM.1>
1.97133899,-20.74600610,25.51813830,-0.56456402,0.16681389,1.45315011

>  <Name>
ligand

>  <RI>
0

>  <Rbt.Current_Directory>
/home/itssahil/PROJECTS/Mol_Feturizer/New_Systems/rnas/4LVZ

>  <Rbt.Executable>
rbdock ($Id: //depot/dev/client3/rdock/2013.1/src/exe/rbdock.cxx#4 $)

>  <Rbt.Library>
libRbt.so (2013.1, Build901 2013/11/27)

>  <Rbt.Parameter_File>
/export/apps/rDock/src/rDock_2013.1_src/data/scripts/dock_solv.prm

>  <Rbt.Receptor>
prm/pocket_docking_8.prm

>  <SCORE>
-9.4768

>  <SCORE.INTER>
-9.4768

>  <SCORE.INTER.CONST>
1

>  <SCORE.INTER.POLAR>
0

>  <SCORE.INTER.ROT>
0

>  <SCORE.INTER.SOLV>
11.2286

>  <SCORE.INTER.VDW>
-13.6607

>  <SCORE.INTER.norm>
-0.861527

>  <SCORE.INTRA>
0

>  <SCORE.INTRA.DIHEDRAL>
0

>  <SCORE.INTRA.DIHEDRAL.0>
0

>  <SCORE.INTRA.POLAR>
0

>  <SCORE.INTRA.POLAR.0>
0

>  <SCORE.INTRA.REPUL>
0

>  <SCORE.INTRA.REPUL.0>
0

>  <SCORE.INTRA.SOLV>
0

>  <SCORE.INTRA.SOLV.lig_0>
-49.4056

>  <SCORE.INTRA.VDW>
0

>  <SCORE.INTRA.VDW.0>
0

>  <SCORE.INTRA.norm>
0

>  <SCORE.RESTR>
0

>  <SCORE.RESTR.CAVITY>
0

>  <SCORE.RESTR.norm>
0

>  <SCORE.SYSTEM>
0

>  <SCORE.SYSTEM.CONST>
0

>  <SCORE.SYSTEM.DIHEDRAL>
0

>  <SCORE.SYSTEM.SOLV>
0

>  <SCORE.SYSTEM.norm>
0

>  <SCORE.heavy>
11

>  <SCORE.norm>
-0.861527

>  <RMSD>
2.804

$$$$
ligand
 OpenBabel11021811503D
libRbt.so/2013.1/901 2013/11/27
 11 12  0  0  0  0  0  0  0  0999 V2000
    3.6470  -20.2956   25.2357 N   0  0  0  0  0  0  0  0  0  0  0  0
    3.0209  -20.5669   24.0640 C   0  0  0  0  0  0  0  0  0  0  0  0
    3.7256  -20.4831   22.8196 N   0  0  0  0  0  0  0  0  0  0  0  0
    1.7221  -20.9154   24.0425 N   0  0  0  0  0  0  0  0  0  0  0  0
    0.9899  -21.0141   25.2043 C   0  0  0  0  0  0  0  0  0  0  0  0
    1.6023  -20.7402   26.4136 C   0  0  0  0  0  0  0  0  0  0  0  0
    2.9795  -20.3673   26.4081 C   0  0  0  0  0  0  0  0  0  0  0  0
    3.6439  -20.0751   27.6414 N   0  0  0  0  0  0  0  0  0  0  0  0
    0.6422  -20.9130   27.3925 N   0  0  0  0  0  0  0  0  0  0  0  0
   -0.5174  -21.2727   26.8063 C   0  0  0  0  0  0  0  0  0  0  0  0
   -0.3323  -21.3397   25.4728 N   0  0  0  0  0  0  0  0  0  0  0  0
  1  7  2  0  0  0  0
  1  2  1  0  0  0  0
  2  3  1  0  0  0  0
  2  4  2  0  0  0  0
  4  5  1  0  0  0  0
  5  6  2  0  0  0  0
  5 11  1  0  0  0  0
  6  7  1  0  0  0  0
  6  9  1  0  0  0  0
  7  8  1  0  0  0  0
  9 10  1  0  0  0  0
 10 11  2  0  0  0  0
M  END
>  <CHROM.1>
1.94147952,-20.72112745,25.57794304,-0.65568163,0.26214667,1.48221186

>  <Name>
ligand

>  <RI>
0

>  <Rbt.Current_Directory>
/home/itssahil/PROJECTS/Mol_Feturizer/New_Systems/rnas/4LVZ

>  <Rbt.Executable>
rbdock ($Id: //depot/dev/client3/rdock/2013.1/src/exe/rbdock.cxx#4 $)

>  <Rbt.Library>
libRbt.so (2013.1, Build901 2013/11/27)

>  <Rbt.Parameter_File>
/export/apps/rDock/src/rDock_2013.1_src/data/scripts/dock_solv.prm

>  <Rbt.Receptor>
prm/pocket_docking_4.prm

>  <SCORE>
-9.38578

>  <SCORE.INTER>
-9.38578

>  <SCORE.INTER.CONST>
1

>  <SCORE.INTER.POLAR>
0

>  <SCORE.INTER.ROT>
0

>  <SCORE.INTER.SOLV>
12.0139

>  <SCORE.INTER.VDW>
-13.8618

>  <SCORE.INTER.norm>
-0.853253

>  <SCORE.INTRA>
0

>  <SCORE.INTRA.DIHEDRAL>
0

>  <SCORE.INTRA.DIHEDRAL.0>
0

>  <SCORE.INTRA.POLAR>
0

>  <SCORE.INTRA.POLAR.0>
0

>  <SCORE.INTRA.REPUL>
0

>  <SCORE.INTRA.REPUL.0>
0

>  <SCORE.INTRA.SOLV>
0

>  <SCORE.INTRA.SOLV.lig_0>
-49.4056

>  <SCORE.INTRA.VDW>
0

>  <SCORE.INTRA.VDW.0>
0

>  <SCORE.INTRA.norm>
0

>  <SCORE.RESTR>
0

>  <SCORE.RESTR.CAVITY>
0

>  <SCORE.RESTR.norm>
0

>  <SCORE.SYSTEM>
0

>  <SCORE.SYSTEM.CONST>
0

>  <SCORE.SYSTEM.DIHEDRAL>
0

>  <SCORE.SYSTEM.SOLV>
0

>  <SCORE.SYSTEM.norm>
0

>  <SCORE.heavy>
11

>  <SCORE.norm>
-0.853253

>  <RMSD>
2.805

$$$$
ligand
 OpenBabel11021811503D
libRbt.so/2013.1/901 2013/11/27
 11 12  0  0  0  0  0  0  0  0999 V2000
    3.6559  -20.3475   25.2421 N   0  0  0  0  0  0  0  0  0  0  0  0
    3.0265  -20.5908   24.0660 C   0  0  0  0  0  0  0  0  0  0  0  0
    3.7350  -20.5053   22.8239 N   0  0  0  0  0  0  0  0  0  0  0  0
    1.7209  -20.9122   24.0380 N   0  0  0  0  0  0  0  0  0  0  0  0
    0.9847  -21.0109   25.1974 C   0  0  0  0  0  0  0  0  0  0  0  0
    1.6004  -20.7654   26.4110 C   0  0  0  0  0  0  0  0  0  0  0  0
    2.9850  -20.4207   26.4124 C   0  0  0  0  0  0  0  0  0  0  0  0
    3.6530  -20.1582   27.6504 N   0  0  0  0  0  0  0  0  0  0  0  0
    0.6352  -20.9310   27.3861 N   0  0  0  0  0  0  0  0  0  0  0  0
   -0.5305  -21.2593   26.7935 C   0  0  0  0  0  0  0  0  0  0  0  0
   -0.3444  -21.3129   25.4595 N   0  0  0  0  0  0  0  0  0  0  0  0
  1  7  2  0  0  0  0
  1  2  1  0  0  0  0
  2  3  1  0  0  0  0
  2  4  2  0  0  0  0
  4  5  1  0  0  0  0
  5  6  2  0  0  0  0
  5 11  1  0  0  0  0
  6  7  1  0  0  0  0
  6  9  1  0  0  0  0
  7  8  1  0  0  0  0
  9 10  1  0  0  0  0
 10 11  2  0  0  0  0
M  END
>  <CHROM.1>
1.94140939,-20.74238682,25.57618341,-0.65569656,0.24158995,1.49518925

>  <Name>
ligand

>  <RI>
0

>  <Rbt.Current_Directory>
/home/itssahil/PROJECTS/Mol_Feturizer/New_Systems/rnas/4LVZ

>  <Rbt.Executable>
rbdock ($Id: //depot/dev/client3/rdock/2013.1/src/exe/rbdock.cxx#4 $)

>  <Rbt.Library>
libRbt.so (2013.1, Build901 2013/11/27)

>  <Rbt.Parameter_File>
/export/apps/rDock/src/rDock_2013.1_src/data/scripts/dock_solv.prm

>  <Rbt.Receptor>
prm/pocket_docking_5.prm

>  <SCORE>
-9.44017

>  <SCORE.INTER>
-9.44017

>  <SCORE.INTER.CONST>
1

>  <SCORE.INTER.POLAR>
0

>  <SCORE.INTER.ROT>
0

>  <SCORE.INTER.SOLV>
11.8695

>  <SCORE.INTER.VDW>
-13.8499

>  <SCORE.INTER.norm>
-0.858197

>  <SCORE.INTRA>
0

>  <SCORE.INTRA.DIHEDRAL>
0

>  <SCORE.INTRA.DIHEDRAL.0>
0

>  <SCORE.INTRA.POLAR>
0

>  <SCORE.INTRA.POLAR.0>
0

>  <SCORE.INTRA.REPUL>
0

>  <SCORE.INTRA.REPUL.0>
0

>  <SCORE.INTRA.SOLV>
0

>  <SCORE.INTRA.SOLV.lig_0>
-49.4056

>  <SCORE.INTRA.VDW>
0

>  <SCORE.INTRA.VDW.0>
0

>  <SCORE.INTRA.norm>
0

>  <SCORE.RESTR>
0

>  <SCORE.RESTR.CAVITY>
0

>  <SCORE.RESTR.norm>
0

>  <SCORE.SYSTEM>
0

>  <SCORE.SYSTEM.CONST>
0

>  <SCORE.SYSTEM.DIHEDRAL>
0

>  <SCORE.SYSTEM.SOLV>
0

>  <SCORE.SYSTEM.norm>
0

>  <SCORE.heavy>
11

>  <SCORE.norm>
-0.858197

>  <RMSD>
2.805

$$$$
ligand
 OpenBabel11021811503D
libRbt.so/2013.1/901 2013/11/27
 11 12  0  0  0  0  0  0  0  0999 V2000
    3.6509  -20.3983   25.2751 N   0  0  0  0  0  0  0  0  0  0  0  0
    3.0412  -20.6326   24.0868 C   0  0  0  0  0  0  0  0  0  0  0  0
    3.7767  -20.5652   22.8595 N   0  0  0  0  0  0  0  0  0  0  0  0
    1.7302  -20.9279   24.0327 N   0  0  0  0  0  0  0  0  0  0  0  0
    0.9685  -21.0082   25.1768 C   0  0  0  0  0  0  0  0  0  0  0  0
    1.5638  -20.7713   26.4023 C   0  0  0  0  0  0  0  0  0  0  0  0
    2.9547  -20.4544   26.4314 C   0  0  0  0  0  0  0  0  0  0  0  0
    3.6022  -20.2014   27.6823 N   0  0  0  0  0  0  0  0  0  0  0  0
    0.5755  -20.9146   27.3577 N   0  0  0  0  0  0  0  0  0  0  0  0
   -0.5840  -21.2213   26.7419 C   0  0  0  0  0  0  0  0  0  0  0  0
   -0.3715  -21.2827   25.4123 N   0  0  0  0  0  0  0  0  0  0  0  0
  1  7  2  0  0  0  0
  1  2  1  0  0  0  0
  2  3  1  0  0  0  0
  2  4  2  0  0  0  0
  4  5  1  0  0  0  0
  5  6  2  0  0  0  0
  5 11  1  0  0  0  0
  6  7  1  0  0  0  0
  6  9  1  0  0  0  0
  7  8  1  0  0  0  0
  9 10  1  0  0  0  0
 10 11  2  0  0  0  0
M  END
>  <CHROM.1>
1.92234822,-20.75775046,25.57465833,-0.63617740,0.21996719,1.48780771

>  <Name>
ligand

>  <RI>
0

>  <Rbt.Current_Directory>
/home/itssahil/PROJECTS/Mol_Feturizer/New_Systems/rnas/4LVZ

>  <Rbt.Executable>
rbdock ($Id: //depot/dev/client3/rdock/2013.1/src/exe/rbdock.cxx#4 $)

>  <Rbt.Library>
libRbt.so (2013.1, Build901 2013/11/27)

>  <Rbt.Parameter_File>
/export/apps/rDock/src/rDock_2013.1_src/data/scripts/dock_solv.prm

>  <Rbt.Receptor>
prm/pocket_docking_5.prm

>  <SCORE>
-9.43971

>  <SCORE.INTER>
-9.43971

>  <SCORE.INTER.CONST>
1

>  <SCORE.INTER.POLAR>
0

>  <SCORE.INTER.ROT>
0

>  <SCORE.INTER.SOLV>
11.907

>  <SCORE.INTER.VDW>
-13.8621

>  <SCORE.INTER.norm>
-0.858156

>  <SCORE.INTRA>
0

>  <SCORE.INTRA.DIHEDRAL>
0

>  <SCORE.INTRA.DIHEDRAL.0>
0

>  <SCORE.INTRA.POLAR>
0

>  <SCORE.INTRA.POLAR.0>
0

>  <SCORE.INTRA.REPUL>
0

>  <SCORE.INTRA.REPUL.0>
0

>  <SCORE.INTRA.SOLV>
0

>  <SCORE.INTRA.SOLV.lig_0>
-49.4056

>  <SCORE.INTRA.VDW>
0

>  <SCORE.INTRA.VDW.0>
0

>  <SCORE.INTRA.norm>
0

>  <SCORE.RESTR>
0

>  <SCORE.RESTR.CAVITY>
0

>  <SCORE.RESTR.norm>
0

>  <SCORE.SYSTEM>
0

>  <SCORE.SYSTEM.CONST>
0

>  <SCORE.SYSTEM.DIHEDRAL>
0

>  <SCORE.SYSTEM.SOLV>
0

>  <SCORE.SYSTEM.norm>
0

>  <SCORE.heavy>
11

>  <SCORE.norm>
-0.858156

>  <RMSD>
2.805

$$$$
ligand
 OpenBabel11021811503D
libRbt.so/2013.1/901 2013/11/27
 11 12  0  0  0  0  0  0  0  0999 V2000
    3.6168  -20.2495   25.2508 N   0  0  0  0  0  0  0  0  0  0  0  0
    3.0194  -20.5603   24.0739 C   0  0  0  0  0  0  0  0  0  0  0  0
    3.7475  -20.4939   22.8420 N   0  0  0  0  0  0  0  0  0  0  0  0
    1.7276  -20.9324   24.0353 N   0  0  0  0  0  0  0  0  0  0  0  0
    0.9739  -21.0162   25.1845 C   0  0  0  0  0  0  0  0  0  0  0  0
    1.5568  -20.7023   26.3986 C   0  0  0  0  0  0  0  0  0  0  0  0
    2.9271  -20.3049   26.4111 C   0  0  0  0  0  0  0  0  0  0  0  0
    3.5613  -19.9710   27.6498 N   0  0  0  0  0  0  0  0  0  0  0  0
    0.5803  -20.8686   27.3622 N   0  0  0  0  0  0  0  0  0  0  0  0
   -0.5607  -21.2632   26.7621 C   0  0  0  0  0  0  0  0  0  0  0  0
   -0.3476  -21.3591   25.4346 N   0  0  0  0  0  0  0  0  0  0  0  0
  1  7  2  0  0  0  0
  1  2  1  0  0  0  0
  2  3  1  0  0  0  0
  2  4  2  0  0  0  0
  4  5  1  0  0  0  0
  5  6  2  0  0  0  0
  5 11  1  0  0  0  0
  6  7  1  0  0  0  0
  6  9  1  0  0  0  0
  7  8  1  0  0  0  0
  9 10  1  0  0  0  0
 10 11  2  0  0  0  0
M  END
>  <CHROM.1>
1.91244092,-20.69727131,25.56952407,-0.63313495,0.27773744,1.45186349

>  <Name>
ligand

>  <RI>
0

>  <Rbt.Current_Directory>
/home/itssahil/PROJECTS/Mol_Feturizer/New_Systems/rnas/4LVZ

>  <Rbt.Executable>
rbdock ($Id: //depot/dev/client3/rdock/2013.1/src/exe/rbdock.cxx#4 $)

>  <Rbt.Library>
libRbt.so (2013.1, Build901 2013/11/27)

>  <Rbt.Parameter_File>
/export/apps/rDock/src/rDock_2013.1_src/data/scripts/dock_solv.prm

>  <Rbt.Receptor>
prm/pocket_docking_5.prm

>  <SCORE>
-9.41237

>  <SCORE.INTER>
-9.41237

>  <SCORE.INTER.CONST>
1

>  <SCORE.INTER.POLAR>
0

>  <SCORE.INTER.ROT>
0

>  <SCORE.INTER.SOLV>
12.3279

>  <SCORE.INTER.VDW>
-13.9842

>  <SCORE.INTER.norm>
-0.85567

>  <SCORE.INTRA>
0

>  <SCORE.INTRA.DIHEDRAL>
0

>  <SCORE.INTRA.DIHEDRAL.0>
0

>  <SCORE.INTRA.POLAR>
0

>  <SCORE.INTRA.POLAR.0>
0

>  <SCORE.INTRA.REPUL>
0

>  <SCORE.INTRA.REPUL.0>
0

>  <SCORE.INTRA.SOLV>
0

>  <SCORE.INTRA.SOLV.lig_0>
-49.4056

>  <SCORE.INTRA.VDW>
0

>  <SCORE.INTRA.VDW.0>
0

>  <SCORE.INTRA.norm>
0

>  <SCORE.RESTR>
0

>  <SCORE.RESTR.CAVITY>
0

>  <SCORE.RESTR.norm>
0

>  <SCORE.SYSTEM>
0

>  <SCORE.SYSTEM.CONST>
0

>  <SCORE.SYSTEM.DIHEDRAL>
0

>  <SCORE.SYSTEM.SOLV>
0

>  <SCORE.SYSTEM.norm>
0

>  <SCORE.heavy>
11

>  <SCORE.norm>
-0.85567

>  <RMSD>
2.805

$$$$
ligand
 OpenBabel11021811503D
libRbt.so/2013.1/901 2013/11/27
 11 12  0  0  0  0  0  0  0  0999 V2000
    3.7121  -20.3459   25.3109 N   0  0  0  0  0  0  0  0  0  0  0  0
    3.1861  -20.6753   24.1053 C   0  0  0  0  0  0  0  0  0  0  0  0
    4.0074  -20.7120   22.9323 N   0  0  0  0  0  0  0  0  0  0  0  0
    1.8795  -20.9695   23.9821 N   0  0  0  0  0  0  0  0  0  0  0  0
    1.0378  -20.9525   25.0715 C   0  0  0  0  0  0  0  0  0  0  0  0
    1.5468  -20.6173   26.3128 C   0  0  0  0  0  0  0  0  0  0  0  0
    2.9351  -20.3039   26.4152 C   0  0  0  0  0  0  0  0  0  0  0  0
    3.4945  -19.9508   27.6841 N   0  0  0  0  0  0  0  0  0  0  0  0
    0.4920  -20.6778   27.2036 N   0  0  0  0  0  0  0  0  0  0  0  0
   -0.6237  -21.0303   26.5338 C   0  0  0  0  0  0  0  0  0  0  0  0
   -0.3180  -21.2019   25.2322 N   0  0  0  0  0  0  0  0  0  0  0  0
  1  7  2  0  0  0  0
  1  2  1  0  0  0  0
  2  3  1  0  0  0  0
  2  4  2  0  0  0  0
  4  5  1  0  0  0  0
  5  6  2  0  0  0  0
  5 11  1  0  0  0  0
  6  7  1  0  0  0  0
  6  9  1  0  0  0  0
  7  8  1  0  0  0  0
  9 10  1  0  0  0  0
 10 11  2  0  0  0  0
M  END
>  <CHROM.1>
1.96334785,-20.67335848,25.51458838,-0.56468866,0.20421057,1.39024941

>  <Name>
ligand

>  <RI>
0

>  <Rbt.Current_Directory>
/home/itssahil/PROJECTS/Mol_Feturizer/New_Systems/rnas/4LVZ

>  <Rbt.Executable>
rbdock ($Id: //depot/dev/client3/rdock/2013.1/src/exe/rbdock.cxx#4 $)

>  <Rbt.Library>
libRbt.so (2013.1, Build901 2013/11/27)

>  <Rbt.Parameter_File>
/export/apps/rDock/src/rDock_2013.1_src/data/scripts/dock_solv.prm

>  <Rbt.Receptor>
prm/pocket_docking_3.prm

>  <SCORE>
-9.38061

>  <SCORE.INTER>
-9.38061

>  <SCORE.INTER.CONST>
1

>  <SCORE.INTER.POLAR>
0

>  <SCORE.INTER.ROT>
0

>  <SCORE.INTER.SOLV>
11.6892

>  <SCORE.INTER.VDW>
-13.7501

>  <SCORE.INTER.norm>
-0.852783

>  <SCORE.INTRA>
0

>  <SCORE.INTRA.DIHEDRAL>
0

>  <SCORE.INTRA.DIHEDRAL.0>
0

>  <SCORE.INTRA.POLAR>
0

>  <SCORE.INTRA.POLAR.0>
0

>  <SCORE.INTRA.REPUL>
0

>  <SCORE.INTRA.REPUL.0>
0

>  <SCORE.INTRA.SOLV>
0

>  <SCORE.INTRA.SOLV.lig_0>
-49.4056

>  <SCORE.INTRA.VDW>
0

>  <SCORE.INTRA.VDW.0>
0

>  <SCORE.INTRA.norm>
0

>  <SCORE.RESTR>
0

>  <SCORE.RESTR.CAVITY>
0

>  <SCORE.RESTR.norm>
0

>  <SCORE.SYSTEM>
0

>  <SCORE.SYSTEM.CONST>
0

>  <SCORE.SYSTEM.DIHEDRAL>
0

>  <SCORE.SYSTEM.SOLV>
0

>  <SCORE.SYSTEM.norm>
0

>  <SCORE.heavy>
11

>  <SCORE.norm>
-0.852783

>  <RMSD>
2.806

$$$$
ligand
 OpenBabel11021811503D
libRbt.so/2013.1/901 2013/11/27
 11 12  0  0  0  0  0  0  0  0999 V2000
    3.6139  -20.2486   25.2481 N   0  0  0  0  0  0  0  0  0  0  0  0
    3.0171  -20.5635   24.0720 C   0  0  0  0  0  0  0  0  0  0  0  0
    3.7448  -20.4982   22.8399 N   0  0  0  0  0  0  0  0  0  0  0  0
    1.7261  -20.9388   24.0345 N   0  0  0  0  0  0  0  0  0  0  0  0
    0.9728  -21.0216   25.1840 C   0  0  0  0  0  0  0  0  0  0  0  0
    1.5552  -20.7036   26.3973 C   0  0  0  0  0  0  0  0  0  0  0  0
    2.9245  -20.3029   26.4087 C   0  0  0  0  0  0  0  0  0  0  0  0
    3.5581  -19.9647   27.6465 N   0  0  0  0  0  0  0  0  0  0  0  0
    0.5792  -20.8699   27.3614 N   0  0  0  0  0  0  0  0  0  0  0  0
   -0.5610  -21.2686   26.7624 C   0  0  0  0  0  0  0  0  0  0  0  0
   -0.3478  -21.3670   25.4351 N   0  0  0  0  0  0  0  0  0  0  0  0
  1  7  2  0  0  0  0
  1  2  1  0  0  0  0
  2  3  1  0  0  0  0
  2  4  2  0  0  0  0
  4  5  1  0  0  0  0
  5  6  2  0  0  0  0
  5 11  1  0  0  0  0
  6  7  1  0  0  0  0
  6  9  1  0  0  0  0
  7  8  1  0  0  0  0
  9 10  1  0  0  0  0
 10 11  2  0  0  0  0
M  END
>  <CHROM.1>
1.91066505,-20.69961626,25.56815756,-0.63299533,0.28008220,1.44951854

>  <Name>
ligand

>  <RI>
0

>  <Rbt.Current_Directory>
/home/itssahil/PROJECTS/Mol_Feturizer/New_Systems/rnas/4LVZ

>  <Rbt.Executable>
rbdock ($Id: //depot/dev/client3/rdock/2013.1/src/exe/rbdock.cxx#4 $)

>  <Rbt.Library>
libRbt.so (2013.1, Build901 2013/11/27)

>  <Rbt.Parameter_File>
/export/apps/rDock/src/rDock_2013.1_src/data/scripts/dock_solv.prm

>  <Rbt.Receptor>
prm/pocket_docking_4.prm

>  <SCORE>
-9.41243

>  <SCORE.INTER>
-9.41243

>  <SCORE.INTER.CONST>
1

>  <SCORE.INTER.POLAR>
0

>  <SCORE.INTER.ROT>
0

>  <SCORE.INTER.SOLV>
12.3548

>  <SCORE.INTER.VDW>
-13.9932

>  <SCORE.INTER.norm>
-0.855676

>  <SCORE.INTRA>
0

>  <SCORE.INTRA.DIHEDRAL>
0

>  <SCORE.INTRA.DIHEDRAL.0>
0

>  <SCORE.INTRA.POLAR>
0

>  <SCORE.INTRA.POLAR.0>
0

>  <SCORE.INTRA.REPUL>
0

>  <SCORE.INTRA.REPUL.0>
0

>  <SCORE.INTRA.SOLV>
0

>  <SCORE.INTRA.SOLV.lig_0>
-49.4056

>  <SCORE.INTRA.VDW>
0

>  <SCORE.INTRA.VDW.0>
0

>  <SCORE.INTRA.norm>
0

>  <SCORE.RESTR>
0

>  <SCORE.RESTR.CAVITY>
0

>  <SCORE.RESTR.norm>
0

>  <SCORE.SYSTEM>
0

>  <SCORE.SYSTEM.CONST>
0

>  <SCORE.SYSTEM.DIHEDRAL>
0

>  <SCORE.SYSTEM.SOLV>
0

>  <SCORE.SYSTEM.norm>
0

>  <SCORE.heavy>
11

>  <SCORE.norm>
-0.855676

>  <RMSD>
2.806

$$$$
ligand
 OpenBabel11021811503D
libRbt.so/2013.1/901 2013/11/27
 11 12  0  0  0  0  0  0  0  0999 V2000
    3.7422  -20.4955   25.3321 N   0  0  0  0  0  0  0  0  0  0  0  0
    3.2082  -20.7222   24.1065 C   0  0  0  0  0  0  0  0  0  0  0  0
    4.0331  -20.7197   22.9355 N   0  0  0  0  0  0  0  0  0  0  0  0
    1.8904  -20.9487   23.9614 N   0  0  0  0  0  0  0  0  0  0  0  0
    1.0447  -20.9645   25.0477 C   0  0  0  0  0  0  0  0  0  0  0  0
    1.5617  -20.7336   26.3094 C   0  0  0  0  0  0  0  0  0  0  0  0
    2.9620  -20.4903   26.4350 C   0  0  0  0  0  0  0  0  0  0  0  0
    3.5301  -20.2457   27.7255 N   0  0  0  0  0  0  0  0  0  0  0  0
    0.5006  -20.8042   27.1919 N   0  0  0  0  0  0  0  0  0  0  0  0
   -0.6263  -21.0620   26.4980 C   0  0  0  0  0  0  0  0  0  0  0  0
   -0.3218  -21.1626   25.1888 N   0  0  0  0  0  0  0  0  0  0  0  0
  1  7  2  0  0  0  0
  1  2  1  0  0  0  0
  2  3  1  0  0  0  0
  2  4  2  0  0  0  0
  4  5  1  0  0  0  0
  5  6  2  0  0  0  0
  5 11  1  0  0  0  0
  6  7  1  0  0  0  0
  6  9  1  0  0  0  0
  7  8  1  0  0  0  0
  9 10  1  0  0  0  0
 10 11  2  0  0  0  0
M  END
>  <CHROM.1>
1.97942617,-20.75652565,25.51011376,-0.56763208,0.15924995,1.45572462

>  <Name>
ligand

>  <RI>
0

>  <Rbt.Current_Directory>
/home/itssahil/PROJECTS/Mol_Feturizer/New_Systems/rnas/4LVZ

>  <Rbt.Executable>
rbdock ($Id: //depot/dev/client3/rdock/2013.1/src/exe/rbdock.cxx#4 $)

>  <Rbt.Library>
libRbt.so (2013.1, Build901 2013/11/27)

>  <Rbt.Parameter_File>
/export/apps/rDock/src/rDock_2013.1_src/data/scripts/dock_solv.prm

>  <Rbt.Receptor>
prm/pocket_docking_7.prm

>  <SCORE>
-9.45991

>  <SCORE.INTER>
-9.45991

>  <SCORE.INTER.CONST>
1

>  <SCORE.INTER.POLAR>
0

>  <SCORE.INTER.ROT>
0

>  <SCORE.INTER.SOLV>
11.1659

>  <SCORE.INTER.VDW>
-13.6286

>  <SCORE.INTER.norm>
-0.859992

>  <SCORE.INTRA>
0

>  <SCORE.INTRA.DIHEDRAL>
0

>  <SCORE.INTRA.DIHEDRAL.0>
0

>  <SCORE.INTRA.POLAR>
0

>  <SCORE.INTRA.POLAR.0>
0

>  <SCORE.INTRA.REPUL>
0

>  <SCORE.INTRA.REPUL.0>
0

>  <SCORE.INTRA.SOLV>
0

>  <SCORE.INTRA.SOLV.lig_0>
-49.4056

>  <SCORE.INTRA.VDW>
0

>  <SCORE.INTRA.VDW.0>
0

>  <SCORE.INTRA.norm>
0

>  <SCORE.RESTR>
0

>  <SCORE.RESTR.CAVITY>
0

>  <SCORE.RESTR.norm>
0

>  <SCORE.SYSTEM>
0

>  <SCORE.SYSTEM.CONST>
0

>  <SCORE.SYSTEM.DIHEDRAL>
0

>  <SCORE.SYSTEM.SOLV>
0

>  <SCORE.SYSTEM.norm>
0

>  <SCORE.heavy>
11

>  <SCORE.norm>
-0.859992

>  <RMSD>
2.808

$$$$
ligand
 OpenBabel11021811503D
libRbt.so/2013.1/901 2013/11/27
 11 12  0  0  0  0  0  0  0  0999 V2000
    3.5956  -20.2089   25.2346 N   0  0  0  0  0  0  0  0  0  0  0  0
    3.0022  -20.5444   24.0625 C   0  0  0  0  0  0  0  0  0  0  0  0
    3.7258  -20.4754   22.8282 N   0  0  0  0  0  0  0  0  0  0  0  0
    1.7184  -20.9440   24.0310 N   0  0  0  0  0  0  0  0  0  0  0  0
    0.9693  -21.0317   25.1829 C   0  0  0  0  0  0  0  0  0  0  0  0
    1.5482  -20.6930   26.3922 C   0  0  0  0  0  0  0  0  0  0  0  0
    2.9099  -20.2667   26.3972 C   0  0  0  0  0  0  0  0  0  0  0  0
    3.5397  -19.9068   27.6308 N   0  0  0  0  0  0  0  0  0  0  0  0
    0.5776  -20.8698   27.3600 N   0  0  0  0  0  0  0  0  0  0  0  0
   -0.5562  -21.2945   26.7669 C   0  0  0  0  0  0  0  0  0  0  0  0
   -0.3441  -21.3996   25.4399 N   0  0  0  0  0  0  0  0  0  0  0  0
  1  7  2  0  0  0  0
  1  2  1  0  0  0  0
  2  3  1  0  0  0  0
  2  4  2  0  0  0  0
  4  5  1  0  0  0  0
  5  6  2  0  0  0  0
  5 11  1  0  0  0  0
  6  7  1  0  0  0  0
  6  9  1  0  0  0  0
  7  8  1  0  0  0  0
  9 10  1  0  0  0  0
 10 11  2  0  0  0  0
M  END
>  <CHROM.1>
1.90176808,-20.68907514,25.56228146,-0.63290497,0.29892138,1.44145930

>  <Name>
ligand

>  <RI>
0

>  <Rbt.Current_Directory>
/home/itssahil/PROJECTS/Mol_Feturizer/New_Systems/rnas/4LVZ

>  <Rbt.Executable>
rbdock ($Id: //depot/dev/client3/rdock/2013.1/src/exe/rbdock.cxx#4 $)

>  <Rbt.Library>
libRbt.so (2013.1, Build901 2013/11/27)

>  <Rbt.Parameter_File>
/export/apps/rDock/src/rDock_2013.1_src/data/scripts/dock_solv.prm

>  <Rbt.Receptor>
prm/pocket_docking_6.prm

>  <SCORE>
-9.40374

>  <SCORE.INTER>
-9.40374

>  <SCORE.INTER.CONST>
1

>  <SCORE.INTER.POLAR>
0

>  <SCORE.INTER.ROT>
0

>  <SCORE.INTER.SOLV>
12.5031

>  <SCORE.INTER.VDW>
-14.0369

>  <SCORE.INTER.norm>
-0.854885

>  <SCORE.INTRA>
0

>  <SCORE.INTRA.DIHEDRAL>
0

>  <SCORE.INTRA.DIHEDRAL.0>
0

>  <SCORE.INTRA.POLAR>
0

>  <SCORE.INTRA.POLAR.0>
0

>  <SCORE.INTRA.REPUL>
0

>  <SCORE.INTRA.REPUL.0>
0

>  <SCORE.INTRA.SOLV>
0

>  <SCORE.INTRA.SOLV.lig_0>
-49.4056

>  <SCORE.INTRA.VDW>
0

>  <SCORE.INTRA.VDW.0>
0

>  <SCORE.INTRA.norm>
0

>  <SCORE.RESTR>
0

>  <SCORE.RESTR.CAVITY>
0

>  <SCORE.RESTR.norm>
0

>  <SCORE.SYSTEM>
0

>  <SCORE.SYSTEM.CONST>
0

>  <SCORE.SYSTEM.DIHEDRAL>
0

>  <SCORE.SYSTEM.SOLV>
0

>  <SCORE.SYSTEM.norm>
0

>  <SCORE.heavy>
11

>  <SCORE.norm>
-0.854885

>  <RMSD>
2.809

$$$$
ligand
 OpenBabel11021811503D
libRbt.so/2013.1/901 2013/11/27
 11 12  0  0  0  0  0  0  0  0999 V2000
    3.7128  -20.3186   25.2763 N   0  0  0  0  0  0  0  0  0  0  0  0
    3.1798  -20.6547   24.0757 C   0  0  0  0  0  0  0  0  0  0  0  0
    3.9931  -20.6920   22.8971 N   0  0  0  0  0  0  0  0  0  0  0  0
    1.8737  -20.9551   23.9626 N   0  0  0  0  0  0  0  0  0  0  0  0
    1.0396  -20.9379   25.0578 C   0  0  0  0  0  0  0  0  0  0  0  0
    1.5557  -20.5960   26.2943 C   0  0  0  0  0  0  0  0  0  0  0  0
    2.9432  -20.2761   26.3859 C   0  0  0  0  0  0  0  0  0  0  0  0
    3.5099  -19.9159   27.6496 N   0  0  0  0  0  0  0  0  0  0  0  0
    0.5074  -20.6579   27.1927 N   0  0  0  0  0  0  0  0  0  0  0  0
   -0.6114  -21.0177   26.5319 C   0  0  0  0  0  0  0  0  0  0  0  0
   -0.3140  -21.1927   25.2289 N   0  0  0  0  0  0  0  0  0  0  0  0
  1  7  2  0  0  0  0
  1  2  1  0  0  0  0
  2  3  1  0  0  0  0
  2  4  2  0  0  0  0
  4  5  1  0  0  0  0
  5  6  2  0  0  0  0
  5 11  1  0  0  0  0
  6  7  1  0  0  0  0
  6  9  1  0  0  0  0
  7  8  1  0  0  0  0
  9 10  1  0  0  0  0
 10 11  2  0  0  0  0
M  END
>  <CHROM.1>
1.96691844,-20.65307464,25.49341948,-0.57087246,0.20982265,1.38790579

>  <Name>
ligand

>  <RI>
0

>  <Rbt.Current_Directory>
/home/itssahil/PROJECTS/Mol_Feturizer/New_Systems/rnas/4LVZ

>  <Rbt.Executable>
rbdock ($Id: //depot/dev/client3/rdock/2013.1/src/exe/rbdock.cxx#4 $)

>  <Rbt.Library>
libRbt.so (2013.1, Build901 2013/11/27)

>  <Rbt.Parameter_File>
/export/apps/rDock/src/rDock_2013.1_src/data/scripts/dock_solv.prm

>  <Rbt.Receptor>
prm/pocket_docking_3.prm

>  <SCORE>
-9.40624

>  <SCORE.INTER>
-9.40624

>  <SCORE.INTER.CONST>
1

>  <SCORE.INTER.POLAR>
0

>  <SCORE.INTER.ROT>
0

>  <SCORE.INTER.SOLV>
11.6542

>  <SCORE.INTER.VDW>
-13.7556

>  <SCORE.INTER.norm>
-0.855113

>  <SCORE.INTRA>
0

>  <SCORE.INTRA.DIHEDRAL>
0

>  <SCORE.INTRA.DIHEDRAL.0>
0

>  <SCORE.INTRA.POLAR>
0

>  <SCORE.INTRA.POLAR.0>
0

>  <SCORE.INTRA.REPUL>
0

>  <SCORE.INTRA.REPUL.0>
0

>  <SCORE.INTRA.SOLV>
0

>  <SCORE.INTRA.SOLV.lig_0>
-49.4056

>  <SCORE.INTRA.VDW>
0

>  <SCORE.INTRA.VDW.0>
0

>  <SCORE.INTRA.norm>
0

>  <SCORE.RESTR>
0

>  <SCORE.RESTR.CAVITY>
0

>  <SCORE.RESTR.norm>
0

>  <SCORE.SYSTEM>
0

>  <SCORE.SYSTEM.CONST>
0

>  <SCORE.SYSTEM.DIHEDRAL>
0

>  <SCORE.SYSTEM.SOLV>
0

>  <SCORE.SYSTEM.norm>
0

>  <SCORE.heavy>
11

>  <SCORE.norm>
-0.855113

>  <RMSD>
2.811

$$$$
ligand
 OpenBabel11021811503D
libRbt.so/2013.1/901 2013/11/27
 11 12  0  0  0  0  0  0  0  0999 V2000
    3.6029  -20.2037   25.2119 N   0  0  0  0  0  0  0  0  0  0  0  0
    2.9996  -20.5574   24.0502 C   0  0  0  0  0  0  0  0  0  0  0  0
    3.7207  -20.5333   22.8127 N   0  0  0  0  0  0  0  0  0  0  0  0
    1.7085  -20.9334   24.0322 N   0  0  0  0  0  0  0  0  0  0  0  0
    0.9614  -20.9779   25.1879 C   0  0  0  0  0  0  0  0  0  0  0  0
    1.5504  -20.6198   26.3867 C   0  0  0  0  0  0  0  0  0  0  0  0
    2.9198  -20.2193   26.3773 C   0  0  0  0  0  0  0  0  0  0  0  0
    3.5601  -19.8403   27.5998 N   0  0  0  0  0  0  0  0  0  0  0  0
    0.5797  -20.7537   27.3612 N   0  0  0  0  0  0  0  0  0  0  0  0
   -0.5638  -21.1718   26.7820 C   0  0  0  0  0  0  0  0  0  0  0  0
   -0.3578  -21.3144   25.4575 N   0  0  0  0  0  0  0  0  0  0  0  0
  1  7  2  0  0  0  0
  1  2  1  0  0  0  0
  2  3  1  0  0  0  0
  2  4  2  0  0  0  0
  4  5  1  0  0  0  0
  5  6  2  0  0  0  0
  5 11  1  0  0  0  0
  6  7  1  0  0  0  0
  6  9  1  0  0  0  0
  7  8  1  0  0  0  0
  9 10  1  0  0  0  0
 10 11  2  0  0  0  0
M  END
>  <CHROM.1>
1.90137251,-20.64348572,25.55602867,-0.63862677,0.28068498,1.41782201

>  <Name>
ligand

>  <RI>
0

>  <Rbt.Current_Directory>
/home/itssahil/PROJECTS/Mol_Feturizer/New_Systems/rnas/4LVZ

>  <Rbt.Executable>
rbdock ($Id: //depot/dev/client3/rdock/2013.1/src/exe/rbdock.cxx#4 $)

>  <Rbt.Library>
libRbt.so (2013.1, Build901 2013/11/27)

>  <Rbt.Parameter_File>
/export/apps/rDock/src/rDock_2013.1_src/data/scripts/dock_solv.prm

>  <Rbt.Receptor>
prm/pocket_docking_5.prm

>  <SCORE>
-9.4077

>  <SCORE.INTER>
-9.4077

>  <SCORE.INTER.CONST>
1

>  <SCORE.INTER.POLAR>
0

>  <SCORE.INTER.ROT>
0

>  <SCORE.INTER.SOLV>
12.5939

>  <SCORE.INTER.VDW>
-14.0698

>  <SCORE.INTER.norm>
-0.855246

>  <SCORE.INTRA>
0

>  <SCORE.INTRA.DIHEDRAL>
0

>  <SCORE.INTRA.DIHEDRAL.0>
0

>  <SCORE.INTRA.POLAR>
0

>  <SCORE.INTRA.POLAR.0>
0

>  <SCORE.INTRA.REPUL>
0

>  <SCORE.INTRA.REPUL.0>
0

>  <SCORE.INTRA.SOLV>
0

>  <SCORE.INTRA.SOLV.lig_0>
-49.4056

>  <SCORE.INTRA.VDW>
0

>  <SCORE.INTRA.VDW.0>
0

>  <SCORE.INTRA.norm>
0

>  <SCORE.RESTR>
0

>  <SCORE.RESTR.CAVITY>
0

>  <SCORE.RESTR.norm>
0

>  <SCORE.SYSTEM>
0

>  <SCORE.SYSTEM.CONST>
0

>  <SCORE.SYSTEM.DIHEDRAL>
0

>  <SCORE.SYSTEM.SOLV>
0

>  <SCORE.SYSTEM.norm>
0

>  <SCORE.heavy>
11

>  <SCORE.norm>
-0.855246

>  <RMSD>
2.813

$$$$
ligand
 OpenBabel11021811503D
libRbt.so/2013.1/901 2013/11/27
 11 12  0  0  0  0  0  0  0  0999 V2000
    3.6943  -20.1653   25.1853 N   0  0  0  0  0  0  0  0  0  0  0  0
    3.1176  -20.5105   24.0077 C   0  0  0  0  0  0  0  0  0  0  0  0
    3.8673  -20.4802   22.7875 N   0  0  0  0  0  0  0  0  0  0  0  0
    1.8264  -20.8837   23.9573 N   0  0  0  0  0  0  0  0  0  0  0  0
    1.0526  -20.9338   25.0949 C   0  0  0  0  0  0  0  0  0  0  0  0
    1.6141  -20.5843   26.3094 C   0  0  0  0  0  0  0  0  0  0  0  0
    2.9842  -20.1866   26.3344 C   0  0  0  0  0  0  0  0  0  0  0  0
    3.5966  -19.8165   27.5738 N   0  0  0  0  0  0  0  0  0  0  0  0
    0.6207  -20.7223   27.2601 N   0  0  0  0  0  0  0  0  0  0  0  0
   -0.5097  -21.1345   26.6519 C   0  0  0  0  0  0  0  0  0  0  0  0
   -0.2732  -21.2692   25.3317 N   0  0  0  0  0  0  0  0  0  0  0  0
  1  7  2  0  0  0  0
  1  2  1  0  0  0  0
  2  3  1  0  0  0  0
  2  4  2  0  0  0  0
  4  5  1  0  0  0  0
  5  6  2  0  0  0  0
  5 11  1  0  0  0  0
  6  7  1  0  0  0  0
  6  9  1  0  0  0  0
  7  8  1  0  0  0  0
  9 10  1  0  0  0  0
 10 11  2  0  0  0  0
M  END
>  <CHROM.1>
1.98434471,-20.60359939,25.48697155,-0.61499878,0.27515633,1.41756927

>  <Name>
ligand

>  <RI>
0

>  <Rbt.Current_Directory>
/home/itssahil/PROJECTS/Mol_Feturizer/New_Systems/rnas/4LVZ

>  <Rbt.Executable>
rbdock ($Id: //depot/dev/client3/rdock/2013.1/src/exe/rbdock.cxx#4 $)

>  <Rbt.Library>
libRbt.so (2013.1, Build901 2013/11/27)

>  <Rbt.Parameter_File>
/export/apps/rDock/src/rDock_2013.1_src/data/scripts/dock_solv.prm

>  <Rbt.Receptor>
prm/pocket_docking_6.prm

>  <SCORE>
-9.40318

>  <SCORE.INTER>
-9.40318

>  <SCORE.INTER.CONST>
1

>  <SCORE.INTER.POLAR>
0

>  <SCORE.INTER.ROT>
0

>  <SCORE.INTER.SOLV>
11.6737

>  <SCORE.INTER.VDW>
-13.76

>  <SCORE.INTER.norm>
-0.854835

>  <SCORE.INTRA>
0

>  <SCORE.INTRA.DIHEDRAL>
0

>  <SCORE.INTRA.DIHEDRAL.0>
0

>  <SCORE.INTRA.POLAR>
0

>  <SCORE.INTRA.POLAR.0>
0

>  <SCORE.INTRA.REPUL>
0

>  <SCORE.INTRA.REPUL.0>
0

>  <SCORE.INTRA.SOLV>
0

>  <SCORE.INTRA.SOLV.lig_0>
-49.4056

>  <SCORE.INTRA.VDW>
0

>  <SCORE.INTRA.VDW.0>
0

>  <SCORE.INTRA.norm>
0

>  <SCORE.RESTR>
0

>  <SCORE.RESTR.CAVITY>
0

>  <SCORE.RESTR.norm>
0

>  <SCORE.SYSTEM>
0

>  <SCORE.SYSTEM.CONST>
0

>  <SCORE.SYSTEM.DIHEDRAL>
0

>  <SCORE.SYSTEM.SOLV>
0

>  <SCORE.SYSTEM.norm>
0

>  <SCORE.heavy>
11

>  <SCORE.norm>
-0.854835

>  <RMSD>
2.814

$$$$
ligand
 OpenBabel11021811503D
libRbt.so/2013.1/901 2013/11/27
 11 12  0  0  0  0  0  0  0  0999 V2000
    3.7594  -20.3857   25.3436 N   0  0  0  0  0  0  0  0  0  0  0  0
    3.2634  -20.9458   24.2127 C   0  0  0  0  0  0  0  0  0  0  0  0
    4.1185  -21.2296   23.0991 N   0  0  0  0  0  0  0  0  0  0  0  0
    1.9557  -21.2423   24.1083 N   0  0  0  0  0  0  0  0  0  0  0  0
    1.0824  -20.9944   25.1434 C   0  0  0  0  0  0  0  0  0  0  0  0
    1.5604  -20.4212   26.3075 C   0  0  0  0  0  0  0  0  0  0  0  0
    2.9507  -20.1112   26.3904 C   0  0  0  0  0  0  0  0  0  0  0  0
    3.4786  -19.5155   27.5796 N   0  0  0  0  0  0  0  0  0  0  0  0
    0.4785  -20.2868   27.1568 N   0  0  0  0  0  0  0  0  0  0  0  0
   -0.6233  -20.7535   26.5354 C   0  0  0  0  0  0  0  0  0  0  0  0
   -0.2822  -21.1890   25.3062 N   0  0  0  0  0  0  0  0  0  0  0  0
  1  7  2  0  0  0  0
  1  2  1  0  0  0  0
  2  3  1  0  0  0  0
  2  4  2  0  0  0  0
  4  5  1  0  0  0  0
  5  6  2  0  0  0  0
  5 11  1  0  0  0  0
  6  7  1  0  0  0  0
  6  9  1  0  0  0  0
  7  8  1  0  0  0  0
  9 10  1  0  0  0  0
 10 11  2  0  0  0  0
M  END
>  <CHROM.1>
1.99940377,-20.64302961,25.55130814,-0.53831102,0.18003330,1.18149291

>  <Name>
ligand

>  <RI>
0

>  <Rbt.Current_Directory>
/home/itssahil/PROJECTS/Mol_Feturizer/New_Systems/rnas/4LVZ

>  <Rbt.Executable>
rbdock ($Id: //depot/dev/client3/rdock/2013.1/src/exe/rbdock.cxx#4 $)

>  <Rbt.Library>
libRbt.so (2013.1, Build901 2013/11/27)

>  <Rbt.Parameter_File>
/export/apps/rDock/src/rDock_2013.1_src/data/scripts/dock_solv.prm

>  <Rbt.Receptor>
prm/pocket_docking_8.prm

>  <SCORE>
-9.44024

>  <SCORE.INTER>
-9.44024

>  <SCORE.INTER.CONST>
1

>  <SCORE.INTER.POLAR>
0

>  <SCORE.INTER.ROT>
0

>  <SCORE.INTER.SOLV>
12.6501

>  <SCORE.INTER.VDW>
-14.1102

>  <SCORE.INTER.norm>
-0.858204

>  <SCORE.INTRA>
0

>  <SCORE.INTRA.DIHEDRAL>
0

>  <SCORE.INTRA.DIHEDRAL.0>
0

>  <SCORE.INTRA.POLAR>
0

>  <SCORE.INTRA.POLAR.0>
0

>  <SCORE.INTRA.REPUL>
0

>  <SCORE.INTRA.REPUL.0>
0

>  <SCORE.INTRA.SOLV>
0

>  <SCORE.INTRA.SOLV.lig_0>
-49.4056

>  <SCORE.INTRA.VDW>
0

>  <SCORE.INTRA.VDW.0>
0

>  <SCORE.INTRA.norm>
0

>  <SCORE.RESTR>
0

>  <SCORE.RESTR.CAVITY>
0

>  <SCORE.RESTR.norm>
0

>  <SCORE.SYSTEM>
0

>  <SCORE.SYSTEM.CONST>
0

>  <SCORE.SYSTEM.DIHEDRAL>
0

>  <SCORE.SYSTEM.SOLV>
0

>  <SCORE.SYSTEM.norm>
0

>  <SCORE.heavy>
11

>  <SCORE.norm>
-0.858204

>  <RMSD>
2.814

$$$$
ligand
 OpenBabel11021811503D
libRbt.so/2013.1/901 2013/11/27
 11 12  0  0  0  0  0  0  0  0999 V2000
    3.5946  -20.2068   25.2145 N   0  0  0  0  0  0  0  0  0  0  0  0
    2.9972  -20.5796   24.0558 C   0  0  0  0  0  0  0  0  0  0  0  0
    3.7140  -20.5419   22.8162 N   0  0  0  0  0  0  0  0  0  0  0  0
    1.7157  -20.9877   24.0427 N   0  0  0  0  0  0  0  0  0  0  0  0
    0.9731  -21.0465   25.2006 C   0  0  0  0  0  0  0  0  0  0  0  0
    1.5562  -20.6696   26.3965 C   0  0  0  0  0  0  0  0  0  0  0  0
    2.9152  -20.2352   26.3819 C   0  0  0  0  0  0  0  0  0  0  0  0
    3.5492  -19.8360   27.6012 N   0  0  0  0  0  0  0  0  0  0  0  0
    0.5917  -20.8242   27.3741 N   0  0  0  0  0  0  0  0  0  0  0  0
   -0.5425  -21.2727   26.7996 C   0  0  0  0  0  0  0  0  0  0  0  0
   -0.3366  -21.4148   25.4751 N   0  0  0  0  0  0  0  0  0  0  0  0
  1  7  2  0  0  0  0
  1  2  1  0  0  0  0
  2  3  1  0  0  0  0
  2  4  2  0  0  0  0
  4  5  1  0  0  0  0
  5  6  2  0  0  0  0
  5 11  1  0  0  0  0
  6  7  1  0  0  0  0
  6  9  1  0  0  0  0
  7  8  1  0  0  0  0
  9 10  1  0  0  0  0
 10 11  2  0  0  0  0
M  END
>  <CHROM.1>
1.90544808,-20.68752077,25.56493824,-0.63743411,0.30570598,1.41392312

>  <Name>
ligand

>  <RI>
0

>  <Rbt.Current_Directory>
/home/itssahil/PROJECTS/Mol_Feturizer/New_Systems/rnas/4LVZ

>  <Rbt.Executable>
rbdock ($Id: //depot/dev/client3/rdock/2013.1/src/exe/rbdock.cxx#4 $)

>  <Rbt.Library>
libRbt.so (2013.1, Build901 2013/11/27)

>  <Rbt.Parameter_File>
/export/apps/rDock/src/rDock_2013.1_src/data/scripts/dock_solv.prm

>  <Rbt.Receptor>
prm/pocket_docking_5.prm

>  <SCORE>
-9.46062

>  <SCORE.INTER>
-9.46062

>  <SCORE.INTER.CONST>
1

>  <SCORE.INTER.POLAR>
0

>  <SCORE.INTER.ROT>
0

>  <SCORE.INTER.SOLV>
12.6672

>  <SCORE.INTER.VDW>
-14.1295

>  <SCORE.INTER.norm>
-0.860057

>  <SCORE.INTRA>
0

>  <SCORE.INTRA.DIHEDRAL>
0

>  <SCORE.INTRA.DIHEDRAL.0>
0

>  <SCORE.INTRA.POLAR>
0

>  <SCORE.INTRA.POLAR.0>
0

>  <SCORE.INTRA.REPUL>
0

>  <SCORE.INTRA.REPUL.0>
0

>  <SCORE.INTRA.SOLV>
0

>  <SCORE.INTRA.SOLV.lig_0>
-49.4056

>  <SCORE.INTRA.VDW>
0

>  <SCORE.INTRA.VDW.0>
0

>  <SCORE.INTRA.norm>
0

>  <SCORE.RESTR>
0

>  <SCORE.RESTR.CAVITY>
0

>  <SCORE.RESTR.norm>
0

>  <SCORE.SYSTEM>
0

>  <SCORE.SYSTEM.CONST>
0

>  <SCORE.SYSTEM.DIHEDRAL>
0

>  <SCORE.SYSTEM.SOLV>
0

>  <SCORE.SYSTEM.norm>
0

>  <SCORE.heavy>
11

>  <SCORE.norm>
-0.860057

>  <RMSD>
2.815

$$$$
ligand
 OpenBabel11021811503D
libRbt.so/2013.1/901 2013/11/27
 11 12  0  0  0  0  0  0  0  0999 V2000
    3.7019  -20.2918   25.2614 N   0  0  0  0  0  0  0  0  0  0  0  0
    3.1698  -20.6611   24.0702 C   0  0  0  0  0  0  0  0  0  0  0  0
    3.9807  -20.7167   22.8906 N   0  0  0  0  0  0  0  0  0  0  0  0
    1.8668  -20.9781   23.9673 N   0  0  0  0  0  0  0  0  0  0  0  0
    1.0350  -20.9447   25.0640 C   0  0  0  0  0  0  0  0  0  0  0  0
    1.5503  -20.5690   26.2911 C   0  0  0  0  0  0  0  0  0  0  0  0
    2.9345  -20.2322   26.3717 C   0  0  0  0  0  0  0  0  0  0  0  0
    3.5002  -19.8370   27.6254 N   0  0  0  0  0  0  0  0  0  0  0  0
    0.5048  -20.6216   27.1933 N   0  0  0  0  0  0  0  0  0  0  0  0
   -0.6115  -21.0085   26.5439 C   0  0  0  0  0  0  0  0  0  0  0  0
   -0.3153  -21.2102   25.2444 N   0  0  0  0  0  0  0  0  0  0  0  0
  1  7  2  0  0  0  0
  1  2  1  0  0  0  0
  2  3  1  0  0  0  0
  2  4  2  0  0  0  0
  4  5  1  0  0  0  0
  5  6  2  0  0  0  0
  5 11  1  0  0  0  0
  6  7  1  0  0  0  0
  6  9  1  0  0  0  0
  7  8  1  0  0  0  0
  9 10  1  0  0  0  0
 10 11  2  0  0  0  0
M  END
>  <CHROM.1>
1.96024747,-20.63999965,25.49060560,-0.57120731,0.22090199,1.36505812

>  <Name>
ligand

>  <RI>
0

>  <Rbt.Current_Directory>
/home/itssahil/PROJECTS/Mol_Feturizer/New_Systems/rnas/4LVZ

>  <Rbt.Executable>
rbdock ($Id: //depot/dev/client3/rdock/2013.1/src/exe/rbdock.cxx#4 $)

>  <Rbt.Library>
libRbt.so (2013.1, Build901 2013/11/27)

>  <Rbt.Parameter_File>
/export/apps/rDock/src/rDock_2013.1_src/data/scripts/dock_solv.prm

>  <Rbt.Receptor>
prm/pocket_docking_6.prm

>  <SCORE>
-9.4409

>  <SCORE.INTER>
-9.4409

>  <SCORE.INTER.CONST>
1

>  <SCORE.INTER.POLAR>
0

>  <SCORE.INTER.ROT>
0

>  <SCORE.INTER.SOLV>
11.8751

>  <SCORE.INTER.VDW>
-13.8523

>  <SCORE.INTER.norm>
-0.858263

>  <SCORE.INTRA>
0

>  <SCORE.INTRA.DIHEDRAL>
0

>  <SCORE.INTRA.DIHEDRAL.0>
0

>  <SCORE.INTRA.POLAR>
0

>  <SCORE.INTRA.POLAR.0>
0

>  <SCORE.INTRA.REPUL>
0

>  <SCORE.INTRA.REPUL.0>
0

>  <SCORE.INTRA.SOLV>
0

>  <SCORE.INTRA.SOLV.lig_0>
-49.4056

>  <SCORE.INTRA.VDW>
0

>  <SCORE.INTRA.VDW.0>
0

>  <SCORE.INTRA.norm>
0

>  <SCORE.RESTR>
0

>  <SCORE.RESTR.CAVITY>
0

>  <SCORE.RESTR.norm>
0

>  <SCORE.SYSTEM>
0

>  <SCORE.SYSTEM.CONST>
0

>  <SCORE.SYSTEM.DIHEDRAL>
0

>  <SCORE.SYSTEM.SOLV>
0

>  <SCORE.SYSTEM.norm>
0

>  <SCORE.heavy>
11

>  <SCORE.norm>
-0.858263

>  <RMSD>
2.815

$$$$
ligand
 OpenBabel11021811503D
libRbt.so/2013.1/901 2013/11/27
 11 12  0  0  0  0  0  0  0  0999 V2000
    3.6364  -20.1564   25.1777 N   0  0  0  0  0  0  0  0  0  0  0  0
    3.0304  -20.5140   24.0186 C   0  0  0  0  0  0  0  0  0  0  0  0
    3.7379  -20.4595   22.7742 N   0  0  0  0  0  0  0  0  0  0  0  0
    1.7491  -20.9227   24.0097 N   0  0  0  0  0  0  0  0  0  0  0  0
    1.0153  -20.9975   25.1723 C   0  0  0  0  0  0  0  0  0  0  0  0
    1.6073  -20.6361   26.3687 C   0  0  0  0  0  0  0  0  0  0  0  0
    2.9659  -20.2007   26.3497 C   0  0  0  0  0  0  0  0  0  0  0  0
    3.6089  -19.8174   27.5693 N   0  0  0  0  0  0  0  0  0  0  0  0
    0.6503  -20.8043   27.3515 N   0  0  0  0  0  0  0  0  0  0  0  0
   -0.4880  -21.2458   26.7796 C   0  0  0  0  0  0  0  0  0  0  0  0
   -0.2921  -21.3702   25.4518 N   0  0  0  0  0  0  0  0  0  0  0  0
  1  7  2  0  0  0  0
  1  2  1  0  0  0  0
  2  3  1  0  0  0  0
  2  4  2  0  0  0  0
  4  5  1  0  0  0  0
  5  6  2  0  0  0  0
  5 11  1  0  0  0  0
  6  7  1  0  0  0  0
  6  9  1  0  0  0  0
  7  8  1  0  0  0  0
  9 10  1  0  0  0  0
 10 11  2  0  0  0  0
M  END
>  <CHROM.1>
1.95019886,-20.64275313,25.53436880,-0.64519250,0.30739014,1.42958169

>  <Name>
ligand

>  <RI>
0

>  <Rbt.Current_Directory>
/home/itssahil/PROJECTS/Mol_Feturizer/New_Systems/rnas/4LVZ

>  <Rbt.Executable>
rbdock ($Id: //depot/dev/client3/rdock/2013.1/src/exe/rbdock.cxx#4 $)

>  <Rbt.Library>
libRbt.so (2013.1, Build901 2013/11/27)

>  <Rbt.Parameter_File>
/export/apps/rDock/src/rDock_2013.1_src/data/scripts/dock_solv.prm

>  <Rbt.Receptor>
prm/pocket_docking_6.prm

>  <SCORE>
-9.39775

>  <SCORE.INTER>
-9.39775

>  <SCORE.INTER.CONST>
1

>  <SCORE.INTER.POLAR>
0

>  <SCORE.INTER.ROT>
0

>  <SCORE.INTER.SOLV>
12.2136

>  <SCORE.INTER.VDW>
-13.9364

>  <SCORE.INTER.norm>
-0.854341

>  <SCORE.INTRA>
0

>  <SCORE.INTRA.DIHEDRAL>
0

>  <SCORE.INTRA.DIHEDRAL.0>
0

>  <SCORE.INTRA.POLAR>
0

>  <SCORE.INTRA.POLAR.0>
0

>  <SCORE.INTRA.REPUL>
0

>  <SCORE.INTRA.REPUL.0>
0

>  <SCORE.INTRA.SOLV>
0

>  <SCORE.INTRA.SOLV.lig_0>
-49.4056

>  <SCORE.INTRA.VDW>
0

>  <SCORE.INTRA.VDW.0>
0

>  <SCORE.INTRA.norm>
0

>  <SCORE.RESTR>
0

>  <SCORE.RESTR.CAVITY>
0

>  <SCORE.RESTR.norm>
0

>  <SCORE.SYSTEM>
0

>  <SCORE.SYSTEM.CONST>
0

>  <SCORE.SYSTEM.DIHEDRAL>
0

>  <SCORE.SYSTEM.SOLV>
0

>  <SCORE.SYSTEM.norm>
0

>  <SCORE.heavy>
11

>  <SCORE.norm>
-0.854341

>  <RMSD>
2.815

$$$$
ligand
 OpenBabel11021811503D
libRbt.so/2013.1/901 2013/11/27
 11 12  0  0  0  0  0  0  0  0999 V2000
    3.5774  -20.1793   25.2075 N   0  0  0  0  0  0  0  0  0  0  0  0
    2.9752  -20.5395   24.0473 C   0  0  0  0  0  0  0  0  0  0  0  0
    3.6833  -20.4777   22.8036 N   0  0  0  0  0  0  0  0  0  0  0  0
    1.6969  -20.9575   24.0366 N   0  0  0  0  0  0  0  0  0  0  0  0
    0.9627  -21.0396   25.1984 C   0  0  0  0  0  0  0  0  0  0  0  0
    1.5508  -20.6759   26.3959 C   0  0  0  0  0  0  0  0  0  0  0  0
    2.9062  -20.2305   26.3788 C   0  0  0  0  0  0  0  0  0  0  0  0
    3.5453  -19.8444   27.5997 N   0  0  0  0  0  0  0  0  0  0  0  0
    0.5942  -20.8527   27.3775 N   0  0  0  0  0  0  0  0  0  0  0  0
   -0.5403  -21.3016   26.8039 C   0  0  0  0  0  0  0  0  0  0  0  0
   -0.3423  -21.4224   25.4760 N   0  0  0  0  0  0  0  0  0  0  0  0
  1  7  2  0  0  0  0
  1  2  1  0  0  0  0
  2  3  1  0  0  0  0
  2  4  2  0  0  0  0
  4  5  1  0  0  0  0
  5  6  2  0  0  0  0
  5 11  1  0  0  0  0
  6  7  1  0  0  0  0
  6  9  1  0  0  0  0
  7  8  1  0  0  0  0
  9 10  1  0  0  0  0
 10 11  2  0  0  0  0
M  END
>  <CHROM.1>
1.89454644,-20.67862521,25.56187114,-0.64316028,0.31453452,1.43059527

>  <Name>
ligand

>  <RI>
0

>  <Rbt.Current_Directory>
/home/itssahil/PROJECTS/Mol_Feturizer/New_Systems/rnas/4LVZ

>  <Rbt.Executable>
rbdock ($Id: //depot/dev/client3/rdock/2013.1/src/exe/rbdock.cxx#4 $)

>  <Rbt.Library>
libRbt.so (2013.1, Build901 2013/11/27)

>  <Rbt.Parameter_File>
/export/apps/rDock/src/rDock_2013.1_src/data/scripts/dock_solv.prm

>  <Rbt.Receptor>
prm/pocket_docking_8.prm

>  <SCORE>
-9.48594

>  <SCORE.INTER>
-9.48594

>  <SCORE.INTER.CONST>
1

>  <SCORE.INTER.POLAR>
0

>  <SCORE.INTER.ROT>
0

>  <SCORE.INTER.SOLV>
12.7159

>  <SCORE.INTER.VDW>
-14.1626

>  <SCORE.INTER.norm>
-0.862358

>  <SCORE.INTRA>
0

>  <SCORE.INTRA.DIHEDRAL>
0

>  <SCORE.INTRA.DIHEDRAL.0>
0

>  <SCORE.INTRA.POLAR>
0

>  <SCORE.INTRA.POLAR.0>
0

>  <SCORE.INTRA.REPUL>
0

>  <SCORE.INTRA.REPUL.0>
0

>  <SCORE.INTRA.SOLV>
0

>  <SCORE.INTRA.SOLV.lig_0>
-49.4056

>  <SCORE.INTRA.VDW>
0

>  <SCORE.INTRA.VDW.0>
0

>  <SCORE.INTRA.norm>
0

>  <SCORE.RESTR>
0

>  <SCORE.RESTR.CAVITY>
0

>  <SCORE.RESTR.norm>
0

>  <SCORE.SYSTEM>
0

>  <SCORE.SYSTEM.CONST>
0

>  <SCORE.SYSTEM.DIHEDRAL>
0

>  <SCORE.SYSTEM.SOLV>
0

>  <SCORE.SYSTEM.norm>
0

>  <SCORE.heavy>
11

>  <SCORE.norm>
-0.862358

>  <RMSD>
2.815

$$$$
ligand
 OpenBabel11021811503D
libRbt.so/2013.1/901 2013/11/27
 11 12  0  0  0  0  0  0  0  0999 V2000
    3.6806  -20.2542   25.2315 N   0  0  0  0  0  0  0  0  0  0  0  0
    3.1209  -20.6218   24.0524 C   0  0  0  0  0  0  0  0  0  0  0  0
    3.8959  -20.6422   22.8478 N   0  0  0  0  0  0  0  0  0  0  0  0
    1.8236  -20.9700   23.9856 N   0  0  0  0  0  0  0  0  0  0  0  0
    1.0258  -20.9712   25.1077 C   0  0  0  0  0  0  0  0  0  0  0  0
    1.5696  -20.5980   26.3232 C   0  0  0  0  0  0  0  0  0  0  0  0
    2.9469  -20.2277   26.3656 C   0  0  0  0  0  0  0  0  0  0  0  0
    3.5415  -19.8342   27.6064 N   0  0  0  0  0  0  0  0  0  0  0  0
    0.5543  -20.6881   27.2564 N   0  0  0  0  0  0  0  0  0  0  0  0
   -0.5718  -21.0947   26.6366 C   0  0  0  0  0  0  0  0  0  0  0  0
   -0.3113  -21.2726   25.3261 N   0  0  0  0  0  0  0  0  0  0  0  0
  1  7  2  0  0  0  0
  1  2  1  0  0  0  0
  2  3  1  0  0  0  0
  2  4  2  0  0  0  0
  4  5  1  0  0  0  0
  5  6  2  0  0  0  0
  5 11  1  0  0  0  0
  6  7  1  0  0  0  0
  6  9  1  0  0  0  0
  7  8  1  0  0  0  0
  9 10  1  0  0  0  0
 10 11  2  0  0  0  0
M  END
>  <CHROM.1>
1.95606594,-20.64874211,25.50961049,-0.59746101,0.25131564,1.38410278

>  <Name>
ligand

>  <RI>
0

>  <Rbt.Current_Directory>
/home/itssahil/PROJECTS/Mol_Feturizer/New_Systems/rnas/4LVZ

>  <Rbt.Executable>
rbdock ($Id: //depot/dev/client3/rdock/2013.1/src/exe/rbdock.cxx#4 $)

>  <Rbt.Library>
libRbt.so (2013.1, Build901 2013/11/27)

>  <Rbt.Parameter_File>
/export/apps/rDock/src/rDock_2013.1_src/data/scripts/dock_solv.prm

>  <Rbt.Receptor>
prm/pocket_docking_8.prm

>  <SCORE>
-9.3831

>  <SCORE.INTER>
-9.3831

>  <SCORE.INTER.CONST>
1

>  <SCORE.INTER.POLAR>
0

>  <SCORE.INTER.ROT>
0

>  <SCORE.INTER.SOLV>
11.9796

>  <SCORE.INTER.VDW>
-13.8486

>  <SCORE.INTER.norm>
-0.853009

>  <SCORE.INTRA>
0

>  <SCORE.INTRA.DIHEDRAL>
0

>  <SCORE.INTRA.DIHEDRAL.0>
0

>  <SCORE.INTRA.POLAR>
0

>  <SCORE.INTRA.POLAR.0>
0

>  <SCORE.INTRA.REPUL>
0

>  <SCORE.INTRA.REPUL.0>
0

>  <SCORE.INTRA.SOLV>
0

>  <SCORE.INTRA.SOLV.lig_0>
-49.4056

>  <SCORE.INTRA.VDW>
0

>  <SCORE.INTRA.VDW.0>
0

>  <SCORE.INTRA.norm>
0

>  <SCORE.RESTR>
0

>  <SCORE.RESTR.CAVITY>
0

>  <SCORE.RESTR.norm>
0

>  <SCORE.SYSTEM>
0

>  <SCORE.SYSTEM.CONST>
0

>  <SCORE.SYSTEM.DIHEDRAL>
0

>  <SCORE.SYSTEM.SOLV>
0

>  <SCORE.SYSTEM.norm>
0

>  <SCORE.heavy>
11

>  <SCORE.norm>
-0.853009

>  <RMSD>
2.815

$$$$
ligand
 OpenBabel11021811503D
libRbt.so/2013.1/901 2013/11/27
 11 12  0  0  0  0  0  0  0  0999 V2000
    3.5990  -20.2197   25.2117 N   0  0  0  0  0  0  0  0  0  0  0  0
    3.0077  -20.5798   24.0458 C   0  0  0  0  0  0  0  0  0  0  0  0
    3.7412  -20.5620   22.8156 N   0  0  0  0  0  0  0  0  0  0  0  0
    1.7168  -20.9563   24.0167 N   0  0  0  0  0  0  0  0  0  0  0  0
    0.9581  -20.9948   25.1650 C   0  0  0  0  0  0  0  0  0  0  0  0
    1.5348  -20.6302   26.3678 C   0  0  0  0  0  0  0  0  0  0  0  0
    2.9042  -20.2293   26.3702 C   0  0  0  0  0  0  0  0  0  0  0  0
    3.5319  -19.8436   27.5970 N   0  0  0  0  0  0  0  0  0  0  0  0
    0.5543  -20.7593   27.3331 N   0  0  0  0  0  0  0  0  0  0  0  0
   -0.5831  -21.1808   26.7445 C   0  0  0  0  0  0  0  0  0  0  0  0
   -0.3637  -21.3303   25.4230 N   0  0  0  0  0  0  0  0  0  0  0  0
  1  7  2  0  0  0  0
  1  2  1  0  0  0  0
  2  3  1  0  0  0  0
  2  4  2  0  0  0  0
  4  5  1  0  0  0  0
  5  6  2  0  0  0  0
  5 11  1  0  0  0  0
  6  7  1  0  0  0  0
  6  9  1  0  0  0  0
  7  8  1  0  0  0  0
  9 10  1  0  0  0  0
 10 11  2  0  0  0  0
M  END
>  <CHROM.1>
1.89419278,-20.65816918,25.54087101,-0.62814975,0.27937904,1.40962223

>  <Name>
ligand

>  <RI>
0

>  <Rbt.Current_Directory>
/home/itssahil/PROJECTS/Mol_Feturizer/New_Systems/rnas/4LVZ

>  <Rbt.Executable>
rbdock ($Id: //depot/dev/client3/rdock/2013.1/src/exe/rbdock.cxx#4 $)

>  <Rbt.Library>
libRbt.so (2013.1, Build901 2013/11/27)

>  <Rbt.Parameter_File>
/export/apps/rDock/src/rDock_2013.1_src/data/scripts/dock_solv.prm

>  <Rbt.Receptor>
prm/pocket_docking_6.prm

>  <SCORE>
-9.3967

>  <SCORE.INTER>
-9.3967

>  <SCORE.INTER.CONST>
1

>  <SCORE.INTER.POLAR>
0

>  <SCORE.INTER.ROT>
0

>  <SCORE.INTER.SOLV>
12.624

>  <SCORE.INTER.VDW>
-14.0725

>  <SCORE.INTER.norm>
-0.854246

>  <SCORE.INTRA>
0

>  <SCORE.INTRA.DIHEDRAL>
0

>  <SCORE.INTRA.DIHEDRAL.0>
0

>  <SCORE.INTRA.POLAR>
0

>  <SCORE.INTRA.POLAR.0>
0

>  <SCORE.INTRA.REPUL>
0

>  <SCORE.INTRA.REPUL.0>
0

>  <SCORE.INTRA.SOLV>
0

>  <SCORE.INTRA.SOLV.lig_0>
-49.4056

>  <SCORE.INTRA.VDW>
0

>  <SCORE.INTRA.VDW.0>
0

>  <SCORE.INTRA.norm>
0

>  <SCORE.RESTR>
0

>  <SCORE.RESTR.CAVITY>
0

>  <SCORE.RESTR.norm>
0

>  <SCORE.SYSTEM>
0

>  <SCORE.SYSTEM.CONST>
0

>  <SCORE.SYSTEM.DIHEDRAL>
0

>  <SCORE.SYSTEM.SOLV>
0

>  <SCORE.SYSTEM.norm>
0

>  <SCORE.heavy>
11

>  <SCORE.norm>
-0.854246

>  <RMSD>
2.816

$$$$
ligand
 OpenBabel11021811503D
libRbt.so/2013.1/901 2013/11/27
 11 12  0  0  0  0  0  0  0  0999 V2000
    3.6990  -20.3020   25.2579 N   0  0  0  0  0  0  0  0  0  0  0  0
    3.1668  -20.6538   24.0614 C   0  0  0  0  0  0  0  0  0  0  0  0
    3.9790  -20.6977   22.8822 N   0  0  0  0  0  0  0  0  0  0  0  0
    1.8627  -20.9640   23.9530 N   0  0  0  0  0  0  0  0  0  0  0  0
    1.0297  -20.9412   25.0490 C   0  0  0  0  0  0  0  0  0  0  0  0
    1.5450  -20.5832   26.2813 C   0  0  0  0  0  0  0  0  0  0  0  0
    2.9305  -20.2533   26.3679 C   0  0  0  0  0  0  0  0  0  0  0  0
    3.4962  -19.8765   27.6272 N   0  0  0  0  0  0  0  0  0  0  0  0
    0.4982  -20.6430   27.1815 N   0  0  0  0  0  0  0  0  0  0  0  0
   -0.6190  -21.0169   26.5259 C   0  0  0  0  0  0  0  0  0  0  0  0
   -0.3220  -21.2032   25.2243 N   0  0  0  0  0  0  0  0  0  0  0  0
  1  7  2  0  0  0  0
  1  2  1  0  0  0  0
  2  3  1  0  0  0  0
  2  4  2  0  0  0  0
  4  5  1  0  0  0  0
  5  6  2  0  0  0  0
  5 11  1  0  0  0  0
  6  7  1  0  0  0  0
  6  9  1  0  0  0  0
  7  8  1  0  0  0  0
  9 10  1  0  0  0  0
 10 11  2  0  0  0  0
M  END
>  <CHROM.1>
1.95562759,-20.64577896,25.48053627,-0.57080831,0.21657158,1.37772564

>  <Name>
ligand

>  <RI>
0

>  <Rbt.Current_Directory>
/home/itssahil/PROJECTS/Mol_Feturizer/New_Systems/rnas/4LVZ

>  <Rbt.Executable>
rbdock ($Id: //depot/dev/client3/rdock/2013.1/src/exe/rbdock.cxx#4 $)

>  <Rbt.Library>
libRbt.so (2013.1, Build901 2013/11/27)

>  <Rbt.Parameter_File>
/export/apps/rDock/src/rDock_2013.1_src/data/scripts/dock_solv.prm

>  <Rbt.Receptor>
prm/pocket_docking_8.prm

>  <SCORE>
-9.46447

>  <SCORE.INTER>
-9.46447

>  <SCORE.INTER.CONST>
1

>  <SCORE.INTER.POLAR>
0

>  <SCORE.INTER.ROT>
0

>  <SCORE.INTER.SOLV>
11.7853

>  <SCORE.INTER.VDW>
-13.8381

>  <SCORE.INTER.norm>
-0.860406

>  <SCORE.INTRA>
0

>  <SCORE.INTRA.DIHEDRAL>
0

>  <SCORE.INTRA.DIHEDRAL.0>
0

>  <SCORE.INTRA.POLAR>
0

>  <SCORE.INTRA.POLAR.0>
0

>  <SCORE.INTRA.REPUL>
0

>  <SCORE.INTRA.REPUL.0>
0

>  <SCORE.INTRA.SOLV>
0

>  <SCORE.INTRA.SOLV.lig_0>
-49.4056

>  <SCORE.INTRA.VDW>
0

>  <SCORE.INTRA.VDW.0>
0

>  <SCORE.INTRA.norm>
0

>  <SCORE.RESTR>
0

>  <SCORE.RESTR.CAVITY>
0

>  <SCORE.RESTR.norm>
0

>  <SCORE.SYSTEM>
0

>  <SCORE.SYSTEM.CONST>
0

>  <SCORE.SYSTEM.DIHEDRAL>
0

>  <SCORE.SYSTEM.SOLV>
0

>  <SCORE.SYSTEM.norm>
0

>  <SCORE.heavy>
11

>  <SCORE.norm>
-0.860406

>  <RMSD>
2.816

$$$$
ligand
 OpenBabel11021811503D
libRbt.so/2013.1/901 2013/11/27
 11 12  0  0  0  0  0  0  0  0999 V2000
    3.6156  -20.2676   25.2226 N   0  0  0  0  0  0  0  0  0  0  0  0
    3.0256  -20.6209   24.0539 C   0  0  0  0  0  0  0  0  0  0  0  0
    3.7706  -20.6318   22.8305 N   0  0  0  0  0  0  0  0  0  0  0  0
    1.7257  -20.9637   24.0155 N   0  0  0  0  0  0  0  0  0  0  0  0
    0.9557  -20.9735   25.1569 C   0  0  0  0  0  0  0  0  0  0  0  0
    1.5308  -20.6150   26.3624 C   0  0  0  0  0  0  0  0  0  0  0  0
    2.9101  -20.2502   26.3746 C   0  0  0  0  0  0  0  0  0  0  0  0
    3.5365  -19.8717   27.6044 N   0  0  0  0  0  0  0  0  0  0  0  0
    0.5384  -20.7110   27.3193 N   0  0  0  0  0  0  0  0  0  0  0  0
   -0.6043  -21.1070   26.7233 C   0  0  0  0  0  0  0  0  0  0  0  0
   -0.3768  -21.2723   25.4050 N   0  0  0  0  0  0  0  0  0  0  0  0
  1  7  2  0  0  0  0
  1  2  1  0  0  0  0
  2  3  1  0  0  0  0
  2  4  2  0  0  0  0
  4  5  1  0  0  0  0
  5  6  2  0  0  0  0
  5 11  1  0  0  0  0
  6  7  1  0  0  0  0
  6  9  1  0  0  0  0
  7  8  1  0  0  0  0
  9 10  1  0  0  0  0
 10 11  2  0  0  0  0
M  END
>  <CHROM.1>
1.89685229,-20.65870181,25.53902889,-0.62317715,0.25195338,1.40080898

>  <Name>
ligand

>  <RI>
0

>  <Rbt.Current_Directory>
/home/itssahil/PROJECTS/Mol_Feturizer/New_Systems/rnas/4LVZ

>  <Rbt.Executable>
rbdock ($Id: //depot/dev/client3/rdock/2013.1/src/exe/rbdock.cxx#4 $)

>  <Rbt.Library>
libRbt.so (2013.1, Build901 2013/11/27)

>  <Rbt.Parameter_File>
/export/apps/rDock/src/rDock_2013.1_src/data/scripts/dock_solv.prm

>  <Rbt.Receptor>
prm/pocket_docking_4.prm

>  <SCORE>
-9.36603

>  <SCORE.INTER>
-9.36603

>  <SCORE.INTER.CONST>
1

>  <SCORE.INTER.POLAR>
0

>  <SCORE.INTER.ROT>
0

>  <SCORE.INTER.SOLV>
12.539

>  <SCORE.INTER.VDW>
-14.0237

>  <SCORE.INTER.norm>
-0.851457

>  <SCORE.INTRA>
0

>  <SCORE.INTRA.DIHEDRAL>
0

>  <SCORE.INTRA.DIHEDRAL.0>
0

>  <SCORE.INTRA.POLAR>
0

>  <SCORE.INTRA.POLAR.0>
0

>  <SCORE.INTRA.REPUL>
0

>  <SCORE.INTRA.REPUL.0>
0

>  <SCORE.INTRA.SOLV>
0

>  <SCORE.INTRA.SOLV.lig_0>
-49.4056

>  <SCORE.INTRA.VDW>
0

>  <SCORE.INTRA.VDW.0>
0

>  <SCORE.INTRA.norm>
0

>  <SCORE.RESTR>
0

>  <SCORE.RESTR.CAVITY>
0

>  <SCORE.RESTR.norm>
0

>  <SCORE.SYSTEM>
0

>  <SCORE.SYSTEM.CONST>
0

>  <SCORE.SYSTEM.DIHEDRAL>
0

>  <SCORE.SYSTEM.SOLV>
0

>  <SCORE.SYSTEM.norm>
0

>  <SCORE.heavy>
11

>  <SCORE.norm>
-0.851457

>  <RMSD>
2.817

$$$$
ligand
 OpenBabel11021811503D
libRbt.so/2013.1/901 2013/11/27
 11 12  0  0  0  0  0  0  0  0999 V2000
    3.5722  -20.1725   25.1935 N   0  0  0  0  0  0  0  0  0  0  0  0
    2.9507  -20.5435   24.0469 C   0  0  0  0  0  0  0  0  0  0  0  0
    3.6352  -20.4851   22.7899 N   0  0  0  0  0  0  0  0  0  0  0  0
    1.6750  -20.9693   24.0626 N   0  0  0  0  0  0  0  0  0  0  0  0
    0.9630  -21.0485   25.2383 C   0  0  0  0  0  0  0  0  0  0  0  0
    1.5711  -20.6738   26.4225 C   0  0  0  0  0  0  0  0  0  0  0  0
    2.9232  -20.2204   26.3774 C   0  0  0  0  0  0  0  0  0  0  0  0
    3.5824  -19.8229   27.5838 N   0  0  0  0  0  0  0  0  0  0  0  0
    0.6340  -20.8503   27.4227 N   0  0  0  0  0  0  0  0  0  0  0  0
   -0.5082  -21.3096   26.8731 C   0  0  0  0  0  0  0  0  0  0  0  0
   -0.3341  -21.4374   25.5425 N   0  0  0  0  0  0  0  0  0  0  0  0
  1  7  2  0  0  0  0
  1  2  1  0  0  0  0
  2  3  1  0  0  0  0
  2  4  2  0  0  0  0
  4  5  1  0  0  0  0
  5  6  2  0  0  0  0
  5 11  1  0  0  0  0
  6  7  1  0  0  0  0
  6  9  1  0  0  0  0
  7  8  1  0  0  0  0
  9 10  1  0  0  0  0
 10 11  2  0  0  0  0
M  END
>  <CHROM.1>
1.89927676,-20.67970963,25.58218100,-0.66166001,0.32315897,1.43023618

>  <Name>
ligand

>  <RI>
0

>  <Rbt.Current_Directory>
/home/itssahil/PROJECTS/Mol_Feturizer/New_Systems/rnas/4LVZ

>  <Rbt.Executable>
rbdock ($Id: //depot/dev/client3/rdock/2013.1/src/exe/rbdock.cxx#4 $)

>  <Rbt.Library>
libRbt.so (2013.1, Build901 2013/11/27)

>  <Rbt.Parameter_File>
/export/apps/rDock/src/rDock_2013.1_src/data/scripts/dock_solv.prm

>  <Rbt.Receptor>
prm/pocket_docking_8.prm

>  <SCORE>
-9.45188

>  <SCORE.INTER>
-9.45188

>  <SCORE.INTER.CONST>
1

>  <SCORE.INTER.POLAR>
0

>  <SCORE.INTER.ROT>
0

>  <SCORE.INTER.SOLV>
12.8243

>  <SCORE.INTER.VDW>
-14.176

>  <SCORE.INTER.norm>
-0.859262

>  <SCORE.INTRA>
0

>  <SCORE.INTRA.DIHEDRAL>
0

>  <SCORE.INTRA.DIHEDRAL.0>
0

>  <SCORE.INTRA.POLAR>
0

>  <SCORE.INTRA.POLAR.0>
0

>  <SCORE.INTRA.REPUL>
0

>  <SCORE.INTRA.REPUL.0>
0

>  <SCORE.INTRA.SOLV>
0

>  <SCORE.INTRA.SOLV.lig_0>
-49.4056

>  <SCORE.INTRA.VDW>
0

>  <SCORE.INTRA.VDW.0>
0

>  <SCORE.INTRA.norm>
0

>  <SCORE.RESTR>
0

>  <SCORE.RESTR.CAVITY>
0

>  <SCORE.RESTR.norm>
0

>  <SCORE.SYSTEM>
0

>  <SCORE.SYSTEM.CONST>
0

>  <SCORE.SYSTEM.DIHEDRAL>
0

>  <SCORE.SYSTEM.SOLV>
0

>  <SCORE.SYSTEM.norm>
0

>  <SCORE.heavy>
11

>  <SCORE.norm>
-0.859262

>  <RMSD>
2.817

$$$$
ligand
 OpenBabel11021811503D
libRbt.so/2013.1/901 2013/11/27
 11 12  0  0  0  0  0  0  0  0999 V2000
    3.5990  -20.2009   25.1930 N   0  0  0  0  0  0  0  0  0  0  0  0
    2.9959  -20.5640   24.0341 C   0  0  0  0  0  0  0  0  0  0  0  0
    3.7103  -20.5273   22.7930 N   0  0  0  0  0  0  0  0  0  0  0  0
    1.7111  -20.9613   24.0222 N   0  0  0  0  0  0  0  0  0  0  0  0
    0.9706  -21.0187   25.1816 C   0  0  0  0  0  0  0  0  0  0  0  0
    1.5595  -20.6514   26.3777 C   0  0  0  0  0  0  0  0  0  0  0  0
    2.9221  -20.2283   26.3618 C   0  0  0  0  0  0  0  0  0  0  0  0
    3.5620  -19.8393   27.5813 N   0  0  0  0  0  0  0  0  0  0  0  0
    0.5959  -20.8019   27.3569 N   0  0  0  0  0  0  0  0  0  0  0  0
   -0.5433  -21.2386   26.7831 C   0  0  0  0  0  0  0  0  0  0  0  0
   -0.3415  -21.3772   25.4575 N   0  0  0  0  0  0  0  0  0  0  0  0
  1  7  2  0  0  0  0
  1  2  1  0  0  0  0
  2  3  1  0  0  0  0
  2  4  2  0  0  0  0
  4  5  1  0  0  0  0
  5  6  2  0  0  0  0
  5 11  1  0  0  0  0
  6  7  1  0  0  0  0
  6  9  1  0  0  0  0
  7  8  1  0  0  0  0
  9 10  1  0  0  0  0
 10 11  2  0  0  0  0
M  END
>  <CHROM.1>
1.90671595,-20.66894031,25.54527534,-0.64109290,0.29780888,1.41903937

>  <Name>
ligand

>  <RI>
0

>  <Rbt.Current_Directory>
/home/itssahil/PROJECTS/Mol_Feturizer/New_Systems/rnas/4LVZ

>  <Rbt.Executable>
rbdock ($Id: //depot/dev/client3/rdock/2013.1/src/exe/rbdock.cxx#4 $)

>  <Rbt.Library>
libRbt.so (2013.1, Build901 2013/11/27)

>  <Rbt.Parameter_File>
/export/apps/rDock/src/rDock_2013.1_src/data/scripts/dock_solv.prm

>  <Rbt.Receptor>
prm/pocket_docking_3.prm

>  <SCORE>
-9.42357

>  <SCORE.INTER>
-9.42357

>  <SCORE.INTER.CONST>
1

>  <SCORE.INTER.POLAR>
0

>  <SCORE.INTER.ROT>
0

>  <SCORE.INTER.SOLV>
12.581

>  <SCORE.INTER.VDW>
-14.0761

>  <SCORE.INTER.norm>
-0.856688

>  <SCORE.INTRA>
0

>  <SCORE.INTRA.DIHEDRAL>
0

>  <SCORE.INTRA.DIHEDRAL.0>
0

>  <SCORE.INTRA.POLAR>
0

>  <SCORE.INTRA.POLAR.0>
0

>  <SCORE.INTRA.REPUL>
0

>  <SCORE.INTRA.REPUL.0>
0

>  <SCORE.INTRA.SOLV>
0

>  <SCORE.INTRA.SOLV.lig_0>
-49.4056

>  <SCORE.INTRA.VDW>
0

>  <SCORE.INTRA.VDW.0>
0

>  <SCORE.INTRA.norm>
0

>  <SCORE.RESTR>
0

>  <SCORE.RESTR.CAVITY>
0

>  <SCORE.RESTR.norm>
0

>  <SCORE.SYSTEM>
0

>  <SCORE.SYSTEM.CONST>
0

>  <SCORE.SYSTEM.DIHEDRAL>
0

>  <SCORE.SYSTEM.SOLV>
0

>  <SCORE.SYSTEM.norm>
0

>  <SCORE.heavy>
11

>  <SCORE.norm>
-0.856688

>  <RMSD>
2.818

$$$$
ligand
 OpenBabel11021811503D
libRbt.so/2013.1/901 2013/11/27
 11 12  0  0  0  0  0  0  0  0999 V2000
    3.5963  -20.1977   25.1922 N   0  0  0  0  0  0  0  0  0  0  0  0
    2.9924  -20.5608   24.0337 C   0  0  0  0  0  0  0  0  0  0  0  0
    3.7035  -20.5165   22.7910 N   0  0  0  0  0  0  0  0  0  0  0  0
    1.7097  -20.9652   24.0239 N   0  0  0  0  0  0  0  0  0  0  0  0
    0.9725  -21.0301   25.1849 C   0  0  0  0  0  0  0  0  0  0  0  0
    1.5623  -20.6631   26.3806 C   0  0  0  0  0  0  0  0  0  0  0  0
    2.9224  -20.2323   26.3626 C   0  0  0  0  0  0  0  0  0  0  0  0
    3.5633  -19.8433   27.5816 N   0  0  0  0  0  0  0  0  0  0  0  0
    0.6020  -20.8218   27.3617 N   0  0  0  0  0  0  0  0  0  0  0  0
   -0.5362  -21.2631   26.7895 C   0  0  0  0  0  0  0  0  0  0  0  0
   -0.3370  -21.3967   25.4630 N   0  0  0  0  0  0  0  0  0  0  0  0
  1  7  2  0  0  0  0
  1  2  1  0  0  0  0
  2  3  1  0  0  0  0
  2  4  2  0  0  0  0
  4  5  1  0  0  0  0
  5  6  2  0  0  0  0
  5 11  1  0  0  0  0
  6  7  1  0  0  0  0
  6  9  1  0  0  0  0
  7  8  1  0  0  0  0
  9 10  1  0  0  0  0
 10 11  2  0  0  0  0
M  END
>  <CHROM.1>
1.90750903,-20.67619305,25.54726285,-0.64279691,0.30367749,1.42246920

>  <Name>
ligand

>  <RI>
0

>  <Rbt.Current_Directory>
/home/itssahil/PROJECTS/Mol_Feturizer/New_Systems/rnas/4LVZ

>  <Rbt.Executable>
rbdock ($Id: //depot/dev/client3/rdock/2013.1/src/exe/rbdock.cxx#4 $)

>  <Rbt.Library>
libRbt.so (2013.1, Build901 2013/11/27)

>  <Rbt.Parameter_File>
/export/apps/rDock/src/rDock_2013.1_src/data/scripts/dock_solv.prm

>  <Rbt.Receptor>
prm/pocket_docking_3.prm

>  <SCORE>
-9.46645

>  <SCORE.INTER>
-9.46645

>  <SCORE.INTER.CONST>
1

>  <SCORE.INTER.POLAR>
0

>  <SCORE.INTER.ROT>
0

>  <SCORE.INTER.SOLV>
12.5882

>  <SCORE.INTER.VDW>
-14.107

>  <SCORE.INTER.norm>
-0.860586

>  <SCORE.INTRA>
0

>  <SCORE.INTRA.DIHEDRAL>
0

>  <SCORE.INTRA.DIHEDRAL.0>
0

>  <SCORE.INTRA.POLAR>
0

>  <SCORE.INTRA.POLAR.0>
0

>  <SCORE.INTRA.REPUL>
0

>  <SCORE.INTRA.REPUL.0>
0

>  <SCORE.INTRA.SOLV>
0

>  <SCORE.INTRA.SOLV.lig_0>
-49.4056

>  <SCORE.INTRA.VDW>
0

>  <SCORE.INTRA.VDW.0>
0

>  <SCORE.INTRA.norm>
0

>  <SCORE.RESTR>
0

>  <SCORE.RESTR.CAVITY>
0

>  <SCORE.RESTR.norm>
0

>  <SCORE.SYSTEM>
0

>  <SCORE.SYSTEM.CONST>
0

>  <SCORE.SYSTEM.DIHEDRAL>
0

>  <SCORE.SYSTEM.SOLV>
0

>  <SCORE.SYSTEM.norm>
0

>  <SCORE.heavy>
11

>  <SCORE.norm>
-0.860586

>  <RMSD>
2.819

$$$$
ligand
 OpenBabel11021811503D
libRbt.so/2013.1/901 2013/11/27
 11 12  0  0  0  0  0  0  0  0999 V2000
    3.6955  -20.3379   25.1771 N   0  0  0  0  0  0  0  0  0  0  0  0
    3.0521  -20.6047   24.0138 C   0  0  0  0  0  0  0  0  0  0  0  0
    3.7445  -20.5402   22.7614 N   0  0  0  0  0  0  0  0  0  0  0  0
    1.7472  -20.9303   24.0083 N   0  0  0  0  0  0  0  0  0  0  0  0
    1.0261  -21.0097   25.1785 C   0  0  0  0  0  0  0  0  0  0  0  0
    1.6563  -20.7400   26.3796 C   0  0  0  0  0  0  0  0  0  0  0  0
    3.0397  -20.3914   26.3570 C   0  0  0  0  0  0  0  0  0  0  0  0
    3.7225  -20.1040   27.5814 N   0  0  0  0  0  0  0  0  0  0  0  0
    0.7040  -20.8903   27.3697 N   0  0  0  0  0  0  0  0  0  0  0  0
   -0.4680  -21.2329   26.7981 C   0  0  0  0  0  0  0  0  0  0  0  0
   -0.2986  -21.3106   25.4631 N   0  0  0  0  0  0  0  0  0  0  0  0
  1  7  2  0  0  0  0
  1  2  1  0  0  0  0
  2  3  1  0  0  0  0
  2  4  2  0  0  0  0
  4  5  1  0  0  0  0
  5  6  2  0  0  0  0
  5 11  1  0  0  0  0
  6  7  1  0  0  0  0
  6  9  1  0  0  0  0
  7  8  1  0  0  0  0
  9 10  1  0  0  0  0
 10 11  2  0  0  0  0
M  END
>  <CHROM.1>
1.98664875,-20.73146883,25.54016203,-0.66845339,0.24563053,1.47977480

>  <Name>
ligand

>  <RI>
0

>  <Rbt.Current_Directory>
/home/itssahil/PROJECTS/Mol_Feturizer/New_Systems/rnas/4LVZ

>  <Rbt.Executable>
rbdock ($Id: //depot/dev/client3/rdock/2013.1/src/exe/rbdock.cxx#4 $)

>  <Rbt.Library>
libRbt.so (2013.1, Build901 2013/11/27)

>  <Rbt.Parameter_File>
/export/apps/rDock/src/rDock_2013.1_src/data/scripts/dock_solv.prm

>  <Rbt.Receptor>
prm/pocket_docking_3.prm

>  <SCORE>
-9.45018

>  <SCORE.INTER>
-9.45018

>  <SCORE.INTER.CONST>
1

>  <SCORE.INTER.POLAR>
0

>  <SCORE.INTER.ROT>
0

>  <SCORE.INTER.SOLV>
11.6131

>  <SCORE.INTER.VDW>
-13.7712

>  <SCORE.INTER.norm>
-0.859107

>  <SCORE.INTRA>
0

>  <SCORE.INTRA.DIHEDRAL>
0

>  <SCORE.INTRA.DIHEDRAL.0>
0

>  <SCORE.INTRA.POLAR>
0

>  <SCORE.INTRA.POLAR.0>
0

>  <SCORE.INTRA.REPUL>
0

>  <SCORE.INTRA.REPUL.0>
0

>  <SCORE.INTRA.SOLV>
0

>  <SCORE.INTRA.SOLV.lig_0>
-49.4056

>  <SCORE.INTRA.VDW>
0

>  <SCORE.INTRA.VDW.0>
0

>  <SCORE.INTRA.norm>
0

>  <SCORE.RESTR>
0

>  <SCORE.RESTR.CAVITY>
0

>  <SCORE.RESTR.norm>
0

>  <SCORE.SYSTEM>
0

>  <SCORE.SYSTEM.CONST>
0

>  <SCORE.SYSTEM.DIHEDRAL>
0

>  <SCORE.SYSTEM.SOLV>
0

>  <SCORE.SYSTEM.norm>
0

>  <SCORE.heavy>
11

>  <SCORE.norm>
-0.859107

>  <RMSD>
2.819

$$$$
ligand
 OpenBabel11021811503D
libRbt.so/2013.1/901 2013/11/27
 11 12  0  0  0  0  0  0  0  0999 V2000
    3.6888  -20.3851   25.3689 N   0  0  0  0  0  0  0  0  0  0  0  0
    3.2203  -20.9203   24.2145 C   0  0  0  0  0  0  0  0  0  0  0  0
    4.1054  -21.1989   23.1233 N   0  0  0  0  0  0  0  0  0  0  0  0
    1.9125  -21.1963   24.0652 N   0  0  0  0  0  0  0  0  0  0  0  0
    1.0110  -20.9521   25.0768 C   0  0  0  0  0  0  0  0  0  0  0  0
    1.4607  -20.4041   26.2642 C   0  0  0  0  0  0  0  0  0  0  0  0
    2.8520  -20.1154   26.3946 C   0  0  0  0  0  0  0  0  0  0  0  0
    3.3511  -19.5461   27.6090 N   0  0  0  0  0  0  0  0  0  0  0  0
    0.3551  -20.2674   27.0818 N   0  0  0  0  0  0  0  0  0  0  0  0
   -0.7333  -20.7084   26.4195 C   0  0  0  0  0  0  0  0  0  0  0  0
   -0.3605  -21.1295   25.1945 N   0  0  0  0  0  0  0  0  0  0  0  0
  1  7  2  0  0  0  0
  1  2  1  0  0  0  0
  2  3  1  0  0  0  0
  2  4  2  0  0  0  0
  4  5  1  0  0  0  0
  5  6  2  0  0  0  0
  5 11  1  0  0  0  0
  6  7  1  0  0  0  0
  6  9  1  0  0  0  0
  7  8  1  0  0  0  0
  9 10  1  0  0  0  0
 10 11  2  0  0  0  0
M  END
>  <CHROM.1>
1.91981968,-20.62034617,25.51831736,-0.51468349,0.15537929,1.19340210

>  <Name>
ligand

>  <RI>
0

>  <Rbt.Current_Directory>
/home/itssahil/PROJECTS/Mol_Feturizer/New_Systems/rnas/4LVZ

>  <Rbt.Executable>
rbdock ($Id: //depot/dev/client3/rdock/2013.1/src/exe/rbdock.cxx#4 $)

>  <Rbt.Library>
libRbt.so (2013.1, Build901 2013/11/27)

>  <Rbt.Parameter_File>
/export/apps/rDock/src/rDock_2013.1_src/data/scripts/dock_solv.prm

>  <Rbt.Receptor>
prm/pocket_docking_4.prm

>  <SCORE>
-9.42765

>  <SCORE.INTER>
-9.42765

>  <SCORE.INTER.CONST>
1

>  <SCORE.INTER.POLAR>
0

>  <SCORE.INTER.ROT>
0

>  <SCORE.INTER.SOLV>
13.0343

>  <SCORE.INTER.VDW>
-14.2299

>  <SCORE.INTER.norm>
-0.857059

>  <SCORE.INTRA>
0

>  <SCORE.INTRA.DIHEDRAL>
0

>  <SCORE.INTRA.DIHEDRAL.0>
0

>  <SCORE.INTRA.POLAR>
0

>  <SCORE.INTRA.POLAR.0>
0

>  <SCORE.INTRA.REPUL>
0

>  <SCORE.INTRA.REPUL.0>
0

>  <SCORE.INTRA.SOLV>
0

>  <SCORE.INTRA.SOLV.lig_0>
-49.4056

>  <SCORE.INTRA.VDW>
0

>  <SCORE.INTRA.VDW.0>
0

>  <SCORE.INTRA.norm>
0

>  <SCORE.RESTR>
0

>  <SCORE.RESTR.CAVITY>
0

>  <SCORE.RESTR.norm>
0

>  <SCORE.SYSTEM>
0

>  <SCORE.SYSTEM.CONST>
0

>  <SCORE.SYSTEM.DIHEDRAL>
0

>  <SCORE.SYSTEM.SOLV>
0

>  <SCORE.SYSTEM.norm>
0

>  <SCORE.heavy>
11

>  <SCORE.norm>
-0.857059

>  <RMSD>
2.819

$$$$
ligand
 OpenBabel11021811503D
libRbt.so/2013.1/901 2013/11/27
 11 12  0  0  0  0  0  0  0  0999 V2000
    3.6935  -20.3152   25.2540 N   0  0  0  0  0  0  0  0  0  0  0  0
    3.1564  -20.6692   24.0603 C   0  0  0  0  0  0  0  0  0  0  0  0
    3.9645  -20.7184   22.8785 N   0  0  0  0  0  0  0  0  0  0  0  0
    1.8512  -20.9767   23.9573 N   0  0  0  0  0  0  0  0  0  0  0  0
    1.0220  -20.9488   25.0560 C   0  0  0  0  0  0  0  0  0  0  0  0
    1.5424  -20.5886   26.2856 C   0  0  0  0  0  0  0  0  0  0  0  0
    2.9289  -20.2616   26.3665 C   0  0  0  0  0  0  0  0  0  0  0  0
    3.4998  -19.8825   27.6228 N   0  0  0  0  0  0  0  0  0  0  0  0
    0.4985  -20.6433   27.1895 N   0  0  0  0  0  0  0  0  0  0  0  0
   -0.6218  -21.0166   26.5387 C   0  0  0  0  0  0  0  0  0  0  0  0
   -0.3296  -21.2073   25.2367 N   0  0  0  0  0  0  0  0  0  0  0  0
  1  7  2  0  0  0  0
  1  2  1  0  0  0  0
  2  3  1  0  0  0  0
  2  4  2  0  0  0  0
  4  5  1  0  0  0  0
  5  6  2  0  0  0  0
  5 11  1  0  0  0  0
  6  7  1  0  0  0  0
  6  9  1  0  0  0  0
  7  8  1  0  0  0  0
  9 10  1  0  0  0  0
 10 11  2  0  0  0  0
M  END
>  <CHROM.1>
1.95011093,-20.65435242,25.48357698,-0.57469237,0.21497208,1.37569974

>  <Name>
ligand

>  <RI>
0

>  <Rbt.Current_Directory>
/home/itssahil/PROJECTS/Mol_Feturizer/New_Systems/rnas/4LVZ

>  <Rbt.Executable>
rbdock ($Id: //depot/dev/client3/rdock/2013.1/src/exe/rbdock.cxx#4 $)

>  <Rbt.Library>
libRbt.so (2013.1, Build901 2013/11/27)

>  <Rbt.Parameter_File>
/export/apps/rDock/src/rDock_2013.1_src/data/scripts/dock_solv.prm

>  <Rbt.Receptor>
prm/pocket_docking_4.prm

>  <SCORE>
-9.46001

>  <SCORE.INTER>
-9.46001

>  <SCORE.INTER.CONST>
1

>  <SCORE.INTER.POLAR>
0

>  <SCORE.INTER.ROT>
0

>  <SCORE.INTER.SOLV>
11.8481

>  <SCORE.INTER.VDW>
-13.856

>  <SCORE.INTER.norm>
-0.860001

>  <SCORE.INTRA>
0

>  <SCORE.INTRA.DIHEDRAL>
0

>  <SCORE.INTRA.DIHEDRAL.0>
0

>  <SCORE.INTRA.POLAR>
0

>  <SCORE.INTRA.POLAR.0>
0

>  <SCORE.INTRA.REPUL>
0

>  <SCORE.INTRA.REPUL.0>
0

>  <SCORE.INTRA.SOLV>
0

>  <SCORE.INTRA.SOLV.lig_0>
-49.4056

>  <SCORE.INTRA.VDW>
0

>  <SCORE.INTRA.VDW.0>
0

>  <SCORE.INTRA.norm>
0

>  <SCORE.RESTR>
0

>  <SCORE.RESTR.CAVITY>
0

>  <SCORE.RESTR.norm>
0

>  <SCORE.SYSTEM>
0

>  <SCORE.SYSTEM.CONST>
0

>  <SCORE.SYSTEM.DIHEDRAL>
0

>  <SCORE.SYSTEM.SOLV>
0

>  <SCORE.SYSTEM.norm>
0

>  <SCORE.heavy>
11

>  <SCORE.norm>
-0.860001

>  <RMSD>
2.819

$$$$
ligand
 OpenBabel11021811503D
libRbt.so/2013.1/901 2013/11/27
 11 12  0  0  0  0  0  0  0  0999 V2000
    3.7315  -20.3331   25.3055 N   0  0  0  0  0  0  0  0  0  0  0  0
    3.2389  -20.8393   24.1481 C   0  0  0  0  0  0  0  0  0  0  0  0
    4.0937  -21.0520   23.0184 N   0  0  0  0  0  0  0  0  0  0  0  0
    1.9350  -21.1479   24.0320 N   0  0  0  0  0  0  0  0  0  0  0  0
    1.0623  -20.9672   25.0814 C   0  0  0  0  0  0  0  0  0  0  0  0
    1.5368  -20.4499   26.2728 C   0  0  0  0  0  0  0  0  0  0  0  0
    2.9231  -20.1255   26.3677 C   0  0  0  0  0  0  0  0  0  0  0  0
    3.4473  -19.5864   27.5853 N   0  0  0  0  0  0  0  0  0  0  0  0
    0.4564  -20.3754   27.1313 N   0  0  0  0  0  0  0  0  0  0  0  0
   -0.6413  -20.8237   26.4894 C   0  0  0  0  0  0  0  0  0  0  0  0
   -0.2989  -21.1889   25.2379 N   0  0  0  0  0  0  0  0  0  0  0  0
  1  7  2  0  0  0  0
  1  2  1  0  0  0  0
  2  3  1  0  0  0  0
  2  4  2  0  0  0  0
  4  5  1  0  0  0  0
  5  6  2  0  0  0  0
  5 11  1  0  0  0  0
  6  7  1  0  0  0  0
  6  9  1  0  0  0  0
  7  8  1  0  0  0  0
  9 10  1  0  0  0  0
 10 11  2  0  0  0  0
M  END
>  <CHROM.1>
1.97596560,-20.62527674,25.50460124,-0.53659020,0.19403404,1.23411772

>  <Name>
ligand

>  <RI>
0

>  <Rbt.Current_Directory>
/home/itssahil/PROJECTS/Mol_Feturizer/New_Systems/rnas/4LVZ

>  <Rbt.Executable>
rbdock ($Id: //depot/dev/client3/rdock/2013.1/src/exe/rbdock.cxx#4 $)

>  <Rbt.Library>
libRbt.so (2013.1, Build901 2013/11/27)

>  <Rbt.Parameter_File>
/export/apps/rDock/src/rDock_2013.1_src/data/scripts/dock_solv.prm

>  <Rbt.Receptor>
prm/pocket_docking_5.prm

>  <SCORE>
-9.4008

>  <SCORE.INTER>
-9.4008

>  <SCORE.INTER.CONST>
1

>  <SCORE.INTER.POLAR>
0

>  <SCORE.INTER.ROT>
0

>  <SCORE.INTER.SOLV>
12.5145

>  <SCORE.INTER.VDW>
-14.0387

>  <SCORE.INTER.norm>
-0.854618

>  <SCORE.INTRA>
0

>  <SCORE.INTRA.DIHEDRAL>
0

>  <SCORE.INTRA.DIHEDRAL.0>
0

>  <SCORE.INTRA.POLAR>
0

>  <SCORE.INTRA.POLAR.0>
0

>  <SCORE.INTRA.REPUL>
0

>  <SCORE.INTRA.REPUL.0>
0

>  <SCORE.INTRA.SOLV>
0

>  <SCORE.INTRA.SOLV.lig_0>
-49.4056

>  <SCORE.INTRA.VDW>
0

>  <SCORE.INTRA.VDW.0>
0

>  <SCORE.INTRA.norm>
0

>  <SCORE.RESTR>
0

>  <SCORE.RESTR.CAVITY>
0

>  <SCORE.RESTR.norm>
0

>  <SCORE.SYSTEM>
0

>  <SCORE.SYSTEM.CONST>
0

>  <SCORE.SYSTEM.DIHEDRAL>
0

>  <SCORE.SYSTEM.SOLV>
0

>  <SCORE.SYSTEM.norm>
0

>  <SCORE.heavy>
11

>  <SCORE.norm>
-0.854618

>  <RMSD>
2.819

$$$$
ligand
 OpenBabel11021811503D
libRbt.so/2013.1/901 2013/11/27
 11 12  0  0  0  0  0  0  0  0999 V2000
    3.5959  -20.2327   25.2071 N   0  0  0  0  0  0  0  0  0  0  0  0
    3.0060  -20.6038   24.0439 C   0  0  0  0  0  0  0  0  0  0  0  0
    3.7394  -20.5916   22.8135 N   0  0  0  0  0  0  0  0  0  0  0  0
    1.7169  -20.9862   24.0177 N   0  0  0  0  0  0  0  0  0  0  0  0
    0.9585  -21.0198   25.1663 C   0  0  0  0  0  0  0  0  0  0  0  0
    1.5337  -20.6439   26.3665 C   0  0  0  0  0  0  0  0  0  0  0  0
    2.9013  -20.2370   26.3658 C   0  0  0  0  0  0  0  0  0  0  0  0
    3.5274  -19.8397   27.5897 N   0  0  0  0  0  0  0  0  0  0  0  0
    0.5538  -20.7704   27.3327 N   0  0  0  0  0  0  0  0  0  0  0  0
   -0.5818  -21.2012   26.7474 C   0  0  0  0  0  0  0  0  0  0  0  0
   -0.3618  -21.3593   25.4270 N   0  0  0  0  0  0  0  0  0  0  0  0
  1  7  2  0  0  0  0
  1  2  1  0  0  0  0
  2  3  1  0  0  0  0
  2  4  2  0  0  0  0
  4  5  1  0  0  0  0
  5  6  2  0  0  0  0
  5 11  1  0  0  0  0
  6  7  1  0  0  0  0
  6  9  1  0  0  0  0
  7  8  1  0  0  0  0
  9 10  1  0  0  0  0
 10 11  2  0  0  0  0
M  END
>  <CHROM.1>
1.89310556,-20.67632188,25.53966396,-0.62752408,0.28375913,1.40223493

>  <Name>
ligand

>  <RI>
0

>  <Rbt.Current_Directory>
/home/itssahil/PROJECTS/Mol_Feturizer/New_Systems/rnas/4LVZ

>  <Rbt.Executable>
rbdock ($Id: //depot/dev/client3/rdock/2013.1/src/exe/rbdock.cxx#4 $)

>  <Rbt.Library>
libRbt.so (2013.1, Build901 2013/11/27)

>  <Rbt.Parameter_File>
/export/apps/rDock/src/rDock_2013.1_src/data/scripts/dock_solv.prm

>  <Rbt.Receptor>
prm/pocket_docking_3.prm

>  <SCORE>
-9.46429

>  <SCORE.INTER>
-9.46429

>  <SCORE.INTER.CONST>
1

>  <SCORE.INTER.POLAR>
0

>  <SCORE.INTER.ROT>
0

>  <SCORE.INTER.SOLV>
12.6754

>  <SCORE.INTER.VDW>
-14.1347

>  <SCORE.INTER.norm>
-0.86039

>  <SCORE.INTRA>
0

>  <SCORE.INTRA.DIHEDRAL>
0

>  <SCORE.INTRA.DIHEDRAL.0>
0

>  <SCORE.INTRA.POLAR>
0

>  <SCORE.INTRA.POLAR.0>
0

>  <SCORE.INTRA.REPUL>
0

>  <SCORE.INTRA.REPUL.0>
0

>  <SCORE.INTRA.SOLV>
0

>  <SCORE.INTRA.SOLV.lig_0>
-49.4056

>  <SCORE.INTRA.VDW>
0

>  <SCORE.INTRA.VDW.0>
0

>  <SCORE.INTRA.norm>
0

>  <SCORE.RESTR>
0

>  <SCORE.RESTR.CAVITY>
0

>  <SCORE.RESTR.norm>
0

>  <SCORE.SYSTEM>
0

>  <SCORE.SYSTEM.CONST>
0

>  <SCORE.SYSTEM.DIHEDRAL>
0

>  <SCORE.SYSTEM.SOLV>
0

>  <SCORE.SYSTEM.norm>
0

>  <SCORE.heavy>
11

>  <SCORE.norm>
-0.86039

>  <RMSD>
2.820

$$$$
ligand
 OpenBabel11021811503D
libRbt.so/2013.1/901 2013/11/27
 11 12  0  0  0  0  0  0  0  0999 V2000
    3.6442  -20.1430   25.1493 N   0  0  0  0  0  0  0  0  0  0  0  0
    3.0209  -20.5201   24.0056 C   0  0  0  0  0  0  0  0  0  0  0  0
    3.7062  -20.4764   22.7485 N   0  0  0  0  0  0  0  0  0  0  0  0
    1.7429  -20.9384   24.0244 N   0  0  0  0  0  0  0  0  0  0  0  0
    1.0300  -21.0035   25.2005 C   0  0  0  0  0  0  0  0  0  0  0  0
    1.6398  -20.6223   26.3817 C   0  0  0  0  0  0  0  0  0  0  0  0
    2.9945  -20.1771   26.3333 C   0  0  0  0  0  0  0  0  0  0  0  0
    3.6556  -19.7732   27.5365 N   0  0  0  0  0  0  0  0  0  0  0  0
    0.7014  -20.7849   27.3830 N   0  0  0  0  0  0  0  0  0  0  0  0
   -0.4433  -21.2422   26.8369 C   0  0  0  0  0  0  0  0  0  0  0  0
   -0.2695  -21.3823   25.5075 N   0  0  0  0  0  0  0  0  0  0  0  0
  1  7  2  0  0  0  0
  1  2  1  0  0  0  0
  2  3  1  0  0  0  0
  2  4  2  0  0  0  0
  4  5  1  0  0  0  0
  5  6  2  0  0  0  0
  5 11  1  0  0  0  0
  6  7  1  0  0  0  0
  6  9  1  0  0  0  0
  7  8  1  0  0  0  0
  9 10  1  0  0  0  0
 10 11  2  0  0  0  0
M  END
>  <CHROM.1>
1.96824862,-20.63721631,25.54160502,-0.66215865,0.31738552,1.42190268

>  <Name>
ligand

>  <RI>
0

>  <Rbt.Current_Directory>
/home/itssahil/PROJECTS/Mol_Feturizer/New_Systems/rnas/4LVZ

>  <Rbt.Executable>
rbdock ($Id: //depot/dev/client3/rdock/2013.1/src/exe/rbdock.cxx#4 $)

>  <Rbt.Library>
libRbt.so (2013.1, Build901 2013/11/27)

>  <Rbt.Parameter_File>
/export/apps/rDock/src/rDock_2013.1_src/data/scripts/dock_solv.prm

>  <Rbt.Receptor>
prm/pocket_docking_3.prm

>  <SCORE>
-9.41906

>  <SCORE.INTER>
-9.41906

>  <SCORE.INTER.CONST>
1

>  <SCORE.INTER.POLAR>
0

>  <SCORE.INTER.ROT>
0

>  <SCORE.INTER.SOLV>
12.2382

>  <SCORE.INTER.VDW>
-13.9588

>  <SCORE.INTER.norm>
-0.856278

>  <SCORE.INTRA>
0

>  <SCORE.INTRA.DIHEDRAL>
0

>  <SCORE.INTRA.DIHEDRAL.0>
0

>  <SCORE.INTRA.POLAR>
0

>  <SCORE.INTRA.POLAR.0>
0

>  <SCORE.INTRA.REPUL>
0

>  <SCORE.INTRA.REPUL.0>
0

>  <SCORE.INTRA.SOLV>
0

>  <SCORE.INTRA.SOLV.lig_0>
-49.4056

>  <SCORE.INTRA.VDW>
0

>  <SCORE.INTRA.VDW.0>
0

>  <SCORE.INTRA.norm>
0

>  <SCORE.RESTR>
0

>  <SCORE.RESTR.CAVITY>
0

>  <SCORE.RESTR.norm>
0

>  <SCORE.SYSTEM>
0

>  <SCORE.SYSTEM.CONST>
0

>  <SCORE.SYSTEM.DIHEDRAL>
0

>  <SCORE.SYSTEM.SOLV>
0

>  <SCORE.SYSTEM.norm>
0

>  <SCORE.heavy>
11

>  <SCORE.norm>
-0.856278

>  <RMSD>
2.820

$$$$
ligand
 OpenBabel11021811503D
libRbt.so/2013.1/901 2013/11/27
 11 12  0  0  0  0  0  0  0  0999 V2000
    3.5714  -20.1870   25.1813 N   0  0  0  0  0  0  0  0  0  0  0  0
    2.9446  -20.5647   24.0398 C   0  0  0  0  0  0  0  0  0  0  0  0
    3.6260  -20.5215   22.7805 N   0  0  0  0  0  0  0  0  0  0  0  0
    1.6666  -20.9830   24.0627 N   0  0  0  0  0  0  0  0  0  0  0  0
    0.9574  -21.0476   25.2410 C   0  0  0  0  0  0  0  0  0  0  0  0
    1.5709  -20.6659   26.4202 C   0  0  0  0  0  0  0  0  0  0  0  0
    2.9254  -20.2207   26.3674 C   0  0  0  0  0  0  0  0  0  0  0  0
    3.5902  -19.8163   27.5684 N   0  0  0  0  0  0  0  0  0  0  0  0
    0.6355  -20.8280   27.4245 N   0  0  0  0  0  0  0  0  0  0  0  0
   -0.5108  -21.2856   26.8821 C   0  0  0  0  0  0  0  0  0  0  0  0
   -0.3412  -21.4263   25.5522 N   0  0  0  0  0  0  0  0  0  0  0  0
  1  7  2  0  0  0  0
  1  2  1  0  0  0  0
  2  3  1  0  0  0  0
  2  4  2  0  0  0  0
  4  5  1  0  0  0  0
  5  6  2  0  0  0  0
  5 11  1  0  0  0  0
  6  7  1  0  0  0  0
  6  9  1  0  0  0  0
  7  8  1  0  0  0  0
  9 10  1  0  0  0  0
 10 11  2  0  0  0  0
M  END
>  <CHROM.1>
1.89668925,-20.68115074,25.57906843,-0.66538858,0.31785235,1.42249665

>  <Name>
ligand

>  <RI>
0

>  <Rbt.Current_Directory>
/home/itssahil/PROJECTS/Mol_Feturizer/New_Systems/rnas/4LVZ

>  <Rbt.Executable>
rbdock ($Id: //depot/dev/client3/rdock/2013.1/src/exe/rbdock.cxx#4 $)

>  <Rbt.Library>
libRbt.so (2013.1, Build901 2013/11/27)

>  <Rbt.Parameter_File>
/export/apps/rDock/src/rDock_2013.1_src/data/scripts/dock_solv.prm

>  <Rbt.Receptor>
prm/pocket_docking_3.prm

>  <SCORE>
-9.44248

>  <SCORE.INTER>
-9.44248

>  <SCORE.INTER.CONST>
1

>  <SCORE.INTER.POLAR>
0

>  <SCORE.INTER.ROT>
0

>  <SCORE.INTER.SOLV>
12.8694

>  <SCORE.INTER.VDW>
-14.1848

>  <SCORE.INTER.norm>
-0.858408

>  <SCORE.INTRA>
0

>  <SCORE.INTRA.DIHEDRAL>
0

>  <SCORE.INTRA.DIHEDRAL.0>
0

>  <SCORE.INTRA.POLAR>
0

>  <SCORE.INTRA.POLAR.0>
0

>  <SCORE.INTRA.REPUL>
0

>  <SCORE.INTRA.REPUL.0>
0

>  <SCORE.INTRA.SOLV>
0

>  <SCORE.INTRA.SOLV.lig_0>
-49.4056

>  <SCORE.INTRA.VDW>
0

>  <SCORE.INTRA.VDW.0>
0

>  <SCORE.INTRA.norm>
0

>  <SCORE.RESTR>
0

>  <SCORE.RESTR.CAVITY>
0

>  <SCORE.RESTR.norm>
0

>  <SCORE.SYSTEM>
0

>  <SCORE.SYSTEM.CONST>
0

>  <SCORE.SYSTEM.DIHEDRAL>
0

>  <SCORE.SYSTEM.SOLV>
0

>  <SCORE.SYSTEM.norm>
0

>  <SCORE.heavy>
11

>  <SCORE.norm>
-0.858408

>  <RMSD>
2.821

$$$$
ligand
 OpenBabel11021811503D
libRbt.so/2013.1/901 2013/11/27
 11 12  0  0  0  0  0  0  0  0999 V2000
    3.6302  -20.1710   25.1608 N   0  0  0  0  0  0  0  0  0  0  0  0
    3.0166  -20.5404   24.0095 C   0  0  0  0  0  0  0  0  0  0  0  0
    3.7162  -20.4998   22.7601 N   0  0  0  0  0  0  0  0  0  0  0  0
    1.7348  -20.9476   24.0131 N   0  0  0  0  0  0  0  0  0  0  0  0
    1.0083  -21.0092   25.1810 C   0  0  0  0  0  0  0  0  0  0  0  0
    1.6082  -20.6357   26.3697 C   0  0  0  0  0  0  0  0  0  0  0  0
    2.9671  -20.2021   26.3374 C   0  0  0  0  0  0  0  0  0  0  0  0
    3.6182  -19.8065   27.5489 N   0  0  0  0  0  0  0  0  0  0  0  0
    0.6573  -20.7924   27.3602 N   0  0  0  0  0  0  0  0  0  0  0  0
   -0.4851  -21.2387   26.8003 C   0  0  0  0  0  0  0  0  0  0  0  0
   -0.2977  -21.3774   25.4727 N   0  0  0  0  0  0  0  0  0  0  0  0
  1  7  2  0  0  0  0
  1  2  1  0  0  0  0
  2  3  1  0  0  0  0
  2  4  2  0  0  0  0
  4  5  1  0  0  0  0
  5  6  2  0  0  0  0
  5 11  1  0  0  0  0
  6  7  1  0  0  0  0
  6  9  1  0  0  0  0
  7  8  1  0  0  0  0
  9 10  1  0  0  0  0
 10 11  2  0  0  0  0
M  END
>  <CHROM.1>
1.94582879,-20.65167637,25.53334610,-0.65191427,0.30723156,1.42094673

>  <Name>
ligand

>  <RI>
0

>  <Rbt.Current_Directory>
/home/itssahil/PROJECTS/Mol_Feturizer/New_Systems/rnas/4LVZ

>  <Rbt.Executable>
rbdock ($Id: //depot/dev/client3/rdock/2013.1/src/exe/rbdock.cxx#4 $)

>  <Rbt.Library>
libRbt.so (2013.1, Build901 2013/11/27)

>  <Rbt.Parameter_File>
/export/apps/rDock/src/rDock_2013.1_src/data/scripts/dock_solv.prm

>  <Rbt.Receptor>
prm/pocket_docking_4.prm

>  <SCORE>
-9.43014

>  <SCORE.INTER>
-9.43014

>  <SCORE.INTER.CONST>
1

>  <SCORE.INTER.POLAR>
0

>  <SCORE.INTER.ROT>
0

>  <SCORE.INTER.SOLV>
12.3211

>  <SCORE.INTER.VDW>
-13.9938

>  <SCORE.INTER.norm>
-0.857286

>  <SCORE.INTRA>
0

>  <SCORE.INTRA.DIHEDRAL>
0

>  <SCORE.INTRA.DIHEDRAL.0>
0

>  <SCORE.INTRA.POLAR>
0

>  <SCORE.INTRA.POLAR.0>
0

>  <SCORE.INTRA.REPUL>
0

>  <SCORE.INTRA.REPUL.0>
0

>  <SCORE.INTRA.SOLV>
0

>  <SCORE.INTRA.SOLV.lig_0>
-49.4056

>  <SCORE.INTRA.VDW>
0

>  <SCORE.INTRA.VDW.0>
0

>  <SCORE.INTRA.norm>
0

>  <SCORE.RESTR>
0

>  <SCORE.RESTR.CAVITY>
0

>  <SCORE.RESTR.norm>
0

>  <SCORE.SYSTEM>
0

>  <SCORE.SYSTEM.CONST>
0

>  <SCORE.SYSTEM.DIHEDRAL>
0

>  <SCORE.SYSTEM.SOLV>
0

>  <SCORE.SYSTEM.norm>
0

>  <SCORE.heavy>
11

>  <SCORE.norm>
-0.857286

>  <RMSD>
2.821

$$$$
ligand
 OpenBabel11021811503D
libRbt.so/2013.1/901 2013/11/27
 11 12  0  0  0  0  0  0  0  0999 V2000
    3.6744  -20.3046   25.1711 N   0  0  0  0  0  0  0  0  0  0  0  0
    3.0323  -20.6114   24.0169 C   0  0  0  0  0  0  0  0  0  0  0  0
    3.7189  -20.5626   22.7606 N   0  0  0  0  0  0  0  0  0  0  0  0
    1.7342  -20.9629   24.0243 N   0  0  0  0  0  0  0  0  0  0  0  0
    1.0189  -21.0290   25.1989 C   0  0  0  0  0  0  0  0  0  0  0  0
    1.6478  -20.7187   26.3908 C   0  0  0  0  0  0  0  0  0  0  0  0
    3.0240  -20.3433   26.3545 C   0  0  0  0  0  0  0  0  0  0  0  0
    3.7052  -20.0138   27.5691 N   0  0  0  0  0  0  0  0  0  0  0  0
    0.7023  -20.8646   27.3880 N   0  0  0  0  0  0  0  0  0  0  0  0
   -0.4647  -21.2437   26.8292 C   0  0  0  0  0  0  0  0  0  0  0  0
   -0.2985  -21.3493   25.4957 N   0  0  0  0  0  0  0  0  0  0  0  0
  1  7  2  0  0  0  0
  1  2  1  0  0  0  0
  2  3  1  0  0  0  0
  2  4  2  0  0  0  0
  4  5  1  0  0  0  0
  5  6  2  0  0  0  0
  5 11  1  0  0  0  0
  6  7  1  0  0  0  0
  6  9  1  0  0  0  0
  7  8  1  0  0  0  0
  9 10  1  0  0  0  0
 10 11  2  0  0  0  0
M  END
>  <CHROM.1>
1.97502546,-20.72335819,25.55008499,-0.67021745,0.26579556,1.45674219

>  <Name>
ligand

>  <RI>
0

>  <Rbt.Current_Directory>
/home/itssahil/PROJECTS/Mol_Feturizer/New_Systems/rnas/4LVZ

>  <Rbt.Executable>
rbdock ($Id: //depot/dev/client3/rdock/2013.1/src/exe/rbdock.cxx#4 $)

>  <Rbt.Library>
libRbt.so (2013.1, Build901 2013/11/27)

>  <Rbt.Parameter_File>
/export/apps/rDock/src/rDock_2013.1_src/data/scripts/dock_solv.prm

>  <Rbt.Receptor>
prm/pocket_docking_3.prm

>  <SCORE>
-9.35661

>  <SCORE.INTER>
-9.35661

>  <SCORE.INTER.CONST>
1

>  <SCORE.INTER.POLAR>
0

>  <SCORE.INTER.ROT>
0

>  <SCORE.INTER.SOLV>
11.9239

>  <SCORE.INTER.VDW>
-13.8124

>  <SCORE.INTER.norm>
-0.850601

>  <SCORE.INTRA>
0

>  <SCORE.INTRA.DIHEDRAL>
0

>  <SCORE.INTRA.DIHEDRAL.0>
0

>  <SCORE.INTRA.POLAR>
0

>  <SCORE.INTRA.POLAR.0>
0

>  <SCORE.INTRA.REPUL>
0

>  <SCORE.INTRA.REPUL.0>
0

>  <SCORE.INTRA.SOLV>
0

>  <SCORE.INTRA.SOLV.lig_0>
-49.4056

>  <SCORE.INTRA.VDW>
0

>  <SCORE.INTRA.VDW.0>
0

>  <SCORE.INTRA.norm>
0

>  <SCORE.RESTR>
0

>  <SCORE.RESTR.CAVITY>
0

>  <SCORE.RESTR.norm>
0

>  <SCORE.SYSTEM>
0

>  <SCORE.SYSTEM.CONST>
0

>  <SCORE.SYSTEM.DIHEDRAL>
0

>  <SCORE.SYSTEM.SOLV>
0

>  <SCORE.SYSTEM.norm>
0

>  <SCORE.heavy>
11

>  <SCORE.norm>
-0.850601

>  <RMSD>
2.822

$$$$
ligand
 OpenBabel11021811503D
libRbt.so/2013.1/901 2013/11/27
 11 12  0  0  0  0  0  0  0  0999 V2000
    3.7160  -20.3255   25.2931 N   0  0  0  0  0  0  0  0  0  0  0  0
    3.2203  -20.8247   24.1339 C   0  0  0  0  0  0  0  0  0  0  0  0
    4.0726  -21.0325   23.0014 N   0  0  0  0  0  0  0  0  0  0  0  0
    1.9158  -21.1308   24.0187 N   0  0  0  0  0  0  0  0  0  0  0  0
    1.0454  -20.9545   25.0708 C   0  0  0  0  0  0  0  0  0  0  0  0
    1.5230  -20.4444   26.2641 C   0  0  0  0  0  0  0  0  0  0  0  0
    2.9099  -20.1225   26.3580 C   0  0  0  0  0  0  0  0  0  0  0  0
    3.4373  -19.5907   27.5774 N   0  0  0  0  0  0  0  0  0  0  0  0
    0.4443  -20.3730   27.1251 N   0  0  0  0  0  0  0  0  0  0  0  0
   -0.6552  -20.8163   26.4830 C   0  0  0  0  0  0  0  0  0  0  0  0
   -0.3158  -21.1752   25.2288 N   0  0  0  0  0  0  0  0  0  0  0  0
  1  7  2  0  0  0  0
  1  2  1  0  0  0  0
  2  3  1  0  0  0  0
  2  4  2  0  0  0  0
  4  5  1  0  0  0  0
  5  6  2  0  0  0  0
  5 11  1  0  0  0  0
  6  7  1  0  0  0  0
  6  9  1  0  0  0  0
  7  8  1  0  0  0  0
  9 10  1  0  0  0  0
 10 11  2  0  0  0  0
M  END
>  <CHROM.1>
1.96037627,-20.61623989,25.49406690,-0.53896688,0.19333558,1.23999365

>  <Name>
ligand

>  <RI>
0

>  <Rbt.Current_Directory>
/home/itssahil/PROJECTS/Mol_Feturizer/New_Systems/rnas/4LVZ

>  <Rbt.Executable>
rbdock ($Id: //depot/dev/client3/rdock/2013.1/src/exe/rbdock.cxx#4 $)

>  <Rbt.Library>
libRbt.so (2013.1, Build901 2013/11/27)

>  <Rbt.Parameter_File>
/export/apps/rDock/src/rDock_2013.1_src/data/scripts/dock_solv.prm

>  <Rbt.Receptor>
prm/pocket_docking_4.prm

>  <SCORE>
-9.42768

>  <SCORE.INTER>
-9.42768

>  <SCORE.INTER.CONST>
1

>  <SCORE.INTER.POLAR>
0

>  <SCORE.INTER.ROT>
0

>  <SCORE.INTER.SOLV>
12.5916

>  <SCORE.INTER.VDW>
-14.0823

>  <SCORE.INTER.norm>
-0.857062

>  <SCORE.INTRA>
0

>  <SCORE.INTRA.DIHEDRAL>
0

>  <SCORE.INTRA.DIHEDRAL.0>
0

>  <SCORE.INTRA.POLAR>
0

>  <SCORE.INTRA.POLAR.0>
0

>  <SCORE.INTRA.REPUL>
0

>  <SCORE.INTRA.REPUL.0>
0

>  <SCORE.INTRA.SOLV>
0

>  <SCORE.INTRA.SOLV.lig_0>
-49.4056

>  <SCORE.INTRA.VDW>
0

>  <SCORE.INTRA.VDW.0>
0

>  <SCORE.INTRA.norm>
0

>  <SCORE.RESTR>
0

>  <SCORE.RESTR.CAVITY>
0

>  <SCORE.RESTR.norm>
0

>  <SCORE.SYSTEM>
0

>  <SCORE.SYSTEM.CONST>
0

>  <SCORE.SYSTEM.DIHEDRAL>
0

>  <SCORE.SYSTEM.SOLV>
0

>  <SCORE.SYSTEM.norm>
0

>  <SCORE.heavy>
11

>  <SCORE.norm>
-0.857062

>  <RMSD>
2.822

$$$$
ligand
 OpenBabel11021811503D
libRbt.so/2013.1/901 2013/11/27
 11 12  0  0  0  0  0  0  0  0999 V2000
    3.7184  -20.3980   25.3428 N   0  0  0  0  0  0  0  0  0  0  0  0
    3.2388  -20.9373   24.1949 C   0  0  0  0  0  0  0  0  0  0  0  0
    4.1135  -21.2210   23.0966 N   0  0  0  0  0  0  0  0  0  0  0  0
    1.9295  -21.2130   24.0589 N   0  0  0  0  0  0  0  0  0  0  0  0
    1.0376  -20.9640   25.0778 C   0  0  0  0  0  0  0  0  0  0  0  0
    1.4988  -20.4117   26.2588 C   0  0  0  0  0  0  0  0  0  0  0  0
    2.8914  -20.1235   26.3751 C   0  0  0  0  0  0  0  0  0  0  0  0
    3.4022  -19.5497   27.5825 N   0  0  0  0  0  0  0  0  0  0  0  0
    0.4008  -20.2709   27.0861 N   0  0  0  0  0  0  0  0  0  0  0  0
   -0.6940  -20.7137   26.4357 C   0  0  0  0  0  0  0  0  0  0  0  0
   -0.3329  -21.1400   25.2090 N   0  0  0  0  0  0  0  0  0  0  0  0
  1  7  2  0  0  0  0
  1  2  1  0  0  0  0
  2  3  1  0  0  0  0
  2  4  2  0  0  0  0
  4  5  1  0  0  0  0
  5  6  2  0  0  0  0
  5 11  1  0  0  0  0
  6  7  1  0  0  0  0
  6  9  1  0  0  0  0
  7  8  1  0  0  0  0
  9 10  1  0  0  0  0
 10 11  2  0  0  0  0
M  END
>  <CHROM.1>
1.95072337,-20.63125522,25.50954374,-0.52371138,0.15814193,1.19082314

>  <Name>
ligand

>  <RI>
0

>  <Rbt.Current_Directory>
/home/itssahil/PROJECTS/Mol_Feturizer/New_Systems/rnas/4LVZ

>  <Rbt.Executable>
rbdock ($Id: //depot/dev/client3/rdock/2013.1/src/exe/rbdock.cxx#4 $)

>  <Rbt.Library>
libRbt.so (2013.1, Build901 2013/11/27)

>  <Rbt.Parameter_File>
/export/apps/rDock/src/rDock_2013.1_src/data/scripts/dock_solv.prm

>  <Rbt.Receptor>
prm/pocket_docking_8.prm

>  <SCORE>
-9.50952

>  <SCORE.INTER>
-9.50952

>  <SCORE.INTER.CONST>
1

>  <SCORE.INTER.POLAR>
0

>  <SCORE.INTER.ROT>
0

>  <SCORE.INTER.SOLV>
12.8098

>  <SCORE.INTER.VDW>
-14.2096

>  <SCORE.INTER.norm>
-0.864501

>  <SCORE.INTRA>
0

>  <SCORE.INTRA.DIHEDRAL>
0

>  <SCORE.INTRA.DIHEDRAL.0>
0

>  <SCORE.INTRA.POLAR>
0

>  <SCORE.INTRA.POLAR.0>
0

>  <SCORE.INTRA.REPUL>
0

>  <SCORE.INTRA.REPUL.0>
0

>  <SCORE.INTRA.SOLV>
0

>  <SCORE.INTRA.SOLV.lig_0>
-49.4056

>  <SCORE.INTRA.VDW>
0

>  <SCORE.INTRA.VDW.0>
0

>  <SCORE.INTRA.norm>
0

>  <SCORE.RESTR>
0

>  <SCORE.RESTR.CAVITY>
0

>  <SCORE.RESTR.norm>
0

>  <SCORE.SYSTEM>
0

>  <SCORE.SYSTEM.CONST>
0

>  <SCORE.SYSTEM.DIHEDRAL>
0

>  <SCORE.SYSTEM.SOLV>
0

>  <SCORE.SYSTEM.norm>
0

>  <SCORE.heavy>
11

>  <SCORE.norm>
-0.864501

>  <RMSD>
2.823

$$$$
ligand
 OpenBabel11021811503D
libRbt.so/2013.1/901 2013/11/27
 11 12  0  0  0  0  0  0  0  0999 V2000
    3.7582  -20.4423   25.3482 N   0  0  0  0  0  0  0  0  0  0  0  0
    3.2646  -20.9918   24.2111 C   0  0  0  0  0  0  0  0  0  0  0  0
    4.1289  -21.3028   23.1119 N   0  0  0  0  0  0  0  0  0  0  0  0
    1.9510  -21.2521   24.0868 N   0  0  0  0  0  0  0  0  0  0  0  0
    1.0687  -20.9767   25.1072 C   0  0  0  0  0  0  0  0  0  0  0  0
    1.5442  -20.4135   26.2773 C   0  0  0  0  0  0  0  0  0  0  0  0
    2.9411  -20.1421   26.3813 C   0  0  0  0  0  0  0  0  0  0  0  0
    3.4667  -19.5577   27.5772 N   0  0  0  0  0  0  0  0  0  0  0  0
    0.4532  -20.2462   27.1090 N   0  0  0  0  0  0  0  0  0  0  0  0
   -0.6512  -20.6839   26.4715 C   0  0  0  0  0  0  0  0  0  0  0  0
   -0.3032  -21.1327   25.2490 N   0  0  0  0  0  0  0  0  0  0  0  0
  1  7  2  0  0  0  0
  1  2  1  0  0  0  0
  2  3  1  0  0  0  0
  2  4  2  0  0  0  0
  4  5  1  0  0  0  0
  5  6  2  0  0  0  0
  5 11  1  0  0  0  0
  6  7  1  0  0  0  0
  6  9  1  0  0  0  0
  7  8  1  0  0  0  0
  9 10  1  0  0  0  0
 10 11  2  0  0  0  0
M  END
>  <CHROM.1>
1.98864995,-20.64979548,25.52870469,-0.53431798,0.14819789,1.17795209

>  <Name>
ligand

>  <RI>
0

>  <Rbt.Current_Directory>
/home/itssahil/PROJECTS/Mol_Feturizer/New_Systems/rnas/4LVZ

>  <Rbt.Executable>
rbdock ($Id: //depot/dev/client3/rdock/2013.1/src/exe/rbdock.cxx#4 $)

>  <Rbt.Library>
libRbt.so (2013.1, Build901 2013/11/27)

>  <Rbt.Parameter_File>
/export/apps/rDock/src/rDock_2013.1_src/data/scripts/dock_solv.prm

>  <Rbt.Receptor>
prm/pocket_docking_3.prm

>  <SCORE>
-9.43157

>  <SCORE.INTER>
-9.43157

>  <SCORE.INTER.CONST>
1

>  <SCORE.INTER.POLAR>
0

>  <SCORE.INTER.ROT>
0

>  <SCORE.INTER.SOLV>
12.5777

>  <SCORE.INTER.VDW>
-14.0803

>  <SCORE.INTER.norm>
-0.857415

>  <SCORE.INTRA>
0

>  <SCORE.INTRA.DIHEDRAL>
0

>  <SCORE.INTRA.DIHEDRAL.0>
0

>  <SCORE.INTRA.POLAR>
0

>  <SCORE.INTRA.POLAR.0>
0

>  <SCORE.INTRA.REPUL>
0

>  <SCORE.INTRA.REPUL.0>
0

>  <SCORE.INTRA.SOLV>
0

>  <SCORE.INTRA.SOLV.lig_0>
-49.4056

>  <SCORE.INTRA.VDW>
0

>  <SCORE.INTRA.VDW.0>
0

>  <SCORE.INTRA.norm>
0

>  <SCORE.RESTR>
0

>  <SCORE.RESTR.CAVITY>
0

>  <SCORE.RESTR.norm>
0

>  <SCORE.SYSTEM>
0

>  <SCORE.SYSTEM.CONST>
0

>  <SCORE.SYSTEM.DIHEDRAL>
0

>  <SCORE.SYSTEM.SOLV>
0

>  <SCORE.SYSTEM.norm>
0

>  <SCORE.heavy>
11

>  <SCORE.norm>
-0.857415

>  <RMSD>
2.824

$$$$
ligand
 OpenBabel11021811503D
libRbt.so/2013.1/901 2013/11/27
 11 12  0  0  0  0  0  0  0  0999 V2000
    3.7390  -20.4138   25.3258 N   0  0  0  0  0  0  0  0  0  0  0  0
    3.2379  -20.9498   24.1855 C   0  0  0  0  0  0  0  0  0  0  0  0
    4.0929  -21.2353   23.0722 N   0  0  0  0  0  0  0  0  0  0  0  0
    1.9255  -21.2203   24.0713 N   0  0  0  0  0  0  0  0  0  0  0  0
    1.0520  -20.9694   25.1055 C   0  0  0  0  0  0  0  0  0  0  0  0
    1.5351  -20.4204   26.2792 C   0  0  0  0  0  0  0  0  0  0  0  0
    2.9305  -20.1377   26.3723 C   0  0  0  0  0  0  0  0  0  0  0  0
    3.4639  -19.5675   27.5716 N   0  0  0  0  0  0  0  0  0  0  0  0
    0.4518  -20.2766   27.1252 N   0  0  0  0  0  0  0  0  0  0  0  0
   -0.6555  -20.7144   26.4929 C   0  0  0  0  0  0  0  0  0  0  0  0
   -0.3168  -21.1404   25.2597 N   0  0  0  0  0  0  0  0  0  0  0  0
  1  7  2  0  0  0  0
  1  2  1  0  0  0  0
  2  3  1  0  0  0  0
  2  4  2  0  0  0  0
  4  5  1  0  0  0  0
  5  6  2  0  0  0  0
  5 11  1  0  0  0  0
  6  7  1  0  0  0  0
  6  9  1  0  0  0  0
  7  8  1  0  0  0  0
  9 10  1  0  0  0  0
 10 11  2  0  0  0  0
M  END
>  <CHROM.1>
1.97346331,-20.64064188,25.52215948,-0.54105001,0.16085273,1.19490718

>  <Name>
ligand

>  <RI>
0

>  <Rbt.Current_Directory>
/home/itssahil/PROJECTS/Mol_Feturizer/New_Systems/rnas/4LVZ

>  <Rbt.Executable>
rbdock ($Id: //depot/dev/client3/rdock/2013.1/src/exe/rbdock.cxx#4 $)

>  <Rbt.Library>
libRbt.so (2013.1, Build901 2013/11/27)

>  <Rbt.Parameter_File>
/export/apps/rDock/src/rDock_2013.1_src/data/scripts/dock_solv.prm

>  <Rbt.Receptor>
prm/pocket_docking_6.prm

>  <SCORE>
-9.46117

>  <SCORE.INTER>
-9.46117

>  <SCORE.INTER.CONST>
1

>  <SCORE.INTER.POLAR>
0

>  <SCORE.INTER.ROT>
0

>  <SCORE.INTER.SOLV>
12.6625

>  <SCORE.INTER.VDW>
-14.1283

>  <SCORE.INTER.norm>
-0.860106

>  <SCORE.INTRA>
0

>  <SCORE.INTRA.DIHEDRAL>
0

>  <SCORE.INTRA.DIHEDRAL.0>
0

>  <SCORE.INTRA.POLAR>
0

>  <SCORE.INTRA.POLAR.0>
0

>  <SCORE.INTRA.REPUL>
0

>  <SCORE.INTRA.REPUL.0>
0

>  <SCORE.INTRA.SOLV>
0

>  <SCORE.INTRA.SOLV.lig_0>
-49.4056

>  <SCORE.INTRA.VDW>
0

>  <SCORE.INTRA.VDW.0>
0

>  <SCORE.INTRA.norm>
0

>  <SCORE.RESTR>
0

>  <SCORE.RESTR.CAVITY>
0

>  <SCORE.RESTR.norm>
0

>  <SCORE.SYSTEM>
0

>  <SCORE.SYSTEM.CONST>
0

>  <SCORE.SYSTEM.DIHEDRAL>
0

>  <SCORE.SYSTEM.SOLV>
0

>  <SCORE.SYSTEM.norm>
0

>  <SCORE.heavy>
11

>  <SCORE.norm>
-0.860106

>  <RMSD>
2.825

$$$$
ligand
 OpenBabel11021811503D
libRbt.so/2013.1/901 2013/11/27
 11 12  0  0  0  0  0  0  0  0999 V2000
    3.7550  -20.1573   25.1535 N   0  0  0  0  0  0  0  0  0  0  0  0
    3.1915  -20.5408   23.9813 C   0  0  0  0  0  0  0  0  0  0  0  0
    3.9631  -20.5799   22.7751 N   0  0  0  0  0  0  0  0  0  0  0  0
    1.8934  -20.8876   23.9230 N   0  0  0  0  0  0  0  0  0  0  0  0
    1.0987  -20.8713   25.0472 C   0  0  0  0  0  0  0  0  0  0  0  0
    1.6465  -20.4817   26.2557 C   0  0  0  0  0  0  0  0  0  0  0  0
    3.0245  -20.1132   26.2891 C   0  0  0  0  0  0  0  0  0  0  0  0
    3.6231  -19.7030   27.5225 N   0  0  0  0  0  0  0  0  0  0  0  0
    0.6336  -20.5565   27.1929 N   0  0  0  0  0  0  0  0  0  0  0  0
   -0.4950  -20.9700   26.5820 C   0  0  0  0  0  0  0  0  0  0  0  0
   -0.2384  -21.1672   25.2735 N   0  0  0  0  0  0  0  0  0  0  0  0
  1  7  2  0  0  0  0
  1  2  1  0  0  0  0
  2  3  1  0  0  0  0
  2  4  2  0  0  0  0
  4  5  1  0  0  0  0
  5  6  2  0  0  0  0
  5 11  1  0  0  0  0
  6  7  1  0  0  0  0
  6  9  1  0  0  0  0
  7  8  1  0  0  0  0
  9 10  1  0  0  0  0
 10 11  2  0  0  0  0
M  END
>  <CHROM.1>
2.03058860,-20.54476131,25.44191841,-0.60057301,0.25012769,1.37051970

>  <Name>
ligand

>  <RI>
0

>  <Rbt.Current_Directory>
/home/itssahil/PROJECTS/Mol_Feturizer/New_Systems/rnas/4LVZ

>  <Rbt.Executable>
rbdock ($Id: //depot/dev/client3/rdock/2013.1/src/exe/rbdock.cxx#4 $)

>  <Rbt.Library>
libRbt.so (2013.1, Build901 2013/11/27)

>  <Rbt.Parameter_File>
/export/apps/rDock/src/rDock_2013.1_src/data/scripts/dock_solv.prm

>  <Rbt.Receptor>
prm/pocket_docking_7.prm

>  <SCORE>
-9.34752

>  <SCORE.INTER>
-9.34752

>  <SCORE.INTER.CONST>
1

>  <SCORE.INTER.POLAR>
0

>  <SCORE.INTER.ROT>
0

>  <SCORE.INTER.SOLV>
11.4083

>  <SCORE.INTER.VDW>
-13.6344

>  <SCORE.INTER.norm>
-0.849775

>  <SCORE.INTRA>
0

>  <SCORE.INTRA.DIHEDRAL>
0

>  <SCORE.INTRA.DIHEDRAL.0>
0

>  <SCORE.INTRA.POLAR>
0

>  <SCORE.INTRA.POLAR.0>
0

>  <SCORE.INTRA.REPUL>
0

>  <SCORE.INTRA.REPUL.0>
0

>  <SCORE.INTRA.SOLV>
0

>  <SCORE.INTRA.SOLV.lig_0>
-49.4056

>  <SCORE.INTRA.VDW>
0

>  <SCORE.INTRA.VDW.0>
0

>  <SCORE.INTRA.norm>
0

>  <SCORE.RESTR>
0

>  <SCORE.RESTR.CAVITY>
0

>  <SCORE.RESTR.norm>
0

>  <SCORE.SYSTEM>
0

>  <SCORE.SYSTEM.CONST>
0

>  <SCORE.SYSTEM.DIHEDRAL>
0

>  <SCORE.SYSTEM.SOLV>
0

>  <SCORE.SYSTEM.norm>
0

>  <SCORE.heavy>
11

>  <SCORE.norm>
-0.849775

>  <RMSD>
2.825

$$$$
ligand
 OpenBabel11021811503D
libRbt.so/2013.1/901 2013/11/27
 11 12  0  0  0  0  0  0  0  0999 V2000
    3.7261  -20.3992   25.3204 N   0  0  0  0  0  0  0  0  0  0  0  0
    3.2337  -20.9459   24.1814 C   0  0  0  0  0  0  0  0  0  0  0  0
    4.0960  -21.2354   23.0748 N   0  0  0  0  0  0  0  0  0  0  0  0
    1.9232  -21.2236   24.0622 N   0  0  0  0  0  0  0  0  0  0  0  0
    1.0430  -20.9693   25.0899 C   0  0  0  0  0  0  0  0  0  0  0  0
    1.5172  -20.4094   26.2621 C   0  0  0  0  0  0  0  0  0  0  0  0
    2.9108  -20.1193   26.3606 C   0  0  0  0  0  0  0  0  0  0  0  0
    3.4350  -19.5377   27.5585 N   0  0  0  0  0  0  0  0  0  0  0  0
    0.4288  -20.2646   27.1013 N   0  0  0  0  0  0  0  0  0  0  0  0
   -0.6730  -20.7124   26.4663 C   0  0  0  0  0  0  0  0  0  0  0  0
   -0.3257  -21.1457   25.2381 N   0  0  0  0  0  0  0  0  0  0  0  0
  1  7  2  0  0  0  0
  1  2  1  0  0  0  0
  2  3  1  0  0  0  0
  2  4  2  0  0  0  0
  4  5  1  0  0  0  0
  5  6  2  0  0  0  0
  5 11  1  0  0  0  0
  6  7  1  0  0  0  0
  6  9  1  0  0  0  0
  7  8  1  0  0  0  0
  9 10  1  0  0  0  0
 10 11  2  0  0  0  0
M  END
>  <CHROM.1>
1.96069076,-20.63308287,25.50903398,-0.53423308,0.16334085,1.18647827

>  <Name>
ligand

>  <RI>
0

>  <Rbt.Current_Directory>
/home/itssahil/PROJECTS/Mol_Feturizer/New_Systems/rnas/4LVZ

>  <Rbt.Executable>
rbdock ($Id: //depot/dev/client3/rdock/2013.1/src/exe/rbdock.cxx#4 $)

>  <Rbt.Library>
libRbt.so (2013.1, Build901 2013/11/27)

>  <Rbt.Parameter_File>
/export/apps/rDock/src/rDock_2013.1_src/data/scripts/dock_solv.prm

>  <Rbt.Receptor>
prm/pocket_docking_4.prm

>  <SCORE>
-9.45403

>  <SCORE.INTER>
-9.45403

>  <SCORE.INTER.CONST>
1

>  <SCORE.INTER.POLAR>
0

>  <SCORE.INTER.ROT>
0

>  <SCORE.INTER.SOLV>
12.7788

>  <SCORE.INTER.VDW>
-14.1623

>  <SCORE.INTER.norm>
-0.859457

>  <SCORE.INTRA>
0

>  <SCORE.INTRA.DIHEDRAL>
0

>  <SCORE.INTRA.DIHEDRAL.0>
0

>  <SCORE.INTRA.POLAR>
0

>  <SCORE.INTRA.POLAR.0>
0

>  <SCORE.INTRA.REPUL>
0

>  <SCORE.INTRA.REPUL.0>
0

>  <SCORE.INTRA.SOLV>
0

>  <SCORE.INTRA.SOLV.lig_0>
-49.4056

>  <SCORE.INTRA.VDW>
0

>  <SCORE.INTRA.VDW.0>
0

>  <SCORE.INTRA.norm>
0

>  <SCORE.RESTR>
0

>  <SCORE.RESTR.CAVITY>
0

>  <SCORE.RESTR.norm>
0

>  <SCORE.SYSTEM>
0

>  <SCORE.SYSTEM.CONST>
0

>  <SCORE.SYSTEM.DIHEDRAL>
0

>  <SCORE.SYSTEM.SOLV>
0

>  <SCORE.SYSTEM.norm>
0

>  <SCORE.heavy>
11

>  <SCORE.norm>
-0.859457

>  <RMSD>
2.826

$$$$
ligand
 OpenBabel11021811503D
libRbt.so/2013.1/901 2013/11/27
 11 12  0  0  0  0  0  0  0  0999 V2000
    3.7837  -20.4505   25.3414 N   0  0  0  0  0  0  0  0  0  0  0  0
    3.3048  -21.0160   24.2059 C   0  0  0  0  0  0  0  0  0  0  0  0
    4.1805  -21.3266   23.1156 N   0  0  0  0  0  0  0  0  0  0  0  0
    1.9952  -21.2930   24.0746 N   0  0  0  0  0  0  0  0  0  0  0  0
    1.1025  -21.0190   25.0863 C   0  0  0  0  0  0  0  0  0  0  0  0
    1.5629  -20.4397   26.2546 C   0  0  0  0  0  0  0  0  0  0  0  0
    2.9557  -20.1508   26.3659 C   0  0  0  0  0  0  0  0  0  0  0  0
    3.4658  -19.5495   27.5601 N   0  0  0  0  0  0  0  0  0  0  0  0
    0.4641  -20.2780   27.0770 N   0  0  0  0  0  0  0  0  0  0  0  0
   -0.6305  -20.7345   26.4357 C   0  0  0  0  0  0  0  0  0  0  0  0
   -0.2684  -21.1899   25.2198 N   0  0  0  0  0  0  0  0  0  0  0  0
  1  7  2  0  0  0  0
  1  2  1  0  0  0  0
  2  3  1  0  0  0  0
  2  4  2  0  0  0  0
  4  5  1  0  0  0  0
  5  6  2  0  0  0  0
  5 11  1  0  0  0  0
  6  7  1  0  0  0  0
  6  9  1  0  0  0  0
  7  8  1  0  0  0  0
  9 10  1  0  0  0  0
 10 11  2  0  0  0  0
M  END
>  <CHROM.1>
2.01547374,-20.67740658,25.51127806,-0.52304900,0.15636377,1.16725262

>  <Name>
ligand

>  <RI>
0

>  <Rbt.Current_Directory>
/home/itssahil/PROJECTS/Mol_Feturizer/New_Systems/rnas/4LVZ

>  <Rbt.Executable>
rbdock ($Id: //depot/dev/client3/rdock/2013.1/src/exe/rbdock.cxx#4 $)

>  <Rbt.Library>
libRbt.so (2013.1, Build901 2013/11/27)

>  <Rbt.Parameter_File>
/export/apps/rDock/src/rDock_2013.1_src/data/scripts/dock_solv.prm

>  <Rbt.Receptor>
prm/pocket_docking_6.prm

>  <SCORE>
-9.44946

>  <SCORE.INTER>
-9.44946

>  <SCORE.INTER.CONST>
1

>  <SCORE.INTER.POLAR>
0

>  <SCORE.INTER.ROT>
0

>  <SCORE.INTER.SOLV>
12.3325

>  <SCORE.INTER.VDW>
-14.0105

>  <SCORE.INTER.norm>
-0.859042

>  <SCORE.INTRA>
0

>  <SCORE.INTRA.DIHEDRAL>
0

>  <SCORE.INTRA.DIHEDRAL.0>
0

>  <SCORE.INTRA.POLAR>
0

>  <SCORE.INTRA.POLAR.0>
0

>  <SCORE.INTRA.REPUL>
0

>  <SCORE.INTRA.REPUL.0>
0

>  <SCORE.INTRA.SOLV>
0

>  <SCORE.INTRA.SOLV.lig_0>
-49.4056

>  <SCORE.INTRA.VDW>
0

>  <SCORE.INTRA.VDW.0>
0

>  <SCORE.INTRA.norm>
0

>  <SCORE.RESTR>
0

>  <SCORE.RESTR.CAVITY>
0

>  <SCORE.RESTR.norm>
0

>  <SCORE.SYSTEM>
0

>  <SCORE.SYSTEM.CONST>
0

>  <SCORE.SYSTEM.DIHEDRAL>
0

>  <SCORE.SYSTEM.SOLV>
0

>  <SCORE.SYSTEM.norm>
0

>  <SCORE.heavy>
11

>  <SCORE.norm>
-0.859042

>  <RMSD>
2.826

$$$$
ligand
 OpenBabel11021811503D
libRbt.so/2013.1/901 2013/11/27
 11 12  0  0  0  0  0  0  0  0999 V2000
    3.7182  -20.2687   25.1760 N   0  0  0  0  0  0  0  0  0  0  0  0
    3.1313  -20.6513   24.0150 C   0  0  0  0  0  0  0  0  0  0  0  0
    3.8830  -20.7066   22.7969 N   0  0  0  0  0  0  0  0  0  0  0  0
    1.8281  -20.9818   23.9792 N   0  0  0  0  0  0  0  0  0  0  0  0
    1.0516  -20.9494   25.1158 C   0  0  0  0  0  0  0  0  0  0  0  0
    1.6235  -20.5603   26.3132 C   0  0  0  0  0  0  0  0  0  0  0  0
    3.0064  -20.2093   26.3227 C   0  0  0  0  0  0  0  0  0  0  0  0
    3.6297  -19.8001   27.5442 N   0  0  0  0  0  0  0  0  0  0  0  0
    0.6248  -20.6173   27.2667 N   0  0  0  0  0  0  0  0  0  0  0  0
   -0.5185  -21.0196   26.6761 C   0  0  0  0  0  0  0  0  0  0  0  0
   -0.2853  -21.2270   25.3648 N   0  0  0  0  0  0  0  0  0  0  0  0
  1  7  2  0  0  0  0
  1  2  1  0  0  0  0
  2  3  1  0  0  0  0
  2  4  2  0  0  0  0
  4  5  1  0  0  0  0
  5  6  2  0  0  0  0
  5 11  1  0  0  0  0
  6  7  1  0  0  0  0
  6  9  1  0  0  0  0
  7  8  1  0  0  0  0
  9 10  1  0  0  0  0
 10 11  2  0  0  0  0
M  END
>  <CHROM.1>
1.99376358,-20.63264674,25.49380922,-0.61922609,0.24085768,1.36959735

>  <Name>
ligand

>  <RI>
0

>  <Rbt.Current_Directory>
/home/itssahil/PROJECTS/Mol_Feturizer/New_Systems/rnas/4LVZ

>  <Rbt.Executable>
rbdock ($Id: //depot/dev/client3/rdock/2013.1/src/exe/rbdock.cxx#4 $)

>  <Rbt.Library>
libRbt.so (2013.1, Build901 2013/11/27)

>  <Rbt.Parameter_File>
/export/apps/rDock/src/rDock_2013.1_src/data/scripts/dock_solv.prm

>  <Rbt.Receptor>
prm/pocket_docking_8.prm

>  <SCORE>
-9.41178

>  <SCORE.INTER>
-9.41178

>  <SCORE.INTER.CONST>
1

>  <SCORE.INTER.POLAR>
0

>  <SCORE.INTER.ROT>
0

>  <SCORE.INTER.SOLV>
11.7758

>  <SCORE.INTER.VDW>
-13.7998

>  <SCORE.INTER.norm>
-0.855617

>  <SCORE.INTRA>
0

>  <SCORE.INTRA.DIHEDRAL>
0

>  <SCORE.INTRA.DIHEDRAL.0>
0

>  <SCORE.INTRA.POLAR>
0

>  <SCORE.INTRA.POLAR.0>
0

>  <SCORE.INTRA.REPUL>
0

>  <SCORE.INTRA.REPUL.0>
0

>  <SCORE.INTRA.SOLV>
0

>  <SCORE.INTRA.SOLV.lig_0>
-49.4056

>  <SCORE.INTRA.VDW>
0

>  <SCORE.INTRA.VDW.0>
0

>  <SCORE.INTRA.norm>
0

>  <SCORE.RESTR>
0

>  <SCORE.RESTR.CAVITY>
0

>  <SCORE.RESTR.norm>
0

>  <SCORE.SYSTEM>
0

>  <SCORE.SYSTEM.CONST>
0

>  <SCORE.SYSTEM.DIHEDRAL>
0

>  <SCORE.SYSTEM.SOLV>
0

>  <SCORE.SYSTEM.norm>
0

>  <SCORE.heavy>
11

>  <SCORE.norm>
-0.855617

>  <RMSD>
2.826

$$$$
ligand
 OpenBabel11021811503D
libRbt.so/2013.1/901 2013/11/27
 11 12  0  0  0  0  0  0  0  0999 V2000
    3.7289  -20.4110   25.3220 N   0  0  0  0  0  0  0  0  0  0  0  0
    3.2313  -20.9567   24.1848 C   0  0  0  0  0  0  0  0  0  0  0  0
    4.0899  -21.2539   23.0774 N   0  0  0  0  0  0  0  0  0  0  0  0
    1.9188  -21.2261   24.0682 N   0  0  0  0  0  0  0  0  0  0  0  0
    1.0418  -20.9642   25.0967 C   0  0  0  0  0  0  0  0  0  0  0  0
    1.5215  -20.4051   26.2671 C   0  0  0  0  0  0  0  0  0  0  0  0
    2.9170  -20.1238   26.3629 C   0  0  0  0  0  0  0  0  0  0  0  0
    3.4468  -19.5433   27.5588 N   0  0  0  0  0  0  0  0  0  0  0  0
    0.4353  -20.2517   27.1076 N   0  0  0  0  0  0  0  0  0  0  0  0
   -0.6704  -20.6935   26.4752 C   0  0  0  0  0  0  0  0  0  0  0  0
   -0.3278  -21.1315   25.2473 N   0  0  0  0  0  0  0  0  0  0  0  0
  1  7  2  0  0  0  0
  1  2  1  0  0  0  0
  2  3  1  0  0  0  0
  2  4  2  0  0  0  0
  4  5  1  0  0  0  0
  5  6  2  0  0  0  0
  5 11  1  0  0  0  0
  6  7  1  0  0  0  0
  6  9  1  0  0  0  0
  7  8  1  0  0  0  0
  9 10  1  0  0  0  0
 10 11  2  0  0  0  0
M  END
>  <CHROM.1>
1.96231548,-20.63309789,25.51377532,-0.53813933,0.15792624,1.18515945

>  <Name>
ligand

>  <RI>
0

>  <Rbt.Current_Directory>
/home/itssahil/PROJECTS/Mol_Feturizer/New_Systems/rnas/4LVZ

>  <Rbt.Executable>
rbdock ($Id: //depot/dev/client3/rdock/2013.1/src/exe/rbdock.cxx#4 $)

>  <Rbt.Library>
libRbt.so (2013.1, Build901 2013/11/27)

>  <Rbt.Parameter_File>
/export/apps/rDock/src/rDock_2013.1_src/data/scripts/dock_solv.prm

>  <Rbt.Receptor>
prm/pocket_docking_3.prm

>  <SCORE>
-9.46191

>  <SCORE.INTER>
-9.46191

>  <SCORE.INTER.CONST>
1

>  <SCORE.INTER.POLAR>
0

>  <SCORE.INTER.ROT>
0

>  <SCORE.INTER.SOLV>
12.775

>  <SCORE.INTER.VDW>
-14.1663

>  <SCORE.INTER.norm>
-0.860173

>  <SCORE.INTRA>
0

>  <SCORE.INTRA.DIHEDRAL>
0

>  <SCORE.INTRA.DIHEDRAL.0>
0

>  <SCORE.INTRA.POLAR>
0

>  <SCORE.INTRA.POLAR.0>
0

>  <SCORE.INTRA.REPUL>
0

>  <SCORE.INTRA.REPUL.0>
0

>  <SCORE.INTRA.SOLV>
0

>  <SCORE.INTRA.SOLV.lig_0>
-49.4056

>  <SCORE.INTRA.VDW>
0

>  <SCORE.INTRA.VDW.0>
0

>  <SCORE.INTRA.norm>
0

>  <SCORE.RESTR>
0

>  <SCORE.RESTR.CAVITY>
0

>  <SCORE.RESTR.norm>
0

>  <SCORE.SYSTEM>
0

>  <SCORE.SYSTEM.CONST>
0

>  <SCORE.SYSTEM.DIHEDRAL>
0

>  <SCORE.SYSTEM.SOLV>
0

>  <SCORE.SYSTEM.norm>
0

>  <SCORE.heavy>
11

>  <SCORE.norm>
-0.860173

>  <RMSD>
2.827

$$$$
ligand
 OpenBabel11021811503D
libRbt.so/2013.1/901 2013/11/27
 11 12  0  0  0  0  0  0  0  0999 V2000
    3.7342  -20.4255   25.3274 N   0  0  0  0  0  0  0  0  0  0  0  0
    3.2351  -20.9552   24.1833 C   0  0  0  0  0  0  0  0  0  0  0  0
    4.0929  -21.2399   23.0720 N   0  0  0  0  0  0  0  0  0  0  0  0
    1.9220  -21.2199   24.0634 N   0  0  0  0  0  0  0  0  0  0  0  0
    1.0458  -20.9694   25.0954 C   0  0  0  0  0  0  0  0  0  0  0  0
    1.5269  -20.4267   26.2729 C   0  0  0  0  0  0  0  0  0  0  0  0
    2.9231  -20.1500   26.3721 C   0  0  0  0  0  0  0  0  0  0  0  0
    3.4545  -19.5864   27.5754 N   0  0  0  0  0  0  0  0  0  0  0  0
    0.4412  -20.2817   27.1155 N   0  0  0  0  0  0  0  0  0  0  0  0
   -0.6656  -20.7126   26.4776 C   0  0  0  0  0  0  0  0  0  0  0  0
   -0.3242  -21.1354   25.2440 N   0  0  0  0  0  0  0  0  0  0  0  0
  1  7  2  0  0  0  0
  1  2  1  0  0  0  0
  2  3  1  0  0  0  0
  2  4  2  0  0  0  0
  4  5  1  0  0  0  0
  5  6  2  0  0  0  0
  5 11  1  0  0  0  0
  6  7  1  0  0  0  0
  6  9  1  0  0  0  0
  7  8  1  0  0  0  0
  9 10  1  0  0  0  0
 10 11  2  0  0  0  0
M  END
>  <CHROM.1>
1.96710771,-20.64591429,25.51657487,-0.53916201,0.15578835,1.19836280

>  <Name>
ligand

>  <RI>
0

>  <Rbt.Current_Directory>
/home/itssahil/PROJECTS/Mol_Feturizer/New_Systems/rnas/4LVZ

>  <Rbt.Executable>
rbdock ($Id: //depot/dev/client3/rdock/2013.1/src/exe/rbdock.cxx#4 $)

>  <Rbt.Library>
libRbt.so (2013.1, Build901 2013/11/27)

>  <Rbt.Parameter_File>
/export/apps/rDock/src/rDock_2013.1_src/data/scripts/dock_solv.prm

>  <Rbt.Receptor>
prm/pocket_docking_7.prm

>  <SCORE>
-9.46309

>  <SCORE.INTER>
-9.46309

>  <SCORE.INTER.CONST>
1

>  <SCORE.INTER.POLAR>
0

>  <SCORE.INTER.ROT>
0

>  <SCORE.INTER.SOLV>
12.6554

>  <SCORE.INTER.VDW>
-14.1272

>  <SCORE.INTER.norm>
-0.860281

>  <SCORE.INTRA>
0

>  <SCORE.INTRA.DIHEDRAL>
0

>  <SCORE.INTRA.DIHEDRAL.0>
0

>  <SCORE.INTRA.POLAR>
0

>  <SCORE.INTRA.POLAR.0>
0

>  <SCORE.INTRA.REPUL>
0

>  <SCORE.INTRA.REPUL.0>
0

>  <SCORE.INTRA.SOLV>
0

>  <SCORE.INTRA.SOLV.lig_0>
-49.4056

>  <SCORE.INTRA.VDW>
0

>  <SCORE.INTRA.VDW.0>
0

>  <SCORE.INTRA.norm>
0

>  <SCORE.RESTR>
0

>  <SCORE.RESTR.CAVITY>
0

>  <SCORE.RESTR.norm>
0

>  <SCORE.SYSTEM>
0

>  <SCORE.SYSTEM.CONST>
0

>  <SCORE.SYSTEM.DIHEDRAL>
0

>  <SCORE.SYSTEM.SOLV>
0

>  <SCORE.SYSTEM.norm>
0

>  <SCORE.heavy>
11

>  <SCORE.norm>
-0.860281

>  <RMSD>
2.827

$$$$
ligand
 OpenBabel11021811503D
libRbt.so/2013.1/901 2013/11/27
 11 12  0  0  0  0  0  0  0  0999 V2000
    3.6121  -20.1820   25.1399 N   0  0  0  0  0  0  0  0  0  0  0  0
    2.9825  -20.5767   24.0057 C   0  0  0  0  0  0  0  0  0  0  0  0
    3.6605  -20.5515   22.7441 N   0  0  0  0  0  0  0  0  0  0  0  0
    1.7049  -20.9953   24.0381 N   0  0  0  0  0  0  0  0  0  0  0  0
    0.9988  -21.0432   25.2192 C   0  0  0  0  0  0  0  0  0  0  0  0
    1.6152  -20.6439   26.3909 C   0  0  0  0  0  0  0  0  0  0  0  0
    2.9693  -20.1987   26.3280 C   0  0  0  0  0  0  0  0  0  0  0  0
    3.6371  -19.7764   27.5212 N   0  0  0  0  0  0  0  0  0  0  0  0
    0.6826  -20.7919   27.4000 N   0  0  0  0  0  0  0  0  0  0  0  0
   -0.4648  -21.2581   26.8674 C   0  0  0  0  0  0  0  0  0  0  0  0
   -0.2986  -21.4181   25.5393 N   0  0  0  0  0  0  0  0  0  0  0  0
  1  7  2  0  0  0  0
  1  2  1  0  0  0  0
  2  3  1  0  0  0  0
  2  4  2  0  0  0  0
  4  5  1  0  0  0  0
  5  6  2  0  0  0  0
  5 11  1  0  0  0  0
  6  7  1  0  0  0  0
  6  9  1  0  0  0  0
  7  8  1  0  0  0  0
  9 10  1  0  0  0  0
 10 11  2  0  0  0  0
M  END
>  <CHROM.1>
1.93878032,-20.67124866,25.54927861,-0.66805260,0.31888698,1.40871400

>  <Name>
ligand

>  <RI>
0

>  <Rbt.Current_Directory>
/home/itssahil/PROJECTS/Mol_Feturizer/New_Systems/rnas/4LVZ

>  <Rbt.Executable>
rbdock ($Id: //depot/dev/client3/rdock/2013.1/src/exe/rbdock.cxx#4 $)

>  <Rbt.Library>
libRbt.so (2013.1, Build901 2013/11/27)

>  <Rbt.Parameter_File>
/export/apps/rDock/src/rDock_2013.1_src/data/scripts/dock_solv.prm

>  <Rbt.Receptor>
prm/pocket_docking_4.prm

>  <SCORE>
-9.43049

>  <SCORE.INTER>
-9.43049

>  <SCORE.INTER.CONST>
1

>  <SCORE.INTER.POLAR>
0

>  <SCORE.INTER.ROT>
0

>  <SCORE.INTER.SOLV>
12.5654

>  <SCORE.INTER.VDW>
-14.0755

>  <SCORE.INTER.norm>
-0.857317

>  <SCORE.INTRA>
0

>  <SCORE.INTRA.DIHEDRAL>
0

>  <SCORE.INTRA.DIHEDRAL.0>
0

>  <SCORE.INTRA.POLAR>
0

>  <SCORE.INTRA.POLAR.0>
0

>  <SCORE.INTRA.REPUL>
0

>  <SCORE.INTRA.REPUL.0>
0

>  <SCORE.INTRA.SOLV>
0

>  <SCORE.INTRA.SOLV.lig_0>
-49.4056

>  <SCORE.INTRA.VDW>
0

>  <SCORE.INTRA.VDW.0>
0

>  <SCORE.INTRA.norm>
0

>  <SCORE.RESTR>
0

>  <SCORE.RESTR.CAVITY>
0

>  <SCORE.RESTR.norm>
0

>  <SCORE.SYSTEM>
0

>  <SCORE.SYSTEM.CONST>
0

>  <SCORE.SYSTEM.DIHEDRAL>
0

>  <SCORE.SYSTEM.SOLV>
0

>  <SCORE.SYSTEM.norm>
0

>  <SCORE.heavy>
11

>  <SCORE.norm>
-0.857317

>  <RMSD>
2.828

$$$$
ligand
 OpenBabel11021811503D
libRbt.so/2013.1/901 2013/11/27
 11 12  0  0  0  0  0  0  0  0999 V2000
    3.7430  -20.4696   25.3372 N   0  0  0  0  0  0  0  0  0  0  0  0
    3.2444  -21.0281   24.2067 C   0  0  0  0  0  0  0  0  0  0  0  0
    4.1034  -21.3448   23.1049 N   0  0  0  0  0  0  0  0  0  0  0  0
    1.9307  -21.2922   24.0914 N   0  0  0  0  0  0  0  0  0  0  0  0
    1.0534  -21.0118   25.1148 C   0  0  0  0  0  0  0  0  0  0  0  0
    1.5340  -20.4394   26.2783 C   0  0  0  0  0  0  0  0  0  0  0  0
    2.9309  -20.1641   26.3727 C   0  0  0  0  0  0  0  0  0  0  0  0
    3.4617  -19.5703   27.5616 N   0  0  0  0  0  0  0  0  0  0  0  0
    0.4472  -20.2689   27.1148 N   0  0  0  0  0  0  0  0  0  0  0  0
   -0.6597  -20.7135   26.4864 C   0  0  0  0  0  0  0  0  0  0  0  0
   -0.3173  -21.1699   25.2652 N   0  0  0  0  0  0  0  0  0  0  0  0
  1  7  2  0  0  0  0
  1  2  1  0  0  0  0
  2  3  1  0  0  0  0
  2  4  2  0  0  0  0
  4  5  1  0  0  0  0
  5  6  2  0  0  0  0
  5 11  1  0  0  0  0
  6  7  1  0  0  0  0
  6  9  1  0  0  0  0
  7  8  1  0  0  0  0
  9 10  1  0  0  0  0
 10 11  2  0  0  0  0
M  END
>  <CHROM.1>
1.97492625,-20.67989345,25.52889405,-0.53855796,0.15243612,1.17167645

>  <Name>
ligand

>  <RI>
0

>  <Rbt.Current_Directory>
/home/itssahil/PROJECTS/Mol_Feturizer/New_Systems/rnas/4LVZ

>  <Rbt.Executable>
rbdock ($Id: //depot/dev/client3/rdock/2013.1/src/exe/rbdock.cxx#4 $)

>  <Rbt.Library>
libRbt.so (2013.1, Build901 2013/11/27)

>  <Rbt.Parameter_File>
/export/apps/rDock/src/rDock_2013.1_src/data/scripts/dock_solv.prm

>  <Rbt.Receptor>
prm/pocket_docking_3.prm

>  <SCORE>
-9.46554

>  <SCORE.INTER>
-9.46554

>  <SCORE.INTER.CONST>
1

>  <SCORE.INTER.POLAR>
0

>  <SCORE.INTER.ROT>
0

>  <SCORE.INTER.SOLV>
12.6835

>  <SCORE.INTER.VDW>
-14.1382

>  <SCORE.INTER.norm>
-0.860504

>  <SCORE.INTRA>
0

>  <SCORE.INTRA.DIHEDRAL>
0

>  <SCORE.INTRA.DIHEDRAL.0>
0

>  <SCORE.INTRA.POLAR>
0

>  <SCORE.INTRA.POLAR.0>
0

>  <SCORE.INTRA.REPUL>
0

>  <SCORE.INTRA.REPUL.0>
0

>  <SCORE.INTRA.SOLV>
0

>  <SCORE.INTRA.SOLV.lig_0>
-49.4056

>  <SCORE.INTRA.VDW>
0

>  <SCORE.INTRA.VDW.0>
0

>  <SCORE.INTRA.norm>
0

>  <SCORE.RESTR>
0

>  <SCORE.RESTR.CAVITY>
0

>  <SCORE.RESTR.norm>
0

>  <SCORE.SYSTEM>
0

>  <SCORE.SYSTEM.CONST>
0

>  <SCORE.SYSTEM.DIHEDRAL>
0

>  <SCORE.SYSTEM.SOLV>
0

>  <SCORE.SYSTEM.norm>
0

>  <SCORE.heavy>
11

>  <SCORE.norm>
-0.860504

>  <RMSD>
2.829

$$$$
ligand
 OpenBabel11021811503D
libRbt.so/2013.1/901 2013/11/27
 11 12  0  0  0  0  0  0  0  0999 V2000
    3.7549  -20.3931   25.3146 N   0  0  0  0  0  0  0  0  0  0  0  0
    3.2698  -20.9129   24.1600 C   0  0  0  0  0  0  0  0  0  0  0  0
    4.1412  -21.1883   23.0569 N   0  0  0  0  0  0  0  0  0  0  0  0
    1.9582  -21.1762   24.0216 N   0  0  0  0  0  0  0  0  0  0  0  0
    1.0694  -20.9342   25.0449 C   0  0  0  0  0  0  0  0  0  0  0  0
    1.5361  -20.4018   26.2328 C   0  0  0  0  0  0  0  0  0  0  0  0
    2.9310  -20.1263   26.3515 C   0  0  0  0  0  0  0  0  0  0  0  0
    3.4476  -19.5732   27.5661 N   0  0  0  0  0  0  0  0  0  0  0  0
    0.4401  -20.2636   27.0632 N   0  0  0  0  0  0  0  0  0  0  0  0
   -0.6588  -20.6888   26.4080 C   0  0  0  0  0  0  0  0  0  0  0  0
   -0.3023  -21.1011   25.1752 N   0  0  0  0  0  0  0  0  0  0  0  0
  1  7  2  0  0  0  0
  1  2  1  0  0  0  0
  2  3  1  0  0  0  0
  2  4  2  0  0  0  0
  4  5  1  0  0  0  0
  5  6  2  0  0  0  0
  5 11  1  0  0  0  0
  6  7  1  0  0  0  0
  6  9  1  0  0  0  0
  7  8  1  0  0  0  0
  9 10  1  0  0  0  0
 10 11  2  0  0  0  0
M  END
>  <CHROM.1>
1.98553553,-20.61462716,25.48012296,-0.52761661,0.15112769,1.20514461

>  <Name>
ligand

>  <RI>
0

>  <Rbt.Current_Directory>
/home/itssahil/PROJECTS/Mol_Feturizer/New_Systems/rnas/4LVZ

>  <Rbt.Executable>
rbdock ($Id: //depot/dev/client3/rdock/2013.1/src/exe/rbdock.cxx#4 $)

>  <Rbt.Library>
libRbt.so (2013.1, Build901 2013/11/27)

>  <Rbt.Parameter_File>
/export/apps/rDock/src/rDock_2013.1_src/data/scripts/dock_solv.prm

>  <Rbt.Receptor>
prm/pocket_docking_8.prm

>  <SCORE>
-9.38736

>  <SCORE.INTER>
-9.38736

>  <SCORE.INTER.CONST>
1

>  <SCORE.INTER.POLAR>
0

>  <SCORE.INTER.ROT>
0

>  <SCORE.INTER.SOLV>
12.4635

>  <SCORE.INTER.VDW>
-14.0128

>  <SCORE.INTER.norm>
-0.853397

>  <SCORE.INTRA>
0

>  <SCORE.INTRA.DIHEDRAL>
0

>  <SCORE.INTRA.DIHEDRAL.0>
0

>  <SCORE.INTRA.POLAR>
0

>  <SCORE.INTRA.POLAR.0>
0

>  <SCORE.INTRA.REPUL>
0

>  <SCORE.INTRA.REPUL.0>
0

>  <SCORE.INTRA.SOLV>
0

>  <SCORE.INTRA.SOLV.lig_0>
-49.4056

>  <SCORE.INTRA.VDW>
0

>  <SCORE.INTRA.VDW.0>
0

>  <SCORE.INTRA.norm>
0

>  <SCORE.RESTR>
0

>  <SCORE.RESTR.CAVITY>
0

>  <SCORE.RESTR.norm>
0

>  <SCORE.SYSTEM>
0

>  <SCORE.SYSTEM.CONST>
0

>  <SCORE.SYSTEM.DIHEDRAL>
0

>  <SCORE.SYSTEM.SOLV>
0

>  <SCORE.SYSTEM.norm>
0

>  <SCORE.heavy>
11

>  <SCORE.norm>
-0.853397

>  <RMSD>
2.829

$$$$
ligand
 OpenBabel11021811503D
libRbt.so/2013.1/901 2013/11/27
 11 12  0  0  0  0  0  0  0  0999 V2000
    3.7172  -20.4524   25.3421 N   0  0  0  0  0  0  0  0  0  0  0  0
    3.2338  -21.0099   24.2045 C   0  0  0  0  0  0  0  0  0  0  0  0
    4.1070  -21.3229   23.1129 N   0  0  0  0  0  0  0  0  0  0  0  0
    1.9222  -21.2764   24.0724 N   0  0  0  0  0  0  0  0  0  0  0  0
    1.0317  -20.9995   25.0853 C   0  0  0  0  0  0  0  0  0  0  0  0
    1.4966  -20.4282   26.2557 C   0  0  0  0  0  0  0  0  0  0  0  0
    2.8917  -20.1504   26.3679 C   0  0  0  0  0  0  0  0  0  0  0  0
    3.4065  -19.5576   27.5643 N   0  0  0  0  0  0  0  0  0  0  0  0
    0.3992  -20.2613   27.0788 N   0  0  0  0  0  0  0  0  0  0  0  0
   -0.6989  -20.7070   26.4360 C   0  0  0  0  0  0  0  0  0  0  0  0
   -0.3405  -21.1605   25.2183 N   0  0  0  0  0  0  0  0  0  0  0  0
  1  7  2  0  0  0  0
  1  2  1  0  0  0  0
  2  3  1  0  0  0  0
  2  4  2  0  0  0  0
  4  5  1  0  0  0  0
  5  6  2  0  0  0  0
  5 11  1  0  0  0  0
  6  7  1  0  0  0  0
  6  9  1  0  0  0  0
  7  8  1  0  0  0  0
  9 10  1  0  0  0  0
 10 11  2  0  0  0  0
M  END
>  <CHROM.1>
1.94731118,-20.66647948,25.51138401,-0.52619334,0.14941783,1.17156988

>  <Name>
ligand

>  <RI>
0

>  <Rbt.Current_Directory>
/home/itssahil/PROJECTS/Mol_Feturizer/New_Systems/rnas/4LVZ

>  <Rbt.Executable>
rbdock ($Id: //depot/dev/client3/rdock/2013.1/src/exe/rbdock.cxx#4 $)

>  <Rbt.Library>
libRbt.so (2013.1, Build901 2013/11/27)

>  <Rbt.Parameter_File>
/export/apps/rDock/src/rDock_2013.1_src/data/scripts/dock_solv.prm

>  <Rbt.Receptor>
prm/pocket_docking_7.prm

>  <SCORE>
-9.4918

>  <SCORE.INTER>
-9.4918

>  <SCORE.INTER.CONST>
1

>  <SCORE.INTER.POLAR>
0

>  <SCORE.INTER.ROT>
0

>  <SCORE.INTER.SOLV>
12.8406

>  <SCORE.INTER.VDW>
-14.2081

>  <SCORE.INTER.norm>
-0.862891

>  <SCORE.INTRA>
0

>  <SCORE.INTRA.DIHEDRAL>
0

>  <SCORE.INTRA.DIHEDRAL.0>
0

>  <SCORE.INTRA.POLAR>
0

>  <SCORE.INTRA.POLAR.0>
0

>  <SCORE.INTRA.REPUL>
0

>  <SCORE.INTRA.REPUL.0>
0

>  <SCORE.INTRA.SOLV>
0

>  <SCORE.INTRA.SOLV.lig_0>
-49.4056

>  <SCORE.INTRA.VDW>
0

>  <SCORE.INTRA.VDW.0>
0

>  <SCORE.INTRA.norm>
0

>  <SCORE.RESTR>
0

>  <SCORE.RESTR.CAVITY>
0

>  <SCORE.RESTR.norm>
0

>  <SCORE.SYSTEM>
0

>  <SCORE.SYSTEM.CONST>
0

>  <SCORE.SYSTEM.DIHEDRAL>
0

>  <SCORE.SYSTEM.SOLV>
0

>  <SCORE.SYSTEM.norm>
0

>  <SCORE.heavy>
11

>  <SCORE.norm>
-0.862891

>  <RMSD>
2.830

$$$$
ligand
 OpenBabel11021811503D
libRbt.so/2013.1/901 2013/11/27
 11 12  0  0  0  0  0  0  0  0999 V2000
    3.7281  -20.4658   25.3253 N   0  0  0  0  0  0  0  0  0  0  0  0
    3.2215  -21.0291   24.2007 C   0  0  0  0  0  0  0  0  0  0  0  0
    4.0723  -21.3489   23.0936 N   0  0  0  0  0  0  0  0  0  0  0  0
    1.9072  -21.2950   24.0965 N   0  0  0  0  0  0  0  0  0  0  0  0
    1.0375  -21.0117   25.1255 C   0  0  0  0  0  0  0  0  0  0  0  0
    1.5264  -20.4344   26.2831 C   0  0  0  0  0  0  0  0  0  0  0  0
    2.9236  -20.1573   26.3658 C   0  0  0  0  0  0  0  0  0  0  0  0
    3.4629  -19.5584   27.5483 N   0  0  0  0  0  0  0  0  0  0  0  0
    0.4459  -20.2619   27.1273 N   0  0  0  0  0  0  0  0  0  0  0  0
   -0.6653  -20.7101   26.5091 C   0  0  0  0  0  0  0  0  0  0  0  0
   -0.3318  -21.1707   25.2870 N   0  0  0  0  0  0  0  0  0  0  0  0
  1  7  2  0  0  0  0
  1  2  1  0  0  0  0
  2  3  1  0  0  0  0
  2  4  2  0  0  0  0
  4  5  1  0  0  0  0
  5  6  2  0  0  0  0
  5 11  1  0  0  0  0
  6  7  1  0  0  0  0
  6  9  1  0  0  0  0
  7  8  1  0  0  0  0
  9 10  1  0  0  0  0
 10 11  2  0  0  0  0
M  END
>  <CHROM.1>
1.96179430,-20.67721163,25.53128997,-0.54527043,0.15643052,1.16894446

>  <Name>
ligand

>  <RI>
0

>  <Rbt.Current_Directory>
/home/itssahil/PROJECTS/Mol_Feturizer/New_Systems/rnas/4LVZ

>  <Rbt.Executable>
rbdock ($Id: //depot/dev/client3/rdock/2013.1/src/exe/rbdock.cxx#4 $)

>  <Rbt.Library>
libRbt.so (2013.1, Build901 2013/11/27)

>  <Rbt.Parameter_File>
/export/apps/rDock/src/rDock_2013.1_src/data/scripts/dock_solv.prm

>  <Rbt.Receptor>
prm/pocket_docking_7.prm

>  <SCORE>
-9.493

>  <SCORE.INTER>
-9.493

>  <SCORE.INTER.CONST>
1

>  <SCORE.INTER.POLAR>
0

>  <SCORE.INTER.ROT>
0

>  <SCORE.INTER.SOLV>
12.8248

>  <SCORE.INTER.VDW>
-14.2036

>  <SCORE.INTER.norm>
-0.863

>  <SCORE.INTRA>
0

>  <SCORE.INTRA.DIHEDRAL>
0

>  <SCORE.INTRA.DIHEDRAL.0>
0

>  <SCORE.INTRA.POLAR>
0

>  <SCORE.INTRA.POLAR.0>
0

>  <SCORE.INTRA.REPUL>
0

>  <SCORE.INTRA.REPUL.0>
0

>  <SCORE.INTRA.SOLV>
0

>  <SCORE.INTRA.SOLV.lig_0>
-49.4056

>  <SCORE.INTRA.VDW>
0

>  <SCORE.INTRA.VDW.0>
0

>  <SCORE.INTRA.norm>
0

>  <SCORE.RESTR>
0

>  <SCORE.RESTR.CAVITY>
0

>  <SCORE.RESTR.norm>
0

>  <SCORE.SYSTEM>
0

>  <SCORE.SYSTEM.CONST>
0

>  <SCORE.SYSTEM.DIHEDRAL>
0

>  <SCORE.SYSTEM.SOLV>
0

>  <SCORE.SYSTEM.norm>
0

>  <SCORE.heavy>
11

>  <SCORE.norm>
-0.863

>  <RMSD>
2.831

$$$$
ligand
 OpenBabel11021811503D
libRbt.so/2013.1/901 2013/11/27
 11 12  0  0  0  0  0  0  0  0999 V2000
    3.7136  -20.4173   25.3144 N   0  0  0  0  0  0  0  0  0  0  0  0
    3.2238  -20.9595   24.1721 C   0  0  0  0  0  0  0  0  0  0  0  0
    4.0898  -21.2515   23.0691 N   0  0  0  0  0  0  0  0  0  0  0  0
    1.9124  -21.2302   24.0462 N   0  0  0  0  0  0  0  0  0  0  0  0
    1.0287  -20.9731   25.0702 C   0  0  0  0  0  0  0  0  0  0  0  0
    1.5003  -20.4178   26.2456 C   0  0  0  0  0  0  0  0  0  0  0  0
    2.8948  -20.1350   26.3512 C   0  0  0  0  0  0  0  0  0  0  0  0
    3.4164  -19.5583   27.5526 N   0  0  0  0  0  0  0  0  0  0  0  0
    0.4086  -20.2688   27.0799 N   0  0  0  0  0  0  0  0  0  0  0  0
   -0.6925  -20.7097   26.4389 C   0  0  0  0  0  0  0  0  0  0  0  0
   -0.3416  -21.1427   25.2116 N   0  0  0  0  0  0  0  0  0  0  0  0
  1  7  2  0  0  0  0
  1  2  1  0  0  0  0
  2  3  1  0  0  0  0
  2  4  2  0  0  0  0
  4  5  1  0  0  0  0
  5  6  2  0  0  0  0
  5 11  1  0  0  0  0
  6  7  1  0  0  0  0
  6  9  1  0  0  0  0
  7  8  1  0  0  0  0
  9 10  1  0  0  0  0
 10 11  2  0  0  0  0
M  END
>  <CHROM.1>
1.94613236,-20.64240799,25.49424781,-0.53175501,0.15676949,1.18783379

>  <Name>
ligand

>  <RI>
0

>  <Rbt.Current_Directory>
/home/itssahil/PROJECTS/Mol_Feturizer/New_Systems/rnas/4LVZ

>  <Rbt.Executable>
rbdock ($Id: //depot/dev/client3/rdock/2013.1/src/exe/rbdock.cxx#4 $)

>  <Rbt.Library>
libRbt.so (2013.1, Build901 2013/11/27)

>  <Rbt.Parameter_File>
/export/apps/rDock/src/rDock_2013.1_src/data/scripts/dock_solv.prm

>  <Rbt.Receptor>
prm/pocket_docking_4.prm

>  <SCORE>
-9.49229

>  <SCORE.INTER>
-9.49229

>  <SCORE.INTER.CONST>
1

>  <SCORE.INTER.POLAR>
0

>  <SCORE.INTER.ROT>
0

>  <SCORE.INTER.SOLV>
12.8112

>  <SCORE.INTER.VDW>
-14.1986

>  <SCORE.INTER.norm>
-0.862936

>  <SCORE.INTRA>
0

>  <SCORE.INTRA.DIHEDRAL>
0

>  <SCORE.INTRA.DIHEDRAL.0>
0

>  <SCORE.INTRA.POLAR>
0

>  <SCORE.INTRA.POLAR.0>
0

>  <SCORE.INTRA.REPUL>
0

>  <SCORE.INTRA.REPUL.0>
0

>  <SCORE.INTRA.SOLV>
0

>  <SCORE.INTRA.SOLV.lig_0>
-49.4056

>  <SCORE.INTRA.VDW>
0

>  <SCORE.INTRA.VDW.0>
0

>  <SCORE.INTRA.norm>
0

>  <SCORE.RESTR>
0

>  <SCORE.RESTR.CAVITY>
0

>  <SCORE.RESTR.norm>
0

>  <SCORE.SYSTEM>
0

>  <SCORE.SYSTEM.CONST>
0

>  <SCORE.SYSTEM.DIHEDRAL>
0

>  <SCORE.SYSTEM.SOLV>
0

>  <SCORE.SYSTEM.norm>
0

>  <SCORE.heavy>
11

>  <SCORE.norm>
-0.862936

>  <RMSD>
2.832

$$$$
ligand
 OpenBabel11021811503D
libRbt.so/2013.1/901 2013/11/27
 11 12  0  0  0  0  0  0  0  0999 V2000
    3.7321  -20.4710   25.3357 N   0  0  0  0  0  0  0  0  0  0  0  0
    3.2218  -21.0218   24.2066 C   0  0  0  0  0  0  0  0  0  0  0  0
    4.0736  -21.3577   23.1050 N   0  0  0  0  0  0  0  0  0  0  0  0
    1.9031  -21.2602   24.0927 N   0  0  0  0  0  0  0  0  0  0  0  0
    1.0322  -20.9604   25.1161 C   0  0  0  0  0  0  0  0  0  0  0  0
    1.5248  -20.3952   26.2781 C   0  0  0  0  0  0  0  0  0  0  0  0
    2.9269  -20.1474   26.3710 C   0  0  0  0  0  0  0  0  0  0  0  0
    3.4701  -19.5616   27.5583 N   0  0  0  0  0  0  0  0  0  0  0  0
    0.4422  -20.2015   27.1149 N   0  0  0  0  0  0  0  0  0  0  0  0
   -0.6737  -20.6255   26.4882 C   0  0  0  0  0  0  0  0  0  0  0  0
   -0.3412  -21.0911   25.2677 N   0  0  0  0  0  0  0  0  0  0  0  0
  1  7  2  0  0  0  0
  1  2  1  0  0  0  0
  2  3  1  0  0  0  0
  2  4  2  0  0  0  0
  4  5  1  0  0  0  0
  5  6  2  0  0  0  0
  5 11  1  0  0  0  0
  6  7  1  0  0  0  0
  6  9  1  0  0  0  0
  7  8  1  0  0  0  0
  9 10  1  0  0  0  0
 10 11  2  0  0  0  0
M  END
>  <CHROM.1>
1.96037796,-20.64588147,25.52892338,-0.54693676,0.13451494,1.17079096

>  <Name>
ligand

>  <RI>
0

>  <Rbt.Current_Directory>
/home/itssahil/PROJECTS/Mol_Feturizer/New_Systems/rnas/4LVZ

>  <Rbt.Executable>
rbdock ($Id: //depot/dev/client3/rdock/2013.1/src/exe/rbdock.cxx#4 $)

>  <Rbt.Library>
libRbt.so (2013.1, Build901 2013/11/27)

>  <Rbt.Parameter_File>
/export/apps/rDock/src/rDock_2013.1_src/data/scripts/dock_solv.prm

>  <Rbt.Receptor>
prm/pocket_docking_5.prm

>  <SCORE>
-9.48556

>  <SCORE.INTER>
-9.48556

>  <SCORE.INTER.CONST>
1

>  <SCORE.INTER.POLAR>
0

>  <SCORE.INTER.ROT>
0

>  <SCORE.INTER.SOLV>
12.8502

>  <SCORE.INTER.VDW>
-14.2071

>  <SCORE.INTER.norm>
-0.862323

>  <SCORE.INTRA>
0

>  <SCORE.INTRA.DIHEDRAL>
0

>  <SCORE.INTRA.DIHEDRAL.0>
0

>  <SCORE.INTRA.POLAR>
0

>  <SCORE.INTRA.POLAR.0>
0

>  <SCORE.INTRA.REPUL>
0

>  <SCORE.INTRA.REPUL.0>
0

>  <SCORE.INTRA.SOLV>
0

>  <SCORE.INTRA.SOLV.lig_0>
-49.4056

>  <SCORE.INTRA.VDW>
0

>  <SCORE.INTRA.VDW.0>
0

>  <SCORE.INTRA.norm>
0

>  <SCORE.RESTR>
0

>  <SCORE.RESTR.CAVITY>
0

>  <SCORE.RESTR.norm>
0

>  <SCORE.SYSTEM>
0

>  <SCORE.SYSTEM.CONST>
0

>  <SCORE.SYSTEM.DIHEDRAL>
0

>  <SCORE.SYSTEM.SOLV>
0

>  <SCORE.SYSTEM.norm>
0

>  <SCORE.heavy>
11

>  <SCORE.norm>
-0.862323

>  <RMSD>
2.832

$$$$
ligand
 OpenBabel11021811503D
libRbt.so/2013.1/901 2013/11/27
 11 12  0  0  0  0  0  0  0  0999 V2000
    3.7365  -20.3431   25.2064 N   0  0  0  0  0  0  0  0  0  0  0  0
    3.1699  -20.7544   24.0452 C   0  0  0  0  0  0  0  0  0  0  0  0
    3.9539  -20.8874   22.8537 N   0  0  0  0  0  0  0  0  0  0  0  0
    1.8574  -21.0414   23.9840 N   0  0  0  0  0  0  0  0  0  0  0  0
    1.0503  -20.9340   25.0942 C   0  0  0  0  0  0  0  0  0  0  0  0
    1.6010  -20.5140   26.2912 C   0  0  0  0  0  0  0  0  0  0  0  0
    2.9947  -20.2105   26.3277 C   0  0  0  0  0  0  0  0  0  0  0  0
    3.5969  -19.7712   27.5494 N   0  0  0  0  0  0  0  0  0  0  0  0
    0.5740  -20.4961   27.2157 N   0  0  0  0  0  0  0  0  0  0  0  0
   -0.5654  -20.8838   26.6081 C   0  0  0  0  0  0  0  0  0  0  0  0
   -0.3022  -21.1548   25.3142 N   0  0  0  0  0  0  0  0  0  0  0  0
  1  7  2  0  0  0  0
  1  2  1  0  0  0  0
  2  3  1  0  0  0  0
  2  4  2  0  0  0  0
  4  5  1  0  0  0  0
  5  6  2  0  0  0  0
  5 11  1  0  0  0  0
  6  7  1  0  0  0  0
  6  9  1  0  0  0  0
  7  8  1  0  0  0  0
  9 10  1  0  0  0  0
 10 11  2  0  0  0  0
M  END
>  <CHROM.1>
1.99187071,-20.63385799,25.48702071,-0.59778324,0.20030181,1.32276584

>  <Name>
ligand

>  <RI>
0

>  <Rbt.Current_Directory>
/home/itssahil/PROJECTS/Mol_Feturizer/New_Systems/rnas/4LVZ

>  <Rbt.Executable>
rbdock ($Id: //depot/dev/client3/rdock/2013.1/src/exe/rbdock.cxx#4 $)

>  <Rbt.Library>
libRbt.so (2013.1, Build901 2013/11/27)

>  <Rbt.Parameter_File>
/export/apps/rDock/src/rDock_2013.1_src/data/scripts/dock_solv.prm

>  <Rbt.Receptor>
prm/pocket_docking_5.prm

>  <SCORE>
-9.38221

>  <SCORE.INTER>
-9.38221

>  <SCORE.INTER.CONST>
1

>  <SCORE.INTER.POLAR>
0

>  <SCORE.INTER.ROT>
0

>  <SCORE.INTER.SOLV>
11.9301

>  <SCORE.INTER.VDW>
-13.8315

>  <SCORE.INTER.norm>
-0.852928

>  <SCORE.INTRA>
0

>  <SCORE.INTRA.DIHEDRAL>
0

>  <SCORE.INTRA.DIHEDRAL.0>
0

>  <SCORE.INTRA.POLAR>
0

>  <SCORE.INTRA.POLAR.0>
0

>  <SCORE.INTRA.REPUL>
0

>  <SCORE.INTRA.REPUL.0>
0

>  <SCORE.INTRA.SOLV>
0

>  <SCORE.INTRA.SOLV.lig_0>
-49.4056

>  <SCORE.INTRA.VDW>
0

>  <SCORE.INTRA.VDW.0>
0

>  <SCORE.INTRA.norm>
0

>  <SCORE.RESTR>
0

>  <SCORE.RESTR.CAVITY>
0

>  <SCORE.RESTR.norm>
0

>  <SCORE.SYSTEM>
0

>  <SCORE.SYSTEM.CONST>
0

>  <SCORE.SYSTEM.DIHEDRAL>
0

>  <SCORE.SYSTEM.SOLV>
0

>  <SCORE.SYSTEM.norm>
0

>  <SCORE.heavy>
11

>  <SCORE.norm>
-0.852928

>  <RMSD>
2.832

$$$$
ligand
 OpenBabel11021811503D
libRbt.so/2013.1/901 2013/11/27
 11 12  0  0  0  0  0  0  0  0999 V2000
    3.7195  -20.4286   25.3108 N   0  0  0  0  0  0  0  0  0  0  0  0
    3.2115  -20.9581   24.1706 C   0  0  0  0  0  0  0  0  0  0  0  0
    4.0615  -21.2478   23.0545 N   0  0  0  0  0  0  0  0  0  0  0  0
    1.8967  -21.2182   24.0590 N   0  0  0  0  0  0  0  0  0  0  0  0
    1.0277  -20.9627   25.0960 C   0  0  0  0  0  0  0  0  0  0  0  0
    1.5180  -20.4201   26.2697 C   0  0  0  0  0  0  0  0  0  0  0  0
    2.9159  -20.1484   26.3599 C   0  0  0  0  0  0  0  0  0  0  0  0
    3.4566  -19.5850   27.5591 N   0  0  0  0  0  0  0  0  0  0  0  0
    0.4380  -20.2697   27.1187 N   0  0  0  0  0  0  0  0  0  0  0  0
   -0.6742  -20.6975   26.4881 C   0  0  0  0  0  0  0  0  0  0  0  0
   -0.3419  -21.1234   25.2532 N   0  0  0  0  0  0  0  0  0  0  0  0
  1  7  2  0  0  0  0
  1  2  1  0  0  0  0
  2  3  1  0  0  0  0
  2  4  2  0  0  0  0
  4  5  1  0  0  0  0
  5  6  2  0  0  0  0
  5 11  1  0  0  0  0
  6  7  1  0  0  0  0
  6  9  1  0  0  0  0
  7  8  1  0  0  0  0
  9 10  1  0  0  0  0
 10 11  2  0  0  0  0
M  END
>  <CHROM.1>
1.95280040,-20.64205542,25.51104174,-0.54627183,0.15452103,1.19790755

>  <Name>
ligand

>  <RI>
0

>  <Rbt.Current_Directory>
/home/itssahil/PROJECTS/Mol_Feturizer/New_Systems/rnas/4LVZ

>  <Rbt.Executable>
rbdock ($Id: //depot/dev/client3/rdock/2013.1/src/exe/rbdock.cxx#4 $)

>  <Rbt.Library>
libRbt.so (2013.1, Build901 2013/11/27)

>  <Rbt.Parameter_File>
/export/apps/rDock/src/rDock_2013.1_src/data/scripts/dock_solv.prm

>  <Rbt.Receptor>
prm/pocket_docking_5.prm

>  <SCORE>
-9.44661

>  <SCORE.INTER>
-9.44661

>  <SCORE.INTER.CONST>
1

>  <SCORE.INTER.POLAR>
0

>  <SCORE.INTER.ROT>
0

>  <SCORE.INTER.SOLV>
12.7627

>  <SCORE.INTER.VDW>
-14.152

>  <SCORE.INTER.norm>
-0.858783

>  <SCORE.INTRA>
0

>  <SCORE.INTRA.DIHEDRAL>
0

>  <SCORE.INTRA.DIHEDRAL.0>
0

>  <SCORE.INTRA.POLAR>
0

>  <SCORE.INTRA.POLAR.0>
0

>  <SCORE.INTRA.REPUL>
0

>  <SCORE.INTRA.REPUL.0>
0

>  <SCORE.INTRA.SOLV>
0

>  <SCORE.INTRA.SOLV.lig_0>
-49.4056

>  <SCORE.INTRA.VDW>
0

>  <SCORE.INTRA.VDW.0>
0

>  <SCORE.INTRA.norm>
0

>  <SCORE.RESTR>
0

>  <SCORE.RESTR.CAVITY>
0

>  <SCORE.RESTR.norm>
0

>  <SCORE.SYSTEM>
0

>  <SCORE.SYSTEM.CONST>
0

>  <SCORE.SYSTEM.DIHEDRAL>
0

>  <SCORE.SYSTEM.SOLV>
0

>  <SCORE.SYSTEM.norm>
0

>  <SCORE.heavy>
11

>  <SCORE.norm>
-0.858783

>  <RMSD>
2.832

$$$$
ligand
 OpenBabel11021811503D
libRbt.so/2013.1/901 2013/11/27
 11 12  0  0  0  0  0  0  0  0999 V2000
    3.7294  -20.4623   25.3234 N   0  0  0  0  0  0  0  0  0  0  0  0
    3.2312  -21.0098   24.1874 C   0  0  0  0  0  0  0  0  0  0  0  0
    4.0908  -21.3176   23.0836 N   0  0  0  0  0  0  0  0  0  0  0  0
    1.9173  -21.2711   24.0684 N   0  0  0  0  0  0  0  0  0  0  0  0
    1.0393  -20.9988   25.0934 C   0  0  0  0  0  0  0  0  0  0  0  0
    1.5195  -20.4377   26.2626 C   0  0  0  0  0  0  0  0  0  0  0  0
    2.9166  -20.1652   26.3608 C   0  0  0  0  0  0  0  0  0  0  0  0
    3.4471  -19.5829   27.5556 N   0  0  0  0  0  0  0  0  0  0  0  0
    0.4322  -20.2733   27.0995 N   0  0  0  0  0  0  0  0  0  0  0  0
   -0.6747  -20.7107   26.4661 C   0  0  0  0  0  0  0  0  0  0  0  0
   -0.3318  -21.1564   25.2410 N   0  0  0  0  0  0  0  0  0  0  0  0
  1  7  2  0  0  0  0
  1  2  1  0  0  0  0
  2  3  1  0  0  0  0
  2  4  2  0  0  0  0
  4  5  1  0  0  0  0
  5  6  2  0  0  0  0
  5 11  1  0  0  0  0
  6  7  1  0  0  0  0
  6  9  1  0  0  0  0
  7  8  1  0  0  0  0
  9 10  1  0  0  0  0
 10 11  2  0  0  0  0
M  END
>  <CHROM.1>
1.96085832,-20.67192467,25.51143961,-0.53816198,0.15081160,1.18072435

>  <Name>
ligand

>  <RI>
0

>  <Rbt.Current_Directory>
/home/itssahil/PROJECTS/Mol_Feturizer/New_Systems/rnas/4LVZ

>  <Rbt.Executable>
rbdock ($Id: //depot/dev/client3/rdock/2013.1/src/exe/rbdock.cxx#4 $)

>  <Rbt.Library>
libRbt.so (2013.1, Build901 2013/11/27)

>  <Rbt.Parameter_File>
/export/apps/rDock/src/rDock_2013.1_src/data/scripts/dock_solv.prm

>  <Rbt.Receptor>
prm/pocket_docking_4.prm

>  <SCORE>
-9.50704

>  <SCORE.INTER>
-9.50704

>  <SCORE.INTER.CONST>
1

>  <SCORE.INTER.POLAR>
0

>  <SCORE.INTER.ROT>
0

>  <SCORE.INTER.SOLV>
12.6989

>  <SCORE.INTER.VDW>
-14.171

>  <SCORE.INTER.norm>
-0.864276

>  <SCORE.INTRA>
0

>  <SCORE.INTRA.DIHEDRAL>
0

>  <SCORE.INTRA.DIHEDRAL.0>
0

>  <SCORE.INTRA.POLAR>
0

>  <SCORE.INTRA.POLAR.0>
0

>  <SCORE.INTRA.REPUL>
0

>  <SCORE.INTRA.REPUL.0>
0

>  <SCORE.INTRA.SOLV>
0

>  <SCORE.INTRA.SOLV.lig_0>
-49.4056

>  <SCORE.INTRA.VDW>
0

>  <SCORE.INTRA.VDW.0>
0

>  <SCORE.INTRA.norm>
0

>  <SCORE.RESTR>
0

>  <SCORE.RESTR.CAVITY>
0

>  <SCORE.RESTR.norm>
0

>  <SCORE.SYSTEM>
0

>  <SCORE.SYSTEM.CONST>
0

>  <SCORE.SYSTEM.DIHEDRAL>
0

>  <SCORE.SYSTEM.SOLV>
0

>  <SCORE.SYSTEM.norm>
0

>  <SCORE.heavy>
11

>  <SCORE.norm>
-0.864276

>  <RMSD>
2.833

$$$$
ligand
 OpenBabel11021811503D
libRbt.so/2013.1/901 2013/11/27
 11 12  0  0  0  0  0  0  0  0999 V2000
    3.7865  -20.4385   25.3087 N   0  0  0  0  0  0  0  0  0  0  0  0
    3.3056  -20.9986   24.1713 C   0  0  0  0  0  0  0  0  0  0  0  0
    4.1789  -21.3002   23.0766 N   0  0  0  0  0  0  0  0  0  0  0  0
    1.9965  -21.2785   24.0424 N   0  0  0  0  0  0  0  0  0  0  0  0
    1.1061  -21.0130   25.0584 C   0  0  0  0  0  0  0  0  0  0  0  0
    1.5684  -20.4394   26.2287 C   0  0  0  0  0  0  0  0  0  0  0  0
    2.9608  -20.1472   26.3375 C   0  0  0  0  0  0  0  0  0  0  0  0
    3.4729  -19.5516   27.5338 N   0  0  0  0  0  0  0  0  0  0  0  0
    0.4717  -20.2856   27.0554 N   0  0  0  0  0  0  0  0  0  0  0  0
   -0.6236  -20.7413   26.4148 C   0  0  0  0  0  0  0  0  0  0  0  0
   -0.2640  -21.1886   25.1951 N   0  0  0  0  0  0  0  0  0  0  0  0
  1  7  2  0  0  0  0
  1  2  1  0  0  0  0
  2  3  1  0  0  0  0
  2  4  2  0  0  0  0
  4  5  1  0  0  0  0
  5  6  2  0  0  0  0
  5 11  1  0  0  0  0
  6  7  1  0  0  0  0
  6  9  1  0  0  0  0
  7  8  1  0  0  0  0
  9 10  1  0  0  0  0
 10 11  2  0  0  0  0
M  END
>  <CHROM.1>
2.01939580,-20.67136886,25.48263028,-0.52478655,0.16012453,1.17347353

>  <Name>
ligand

>  <RI>
0

>  <Rbt.Current_Directory>
/home/itssahil/PROJECTS/Mol_Feturizer/New_Systems/rnas/4LVZ

>  <Rbt.Executable>
rbdock ($Id: //depot/dev/client3/rdock/2013.1/src/exe/rbdock.cxx#4 $)

>  <Rbt.Library>
libRbt.so (2013.1, Build901 2013/11/27)

>  <Rbt.Parameter_File>
/export/apps/rDock/src/rDock_2013.1_src/data/scripts/dock_solv.prm

>  <Rbt.Receptor>
prm/pocket_docking_4.prm

>  <SCORE>
-9.42009

>  <SCORE.INTER>
-9.42009

>  <SCORE.INTER.CONST>
1

>  <SCORE.INTER.POLAR>
0

>  <SCORE.INTER.ROT>
0

>  <SCORE.INTER.SOLV>
12.2472

>  <SCORE.INTER.VDW>
-13.9624

>  <SCORE.INTER.norm>
-0.856372

>  <SCORE.INTRA>
0

>  <SCORE.INTRA.DIHEDRAL>
0

>  <SCORE.INTRA.DIHEDRAL.0>
0

>  <SCORE.INTRA.POLAR>
0

>  <SCORE.INTRA.POLAR.0>
0

>  <SCORE.INTRA.REPUL>
0

>  <SCORE.INTRA.REPUL.0>
0

>  <SCORE.INTRA.SOLV>
0

>  <SCORE.INTRA.SOLV.lig_0>
-49.4056

>  <SCORE.INTRA.VDW>
0

>  <SCORE.INTRA.VDW.0>
0

>  <SCORE.INTRA.norm>
0

>  <SCORE.RESTR>
0

>  <SCORE.RESTR.CAVITY>
0

>  <SCORE.RESTR.norm>
0

>  <SCORE.SYSTEM>
0

>  <SCORE.SYSTEM.CONST>
0

>  <SCORE.SYSTEM.DIHEDRAL>
0

>  <SCORE.SYSTEM.SOLV>
0

>  <SCORE.SYSTEM.norm>
0

>  <SCORE.heavy>
11

>  <SCORE.norm>
-0.856372

>  <RMSD>
2.833

$$$$
ligand
 OpenBabel11021811503D
libRbt.so/2013.1/901 2013/11/27
 11 12  0  0  0  0  0  0  0  0999 V2000
    3.7346  -20.4348   25.3324 N   0  0  0  0  0  0  0  0  0  0  0  0
    3.2525  -20.9776   24.1872 C   0  0  0  0  0  0  0  0  0  0  0  0
    4.1295  -21.2930   23.0994 N   0  0  0  0  0  0  0  0  0  0  0  0
    1.9387  -21.2269   24.0439 N   0  0  0  0  0  0  0  0  0  0  0  0
    1.0445  -20.9468   25.0526 C   0  0  0  0  0  0  0  0  0  0  0  0
    1.5081  -20.3902   26.2306 C   0  0  0  0  0  0  0  0  0  0  0  0
    2.9055  -20.1304   26.3547 C   0  0  0  0  0  0  0  0  0  0  0  0
    3.4191  -19.5531   27.5593 N   0  0  0  0  0  0  0  0  0  0  0  0
    0.4070  -20.2161   27.0473 N   0  0  0  0  0  0  0  0  0  0  0  0
   -0.6920  -20.6433   26.3934 C   0  0  0  0  0  0  0  0  0  0  0  0
   -0.3305  -21.0919   25.1748 N   0  0  0  0  0  0  0  0  0  0  0  0
  1  7  2  0  0  0  0
  1  2  1  0  0  0  0
  2  3  1  0  0  0  0
  2  4  2  0  0  0  0
  4  5  1  0  0  0  0
  5  6  2  0  0  0  0
  5 11  1  0  0  0  0
  6  7  1  0  0  0  0
  6  9  1  0  0  0  0
  7  8  1  0  0  0  0
  9 10  1  0  0  0  0
 10 11  2  0  0  0  0
M  END
>  <CHROM.1>
1.96104877,-20.62834081,25.48767007,-0.52440008,0.13537616,1.17898330

>  <Name>
ligand

>  <RI>
0

>  <Rbt.Current_Directory>
/home/itssahil/PROJECTS/Mol_Feturizer/New_Systems/rnas/4LVZ

>  <Rbt.Executable>
rbdock ($Id: //depot/dev/client3/rdock/2013.1/src/exe/rbdock.cxx#4 $)

>  <Rbt.Library>
libRbt.so (2013.1, Build901 2013/11/27)

>  <Rbt.Parameter_File>
/export/apps/rDock/src/rDock_2013.1_src/data/scripts/dock_solv.prm

>  <Rbt.Receptor>
prm/pocket_docking_4.prm

>  <SCORE>
-9.47248

>  <SCORE.INTER>
-9.47248

>  <SCORE.INTER.CONST>
1

>  <SCORE.INTER.POLAR>
0

>  <SCORE.INTER.ROT>
0

>  <SCORE.INTER.SOLV>
12.7117

>  <SCORE.INTER.VDW>
-14.1522

>  <SCORE.INTER.norm>
-0.861135

>  <SCORE.INTRA>
0

>  <SCORE.INTRA.DIHEDRAL>
0

>  <SCORE.INTRA.DIHEDRAL.0>
0

>  <SCORE.INTRA.POLAR>
0

>  <SCORE.INTRA.POLAR.0>
0

>  <SCORE.INTRA.REPUL>
0

>  <SCORE.INTRA.REPUL.0>
0

>  <SCORE.INTRA.SOLV>
0

>  <SCORE.INTRA.SOLV.lig_0>
-49.4056

>  <SCORE.INTRA.VDW>
0

>  <SCORE.INTRA.VDW.0>
0

>  <SCORE.INTRA.norm>
0

>  <SCORE.RESTR>
0

>  <SCORE.RESTR.CAVITY>
0

>  <SCORE.RESTR.norm>
0

>  <SCORE.SYSTEM>
0

>  <SCORE.SYSTEM.CONST>
0

>  <SCORE.SYSTEM.DIHEDRAL>
0

>  <SCORE.SYSTEM.SOLV>
0

>  <SCORE.SYSTEM.norm>
0

>  <SCORE.heavy>
11

>  <SCORE.norm>
-0.861135

>  <RMSD>
2.833

$$$$
ligand
 OpenBabel11021811503D
libRbt.so/2013.1/901 2013/11/27
 11 12  0  0  0  0  0  0  0  0999 V2000
    3.7248  -20.4653   25.3311 N   0  0  0  0  0  0  0  0  0  0  0  0
    3.2351  -21.0095   24.1898 C   0  0  0  0  0  0  0  0  0  0  0  0
    4.1025  -21.3117   23.0906 N   0  0  0  0  0  0  0  0  0  0  0  0
    1.9224  -21.2726   24.0612 N   0  0  0  0  0  0  0  0  0  0  0  0
    1.0373  -21.0056   25.0814 C   0  0  0  0  0  0  0  0  0  0  0  0
    1.5088  -20.4479   26.2558 C   0  0  0  0  0  0  0  0  0  0  0  0
    2.9048  -20.1733   26.3642 C   0  0  0  0  0  0  0  0  0  0  0  0
    3.4263  -19.5945   27.5646 N   0  0  0  0  0  0  0  0  0  0  0  0
    0.4157  -20.2886   27.0861 N   0  0  0  0  0  0  0  0  0  0  0  0
   -0.6862  -20.7256   26.4438 C   0  0  0  0  0  0  0  0  0  0  0  0
   -0.3344  -21.1661   25.2195 N   0  0  0  0  0  0  0  0  0  0  0  0
  1  7  2  0  0  0  0
  1  2  1  0  0  0  0
  2  3  1  0  0  0  0
  2  4  2  0  0  0  0
  4  5  1  0  0  0  0
  5  6  2  0  0  0  0
  5 11  1  0  0  0  0
  6  7  1  0  0  0  0
  6  9  1  0  0  0  0
  7  8  1  0  0  0  0
  9 10  1  0  0  0  0
 10 11  2  0  0  0  0
M  END
>  <CHROM.1>
1.95549035,-20.67864992,25.50671121,-0.53133146,0.14995207,1.18336058

>  <Name>
ligand

>  <RI>
0

>  <Rbt.Current_Directory>
/home/itssahil/PROJECTS/Mol_Feturizer/New_Systems/rnas/4LVZ

>  <Rbt.Executable>
rbdock ($Id: //depot/dev/client3/rdock/2013.1/src/exe/rbdock.cxx#4 $)

>  <Rbt.Library>
libRbt.so (2013.1, Build901 2013/11/27)

>  <Rbt.Parameter_File>
/export/apps/rDock/src/rDock_2013.1_src/data/scripts/dock_solv.prm

>  <Rbt.Receptor>
prm/pocket_docking_4.prm

>  <SCORE>
-9.50363

>  <SCORE.INTER>
-9.50363

>  <SCORE.INTER.CONST>
1

>  <SCORE.INTER.POLAR>
0

>  <SCORE.INTER.ROT>
0

>  <SCORE.INTER.SOLV>
12.6919

>  <SCORE.INTER.VDW>
-14.1664

>  <SCORE.INTER.norm>
-0.863966

>  <SCORE.INTRA>
0

>  <SCORE.INTRA.DIHEDRAL>
0

>  <SCORE.INTRA.DIHEDRAL.0>
0

>  <SCORE.INTRA.POLAR>
0

>  <SCORE.INTRA.POLAR.0>
0

>  <SCORE.INTRA.REPUL>
0

>  <SCORE.INTRA.REPUL.0>
0

>  <SCORE.INTRA.SOLV>
0

>  <SCORE.INTRA.SOLV.lig_0>
-49.4056

>  <SCORE.INTRA.VDW>
0

>  <SCORE.INTRA.VDW.0>
0

>  <SCORE.INTRA.norm>
0

>  <SCORE.RESTR>
0

>  <SCORE.RESTR.CAVITY>
0

>  <SCORE.RESTR.norm>
0

>  <SCORE.SYSTEM>
0

>  <SCORE.SYSTEM.CONST>
0

>  <SCORE.SYSTEM.DIHEDRAL>
0

>  <SCORE.SYSTEM.SOLV>
0

>  <SCORE.SYSTEM.norm>
0

>  <SCORE.heavy>
11

>  <SCORE.norm>
-0.863966

>  <RMSD>
2.833

$$$$
ligand
 OpenBabel11021811503D
libRbt.so/2013.1/901 2013/11/27
 11 12  0  0  0  0  0  0  0  0999 V2000
    3.7225  -20.4392   25.3077 N   0  0  0  0  0  0  0  0  0  0  0  0
    3.2107  -20.9824   24.1756 C   0  0  0  0  0  0  0  0  0  0  0  0
    4.0569  -21.2845   23.0600 N   0  0  0  0  0  0  0  0  0  0  0  0
    1.8957  -21.2445   24.0718 N   0  0  0  0  0  0  0  0  0  0  0  0
    1.0303  -20.9776   25.1088 C   0  0  0  0  0  0  0  0  0  0  0  0
    1.5244  -20.4209   26.2743 C   0  0  0  0  0  0  0  0  0  0  0  0
    2.9224  -20.1473   26.3564 C   0  0  0  0  0  0  0  0  0  0  0  0
    3.4670  -19.5696   27.5470 N   0  0  0  0  0  0  0  0  0  0  0  0
    0.4473  -20.2613   27.1254 N   0  0  0  0  0  0  0  0  0  0  0  0
   -0.6669  -20.6972   26.5039 C   0  0  0  0  0  0  0  0  0  0  0  0
   -0.3387  -21.1373   25.2728 N   0  0  0  0  0  0  0  0  0  0  0  0
  1  7  2  0  0  0  0
  1  2  1  0  0  0  0
  2  3  1  0  0  0  0
  2  4  2  0  0  0  0
  4  5  1  0  0  0  0
  5  6  2  0  0  0  0
  5 11  1  0  0  0  0
  6  7  1  0  0  0  0
  6  9  1  0  0  0  0
  7  8  1  0  0  0  0
  9 10  1  0  0  0  0
 10 11  2  0  0  0  0
M  END
>  <CHROM.1>
1.95660549,-20.65148082,25.51679182,-0.54939640,0.15646795,1.18671842

>  <Name>
ligand

>  <RI>
0

>  <Rbt.Current_Directory>
/home/itssahil/PROJECTS/Mol_Feturizer/New_Systems/rnas/4LVZ

>  <Rbt.Executable>
rbdock ($Id: //depot/dev/client3/rdock/2013.1/src/exe/rbdock.cxx#4 $)

>  <Rbt.Library>
libRbt.so (2013.1, Build901 2013/11/27)

>  <Rbt.Parameter_File>
/export/apps/rDock/src/rDock_2013.1_src/data/scripts/dock_solv.prm

>  <Rbt.Receptor>
prm/pocket_docking_5.prm

>  <SCORE>
-9.47693

>  <SCORE.INTER>
-9.47693

>  <SCORE.INTER.CONST>
1

>  <SCORE.INTER.POLAR>
0

>  <SCORE.INTER.ROT>
0

>  <SCORE.INTER.SOLV>
12.7833

>  <SCORE.INTER.VDW>
-14.179

>  <SCORE.INTER.norm>
-0.861539

>  <SCORE.INTRA>
0

>  <SCORE.INTRA.DIHEDRAL>
0

>  <SCORE.INTRA.DIHEDRAL.0>
0

>  <SCORE.INTRA.POLAR>
0

>  <SCORE.INTRA.POLAR.0>
0

>  <SCORE.INTRA.REPUL>
0

>  <SCORE.INTRA.REPUL.0>
0

>  <SCORE.INTRA.SOLV>
0

>  <SCORE.INTRA.SOLV.lig_0>
-49.4056

>  <SCORE.INTRA.VDW>
0

>  <SCORE.INTRA.VDW.0>
0

>  <SCORE.INTRA.norm>
0

>  <SCORE.RESTR>
0

>  <SCORE.RESTR.CAVITY>
0

>  <SCORE.RESTR.norm>
0

>  <SCORE.SYSTEM>
0

>  <SCORE.SYSTEM.CONST>
0

>  <SCORE.SYSTEM.DIHEDRAL>
0

>  <SCORE.SYSTEM.SOLV>
0

>  <SCORE.SYSTEM.norm>
0

>  <SCORE.heavy>
11

>  <SCORE.norm>
-0.861539

>  <RMSD>
2.833

$$$$
ligand
 OpenBabel11021811503D
libRbt.so/2013.1/901 2013/11/27
 11 12  0  0  0  0  0  0  0  0999 V2000
    3.7341  -20.4650   25.3250 N   0  0  0  0  0  0  0  0  0  0  0  0
    3.2416  -21.0176   24.1889 C   0  0  0  0  0  0  0  0  0  0  0  0
    4.1049  -21.3188   23.0862 N   0  0  0  0  0  0  0  0  0  0  0  0
    1.9301  -21.2902   24.0689 N   0  0  0  0  0  0  0  0  0  0  0  0
    1.0489  -21.0246   25.0929 C   0  0  0  0  0  0  0  0  0  0  0  0
    1.5232  -20.4586   26.2621 C   0  0  0  0  0  0  0  0  0  0  0  0
    2.9179  -20.1740   26.3614 C   0  0  0  0  0  0  0  0  0  0  0  0
    3.4422  -19.5863   27.5563 N   0  0  0  0  0  0  0  0  0  0  0  0
    0.4337  -20.3029   27.0979 N   0  0  0  0  0  0  0  0  0  0  0  0
   -0.6688  -20.7502   26.4638 C   0  0  0  0  0  0  0  0  0  0  0  0
   -0.3209  -21.1938   25.2394 N   0  0  0  0  0  0  0  0  0  0  0  0
  1  7  2  0  0  0  0
  1  2  1  0  0  0  0
  2  3  1  0  0  0  0
  2  4  2  0  0  0  0
  4  5  1  0  0  0  0
  5  6  2  0  0  0  0
  5 11  1  0  0  0  0
  6  7  1  0  0  0  0
  6  9  1  0  0  0  0
  7  8  1  0  0  0  0
  9 10  1  0  0  0  0
 10 11  2  0  0  0  0
M  END
>  <CHROM.1>
1.96723177,-20.68957094,25.51156156,-0.53399139,0.15836553,1.17932008

>  <Name>
ligand

>  <RI>
0

>  <Rbt.Current_Directory>
/home/itssahil/PROJECTS/Mol_Feturizer/New_Systems/rnas/4LVZ

>  <Rbt.Executable>
rbdock ($Id: //depot/dev/client3/rdock/2013.1/src/exe/rbdock.cxx#4 $)

>  <Rbt.Library>
libRbt.so (2013.1, Build901 2013/11/27)

>  <Rbt.Parameter_File>
/export/apps/rDock/src/rDock_2013.1_src/data/scripts/dock_solv.prm

>  <Rbt.Receptor>
prm/pocket_docking_6.prm

>  <SCORE>
-9.46712

>  <SCORE.INTER>
-9.46712

>  <SCORE.INTER.CONST>
1

>  <SCORE.INTER.POLAR>
0

>  <SCORE.INTER.ROT>
0

>  <SCORE.INTER.SOLV>
12.6337

>  <SCORE.INTER.VDW>
-14.1226

>  <SCORE.INTER.norm>
-0.860647

>  <SCORE.INTRA>
0

>  <SCORE.INTRA.DIHEDRAL>
0

>  <SCORE.INTRA.DIHEDRAL.0>
0

>  <SCORE.INTRA.POLAR>
0

>  <SCORE.INTRA.POLAR.0>
0

>  <SCORE.INTRA.REPUL>
0

>  <SCORE.INTRA.REPUL.0>
0

>  <SCORE.INTRA.SOLV>
0

>  <SCORE.INTRA.SOLV.lig_0>
-49.4056

>  <SCORE.INTRA.VDW>
0

>  <SCORE.INTRA.VDW.0>
0

>  <SCORE.INTRA.norm>
0

>  <SCORE.RESTR>
0

>  <SCORE.RESTR.CAVITY>
0

>  <SCORE.RESTR.norm>
0

>  <SCORE.SYSTEM>
0

>  <SCORE.SYSTEM.CONST>
0

>  <SCORE.SYSTEM.DIHEDRAL>
0

>  <SCORE.SYSTEM.SOLV>
0

>  <SCORE.SYSTEM.norm>
0

>  <SCORE.heavy>
11

>  <SCORE.norm>
-0.860647

>  <RMSD>
2.833

$$$$
ligand
 OpenBabel11021811503D
libRbt.so/2013.1/901 2013/11/27
 11 12  0  0  0  0  0  0  0  0999 V2000
    3.7455  -20.4238   25.2843 N   0  0  0  0  0  0  0  0  0  0  0  0
    3.2239  -20.9745   24.1604 C   0  0  0  0  0  0  0  0  0  0  0  0
    4.0579  -21.2714   23.0342 N   0  0  0  0  0  0  0  0  0  0  0  0
    1.9101  -21.2493   24.0747 N   0  0  0  0  0  0  0  0  0  0  0  0
    1.0561  -20.9879   25.1226 C   0  0  0  0  0  0  0  0  0  0  0  0
    1.5604  -20.4238   26.2801 C   0  0  0  0  0  0  0  0  0  0  0  0
    2.9567  -20.1369   26.3428 C   0  0  0  0  0  0  0  0  0  0  0  0
    3.5116  -19.5511   27.5247 N   0  0  0  0  0  0  0  0  0  0  0  0
    0.4933  -20.2722   27.1450 N   0  0  0  0  0  0  0  0  0  0  0  0
   -0.6249  -20.7201   26.5394 C   0  0  0  0  0  0  0  0  0  0  0  0
   -0.3090  -21.1601   25.3051 N   0  0  0  0  0  0  0  0  0  0  0  0
  1  7  2  0  0  0  0
  1  2  1  0  0  0  0
  2  3  1  0  0  0  0
  2  4  2  0  0  0  0
  4  5  1  0  0  0  0
  5  6  2  0  0  0  0
  5 11  1  0  0  0  0
  6  7  1  0  0  0  0
  6  9  1  0  0  0  0
  7  8  1  0  0  0  0
  9 10  1  0  0  0  0
 10 11  2  0  0  0  0
M  END
>  <CHROM.1>
1.98464862,-20.65213995,25.51736207,-0.55832623,0.17019468,1.18576698

>  <Name>
ligand

>  <RI>
0

>  <Rbt.Current_Directory>
/home/itssahil/PROJECTS/Mol_Feturizer/New_Systems/rnas/4LVZ

>  <Rbt.Executable>
rbdock ($Id: //depot/dev/client3/rdock/2013.1/src/exe/rbdock.cxx#4 $)

>  <Rbt.Library>
libRbt.so (2013.1, Build901 2013/11/27)

>  <Rbt.Parameter_File>
/export/apps/rDock/src/rDock_2013.1_src/data/scripts/dock_solv.prm

>  <Rbt.Receptor>
prm/pocket_docking_6.prm

>  <SCORE>
-9.45719

>  <SCORE.INTER>
-9.45719

>  <SCORE.INTER.CONST>
1

>  <SCORE.INTER.POLAR>
0

>  <SCORE.INTER.ROT>
0

>  <SCORE.INTER.SOLV>
12.6374

>  <SCORE.INTER.VDW>
-14.1172

>  <SCORE.INTER.norm>
-0.859745

>  <SCORE.INTRA>
0

>  <SCORE.INTRA.DIHEDRAL>
0

>  <SCORE.INTRA.DIHEDRAL.0>
0

>  <SCORE.INTRA.POLAR>
0

>  <SCORE.INTRA.POLAR.0>
0

>  <SCORE.INTRA.REPUL>
0

>  <SCORE.INTRA.REPUL.0>
0

>  <SCORE.INTRA.SOLV>
0

>  <SCORE.INTRA.SOLV.lig_0>
-49.4056

>  <SCORE.INTRA.VDW>
0

>  <SCORE.INTRA.VDW.0>
0

>  <SCORE.INTRA.norm>
0

>  <SCORE.RESTR>
0

>  <SCORE.RESTR.CAVITY>
0

>  <SCORE.RESTR.norm>
0

>  <SCORE.SYSTEM>
0

>  <SCORE.SYSTEM.CONST>
0

>  <SCORE.SYSTEM.DIHEDRAL>
0

>  <SCORE.SYSTEM.SOLV>
0

>  <SCORE.SYSTEM.norm>
0

>  <SCORE.heavy>
11

>  <SCORE.norm>
-0.859745

>  <RMSD>
2.833

$$$$
ligand
 OpenBabel11021811503D
libRbt.so/2013.1/901 2013/11/27
 11 12  0  0  0  0  0  0  0  0999 V2000
    3.7313  -20.4659   25.3267 N   0  0  0  0  0  0  0  0  0  0  0  0
    3.2263  -21.0105   24.1922 C   0  0  0  0  0  0  0  0  0  0  0  0
    4.0813  -21.3274   23.0875 N   0  0  0  0  0  0  0  0  0  0  0  0
    1.9099  -21.2601   24.0757 N   0  0  0  0  0  0  0  0  0  0  0  0
    1.0361  -20.9785   25.1018 C   0  0  0  0  0  0  0  0  0  0  0  0
    1.5232  -20.4202   26.2694 C   0  0  0  0  0  0  0  0  0  0  0  0
    2.9229  -20.1601   26.3650 C   0  0  0  0  0  0  0  0  0  0  0  0
    3.4605  -19.5810   27.5582 N   0  0  0  0  0  0  0  0  0  0  0  0
    0.4387  -20.2449   27.1078 N   0  0  0  0  0  0  0  0  0  0  0  0
   -0.6731  -20.6732   26.4768 C   0  0  0  0  0  0  0  0  0  0  0  0
   -0.3361  -21.1236   25.2518 N   0  0  0  0  0  0  0  0  0  0  0  0
  1  7  2  0  0  0  0
  1  2  1  0  0  0  0
  2  3  1  0  0  0  0
  2  4  2  0  0  0  0
  4  5  1  0  0  0  0
  5  6  2  0  0  0  0
  5 11  1  0  0  0  0
  6  7  1  0  0  0  0
  6  9  1  0  0  0  0
  7  8  1  0  0  0  0
  9 10  1  0  0  0  0
 10 11  2  0  0  0  0
M  END
>  <CHROM.1>
1.96121876,-20.65935885,25.51788751,-0.54313323,0.14311572,1.18009041

>  <Name>
ligand

>  <RI>
0

>  <Rbt.Current_Directory>
/home/itssahil/PROJECTS/Mol_Feturizer/New_Systems/rnas/4LVZ

>  <Rbt.Executable>
rbdock ($Id: //depot/dev/client3/rdock/2013.1/src/exe/rbdock.cxx#4 $)

>  <Rbt.Library>
libRbt.so (2013.1, Build901 2013/11/27)

>  <Rbt.Parameter_File>
/export/apps/rDock/src/rDock_2013.1_src/data/scripts/dock_solv.prm

>  <Rbt.Receptor>
prm/pocket_docking_7.prm

>  <SCORE>
-9.505

>  <SCORE.INTER>
-9.505

>  <SCORE.INTER.CONST>
1

>  <SCORE.INTER.POLAR>
0

>  <SCORE.INTER.ROT>
0

>  <SCORE.INTER.SOLV>
12.7386

>  <SCORE.INTER.VDW>
-14.1829

>  <SCORE.INTER.norm>
-0.864091

>  <SCORE.INTRA>
0

>  <SCORE.INTRA.DIHEDRAL>
0

>  <SCORE.INTRA.DIHEDRAL.0>
0

>  <SCORE.INTRA.POLAR>
0

>  <SCORE.INTRA.POLAR.0>
0

>  <SCORE.INTRA.REPUL>
0

>  <SCORE.INTRA.REPUL.0>
0

>  <SCORE.INTRA.SOLV>
0

>  <SCORE.INTRA.SOLV.lig_0>
-49.4056

>  <SCORE.INTRA.VDW>
0

>  <SCORE.INTRA.VDW.0>
0

>  <SCORE.INTRA.norm>
0

>  <SCORE.RESTR>
0

>  <SCORE.RESTR.CAVITY>
0

>  <SCORE.RESTR.norm>
0

>  <SCORE.SYSTEM>
0

>  <SCORE.SYSTEM.CONST>
0

>  <SCORE.SYSTEM.DIHEDRAL>
0

>  <SCORE.SYSTEM.SOLV>
0

>  <SCORE.SYSTEM.norm>
0

>  <SCORE.heavy>
11

>  <SCORE.norm>
-0.864091

>  <RMSD>
2.833

$$$$
ligand
 OpenBabel11021811503D
libRbt.so/2013.1/901 2013/11/27
 11 12  0  0  0  0  0  0  0  0999 V2000
    3.7207  -20.4664   25.3233 N   0  0  0  0  0  0  0  0  0  0  0  0
    3.2363  -21.0523   24.2005 C   0  0  0  0  0  0  0  0  0  0  0  0
    4.1067  -21.3815   23.1114 N   0  0  0  0  0  0  0  0  0  0  0  0
    1.9264  -21.3324   24.0809 N   0  0  0  0  0  0  0  0  0  0  0  0
    1.0386  -21.0411   25.0922 C   0  0  0  0  0  0  0  0  0  0  0  0
    1.5046  -20.4410   26.2476 C   0  0  0  0  0  0  0  0  0  0  0  0
    2.8978  -20.1492   26.3467 C   0  0  0  0  0  0  0  0  0  0  0  0
    3.4135  -19.5265   27.5274 N   0  0  0  0  0  0  0  0  0  0  0  0
    0.4099  -20.2655   27.0727 N   0  0  0  0  0  0  0  0  0  0  0  0
   -0.6876  -20.7340   26.4453 C   0  0  0  0  0  0  0  0  0  0  0  0
   -0.3314  -21.2107   25.2358 N   0  0  0  0  0  0  0  0  0  0  0  0
  1  7  2  0  0  0  0
  1  2  1  0  0  0  0
  2  3  1  0  0  0  0
  2  4  2  0  0  0  0
  4  5  1  0  0  0  0
  5  6  2  0  0  0  0
  5 11  1  0  0  0  0
  6  7  1  0  0  0  0
  6  9  1  0  0  0  0
  7  8  1  0  0  0  0
  9 10  1  0  0  0  0
 10 11  2  0  0  0  0
M  END
>  <CHROM.1>
1.95353226,-20.69147202,25.50633893,-0.52753137,0.15910206,1.15024325

>  <Name>
ligand

>  <RI>
0

>  <Rbt.Current_Directory>
/home/itssahil/PROJECTS/Mol_Feturizer/New_Systems/rnas/4LVZ

>  <Rbt.Executable>
rbdock ($Id: //depot/dev/client3/rdock/2013.1/src/exe/rbdock.cxx#4 $)

>  <Rbt.Library>
libRbt.so (2013.1, Build901 2013/11/27)

>  <Rbt.Parameter_File>
/export/apps/rDock/src/rDock_2013.1_src/data/scripts/dock_solv.prm

>  <Rbt.Receptor>
prm/pocket_docking_3.prm

>  <SCORE>
-9.46744

>  <SCORE.INTER>
-9.46744

>  <SCORE.INTER.CONST>
1

>  <SCORE.INTER.POLAR>
0

>  <SCORE.INTER.ROT>
0

>  <SCORE.INTER.SOLV>
12.8765

>  <SCORE.INTER.VDW>
-14.2038

>  <SCORE.INTER.norm>
-0.860676

>  <SCORE.INTRA>
0

>  <SCORE.INTRA.DIHEDRAL>
0

>  <SCORE.INTRA.DIHEDRAL.0>
0

>  <SCORE.INTRA.POLAR>
0

>  <SCORE.INTRA.POLAR.0>
0

>  <SCORE.INTRA.REPUL>
0

>  <SCORE.INTRA.REPUL.0>
0

>  <SCORE.INTRA.SOLV>
0

>  <SCORE.INTRA.SOLV.lig_0>
-49.4056

>  <SCORE.INTRA.VDW>
0

>  <SCORE.INTRA.VDW.0>
0

>  <SCORE.INTRA.norm>
0

>  <SCORE.RESTR>
0

>  <SCORE.RESTR.CAVITY>
0

>  <SCORE.RESTR.norm>
0

>  <SCORE.SYSTEM>
0

>  <SCORE.SYSTEM.CONST>
0

>  <SCORE.SYSTEM.DIHEDRAL>
0

>  <SCORE.SYSTEM.SOLV>
0

>  <SCORE.SYSTEM.norm>
0

>  <SCORE.heavy>
11

>  <SCORE.norm>
-0.860676

>  <RMSD>
2.834

$$$$
ligand
 OpenBabel11021811503D
libRbt.so/2013.1/901 2013/11/27
 11 12  0  0  0  0  0  0  0  0999 V2000
    3.7284  -20.4694   25.3303 N   0  0  0  0  0  0  0  0  0  0  0  0
    3.2175  -21.0193   24.2011 C   0  0  0  0  0  0  0  0  0  0  0  0
    4.0688  -21.3544   23.0988 N   0  0  0  0  0  0  0  0  0  0  0  0
    1.8987  -21.2575   24.0877 N   0  0  0  0  0  0  0  0  0  0  0  0
    1.0284  -20.9583   25.1117 C   0  0  0  0  0  0  0  0  0  0  0  0
    1.5216  -20.3941   26.2739 C   0  0  0  0  0  0  0  0  0  0  0  0
    2.9237  -20.1464   26.3663 C   0  0  0  0  0  0  0  0  0  0  0  0
    3.4676  -19.5617   27.5538 N   0  0  0  0  0  0  0  0  0  0  0  0
    0.4394  -20.2009   27.1113 N   0  0  0  0  0  0  0  0  0  0  0  0
   -0.6769  -20.6243   26.4849 C   0  0  0  0  0  0  0  0  0  0  0  0
   -0.3450  -21.0890   25.2639 N   0  0  0  0  0  0  0  0  0  0  0  0
  1  7  2  0  0  0  0
  1  2  1  0  0  0  0
  2  3  1  0  0  0  0
  2  4  2  0  0  0  0
  4  5  1  0  0  0  0
  5  6  2  0  0  0  0
  5 11  1  0  0  0  0
  6  7  1  0  0  0  0
  6  9  1  0  0  0  0
  7  8  1  0  0  0  0
  9 10  1  0  0  0  0
 10 11  2  0  0  0  0
M  END
>  <CHROM.1>
1.95674685,-20.64423485,25.52430796,-0.54741187,0.13459804,1.17160376

>  <Name>
ligand

>  <RI>
0

>  <Rbt.Current_Directory>
/home/itssahil/PROJECTS/Mol_Feturizer/New_Systems/rnas/4LVZ

>  <Rbt.Executable>
rbdock ($Id: //depot/dev/client3/rdock/2013.1/src/exe/rbdock.cxx#4 $)

>  <Rbt.Library>
libRbt.so (2013.1, Build901 2013/11/27)

>  <Rbt.Parameter_File>
/export/apps/rDock/src/rDock_2013.1_src/data/scripts/dock_solv.prm

>  <Rbt.Receptor>
prm/pocket_docking_4.prm

>  <SCORE>
-9.48506

>  <SCORE.INTER>
-9.48506

>  <SCORE.INTER.CONST>
1

>  <SCORE.INTER.POLAR>
0

>  <SCORE.INTER.ROT>
0

>  <SCORE.INTER.SOLV>
12.8648

>  <SCORE.INTER.VDW>
-14.2116

>  <SCORE.INTER.norm>
-0.862278

>  <SCORE.INTRA>
0

>  <SCORE.INTRA.DIHEDRAL>
0

>  <SCORE.INTRA.DIHEDRAL.0>
0

>  <SCORE.INTRA.POLAR>
0

>  <SCORE.INTRA.POLAR.0>
0

>  <SCORE.INTRA.REPUL>
0

>  <SCORE.INTRA.REPUL.0>
0

>  <SCORE.INTRA.SOLV>
0

>  <SCORE.INTRA.SOLV.lig_0>
-49.4056

>  <SCORE.INTRA.VDW>
0

>  <SCORE.INTRA.VDW.0>
0

>  <SCORE.INTRA.norm>
0

>  <SCORE.RESTR>
0

>  <SCORE.RESTR.CAVITY>
0

>  <SCORE.RESTR.norm>
0

>  <SCORE.SYSTEM>
0

>  <SCORE.SYSTEM.CONST>
0

>  <SCORE.SYSTEM.DIHEDRAL>
0

>  <SCORE.SYSTEM.SOLV>
0

>  <SCORE.SYSTEM.norm>
0

>  <SCORE.heavy>
11

>  <SCORE.norm>
-0.862278

>  <RMSD>
2.834

$$$$
ligand
 OpenBabel11021811503D
libRbt.so/2013.1/901 2013/11/27
 11 12  0  0  0  0  0  0  0  0999 V2000
    3.7225  -20.4608   25.3265 N   0  0  0  0  0  0  0  0  0  0  0  0
    3.2141  -21.0148   24.1982 C   0  0  0  0  0  0  0  0  0  0  0  0
    4.0672  -21.3505   23.0975 N   0  0  0  0  0  0  0  0  0  0  0  0
    1.8960  -21.2565   24.0840 N   0  0  0  0  0  0  0  0  0  0  0  0
    1.0239  -20.9570   25.1064 C   0  0  0  0  0  0  0  0  0  0  0  0
    1.5146  -20.3886   26.2677 C   0  0  0  0  0  0  0  0  0  0  0  0
    2.9160  -20.1373   26.3609 C   0  0  0  0  0  0  0  0  0  0  0  0
    3.4573  -19.5482   27.5474 N   0  0  0  0  0  0  0  0  0  0  0  0
    0.4311  -20.1961   27.1036 N   0  0  0  0  0  0  0  0  0  0  0  0
   -0.6835  -20.6238   26.4772 C   0  0  0  0  0  0  0  0  0  0  0  0
   -0.3493  -21.0907   25.2576 N   0  0  0  0  0  0  0  0  0  0  0  0
  1  7  2  0  0  0  0
  1  2  1  0  0  0  0
  2  3  1  0  0  0  0
  2  4  2  0  0  0  0
  4  5  1  0  0  0  0
  5  6  2  0  0  0  0
  5 11  1  0  0  0  0
  6  7  1  0  0  0  0
  6  9  1  0  0  0  0
  7  8  1  0  0  0  0
  9 10  1  0  0  0  0
 10 11  2  0  0  0  0
M  END
>  <CHROM.1>
1.95109365,-20.63956931,25.51917826,-0.54553235,0.13651837,1.16885433

>  <Name>
ligand

>  <RI>
0

>  <Rbt.Current_Directory>
/home/itssahil/PROJECTS/Mol_Feturizer/New_Systems/rnas/4LVZ

>  <Rbt.Executable>
rbdock ($Id: //depot/dev/client3/rdock/2013.1/src/exe/rbdock.cxx#4 $)

>  <Rbt.Library>
libRbt.so (2013.1, Build901 2013/11/27)

>  <Rbt.Parameter_File>
/export/apps/rDock/src/rDock_2013.1_src/data/scripts/dock_solv.prm

>  <Rbt.Receptor>
prm/pocket_docking_6.prm

>  <SCORE>
-9.48068

>  <SCORE.INTER>
-9.48068

>  <SCORE.INTER.CONST>
1

>  <SCORE.INTER.POLAR>
0

>  <SCORE.INTER.ROT>
0

>  <SCORE.INTER.SOLV>
12.9173

>  <SCORE.INTER.VDW>
-14.2262

>  <SCORE.INTER.norm>
-0.86188

>  <SCORE.INTRA>
0

>  <SCORE.INTRA.DIHEDRAL>
0

>  <SCORE.INTRA.DIHEDRAL.0>
0

>  <SCORE.INTRA.POLAR>
0

>  <SCORE.INTRA.POLAR.0>
0

>  <SCORE.INTRA.REPUL>
0

>  <SCORE.INTRA.REPUL.0>
0

>  <SCORE.INTRA.SOLV>
0

>  <SCORE.INTRA.SOLV.lig_0>
-49.4056

>  <SCORE.INTRA.VDW>
0

>  <SCORE.INTRA.VDW.0>
0

>  <SCORE.INTRA.norm>
0

>  <SCORE.RESTR>
0

>  <SCORE.RESTR.CAVITY>
0

>  <SCORE.RESTR.norm>
0

>  <SCORE.SYSTEM>
0

>  <SCORE.SYSTEM.CONST>
0

>  <SCORE.SYSTEM.DIHEDRAL>
0

>  <SCORE.SYSTEM.SOLV>
0

>  <SCORE.SYSTEM.norm>
0

>  <SCORE.heavy>
11

>  <SCORE.norm>
-0.86188

>  <RMSD>
2.834

$$$$
ligand
 OpenBabel11021811503D
libRbt.so/2013.1/901 2013/11/27
 11 12  0  0  0  0  0  0  0  0999 V2000
    3.7156  -20.4615   25.3077 N   0  0  0  0  0  0  0  0  0  0  0  0
    3.2205  -21.0292   24.1802 C   0  0  0  0  0  0  0  0  0  0  0  0
    4.0762  -21.3186   23.0684 N   0  0  0  0  0  0  0  0  0  0  0  0
    1.9133  -21.3283   24.0774 N   0  0  0  0  0  0  0  0  0  0  0  0
    1.0395  -21.0753   25.1109 C   0  0  0  0  0  0  0  0  0  0  0  0
    1.5165  -20.4943   26.2716 C   0  0  0  0  0  0  0  0  0  0  0  0
    2.9064  -20.1818   26.3526 C   0  0  0  0  0  0  0  0  0  0  0  0
    3.4333  -19.5781   27.5383 N   0  0  0  0  0  0  0  0  0  0  0  0
    0.4343  -20.3562   27.1198 N   0  0  0  0  0  0  0  0  0  0  0  0
   -0.6667  -20.8283   26.5012 C   0  0  0  0  0  0  0  0  0  0  0  0
   -0.3248  -21.2709   25.2748 N   0  0  0  0  0  0  0  0  0  0  0  0
  1  7  2  0  0  0  0
  1  2  1  0  0  0  0
  2  3  1  0  0  0  0
  2  4  2  0  0  0  0
  4  5  1  0  0  0  0
  5  6  2  0  0  0  0
  5 11  1  0  0  0  0
  6  7  1  0  0  0  0
  6  9  1  0  0  0  0
  7  8  1  0  0  0  0
  9 10  1  0  0  0  0
 10 11  2  0  0  0  0
M  END
>  <CHROM.1>
1.95596396,-20.72011470,25.51674141,-0.53764121,0.18132869,1.17525161

>  <Name>
ligand

>  <RI>
0

>  <Rbt.Current_Directory>
/home/itssahil/PROJECTS/Mol_Feturizer/New_Systems/rnas/4LVZ

>  <Rbt.Executable>
rbdock ($Id: //depot/dev/client3/rdock/2013.1/src/exe/rbdock.cxx#4 $)

>  <Rbt.Library>
libRbt.so (2013.1, Build901 2013/11/27)

>  <Rbt.Parameter_File>
/export/apps/rDock/src/rDock_2013.1_src/data/scripts/dock_solv.prm

>  <Rbt.Receptor>
prm/pocket_docking_6.prm

>  <SCORE>
-9.45818

>  <SCORE.INTER>
-9.45818

>  <SCORE.INTER.CONST>
1

>  <SCORE.INTER.POLAR>
0

>  <SCORE.INTER.ROT>
0

>  <SCORE.INTER.SOLV>
12.7416

>  <SCORE.INTER.VDW>
-14.1527

>  <SCORE.INTER.norm>
-0.859835

>  <SCORE.INTRA>
0

>  <SCORE.INTRA.DIHEDRAL>
0

>  <SCORE.INTRA.DIHEDRAL.0>
0

>  <SCORE.INTRA.POLAR>
0

>  <SCORE.INTRA.POLAR.0>
0

>  <SCORE.INTRA.REPUL>
0

>  <SCORE.INTRA.REPUL.0>
0

>  <SCORE.INTRA.SOLV>
0

>  <SCORE.INTRA.SOLV.lig_0>
-49.4056

>  <SCORE.INTRA.VDW>
0

>  <SCORE.INTRA.VDW.0>
0

>  <SCORE.INTRA.norm>
0

>  <SCORE.RESTR>
0

>  <SCORE.RESTR.CAVITY>
0

>  <SCORE.RESTR.norm>
0

>  <SCORE.SYSTEM>
0

>  <SCORE.SYSTEM.CONST>
0

>  <SCORE.SYSTEM.DIHEDRAL>
0

>  <SCORE.SYSTEM.SOLV>
0

>  <SCORE.SYSTEM.norm>
0

>  <SCORE.heavy>
11

>  <SCORE.norm>
-0.859835

>  <RMSD>
2.834

$$$$
ligand
 OpenBabel11021811503D
libRbt.so/2013.1/901 2013/11/27
 11 12  0  0  0  0  0  0  0  0999 V2000
    3.7230  -20.4577   25.3217 N   0  0  0  0  0  0  0  0  0  0  0  0
    3.2337  -21.0097   24.1840 C   0  0  0  0  0  0  0  0  0  0  0  0
    4.1005  -21.3130   23.0846 N   0  0  0  0  0  0  0  0  0  0  0  0
    1.9221  -21.2798   24.0591 N   0  0  0  0  0  0  0  0  0  0  0  0
    1.0376  -21.0122   25.0797 C   0  0  0  0  0  0  0  0  0  0  0  0
    1.5086  -20.4466   26.2505 C   0  0  0  0  0  0  0  0  0  0  0  0
    2.9034  -20.1648   26.3550 C   0  0  0  0  0  0  0  0  0  0  0  0
    3.4244  -19.5777   27.5516 N   0  0  0  0  0  0  0  0  0  0  0  0
    0.4162  -20.2885   27.0821 N   0  0  0  0  0  0  0  0  0  0  0  0
   -0.6847  -20.7339   26.4440 C   0  0  0  0  0  0  0  0  0  0  0  0
   -0.3331  -21.1786   25.2211 N   0  0  0  0  0  0  0  0  0  0  0  0
  1  7  2  0  0  0  0
  1  2  1  0  0  0  0
  2  3  1  0  0  0  0
  2  4  2  0  0  0  0
  4  5  1  0  0  0  0
  5  6  2  0  0  0  0
  5 11  1  0  0  0  0
  6  7  1  0  0  0  0
  6  9  1  0  0  0  0
  7  8  1  0  0  0  0
  9 10  1  0  0  0  0
 10 11  2  0  0  0  0
M  END
>  <CHROM.1>
1.95498795,-20.67875755,25.50170607,-0.53122611,0.15510649,1.17855343

>  <Name>
ligand

>  <RI>
0

>  <Rbt.Current_Directory>
/home/itssahil/PROJECTS/Mol_Feturizer/New_Systems/rnas/4LVZ

>  <Rbt.Executable>
rbdock ($Id: //depot/dev/client3/rdock/2013.1/src/exe/rbdock.cxx#4 $)

>  <Rbt.Library>
libRbt.so (2013.1, Build901 2013/11/27)

>  <Rbt.Parameter_File>
/export/apps/rDock/src/rDock_2013.1_src/data/scripts/dock_solv.prm

>  <Rbt.Receptor>
prm/pocket_docking_7.prm

>  <SCORE>
-9.49951

>  <SCORE.INTER>
-9.49951

>  <SCORE.INTER.CONST>
1

>  <SCORE.INTER.POLAR>
0

>  <SCORE.INTER.ROT>
0

>  <SCORE.INTER.SOLV>
12.7176

>  <SCORE.INTER.VDW>
-14.1722

>  <SCORE.INTER.norm>
-0.863592

>  <SCORE.INTRA>
0

>  <SCORE.INTRA.DIHEDRAL>
0

>  <SCORE.INTRA.DIHEDRAL.0>
0

>  <SCORE.INTRA.POLAR>
0

>  <SCORE.INTRA.POLAR.0>
0

>  <SCORE.INTRA.REPUL>
0

>  <SCORE.INTRA.REPUL.0>
0

>  <SCORE.INTRA.SOLV>
0

>  <SCORE.INTRA.SOLV.lig_0>
-49.4056

>  <SCORE.INTRA.VDW>
0

>  <SCORE.INTRA.VDW.0>
0

>  <SCORE.INTRA.norm>
0

>  <SCORE.RESTR>
0

>  <SCORE.RESTR.CAVITY>
0

>  <SCORE.RESTR.norm>
0

>  <SCORE.SYSTEM>
0

>  <SCORE.SYSTEM.CONST>
0

>  <SCORE.SYSTEM.DIHEDRAL>
0

>  <SCORE.SYSTEM.SOLV>
0

>  <SCORE.SYSTEM.norm>
0

>  <SCORE.heavy>
11

>  <SCORE.norm>
-0.863592

>  <RMSD>
2.834

$$$$
ligand
 OpenBabel11021811503D
libRbt.so/2013.1/901 2013/11/27
 11 12  0  0  0  0  0  0  0  0999 V2000
    3.7553  -20.4249   25.2967 N   0  0  0  0  0  0  0  0  0  0  0  0
    3.2542  -20.9738   24.1625 C   0  0  0  0  0  0  0  0  0  0  0  0
    4.1107  -21.2808   23.0561 N   0  0  0  0  0  0  0  0  0  0  0  0
    1.9403  -21.2371   24.0480 N   0  0  0  0  0  0  0  0  0  0  0  0
    1.0653  -20.9656   25.0758 C   0  0  0  0  0  0  0  0  0  0  0  0
    1.5485  -20.4032   26.2431 C   0  0  0  0  0  0  0  0  0  0  0  0
    2.9456  -20.1285   26.3366 C   0  0  0  0  0  0  0  0  0  0  0  0
    3.4790  -19.5448   27.5293 N   0  0  0  0  0  0  0  0  0  0  0  0
    0.4637  -20.2401   27.0835 N   0  0  0  0  0  0  0  0  0  0  0  0
   -0.6446  -20.6795   26.4539 C   0  0  0  0  0  0  0  0  0  0  0  0
   -0.3050  -21.1253   25.2280 N   0  0  0  0  0  0  0  0  0  0  0  0
  1  7  2  0  0  0  0
  1  2  1  0  0  0  0
  2  3  1  0  0  0  0
  2  4  2  0  0  0  0
  4  5  1  0  0  0  0
  5  6  2  0  0  0  0
  5 11  1  0  0  0  0
  6  7  1  0  0  0  0
  6  9  1  0  0  0  0
  7  8  1  0  0  0  0
  9 10  1  0  0  0  0
 10 11  2  0  0  0  0
M  END
>  <CHROM.1>
1.98774787,-20.63714014,25.49061880,-0.54065773,0.15348290,1.18059760

>  <Name>
ligand

>  <RI>
0

>  <Rbt.Current_Directory>
/home/itssahil/PROJECTS/Mol_Feturizer/New_Systems/rnas/4LVZ

>  <Rbt.Executable>
rbdock ($Id: //depot/dev/client3/rdock/2013.1/src/exe/rbdock.cxx#4 $)

>  <Rbt.Library>
libRbt.so (2013.1, Build901 2013/11/27)

>  <Rbt.Parameter_File>
/export/apps/rDock/src/rDock_2013.1_src/data/scripts/dock_solv.prm

>  <Rbt.Receptor>
prm/pocket_docking_8.prm

>  <SCORE>
-9.42276

>  <SCORE.INTER>
-9.42276

>  <SCORE.INTER.CONST>
1

>  <SCORE.INTER.POLAR>
0

>  <SCORE.INTER.ROT>
0

>  <SCORE.INTER.SOLV>
12.5458

>  <SCORE.INTER.VDW>
-14.0638

>  <SCORE.INTER.norm>
-0.856614

>  <SCORE.INTRA>
0

>  <SCORE.INTRA.DIHEDRAL>
0

>  <SCORE.INTRA.DIHEDRAL.0>
0

>  <SCORE.INTRA.POLAR>
0

>  <SCORE.INTRA.POLAR.0>
0

>  <SCORE.INTRA.REPUL>
0

>  <SCORE.INTRA.REPUL.0>
0

>  <SCORE.INTRA.SOLV>
0

>  <SCORE.INTRA.SOLV.lig_0>
-49.4056

>  <SCORE.INTRA.VDW>
0

>  <SCORE.INTRA.VDW.0>
0

>  <SCORE.INTRA.norm>
0

>  <SCORE.RESTR>
0

>  <SCORE.RESTR.CAVITY>
0

>  <SCORE.RESTR.norm>
0

>  <SCORE.SYSTEM>
0

>  <SCORE.SYSTEM.CONST>
0

>  <SCORE.SYSTEM.DIHEDRAL>
0

>  <SCORE.SYSTEM.SOLV>
0

>  <SCORE.SYSTEM.norm>
0

>  <SCORE.heavy>
11

>  <SCORE.norm>
-0.856614

>  <RMSD>
2.834

$$$$
ligand
 OpenBabel11021811503D
libRbt.so/2013.1/901 2013/11/27
 11 12  0  0  0  0  0  0  0  0999 V2000
    3.7318  -20.3400   25.2047 N   0  0  0  0  0  0  0  0  0  0  0  0
    3.1706  -20.7705   24.0478 C   0  0  0  0  0  0  0  0  0  0  0  0
    3.9603  -20.9237   22.8625 N   0  0  0  0  0  0  0  0  0  0  0  0
    1.8583  -21.0579   23.9850 N   0  0  0  0  0  0  0  0  0  0  0  0
    1.0459  -20.9316   25.0894 C   0  0  0  0  0  0  0  0  0  0  0  0
    1.5910  -20.4919   26.2818 C   0  0  0  0  0  0  0  0  0  0  0  0
    2.9847  -20.1883   26.3200 C   0  0  0  0  0  0  0  0  0  0  0  0
    3.5811  -19.7288   27.5370 N   0  0  0  0  0  0  0  0  0  0  0  0
    0.5595  -20.4580   27.2009 N   0  0  0  0  0  0  0  0  0  0  0  0
   -0.5771  -20.8554   26.5944 C   0  0  0  0  0  0  0  0  0  0  0  0
   -0.3077  -21.1482   25.3065 N   0  0  0  0  0  0  0  0  0  0  0  0
  1  7  2  0  0  0  0
  1  2  1  0  0  0  0
  2  3  1  0  0  0  0
  2  4  2  0  0  0  0
  4  5  1  0  0  0  0
  5  6  2  0  0  0  0
  5 11  1  0  0  0  0
  6  7  1  0  0  0  0
  6  9  1  0  0  0  0
  7  8  1  0  0  0  0
  9 10  1  0  0  0  0
 10 11  2  0  0  0  0
M  END
>  <CHROM.1>
1.98568413,-20.62531228,25.48164794,-0.59312112,0.19865039,1.30507539

>  <Name>
ligand

>  <RI>
0

>  <Rbt.Current_Directory>
/home/itssahil/PROJECTS/Mol_Feturizer/New_Systems/rnas/4LVZ

>  <Rbt.Executable>
rbdock ($Id: //depot/dev/client3/rdock/2013.1/src/exe/rbdock.cxx#4 $)

>  <Rbt.Library>
libRbt.so (2013.1, Build901 2013/11/27)

>  <Rbt.Parameter_File>
/export/apps/rDock/src/rDock_2013.1_src/data/scripts/dock_solv.prm

>  <Rbt.Receptor>
prm/pocket_docking_8.prm

>  <SCORE>
-9.42997

>  <SCORE.INTER>
-9.42997

>  <SCORE.INTER.CONST>
1

>  <SCORE.INTER.POLAR>
0

>  <SCORE.INTER.ROT>
0

>  <SCORE.INTER.SOLV>
12.085

>  <SCORE.INTER.VDW>
-13.915

>  <SCORE.INTER.norm>
-0.85727

>  <SCORE.INTRA>
0

>  <SCORE.INTRA.DIHEDRAL>
0

>  <SCORE.INTRA.DIHEDRAL.0>
0

>  <SCORE.INTRA.POLAR>
0

>  <SCORE.INTRA.POLAR.0>
0

>  <SCORE.INTRA.REPUL>
0

>  <SCORE.INTRA.REPUL.0>
0

>  <SCORE.INTRA.SOLV>
0

>  <SCORE.INTRA.SOLV.lig_0>
-49.4056

>  <SCORE.INTRA.VDW>
0

>  <SCORE.INTRA.VDW.0>
0

>  <SCORE.INTRA.norm>
0

>  <SCORE.RESTR>
0

>  <SCORE.RESTR.CAVITY>
0

>  <SCORE.RESTR.norm>
0

>  <SCORE.SYSTEM>
0

>  <SCORE.SYSTEM.CONST>
0

>  <SCORE.SYSTEM.DIHEDRAL>
0

>  <SCORE.SYSTEM.SOLV>
0

>  <SCORE.SYSTEM.norm>
0

>  <SCORE.heavy>
11

>  <SCORE.norm>
-0.85727

>  <RMSD>
2.834

$$$$
ligand
 OpenBabel11021811503D
libRbt.so/2013.1/901 2013/11/27
 11 12  0  0  0  0  0  0  0  0999 V2000
    3.7447  -20.5043   25.3415 N   0  0  0  0  0  0  0  0  0  0  0  0
    3.2594  -21.0769   24.2122 C   0  0  0  0  0  0  0  0  0  0  0  0
    4.1319  -21.4107   23.1263 N   0  0  0  0  0  0  0  0  0  0  0  0
    1.9467  -21.3392   24.0832 N   0  0  0  0  0  0  0  0  0  0  0  0
    1.0568  -21.0425   25.0911 C   0  0  0  0  0  0  0  0  0  0  0  0
    1.5236  -20.4555   26.2529 C   0  0  0  0  0  0  0  0  0  0  0  0
    2.9198  -20.1826   26.3619 C   0  0  0  0  0  0  0  0  0  0  0  0
    3.4366  -19.5739   27.5495 N   0  0  0  0  0  0  0  0  0  0  0  0
    0.4264  -20.2709   27.0726 N   0  0  0  0  0  0  0  0  0  0  0  0
   -0.6734  -20.7212   26.4359 C   0  0  0  0  0  0  0  0  0  0  0  0
   -0.3162  -21.1950   25.2256 N   0  0  0  0  0  0  0  0  0  0  0  0
  1  7  2  0  0  0  0
  1  2  1  0  0  0  0
  2  3  1  0  0  0  0
  2  4  2  0  0  0  0
  4  5  1  0  0  0  0
  5  6  2  0  0  0  0
  5 11  1  0  0  0  0
  6  7  1  0  0  0  0
  6  9  1  0  0  0  0
  7  8  1  0  0  0  0
  9 10  1  0  0  0  0
 10 11  2  0  0  0  0
M  END
>  <CHROM.1>
1.97366270,-20.70735962,25.51273680,-0.52740734,0.14479930,1.15638238

>  <Name>
ligand

>  <RI>
0

>  <Rbt.Current_Directory>
/home/itssahil/PROJECTS/Mol_Feturizer/New_Systems/rnas/4LVZ

>  <Rbt.Executable>
rbdock ($Id: //depot/dev/client3/rdock/2013.1/src/exe/rbdock.cxx#4 $)

>  <Rbt.Library>
libRbt.so (2013.1, Build901 2013/11/27)

>  <Rbt.Parameter_File>
/export/apps/rDock/src/rDock_2013.1_src/data/scripts/dock_solv.prm

>  <Rbt.Receptor>
prm/pocket_docking_3.prm

>  <SCORE>
-9.43408

>  <SCORE.INTER>
-9.43408

>  <SCORE.INTER.CONST>
1

>  <SCORE.INTER.POLAR>
0

>  <SCORE.INTER.ROT>
0

>  <SCORE.INTER.SOLV>
12.6909

>  <SCORE.INTER.VDW>
-14.1197

>  <SCORE.INTER.norm>
-0.857644

>  <SCORE.INTRA>
0

>  <SCORE.INTRA.DIHEDRAL>
0

>  <SCORE.INTRA.DIHEDRAL.0>
0

>  <SCORE.INTRA.POLAR>
0

>  <SCORE.INTRA.POLAR.0>
0

>  <SCORE.INTRA.REPUL>
0

>  <SCORE.INTRA.REPUL.0>
0

>  <SCORE.INTRA.SOLV>
0

>  <SCORE.INTRA.SOLV.lig_0>
-49.4056

>  <SCORE.INTRA.VDW>
0

>  <SCORE.INTRA.VDW.0>
0

>  <SCORE.INTRA.norm>
0

>  <SCORE.RESTR>
0

>  <SCORE.RESTR.CAVITY>
0

>  <SCORE.RESTR.norm>
0

>  <SCORE.SYSTEM>
0

>  <SCORE.SYSTEM.CONST>
0

>  <SCORE.SYSTEM.DIHEDRAL>
0

>  <SCORE.SYSTEM.SOLV>
0

>  <SCORE.SYSTEM.norm>
0

>  <SCORE.heavy>
11

>  <SCORE.norm>
-0.857644

>  <RMSD>
2.835

$$$$
ligand
 OpenBabel11021811503D
libRbt.so/2013.1/901 2013/11/27
 11 12  0  0  0  0  0  0  0  0999 V2000
    3.7120  -20.4412   25.3103 N   0  0  0  0  0  0  0  0  0  0  0  0
    3.2027  -20.9747   24.1725 C   0  0  0  0  0  0  0  0  0  0  0  0
    4.0538  -21.2832   23.0624 N   0  0  0  0  0  0  0  0  0  0  0  0
    1.8855  -21.2210   24.0578 N   0  0  0  0  0  0  0  0  0  0  0  0
    1.0153  -20.9471   25.0890 C   0  0  0  0  0  0  0  0  0  0  0  0
    1.5069  -20.4001   26.2600 C   0  0  0  0  0  0  0  0  0  0  0  0
    2.9073  -20.1432   26.3537 C   0  0  0  0  0  0  0  0  0  0  0  0
    3.4495  -19.5758   27.5504 N   0  0  0  0  0  0  0  0  0  0  0  0
    0.4253  -20.2305   27.1033 N   0  0  0  0  0  0  0  0  0  0  0  0
   -0.6892  -20.6512   26.4718 C   0  0  0  0  0  0  0  0  0  0  0  0
   -0.3567  -21.0912   25.2419 N   0  0  0  0  0  0  0  0  0  0  0  0
  1  7  2  0  0  0  0
  1  2  1  0  0  0  0
  2  3  1  0  0  0  0
  2  4  2  0  0  0  0
  4  5  1  0  0  0  0
  5  6  2  0  0  0  0
  5 11  1  0  0  0  0
  6  7  1  0  0  0  0
  6  9  1  0  0  0  0
  7  8  1  0  0  0  0
  9 10  1  0  0  0  0
 10 11  2  0  0  0  0
M  END
>  <CHROM.1>
1.94220136,-20.63328300,25.50509134,-0.54662097,0.14265771,1.18953555

>  <Name>
ligand

>  <RI>
0

>  <Rbt.Current_Directory>
/home/itssahil/PROJECTS/Mol_Feturizer/New_Systems/rnas/4LVZ

>  <Rbt.Executable>
rbdock ($Id: //depot/dev/client3/rdock/2013.1/src/exe/rbdock.cxx#4 $)

>  <Rbt.Library>
libRbt.so (2013.1, Build901 2013/11/27)

>  <Rbt.Parameter_File>
/export/apps/rDock/src/rDock_2013.1_src/data/scripts/dock_solv.prm

>  <Rbt.Receptor>
prm/pocket_docking_3.prm

>  <SCORE>
-9.4674

>  <SCORE.INTER>
-9.4674

>  <SCORE.INTER.CONST>
1

>  <SCORE.INTER.POLAR>
0

>  <SCORE.INTER.ROT>
0

>  <SCORE.INTER.SOLV>
12.8581

>  <SCORE.INTER.VDW>
-14.1976

>  <SCORE.INTER.norm>
-0.860673

>  <SCORE.INTRA>
0

>  <SCORE.INTRA.DIHEDRAL>
0

>  <SCORE.INTRA.DIHEDRAL.0>
0

>  <SCORE.INTRA.POLAR>
0

>  <SCORE.INTRA.POLAR.0>
0

>  <SCORE.INTRA.REPUL>
0

>  <SCORE.INTRA.REPUL.0>
0

>  <SCORE.INTRA.SOLV>
0

>  <SCORE.INTRA.SOLV.lig_0>
-49.4056

>  <SCORE.INTRA.VDW>
0

>  <SCORE.INTRA.VDW.0>
0

>  <SCORE.INTRA.norm>
0

>  <SCORE.RESTR>
0

>  <SCORE.RESTR.CAVITY>
0

>  <SCORE.RESTR.norm>
0

>  <SCORE.SYSTEM>
0

>  <SCORE.SYSTEM.CONST>
0

>  <SCORE.SYSTEM.DIHEDRAL>
0

>  <SCORE.SYSTEM.SOLV>
0

>  <SCORE.SYSTEM.norm>
0

>  <SCORE.heavy>
11

>  <SCORE.norm>
-0.860673

>  <RMSD>
2.835

$$$$
ligand
 OpenBabel11021811503D
libRbt.so/2013.1/901 2013/11/27
 11 12  0  0  0  0  0  0  0  0999 V2000
    3.7165  -20.4665   25.3288 N   0  0  0  0  0  0  0  0  0  0  0  0
    3.2260  -21.0121   24.1885 C   0  0  0  0  0  0  0  0  0  0  0  0
    4.0934  -21.3200   23.0909 N   0  0  0  0  0  0  0  0  0  0  0  0
    1.9126  -21.2713   24.0594 N   0  0  0  0  0  0  0  0  0  0  0  0
    1.0274  -20.9987   25.0781 C   0  0  0  0  0  0  0  0  0  0  0  0
    1.4997  -20.4395   26.2514 C   0  0  0  0  0  0  0  0  0  0  0  0
    2.8965  -20.1692   26.3604 C   0  0  0  0  0  0  0  0  0  0  0  0
    3.4189  -19.5889   27.5597 N   0  0  0  0  0  0  0  0  0  0  0  0
    0.4064  -20.2743   27.0804 N   0  0  0  0  0  0  0  0  0  0  0  0
   -0.6964  -20.7094   26.4382 C   0  0  0  0  0  0  0  0  0  0  0  0
   -0.3449  -21.1544   25.2154 N   0  0  0  0  0  0  0  0  0  0  0  0
  1  7  2  0  0  0  0
  1  2  1  0  0  0  0
  2  3  1  0  0  0  0
  2  4  2  0  0  0  0
  4  5  1  0  0  0  0
  5  6  2  0  0  0  0
  5 11  1  0  0  0  0
  6  7  1  0  0  0  0
  6  9  1  0  0  0  0
  7  8  1  0  0  0  0
  9 10  1  0  0  0  0
 10 11  2  0  0  0  0
M  END
>  <CHROM.1>
1.94630892,-20.67361815,25.50337618,-0.53175249,0.14658602,1.18078430

>  <Name>
ligand

>  <RI>
0

>  <Rbt.Current_Directory>
/home/itssahil/PROJECTS/Mol_Feturizer/New_Systems/rnas/4LVZ

>  <Rbt.Executable>
rbdock ($Id: //depot/dev/client3/rdock/2013.1/src/exe/rbdock.cxx#4 $)

>  <Rbt.Library>
libRbt.so (2013.1, Build901 2013/11/27)

>  <Rbt.Parameter_File>
/export/apps/rDock/src/rDock_2013.1_src/data/scripts/dock_solv.prm

>  <Rbt.Receptor>
prm/pocket_docking_3.prm

>  <SCORE>
-9.52894

>  <SCORE.INTER>
-9.52894

>  <SCORE.INTER.CONST>
1

>  <SCORE.INTER.POLAR>
0

>  <SCORE.INTER.ROT>
0

>  <SCORE.INTER.SOLV>
12.772

>  <SCORE.INTER.VDW>
-14.21

>  <SCORE.INTER.norm>
-0.866267

>  <SCORE.INTRA>
0

>  <SCORE.INTRA.DIHEDRAL>
0

>  <SCORE.INTRA.DIHEDRAL.0>
0

>  <SCORE.INTRA.POLAR>
0

>  <SCORE.INTRA.POLAR.0>
0

>  <SCORE.INTRA.REPUL>
0

>  <SCORE.INTRA.REPUL.0>
0

>  <SCORE.INTRA.SOLV>
0

>  <SCORE.INTRA.SOLV.lig_0>
-49.4056

>  <SCORE.INTRA.VDW>
0

>  <SCORE.INTRA.VDW.0>
0

>  <SCORE.INTRA.norm>
0

>  <SCORE.RESTR>
0

>  <SCORE.RESTR.CAVITY>
0

>  <SCORE.RESTR.norm>
0

>  <SCORE.SYSTEM>
0

>  <SCORE.SYSTEM.CONST>
0

>  <SCORE.SYSTEM.DIHEDRAL>
0

>  <SCORE.SYSTEM.SOLV>
0

>  <SCORE.SYSTEM.norm>
0

>  <SCORE.heavy>
11

>  <SCORE.norm>
-0.866267

>  <RMSD>
2.835

$$$$
ligand
 OpenBabel11021811503D
libRbt.so/2013.1/901 2013/11/27
 11 12  0  0  0  0  0  0  0  0999 V2000
    3.7098  -20.4524   25.3026 N   0  0  0  0  0  0  0  0  0  0  0  0
    3.2185  -21.0270   24.1770 C   0  0  0  0  0  0  0  0  0  0  0  0
    4.0771  -21.3192   23.0682 N   0  0  0  0  0  0  0  0  0  0  0  0
    1.9124  -21.3304   24.0733 N   0  0  0  0  0  0  0  0  0  0  0  0
    1.0359  -21.0750   25.1039 C   0  0  0  0  0  0  0  0  0  0  0  0
    1.5091  -20.4870   26.2626 C   0  0  0  0  0  0  0  0  0  0  0  0
    2.8978  -20.1700   26.3447 C   0  0  0  0  0  0  0  0  0  0  0  0
    3.4208  -19.5590   27.5284 N   0  0  0  0  0  0  0  0  0  0  0  0
    0.4249  -20.3480   27.1082 N   0  0  0  0  0  0  0  0  0  0  0  0
   -0.6736  -20.8263   26.4899 C   0  0  0  0  0  0  0  0  0  0  0  0
   -0.3282  -21.2738   25.2662 N   0  0  0  0  0  0  0  0  0  0  0  0
  1  7  2  0  0  0  0
  1  2  1  0  0  0  0
  2  3  1  0  0  0  0
  2  4  2  0  0  0  0
  4  5  1  0  0  0  0
  5  6  2  0  0  0  0
  5 11  1  0  0  0  0
  6  7  1  0  0  0  0
  6  9  1  0  0  0  0
  7  8  1  0  0  0  0
  9 10  1  0  0  0  0
 10 11  2  0  0  0  0
M  END
>  <CHROM.1>
1.95053696,-20.71514820,25.50973228,-0.53475835,0.18332220,1.16989433

>  <Name>
ligand

>  <RI>
0

>  <Rbt.Current_Directory>
/home/itssahil/PROJECTS/Mol_Feturizer/New_Systems/rnas/4LVZ

>  <Rbt.Executable>
rbdock ($Id: //depot/dev/client3/rdock/2013.1/src/exe/rbdock.cxx#4 $)

>  <Rbt.Library>
libRbt.so (2013.1, Build901 2013/11/27)

>  <Rbt.Parameter_File>
/export/apps/rDock/src/rDock_2013.1_src/data/scripts/dock_solv.prm

>  <Rbt.Receptor>
prm/pocket_docking_4.prm

>  <SCORE>
-9.44935

>  <SCORE.INTER>
-9.44935

>  <SCORE.INTER.CONST>
1

>  <SCORE.INTER.POLAR>
0

>  <SCORE.INTER.ROT>
0

>  <SCORE.INTER.SOLV>
12.7991

>  <SCORE.INTER.VDW>
-14.1659

>  <SCORE.INTER.norm>
-0.859032

>  <SCORE.INTRA>
0

>  <SCORE.INTRA.DIHEDRAL>
0

>  <SCORE.INTRA.DIHEDRAL.0>
0

>  <SCORE.INTRA.POLAR>
0

>  <SCORE.INTRA.POLAR.0>
0

>  <SCORE.INTRA.REPUL>
0

>  <SCORE.INTRA.REPUL.0>
0

>  <SCORE.INTRA.SOLV>
0

>  <SCORE.INTRA.SOLV.lig_0>
-49.4056

>  <SCORE.INTRA.VDW>
0

>  <SCORE.INTRA.VDW.0>
0

>  <SCORE.INTRA.norm>
0

>  <SCORE.RESTR>
0

>  <SCORE.RESTR.CAVITY>
0

>  <SCORE.RESTR.norm>
0

>  <SCORE.SYSTEM>
0

>  <SCORE.SYSTEM.CONST>
0

>  <SCORE.SYSTEM.DIHEDRAL>
0

>  <SCORE.SYSTEM.SOLV>
0

>  <SCORE.SYSTEM.norm>
0

>  <SCORE.heavy>
11

>  <SCORE.norm>
-0.859032

>  <RMSD>
2.835

$$$$
ligand
 OpenBabel11021811503D
libRbt.so/2013.1/901 2013/11/27
 11 12  0  0  0  0  0  0  0  0999 V2000
    3.7323  -20.3350   25.2014 N   0  0  0  0  0  0  0  0  0  0  0  0
    3.1713  -20.7684   24.0455 C   0  0  0  0  0  0  0  0  0  0  0  0
    3.9607  -20.9227   22.8602 N   0  0  0  0  0  0  0  0  0  0  0  0
    1.8594  -21.0578   23.9837 N   0  0  0  0  0  0  0  0  0  0  0  0
    1.0472  -20.9306   25.0882 C   0  0  0  0  0  0  0  0  0  0  0  0
    1.5922  -20.4879   26.2796 C   0  0  0  0  0  0  0  0  0  0  0  0
    2.9854  -20.1823   26.3167 C   0  0  0  0  0  0  0  0  0  0  0  0
    3.5817  -19.7199   27.5326 N   0  0  0  0  0  0  0  0  0  0  0  0
    0.5610  -20.4538   27.1990 N   0  0  0  0  0  0  0  0  0  0  0  0
   -0.5753  -20.8539   26.5936 C   0  0  0  0  0  0  0  0  0  0  0  0
   -0.3061  -21.1486   25.3062 N   0  0  0  0  0  0  0  0  0  0  0  0
  1  7  2  0  0  0  0
  1  2  1  0  0  0  0
  2  3  1  0  0  0  0
  2  4  2  0  0  0  0
  4  5  1  0  0  0  0
  5  6  2  0  0  0  0
  5 11  1  0  0  0  0
  6  7  1  0  0  0  0
  6  9  1  0  0  0  0
  7  8  1  0  0  0  0
  9 10  1  0  0  0  0
 10 11  2  0  0  0  0
M  END
>  <CHROM.1>
1.98671094,-20.62228156,25.47950680,-0.59311519,0.20008805,1.30325813

>  <Name>
ligand

>  <RI>
0

>  <Rbt.Current_Directory>
/home/itssahil/PROJECTS/Mol_Feturizer/New_Systems/rnas/4LVZ

>  <Rbt.Executable>
rbdock ($Id: //depot/dev/client3/rdock/2013.1/src/exe/rbdock.cxx#4 $)

>  <Rbt.Library>
libRbt.so (2013.1, Build901 2013/11/27)

>  <Rbt.Parameter_File>
/export/apps/rDock/src/rDock_2013.1_src/data/scripts/dock_solv.prm

>  <Rbt.Receptor>
prm/pocket_docking_4.prm

>  <SCORE>
-9.43245

>  <SCORE.INTER>
-9.43245

>  <SCORE.INTER.CONST>
1

>  <SCORE.INTER.POLAR>
0

>  <SCORE.INTER.ROT>
0

>  <SCORE.INTER.SOLV>
12.0904

>  <SCORE.INTER.VDW>
-13.9184

>  <SCORE.INTER.norm>
-0.857495

>  <SCORE.INTRA>
0

>  <SCORE.INTRA.DIHEDRAL>
0

>  <SCORE.INTRA.DIHEDRAL.0>
0

>  <SCORE.INTRA.POLAR>
0

>  <SCORE.INTRA.POLAR.0>
0

>  <SCORE.INTRA.REPUL>
0

>  <SCORE.INTRA.REPUL.0>
0

>  <SCORE.INTRA.SOLV>
0

>  <SCORE.INTRA.SOLV.lig_0>
-49.4056

>  <SCORE.INTRA.VDW>
0

>  <SCORE.INTRA.VDW.0>
0

>  <SCORE.INTRA.norm>
0

>  <SCORE.RESTR>
0

>  <SCORE.RESTR.CAVITY>
0

>  <SCORE.RESTR.norm>
0

>  <SCORE.SYSTEM>
0

>  <SCORE.SYSTEM.CONST>
0

>  <SCORE.SYSTEM.DIHEDRAL>
0

>  <SCORE.SYSTEM.SOLV>
0

>  <SCORE.SYSTEM.norm>
0

>  <SCORE.heavy>
11

>  <SCORE.norm>
-0.857495

>  <RMSD>
2.835

$$$$
ligand
 OpenBabel11021811503D
libRbt.so/2013.1/901 2013/11/27
 11 12  0  0  0  0  0  0  0  0999 V2000
    3.7082  -20.4308   25.3074 N   0  0  0  0  0  0  0  0  0  0  0  0
    3.2065  -20.9719   24.1698 C   0  0  0  0  0  0  0  0  0  0  0  0
    4.0635  -21.2779   23.0635 N   0  0  0  0  0  0  0  0  0  0  0  0
    1.8916  -21.2284   24.0517 N   0  0  0  0  0  0  0  0  0  0  0  0
    1.0161  -20.9576   25.0793 C   0  0  0  0  0  0  0  0  0  0  0  0
    1.4999  -20.4030   26.2500 C   0  0  0  0  0  0  0  0  0  0  0  0
    2.8980  -20.1354   26.3473 C   0  0  0  0  0  0  0  0  0  0  0  0
    3.4322  -19.5599   27.5437 N   0  0  0  0  0  0  0  0  0  0  0  0
    0.4143  -20.2386   27.0893 N   0  0  0  0  0  0  0  0  0  0  0  0
   -0.6949  -20.6697   26.4557 C   0  0  0  0  0  0  0  0  0  0  0  0
   -0.3553  -21.1114   25.2283 N   0  0  0  0  0  0  0  0  0  0  0  0
  1  7  2  0  0  0  0
  1  2  1  0  0  0  0
  2  3  1  0  0  0  0
  2  4  2  0  0  0  0
  4  5  1  0  0  0  0
  5  6  2  0  0  0  0
  5 11  1  0  0  0  0
  6  7  1  0  0  0  0
  6  9  1  0  0  0  0
  7  8  1  0  0  0  0
  9 10  1  0  0  0  0
 10 11  2  0  0  0  0
M  END
>  <CHROM.1>
1.93931466,-20.63548935,25.49723795,-0.54082140,0.14838173,1.18531400

>  <Name>
ligand

>  <RI>
0

>  <Rbt.Current_Directory>
/home/itssahil/PROJECTS/Mol_Feturizer/New_Systems/rnas/4LVZ

>  <Rbt.Executable>
rbdock ($Id: //depot/dev/client3/rdock/2013.1/src/exe/rbdock.cxx#4 $)

>  <Rbt.Library>
libRbt.so (2013.1, Build901 2013/11/27)

>  <Rbt.Parameter_File>
/export/apps/rDock/src/rDock_2013.1_src/data/scripts/dock_solv.prm

>  <Rbt.Receptor>
prm/pocket_docking_5.prm

>  <SCORE>
-9.43727

>  <SCORE.INTER>
-9.43727

>  <SCORE.INTER.CONST>
1

>  <SCORE.INTER.POLAR>
0

>  <SCORE.INTER.ROT>
0

>  <SCORE.INTER.SOLV>
12.8829

>  <SCORE.INTER.VDW>
-14.1858

>  <SCORE.INTER.norm>
-0.857934

>  <SCORE.INTRA>
0

>  <SCORE.INTRA.DIHEDRAL>
0

>  <SCORE.INTRA.DIHEDRAL.0>
0

>  <SCORE.INTRA.POLAR>
0

>  <SCORE.INTRA.POLAR.0>
0

>  <SCORE.INTRA.REPUL>
0

>  <SCORE.INTRA.REPUL.0>
0

>  <SCORE.INTRA.SOLV>
0

>  <SCORE.INTRA.SOLV.lig_0>
-49.4056

>  <SCORE.INTRA.VDW>
0

>  <SCORE.INTRA.VDW.0>
0

>  <SCORE.INTRA.norm>
0

>  <SCORE.RESTR>
0

>  <SCORE.RESTR.CAVITY>
0

>  <SCORE.RESTR.norm>
0

>  <SCORE.SYSTEM>
0

>  <SCORE.SYSTEM.CONST>
0

>  <SCORE.SYSTEM.DIHEDRAL>
0

>  <SCORE.SYSTEM.SOLV>
0

>  <SCORE.SYSTEM.norm>
0

>  <SCORE.heavy>
11

>  <SCORE.norm>
-0.857934

>  <RMSD>
2.835

$$$$
ligand
 OpenBabel11021811503D
libRbt.so/2013.1/901 2013/11/27
 11 12  0  0  0  0  0  0  0  0999 V2000
    3.7161  -20.4532   25.3205 N   0  0  0  0  0  0  0  0  0  0  0  0
    3.2176  -21.0143   24.1913 C   0  0  0  0  0  0  0  0  0  0  0  0
    4.0785  -21.3454   23.0954 N   0  0  0  0  0  0  0  0  0  0  0  0
    1.9021  -21.2675   24.0718 N   0  0  0  0  0  0  0  0  0  0  0  0
    1.0228  -20.9730   25.0895 C   0  0  0  0  0  0  0  0  0  0  0  0
    1.5033  -20.3976   26.2515 C   0  0  0  0  0  0  0  0  0  0  0  0
    2.9021  -20.1341   26.3505 C   0  0  0  0  0  0  0  0  0  0  0  0
    3.4330  -19.5376   27.5380 N   0  0  0  0  0  0  0  0  0  0  0  0
    0.4144  -20.2123   27.0821 N   0  0  0  0  0  0  0  0  0  0  0  0
   -0.6936  -20.6510   26.4516 C   0  0  0  0  0  0  0  0  0  0  0  0
   -0.3499  -21.1180   25.2347 N   0  0  0  0  0  0  0  0  0  0  0  0
  1  7  2  0  0  0  0
  1  2  1  0  0  0  0
  2  3  1  0  0  0  0
  2  4  2  0  0  0  0
  4  5  1  0  0  0  0
  5  6  2  0  0  0  0
  5 11  1  0  0  0  0
  6  7  1  0  0  0  0
  6  9  1  0  0  0  0
  7  8  1  0  0  0  0
  9 10  1  0  0  0  0
 10 11  2  0  0  0  0
M  END
>  <CHROM.1>
1.94539736,-20.64664147,25.50562684,-0.53793122,0.14254594,1.16535938

>  <Name>
ligand

>  <RI>
0

>  <Rbt.Current_Directory>
/home/itssahil/PROJECTS/Mol_Feturizer/New_Systems/rnas/4LVZ

>  <Rbt.Executable>
rbdock ($Id: //depot/dev/client3/rdock/2013.1/src/exe/rbdock.cxx#4 $)

>  <Rbt.Library>
libRbt.so (2013.1, Build901 2013/11/27)

>  <Rbt.Parameter_File>
/export/apps/rDock/src/rDock_2013.1_src/data/scripts/dock_solv.prm

>  <Rbt.Receptor>
prm/pocket_docking_6.prm

>  <SCORE>
-9.46276

>  <SCORE.INTER>
-9.46276

>  <SCORE.INTER.CONST>
1

>  <SCORE.INTER.POLAR>
0

>  <SCORE.INTER.ROT>
0

>  <SCORE.INTER.SOLV>
12.9268

>  <SCORE.INTER.VDW>
-14.2174

>  <SCORE.INTER.norm>
-0.860251

>  <SCORE.INTRA>
0

>  <SCORE.INTRA.DIHEDRAL>
0

>  <SCORE.INTRA.DIHEDRAL.0>
0

>  <SCORE.INTRA.POLAR>
0

>  <SCORE.INTRA.POLAR.0>
0

>  <SCORE.INTRA.REPUL>
0

>  <SCORE.INTRA.REPUL.0>
0

>  <SCORE.INTRA.SOLV>
0

>  <SCORE.INTRA.SOLV.lig_0>
-49.4056

>  <SCORE.INTRA.VDW>
0

>  <SCORE.INTRA.VDW.0>
0

>  <SCORE.INTRA.norm>
0

>  <SCORE.RESTR>
0

>  <SCORE.RESTR.CAVITY>
0

>  <SCORE.RESTR.norm>
0

>  <SCORE.SYSTEM>
0

>  <SCORE.SYSTEM.CONST>
0

>  <SCORE.SYSTEM.DIHEDRAL>
0

>  <SCORE.SYSTEM.SOLV>
0

>  <SCORE.SYSTEM.norm>
0

>  <SCORE.heavy>
11

>  <SCORE.norm>
-0.860251

>  <RMSD>
2.835

$$$$
ligand
 OpenBabel11021811503D
libRbt.so/2013.1/901 2013/11/27
 11 12  0  0  0  0  0  0  0  0999 V2000
    3.7229  -20.4730   25.3272 N   0  0  0  0  0  0  0  0  0  0  0  0
    3.2118  -21.0251   24.1990 C   0  0  0  0  0  0  0  0  0  0  0  0
    4.0632  -21.3643   23.0981 N   0  0  0  0  0  0  0  0  0  0  0  0
    1.8927  -21.2615   24.0854 N   0  0  0  0  0  0  0  0  0  0  0  0
    1.0222  -20.9585   25.1082 C   0  0  0  0  0  0  0  0  0  0  0  0
    1.5156  -20.3920   26.2692 C   0  0  0  0  0  0  0  0  0  0  0  0
    2.9181  -20.1463   26.3618 C   0  0  0  0  0  0  0  0  0  0  0  0
    3.4622  -19.5593   27.5482 N   0  0  0  0  0  0  0  0  0  0  0  0
    0.4333  -20.1951   27.1056 N   0  0  0  0  0  0  0  0  0  0  0  0
   -0.6833  -20.6184   26.4796 C   0  0  0  0  0  0  0  0  0  0  0  0
   -0.3514  -21.0867   25.2599 N   0  0  0  0  0  0  0  0  0  0  0  0
  1  7  2  0  0  0  0
  1  2  1  0  0  0  0
  2  3  1  0  0  0  0
  2  4  2  0  0  0  0
  4  5  1  0  0  0  0
  5  6  2  0  0  0  0
  5 11  1  0  0  0  0
  6  7  1  0  0  0  0
  6  9  1  0  0  0  0
  7  8  1  0  0  0  0
  9 10  1  0  0  0  0
 10 11  2  0  0  0  0
M  END
>  <CHROM.1>
1.95087843,-20.64473514,25.52054843,-0.54748329,0.13297448,1.16909236

>  <Name>
ligand

>  <RI>
0

>  <Rbt.Current_Directory>
/home/itssahil/PROJECTS/Mol_Feturizer/New_Systems/rnas/4LVZ

>  <Rbt.Executable>
rbdock ($Id: //depot/dev/client3/rdock/2013.1/src/exe/rbdock.cxx#4 $)

>  <Rbt.Library>
libRbt.so (2013.1, Build901 2013/11/27)

>  <Rbt.Parameter_File>
/export/apps/rDock/src/rDock_2013.1_src/data/scripts/dock_solv.prm

>  <Rbt.Receptor>
prm/pocket_docking_6.prm

>  <SCORE>
-9.47908

>  <SCORE.INTER>
-9.47908

>  <SCORE.INTER.CONST>
1

>  <SCORE.INTER.POLAR>
0

>  <SCORE.INTER.ROT>
0

>  <SCORE.INTER.SOLV>
12.9137

>  <SCORE.INTER.VDW>
-14.224

>  <SCORE.INTER.norm>
-0.861735

>  <SCORE.INTRA>
0

>  <SCORE.INTRA.DIHEDRAL>
0

>  <SCORE.INTRA.DIHEDRAL.0>
0

>  <SCORE.INTRA.POLAR>
0

>  <SCORE.INTRA.POLAR.0>
0

>  <SCORE.INTRA.REPUL>
0

>  <SCORE.INTRA.REPUL.0>
0

>  <SCORE.INTRA.SOLV>
0

>  <SCORE.INTRA.SOLV.lig_0>
-49.4056

>  <SCORE.INTRA.VDW>
0

>  <SCORE.INTRA.VDW.0>
0

>  <SCORE.INTRA.norm>
0

>  <SCORE.RESTR>
0

>  <SCORE.RESTR.CAVITY>
0

>  <SCORE.RESTR.norm>
0

>  <SCORE.SYSTEM>
0

>  <SCORE.SYSTEM.CONST>
0

>  <SCORE.SYSTEM.DIHEDRAL>
0

>  <SCORE.SYSTEM.SOLV>
0

>  <SCORE.SYSTEM.norm>
0

>  <SCORE.heavy>
11

>  <SCORE.norm>
-0.861735

>  <RMSD>
2.835

$$$$
ligand
 OpenBabel11021811503D
libRbt.so/2013.1/901 2013/11/27
 11 12  0  0  0  0  0  0  0  0999 V2000
    3.7127  -20.4545   25.3234 N   0  0  0  0  0  0  0  0  0  0  0  0
    3.2242  -21.0111   24.1876 C   0  0  0  0  0  0  0  0  0  0  0  0
    4.0926  -21.3242   23.0923 N   0  0  0  0  0  0  0  0  0  0  0  0
    1.9118  -21.2767   24.0609 N   0  0  0  0  0  0  0  0  0  0  0  0
    1.0258  -20.9997   25.0776 C   0  0  0  0  0  0  0  0  0  0  0  0
    1.4960  -20.4293   26.2463 C   0  0  0  0  0  0  0  0  0  0  0  0
    2.8916  -20.1524   26.3528 C   0  0  0  0  0  0  0  0  0  0  0  0
    3.4119  -19.5605   27.5474 N   0  0  0  0  0  0  0  0  0  0  0  0
    0.4021  -20.2620   27.0742 N   0  0  0  0  0  0  0  0  0  0  0  0
   -0.6990  -20.7067   26.4357 C   0  0  0  0  0  0  0  0  0  0  0  0
   -0.3459  -21.1599   25.2164 N   0  0  0  0  0  0  0  0  0  0  0  0
  1  7  2  0  0  0  0
  1  2  1  0  0  0  0
  2  3  1  0  0  0  0
  2  4  2  0  0  0  0
  4  5  1  0  0  0  0
  5  6  2  0  0  0  0
  5 11  1  0  0  0  0
  6  7  1  0  0  0  0
  6  9  1  0  0  0  0
  7  8  1  0  0  0  0
  9 10  1  0  0  0  0
 10 11  2  0  0  0  0
M  END
>  <CHROM.1>
1.94338906,-20.66749412,25.50005369,-0.53035007,0.15044012,1.17265666

>  <Name>
ligand

>  <RI>
0

>  <Rbt.Current_Directory>
/home/itssahil/PROJECTS/Mol_Feturizer/New_Systems/rnas/4LVZ

>  <Rbt.Executable>
rbdock ($Id: //depot/dev/client3/rdock/2013.1/src/exe/rbdock.cxx#4 $)

>  <Rbt.Library>
libRbt.so (2013.1, Build901 2013/11/27)

>  <Rbt.Parameter_File>
/export/apps/rDock/src/rDock_2013.1_src/data/scripts/dock_solv.prm

>  <Rbt.Receptor>
prm/pocket_docking_8.prm

>  <SCORE>
-9.52166

>  <SCORE.INTER>
-9.52166

>  <SCORE.INTER.CONST>
1

>  <SCORE.INTER.POLAR>
0

>  <SCORE.INTER.ROT>
0

>  <SCORE.INTER.SOLV>
12.8444

>  <SCORE.INTER.VDW>
-14.2292

>  <SCORE.INTER.norm>
-0.865605

>  <SCORE.INTRA>
0

>  <SCORE.INTRA.DIHEDRAL>
0

>  <SCORE.INTRA.DIHEDRAL.0>
0

>  <SCORE.INTRA.POLAR>
0

>  <SCORE.INTRA.POLAR.0>
0

>  <SCORE.INTRA.REPUL>
0

>  <SCORE.INTRA.REPUL.0>
0

>  <SCORE.INTRA.SOLV>
0

>  <SCORE.INTRA.SOLV.lig_0>
-49.4056

>  <SCORE.INTRA.VDW>
0

>  <SCORE.INTRA.VDW.0>
0

>  <SCORE.INTRA.norm>
0

>  <SCORE.RESTR>
0

>  <SCORE.RESTR.CAVITY>
0

>  <SCORE.RESTR.norm>
0

>  <SCORE.SYSTEM>
0

>  <SCORE.SYSTEM.CONST>
0

>  <SCORE.SYSTEM.DIHEDRAL>
0

>  <SCORE.SYSTEM.SOLV>
0

>  <SCORE.SYSTEM.norm>
0

>  <SCORE.heavy>
11

>  <SCORE.norm>
-0.865605

>  <RMSD>
2.835

$$$$
ligand
 OpenBabel11021811503D
libRbt.so/2013.1/901 2013/11/27
 11 12  0  0  0  0  0  0  0  0999 V2000
    3.7780  -20.4589   25.3054 N   0  0  0  0  0  0  0  0  0  0  0  0
    3.2913  -21.0276   24.1749 C   0  0  0  0  0  0  0  0  0  0  0  0
    4.1597  -21.3422   23.0799 N   0  0  0  0  0  0  0  0  0  0  0  0
    1.9808  -21.3041   24.0530 N   0  0  0  0  0  0  0  0  0  0  0  0
    1.0948  -21.0263   25.0697 C   0  0  0  0  0  0  0  0  0  0  0  0
    1.5632  -20.4436   26.2331 C   0  0  0  0  0  0  0  0  0  0  0  0
    2.9570  -20.1553   26.3344 C   0  0  0  0  0  0  0  0  0  0  0  0
    3.4752  -19.5506   27.5234 N   0  0  0  0  0  0  0  0  0  0  0  0
    0.4699  -20.2786   27.0621 N   0  0  0  0  0  0  0  0  0  0  0  0
   -0.6291  -20.7363   26.4295 C   0  0  0  0  0  0  0  0  0  0  0  0
   -0.2753  -21.1959   25.2127 N   0  0  0  0  0  0  0  0  0  0  0  0
  1  7  2  0  0  0  0
  1  2  1  0  0  0  0
  2  3  1  0  0  0  0
  2  4  2  0  0  0  0
  4  5  1  0  0  0  0
  5  6  2  0  0  0  0
  5 11  1  0  0  0  0
  6  7  1  0  0  0  0
  6  9  1  0  0  0  0
  7  8  1  0  0  0  0
  9 10  1  0  0  0  0
 10 11  2  0  0  0  0
M  END
>  <CHROM.1>
2.01078980,-20.68397377,25.48759613,-0.52939445,0.15831828,1.16508923

>  <Name>
ligand

>  <RI>
0

>  <Rbt.Current_Directory>
/home/itssahil/PROJECTS/Mol_Feturizer/New_Systems/rnas/4LVZ

>  <Rbt.Executable>
rbdock ($Id: //depot/dev/client3/rdock/2013.1/src/exe/rbdock.cxx#4 $)

>  <Rbt.Library>
libRbt.so (2013.1, Build901 2013/11/27)

>  <Rbt.Parameter_File>
/export/apps/rDock/src/rDock_2013.1_src/data/scripts/dock_solv.prm

>  <Rbt.Receptor>
prm/pocket_docking_3.prm

>  <SCORE>
-9.4261

>  <SCORE.INTER>
-9.4261

>  <SCORE.INTER.CONST>
1

>  <SCORE.INTER.POLAR>
0

>  <SCORE.INTER.ROT>
0

>  <SCORE.INTER.SOLV>
12.3265

>  <SCORE.INTER.VDW>
-13.9929

>  <SCORE.INTER.norm>
-0.856918

>  <SCORE.INTRA>
0

>  <SCORE.INTRA.DIHEDRAL>
0

>  <SCORE.INTRA.DIHEDRAL.0>
0

>  <SCORE.INTRA.POLAR>
0

>  <SCORE.INTRA.POLAR.0>
0

>  <SCORE.INTRA.REPUL>
0

>  <SCORE.INTRA.REPUL.0>
0

>  <SCORE.INTRA.SOLV>
0

>  <SCORE.INTRA.SOLV.lig_0>
-49.4056

>  <SCORE.INTRA.VDW>
0

>  <SCORE.INTRA.VDW.0>
0

>  <SCORE.INTRA.norm>
0

>  <SCORE.RESTR>
0

>  <SCORE.RESTR.CAVITY>
0

>  <SCORE.RESTR.norm>
0

>  <SCORE.SYSTEM>
0

>  <SCORE.SYSTEM.CONST>
0

>  <SCORE.SYSTEM.DIHEDRAL>
0

>  <SCORE.SYSTEM.SOLV>
0

>  <SCORE.SYSTEM.norm>
0

>  <SCORE.heavy>
11

>  <SCORE.norm>
-0.856918

>  <RMSD>
2.836

$$$$
ligand
 OpenBabel11021811503D
libRbt.so/2013.1/901 2013/11/27
 11 12  0  0  0  0  0  0  0  0999 V2000
    3.7229  -20.4650   25.3157 N   0  0  0  0  0  0  0  0  0  0  0  0
    3.2306  -21.0131   24.1774 C   0  0  0  0  0  0  0  0  0  0  0  0
    4.0948  -21.3149   23.0756 N   0  0  0  0  0  0  0  0  0  0  0  0
    1.9183  -21.2805   24.0543 N   0  0  0  0  0  0  0  0  0  0  0  0
    1.0361  -21.0141   25.0773 C   0  0  0  0  0  0  0  0  0  0  0  0
    1.5103  -20.4526   26.2486 C   0  0  0  0  0  0  0  0  0  0  0  0
    2.9059  -20.1735   26.3513 C   0  0  0  0  0  0  0  0  0  0  0  0
    3.4301  -19.5906   27.5485 N   0  0  0  0  0  0  0  0  0  0  0  0
    0.4198  -20.2948   27.0828 N   0  0  0  0  0  0  0  0  0  0  0  0
   -0.6831  -20.7365   26.4455 C   0  0  0  0  0  0  0  0  0  0  0  0
   -0.3345  -21.1786   25.2208 N   0  0  0  0  0  0  0  0  0  0  0  0
  1  7  2  0  0  0  0
  1  2  1  0  0  0  0
  2  3  1  0  0  0  0
  2  4  2  0  0  0  0
  4  5  1  0  0  0  0
  5  6  2  0  0  0  0
  5 11  1  0  0  0  0
  6  7  1  0  0  0  0
  6  9  1  0  0  0  0
  7  8  1  0  0  0  0
  9 10  1  0  0  0  0
 10 11  2  0  0  0  0
M  END
>  <CHROM.1>
1.95492109,-20.68347212,25.49840037,-0.53366355,0.15421593,1.18164196

>  <Name>
ligand

>  <RI>
0

>  <Rbt.Current_Directory>
/home/itssahil/PROJECTS/Mol_Feturizer/New_Systems/rnas/4LVZ

>  <Rbt.Executable>
rbdock ($Id: //depot/dev/client3/rdock/2013.1/src/exe/rbdock.cxx#4 $)

>  <Rbt.Library>
libRbt.so (2013.1, Build901 2013/11/27)

>  <Rbt.Parameter_File>
/export/apps/rDock/src/rDock_2013.1_src/data/scripts/dock_solv.prm

>  <Rbt.Receptor>
prm/pocket_docking_5.prm

>  <SCORE>
-9.50464

>  <SCORE.INTER>
-9.50464

>  <SCORE.INTER.CONST>
1

>  <SCORE.INTER.POLAR>
0

>  <SCORE.INTER.ROT>
0

>  <SCORE.INTER.SOLV>
12.6881

>  <SCORE.INTER.VDW>
-14.1658

>  <SCORE.INTER.norm>
-0.864058

>  <SCORE.INTRA>
0

>  <SCORE.INTRA.DIHEDRAL>
0

>  <SCORE.INTRA.DIHEDRAL.0>
0

>  <SCORE.INTRA.POLAR>
0

>  <SCORE.INTRA.POLAR.0>
0

>  <SCORE.INTRA.REPUL>
0

>  <SCORE.INTRA.REPUL.0>
0

>  <SCORE.INTRA.SOLV>
0

>  <SCORE.INTRA.SOLV.lig_0>
-49.4056

>  <SCORE.INTRA.VDW>
0

>  <SCORE.INTRA.VDW.0>
0

>  <SCORE.INTRA.norm>
0

>  <SCORE.RESTR>
0

>  <SCORE.RESTR.CAVITY>
0

>  <SCORE.RESTR.norm>
0

>  <SCORE.SYSTEM>
0

>  <SCORE.SYSTEM.CONST>
0

>  <SCORE.SYSTEM.DIHEDRAL>
0

>  <SCORE.SYSTEM.SOLV>
0

>  <SCORE.SYSTEM.norm>
0

>  <SCORE.heavy>
11

>  <SCORE.norm>
-0.864058

>  <RMSD>
2.836

$$$$
ligand
 OpenBabel11021811503D
libRbt.so/2013.1/901 2013/11/27
 11 12  0  0  0  0  0  0  0  0999 V2000
    3.7376  -20.4728   25.3280 N   0  0  0  0  0  0  0  0  0  0  0  0
    3.2572  -21.0179   24.1832 C   0  0  0  0  0  0  0  0  0  0  0  0
    4.1341  -21.3242   23.0927 N   0  0  0  0  0  0  0  0  0  0  0  0
    1.9452  -21.2782   24.0428 N   0  0  0  0  0  0  0  0  0  0  0  0
    1.0512  -21.0073   25.0543 C   0  0  0  0  0  0  0  0  0  0  0  0
    1.5131  -20.4486   26.2320 C   0  0  0  0  0  0  0  0  0  0  0  0
    2.9086  -20.1771   26.3529 C   0  0  0  0  0  0  0  0  0  0  0  0
    3.4203  -19.5973   27.5570 N   0  0  0  0  0  0  0  0  0  0  0  0
    0.4126  -20.2852   27.0518 N   0  0  0  0  0  0  0  0  0  0  0  0
   -0.6843  -20.7208   26.4001 C   0  0  0  0  0  0  0  0  0  0  0  0
   -0.3221  -21.1644   25.1798 N   0  0  0  0  0  0  0  0  0  0  0  0
  1  7  2  0  0  0  0
  1  2  1  0  0  0  0
  2  3  1  0  0  0  0
  2  4  2  0  0  0  0
  4  5  1  0  0  0  0
  5  6  2  0  0  0  0
  5 11  1  0  0  0  0
  6  7  1  0  0  0  0
  6  9  1  0  0  0  0
  7  8  1  0  0  0  0
  9 10  1  0  0  0  0
 10 11  2  0  0  0  0
M  END
>  <CHROM.1>
1.96617660,-20.68174783,25.48751895,-0.52351194,0.14425591,1.18040282

>  <Name>
ligand

>  <RI>
0

>  <Rbt.Current_Directory>
/home/itssahil/PROJECTS/Mol_Feturizer/New_Systems/rnas/4LVZ

>  <Rbt.Executable>
rbdock ($Id: //depot/dev/client3/rdock/2013.1/src/exe/rbdock.cxx#4 $)

>  <Rbt.Library>
libRbt.so (2013.1, Build901 2013/11/27)

>  <Rbt.Parameter_File>
/export/apps/rDock/src/rDock_2013.1_src/data/scripts/dock_solv.prm

>  <Rbt.Receptor>
prm/pocket_docking_5.prm

>  <SCORE>
-9.46283

>  <SCORE.INTER>
-9.46283

>  <SCORE.INTER.CONST>
1

>  <SCORE.INTER.POLAR>
0

>  <SCORE.INTER.ROT>
0

>  <SCORE.INTER.SOLV>
12.5608

>  <SCORE.INTER.VDW>
-14.0955

>  <SCORE.INTER.norm>
-0.860257

>  <SCORE.INTRA>
0

>  <SCORE.INTRA.DIHEDRAL>
0

>  <SCORE.INTRA.DIHEDRAL.0>
0

>  <SCORE.INTRA.POLAR>
0

>  <SCORE.INTRA.POLAR.0>
0

>  <SCORE.INTRA.REPUL>
0

>  <SCORE.INTRA.REPUL.0>
0

>  <SCORE.INTRA.SOLV>
0

>  <SCORE.INTRA.SOLV.lig_0>
-49.4056

>  <SCORE.INTRA.VDW>
0

>  <SCORE.INTRA.VDW.0>
0

>  <SCORE.INTRA.norm>
0

>  <SCORE.RESTR>
0

>  <SCORE.RESTR.CAVITY>
0

>  <SCORE.RESTR.norm>
0

>  <SCORE.SYSTEM>
0

>  <SCORE.SYSTEM.CONST>
0

>  <SCORE.SYSTEM.DIHEDRAL>
0

>  <SCORE.SYSTEM.SOLV>
0

>  <SCORE.SYSTEM.norm>
0

>  <SCORE.heavy>
11

>  <SCORE.norm>
-0.860257

>  <RMSD>
2.836

$$$$
ligand
 OpenBabel11021811503D
libRbt.so/2013.1/901 2013/11/27
 11 12  0  0  0  0  0  0  0  0999 V2000
    3.7977  -20.4490   25.2969 N   0  0  0  0  0  0  0  0  0  0  0  0
    3.3048  -20.9971   24.1588 C   0  0  0  0  0  0  0  0  0  0  0  0
    4.1674  -21.2922   23.0539 N   0  0  0  0  0  0  0  0  0  0  0  0
    1.9935  -21.2708   24.0389 N   0  0  0  0  0  0  0  0  0  0  0  0
    1.1130  -21.0111   25.0650 C   0  0  0  0  0  0  0  0  0  0  0  0
    1.5878  -20.4497   26.2362 C   0  0  0  0  0  0  0  0  0  0  0  0
    2.9821  -20.1638   26.3354 C   0  0  0  0  0  0  0  0  0  0  0  0
    3.5069  -19.5808   27.5324 N   0  0  0  0  0  0  0  0  0  0  0  0
    0.4989  -20.2992   27.0738 N   0  0  0  0  0  0  0  0  0  0  0  0
   -0.6037  -20.7450   26.4387 C   0  0  0  0  0  0  0  0  0  0  0  0
   -0.2564  -21.1827   25.2120 N   0  0  0  0  0  0  0  0  0  0  0  0
  1  7  2  0  0  0  0
  1  2  1  0  0  0  0
  2  3  1  0  0  0  0
  2  4  2  0  0  0  0
  4  5  1  0  0  0  0
  5  6  2  0  0  0  0
  5 11  1  0  0  0  0
  6  7  1  0  0  0  0
  6  9  1  0  0  0  0
  7  8  1  0  0  0  0
  9 10  1  0  0  0  0
 10 11  2  0  0  0  0
M  END
>  <CHROM.1>
2.03132504,-20.67670905,25.48419053,-0.53443221,0.15994033,1.18390985

>  <Name>
ligand

>  <RI>
0

>  <Rbt.Current_Directory>
/home/itssahil/PROJECTS/Mol_Feturizer/New_Systems/rnas/4LVZ

>  <Rbt.Executable>
rbdock ($Id: //depot/dev/client3/rdock/2013.1/src/exe/rbdock.cxx#4 $)

>  <Rbt.Library>
libRbt.so (2013.1, Build901 2013/11/27)

>  <Rbt.Parameter_File>
/export/apps/rDock/src/rDock_2013.1_src/data/scripts/dock_solv.prm

>  <Rbt.Receptor>
prm/pocket_docking_5.prm

>  <SCORE>
-9.4135

>  <SCORE.INTER>
-9.4135

>  <SCORE.INTER.CONST>
1

>  <SCORE.INTER.POLAR>
0

>  <SCORE.INTER.ROT>
0

>  <SCORE.INTER.SOLV>
12.1122

>  <SCORE.INTER.VDW>
-13.9131

>  <SCORE.INTER.norm>
-0.855773

>  <SCORE.INTRA>
0

>  <SCORE.INTRA.DIHEDRAL>
0

>  <SCORE.INTRA.DIHEDRAL.0>
0

>  <SCORE.INTRA.POLAR>
0

>  <SCORE.INTRA.POLAR.0>
0

>  <SCORE.INTRA.REPUL>
0

>  <SCORE.INTRA.REPUL.0>
0

>  <SCORE.INTRA.SOLV>
0

>  <SCORE.INTRA.SOLV.lig_0>
-49.4056

>  <SCORE.INTRA.VDW>
0

>  <SCORE.INTRA.VDW.0>
0

>  <SCORE.INTRA.norm>
0

>  <SCORE.RESTR>
0

>  <SCORE.RESTR.CAVITY>
0

>  <SCORE.RESTR.norm>
0

>  <SCORE.SYSTEM>
0

>  <SCORE.SYSTEM.CONST>
0

>  <SCORE.SYSTEM.DIHEDRAL>
0

>  <SCORE.SYSTEM.SOLV>
0

>  <SCORE.SYSTEM.norm>
0

>  <SCORE.heavy>
11

>  <SCORE.norm>
-0.855773

>  <RMSD>
2.836

$$$$
ligand
 OpenBabel11021811503D
libRbt.so/2013.1/901 2013/11/27
 11 12  0  0  0  0  0  0  0  0999 V2000
    3.7195  -20.4629   25.3143 N   0  0  0  0  0  0  0  0  0  0  0  0
    3.2256  -21.0098   24.1761 C   0  0  0  0  0  0  0  0  0  0  0  0
    4.0891  -21.3152   23.0747 N   0  0  0  0  0  0  0  0  0  0  0  0
    1.9124  -21.2726   24.0527 N   0  0  0  0  0  0  0  0  0  0  0  0
    1.0308  -21.0025   25.0752 C   0  0  0  0  0  0  0  0  0  0  0  0
    1.5066  -20.4421   26.2465 C   0  0  0  0  0  0  0  0  0  0  0  0
    2.9031  -20.1679   26.3495 C   0  0  0  0  0  0  0  0  0  0  0  0
    3.4290  -19.5863   27.5466 N   0  0  0  0  0  0  0  0  0  0  0  0
    0.4164  -20.2801   27.0802 N   0  0  0  0  0  0  0  0  0  0  0  0
   -0.6879  -20.7182   26.4428 C   0  0  0  0  0  0  0  0  0  0  0  0
   -0.3405  -21.1620   25.2183 N   0  0  0  0  0  0  0  0  0  0  0  0
  1  7  2  0  0  0  0
  1  2  1  0  0  0  0
  2  3  1  0  0  0  0
  2  4  2  0  0  0  0
  4  5  1  0  0  0  0
  5  6  2  0  0  0  0
  5 11  1  0  0  0  0
  6  7  1  0  0  0  0
  6  9  1  0  0  0  0
  7  8  1  0  0  0  0
  9 10  1  0  0  0  0
 10 11  2  0  0  0  0
M  END
>  <CHROM.1>
1.95064631,-20.67496524,25.49651842,-0.53472066,0.15079030,1.18131203

>  <Name>
ligand

>  <RI>
0

>  <Rbt.Current_Directory>
/home/itssahil/PROJECTS/Mol_Feturizer/New_Systems/rnas/4LVZ

>  <Rbt.Executable>
rbdock ($Id: //depot/dev/client3/rdock/2013.1/src/exe/rbdock.cxx#4 $)

>  <Rbt.Library>
libRbt.so (2013.1, Build901 2013/11/27)

>  <Rbt.Parameter_File>
/export/apps/rDock/src/rDock_2013.1_src/data/scripts/dock_solv.prm

>  <Rbt.Receptor>
prm/pocket_docking_3.prm

>  <SCORE>
-9.5064

>  <SCORE.INTER>
-9.5064

>  <SCORE.INTER.CONST>
1

>  <SCORE.INTER.POLAR>
0

>  <SCORE.INTER.ROT>
0

>  <SCORE.INTER.SOLV>
12.7283

>  <SCORE.INTER.VDW>
-14.1804

>  <SCORE.INTER.norm>
-0.864218

>  <SCORE.INTRA>
0

>  <SCORE.INTRA.DIHEDRAL>
0

>  <SCORE.INTRA.DIHEDRAL.0>
0

>  <SCORE.INTRA.POLAR>
0

>  <SCORE.INTRA.POLAR.0>
0

>  <SCORE.INTRA.REPUL>
0

>  <SCORE.INTRA.REPUL.0>
0

>  <SCORE.INTRA.SOLV>
0

>  <SCORE.INTRA.SOLV.lig_0>
-49.4056

>  <SCORE.INTRA.VDW>
0

>  <SCORE.INTRA.VDW.0>
0

>  <SCORE.INTRA.norm>
0

>  <SCORE.RESTR>
0

>  <SCORE.RESTR.CAVITY>
0

>  <SCORE.RESTR.norm>
0

>  <SCORE.SYSTEM>
0

>  <SCORE.SYSTEM.CONST>
0

>  <SCORE.SYSTEM.DIHEDRAL>
0

>  <SCORE.SYSTEM.SOLV>
0

>  <SCORE.SYSTEM.norm>
0

>  <SCORE.heavy>
11

>  <SCORE.norm>
-0.864218

>  <RMSD>
2.837

$$$$
ligand
 OpenBabel11021811503D
libRbt.so/2013.1/901 2013/11/27
 11 12  0  0  0  0  0  0  0  0999 V2000
    3.7211  -20.4719   25.3156 N   0  0  0  0  0  0  0  0  0  0  0  0
    3.2223  -21.0149   24.1776 C   0  0  0  0  0  0  0  0  0  0  0  0
    4.0821  -21.3227   23.0740 N   0  0  0  0  0  0  0  0  0  0  0  0
    1.9076  -21.2715   24.0566 N   0  0  0  0  0  0  0  0  0  0  0  0
    1.0295  -20.9989   25.0814 C   0  0  0  0  0  0  0  0  0  0  0  0
    1.5103  -20.4423   26.2524 C   0  0  0  0  0  0  0  0  0  0  0  0
    2.9082  -20.1747   26.3529 C   0  0  0  0  0  0  0  0  0  0  0  0
    3.4393  -19.5972   27.5497 N   0  0  0  0  0  0  0  0  0  0  0  0
    0.4226  -20.2765   27.0886 N   0  0  0  0  0  0  0  0  0  0  0  0
   -0.6850  -20.7086   26.4529 C   0  0  0  0  0  0  0  0  0  0  0  0
   -0.3422  -21.1523   25.2271 N   0  0  0  0  0  0  0  0  0  0  0  0
  1  7  2  0  0  0  0
  1  2  1  0  0  0  0
  2  3  1  0  0  0  0
  2  4  2  0  0  0  0
  4  5  1  0  0  0  0
  5  6  2  0  0  0  0
  5 11  1  0  0  0  0
  6  7  1  0  0  0  0
  6  9  1  0  0  0  0
  7  8  1  0  0  0  0
  9 10  1  0  0  0  0
 10 11  2  0  0  0  0
M  END
>  <CHROM.1>
1.95169356,-20.67613266,25.50120122,-0.53843358,0.14733805,1.18328532

>  <Name>
ligand

>  <RI>
0

>  <Rbt.Current_Directory>
/home/itssahil/PROJECTS/Mol_Feturizer/New_Systems/rnas/4LVZ

>  <Rbt.Executable>
rbdock ($Id: //depot/dev/client3/rdock/2013.1/src/exe/rbdock.cxx#4 $)

>  <Rbt.Library>
libRbt.so (2013.1, Build901 2013/11/27)

>  <Rbt.Parameter_File>
/export/apps/rDock/src/rDock_2013.1_src/data/scripts/dock_solv.prm

>  <Rbt.Receptor>
prm/pocket_docking_3.prm

>  <SCORE>
-9.50616

>  <SCORE.INTER>
-9.50616

>  <SCORE.INTER.CONST>
1

>  <SCORE.INTER.POLAR>
0

>  <SCORE.INTER.ROT>
0

>  <SCORE.INTER.SOLV>
12.7183

>  <SCORE.INTER.VDW>
-14.1769

>  <SCORE.INTER.norm>
-0.864196

>  <SCORE.INTRA>
0

>  <SCORE.INTRA.DIHEDRAL>
0

>  <SCORE.INTRA.DIHEDRAL.0>
0

>  <SCORE.INTRA.POLAR>
0

>  <SCORE.INTRA.POLAR.0>
0

>  <SCORE.INTRA.REPUL>
0

>  <SCORE.INTRA.REPUL.0>
0

>  <SCORE.INTRA.SOLV>
0

>  <SCORE.INTRA.SOLV.lig_0>
-49.4056

>  <SCORE.INTRA.VDW>
0

>  <SCORE.INTRA.VDW.0>
0

>  <SCORE.INTRA.norm>
0

>  <SCORE.RESTR>
0

>  <SCORE.RESTR.CAVITY>
0

>  <SCORE.RESTR.norm>
0

>  <SCORE.SYSTEM>
0

>  <SCORE.SYSTEM.CONST>
0

>  <SCORE.SYSTEM.DIHEDRAL>
0

>  <SCORE.SYSTEM.SOLV>
0

>  <SCORE.SYSTEM.norm>
0

>  <SCORE.heavy>
11

>  <SCORE.norm>
-0.864196

>  <RMSD>
2.837

$$$$
ligand
 OpenBabel11021811503D
libRbt.so/2013.1/901 2013/11/27
 11 12  0  0  0  0  0  0  0  0999 V2000
    3.7773  -20.4292   25.2651 N   0  0  0  0  0  0  0  0  0  0  0  0
    3.2420  -20.9603   24.1382 C   0  0  0  0  0  0  0  0  0  0  0  0
    4.0658  -21.2567   23.0043 N   0  0  0  0  0  0  0  0  0  0  0  0
    1.9240  -21.2157   24.0568 N   0  0  0  0  0  0  0  0  0  0  0  0
    1.0794  -20.9537   25.1120 C   0  0  0  0  0  0  0  0  0  0  0  0
    1.5978  -20.4093   26.2727 C   0  0  0  0  0  0  0  0  0  0  0  0
    2.9983  -20.1427   26.3309 C   0  0  0  0  0  0  0  0  0  0  0  0
    3.5678  -19.5776   27.5160 N   0  0  0  0  0  0  0  0  0  0  0  0
    0.5376  -20.2521   27.1451 N   0  0  0  0  0  0  0  0  0  0  0  0
   -0.5901  -20.6776   26.5409 C   0  0  0  0  0  0  0  0  0  0  0  0
   -0.2870  -21.1086   25.3002 N   0  0  0  0  0  0  0  0  0  0  0  0
  1  7  2  0  0  0  0
  1  2  1  0  0  0  0
  2  3  1  0  0  0  0
  2  4  2  0  0  0  0
  4  5  1  0  0  0  0
  5  6  2  0  0  0  0
  5 11  1  0  0  0  0
  6  7  1  0  0  0  0
  6  9  1  0  0  0  0
  7  8  1  0  0  0  0
  9 10  1  0  0  0  0
 10 11  2  0  0  0  0
M  END
>  <CHROM.1>
2.01469808,-20.63527785,25.50531461,-0.56870174,0.15909622,1.19826193

>  <Name>
ligand

>  <RI>
0

>  <Rbt.Current_Directory>
/home/itssahil/PROJECTS/Mol_Feturizer/New_Systems/rnas/4LVZ

>  <Rbt.Executable>
rbdock ($Id: //depot/dev/client3/rdock/2013.1/src/exe/rbdock.cxx#4 $)

>  <Rbt.Library>
libRbt.so (2013.1, Build901 2013/11/27)

>  <Rbt.Parameter_File>
/export/apps/rDock/src/rDock_2013.1_src/data/scripts/dock_solv.prm

>  <Rbt.Receptor>
prm/pocket_docking_4.prm

>  <SCORE>
-9.4558

>  <SCORE.INTER>
-9.4558

>  <SCORE.INTER.CONST>
1

>  <SCORE.INTER.POLAR>
0

>  <SCORE.INTER.ROT>
0

>  <SCORE.INTER.SOLV>
12.3595

>  <SCORE.INTER.VDW>
-14.0237

>  <SCORE.INTER.norm>
-0.859619

>  <SCORE.INTRA>
0

>  <SCORE.INTRA.DIHEDRAL>
0

>  <SCORE.INTRA.DIHEDRAL.0>
0

>  <SCORE.INTRA.POLAR>
0

>  <SCORE.INTRA.POLAR.0>
0

>  <SCORE.INTRA.REPUL>
0

>  <SCORE.INTRA.REPUL.0>
0

>  <SCORE.INTRA.SOLV>
0

>  <SCORE.INTRA.SOLV.lig_0>
-49.4056

>  <SCORE.INTRA.VDW>
0

>  <SCORE.INTRA.VDW.0>
0

>  <SCORE.INTRA.norm>
0

>  <SCORE.RESTR>
0

>  <SCORE.RESTR.CAVITY>
0

>  <SCORE.RESTR.norm>
0

>  <SCORE.SYSTEM>
0

>  <SCORE.SYSTEM.CONST>
0

>  <SCORE.SYSTEM.DIHEDRAL>
0

>  <SCORE.SYSTEM.SOLV>
0

>  <SCORE.SYSTEM.norm>
0

>  <SCORE.heavy>
11

>  <SCORE.norm>
-0.859619

>  <RMSD>
2.837

$$$$
ligand
 OpenBabel11021811503D
libRbt.so/2013.1/901 2013/11/27
 11 12  0  0  0  0  0  0  0  0999 V2000
    3.7922  -20.4573   25.3118 N   0  0  0  0  0  0  0  0  0  0  0  0
    3.3090  -21.0200   24.1767 C   0  0  0  0  0  0  0  0  0  0  0  0
    4.1840  -21.3482   23.0911 N   0  0  0  0  0  0  0  0  0  0  0  0
    1.9959  -21.2774   24.0415 N   0  0  0  0  0  0  0  0  0  0  0  0
    1.1035  -20.9857   25.0486 C   0  0  0  0  0  0  0  0  0  0  0  0
    1.5683  -20.4089   26.2164 C   0  0  0  0  0  0  0  0  0  0  0  0
    2.9650  -20.1409   26.3320 C   0  0  0  0  0  0  0  0  0  0  0  0
    3.4797  -19.5427   27.5258 N   0  0  0  0  0  0  0  0  0  0  0  0
    0.4690  -20.2271   27.0339 N   0  0  0  0  0  0  0  0  0  0  0  0
   -0.6300  -20.6693   26.3902 C   0  0  0  0  0  0  0  0  0  0  0  0
   -0.2703  -21.1352   25.1775 N   0  0  0  0  0  0  0  0  0  0  0  0
  1  7  2  0  0  0  0
  1  2  1  0  0  0  0
  2  3  1  0  0  0  0
  2  4  2  0  0  0  0
  4  5  1  0  0  0  0
  5  6  2  0  0  0  0
  5 11  1  0  0  0  0
  6  7  1  0  0  0  0
  6  9  1  0  0  0  0
  7  8  1  0  0  0  0
  9 10  1  0  0  0  0
 10 11  2  0  0  0  0
M  END
>  <CHROM.1>
2.02004437,-20.65643977,25.47578505,-0.52557592,0.14078815,1.16364829

>  <Name>
ligand

>  <RI>
0

>  <Rbt.Current_Directory>
/home/itssahil/PROJECTS/Mol_Feturizer/New_Systems/rnas/4LVZ

>  <Rbt.Executable>
rbdock ($Id: //depot/dev/client3/rdock/2013.1/src/exe/rbdock.cxx#4 $)

>  <Rbt.Library>
libRbt.so (2013.1, Build901 2013/11/27)

>  <Rbt.Parameter_File>
/export/apps/rDock/src/rDock_2013.1_src/data/scripts/dock_solv.prm

>  <Rbt.Receptor>
prm/pocket_docking_6.prm

>  <SCORE>
-9.46236

>  <SCORE.INTER>
-9.46236

>  <SCORE.INTER.CONST>
1

>  <SCORE.INTER.POLAR>
0

>  <SCORE.INTER.ROT>
0

>  <SCORE.INTER.SOLV>
12.2734

>  <SCORE.INTER.VDW>
-13.9994

>  <SCORE.INTER.norm>
-0.860215

>  <SCORE.INTRA>
0

>  <SCORE.INTRA.DIHEDRAL>
0

>  <SCORE.INTRA.DIHEDRAL.0>
0

>  <SCORE.INTRA.POLAR>
0

>  <SCORE.INTRA.POLAR.0>
0

>  <SCORE.INTRA.REPUL>
0

>  <SCORE.INTRA.REPUL.0>
0

>  <SCORE.INTRA.SOLV>
0

>  <SCORE.INTRA.SOLV.lig_0>
-49.4056

>  <SCORE.INTRA.VDW>
0

>  <SCORE.INTRA.VDW.0>
0

>  <SCORE.INTRA.norm>
0

>  <SCORE.RESTR>
0

>  <SCORE.RESTR.CAVITY>
0

>  <SCORE.RESTR.norm>
0

>  <SCORE.SYSTEM>
0

>  <SCORE.SYSTEM.CONST>
0

>  <SCORE.SYSTEM.DIHEDRAL>
0

>  <SCORE.SYSTEM.SOLV>
0

>  <SCORE.SYSTEM.norm>
0

>  <SCORE.heavy>
11

>  <SCORE.norm>
-0.860215

>  <RMSD>
2.837

$$$$
ligand
 OpenBabel11021811503D
libRbt.so/2013.1/901 2013/11/27
 11 12  0  0  0  0  0  0  0  0999 V2000
    3.8295  -20.4611   25.2537 N   0  0  0  0  0  0  0  0  0  0  0  0
    3.2572  -20.9439   24.1232 C   0  0  0  0  0  0  0  0  0  0  0  0
    4.0463  -21.2081   22.9572 N   0  0  0  0  0  0  0  0  0  0  0  0
    1.9344  -21.1803   24.0687 N   0  0  0  0  0  0  0  0  0  0  0  0
    1.1219  -20.9474   25.1556 C   0  0  0  0  0  0  0  0  0  0  0  0
    1.6784  -20.4523   26.3207 C   0  0  0  0  0  0  0  0  0  0  0  0
    3.0833  -20.2048   26.3503 C   0  0  0  0  0  0  0  0  0  0  0  0
    3.6917  -19.6907   27.5391 N   0  0  0  0  0  0  0  0  0  0  0  0
    0.6442  -20.3148   27.2270 N   0  0  0  0  0  0  0  0  0  0  0  0
   -0.5047  -20.7043   26.6388 C   0  0  0  0  0  0  0  0  0  0  0  0
   -0.2408  -21.0928   25.3753 N   0  0  0  0  0  0  0  0  0  0  0  0
  1  7  2  0  0  0  0
  1  2  1  0  0  0  0
  2  3  1  0  0  0  0
  2  4  2  0  0  0  0
  4  5  1  0  0  0  0
  5  6  2  0  0  0  0
  5 11  1  0  0  0  0
  6  7  1  0  0  0  0
  6  9  1  0  0  0  0
  7  8  1  0  0  0  0
  9 10  1  0  0  0  0
 10 11  2  0  0  0  0
M  END
>  <CHROM.1>
2.07152967,-20.65486317,25.53444270,-0.59887488,0.15680481,1.23972931

>  <Name>
ligand

>  <RI>
0

>  <Rbt.Current_Directory>
/home/itssahil/PROJECTS/Mol_Feturizer/New_Systems/rnas/4LVZ

>  <Rbt.Executable>
rbdock ($Id: //depot/dev/client3/rdock/2013.1/src/exe/rbdock.cxx#4 $)

>  <Rbt.Library>
libRbt.so (2013.1, Build901 2013/11/27)

>  <Rbt.Parameter_File>
/export/apps/rDock/src/rDock_2013.1_src/data/scripts/dock_solv.prm

>  <Rbt.Receptor>
prm/pocket_docking_6.prm

>  <SCORE>
-9.37012

>  <SCORE.INTER>
-9.37012

>  <SCORE.INTER.CONST>
1

>  <SCORE.INTER.POLAR>
0

>  <SCORE.INTER.ROT>
0

>  <SCORE.INTER.SOLV>
11.7305

>  <SCORE.INTER.VDW>
-13.7569

>  <SCORE.INTER.norm>
-0.851829

>  <SCORE.INTRA>
0

>  <SCORE.INTRA.DIHEDRAL>
0

>  <SCORE.INTRA.DIHEDRAL.0>
0

>  <SCORE.INTRA.POLAR>
0

>  <SCORE.INTRA.POLAR.0>
0

>  <SCORE.INTRA.REPUL>
0

>  <SCORE.INTRA.REPUL.0>
0

>  <SCORE.INTRA.SOLV>
0

>  <SCORE.INTRA.SOLV.lig_0>
-49.4056

>  <SCORE.INTRA.VDW>
0

>  <SCORE.INTRA.VDW.0>
0

>  <SCORE.INTRA.norm>
0

>  <SCORE.RESTR>
0

>  <SCORE.RESTR.CAVITY>
0

>  <SCORE.RESTR.norm>
0

>  <SCORE.SYSTEM>
0

>  <SCORE.SYSTEM.CONST>
0

>  <SCORE.SYSTEM.DIHEDRAL>
0

>  <SCORE.SYSTEM.SOLV>
0

>  <SCORE.SYSTEM.norm>
0

>  <SCORE.heavy>
11

>  <SCORE.norm>
-0.851829

>  <RMSD>
2.837

$$$$
ligand
 OpenBabel11021811503D
libRbt.so/2013.1/901 2013/11/27
 11 12  0  0  0  0  0  0  0  0999 V2000
    3.7435  -20.4857   25.3301 N   0  0  0  0  0  0  0  0  0  0  0  0
    3.2578  -21.0180   24.1815 C   0  0  0  0  0  0  0  0  0  0  0  0
    4.1303  -21.3169   23.0855 N   0  0  0  0  0  0  0  0  0  0  0  0
    1.9444  -21.2720   24.0426 N   0  0  0  0  0  0  0  0  0  0  0  0
    1.0544  -21.0075   25.0592 C   0  0  0  0  0  0  0  0  0  0  0  0
    1.5218  -20.4619   26.2408 C   0  0  0  0  0  0  0  0  0  0  0  0
    2.9187  -20.1967   26.3603 C   0  0  0  0  0  0  0  0  0  0  0  0
    3.4361  -19.6305   27.5684 N   0  0  0  0  0  0  0  0  0  0  0  0
    0.4244  -20.3023   27.0655 N   0  0  0  0  0  0  0  0  0  0  0  0
   -0.6761  -20.7275   26.4128 C   0  0  0  0  0  0  0  0  0  0  0  0
   -0.3191  -21.1607   25.1873 N   0  0  0  0  0  0  0  0  0  0  0  0
  1  7  2  0  0  0  0
  1  2  1  0  0  0  0
  2  3  1  0  0  0  0
  2  4  2  0  0  0  0
  4  5  1  0  0  0  0
  5  6  2  0  0  0  0
  5 11  1  0  0  0  0
  6  7  1  0  0  0  0
  6  9  1  0  0  0  0
  7  8  1  0  0  0  0
  9 10  1  0  0  0  0
 10 11  2  0  0  0  0
M  END
>  <CHROM.1>
1.97182427,-20.68953126,25.49286554,-0.52768222,0.14190164,1.19061753

>  <Name>
ligand

>  <RI>
0

>  <Rbt.Current_Directory>
/home/itssahil/PROJECTS/Mol_Feturizer/New_Systems/rnas/4LVZ

>  <Rbt.Executable>
rbdock ($Id: //depot/dev/client3/rdock/2013.1/src/exe/rbdock.cxx#4 $)

>  <Rbt.Library>
libRbt.so (2013.1, Build901 2013/11/27)

>  <Rbt.Parameter_File>
/export/apps/rDock/src/rDock_2013.1_src/data/scripts/dock_solv.prm

>  <Rbt.Receptor>
prm/pocket_docking_6.prm

>  <SCORE>
-9.44446

>  <SCORE.INTER>
-9.44446

>  <SCORE.INTER.CONST>
1

>  <SCORE.INTER.POLAR>
0

>  <SCORE.INTER.ROT>
0

>  <SCORE.INTER.SOLV>
12.4665

>  <SCORE.INTER.VDW>
-14.0518

>  <SCORE.INTER.norm>
-0.858587

>  <SCORE.INTRA>
0

>  <SCORE.INTRA.DIHEDRAL>
0

>  <SCORE.INTRA.DIHEDRAL.0>
0

>  <SCORE.INTRA.POLAR>
0

>  <SCORE.INTRA.POLAR.0>
0

>  <SCORE.INTRA.REPUL>
0

>  <SCORE.INTRA.REPUL.0>
0

>  <SCORE.INTRA.SOLV>
0

>  <SCORE.INTRA.SOLV.lig_0>
-49.4056

>  <SCORE.INTRA.VDW>
0

>  <SCORE.INTRA.VDW.0>
0

>  <SCORE.INTRA.norm>
0

>  <SCORE.RESTR>
0

>  <SCORE.RESTR.CAVITY>
0

>  <SCORE.RESTR.norm>
0

>  <SCORE.SYSTEM>
0

>  <SCORE.SYSTEM.CONST>
0

>  <SCORE.SYSTEM.DIHEDRAL>
0

>  <SCORE.SYSTEM.SOLV>
0

>  <SCORE.SYSTEM.norm>
0

>  <SCORE.heavy>
11

>  <SCORE.norm>
-0.858587

>  <RMSD>
2.837

$$$$
ligand
 OpenBabel11021811503D
libRbt.so/2013.1/901 2013/11/27
 11 12  0  0  0  0  0  0  0  0999 V2000
    3.8373  -20.5834   25.3737 N   0  0  0  0  0  0  0  0  0  0  0  0
    3.3435  -21.0600   24.2042 C   0  0  0  0  0  0  0  0  0  0  0  0
    4.2151  -21.3559   23.1066 N   0  0  0  0  0  0  0  0  0  0  0  0
    2.0230  -21.2602   24.0457 N   0  0  0  0  0  0  0  0  0  0  0  0
    1.1335  -20.9955   25.0627 C   0  0  0  0  0  0  0  0  0  0  0  0
    1.6091  -20.5061   26.2654 C   0  0  0  0  0  0  0  0  0  0  0  0
    3.0136  -20.2972   26.4055 C   0  0  0  0  0  0  0  0  0  0  0  0
    3.5397  -19.7899   27.6358 N   0  0  0  0  0  0  0  0  0  0  0  0
    0.5103  -20.3322   27.0853 N   0  0  0  0  0  0  0  0  0  0  0  0
   -0.5987  -20.6947   26.4097 C   0  0  0  0  0  0  0  0  0  0  0  0
   -0.2460  -21.1013   25.1738 N   0  0  0  0  0  0  0  0  0  0  0  0
  1  7  2  0  0  0  0
  1  2  1  0  0  0  0
  2  3  1  0  0  0  0
  2  4  2  0  0  0  0
  4  5  1  0  0  0  0
  5  6  2  0  0  0  0
  5 11  1  0  0  0  0
  6  7  1  0  0  0  0
  6  9  1  0  0  0  0
  7  8  1  0  0  0  0
  9 10  1  0  0  0  0
 10 11  2  0  0  0  0
M  END
>  <CHROM.1>
2.05772751,-20.72612722,25.51435659,-0.53231203,0.10382087,1.22357464

>  <Name>
ligand

>  <RI>
0

>  <Rbt.Current_Directory>
/home/itssahil/PROJECTS/Mol_Feturizer/New_Systems/rnas/4LVZ

>  <Rbt.Executable>
rbdock ($Id: //depot/dev/client3/rdock/2013.1/src/exe/rbdock.cxx#4 $)

>  <Rbt.Library>
libRbt.so (2013.1, Build901 2013/11/27)

>  <Rbt.Parameter_File>
/export/apps/rDock/src/rDock_2013.1_src/data/scripts/dock_solv.prm

>  <Rbt.Receptor>
prm/pocket_docking_6.prm

>  <SCORE>
-9.39538

>  <SCORE.INTER>
-9.39538

>  <SCORE.INTER.CONST>
1

>  <SCORE.INTER.POLAR>
0

>  <SCORE.INTER.ROT>
0

>  <SCORE.INTER.SOLV>
11.6445

>  <SCORE.INTER.VDW>
-13.7451

>  <SCORE.INTER.norm>
-0.854125

>  <SCORE.INTRA>
0

>  <SCORE.INTRA.DIHEDRAL>
0

>  <SCORE.INTRA.DIHEDRAL.0>
0

>  <SCORE.INTRA.POLAR>
0

>  <SCORE.INTRA.POLAR.0>
0

>  <SCORE.INTRA.REPUL>
0

>  <SCORE.INTRA.REPUL.0>
0

>  <SCORE.INTRA.SOLV>
0

>  <SCORE.INTRA.SOLV.lig_0>
-49.4056

>  <SCORE.INTRA.VDW>
0

>  <SCORE.INTRA.VDW.0>
0

>  <SCORE.INTRA.norm>
0

>  <SCORE.RESTR>
0

>  <SCORE.RESTR.CAVITY>
0

>  <SCORE.RESTR.norm>
0

>  <SCORE.SYSTEM>
0

>  <SCORE.SYSTEM.CONST>
0

>  <SCORE.SYSTEM.DIHEDRAL>
0

>  <SCORE.SYSTEM.SOLV>
0

>  <SCORE.SYSTEM.norm>
0

>  <SCORE.heavy>
11

>  <SCORE.norm>
-0.854125

>  <RMSD>
2.837

$$$$
ligand
 OpenBabel11021811503D
libRbt.so/2013.1/901 2013/11/27
 11 12  0  0  0  0  0  0  0  0999 V2000
    3.7034  -20.4665   25.3120 N   0  0  0  0  0  0  0  0  0  0  0  0
    3.2117  -21.0415   24.1867 C   0  0  0  0  0  0  0  0  0  0  0  0
    4.0742  -21.3559   23.0871 N   0  0  0  0  0  0  0  0  0  0  0  0
    1.9017  -21.3246   24.0748 N   0  0  0  0  0  0  0  0  0  0  0  0
    1.0214  -21.0474   25.0965 C   0  0  0  0  0  0  0  0  0  0  0  0
    1.4949  -20.4585   26.2546 C   0  0  0  0  0  0  0  0  0  0  0  0
    2.8879  -20.1632   26.3454 C   0  0  0  0  0  0  0  0  0  0  0  0
    3.4114  -19.5519   27.5287 N   0  0  0  0  0  0  0  0  0  0  0  0
    0.4065  -20.2957   27.0905 N   0  0  0  0  0  0  0  0  0  0  0  0
   -0.6947  -20.7608   26.4669 C   0  0  0  0  0  0  0  0  0  0  0  0
   -0.3469  -21.2230   25.2494 N   0  0  0  0  0  0  0  0  0  0  0  0
  1  7  2  0  0  0  0
  1  2  1  0  0  0  0
  2  3  1  0  0  0  0
  2  4  2  0  0  0  0
  4  5  1  0  0  0  0
  5  6  2  0  0  0  0
  5 11  1  0  0  0  0
  6  7  1  0  0  0  0
  6  9  1  0  0  0  0
  7  8  1  0  0  0  0
  9 10  1  0  0  0  0
 10 11  2  0  0  0  0
M  END
>  <CHROM.1>
1.93853579,-20.69933266,25.50694305,-0.53380623,0.16535576,1.16228188

>  <Name>
ligand

>  <RI>
0

>  <Rbt.Current_Directory>
/home/itssahil/PROJECTS/Mol_Feturizer/New_Systems/rnas/4LVZ

>  <Rbt.Executable>
rbdock ($Id: //depot/dev/client3/rdock/2013.1/src/exe/rbdock.cxx#4 $)

>  <Rbt.Library>
libRbt.so (2013.1, Build901 2013/11/27)

>  <Rbt.Parameter_File>
/export/apps/rDock/src/rDock_2013.1_src/data/scripts/dock_solv.prm

>  <Rbt.Receptor>
prm/pocket_docking_7.prm

>  <SCORE>
-9.45145

>  <SCORE.INTER>
-9.45145

>  <SCORE.INTER.CONST>
1

>  <SCORE.INTER.POLAR>
0

>  <SCORE.INTER.ROT>
0

>  <SCORE.INTER.SOLV>
12.9289

>  <SCORE.INTER.VDW>
-14.2106

>  <SCORE.INTER.norm>
-0.859222

>  <SCORE.INTRA>
0

>  <SCORE.INTRA.DIHEDRAL>
0

>  <SCORE.INTRA.DIHEDRAL.0>
0

>  <SCORE.INTRA.POLAR>
0

>  <SCORE.INTRA.POLAR.0>
0

>  <SCORE.INTRA.REPUL>
0

>  <SCORE.INTRA.REPUL.0>
0

>  <SCORE.INTRA.SOLV>
0

>  <SCORE.INTRA.SOLV.lig_0>
-49.4056

>  <SCORE.INTRA.VDW>
0

>  <SCORE.INTRA.VDW.0>
0

>  <SCORE.INTRA.norm>
0

>  <SCORE.RESTR>
0

>  <SCORE.RESTR.CAVITY>
0

>  <SCORE.RESTR.norm>
0

>  <SCORE.SYSTEM>
0

>  <SCORE.SYSTEM.CONST>
0

>  <SCORE.SYSTEM.DIHEDRAL>
0

>  <SCORE.SYSTEM.SOLV>
0

>  <SCORE.SYSTEM.norm>
0

>  <SCORE.heavy>
11

>  <SCORE.norm>
-0.859222

>  <RMSD>
2.837

$$$$
ligand
 OpenBabel11021811503D
libRbt.so/2013.1/901 2013/11/27
 11 12  0  0  0  0  0  0  0  0999 V2000
    3.7378  -20.5051   25.3277 N   0  0  0  0  0  0  0  0  0  0  0  0
    3.2187  -21.0148   24.1834 C   0  0  0  0  0  0  0  0  0  0  0  0
    4.0636  -21.3220   23.0681 N   0  0  0  0  0  0  0  0  0  0  0  0
    1.8976  -21.2383   24.0670 N   0  0  0  0  0  0  0  0  0  0  0  0
    1.0330  -20.9645   25.1030 C   0  0  0  0  0  0  0  0  0  0  0  0
    1.5346  -20.4413   26.2807 C   0  0  0  0  0  0  0  0  0  0  0  0
    2.9391  -20.2084   26.3761 C   0  0  0  0  0  0  0  0  0  0  0  0
    3.4917  -19.6660   27.5796 N   0  0  0  0  0  0  0  0  0  0  0  0
    0.4568  -20.2658   27.1276 N   0  0  0  0  0  0  0  0  0  0  0  0
   -0.6650  -20.6599   26.4919 C   0  0  0  0  0  0  0  0  0  0  0  0
   -0.3409  -21.0885   25.2557 N   0  0  0  0  0  0  0  0  0  0  0  0
  1  7  2  0  0  0  0
  1  2  1  0  0  0  0
  2  3  1  0  0  0  0
  2  4  2  0  0  0  0
  4  5  1  0  0  0  0
  5  6  2  0  0  0  0
  5 11  1  0  0  0  0
  6  7  1  0  0  0  0
  6  9  1  0  0  0  0
  7  8  1  0  0  0  0
  9 10  1  0  0  0  0
 10 11  2  0  0  0  0
M  END
>  <CHROM.1>
1.96532017,-20.67129462,25.52212406,-0.55366887,0.12809612,1.20402105

>  <Name>
ligand

>  <RI>
0

>  <Rbt.Current_Directory>
/home/itssahil/PROJECTS/Mol_Feturizer/New_Systems/rnas/4LVZ

>  <Rbt.Executable>
rbdock ($Id: //depot/dev/client3/rdock/2013.1/src/exe/rbdock.cxx#4 $)

>  <Rbt.Library>
libRbt.so (2013.1, Build901 2013/11/27)

>  <Rbt.Parameter_File>
/export/apps/rDock/src/rDock_2013.1_src/data/scripts/dock_solv.prm

>  <Rbt.Receptor>
prm/pocket_docking_8.prm

>  <SCORE>
-9.42511

>  <SCORE.INTER>
-9.42511

>  <SCORE.INTER.CONST>
1

>  <SCORE.INTER.POLAR>
0

>  <SCORE.INTER.ROT>
0

>  <SCORE.INTER.SOLV>
12.5487

>  <SCORE.INTER.VDW>
-14.0663

>  <SCORE.INTER.norm>
-0.856828

>  <SCORE.INTRA>
0

>  <SCORE.INTRA.DIHEDRAL>
0

>  <SCORE.INTRA.DIHEDRAL.0>
0

>  <SCORE.INTRA.POLAR>
0

>  <SCORE.INTRA.POLAR.0>
0

>  <SCORE.INTRA.REPUL>
0

>  <SCORE.INTRA.REPUL.0>
0

>  <SCORE.INTRA.SOLV>
0

>  <SCORE.INTRA.SOLV.lig_0>
-49.4056

>  <SCORE.INTRA.VDW>
0

>  <SCORE.INTRA.VDW.0>
0

>  <SCORE.INTRA.norm>
0

>  <SCORE.RESTR>
0

>  <SCORE.RESTR.CAVITY>
0

>  <SCORE.RESTR.norm>
0

>  <SCORE.SYSTEM>
0

>  <SCORE.SYSTEM.CONST>
0

>  <SCORE.SYSTEM.DIHEDRAL>
0

>  <SCORE.SYSTEM.SOLV>
0

>  <SCORE.SYSTEM.norm>
0

>  <SCORE.heavy>
11

>  <SCORE.norm>
-0.856828

>  <RMSD>
2.837

$$$$
ligand
 OpenBabel11021811503D
libRbt.so/2013.1/901 2013/11/27
 11 12  0  0  0  0  0  0  0  0999 V2000
    3.7371  -20.4222   25.2666 N   0  0  0  0  0  0  0  0  0  0  0  0
    3.2117  -20.9670   24.1416 C   0  0  0  0  0  0  0  0  0  0  0  0
    4.0423  -21.2604   23.0121 N   0  0  0  0  0  0  0  0  0  0  0  0
    1.8972  -21.2391   24.0581 N   0  0  0  0  0  0  0  0  0  0  0  0
    1.0463  -20.9809   25.1092 C   0  0  0  0  0  0  0  0  0  0  0  0
    1.5545  -20.4228   26.2679 C   0  0  0  0  0  0  0  0  0  0  0  0
    2.9515  -20.1386   26.3284 C   0  0  0  0  0  0  0  0  0  0  0  0
    3.5105  -19.5590   27.5115 N   0  0  0  0  0  0  0  0  0  0  0  0
    0.4899  -20.2731   27.1362 N   0  0  0  0  0  0  0  0  0  0  0  0
   -0.6306  -20.7163   26.5315 C   0  0  0  0  0  0  0  0  0  0  0  0
   -0.3186  -21.1514   25.2945 N   0  0  0  0  0  0  0  0  0  0  0  0
  1  7  2  0  0  0  0
  1  2  1  0  0  0  0
  2  3  1  0  0  0  0
  2  4  2  0  0  0  0
  4  5  1  0  0  0  0
  5  6  2  0  0  0  0
  5 11  1  0  0  0  0
  6  7  1  0  0  0  0
  6  9  1  0  0  0  0
  7  8  1  0  0  0  0
  9 10  1  0  0  0  0
 10 11  2  0  0  0  0
M  END
>  <CHROM.1>
1.97644699,-20.64847142,25.50314831,-0.56138310,0.16949420,1.19071173

>  <Name>
ligand

>  <RI>
0

>  <Rbt.Current_Directory>
/home/itssahil/PROJECTS/Mol_Feturizer/New_Systems/rnas/4LVZ

>  <Rbt.Executable>
rbdock ($Id: //depot/dev/client3/rdock/2013.1/src/exe/rbdock.cxx#4 $)

>  <Rbt.Library>
libRbt.so (2013.1, Build901 2013/11/27)

>  <Rbt.Parameter_File>
/export/apps/rDock/src/rDock_2013.1_src/data/scripts/dock_solv.prm

>  <Rbt.Receptor>
prm/pocket_docking_8.prm

>  <SCORE>
-9.46032

>  <SCORE.INTER>
-9.46032

>  <SCORE.INTER.CONST>
1

>  <SCORE.INTER.POLAR>
0

>  <SCORE.INTER.ROT>
0

>  <SCORE.INTER.SOLV>
12.6708

>  <SCORE.INTER.VDW>
-14.1305

>  <SCORE.INTER.norm>
-0.860029

>  <SCORE.INTRA>
0

>  <SCORE.INTRA.DIHEDRAL>
0

>  <SCORE.INTRA.DIHEDRAL.0>
0

>  <SCORE.INTRA.POLAR>
0

>  <SCORE.INTRA.POLAR.0>
0

>  <SCORE.INTRA.REPUL>
0

>  <SCORE.INTRA.REPUL.0>
0

>  <SCORE.INTRA.SOLV>
0

>  <SCORE.INTRA.SOLV.lig_0>
-49.4056

>  <SCORE.INTRA.VDW>
0

>  <SCORE.INTRA.VDW.0>
0

>  <SCORE.INTRA.norm>
0

>  <SCORE.RESTR>
0

>  <SCORE.RESTR.CAVITY>
0

>  <SCORE.RESTR.norm>
0

>  <SCORE.SYSTEM>
0

>  <SCORE.SYSTEM.CONST>
0

>  <SCORE.SYSTEM.DIHEDRAL>
0

>  <SCORE.SYSTEM.SOLV>
0

>  <SCORE.SYSTEM.norm>
0

>  <SCORE.heavy>
11

>  <SCORE.norm>
-0.860029

>  <RMSD>
2.837

$$$$
ligand
 OpenBabel11021811503D
libRbt.so/2013.1/901 2013/11/27
 11 12  0  0  0  0  0  0  0  0999 V2000
    3.7239  -20.4697   25.3168 N   0  0  0  0  0  0  0  0  0  0  0  0
    3.2287  -21.0146   24.1782 C   0  0  0  0  0  0  0  0  0  0  0  0
    4.0912  -21.3186   23.0756 N   0  0  0  0  0  0  0  0  0  0  0  0
    1.9154  -21.2769   24.0556 N   0  0  0  0  0  0  0  0  0  0  0  0
    1.0349  -21.0082   25.0794 C   0  0  0  0  0  0  0  0  0  0  0  0
    1.5119  -20.4497   26.2511 C   0  0  0  0  0  0  0  0  0  0  0  0
    2.9085  -20.1761   26.3532 C   0  0  0  0  0  0  0  0  0  0  0  0
    3.4357  -19.5965   27.5507 N   0  0  0  0  0  0  0  0  0  0  0  0
    0.4225  -20.2886   27.0860 N   0  0  0  0  0  0  0  0  0  0  0  0
   -0.6825  -20.7254   26.4489 C   0  0  0  0  0  0  0  0  0  0  0  0
   -0.3364  -21.1675   25.2235 N   0  0  0  0  0  0  0  0  0  0  0  0
  1  7  2  0  0  0  0
  1  2  1  0  0  0  0
  2  3  1  0  0  0  0
  2  4  2  0  0  0  0
  4  5  1  0  0  0  0
  5  6  2  0  0  0  0
  5 11  1  0  0  0  0
  6  7  1  0  0  0  0
  6  9  1  0  0  0  0
  7  8  1  0  0  0  0
  9 10  1  0  0  0  0
 10 11  2  0  0  0  0
M  END
>  <CHROM.1>
1.95514085,-20.68151279,25.50034977,-0.53568585,0.15086588,1.18301142

>  <Name>
ligand

>  <RI>
0

>  <Rbt.Current_Directory>
/home/itssahil/PROJECTS/Mol_Feturizer/New_Systems/rnas/4LVZ

>  <Rbt.Executable>
rbdock ($Id: //depot/dev/client3/rdock/2013.1/src/exe/rbdock.cxx#4 $)

>  <Rbt.Library>
libRbt.so (2013.1, Build901 2013/11/27)

>  <Rbt.Parameter_File>
/export/apps/rDock/src/rDock_2013.1_src/data/scripts/dock_solv.prm

>  <Rbt.Receptor>
prm/pocket_docking_8.prm

>  <SCORE>
-9.51222

>  <SCORE.INTER>
-9.51222

>  <SCORE.INTER.CONST>
1

>  <SCORE.INTER.POLAR>
0

>  <SCORE.INTER.ROT>
0

>  <SCORE.INTER.SOLV>
12.6825

>  <SCORE.INTER.VDW>
-14.169

>  <SCORE.INTER.norm>
-0.864747

>  <SCORE.INTRA>
0

>  <SCORE.INTRA.DIHEDRAL>
0

>  <SCORE.INTRA.DIHEDRAL.0>
0

>  <SCORE.INTRA.POLAR>
0

>  <SCORE.INTRA.POLAR.0>
0

>  <SCORE.INTRA.REPUL>
0

>  <SCORE.INTRA.REPUL.0>
0

>  <SCORE.INTRA.SOLV>
0

>  <SCORE.INTRA.SOLV.lig_0>
-49.4056

>  <SCORE.INTRA.VDW>
0

>  <SCORE.INTRA.VDW.0>
0

>  <SCORE.INTRA.norm>
0

>  <SCORE.RESTR>
0

>  <SCORE.RESTR.CAVITY>
0

>  <SCORE.RESTR.norm>
0

>  <SCORE.SYSTEM>
0

>  <SCORE.SYSTEM.CONST>
0

>  <SCORE.SYSTEM.DIHEDRAL>
0

>  <SCORE.SYSTEM.SOLV>
0

>  <SCORE.SYSTEM.norm>
0

>  <SCORE.heavy>
11

>  <SCORE.norm>
-0.864747

>  <RMSD>
2.837

$$$$
ligand
 OpenBabel11021811503D
libRbt.so/2013.1/901 2013/11/27
 11 12  0  0  0  0  0  0  0  0999 V2000
    3.7961  -20.4967   25.3211 N   0  0  0  0  0  0  0  0  0  0  0  0
    3.2996  -21.0143   24.1703 C   0  0  0  0  0  0  0  0  0  0  0  0
    4.1647  -21.3179   23.0697 N   0  0  0  0  0  0  0  0  0  0  0  0
    1.9824  -21.2491   24.0336 N   0  0  0  0  0  0  0  0  0  0  0  0
    1.0992  -20.9792   25.0547 C   0  0  0  0  0  0  0  0  0  0  0  0
    1.5776  -20.4483   26.2386 C   0  0  0  0  0  0  0  0  0  0  0  0
    2.9784  -20.2034   26.3556 C   0  0  0  0  0  0  0  0  0  0  0  0
    3.5071  -19.6527   27.5660 N   0  0  0  0  0  0  0  0  0  0  0  0
    0.4849  -20.2790   27.0675 N   0  0  0  0  0  0  0  0  0  0  0  0
   -0.6233  -20.6843   26.4153 C   0  0  0  0  0  0  0  0  0  0  0  0
   -0.2760  -21.1141   25.1858 N   0  0  0  0  0  0  0  0  0  0  0  0
  1  7  2  0  0  0  0
  1  2  1  0  0  0  0
  2  3  1  0  0  0  0
  2  4  2  0  0  0  0
  4  5  1  0  0  0  0
  5  6  2  0  0  0  0
  5 11  1  0  0  0  0
  6  7  1  0  0  0  0
  6  9  1  0  0  0  0
  7  8  1  0  0  0  0
  9 10  1  0  0  0  0
 10 11  2  0  0  0  0
M  END
>  <CHROM.1>
2.02221689,-20.67699159,25.48770486,-0.53562741,0.12999904,1.19854681

>  <Name>
ligand

>  <RI>
0

>  <Rbt.Current_Directory>
/home/itssahil/PROJECTS/Mol_Feturizer/New_Systems/rnas/4LVZ

>  <Rbt.Executable>
rbdock ($Id: //depot/dev/client3/rdock/2013.1/src/exe/rbdock.cxx#4 $)

>  <Rbt.Library>
libRbt.so (2013.1, Build901 2013/11/27)

>  <Rbt.Parameter_File>
/export/apps/rDock/src/rDock_2013.1_src/data/scripts/dock_solv.prm

>  <Rbt.Receptor>
prm/pocket_docking_3.prm

>  <SCORE>
-9.44841

>  <SCORE.INTER>
-9.44841

>  <SCORE.INTER.CONST>
1

>  <SCORE.INTER.POLAR>
0

>  <SCORE.INTER.ROT>
0

>  <SCORE.INTER.SOLV>
12.0569

>  <SCORE.INTER.VDW>
-13.9179

>  <SCORE.INTER.norm>
-0.858946

>  <SCORE.INTRA>
0

>  <SCORE.INTRA.DIHEDRAL>
0

>  <SCORE.INTRA.DIHEDRAL.0>
0

>  <SCORE.INTRA.POLAR>
0

>  <SCORE.INTRA.POLAR.0>
0

>  <SCORE.INTRA.REPUL>
0

>  <SCORE.INTRA.REPUL.0>
0

>  <SCORE.INTRA.SOLV>
0

>  <SCORE.INTRA.SOLV.lig_0>
-49.4056

>  <SCORE.INTRA.VDW>
0

>  <SCORE.INTRA.VDW.0>
0

>  <SCORE.INTRA.norm>
0

>  <SCORE.RESTR>
0

>  <SCORE.RESTR.CAVITY>
0

>  <SCORE.RESTR.norm>
0

>  <SCORE.SYSTEM>
0

>  <SCORE.SYSTEM.CONST>
0

>  <SCORE.SYSTEM.DIHEDRAL>
0

>  <SCORE.SYSTEM.SOLV>
0

>  <SCORE.SYSTEM.norm>
0

>  <SCORE.heavy>
11

>  <SCORE.norm>
-0.858946

>  <RMSD>
2.838

$$$$
ligand
 OpenBabel11021811503D
libRbt.so/2013.1/901 2013/11/27
 11 12  0  0  0  0  0  0  0  0999 V2000
    3.7217  -20.4831   25.3139 N   0  0  0  0  0  0  0  0  0  0  0  0
    3.2392  -21.0525   24.1818 C   0  0  0  0  0  0  0  0  0  0  0  0
    4.1094  -21.3550   23.0849 N   0  0  0  0  0  0  0  0  0  0  0  0
    1.9312  -21.3408   24.0604 N   0  0  0  0  0  0  0  0  0  0  0  0
    1.0437  -21.0749   25.0789 C   0  0  0  0  0  0  0  0  0  0  0  0
    1.5078  -20.4920   26.2438 C   0  0  0  0  0  0  0  0  0  0  0  0
    2.8989  -20.1909   26.3448 C   0  0  0  0  0  0  0  0  0  0  0  0
    3.4127  -19.5855   27.5353 N   0  0  0  0  0  0  0  0  0  0  0  0
    0.4139  -20.3401   27.0746 N   0  0  0  0  0  0  0  0  0  0  0  0
   -0.6815  -20.8060   26.4415 C   0  0  0  0  0  0  0  0  0  0  0  0
   -0.3246  -21.2579   25.2227 N   0  0  0  0  0  0  0  0  0  0  0  0
  1  7  2  0  0  0  0
  1  2  1  0  0  0  0
  2  3  1  0  0  0  0
  2  4  2  0  0  0  0
  4  5  1  0  0  0  0
  5  6  2  0  0  0  0
  5 11  1  0  0  0  0
  6  7  1  0  0  0  0
  6  9  1  0  0  0  0
  7  8  1  0  0  0  0
  9 10  1  0  0  0  0
 10 11  2  0  0  0  0
M  END
>  <CHROM.1>
1.95685717,-20.72549910,25.49708383,-0.52660201,0.16738341,1.16813682

>  <Name>
ligand

>  <RI>
0

>  <Rbt.Current_Directory>
/home/itssahil/PROJECTS/Mol_Feturizer/New_Systems/rnas/4LVZ

>  <Rbt.Executable>
rbdock ($Id: //depot/dev/client3/rdock/2013.1/src/exe/rbdock.cxx#4 $)

>  <Rbt.Library>
libRbt.so (2013.1, Build901 2013/11/27)

>  <Rbt.Parameter_File>
/export/apps/rDock/src/rDock_2013.1_src/data/scripts/dock_solv.prm

>  <Rbt.Receptor>
prm/pocket_docking_4.prm

>  <SCORE>
-9.49009

>  <SCORE.INTER>
-9.49009

>  <SCORE.INTER.CONST>
1

>  <SCORE.INTER.POLAR>
0

>  <SCORE.INTER.ROT>
0

>  <SCORE.INTER.SOLV>
12.6844

>  <SCORE.INTER.VDW>
-14.1549

>  <SCORE.INTER.norm>
-0.862736

>  <SCORE.INTRA>
0

>  <SCORE.INTRA.DIHEDRAL>
0

>  <SCORE.INTRA.DIHEDRAL.0>
0

>  <SCORE.INTRA.POLAR>
0

>  <SCORE.INTRA.POLAR.0>
0

>  <SCORE.INTRA.REPUL>
0

>  <SCORE.INTRA.REPUL.0>
0

>  <SCORE.INTRA.SOLV>
0

>  <SCORE.INTRA.SOLV.lig_0>
-49.4056

>  <SCORE.INTRA.VDW>
0

>  <SCORE.INTRA.VDW.0>
0

>  <SCORE.INTRA.norm>
0

>  <SCORE.RESTR>
0

>  <SCORE.RESTR.CAVITY>
0

>  <SCORE.RESTR.norm>
0

>  <SCORE.SYSTEM>
0

>  <SCORE.SYSTEM.CONST>
0

>  <SCORE.SYSTEM.DIHEDRAL>
0

>  <SCORE.SYSTEM.SOLV>
0

>  <SCORE.SYSTEM.norm>
0

>  <SCORE.heavy>
11

>  <SCORE.norm>
-0.862736

>  <RMSD>
2.838

$$$$
ligand
 OpenBabel11021811503D
libRbt.so/2013.1/901 2013/11/27
 11 12  0  0  0  0  0  0  0  0999 V2000
    3.7039  -20.4550   25.3057 N   0  0  0  0  0  0  0  0  0  0  0  0
    3.2060  -21.0132   24.1747 C   0  0  0  0  0  0  0  0  0  0  0  0
    4.0655  -21.3285   23.0730 N   0  0  0  0  0  0  0  0  0  0  0  0
    1.8926  -21.2783   24.0590 N   0  0  0  0  0  0  0  0  0  0  0  0
    1.0148  -20.9992   25.0824 C   0  0  0  0  0  0  0  0  0  0  0  0
    1.4947  -20.4272   26.2463 C   0  0  0  0  0  0  0  0  0  0  0  0
    2.8913  -20.1508   26.3412 C   0  0  0  0  0  0  0  0  0  0  0  0
    3.4214  -19.5573   27.5306 N   0  0  0  0  0  0  0  0  0  0  0  0
    0.4076  -20.2581   27.0827 N   0  0  0  0  0  0  0  0  0  0  0  0
   -0.6988  -20.7032   26.4538 C   0  0  0  0  0  0  0  0  0  0  0  0
   -0.3558  -21.1585   25.2324 N   0  0  0  0  0  0  0  0  0  0  0  0
  1  7  2  0  0  0  0
  1  2  1  0  0  0  0
  2  3  1  0  0  0  0
  2  4  2  0  0  0  0
  4  5  1  0  0  0  0
  5  6  2  0  0  0  0
  5 11  1  0  0  0  0
  6  7  1  0  0  0  0
  6  9  1  0  0  0  0
  7  8  1  0  0  0  0
  9 10  1  0  0  0  0
 10 11  2  0  0  0  0
M  END
>  <CHROM.1>
1.93597103,-20.66683314,25.49689135,-0.53803881,0.15308910,1.17221488

>  <Name>
ligand

>  <RI>
0

>  <Rbt.Current_Directory>
/home/itssahil/PROJECTS/Mol_Feturizer/New_Systems/rnas/4LVZ

>  <Rbt.Executable>
rbdock ($Id: //depot/dev/client3/rdock/2013.1/src/exe/rbdock.cxx#4 $)

>  <Rbt.Library>
libRbt.so (2013.1, Build901 2013/11/27)

>  <Rbt.Parameter_File>
/export/apps/rDock/src/rDock_2013.1_src/data/scripts/dock_solv.prm

>  <Rbt.Receptor>
prm/pocket_docking_4.prm

>  <SCORE>
-9.46878

>  <SCORE.INTER>
-9.46878

>  <SCORE.INTER.CONST>
1

>  <SCORE.INTER.POLAR>
0

>  <SCORE.INTER.ROT>
0

>  <SCORE.INTER.SOLV>
12.9103

>  <SCORE.INTER.VDW>
-14.216

>  <SCORE.INTER.norm>
-0.860798

>  <SCORE.INTRA>
0

>  <SCORE.INTRA.DIHEDRAL>
0

>  <SCORE.INTRA.DIHEDRAL.0>
0

>  <SCORE.INTRA.POLAR>
0

>  <SCORE.INTRA.POLAR.0>
0

>  <SCORE.INTRA.REPUL>
0

>  <SCORE.INTRA.REPUL.0>
0

>  <SCORE.INTRA.SOLV>
0

>  <SCORE.INTRA.SOLV.lig_0>
-49.4056

>  <SCORE.INTRA.VDW>
0

>  <SCORE.INTRA.VDW.0>
0

>  <SCORE.INTRA.norm>
0

>  <SCORE.RESTR>
0

>  <SCORE.RESTR.CAVITY>
0

>  <SCORE.RESTR.norm>
0

>  <SCORE.SYSTEM>
0

>  <SCORE.SYSTEM.CONST>
0

>  <SCORE.SYSTEM.DIHEDRAL>
0

>  <SCORE.SYSTEM.SOLV>
0

>  <SCORE.SYSTEM.norm>
0

>  <SCORE.heavy>
11

>  <SCORE.norm>
-0.860798

>  <RMSD>
2.838

$$$$
ligand
 OpenBabel11021811503D
libRbt.so/2013.1/901 2013/11/27
 11 12  0  0  0  0  0  0  0  0999 V2000
    3.7187  -20.4703   25.3128 N   0  0  0  0  0  0  0  0  0  0  0  0
    3.2250  -21.0148   24.1733 C   0  0  0  0  0  0  0  0  0  0  0  0
    4.0888  -21.3185   23.0717 N   0  0  0  0  0  0  0  0  0  0  0  0
    1.9118  -21.2768   24.0489 N   0  0  0  0  0  0  0  0  0  0  0  0
    1.0300  -21.0084   25.0716 C   0  0  0  0  0  0  0  0  0  0  0  0
    1.5055  -20.4504   26.2441 C   0  0  0  0  0  0  0  0  0  0  0  0
    2.9021  -20.1770   26.3482 C   0  0  0  0  0  0  0  0  0  0  0  0
    3.4278  -19.5978   27.5466 N   0  0  0  0  0  0  0  0  0  0  0  0
    0.4151  -20.2894   27.0777 N   0  0  0  0  0  0  0  0  0  0  0  0
   -0.6892  -20.7259   26.4390 C   0  0  0  0  0  0  0  0  0  0  0  0
   -0.3415  -21.1676   25.2139 N   0  0  0  0  0  0  0  0  0  0  0  0
  1  7  2  0  0  0  0
  1  2  1  0  0  0  0
  2  3  1  0  0  0  0
  2  4  2  0  0  0  0
  4  5  1  0  0  0  0
  5  6  2  0  0  0  0
  5 11  1  0  0  0  0
  6  7  1  0  0  0  0
  6  9  1  0  0  0  0
  7  8  1  0  0  0  0
  9 10  1  0  0  0  0
 10 11  2  0  0  0  0
M  END
>  <CHROM.1>
1.94973726,-20.68195776,25.49388851,-0.53451473,0.15025788,1.18317932

>  <Name>
ligand

>  <RI>
0

>  <Rbt.Current_Directory>
/home/itssahil/PROJECTS/Mol_Feturizer/New_Systems/rnas/4LVZ

>  <Rbt.Executable>
rbdock ($Id: //depot/dev/client3/rdock/2013.1/src/exe/rbdock.cxx#4 $)

>  <Rbt.Library>
libRbt.so (2013.1, Build901 2013/11/27)

>  <Rbt.Parameter_File>
/export/apps/rDock/src/rDock_2013.1_src/data/scripts/dock_solv.prm

>  <Rbt.Receptor>
prm/pocket_docking_5.prm

>  <SCORE>
-9.50686

>  <SCORE.INTER>
-9.50686

>  <SCORE.INTER.CONST>
1

>  <SCORE.INTER.POLAR>
0

>  <SCORE.INTER.ROT>
0

>  <SCORE.INTER.SOLV>
12.7043

>  <SCORE.INTER.VDW>
-14.1727

>  <SCORE.INTER.norm>
-0.86426

>  <SCORE.INTRA>
0

>  <SCORE.INTRA.DIHEDRAL>
0

>  <SCORE.INTRA.DIHEDRAL.0>
0

>  <SCORE.INTRA.POLAR>
0

>  <SCORE.INTRA.POLAR.0>
0

>  <SCORE.INTRA.REPUL>
0

>  <SCORE.INTRA.REPUL.0>
0

>  <SCORE.INTRA.SOLV>
0

>  <SCORE.INTRA.SOLV.lig_0>
-49.4056

>  <SCORE.INTRA.VDW>
0

>  <SCORE.INTRA.VDW.0>
0

>  <SCORE.INTRA.norm>
0

>  <SCORE.RESTR>
0

>  <SCORE.RESTR.CAVITY>
0

>  <SCORE.RESTR.norm>
0

>  <SCORE.SYSTEM>
0

>  <SCORE.SYSTEM.CONST>
0

>  <SCORE.SYSTEM.DIHEDRAL>
0

>  <SCORE.SYSTEM.SOLV>
0

>  <SCORE.SYSTEM.norm>
0

>  <SCORE.heavy>
11

>  <SCORE.norm>
-0.86426

>  <RMSD>
2.838

$$$$
ligand
 OpenBabel11021811503D
libRbt.so/2013.1/901 2013/11/27
 11 12  0  0  0  0  0  0  0  0999 V2000
    3.7155  -20.4705   25.3163 N   0  0  0  0  0  0  0  0  0  0  0  0
    3.2203  -21.0118   24.1759 C   0  0  0  0  0  0  0  0  0  0  0  0
    4.0836  -21.3178   23.0745 N   0  0  0  0  0  0  0  0  0  0  0  0
    1.9061  -21.2685   24.0504 N   0  0  0  0  0  0  0  0  0  0  0  0
    1.0248  -20.9976   25.0730 C   0  0  0  0  0  0  0  0  0  0  0  0
    1.5019  -20.4428   26.2464 C   0  0  0  0  0  0  0  0  0  0  0  0
    2.8994  -20.1751   26.3515 C   0  0  0  0  0  0  0  0  0  0  0  0
    3.4267  -19.5994   27.5509 N   0  0  0  0  0  0  0  0  0  0  0  0
    0.4116  -20.2785   27.0795 N   0  0  0  0  0  0  0  0  0  0  0  0
   -0.6940  -20.7098   26.4397 C   0  0  0  0  0  0  0  0  0  0  0  0
   -0.3474  -21.1515   25.2143 N   0  0  0  0  0  0  0  0  0  0  0  0
  1  7  2  0  0  0  0
  1  2  1  0  0  0  0
  2  3  1  0  0  0  0
  2  4  2  0  0  0  0
  4  5  1  0  0  0  0
  5  6  2  0  0  0  0
  5 11  1  0  0  0  0
  6  7  1  0  0  0  0
  6  9  1  0  0  0  0
  7  8  1  0  0  0  0
  9 10  1  0  0  0  0
 10 11  2  0  0  0  0
M  END
>  <CHROM.1>
1.94560033,-20.67535280,25.49613417,-0.53548690,0.14634807,1.18442783

>  <Name>
ligand

>  <RI>
0

>  <Rbt.Current_Directory>
/home/itssahil/PROJECTS/Mol_Feturizer/New_Systems/rnas/4LVZ

>  <Rbt.Executable>
rbdock ($Id: //depot/dev/client3/rdock/2013.1/src/exe/rbdock.cxx#4 $)

>  <Rbt.Library>
libRbt.so (2013.1, Build901 2013/11/27)

>  <Rbt.Parameter_File>
/export/apps/rDock/src/rDock_2013.1_src/data/scripts/dock_solv.prm

>  <Rbt.Receptor>
prm/pocket_docking_6.prm

>  <SCORE>
-9.53824

>  <SCORE.INTER>
-9.53824

>  <SCORE.INTER.CONST>
1

>  <SCORE.INTER.POLAR>
0

>  <SCORE.INTER.ROT>
0

>  <SCORE.INTER.SOLV>
12.7405

>  <SCORE.INTER.VDW>
-14.2057

>  <SCORE.INTER.norm>
-0.867113

>  <SCORE.INTRA>
0

>  <SCORE.INTRA.DIHEDRAL>
0

>  <SCORE.INTRA.DIHEDRAL.0>
0

>  <SCORE.INTRA.POLAR>
0

>  <SCORE.INTRA.POLAR.0>
0

>  <SCORE.INTRA.REPUL>
0

>  <SCORE.INTRA.REPUL.0>
0

>  <SCORE.INTRA.SOLV>
0

>  <SCORE.INTRA.SOLV.lig_0>
-49.4056

>  <SCORE.INTRA.VDW>
0

>  <SCORE.INTRA.VDW.0>
0

>  <SCORE.INTRA.norm>
0

>  <SCORE.RESTR>
0

>  <SCORE.RESTR.CAVITY>
0

>  <SCORE.RESTR.norm>
0

>  <SCORE.SYSTEM>
0

>  <SCORE.SYSTEM.CONST>
0

>  <SCORE.SYSTEM.DIHEDRAL>
0

>  <SCORE.SYSTEM.SOLV>
0

>  <SCORE.SYSTEM.norm>
0

>  <SCORE.heavy>
11

>  <SCORE.norm>
-0.867113

>  <RMSD>
2.838

$$$$
ligand
 OpenBabel11021811503D
libRbt.so/2013.1/901 2013/11/27
 11 12  0  0  0  0  0  0  0  0999 V2000
    3.7199  -20.4682   25.3144 N   0  0  0  0  0  0  0  0  0  0  0  0
    3.2257  -21.0146   24.1761 C   0  0  0  0  0  0  0  0  0  0  0  0
    4.0891  -21.3206   23.0747 N   0  0  0  0  0  0  0  0  0  0  0  0
    1.9123  -21.2765   24.0525 N   0  0  0  0  0  0  0  0  0  0  0  0
    1.0309  -21.0059   25.0750 C   0  0  0  0  0  0  0  0  0  0  0  0
    1.5070  -20.4459   26.2464 C   0  0  0  0  0  0  0  0  0  0  0  0
    2.9037  -20.1727   26.3495 C   0  0  0  0  0  0  0  0  0  0  0  0
    3.4299  -19.5915   27.5467 N   0  0  0  0  0  0  0  0  0  0  0  0
    0.4168  -20.2832   27.0800 N   0  0  0  0  0  0  0  0  0  0  0  0
   -0.6877  -20.7204   26.4424 C   0  0  0  0  0  0  0  0  0  0  0  0
   -0.3405  -21.1645   25.2180 N   0  0  0  0  0  0  0  0  0  0  0  0
  1  7  2  0  0  0  0
  1  2  1  0  0  0  0
  2  3  1  0  0  0  0
  2  4  2  0  0  0  0
  4  5  1  0  0  0  0
  5  6  2  0  0  0  0
  5 11  1  0  0  0  0
  6  7  1  0  0  0  0
  6  9  1  0  0  0  0
  7  8  1  0  0  0  0
  9 10  1  0  0  0  0
 10 11  2  0  0  0  0
M  END
>  <CHROM.1>
1.95091903,-20.67900157,25.49642961,-0.53490242,0.15012011,1.18141245

>  <Name>
ligand

>  <RI>
0

>  <Rbt.Current_Directory>
/home/itssahil/PROJECTS/Mol_Feturizer/New_Systems/rnas/4LVZ

>  <Rbt.Executable>
rbdock ($Id: //depot/dev/client3/rdock/2013.1/src/exe/rbdock.cxx#4 $)

>  <Rbt.Library>
libRbt.so (2013.1, Build901 2013/11/27)

>  <Rbt.Parameter_File>
/export/apps/rDock/src/rDock_2013.1_src/data/scripts/dock_solv.prm

>  <Rbt.Receptor>
prm/pocket_docking_6.prm

>  <SCORE>
-9.50845

>  <SCORE.INTER>
-9.50845

>  <SCORE.INTER.CONST>
1

>  <SCORE.INTER.POLAR>
0

>  <SCORE.INTER.ROT>
0

>  <SCORE.INTER.SOLV>
12.7163

>  <SCORE.INTER.VDW>
-14.1777

>  <SCORE.INTER.norm>
-0.864404

>  <SCORE.INTRA>
0

>  <SCORE.INTRA.DIHEDRAL>
0

>  <SCORE.INTRA.DIHEDRAL.0>
0

>  <SCORE.INTRA.POLAR>
0

>  <SCORE.INTRA.POLAR.0>
0

>  <SCORE.INTRA.REPUL>
0

>  <SCORE.INTRA.REPUL.0>
0

>  <SCORE.INTRA.SOLV>
0

>  <SCORE.INTRA.SOLV.lig_0>
-49.4056

>  <SCORE.INTRA.VDW>
0

>  <SCORE.INTRA.VDW.0>
0

>  <SCORE.INTRA.norm>
0

>  <SCORE.RESTR>
0

>  <SCORE.RESTR.CAVITY>
0

>  <SCORE.RESTR.norm>
0

>  <SCORE.SYSTEM>
0

>  <SCORE.SYSTEM.CONST>
0

>  <SCORE.SYSTEM.DIHEDRAL>
0

>  <SCORE.SYSTEM.SOLV>
0

>  <SCORE.SYSTEM.norm>
0

>  <SCORE.heavy>
11

>  <SCORE.norm>
-0.864404

>  <RMSD>
2.838

$$$$
ligand
 OpenBabel11021811503D
libRbt.so/2013.1/901 2013/11/27
 11 12  0  0  0  0  0  0  0  0999 V2000
    3.7144  -20.4785   25.3121 N   0  0  0  0  0  0  0  0  0  0  0  0
    3.2052  -21.0263   24.1811 C   0  0  0  0  0  0  0  0  0  0  0  0
    4.0551  -21.3405   23.0716 N   0  0  0  0  0  0  0  0  0  0  0  0
    1.8893  -21.2819   24.0725 N   0  0  0  0  0  0  0  0  0  0  0  0
    1.0203  -21.0033   25.1035 C   0  0  0  0  0  0  0  0  0  0  0  0
    1.5118  -20.4418   26.2677 C   0  0  0  0  0  0  0  0  0  0  0  0
    2.9108  -20.1753   26.3549 C   0  0  0  0  0  0  0  0  0  0  0  0
    3.4528  -19.5928   27.5443 N   0  0  0  0  0  0  0  0  0  0  0  0
    0.4315  -20.2706   27.1124 N   0  0  0  0  0  0  0  0  0  0  0  0
   -0.6821  -20.7044   26.4883 C   0  0  0  0  0  0  0  0  0  0  0  0
   -0.3503  -21.1544   25.2617 N   0  0  0  0  0  0  0  0  0  0  0  0
  1  7  2  0  0  0  0
  1  2  1  0  0  0  0
  2  3  1  0  0  0  0
  2  4  2  0  0  0  0
  4  5  1  0  0  0  0
  5  6  2  0  0  0  0
  5 11  1  0  0  0  0
  6  7  1  0  0  0  0
  6  9  1  0  0  0  0
  7  8  1  0  0  0  0
  9 10  1  0  0  0  0
 10 11  2  0  0  0  0
M  END
>  <CHROM.1>
1.94639938,-20.67968130,25.51384581,-0.54690742,0.14948657,1.17974684

>  <Name>
ligand

>  <RI>
0

>  <Rbt.Current_Directory>
/home/itssahil/PROJECTS/Mol_Feturizer/New_Systems/rnas/4LVZ

>  <Rbt.Executable>
rbdock ($Id: //depot/dev/client3/rdock/2013.1/src/exe/rbdock.cxx#4 $)

>  <Rbt.Library>
libRbt.so (2013.1, Build901 2013/11/27)

>  <Rbt.Parameter_File>
/export/apps/rDock/src/rDock_2013.1_src/data/scripts/dock_solv.prm

>  <Rbt.Receptor>
prm/pocket_docking_7.prm

>  <SCORE>
-9.50838

>  <SCORE.INTER>
-9.50838

>  <SCORE.INTER.CONST>
1

>  <SCORE.INTER.POLAR>
0

>  <SCORE.INTER.ROT>
0

>  <SCORE.INTER.SOLV>
12.8224

>  <SCORE.INTER.VDW>
-14.213

>  <SCORE.INTER.norm>
-0.864398

>  <SCORE.INTRA>
0

>  <SCORE.INTRA.DIHEDRAL>
0

>  <SCORE.INTRA.DIHEDRAL.0>
0

>  <SCORE.INTRA.POLAR>
0

>  <SCORE.INTRA.POLAR.0>
0

>  <SCORE.INTRA.REPUL>
0

>  <SCORE.INTRA.REPUL.0>
0

>  <SCORE.INTRA.SOLV>
0

>  <SCORE.INTRA.SOLV.lig_0>
-49.4056

>  <SCORE.INTRA.VDW>
0

>  <SCORE.INTRA.VDW.0>
0

>  <SCORE.INTRA.norm>
0

>  <SCORE.RESTR>
0

>  <SCORE.RESTR.CAVITY>
0

>  <SCORE.RESTR.norm>
0

>  <SCORE.SYSTEM>
0

>  <SCORE.SYSTEM.CONST>
0

>  <SCORE.SYSTEM.DIHEDRAL>
0

>  <SCORE.SYSTEM.SOLV>
0

>  <SCORE.SYSTEM.norm>
0

>  <SCORE.heavy>
11

>  <SCORE.norm>
-0.864398

>  <RMSD>
2.838

$$$$
ligand
 OpenBabel11021811503D
libRbt.so/2013.1/901 2013/11/27
 11 12  0  0  0  0  0  0  0  0999 V2000
    3.7083  -20.4605   25.3146 N   0  0  0  0  0  0  0  0  0  0  0  0
    3.2178  -21.0118   24.1770 C   0  0  0  0  0  0  0  0  0  0  0  0
    4.0849  -21.3230   23.0801 N   0  0  0  0  0  0  0  0  0  0  0  0
    1.9048  -21.2738   24.0500 N   0  0  0  0  0  0  0  0  0  0  0  0
    1.0199  -20.9984   25.0683 C   0  0  0  0  0  0  0  0  0  0  0  0
    1.4921  -20.4334   26.2388 C   0  0  0  0  0  0  0  0  0  0  0  0
    2.8885  -20.1602   26.3456 C   0  0  0  0  0  0  0  0  0  0  0  0
    3.4107  -19.5739   27.5420 N   0  0  0  0  0  0  0  0  0  0  0  0
    0.3991  -20.2666   27.0678 N   0  0  0  0  0  0  0  0  0  0  0  0
   -0.7034  -20.7063   26.4284 C   0  0  0  0  0  0  0  0  0  0  0  0
   -0.3521  -21.1559   25.2072 N   0  0  0  0  0  0  0  0  0  0  0  0
  1  7  2  0  0  0  0
  1  2  1  0  0  0  0
  2  3  1  0  0  0  0
  2  4  2  0  0  0  0
  4  5  1  0  0  0  0
  5  6  2  0  0  0  0
  5 11  1  0  0  0  0
  6  7  1  0  0  0  0
  6  9  1  0  0  0  0
  7  8  1  0  0  0  0
  9 10  1  0  0  0  0
 10 11  2  0  0  0  0
M  END
>  <CHROM.1>
1.93855113,-20.66994523,25.49142646,-0.53177725,0.14845507,1.17652601

>  <Name>
ligand

>  <RI>
0

>  <Rbt.Current_Directory>
/home/itssahil/PROJECTS/Mol_Feturizer/New_Systems/rnas/4LVZ

>  <Rbt.Executable>
rbdock ($Id: //depot/dev/client3/rdock/2013.1/src/exe/rbdock.cxx#4 $)

>  <Rbt.Library>
libRbt.so (2013.1, Build901 2013/11/27)

>  <Rbt.Parameter_File>
/export/apps/rDock/src/rDock_2013.1_src/data/scripts/dock_solv.prm

>  <Rbt.Receptor>
prm/pocket_docking_7.prm

>  <SCORE>
-9.52202

>  <SCORE.INTER>
-9.52202

>  <SCORE.INTER.CONST>
1

>  <SCORE.INTER.POLAR>
0

>  <SCORE.INTER.ROT>
0

>  <SCORE.INTER.SOLV>
12.8341

>  <SCORE.INTER.VDW>
-14.2261

>  <SCORE.INTER.norm>
-0.865638

>  <SCORE.INTRA>
0

>  <SCORE.INTRA.DIHEDRAL>
0

>  <SCORE.INTRA.DIHEDRAL.0>
0

>  <SCORE.INTRA.POLAR>
0

>  <SCORE.INTRA.POLAR.0>
0

>  <SCORE.INTRA.REPUL>
0

>  <SCORE.INTRA.REPUL.0>
0

>  <SCORE.INTRA.SOLV>
0

>  <SCORE.INTRA.SOLV.lig_0>
-49.4056

>  <SCORE.INTRA.VDW>
0

>  <SCORE.INTRA.VDW.0>
0

>  <SCORE.INTRA.norm>
0

>  <SCORE.RESTR>
0

>  <SCORE.RESTR.CAVITY>
0

>  <SCORE.RESTR.norm>
0

>  <SCORE.SYSTEM>
0

>  <SCORE.SYSTEM.CONST>
0

>  <SCORE.SYSTEM.DIHEDRAL>
0

>  <SCORE.SYSTEM.SOLV>
0

>  <SCORE.SYSTEM.norm>
0

>  <SCORE.heavy>
11

>  <SCORE.norm>
-0.865638

>  <RMSD>
2.838

$$$$
ligand
 OpenBabel11021811503D
libRbt.so/2013.1/901 2013/11/27
 11 12  0  0  0  0  0  0  0  0999 V2000
    3.7134  -20.4730   25.3167 N   0  0  0  0  0  0  0  0  0  0  0  0
    3.2184  -21.0147   24.1765 C   0  0  0  0  0  0  0  0  0  0  0  0
    4.0820  -21.3219   23.0757 N   0  0  0  0  0  0  0  0  0  0  0  0
    1.9041  -21.2706   24.0506 N   0  0  0  0  0  0  0  0  0  0  0  0
    1.0225  -20.9986   25.0725 C   0  0  0  0  0  0  0  0  0  0  0  0
    1.4994  -20.4433   26.2458 C   0  0  0  0  0  0  0  0  0  0  0  0
    2.8970  -20.1763   26.3514 C   0  0  0  0  0  0  0  0  0  0  0  0
    3.4241  -19.6001   27.5506 N   0  0  0  0  0  0  0  0  0  0  0  0
    0.4088  -20.2777   27.0782 N   0  0  0  0  0  0  0  0  0  0  0  0
   -0.6968  -20.7088   26.4382 C   0  0  0  0  0  0  0  0  0  0  0  0
   -0.3498  -21.1516   25.2132 N   0  0  0  0  0  0  0  0  0  0  0  0
  1  7  2  0  0  0  0
  1  2  1  0  0  0  0
  2  3  1  0  0  0  0
  2  4  2  0  0  0  0
  4  5  1  0  0  0  0
  5  6  2  0  0  0  0
  5 11  1  0  0  0  0
  6  7  1  0  0  0  0
  6  9  1  0  0  0  0
  7  8  1  0  0  0  0
  9 10  1  0  0  0  0
 10 11  2  0  0  0  0
M  END
>  <CHROM.1>
1.94329397,-20.67659532,25.49587631,-0.53527648,0.14560681,1.18372934

>  <Name>
ligand

>  <RI>
0

>  <Rbt.Current_Directory>
/home/itssahil/PROJECTS/Mol_Feturizer/New_Systems/rnas/4LVZ

>  <Rbt.Executable>
rbdock ($Id: //depot/dev/client3/rdock/2013.1/src/exe/rbdock.cxx#4 $)

>  <Rbt.Library>
libRbt.so (2013.1, Build901 2013/11/27)

>  <Rbt.Parameter_File>
/export/apps/rDock/src/rDock_2013.1_src/data/scripts/dock_solv.prm

>  <Rbt.Receptor>
prm/pocket_docking_8.prm

>  <SCORE>
-9.5335

>  <SCORE.INTER>
-9.5335

>  <SCORE.INTER.CONST>
1

>  <SCORE.INTER.POLAR>
0

>  <SCORE.INTER.ROT>
0

>  <SCORE.INTER.SOLV>
12.7589

>  <SCORE.INTER.VDW>
-14.2086

>  <SCORE.INTER.norm>
-0.866682

>  <SCORE.INTRA>
0

>  <SCORE.INTRA.DIHEDRAL>
0

>  <SCORE.INTRA.DIHEDRAL.0>
0

>  <SCORE.INTRA.POLAR>
0

>  <SCORE.INTRA.POLAR.0>
0

>  <SCORE.INTRA.REPUL>
0

>  <SCORE.INTRA.REPUL.0>
0

>  <SCORE.INTRA.SOLV>
0

>  <SCORE.INTRA.SOLV.lig_0>
-49.4056

>  <SCORE.INTRA.VDW>
0

>  <SCORE.INTRA.VDW.0>
0

>  <SCORE.INTRA.norm>
0

>  <SCORE.RESTR>
0

>  <SCORE.RESTR.CAVITY>
0

>  <SCORE.RESTR.norm>
0

>  <SCORE.SYSTEM>
0

>  <SCORE.SYSTEM.CONST>
0

>  <SCORE.SYSTEM.DIHEDRAL>
0

>  <SCORE.SYSTEM.SOLV>
0

>  <SCORE.SYSTEM.norm>
0

>  <SCORE.heavy>
11

>  <SCORE.norm>
-0.866682

>  <RMSD>
2.838

$$$$
ligand
 OpenBabel11021811503D
libRbt.so/2013.1/901 2013/11/27
 11 12  0  0  0  0  0  0  0  0999 V2000
    3.8206  -20.4727   25.2967 N   0  0  0  0  0  0  0  0  0  0  0  0
    3.3239  -21.0302   24.1649 C   0  0  0  0  0  0  0  0  0  0  0  0
    4.1850  -21.3481   23.0652 N   0  0  0  0  0  0  0  0  0  0  0  0
    2.0100  -21.2921   24.0463 N   0  0  0  0  0  0  0  0  0  0  0  0
    1.1307  -21.0104   25.0677 C   0  0  0  0  0  0  0  0  0  0  0  0
    1.6094  -20.4390   26.2324 C   0  0  0  0  0  0  0  0  0  0  0  0
    3.0065  -20.1661   26.3303 C   0  0  0  0  0  0  0  0  0  0  0  0
    3.5354  -19.5733   27.5206 N   0  0  0  0  0  0  0  0  0  0  0  0
    0.5209  -20.2669   27.0663 N   0  0  0  0  0  0  0  0  0  0  0  0
   -0.5852  -20.7095   26.4352 C   0  0  0  0  0  0  0  0  0  0  0  0
   -0.2406  -21.1663   25.2147 N   0  0  0  0  0  0  0  0  0  0  0  0
  1  7  2  0  0  0  0
  1  2  1  0  0  0  0
  2  3  1  0  0  0  0
  2  4  2  0  0  0  0
  4  5  1  0  0  0  0
  5  6  2  0  0  0  0
  5 11  1  0  0  0  0
  6  7  1  0  0  0  0
  6  9  1  0  0  0  0
  7  8  1  0  0  0  0
  9 10  1  0  0  0  0
 10 11  2  0  0  0  0
M  END
>  <CHROM.1>
2.05175086,-20.68009498,25.48407165,-0.53693407,0.14997048,1.17159831

>  <Name>
ligand

>  <RI>
0

>  <Rbt.Current_Directory>
/home/itssahil/PROJECTS/Mol_Feturizer/New_Systems/rnas/4LVZ

>  <Rbt.Executable>
rbdock ($Id: //depot/dev/client3/rdock/2013.1/src/exe/rbdock.cxx#4 $)

>  <Rbt.Library>
libRbt.so (2013.1, Build901 2013/11/27)

>  <Rbt.Parameter_File>
/export/apps/rDock/src/rDock_2013.1_src/data/scripts/dock_solv.prm

>  <Rbt.Receptor>
prm/pocket_docking_4.prm

>  <SCORE>
-9.47965

>  <SCORE.INTER>
-9.47965

>  <SCORE.INTER.CONST>
1

>  <SCORE.INTER.POLAR>
0

>  <SCORE.INTER.ROT>
0

>  <SCORE.INTER.SOLV>
11.9855

>  <SCORE.INTER.VDW>
-13.9149

>  <SCORE.INTER.norm>
-0.861787

>  <SCORE.INTRA>
0

>  <SCORE.INTRA.DIHEDRAL>
0

>  <SCORE.INTRA.DIHEDRAL.0>
0

>  <SCORE.INTRA.POLAR>
0

>  <SCORE.INTRA.POLAR.0>
0

>  <SCORE.INTRA.REPUL>
0

>  <SCORE.INTRA.REPUL.0>
0

>  <SCORE.INTRA.SOLV>
0

>  <SCORE.INTRA.SOLV.lig_0>
-49.4056

>  <SCORE.INTRA.VDW>
0

>  <SCORE.INTRA.VDW.0>
0

>  <SCORE.INTRA.norm>
0

>  <SCORE.RESTR>
0

>  <SCORE.RESTR.CAVITY>
0

>  <SCORE.RESTR.norm>
0

>  <SCORE.SYSTEM>
0

>  <SCORE.SYSTEM.CONST>
0

>  <SCORE.SYSTEM.DIHEDRAL>
0

>  <SCORE.SYSTEM.SOLV>
0

>  <SCORE.SYSTEM.norm>
0

>  <SCORE.heavy>
11

>  <SCORE.norm>
-0.861787

>  <RMSD>
2.839

$$$$
ligand
 OpenBabel11021811503D
libRbt.so/2013.1/901 2013/11/27
 11 12  0  0  0  0  0  0  0  0999 V2000
    3.7031  -20.4674   25.3171 N   0  0  0  0  0  0  0  0  0  0  0  0
    3.2148  -21.0143   24.1765 C   0  0  0  0  0  0  0  0  0  0  0  0
    4.0844  -21.3241   23.0811 N   0  0  0  0  0  0  0  0  0  0  0  0
    1.9016  -21.2730   24.0449 N   0  0  0  0  0  0  0  0  0  0  0  0
    1.0143  -20.9987   25.0614 C   0  0  0  0  0  0  0  0  0  0  0  0
    1.4844  -20.4381   26.2349 C   0  0  0  0  0  0  0  0  0  0  0  0
    2.8810  -20.1683   26.3466 C   0  0  0  0  0  0  0  0  0  0  0  0
    3.4011  -19.5867   27.5462 N   0  0  0  0  0  0  0  0  0  0  0  0
    0.3893  -20.2714   27.0613 N   0  0  0  0  0  0  0  0  0  0  0  0
   -0.7123  -20.7068   26.4174 C   0  0  0  0  0  0  0  0  0  0  0  0
   -0.3584  -21.1535   25.1958 N   0  0  0  0  0  0  0  0  0  0  0  0
  1  7  2  0  0  0  0
  1  2  1  0  0  0  0
  2  3  1  0  0  0  0
  2  4  2  0  0  0  0
  4  5  1  0  0  0  0
  5  6  2  0  0  0  0
  5 11  1  0  0  0  0
  6  7  1  0  0  0  0
  6  9  1  0  0  0  0
  7  8  1  0  0  0  0
  9 10  1  0  0  0  0
 10 11  2  0  0  0  0
M  END
>  <CHROM.1>
1.93245952,-20.67346382,25.48816013,-0.52991334,0.14532324,1.17921040

>  <Name>
ligand

>  <RI>
0

>  <Rbt.Current_Directory>
/home/itssahil/PROJECTS/Mol_Feturizer/New_Systems/rnas/4LVZ

>  <Rbt.Executable>
rbdock ($Id: //depot/dev/client3/rdock/2013.1/src/exe/rbdock.cxx#4 $)

>  <Rbt.Library>
libRbt.so (2013.1, Build901 2013/11/27)

>  <Rbt.Parameter_File>
/export/apps/rDock/src/rDock_2013.1_src/data/scripts/dock_solv.prm

>  <Rbt.Receptor>
prm/pocket_docking_5.prm

>  <SCORE>
-9.51073

>  <SCORE.INTER>
-9.51073

>  <SCORE.INTER.CONST>
1

>  <SCORE.INTER.POLAR>
0

>  <SCORE.INTER.ROT>
0

>  <SCORE.INTER.SOLV>
12.8448

>  <SCORE.INTER.VDW>
-14.2221

>  <SCORE.INTER.norm>
-0.864612

>  <SCORE.INTRA>
0

>  <SCORE.INTRA.DIHEDRAL>
0

>  <SCORE.INTRA.DIHEDRAL.0>
0

>  <SCORE.INTRA.POLAR>
0

>  <SCORE.INTRA.POLAR.0>
0

>  <SCORE.INTRA.REPUL>
0

>  <SCORE.INTRA.REPUL.0>
0

>  <SCORE.INTRA.SOLV>
0

>  <SCORE.INTRA.SOLV.lig_0>
-49.4056

>  <SCORE.INTRA.VDW>
0

>  <SCORE.INTRA.VDW.0>
0

>  <SCORE.INTRA.norm>
0

>  <SCORE.RESTR>
0

>  <SCORE.RESTR.CAVITY>
0

>  <SCORE.RESTR.norm>
0

>  <SCORE.SYSTEM>
0

>  <SCORE.SYSTEM.CONST>
0

>  <SCORE.SYSTEM.DIHEDRAL>
0

>  <SCORE.SYSTEM.SOLV>
0

>  <SCORE.SYSTEM.norm>
0

>  <SCORE.heavy>
11

>  <SCORE.norm>
-0.864612

>  <RMSD>
2.839

$$$$
ligand
 OpenBabel11021811503D
libRbt.so/2013.1/901 2013/11/27
 11 12  0  0  0  0  0  0  0  0999 V2000
    3.7312  -20.4736   25.3227 N   0  0  0  0  0  0  0  0  0  0  0  0
    3.2563  -21.0216   24.1769 C   0  0  0  0  0  0  0  0  0  0  0  0
    4.1378  -21.3265   23.0897 N   0  0  0  0  0  0  0  0  0  0  0  0
    1.9456  -21.2859   24.0324 N   0  0  0  0  0  0  0  0  0  0  0  0
    1.0473  -21.0164   25.0405 C   0  0  0  0  0  0  0  0  0  0  0  0
    1.5035  -20.4550   26.2190 C   0  0  0  0  0  0  0  0  0  0  0  0
    2.8978  -20.1791   26.3444 C   0  0  0  0  0  0  0  0  0  0  0  0
    3.4037  -19.5964   27.5496 N   0  0  0  0  0  0  0  0  0  0  0  0
    0.3998  -20.2938   27.0349 N   0  0  0  0  0  0  0  0  0  0  0  0
   -0.6936  -20.7334   26.3800 C   0  0  0  0  0  0  0  0  0  0  0  0
   -0.3259  -21.1775   25.1615 N   0  0  0  0  0  0  0  0  0  0  0  0
  1  7  2  0  0  0  0
  1  2  1  0  0  0  0
  2  3  1  0  0  0  0
  2  4  2  0  0  0  0
  4  5  1  0  0  0  0
  5  6  2  0  0  0  0
  5 11  1  0  0  0  0
  6  7  1  0  0  0  0
  6  9  1  0  0  0  0
  7  8  1  0  0  0  0
  9 10  1  0  0  0  0
 10 11  2  0  0  0  0
M  END
>  <CHROM.1>
1.95985772,-20.68762411,25.47641024,-0.51918747,0.14569609,1.17857045

>  <Name>
ligand

>  <RI>
0

>  <Rbt.Current_Directory>
/home/itssahil/PROJECTS/Mol_Feturizer/New_Systems/rnas/4LVZ

>  <Rbt.Executable>
rbdock ($Id: //depot/dev/client3/rdock/2013.1/src/exe/rbdock.cxx#4 $)

>  <Rbt.Library>
libRbt.so (2013.1, Build901 2013/11/27)

>  <Rbt.Parameter_File>
/export/apps/rDock/src/rDock_2013.1_src/data/scripts/dock_solv.prm

>  <Rbt.Receptor>
prm/pocket_docking_5.prm

>  <SCORE>
-9.47378

>  <SCORE.INTER>
-9.47378

>  <SCORE.INTER.CONST>
1

>  <SCORE.INTER.POLAR>
0

>  <SCORE.INTER.ROT>
0

>  <SCORE.INTER.SOLV>
12.5777

>  <SCORE.INTER.VDW>
-14.1084

>  <SCORE.INTER.norm>
-0.861253

>  <SCORE.INTRA>
0

>  <SCORE.INTRA.DIHEDRAL>
0

>  <SCORE.INTRA.DIHEDRAL.0>
0

>  <SCORE.INTRA.POLAR>
0

>  <SCORE.INTRA.POLAR.0>
0

>  <SCORE.INTRA.REPUL>
0

>  <SCORE.INTRA.REPUL.0>
0

>  <SCORE.INTRA.SOLV>
0

>  <SCORE.INTRA.SOLV.lig_0>
-49.4056

>  <SCORE.INTRA.VDW>
0

>  <SCORE.INTRA.VDW.0>
0

>  <SCORE.INTRA.norm>
0

>  <SCORE.RESTR>
0

>  <SCORE.RESTR.CAVITY>
0

>  <SCORE.RESTR.norm>
0

>  <SCORE.SYSTEM>
0

>  <SCORE.SYSTEM.CONST>
0

>  <SCORE.SYSTEM.DIHEDRAL>
0

>  <SCORE.SYSTEM.SOLV>
0

>  <SCORE.SYSTEM.norm>
0

>  <SCORE.heavy>
11

>  <SCORE.norm>
-0.861253

>  <RMSD>
2.839

$$$$
ligand
 OpenBabel11021811503D
libRbt.so/2013.1/901 2013/11/27
 11 12  0  0  0  0  0  0  0  0999 V2000
    3.7541  -20.4532   25.2957 N   0  0  0  0  0  0  0  0  0  0  0  0
    3.2688  -21.0028   24.1551 C   0  0  0  0  0  0  0  0  0  0  0  0
    4.1381  -21.2959   23.0549 N   0  0  0  0  0  0  0  0  0  0  0  0
    1.9589  -21.2801   24.0282 N   0  0  0  0  0  0  0  0  0  0  0  0
    1.0722  -21.0224   25.0495 C   0  0  0  0  0  0  0  0  0  0  0  0
    1.5392  -20.4595   26.2231 C   0  0  0  0  0  0  0  0  0  0  0  0
    2.9322  -20.1699   26.3298 C   0  0  0  0  0  0  0  0  0  0  0  0
    3.4490  -19.5853   27.5294 N   0  0  0  0  0  0  0  0  0  0  0  0
    0.4454  -20.3118   27.0548 N   0  0  0  0  0  0  0  0  0  0  0  0
   -0.6525  -20.7607   26.4140 C   0  0  0  0  0  0  0  0  0  0  0  0
   -0.2975  -21.1977   25.1893 N   0  0  0  0  0  0  0  0  0  0  0  0
  1  7  2  0  0  0  0
  1  2  1  0  0  0  0
  2  3  1  0  0  0  0
  2  4  2  0  0  0  0
  4  5  1  0  0  0  0
  5  6  2  0  0  0  0
  5 11  1  0  0  0  0
  6  7  1  0  0  0  0
  6  9  1  0  0  0  0
  7  8  1  0  0  0  0
  9 10  1  0  0  0  0
 10 11  2  0  0  0  0
M  END
>  <CHROM.1>
1.98736230,-20.68555581,25.47358417,-0.52837183,0.16037758,1.18272377

>  <Name>
ligand

>  <RI>
0

>  <Rbt.Current_Directory>
/home/itssahil/PROJECTS/Mol_Feturizer/New_Systems/rnas/4LVZ

>  <Rbt.Executable>
rbdock ($Id: //depot/dev/client3/rdock/2013.1/src/exe/rbdock.cxx#4 $)

>  <Rbt.Library>
libRbt.so (2013.1, Build901 2013/11/27)

>  <Rbt.Parameter_File>
/export/apps/rDock/src/rDock_2013.1_src/data/scripts/dock_solv.prm

>  <Rbt.Receptor>
prm/pocket_docking_6.prm

>  <SCORE>
-9.4061

>  <SCORE.INTER>
-9.4061

>  <SCORE.INTER.CONST>
1

>  <SCORE.INTER.POLAR>
0

>  <SCORE.INTER.ROT>
0

>  <SCORE.INTER.SOLV>
12.4023

>  <SCORE.INTER.VDW>
-14.0048

>  <SCORE.INTER.norm>
-0.8551

>  <SCORE.INTRA>
0

>  <SCORE.INTRA.DIHEDRAL>
0

>  <SCORE.INTRA.DIHEDRAL.0>
0

>  <SCORE.INTRA.POLAR>
0

>  <SCORE.INTRA.POLAR.0>
0

>  <SCORE.INTRA.REPUL>
0

>  <SCORE.INTRA.REPUL.0>
0

>  <SCORE.INTRA.SOLV>
0

>  <SCORE.INTRA.SOLV.lig_0>
-49.4056

>  <SCORE.INTRA.VDW>
0

>  <SCORE.INTRA.VDW.0>
0

>  <SCORE.INTRA.norm>
0

>  <SCORE.RESTR>
0

>  <SCORE.RESTR.CAVITY>
0

>  <SCORE.RESTR.norm>
0

>  <SCORE.SYSTEM>
0

>  <SCORE.SYSTEM.CONST>
0

>  <SCORE.SYSTEM.DIHEDRAL>
0

>  <SCORE.SYSTEM.SOLV>
0

>  <SCORE.SYSTEM.norm>
0

>  <SCORE.heavy>
11

>  <SCORE.norm>
-0.8551

>  <RMSD>
2.839

$$$$
ligand
 OpenBabel11021811503D
libRbt.so/2013.1/901 2013/11/27
 11 12  0  0  0  0  0  0  0  0999 V2000
    3.7152  -20.4700   25.3118 N   0  0  0  0  0  0  0  0  0  0  0  0
    3.2189  -21.0105   24.1716 C   0  0  0  0  0  0  0  0  0  0  0  0
    4.0812  -21.3163   23.0693 N   0  0  0  0  0  0  0  0  0  0  0  0
    1.9045  -21.2666   24.0469 N   0  0  0  0  0  0  0  0  0  0  0  0
    1.0240  -20.9959   25.0702 C   0  0  0  0  0  0  0  0  0  0  0  0
    1.5022  -20.4419   26.2436 C   0  0  0  0  0  0  0  0  0  0  0  0
    2.8999  -20.1748   26.3478 C   0  0  0  0  0  0  0  0  0  0  0  0
    3.4284  -19.5998   27.5471 N   0  0  0  0  0  0  0  0  0  0  0  0
    0.4126  -20.2775   27.0775 N   0  0  0  0  0  0  0  0  0  0  0  0
   -0.6937  -20.7081   26.4384 C   0  0  0  0  0  0  0  0  0  0  0  0
   -0.3481  -21.1494   25.2125 N   0  0  0  0  0  0  0  0  0  0  0  0
  1  7  2  0  0  0  0
  1  2  1  0  0  0  0
  2  3  1  0  0  0  0
  2  4  2  0  0  0  0
  4  5  1  0  0  0  0
  5  6  2  0  0  0  0
  5 11  1  0  0  0  0
  6  7  1  0  0  0  0
  6  9  1  0  0  0  0
  7  8  1  0  0  0  0
  9 10  1  0  0  0  0
 10 11  2  0  0  0  0
M  END
>  <CHROM.1>
1.94527393,-20.67422918,25.49287824,-0.53632661,0.14626499,1.18504840

>  <Name>
ligand

>  <RI>
0

>  <Rbt.Current_Directory>
/home/itssahil/PROJECTS/Mol_Feturizer/New_Systems/rnas/4LVZ

>  <Rbt.Executable>
rbdock ($Id: //depot/dev/client3/rdock/2013.1/src/exe/rbdock.cxx#4 $)

>  <Rbt.Library>
libRbt.so (2013.1, Build901 2013/11/27)

>  <Rbt.Parameter_File>
/export/apps/rDock/src/rDock_2013.1_src/data/scripts/dock_solv.prm

>  <Rbt.Receptor>
prm/pocket_docking_8.prm

>  <SCORE>
-9.54087

>  <SCORE.INTER>
-9.54087

>  <SCORE.INTER.CONST>
1

>  <SCORE.INTER.POLAR>
0

>  <SCORE.INTER.ROT>
0

>  <SCORE.INTER.SOLV>
12.7358

>  <SCORE.INTER.VDW>
-14.2059

>  <SCORE.INTER.norm>
-0.867352

>  <SCORE.INTRA>
0

>  <SCORE.INTRA.DIHEDRAL>
0

>  <SCORE.INTRA.DIHEDRAL.0>
0

>  <SCORE.INTRA.POLAR>
0

>  <SCORE.INTRA.POLAR.0>
0

>  <SCORE.INTRA.REPUL>
0

>  <SCORE.INTRA.REPUL.0>
0

>  <SCORE.INTRA.SOLV>
0

>  <SCORE.INTRA.SOLV.lig_0>
-49.4056

>  <SCORE.INTRA.VDW>
0

>  <SCORE.INTRA.VDW.0>
0

>  <SCORE.INTRA.norm>
0

>  <SCORE.RESTR>
0

>  <SCORE.RESTR.CAVITY>
0

>  <SCORE.RESTR.norm>
0

>  <SCORE.SYSTEM>
0

>  <SCORE.SYSTEM.CONST>
0

>  <SCORE.SYSTEM.DIHEDRAL>
0

>  <SCORE.SYSTEM.SOLV>
0

>  <SCORE.SYSTEM.norm>
0

>  <SCORE.heavy>
11

>  <SCORE.norm>
-0.867352

>  <RMSD>
2.839

$$$$
ligand
 OpenBabel11021811503D
libRbt.so/2013.1/901 2013/11/27
 11 12  0  0  0  0  0  0  0  0999 V2000
    3.7198  -20.4874   25.3194 N   0  0  0  0  0  0  0  0  0  0  0  0
    3.2266  -21.0203   24.1743 C   0  0  0  0  0  0  0  0  0  0  0  0
    4.0919  -21.3181   23.0722 N   0  0  0  0  0  0  0  0  0  0  0  0
    1.9127  -21.2762   24.0446 N   0  0  0  0  0  0  0  0  0  0  0  0
    1.0295  -21.0130   25.0675 C   0  0  0  0  0  0  0  0  0  0  0  0
    1.5045  -20.4667   26.2458 C   0  0  0  0  0  0  0  0  0  0  0  0
    2.9018  -20.1996   26.3554 C   0  0  0  0  0  0  0  0  0  0  0  0
    3.4269  -19.6327   27.5599 N   0  0  0  0  0  0  0  0  0  0  0  0
    0.4127  -20.3086   27.0782 N   0  0  0  0  0  0  0  0  0  0  0  0
   -0.6917  -20.7353   26.4333 C   0  0  0  0  0  0  0  0  0  0  0  0
   -0.3429  -21.1680   25.2053 N   0  0  0  0  0  0  0  0  0  0  0  0
  1  7  2  0  0  0  0
  1  2  1  0  0  0  0
  2  3  1  0  0  0  0
  2  4  2  0  0  0  0
  4  5  1  0  0  0  0
  5  6  2  0  0  0  0
  5 11  1  0  0  0  0
  6  7  1  0  0  0  0
  6  9  1  0  0  0  0
  7  8  1  0  0  0  0
  9 10  1  0  0  0  0
 10 11  2  0  0  0  0
M  END
>  <CHROM.1>
1.94953652,-20.69369804,25.49467140,-0.53378529,0.14579515,1.19151960

>  <Name>
ligand

>  <RI>
0

>  <Rbt.Current_Directory>
/home/itssahil/PROJECTS/Mol_Feturizer/New_Systems/rnas/4LVZ

>  <Rbt.Executable>
rbdock ($Id: //depot/dev/client3/rdock/2013.1/src/exe/rbdock.cxx#4 $)

>  <Rbt.Library>
libRbt.so (2013.1, Build901 2013/11/27)

>  <Rbt.Parameter_File>
/export/apps/rDock/src/rDock_2013.1_src/data/scripts/dock_solv.prm

>  <Rbt.Receptor>
prm/pocket_docking_8.prm

>  <SCORE>
-9.47516

>  <SCORE.INTER>
-9.47516

>  <SCORE.INTER.CONST>
1

>  <SCORE.INTER.POLAR>
0

>  <SCORE.INTER.ROT>
0

>  <SCORE.INTER.SOLV>
12.6332

>  <SCORE.INTER.VDW>
-14.1278

>  <SCORE.INTER.norm>
-0.861378

>  <SCORE.INTRA>
0

>  <SCORE.INTRA.DIHEDRAL>
0

>  <SCORE.INTRA.DIHEDRAL.0>
0

>  <SCORE.INTRA.POLAR>
0

>  <SCORE.INTRA.POLAR.0>
0

>  <SCORE.INTRA.REPUL>
0

>  <SCORE.INTRA.REPUL.0>
0

>  <SCORE.INTRA.SOLV>
0

>  <SCORE.INTRA.SOLV.lig_0>
-49.4056

>  <SCORE.INTRA.VDW>
0

>  <SCORE.INTRA.VDW.0>
0

>  <SCORE.INTRA.norm>
0

>  <SCORE.RESTR>
0

>  <SCORE.RESTR.CAVITY>
0

>  <SCORE.RESTR.norm>
0

>  <SCORE.SYSTEM>
0

>  <SCORE.SYSTEM.CONST>
0

>  <SCORE.SYSTEM.DIHEDRAL>
0

>  <SCORE.SYSTEM.SOLV>
0

>  <SCORE.SYSTEM.norm>
0

>  <SCORE.heavy>
11

>  <SCORE.norm>
-0.861378

>  <RMSD>
2.839

$$$$
ligand
 OpenBabel11021811503D
libRbt.so/2013.1/901 2013/11/27
 11 12  0  0  0  0  0  0  0  0999 V2000
    3.7597  -20.4306   25.2660 N   0  0  0  0  0  0  0  0  0  0  0  0
    3.2361  -20.9605   24.1331 C   0  0  0  0  0  0  0  0  0  0  0  0
    4.0709  -21.2513   23.0059 N   0  0  0  0  0  0  0  0  0  0  0  0
    1.9198  -21.2199   24.0393 N   0  0  0  0  0  0  0  0  0  0  0  0
    1.0649  -20.9634   25.0876 C   0  0  0  0  0  0  0  0  0  0  0  0
    1.5712  -20.4203   26.2543 C   0  0  0  0  0  0  0  0  0  0  0  0
    2.9703  -20.1494   26.3257 C   0  0  0  0  0  0  0  0  0  0  0  0
    3.5274  -19.5856   27.5172 N   0  0  0  0  0  0  0  0  0  0  0  0
    0.5028  -20.2688   27.1176 N   0  0  0  0  0  0  0  0  0  0  0  0
   -0.6181  -20.6964   26.5023 C   0  0  0  0  0  0  0  0  0  0  0  0
   -0.3026  -21.1232   25.2632 N   0  0  0  0  0  0  0  0  0  0  0  0
  1  7  2  0  0  0  0
  1  2  1  0  0  0  0
  2  3  1  0  0  0  0
  2  4  2  0  0  0  0
  4  5  1  0  0  0  0
  5  6  2  0  0  0  0
  5 11  1  0  0  0  0
  6  7  1  0  0  0  0
  6  9  1  0  0  0  0
  7  8  1  0  0  0  0
  9 10  1  0  0  0  0
 10 11  2  0  0  0  0
M  END
>  <CHROM.1>
1.99567607,-20.64300915,25.49007580,-0.55911887,0.15886492,1.19934721

>  <Name>
ligand

>  <RI>
0

>  <Rbt.Current_Directory>
/home/itssahil/PROJECTS/Mol_Feturizer/New_Systems/rnas/4LVZ

>  <Rbt.Executable>
rbdock ($Id: //depot/dev/client3/rdock/2013.1/src/exe/rbdock.cxx#4 $)

>  <Rbt.Library>
libRbt.so (2013.1, Build901 2013/11/27)

>  <Rbt.Parameter_File>
/export/apps/rDock/src/rDock_2013.1_src/data/scripts/dock_solv.prm

>  <Rbt.Receptor>
prm/pocket_docking_8.prm

>  <SCORE>
-9.46185

>  <SCORE.INTER>
-9.46185

>  <SCORE.INTER.CONST>
1

>  <SCORE.INTER.POLAR>
0

>  <SCORE.INTER.ROT>
0

>  <SCORE.INTER.SOLV>
12.4286

>  <SCORE.INTER.VDW>
-14.0508

>  <SCORE.INTER.norm>
-0.860168

>  <SCORE.INTRA>
0

>  <SCORE.INTRA.DIHEDRAL>
0

>  <SCORE.INTRA.DIHEDRAL.0>
0

>  <SCORE.INTRA.POLAR>
0

>  <SCORE.INTRA.POLAR.0>
0

>  <SCORE.INTRA.REPUL>
0

>  <SCORE.INTRA.REPUL.0>
0

>  <SCORE.INTRA.SOLV>
0

>  <SCORE.INTRA.SOLV.lig_0>
-49.4056

>  <SCORE.INTRA.VDW>
0

>  <SCORE.INTRA.VDW.0>
0

>  <SCORE.INTRA.norm>
0

>  <SCORE.RESTR>
0

>  <SCORE.RESTR.CAVITY>
0

>  <SCORE.RESTR.norm>
0

>  <SCORE.SYSTEM>
0

>  <SCORE.SYSTEM.CONST>
0

>  <SCORE.SYSTEM.DIHEDRAL>
0

>  <SCORE.SYSTEM.SOLV>
0

>  <SCORE.SYSTEM.norm>
0

>  <SCORE.heavy>
11

>  <SCORE.norm>
-0.860168

>  <RMSD>
2.839

$$$$
ligand
 OpenBabel11021811503D
libRbt.so/2013.1/901 2013/11/27
 11 12  0  0  0  0  0  0  0  0999 V2000
    3.7073  -20.4627   25.3108 N   0  0  0  0  0  0  0  0  0  0  0  0
    3.2248  -21.0169   24.1712 C   0  0  0  0  0  0  0  0  0  0  0  0
    4.0977  -21.3203   23.0767 N   0  0  0  0  0  0  0  0  0  0  0  0
    1.9142  -21.2891   24.0398 N   0  0  0  0  0  0  0  0  0  0  0  0
    1.0240  -21.0215   25.0555 C   0  0  0  0  0  0  0  0  0  0  0  0
    1.4881  -20.4538   26.2280 C   0  0  0  0  0  0  0  0  0  0  0  0
    2.8819  -20.1697   26.3393 C   0  0  0  0  0  0  0  0  0  0  0  0
    3.3957  -19.5803   27.5379 N   0  0  0  0  0  0  0  0  0  0  0  0
    0.3912  -20.2963   27.0537 N   0  0  0  0  0  0  0  0  0  0  0  0
   -0.7058  -20.7441   26.4104 C   0  0  0  0  0  0  0  0  0  0  0  0
   -0.3471  -21.1899   25.1899 N   0  0  0  0  0  0  0  0  0  0  0  0
  1  7  2  0  0  0  0
  1  2  1  0  0  0  0
  2  3  1  0  0  0  0
  2  4  2  0  0  0  0
  4  5  1  0  0  0  0
  5  6  2  0  0  0  0
  5 11  1  0  0  0  0
  6  7  1  0  0  0  0
  6  9  1  0  0  0  0
  7  8  1  0  0  0  0
  9 10  1  0  0  0  0
 10 11  2  0  0  0  0
M  END
>  <CHROM.1>
1.93869380,-20.68621360,25.48180614,-0.52577599,0.15451055,1.17643359

>  <Name>
ligand

>  <RI>
0

>  <Rbt.Current_Directory>
/home/itssahil/PROJECTS/Mol_Feturizer/New_Systems/rnas/4LVZ

>  <Rbt.Executable>
rbdock ($Id: //depot/dev/client3/rdock/2013.1/src/exe/rbdock.cxx#4 $)

>  <Rbt.Library>
libRbt.so (2013.1, Build901 2013/11/27)

>  <Rbt.Parameter_File>
/export/apps/rDock/src/rDock_2013.1_src/data/scripts/dock_solv.prm

>  <Rbt.Receptor>
prm/pocket_docking_3.prm

>  <SCORE>
-9.50607

>  <SCORE.INTER>
-9.50607

>  <SCORE.INTER.CONST>
1

>  <SCORE.INTER.POLAR>
0

>  <SCORE.INTER.ROT>
0

>  <SCORE.INTER.SOLV>
12.7799

>  <SCORE.INTER.VDW>
-14.1974

>  <SCORE.INTER.norm>
-0.864189

>  <SCORE.INTRA>
0

>  <SCORE.INTRA.DIHEDRAL>
0

>  <SCORE.INTRA.DIHEDRAL.0>
0

>  <SCORE.INTRA.POLAR>
0

>  <SCORE.INTRA.POLAR.0>
0

>  <SCORE.INTRA.REPUL>
0

>  <SCORE.INTRA.REPUL.0>
0

>  <SCORE.INTRA.SOLV>
0

>  <SCORE.INTRA.SOLV.lig_0>
-49.4056

>  <SCORE.INTRA.VDW>
0

>  <SCORE.INTRA.VDW.0>
0

>  <SCORE.INTRA.norm>
0

>  <SCORE.RESTR>
0

>  <SCORE.RESTR.CAVITY>
0

>  <SCORE.RESTR.norm>
0

>  <SCORE.SYSTEM>
0

>  <SCORE.SYSTEM.CONST>
0

>  <SCORE.SYSTEM.DIHEDRAL>
0

>  <SCORE.SYSTEM.SOLV>
0

>  <SCORE.SYSTEM.norm>
0

>  <SCORE.heavy>
11

>  <SCORE.norm>
-0.864189

>  <RMSD>
2.840

$$$$
ligand
 OpenBabel11021811503D
libRbt.so/2013.1/901 2013/11/27
 11 12  0  0  0  0  0  0  0  0999 V2000
    3.8228  -20.4806   25.3024 N   0  0  0  0  0  0  0  0  0  0  0  0
    3.3299  -21.0363   24.1679 C   0  0  0  0  0  0  0  0  0  0  0  0
    4.1958  -21.3585   23.0732 N   0  0  0  0  0  0  0  0  0  0  0  0
    2.0156  -21.2923   24.0420 N   0  0  0  0  0  0  0  0  0  0  0  0
    1.1318  -21.0063   25.0582 C   0  0  0  0  0  0  0  0  0  0  0  0
    1.6065  -20.4366   26.2255 C   0  0  0  0  0  0  0  0  0  0  0  0
    3.0042  -20.1699   26.3312 C   0  0  0  0  0  0  0  0  0  0  0  0
    3.5290  -19.5791   27.5242 N   0  0  0  0  0  0  0  0  0  0  0  0
    0.5141  -20.2592   27.0531 N   0  0  0  0  0  0  0  0  0  0  0  0
   -0.5904  -20.6971   26.4159 C   0  0  0  0  0  0  0  0  0  0  0  0
   -0.2410  -21.1558   25.1976 N   0  0  0  0  0  0  0  0  0  0  0  0
  1  7  2  0  0  0  0
  1  2  1  0  0  0  0
  2  3  1  0  0  0  0
  2  4  2  0  0  0  0
  4  5  1  0  0  0  0
  5  6  2  0  0  0  0
  5 11  1  0  0  0  0
  6  7  1  0  0  0  0
  6  9  1  0  0  0  0
  7  8  1  0  0  0  0
  9 10  1  0  0  0  0
 10 11  2  0  0  0  0
M  END
>  <CHROM.1>
2.05197312,-20.67994636,25.47975181,-0.53344209,0.14360175,1.17073472

>  <Name>
ligand

>  <RI>
0

>  <Rbt.Current_Directory>
/home/itssahil/PROJECTS/Mol_Feturizer/New_Systems/rnas/4LVZ

>  <Rbt.Executable>
rbdock ($Id: //depot/dev/client3/rdock/2013.1/src/exe/rbdock.cxx#4 $)

>  <Rbt.Library>
libRbt.so (2013.1, Build901 2013/11/27)

>  <Rbt.Parameter_File>
/export/apps/rDock/src/rDock_2013.1_src/data/scripts/dock_solv.prm

>  <Rbt.Receptor>
prm/pocket_docking_5.prm

>  <SCORE>
-9.48127

>  <SCORE.INTER>
-9.48127

>  <SCORE.INTER.CONST>
1

>  <SCORE.INTER.POLAR>
0

>  <SCORE.INTER.ROT>
0

>  <SCORE.INTER.SOLV>
11.9766

>  <SCORE.INTER.VDW>
-13.9131

>  <SCORE.INTER.norm>
-0.861934

>  <SCORE.INTRA>
0

>  <SCORE.INTRA.DIHEDRAL>
0

>  <SCORE.INTRA.DIHEDRAL.0>
0

>  <SCORE.INTRA.POLAR>
0

>  <SCORE.INTRA.POLAR.0>
0

>  <SCORE.INTRA.REPUL>
0

>  <SCORE.INTRA.REPUL.0>
0

>  <SCORE.INTRA.SOLV>
0

>  <SCORE.INTRA.SOLV.lig_0>
-49.4056

>  <SCORE.INTRA.VDW>
0

>  <SCORE.INTRA.VDW.0>
0

>  <SCORE.INTRA.norm>
0

>  <SCORE.RESTR>
0

>  <SCORE.RESTR.CAVITY>
0

>  <SCORE.RESTR.norm>
0

>  <SCORE.SYSTEM>
0

>  <SCORE.SYSTEM.CONST>
0

>  <SCORE.SYSTEM.DIHEDRAL>
0

>  <SCORE.SYSTEM.SOLV>
0

>  <SCORE.SYSTEM.norm>
0

>  <SCORE.heavy>
11

>  <SCORE.norm>
-0.861934

>  <RMSD>
2.840

$$$$
ligand
 OpenBabel11021811503D
libRbt.so/2013.1/901 2013/11/27
 11 12  0  0  0  0  0  0  0  0999 V2000
    3.7235  -20.4679   25.3189 N   0  0  0  0  0  0  0  0  0  0  0  0
    3.2477  -21.0177   24.1744 C   0  0  0  0  0  0  0  0  0  0  0  0
    4.1287  -21.3268   23.0880 N   0  0  0  0  0  0  0  0  0  0  0  0
    1.9365  -21.2801   24.0305 N   0  0  0  0  0  0  0  0  0  0  0  0
    1.0387  -21.0067   25.0379 C   0  0  0  0  0  0  0  0  0  0  0  0
    1.4959  -20.4433   26.2152 C   0  0  0  0  0  0  0  0  0  0  0  0
    2.8907  -20.1696   26.3399 C   0  0  0  0  0  0  0  0  0  0  0  0
    3.3976  -19.5848   27.5437 N   0  0  0  0  0  0  0  0  0  0  0  0
    0.3925  -20.2782   27.0307 N   0  0  0  0  0  0  0  0  0  0  0  0
   -0.7017  -20.7175   26.3767 C   0  0  0  0  0  0  0  0  0  0  0  0
   -0.3348  -21.1651   25.1593 N   0  0  0  0  0  0  0  0  0  0  0  0
  1  7  2  0  0  0  0
  1  2  1  0  0  0  0
  2  3  1  0  0  0  0
  2  4  2  0  0  0  0
  4  5  1  0  0  0  0
  5  6  2  0  0  0  0
  5 11  1  0  0  0  0
  6  7  1  0  0  0  0
  6  9  1  0  0  0  0
  7  8  1  0  0  0  0
  9 10  1  0  0  0  0
 10 11  2  0  0  0  0
M  END
>  <CHROM.1>
1.95181030,-20.67846709,25.47311391,-0.51985554,0.14408141,1.17630326

>  <Name>
ligand

>  <RI>
0

>  <Rbt.Current_Directory>
/home/itssahil/PROJECTS/Mol_Feturizer/New_Systems/rnas/4LVZ

>  <Rbt.Executable>
rbdock ($Id: //depot/dev/client3/rdock/2013.1/src/exe/rbdock.cxx#4 $)

>  <Rbt.Library>
libRbt.so (2013.1, Build901 2013/11/27)

>  <Rbt.Parameter_File>
/export/apps/rDock/src/rDock_2013.1_src/data/scripts/dock_solv.prm

>  <Rbt.Receptor>
prm/pocket_docking_6.prm

>  <SCORE>
-9.46733

>  <SCORE.INTER>
-9.46733

>  <SCORE.INTER.CONST>
1

>  <SCORE.INTER.POLAR>
0

>  <SCORE.INTER.ROT>
0

>  <SCORE.INTER.SOLV>
12.6564

>  <SCORE.INTER.VDW>
-14.1304

>  <SCORE.INTER.norm>
-0.860667

>  <SCORE.INTRA>
0

>  <SCORE.INTRA.DIHEDRAL>
0

>  <SCORE.INTRA.DIHEDRAL.0>
0

>  <SCORE.INTRA.POLAR>
0

>  <SCORE.INTRA.POLAR.0>
0

>  <SCORE.INTRA.REPUL>
0

>  <SCORE.INTRA.REPUL.0>
0

>  <SCORE.INTRA.SOLV>
0

>  <SCORE.INTRA.SOLV.lig_0>
-49.4056

>  <SCORE.INTRA.VDW>
0

>  <SCORE.INTRA.VDW.0>
0

>  <SCORE.INTRA.norm>
0

>  <SCORE.RESTR>
0

>  <SCORE.RESTR.CAVITY>
0

>  <SCORE.RESTR.norm>
0

>  <SCORE.SYSTEM>
0

>  <SCORE.SYSTEM.CONST>
0

>  <SCORE.SYSTEM.DIHEDRAL>
0

>  <SCORE.SYSTEM.SOLV>
0

>  <SCORE.SYSTEM.norm>
0

>  <SCORE.heavy>
11

>  <SCORE.norm>
-0.860667

>  <RMSD>
2.840

$$$$
ligand
 OpenBabel11021811503D
libRbt.so/2013.1/901 2013/11/27
 11 12  0  0  0  0  0  0  0  0999 V2000
    3.7121  -20.4713   25.3096 N   0  0  0  0  0  0  0  0  0  0  0  0
    3.2266  -21.0195   24.1684 C   0  0  0  0  0  0  0  0  0  0  0  0
    4.0967  -21.3178   23.0703 N   0  0  0  0  0  0  0  0  0  0  0  0
    1.9156  -21.2903   24.0388 N   0  0  0  0  0  0  0  0  0  0  0  0
    1.0280  -21.0274   25.0580 C   0  0  0  0  0  0  0  0  0  0  0  0
    1.4952  -20.4659   26.2322 C   0  0  0  0  0  0  0  0  0  0  0  0
    2.8894  -20.1831   26.3417 C   0  0  0  0  0  0  0  0  0  0  0  0
    3.4065  -19.6001   27.5419 N   0  0  0  0  0  0  0  0  0  0  0  0
    0.4004  -20.3120   27.0614 N   0  0  0  0  0  0  0  0  0  0  0  0
   -0.6984  -20.7560   26.4185 C   0  0  0  0  0  0  0  0  0  0  0  0
   -0.3429  -21.1957   25.1949 N   0  0  0  0  0  0  0  0  0  0  0  0
  1  7  2  0  0  0  0
  1  2  1  0  0  0  0
  2  3  1  0  0  0  0
  2  4  2  0  0  0  0
  4  5  1  0  0  0  0
  5  6  2  0  0  0  0
  5 11  1  0  0  0  0
  6  7  1  0  0  0  0
  6  9  1  0  0  0  0
  7  8  1  0  0  0  0
  9 10  1  0  0  0  0
 10 11  2  0  0  0  0
M  END
>  <CHROM.1>
1.94388915,-20.69475458,25.48380152,-0.52825498,0.15494557,1.18190623

>  <Name>
ligand

>  <RI>
0

>  <Rbt.Current_Directory>
/home/itssahil/PROJECTS/Mol_Feturizer/New_Systems/rnas/4LVZ

>  <Rbt.Executable>
rbdock ($Id: //depot/dev/client3/rdock/2013.1/src/exe/rbdock.cxx#4 $)

>  <Rbt.Library>
libRbt.so (2013.1, Build901 2013/11/27)

>  <Rbt.Parameter_File>
/export/apps/rDock/src/rDock_2013.1_src/data/scripts/dock_solv.prm

>  <Rbt.Receptor>
prm/pocket_docking_6.prm

>  <SCORE>
-9.5122

>  <SCORE.INTER>
-9.5122

>  <SCORE.INTER.CONST>
1

>  <SCORE.INTER.POLAR>
0

>  <SCORE.INTER.ROT>
0

>  <SCORE.INTER.SOLV>
12.7083

>  <SCORE.INTER.VDW>
-14.1776

>  <SCORE.INTER.norm>
-0.864746

>  <SCORE.INTRA>
0

>  <SCORE.INTRA.DIHEDRAL>
0

>  <SCORE.INTRA.DIHEDRAL.0>
0

>  <SCORE.INTRA.POLAR>
0

>  <SCORE.INTRA.POLAR.0>
0

>  <SCORE.INTRA.REPUL>
0

>  <SCORE.INTRA.REPUL.0>
0

>  <SCORE.INTRA.SOLV>
0

>  <SCORE.INTRA.SOLV.lig_0>
-49.4056

>  <SCORE.INTRA.VDW>
0

>  <SCORE.INTRA.VDW.0>
0

>  <SCORE.INTRA.norm>
0

>  <SCORE.RESTR>
0

>  <SCORE.RESTR.CAVITY>
0

>  <SCORE.RESTR.norm>
0

>  <SCORE.SYSTEM>
0

>  <SCORE.SYSTEM.CONST>
0

>  <SCORE.SYSTEM.DIHEDRAL>
0

>  <SCORE.SYSTEM.SOLV>
0

>  <SCORE.SYSTEM.norm>
0

>  <SCORE.heavy>
11

>  <SCORE.norm>
-0.864746

>  <RMSD>
2.840

$$$$
ligand
 OpenBabel11021811503D
libRbt.so/2013.1/901 2013/11/27
 11 12  0  0  0  0  0  0  0  0999 V2000
    3.7125  -20.4741   25.3095 N   0  0  0  0  0  0  0  0  0  0  0  0
    3.2155  -21.0155   24.1700 C   0  0  0  0  0  0  0  0  0  0  0  0
    4.0771  -21.3230   23.0678 N   0  0  0  0  0  0  0  0  0  0  0  0
    1.9008  -21.2709   24.0461 N   0  0  0  0  0  0  0  0  0  0  0  0
    1.0209  -20.9985   25.0695 C   0  0  0  0  0  0  0  0  0  0  0  0
    1.4999  -20.4435   26.2420 C   0  0  0  0  0  0  0  0  0  0  0  0
    2.8979  -20.1772   26.3454 C   0  0  0  0  0  0  0  0  0  0  0  0
    3.4271  -19.6013   27.5439 N   0  0  0  0  0  0  0  0  0  0  0  0
    0.4107  -20.2775   27.0762 N   0  0  0  0  0  0  0  0  0  0  0  0
   -0.6961  -20.7080   26.4379 C   0  0  0  0  0  0  0  0  0  0  0  0
   -0.3512  -21.1508   25.2124 N   0  0  0  0  0  0  0  0  0  0  0  0
  1  7  2  0  0  0  0
  1  2  1  0  0  0  0
  2  3  1  0  0  0  0
  2  4  2  0  0  0  0
  4  5  1  0  0  0  0
  5  6  2  0  0  0  0
  5 11  1  0  0  0  0
  6  7  1  0  0  0  0
  6  9  1  0  0  0  0
  7  8  1  0  0  0  0
  9 10  1  0  0  0  0
 10 11  2  0  0  0  0
M  END
>  <CHROM.1>
1.94255349,-20.67692992,25.49141431,-0.53693401,0.14578412,1.18403961

>  <Name>
ligand

>  <RI>
0

>  <Rbt.Current_Directory>
/home/itssahil/PROJECTS/Mol_Feturizer/New_Systems/rnas/4LVZ

>  <Rbt.Executable>
rbdock ($Id: //depot/dev/client3/rdock/2013.1/src/exe/rbdock.cxx#4 $)

>  <Rbt.Library>
libRbt.so (2013.1, Build901 2013/11/27)

>  <Rbt.Parameter_File>
/export/apps/rDock/src/rDock_2013.1_src/data/scripts/dock_solv.prm

>  <Rbt.Receptor>
prm/pocket_docking_7.prm

>  <SCORE>
-9.53735

>  <SCORE.INTER>
-9.53735

>  <SCORE.INTER.CONST>
1

>  <SCORE.INTER.POLAR>
0

>  <SCORE.INTER.ROT>
0

>  <SCORE.INTER.SOLV>
12.7536

>  <SCORE.INTER.VDW>
-14.2094

>  <SCORE.INTER.norm>
-0.867032

>  <SCORE.INTRA>
0

>  <SCORE.INTRA.DIHEDRAL>
0

>  <SCORE.INTRA.DIHEDRAL.0>
0

>  <SCORE.INTRA.POLAR>
0

>  <SCORE.INTRA.POLAR.0>
0

>  <SCORE.INTRA.REPUL>
0

>  <SCORE.INTRA.REPUL.0>
0

>  <SCORE.INTRA.SOLV>
0

>  <SCORE.INTRA.SOLV.lig_0>
-49.4056

>  <SCORE.INTRA.VDW>
0

>  <SCORE.INTRA.VDW.0>
0

>  <SCORE.INTRA.norm>
0

>  <SCORE.RESTR>
0

>  <SCORE.RESTR.CAVITY>
0

>  <SCORE.RESTR.norm>
0

>  <SCORE.SYSTEM>
0

>  <SCORE.SYSTEM.CONST>
0

>  <SCORE.SYSTEM.DIHEDRAL>
0

>  <SCORE.SYSTEM.SOLV>
0

>  <SCORE.SYSTEM.norm>
0

>  <SCORE.heavy>
11

>  <SCORE.norm>
-0.867032

>  <RMSD>
2.840

$$$$
ligand
 OpenBabel11021811503D
libRbt.so/2013.1/901 2013/11/27
 11 12  0  0  0  0  0  0  0  0999 V2000
    3.8216  -20.4724   25.2953 N   0  0  0  0  0  0  0  0  0  0  0  0
    3.3247  -21.0245   24.1609 C   0  0  0  0  0  0  0  0  0  0  0  0
    4.1868  -21.3449   23.0628 N   0  0  0  0  0  0  0  0  0  0  0  0
    2.0097  -21.2787   24.0384 N   0  0  0  0  0  0  0  0  0  0  0  0
    1.1293  -20.9942   25.0580 C   0  0  0  0  0  0  0  0  0  0  0  0
    1.6082  -20.4281   26.2253 C   0  0  0  0  0  0  0  0  0  0  0  0
    3.0065  -20.1633   26.3274 C   0  0  0  0  0  0  0  0  0  0  0  0
    3.5357  -19.5762   27.5203 N   0  0  0  0  0  0  0  0  0  0  0  0
    0.5185  -20.2516   27.0567 N   0  0  0  0  0  0  0  0  0  0  0  0
   -0.5885  -20.6866   26.4218 C   0  0  0  0  0  0  0  0  0  0  0  0
   -0.2433  -21.1426   25.2012 N   0  0  0  0  0  0  0  0  0  0  0  0
  1  7  2  0  0  0  0
  1  2  1  0  0  0  0
  2  3  1  0  0  0  0
  2  4  2  0  0  0  0
  4  5  1  0  0  0  0
  5  6  2  0  0  0  0
  5 11  1  0  0  0  0
  6  7  1  0  0  0  0
  6  9  1  0  0  0  0
  7  8  1  0  0  0  0
  9 10  1  0  0  0  0
 10 11  2  0  0  0  0
M  END
>  <CHROM.1>
2.05111122,-20.67005777,25.47757603,-0.53673575,0.14371401,1.17375926

>  <Name>
ligand

>  <RI>
0

>  <Rbt.Current_Directory>
/home/itssahil/PROJECTS/Mol_Feturizer/New_Systems/rnas/4LVZ

>  <Rbt.Executable>
rbdock ($Id: //depot/dev/client3/rdock/2013.1/src/exe/rbdock.cxx#4 $)

>  <Rbt.Library>
libRbt.so (2013.1, Build901 2013/11/27)

>  <Rbt.Parameter_File>
/export/apps/rDock/src/rDock_2013.1_src/data/scripts/dock_solv.prm

>  <Rbt.Receptor>
prm/pocket_docking_8.prm

>  <SCORE>
-9.48817

>  <SCORE.INTER>
-9.48817

>  <SCORE.INTER.CONST>
1

>  <SCORE.INTER.POLAR>
0

>  <SCORE.INTER.ROT>
0

>  <SCORE.INTER.SOLV>
11.9767

>  <SCORE.INTER.VDW>
-13.9177

>  <SCORE.INTER.norm>
-0.862561

>  <SCORE.INTRA>
0

>  <SCORE.INTRA.DIHEDRAL>
0

>  <SCORE.INTRA.DIHEDRAL.0>
0

>  <SCORE.INTRA.POLAR>
0

>  <SCORE.INTRA.POLAR.0>
0

>  <SCORE.INTRA.REPUL>
0

>  <SCORE.INTRA.REPUL.0>
0

>  <SCORE.INTRA.SOLV>
0

>  <SCORE.INTRA.SOLV.lig_0>
-49.4056

>  <SCORE.INTRA.VDW>
0

>  <SCORE.INTRA.VDW.0>
0

>  <SCORE.INTRA.norm>
0

>  <SCORE.RESTR>
0

>  <SCORE.RESTR.CAVITY>
0

>  <SCORE.RESTR.norm>
0

>  <SCORE.SYSTEM>
0

>  <SCORE.SYSTEM.CONST>
0

>  <SCORE.SYSTEM.DIHEDRAL>
0

>  <SCORE.SYSTEM.SOLV>
0

>  <SCORE.SYSTEM.norm>
0

>  <SCORE.heavy>
11

>  <SCORE.norm>
-0.862561

>  <RMSD>
2.840

$$$$
ligand
 OpenBabel11021811503D
libRbt.so/2013.1/901 2013/11/27
 11 12  0  0  0  0  0  0  0  0999 V2000
    3.8164  -20.4789   25.2941 N   0  0  0  0  0  0  0  0  0  0  0  0
    3.3136  -21.0292   24.1614 C   0  0  0  0  0  0  0  0  0  0  0  0
    4.1710  -21.3533   23.0606 N   0  0  0  0  0  0  0  0  0  0  0  0
    1.9972  -21.2780   24.0430 N   0  0  0  0  0  0  0  0  0  0  0  0
    1.1212  -20.9897   25.0653 C   0  0  0  0  0  0  0  0  0  0  0  0
    1.6061  -20.4254   26.2310 C   0  0  0  0  0  0  0  0  0  0  0  0
    3.0058  -20.1664   26.3286 C   0  0  0  0  0  0  0  0  0  0  0  0
    3.5411  -19.5812   27.5199 N   0  0  0  0  0  0  0  0  0  0  0  0
    0.5197  -20.2442   27.0657 N   0  0  0  0  0  0  0  0  0  0  0  0
   -0.5910  -20.6747   26.4343 C   0  0  0  0  0  0  0  0  0  0  0  0
   -0.2515  -21.1323   25.2127 N   0  0  0  0  0  0  0  0  0  0  0  0
  1  7  2  0  0  0  0
  1  2  1  0  0  0  0
  2  3  1  0  0  0  0
  2  4  2  0  0  0  0
  4  5  1  0  0  0  0
  5  6  2  0  0  0  0
  5 11  1  0  0  0  0
  6  7  1  0  0  0  0
  6  9  1  0  0  0  0
  7  8  1  0  0  0  0
  9 10  1  0  0  0  0
 10 11  2  0  0  0  0
M  END
>  <CHROM.1>
2.04564554,-20.66927384,25.48189891,-0.54124801,0.14108958,1.17424598

>  <Name>
ligand

>  <RI>
0

>  <Rbt.Current_Directory>
/home/itssahil/PROJECTS/Mol_Feturizer/New_Systems/rnas/4LVZ

>  <Rbt.Executable>
rbdock ($Id: //depot/dev/client3/rdock/2013.1/src/exe/rbdock.cxx#4 $)

>  <Rbt.Library>
libRbt.so (2013.1, Build901 2013/11/27)

>  <Rbt.Parameter_File>
/export/apps/rDock/src/rDock_2013.1_src/data/scripts/dock_solv.prm

>  <Rbt.Receptor>
prm/pocket_docking_3.prm

>  <SCORE>
-9.49413

>  <SCORE.INTER>
-9.49413

>  <SCORE.INTER.CONST>
1

>  <SCORE.INTER.POLAR>
0

>  <SCORE.INTER.ROT>
0

>  <SCORE.INTER.SOLV>
12.0152

>  <SCORE.INTER.VDW>
-13.9345

>  <SCORE.INTER.norm>
-0.863102

>  <SCORE.INTRA>
0

>  <SCORE.INTRA.DIHEDRAL>
0

>  <SCORE.INTRA.DIHEDRAL.0>
0

>  <SCORE.INTRA.POLAR>
0

>  <SCORE.INTRA.POLAR.0>
0

>  <SCORE.INTRA.REPUL>
0

>  <SCORE.INTRA.REPUL.0>
0

>  <SCORE.INTRA.SOLV>
0

>  <SCORE.INTRA.SOLV.lig_0>
-49.4056

>  <SCORE.INTRA.VDW>
0

>  <SCORE.INTRA.VDW.0>
0

>  <SCORE.INTRA.norm>
0

>  <SCORE.RESTR>
0

>  <SCORE.RESTR.CAVITY>
0

>  <SCORE.RESTR.norm>
0

>  <SCORE.SYSTEM>
0

>  <SCORE.SYSTEM.CONST>
0

>  <SCORE.SYSTEM.DIHEDRAL>
0

>  <SCORE.SYSTEM.SOLV>
0

>  <SCORE.SYSTEM.norm>
0

>  <SCORE.heavy>
11

>  <SCORE.norm>
-0.863102

>  <RMSD>
2.841

$$$$
ligand
 OpenBabel11021811503D
libRbt.so/2013.1/901 2013/11/27
 11 12  0  0  0  0  0  0  0  0999 V2000
    3.6906  -20.4855   25.3182 N   0  0  0  0  0  0  0  0  0  0  0  0
    3.2037  -21.0535   24.1873 C   0  0  0  0  0  0  0  0  0  0  0  0
    4.0731  -21.3733   23.0946 N   0  0  0  0  0  0  0  0  0  0  0  0
    1.8923  -21.3243   24.0630 N   0  0  0  0  0  0  0  0  0  0  0  0
    1.0054  -21.0414   25.0774 C   0  0  0  0  0  0  0  0  0  0  0  0
    1.4738  -20.4594   26.2411 C   0  0  0  0  0  0  0  0  0  0  0  0
    2.8686  -20.1771   26.3451 C   0  0  0  0  0  0  0  0  0  0  0  0
    3.3870  -19.5733   27.5344 N   0  0  0  0  0  0  0  0  0  0  0  0
    0.3795  -20.2885   27.0676 N   0  0  0  0  0  0  0  0  0  0  0  0
   -0.7202  -20.7422   26.4331 C   0  0  0  0  0  0  0  0  0  0  0  0
   -0.3658  -21.2048   25.2177 N   0  0  0  0  0  0  0  0  0  0  0  0
  1  7  2  0  0  0  0
  1  2  1  0  0  0  0
  2  3  1  0  0  0  0
  2  4  2  0  0  0  0
  4  5  1  0  0  0  0
  5  6  2  0  0  0  0
  5 11  1  0  0  0  0
  6  7  1  0  0  0  0
  6  9  1  0  0  0  0
  7  8  1  0  0  0  0
  9 10  1  0  0  0  0
 10 11  2  0  0  0  0
M  END
>  <CHROM.1>
1.92195183,-20.70263965,25.49687556,-0.52916521,0.15342164,1.16383829

>  <Name>
ligand

>  <RI>
0

>  <Rbt.Current_Directory>
/home/itssahil/PROJECTS/Mol_Feturizer/New_Systems/rnas/4LVZ

>  <Rbt.Executable>
rbdock ($Id: //depot/dev/client3/rdock/2013.1/src/exe/rbdock.cxx#4 $)

>  <Rbt.Library>
libRbt.so (2013.1, Build901 2013/11/27)

>  <Rbt.Parameter_File>
/export/apps/rDock/src/rDock_2013.1_src/data/scripts/dock_solv.prm

>  <Rbt.Receptor>
prm/pocket_docking_4.prm

>  <SCORE>
-9.47978

>  <SCORE.INTER>
-9.47978

>  <SCORE.INTER.CONST>
1

>  <SCORE.INTER.POLAR>
0

>  <SCORE.INTER.ROT>
0

>  <SCORE.INTER.SOLV>
12.9951

>  <SCORE.INTER.VDW>
-14.2516

>  <SCORE.INTER.norm>
-0.861799

>  <SCORE.INTRA>
0

>  <SCORE.INTRA.DIHEDRAL>
0

>  <SCORE.INTRA.DIHEDRAL.0>
0

>  <SCORE.INTRA.POLAR>
0

>  <SCORE.INTRA.POLAR.0>
0

>  <SCORE.INTRA.REPUL>
0

>  <SCORE.INTRA.REPUL.0>
0

>  <SCORE.INTRA.SOLV>
0

>  <SCORE.INTRA.SOLV.lig_0>
-49.4056

>  <SCORE.INTRA.VDW>
0

>  <SCORE.INTRA.VDW.0>
0

>  <SCORE.INTRA.norm>
0

>  <SCORE.RESTR>
0

>  <SCORE.RESTR.CAVITY>
0

>  <SCORE.RESTR.norm>
0

>  <SCORE.SYSTEM>
0

>  <SCORE.SYSTEM.CONST>
0

>  <SCORE.SYSTEM.DIHEDRAL>
0

>  <SCORE.SYSTEM.SOLV>
0

>  <SCORE.SYSTEM.norm>
0

>  <SCORE.heavy>
11

>  <SCORE.norm>
-0.861799

>  <RMSD>
2.841

$$$$
ligand
 OpenBabel11021811503D
libRbt.so/2013.1/901 2013/11/27
 11 12  0  0  0  0  0  0  0  0999 V2000
    3.7229  -20.4746   25.3204 N   0  0  0  0  0  0  0  0  0  0  0  0
    3.2315  -21.0093   24.1753 C   0  0  0  0  0  0  0  0  0  0  0  0
    4.1015  -21.3284   23.0828 N   0  0  0  0  0  0  0  0  0  0  0  0
    1.9151  -21.2468   24.0364 N   0  0  0  0  0  0  0  0  0  0  0  0
    1.0274  -20.9626   25.0498 C   0  0  0  0  0  0  0  0  0  0  0  0
    1.5005  -20.4141   26.2278 C   0  0  0  0  0  0  0  0  0  0  0  0
    2.9006  -20.1667   26.3471 C   0  0  0  0  0  0  0  0  0  0  0  0
    3.4240  -19.5981   27.5516 N   0  0  0  0  0  0  0  0  0  0  0  0
    0.4042  -20.2335   27.0496 N   0  0  0  0  0  0  0  0  0  0  0  0
   -0.7010  -20.6490   26.3987 C   0  0  0  0  0  0  0  0  0  0  0  0
   -0.3482  -21.0964   25.1771 N   0  0  0  0  0  0  0  0  0  0  0  0
  1  7  2  0  0  0  0
  1  2  1  0  0  0  0
  2  3  1  0  0  0  0
  2  4  2  0  0  0  0
  4  5  1  0  0  0  0
  5  6  2  0  0  0  0
  5 11  1  0  0  0  0
  6  7  1  0  0  0  0
  6  9  1  0  0  0  0
  7  8  1  0  0  0  0
  9 10  1  0  0  0  0
 10 11  2  0  0  0  0
M  END
>  <CHROM.1>
1.94840820,-20.65353790,25.48220006,-0.53145941,0.12899364,1.18337701

>  <Name>
ligand

>  <RI>
0

>  <Rbt.Current_Directory>
/home/itssahil/PROJECTS/Mol_Feturizer/New_Systems/rnas/4LVZ

>  <Rbt.Executable>
rbdock ($Id: //depot/dev/client3/rdock/2013.1/src/exe/rbdock.cxx#4 $)

>  <Rbt.Library>
libRbt.so (2013.1, Build901 2013/11/27)

>  <Rbt.Parameter_File>
/export/apps/rDock/src/rDock_2013.1_src/data/scripts/dock_solv.prm

>  <Rbt.Receptor>
prm/pocket_docking_4.prm

>  <SCORE>
-9.50661

>  <SCORE.INTER>
-9.50661

>  <SCORE.INTER.CONST>
1

>  <SCORE.INTER.POLAR>
0

>  <SCORE.INTER.ROT>
0

>  <SCORE.INTER.SOLV>
12.7173

>  <SCORE.INTER.VDW>
-14.1768

>  <SCORE.INTER.norm>
-0.864237

>  <SCORE.INTRA>
0

>  <SCORE.INTRA.DIHEDRAL>
0

>  <SCORE.INTRA.DIHEDRAL.0>
0

>  <SCORE.INTRA.POLAR>
0

>  <SCORE.INTRA.POLAR.0>
0

>  <SCORE.INTRA.REPUL>
0

>  <SCORE.INTRA.REPUL.0>
0

>  <SCORE.INTRA.SOLV>
0

>  <SCORE.INTRA.SOLV.lig_0>
-49.4056

>  <SCORE.INTRA.VDW>
0

>  <SCORE.INTRA.VDW.0>
0

>  <SCORE.INTRA.norm>
0

>  <SCORE.RESTR>
0

>  <SCORE.RESTR.CAVITY>
0

>  <SCORE.RESTR.norm>
0

>  <SCORE.SYSTEM>
0

>  <SCORE.SYSTEM.CONST>
0

>  <SCORE.SYSTEM.DIHEDRAL>
0

>  <SCORE.SYSTEM.SOLV>
0

>  <SCORE.SYSTEM.norm>
0

>  <SCORE.heavy>
11

>  <SCORE.norm>
-0.864237

>  <RMSD>
2.841

$$$$
ligand
 OpenBabel11021811503D
libRbt.so/2013.1/901 2013/11/27
 11 12  0  0  0  0  0  0  0  0999 V2000
    3.8177  -20.4770   25.2931 N   0  0  0  0  0  0  0  0  0  0  0  0
    3.3156  -21.0276   24.1602 C   0  0  0  0  0  0  0  0  0  0  0  0
    4.1737  -21.3527   23.0603 N   0  0  0  0  0  0  0  0  0  0  0  0
    1.9991  -21.2756   24.0408 N   0  0  0  0  0  0  0  0  0  0  0  0
    1.1224  -20.9863   25.0622 C   0  0  0  0  0  0  0  0  0  0  0  0
    1.6066  -20.4217   26.2280 C   0  0  0  0  0  0  0  0  0  0  0  0
    3.0064  -20.1634   26.3268 C   0  0  0  0  0  0  0  0  0  0  0  0
    3.5410  -19.5780   27.5181 N   0  0  0  0  0  0  0  0  0  0  0  0
    0.5197  -20.2394   27.0618 N   0  0  0  0  0  0  0  0  0  0  0  0
   -0.5908  -20.6696   26.4296 C   0  0  0  0  0  0  0  0  0  0  0  0
   -0.2505  -21.1280   25.2086 N   0  0  0  0  0  0  0  0  0  0  0  0
  1  7  2  0  0  0  0
  1  2  1  0  0  0  0
  2  3  1  0  0  0  0
  2  4  2  0  0  0  0
  4  5  1  0  0  0  0
  5  6  2  0  0  0  0
  5 11  1  0  0  0  0
  6  7  1  0  0  0  0
  6  9  1  0  0  0  0
  7  8  1  0  0  0  0
  9 10  1  0  0  0  0
 10 11  2  0  0  0  0
M  END
>  <CHROM.1>
2.04670450,-20.66619514,25.47946097,-0.54068586,0.14022445,1.17365273

>  <Name>
ligand

>  <RI>
0

>  <Rbt.Current_Directory>
/home/itssahil/PROJECTS/Mol_Feturizer/New_Systems/rnas/4LVZ

>  <Rbt.Executable>
rbdock ($Id: //depot/dev/client3/rdock/2013.1/src/exe/rbdock.cxx#4 $)

>  <Rbt.Library>
libRbt.so (2013.1, Build901 2013/11/27)

>  <Rbt.Parameter_File>
/export/apps/rDock/src/rDock_2013.1_src/data/scripts/dock_solv.prm

>  <Rbt.Receptor>
prm/pocket_docking_5.prm

>  <SCORE>
-9.49266

>  <SCORE.INTER>
-9.49266

>  <SCORE.INTER.CONST>
1

>  <SCORE.INTER.POLAR>
0

>  <SCORE.INTER.ROT>
0

>  <SCORE.INTER.SOLV>
12.0149

>  <SCORE.INTER.VDW>
-13.9334

>  <SCORE.INTER.norm>
-0.862969

>  <SCORE.INTRA>
0

>  <SCORE.INTRA.DIHEDRAL>
0

>  <SCORE.INTRA.DIHEDRAL.0>
0

>  <SCORE.INTRA.POLAR>
0

>  <SCORE.INTRA.POLAR.0>
0

>  <SCORE.INTRA.REPUL>
0

>  <SCORE.INTRA.REPUL.0>
0

>  <SCORE.INTRA.SOLV>
0

>  <SCORE.INTRA.SOLV.lig_0>
-49.4056

>  <SCORE.INTRA.VDW>
0

>  <SCORE.INTRA.VDW.0>
0

>  <SCORE.INTRA.norm>
0

>  <SCORE.RESTR>
0

>  <SCORE.RESTR.CAVITY>
0

>  <SCORE.RESTR.norm>
0

>  <SCORE.SYSTEM>
0

>  <SCORE.SYSTEM.CONST>
0

>  <SCORE.SYSTEM.DIHEDRAL>
0

>  <SCORE.SYSTEM.SOLV>
0

>  <SCORE.SYSTEM.norm>
0

>  <SCORE.heavy>
11

>  <SCORE.norm>
-0.862969

>  <RMSD>
2.841

$$$$
ligand
 OpenBabel11021811503D
libRbt.so/2013.1/901 2013/11/27
 11 12  0  0  0  0  0  0  0  0999 V2000
    3.7600  -20.4630   25.2715 N   0  0  0  0  0  0  0  0  0  0  0  0
    3.2344  -21.0061   24.1458 C   0  0  0  0  0  0  0  0  0  0  0  0
    4.0686  -21.3188   23.0240 N   0  0  0  0  0  0  0  0  0  0  0  0
    1.9165  -21.2583   24.0542 N   0  0  0  0  0  0  0  0  0  0  0  0
    1.0621  -20.9809   25.0976 C   0  0  0  0  0  0  0  0  0  0  0  0
    1.5705  -20.4240   26.2568 C   0  0  0  0  0  0  0  0  0  0  0  0
    2.9712  -20.1612   26.3260 C   0  0  0  0  0  0  0  0  0  0  0  0
    3.5306  -19.5835   27.5098 N   0  0  0  0  0  0  0  0  0  0  0  0
    0.5021  -20.2529   27.1164 N   0  0  0  0  0  0  0  0  0  0  0  0
   -0.6208  -20.6822   26.5060 C   0  0  0  0  0  0  0  0  0  0  0  0
   -0.3066  -21.1292   25.2738 N   0  0  0  0  0  0  0  0  0  0  0  0
  1  7  2  0  0  0  0
  1  2  1  0  0  0  0
  2  3  1  0  0  0  0
  2  4  2  0  0  0  0
  4  5  1  0  0  0  0
  5  6  2  0  0  0  0
  5 11  1  0  0  0  0
  6  7  1  0  0  0  0
  6  9  1  0  0  0  0
  7  8  1  0  0  0  0
  9 10  1  0  0  0  0
 10 11  2  0  0  0  0
M  END
>  <CHROM.1>
1.99440643,-20.66065311,25.49643059,-0.56040221,0.15238935,1.18485127

>  <Name>
ligand

>  <RI>
0

>  <Rbt.Current_Directory>
/home/itssahil/PROJECTS/Mol_Feturizer/New_Systems/rnas/4LVZ

>  <Rbt.Executable>
rbdock ($Id: //depot/dev/client3/rdock/2013.1/src/exe/rbdock.cxx#4 $)

>  <Rbt.Library>
libRbt.so (2013.1, Build901 2013/11/27)

>  <Rbt.Parameter_File>
/export/apps/rDock/src/rDock_2013.1_src/data/scripts/dock_solv.prm

>  <Rbt.Receptor>
prm/pocket_docking_6.prm

>  <SCORE>
-9.44866

>  <SCORE.INTER>
-9.44866

>  <SCORE.INTER.CONST>
1

>  <SCORE.INTER.POLAR>
0

>  <SCORE.INTER.ROT>
0

>  <SCORE.INTER.SOLV>
12.4601

>  <SCORE.INTER.VDW>
-14.0525

>  <SCORE.INTER.norm>
-0.858969

>  <SCORE.INTRA>
0

>  <SCORE.INTRA.DIHEDRAL>
0

>  <SCORE.INTRA.DIHEDRAL.0>
0

>  <SCORE.INTRA.POLAR>
0

>  <SCORE.INTRA.POLAR.0>
0

>  <SCORE.INTRA.REPUL>
0

>  <SCORE.INTRA.REPUL.0>
0

>  <SCORE.INTRA.SOLV>
0

>  <SCORE.INTRA.SOLV.lig_0>
-49.4056

>  <SCORE.INTRA.VDW>
0

>  <SCORE.INTRA.VDW.0>
0

>  <SCORE.INTRA.norm>
0

>  <SCORE.RESTR>
0

>  <SCORE.RESTR.CAVITY>
0

>  <SCORE.RESTR.norm>
0

>  <SCORE.SYSTEM>
0

>  <SCORE.SYSTEM.CONST>
0

>  <SCORE.SYSTEM.DIHEDRAL>
0

>  <SCORE.SYSTEM.SOLV>
0

>  <SCORE.SYSTEM.norm>
0

>  <SCORE.heavy>
11

>  <SCORE.norm>
-0.858969

>  <RMSD>
2.842

$$$$
ligand
 OpenBabel11021811503D
libRbt.so/2013.1/901 2013/11/27
 11 12  0  0  0  0  0  0  0  0999 V2000
    3.7473  -20.4508   25.2517 N   0  0  0  0  0  0  0  0  0  0  0  0
    3.2047  -20.9777   24.1263 C   0  0  0  0  0  0  0  0  0  0  0  0
    4.0201  -21.2634   22.9837 N   0  0  0  0  0  0  0  0  0  0  0  0
    1.8873  -21.2387   24.0546 N   0  0  0  0  0  0  0  0  0  0  0  0
    1.0506  -20.9870   25.1186 C   0  0  0  0  0  0  0  0  0  0  0  0
    1.5764  -20.4472   26.2781 C   0  0  0  0  0  0  0  0  0  0  0  0
    2.9761  -20.1744   26.3260 C   0  0  0  0  0  0  0  0  0  0  0  0
    3.5531  -19.6138   27.5095 N   0  0  0  0  0  0  0  0  0  0  0  0
    0.5230  -20.3002   27.1605 N   0  0  0  0  0  0  0  0  0  0  0  0
   -0.6078  -20.7273   26.5634 C   0  0  0  0  0  0  0  0  0  0  0  0
   -0.3134  -21.1495   25.3176 N   0  0  0  0  0  0  0  0  0  0  0  0
  1  7  2  0  0  0  0
  1  2  1  0  0  0  0
  2  3  1  0  0  0  0
  2  4  2  0  0  0  0
  4  5  1  0  0  0  0
  5  6  2  0  0  0  0
  5 11  1  0  0  0  0
  6  7  1  0  0  0  0
  6  9  1  0  0  0  0
  7  8  1  0  0  0  0
  9 10  1  0  0  0  0
 10 11  2  0  0  0  0
M  END
>  <CHROM.1>
1.98774773,-20.66661105,25.50582376,-0.57510668,0.16654430,1.20531230

>  <Name>
ligand

>  <RI>
0

>  <Rbt.Current_Directory>
/home/itssahil/PROJECTS/Mol_Feturizer/New_Systems/rnas/4LVZ

>  <Rbt.Executable>
rbdock ($Id: //depot/dev/client3/rdock/2013.1/src/exe/rbdock.cxx#4 $)

>  <Rbt.Library>
libRbt.so (2013.1, Build901 2013/11/27)

>  <Rbt.Parameter_File>
/export/apps/rDock/src/rDock_2013.1_src/data/scripts/dock_solv.prm

>  <Rbt.Receptor>
prm/pocket_docking_6.prm

>  <SCORE>
-9.44955

>  <SCORE.INTER>
-9.44955

>  <SCORE.INTER.CONST>
1

>  <SCORE.INTER.POLAR>
0

>  <SCORE.INTER.ROT>
0

>  <SCORE.INTER.SOLV>
12.4958

>  <SCORE.INTER.VDW>
-14.0649

>  <SCORE.INTER.norm>
-0.85905

>  <SCORE.INTRA>
0

>  <SCORE.INTRA.DIHEDRAL>
0

>  <SCORE.INTRA.DIHEDRAL.0>
0

>  <SCORE.INTRA.POLAR>
0

>  <SCORE.INTRA.POLAR.0>
0

>  <SCORE.INTRA.REPUL>
0

>  <SCORE.INTRA.REPUL.0>
0

>  <SCORE.INTRA.SOLV>
0

>  <SCORE.INTRA.SOLV.lig_0>
-49.4056

>  <SCORE.INTRA.VDW>
0

>  <SCORE.INTRA.VDW.0>
0

>  <SCORE.INTRA.norm>
0

>  <SCORE.RESTR>
0

>  <SCORE.RESTR.CAVITY>
0

>  <SCORE.RESTR.norm>
0

>  <SCORE.SYSTEM>
0

>  <SCORE.SYSTEM.CONST>
0

>  <SCORE.SYSTEM.DIHEDRAL>
0

>  <SCORE.SYSTEM.SOLV>
0

>  <SCORE.SYSTEM.norm>
0

>  <SCORE.heavy>
11

>  <SCORE.norm>
-0.85905

>  <RMSD>
2.842

$$$$
ligand
 OpenBabel11021811503D
libRbt.so/2013.1/901 2013/11/27
 11 12  0  0  0  0  0  0  0  0999 V2000
    3.8166  -20.4815   25.2931 N   0  0  0  0  0  0  0  0  0  0  0  0
    3.3186  -21.0370   24.1609 C   0  0  0  0  0  0  0  0  0  0  0  0
    4.1799  -21.3616   23.0633 N   0  0  0  0  0  0  0  0  0  0  0  0
    2.0033  -21.2906   24.0399 N   0  0  0  0  0  0  0  0  0  0  0  0
    1.1238  -21.0021   25.0591 C   0  0  0  0  0  0  0  0  0  0  0  0
    1.6037  -20.4326   26.2243 C   0  0  0  0  0  0  0  0  0  0  0  0
    3.0023  -20.1685   26.3247 C   0  0  0  0  0  0  0  0  0  0  0  0
    3.5326  -19.5778   27.5154 N   0  0  0  0  0  0  0  0  0  0  0  0
    0.5147  -20.2525   27.0557 N   0  0  0  0  0  0  0  0  0  0  0  0
   -0.5930  -20.6888   26.4228 C   0  0  0  0  0  0  0  0  0  0  0  0
   -0.2488  -21.1490   25.2036 N   0  0  0  0  0  0  0  0  0  0  0  0
  1  7  2  0  0  0  0
  1  2  1  0  0  0  0
  2  3  1  0  0  0  0
  2  4  2  0  0  0  0
  4  5  1  0  0  0  0
  5  6  2  0  0  0  0
  5 11  1  0  0  0  0
  6  7  1  0  0  0  0
  6  9  1  0  0  0  0
  7  8  1  0  0  0  0
  9 10  1  0  0  0  0
 10 11  2  0  0  0  0
M  END
>  <CHROM.1>
2.04605261,-20.67729100,25.47709033,-0.53755953,0.14326255,1.17060030

>  <Name>
ligand

>  <RI>
0

>  <Rbt.Current_Directory>
/home/itssahil/PROJECTS/Mol_Feturizer/New_Systems/rnas/4LVZ

>  <Rbt.Executable>
rbdock ($Id: //depot/dev/client3/rdock/2013.1/src/exe/rbdock.cxx#4 $)

>  <Rbt.Library>
libRbt.so (2013.1, Build901 2013/11/27)

>  <Rbt.Parameter_File>
/export/apps/rDock/src/rDock_2013.1_src/data/scripts/dock_solv.prm

>  <Rbt.Receptor>
prm/pocket_docking_7.prm

>  <SCORE>
-9.48779

>  <SCORE.INTER>
-9.48779

>  <SCORE.INTER.CONST>
1

>  <SCORE.INTER.POLAR>
0

>  <SCORE.INTER.ROT>
0

>  <SCORE.INTER.SOLV>
12.0164

>  <SCORE.INTER.VDW>
-13.9306

>  <SCORE.INTER.norm>
-0.862527

>  <SCORE.INTRA>
0

>  <SCORE.INTRA.DIHEDRAL>
0

>  <SCORE.INTRA.DIHEDRAL.0>
0

>  <SCORE.INTRA.POLAR>
0

>  <SCORE.INTRA.POLAR.0>
0

>  <SCORE.INTRA.REPUL>
0

>  <SCORE.INTRA.REPUL.0>
0

>  <SCORE.INTRA.SOLV>
0

>  <SCORE.INTRA.SOLV.lig_0>
-49.4056

>  <SCORE.INTRA.VDW>
0

>  <SCORE.INTRA.VDW.0>
0

>  <SCORE.INTRA.norm>
0

>  <SCORE.RESTR>
0

>  <SCORE.RESTR.CAVITY>
0

>  <SCORE.RESTR.norm>
0

>  <SCORE.SYSTEM>
0

>  <SCORE.SYSTEM.CONST>
0

>  <SCORE.SYSTEM.DIHEDRAL>
0

>  <SCORE.SYSTEM.SOLV>
0

>  <SCORE.SYSTEM.norm>
0

>  <SCORE.heavy>
11

>  <SCORE.norm>
-0.862527

>  <RMSD>
2.842

$$$$
ligand
 OpenBabel11021811503D
libRbt.so/2013.1/901 2013/11/27
 11 12  0  0  0  0  0  0  0  0999 V2000
    3.8066  -20.5242   25.2628 N   0  0  0  0  0  0  0  0  0  0  0  0
    3.2321  -21.0064   24.1333 C   0  0  0  0  0  0  0  0  0  0  0  0
    4.0200  -21.2774   22.9681 N   0  0  0  0  0  0  0  0  0  0  0  0
    1.9080  -21.2359   24.0789 N   0  0  0  0  0  0  0  0  0  0  0  0
    1.0965  -20.9962   25.1650 C   0  0  0  0  0  0  0  0  0  0  0  0
    1.6552  -20.5016   26.3292 C   0  0  0  0  0  0  0  0  0  0  0  0
    3.0614  -20.2615   26.3586 C   0  0  0  0  0  0  0  0  0  0  0  0
    3.6722  -19.7480   27.5465 N   0  0  0  0  0  0  0  0  0  0  0  0
    0.6215  -20.3565   27.2348 N   0  0  0  0  0  0  0  0  0  0  0  0
   -0.5293  -20.7411   26.6471 C   0  0  0  0  0  0  0  0  0  0  0  0
   -0.2671  -21.1339   25.3846 N   0  0  0  0  0  0  0  0  0  0  0  0
  1  7  2  0  0  0  0
  1  2  1  0  0  0  0
  2  3  1  0  0  0  0
  2  4  2  0  0  0  0
  4  5  1  0  0  0  0
  5  6  2  0  0  0  0
  5 11  1  0  0  0  0
  6  7  1  0  0  0  0
  6  9  1  0  0  0  0
  7  8  1  0  0  0  0
  9 10  1  0  0  0  0
 10 11  2  0  0  0  0
M  END
>  <CHROM.1>
2.04748237,-20.70794339,25.54349512,-0.60034069,0.15165766,1.23773760

>  <Name>
ligand

>  <RI>
0

>  <Rbt.Current_Directory>
/home/itssahil/PROJECTS/Mol_Feturizer/New_Systems/rnas/4LVZ

>  <Rbt.Executable>
rbdock ($Id: //depot/dev/client3/rdock/2013.1/src/exe/rbdock.cxx#4 $)

>  <Rbt.Library>
libRbt.so (2013.1, Build901 2013/11/27)

>  <Rbt.Parameter_File>
/export/apps/rDock/src/rDock_2013.1_src/data/scripts/dock_solv.prm

>  <Rbt.Receptor>
prm/pocket_docking_8.prm

>  <SCORE>
-9.45743

>  <SCORE.INTER>
-9.45743

>  <SCORE.INTER.CONST>
1

>  <SCORE.INTER.POLAR>
0

>  <SCORE.INTER.ROT>
0

>  <SCORE.INTER.SOLV>
11.8397

>  <SCORE.INTER.VDW>
-13.8515

>  <SCORE.INTER.norm>
-0.859766

>  <SCORE.INTRA>
0

>  <SCORE.INTRA.DIHEDRAL>
0

>  <SCORE.INTRA.DIHEDRAL.0>
0

>  <SCORE.INTRA.POLAR>
0

>  <SCORE.INTRA.POLAR.0>
0

>  <SCORE.INTRA.REPUL>
0

>  <SCORE.INTRA.REPUL.0>
0

>  <SCORE.INTRA.SOLV>
0

>  <SCORE.INTRA.SOLV.lig_0>
-49.4056

>  <SCORE.INTRA.VDW>
0

>  <SCORE.INTRA.VDW.0>
0

>  <SCORE.INTRA.norm>
0

>  <SCORE.RESTR>
0

>  <SCORE.RESTR.CAVITY>
0

>  <SCORE.RESTR.norm>
0

>  <SCORE.SYSTEM>
0

>  <SCORE.SYSTEM.CONST>
0

>  <SCORE.SYSTEM.DIHEDRAL>
0

>  <SCORE.SYSTEM.SOLV>
0

>  <SCORE.SYSTEM.norm>
0

>  <SCORE.heavy>
11

>  <SCORE.norm>
-0.859766

>  <RMSD>
2.842

$$$$
ligand
 OpenBabel11021811503D
libRbt.so/2013.1/901 2013/11/27
 11 12  0  0  0  0  0  0  0  0999 V2000
    3.7561  -20.4364   25.2540 N   0  0  0  0  0  0  0  0  0  0  0  0
    3.2275  -20.9680   24.1241 C   0  0  0  0  0  0  0  0  0  0  0  0
    4.0575  -21.2621   22.9943 N   0  0  0  0  0  0  0  0  0  0  0  0
    1.9105  -21.2259   24.0361 N   0  0  0  0  0  0  0  0  0  0  0  0
    1.0601  -20.9662   25.0873 C   0  0  0  0  0  0  0  0  0  0  0  0
    1.5716  -20.4214   26.2508 C   0  0  0  0  0  0  0  0  0  0  0  0
    2.9713  -20.1520   26.3161 C   0  0  0  0  0  0  0  0  0  0  0  0
    3.5337  -19.5865   27.5043 N   0  0  0  0  0  0  0  0  0  0  0  0
    0.5067  -20.2668   27.1180 N   0  0  0  0  0  0  0  0  0  0  0  0
   -0.6171  -20.6942   26.5080 C   0  0  0  0  0  0  0  0  0  0  0  0
   -0.3069  -21.1239   25.2686 N   0  0  0  0  0  0  0  0  0  0  0  0
  1  7  2  0  0  0  0
  1  2  1  0  0  0  0
  2  3  1  0  0  0  0
  2  4  2  0  0  0  0
  4  5  1  0  0  0  0
  5  6  2  0  0  0  0
  5 11  1  0  0  0  0
  6  7  1  0  0  0  0
  6  9  1  0  0  0  0
  7  8  1  0  0  0  0
  9 10  1  0  0  0  0
 10 11  2  0  0  0  0
M  END
>  <CHROM.1>
1.99275006,-20.64612199,25.48537177,-0.56327927,0.15914664,1.19795023

>  <Name>
ligand

>  <RI>
0

>  <Rbt.Current_Directory>
/home/itssahil/PROJECTS/Mol_Feturizer/New_Systems/rnas/4LVZ

>  <Rbt.Executable>
rbdock ($Id: //depot/dev/client3/rdock/2013.1/src/exe/rbdock.cxx#4 $)

>  <Rbt.Library>
libRbt.so (2013.1, Build901 2013/11/27)

>  <Rbt.Parameter_File>
/export/apps/rDock/src/rDock_2013.1_src/data/scripts/dock_solv.prm

>  <Rbt.Receptor>
prm/pocket_docking_8.prm

>  <SCORE>
-9.46203

>  <SCORE.INTER>
-9.46203

>  <SCORE.INTER.CONST>
1

>  <SCORE.INTER.POLAR>
0

>  <SCORE.INTER.ROT>
0

>  <SCORE.INTER.SOLV>
12.4565

>  <SCORE.INTER.VDW>
-14.0602

>  <SCORE.INTER.norm>
-0.860184

>  <SCORE.INTRA>
0

>  <SCORE.INTRA.DIHEDRAL>
0

>  <SCORE.INTRA.DIHEDRAL.0>
0

>  <SCORE.INTRA.POLAR>
0

>  <SCORE.INTRA.POLAR.0>
0

>  <SCORE.INTRA.REPUL>
0

>  <SCORE.INTRA.REPUL.0>
0

>  <SCORE.INTRA.SOLV>
0

>  <SCORE.INTRA.SOLV.lig_0>
-49.4056

>  <SCORE.INTRA.VDW>
0

>  <SCORE.INTRA.VDW.0>
0

>  <SCORE.INTRA.norm>
0

>  <SCORE.RESTR>
0

>  <SCORE.RESTR.CAVITY>
0

>  <SCORE.RESTR.norm>
0

>  <SCORE.SYSTEM>
0

>  <SCORE.SYSTEM.CONST>
0

>  <SCORE.SYSTEM.DIHEDRAL>
0

>  <SCORE.SYSTEM.SOLV>
0

>  <SCORE.SYSTEM.norm>
0

>  <SCORE.heavy>
11

>  <SCORE.norm>
-0.860184

>  <RMSD>
2.842

$$$$
ligand
 OpenBabel11021811503D
libRbt.so/2013.1/901 2013/11/27
 11 12  0  0  0  0  0  0  0  0999 V2000
    3.8150  -20.4788   25.2897 N   0  0  0  0  0  0  0  0  0  0  0  0
    3.3158  -21.0299   24.1558 C   0  0  0  0  0  0  0  0  0  0  0  0
    4.1763  -21.3522   23.0569 N   0  0  0  0  0  0  0  0  0  0  0  0
    2.0002  -21.2811   24.0343 N   0  0  0  0  0  0  0  0  0  0  0  0
    1.1213  -20.9946   25.0547 C   0  0  0  0  0  0  0  0  0  0  0  0
    1.6024  -20.4296   26.2216 C   0  0  0  0  0  0  0  0  0  0  0  0
    3.0014  -20.1679   26.3225 C   0  0  0  0  0  0  0  0  0  0  0  0
    3.5329  -19.5819   27.5150 N   0  0  0  0  0  0  0  0  0  0  0  0
    0.5138  -20.2506   27.0539 N   0  0  0  0  0  0  0  0  0  0  0  0
   -0.5947  -20.6831   26.4199 C   0  0  0  0  0  0  0  0  0  0  0  0
   -0.2515  -21.1399   25.1990 N   0  0  0  0  0  0  0  0  0  0  0  0
  1  7  2  0  0  0  0
  1  2  1  0  0  0  0
  2  3  1  0  0  0  0
  2  4  2  0  0  0  0
  4  5  1  0  0  0  0
  5  6  2  0  0  0  0
  5 11  1  0  0  0  0
  6  7  1  0  0  0  0
  6  9  1  0  0  0  0
  7  8  1  0  0  0  0
  9 10  1  0  0  0  0
 10 11  2  0  0  0  0
M  END
>  <CHROM.1>
2.04415861,-20.67253509,25.47346370,-0.53838676,0.14196943,1.17397574

>  <Name>
ligand

>  <RI>
0

>  <Rbt.Current_Directory>
/home/itssahil/PROJECTS/Mol_Feturizer/New_Systems/rnas/4LVZ

>  <Rbt.Executable>
rbdock ($Id: //depot/dev/client3/rdock/2013.1/src/exe/rbdock.cxx#4 $)

>  <Rbt.Library>
libRbt.so (2013.1, Build901 2013/11/27)

>  <Rbt.Parameter_File>
/export/apps/rDock/src/rDock_2013.1_src/data/scripts/dock_solv.prm

>  <Rbt.Receptor>
prm/pocket_docking_8.prm

>  <SCORE>
-9.49079

>  <SCORE.INTER>
-9.49079

>  <SCORE.INTER.CONST>
1

>  <SCORE.INTER.POLAR>
0

>  <SCORE.INTER.ROT>
0

>  <SCORE.INTER.SOLV>
12.0074

>  <SCORE.INTER.VDW>
-13.9297

>  <SCORE.INTER.norm>
-0.862799

>  <SCORE.INTRA>
0

>  <SCORE.INTRA.DIHEDRAL>
0

>  <SCORE.INTRA.DIHEDRAL.0>
0

>  <SCORE.INTRA.POLAR>
0

>  <SCORE.INTRA.POLAR.0>
0

>  <SCORE.INTRA.REPUL>
0

>  <SCORE.INTRA.REPUL.0>
0

>  <SCORE.INTRA.SOLV>
0

>  <SCORE.INTRA.SOLV.lig_0>
-49.4056

>  <SCORE.INTRA.VDW>
0

>  <SCORE.INTRA.VDW.0>
0

>  <SCORE.INTRA.norm>
0

>  <SCORE.RESTR>
0

>  <SCORE.RESTR.CAVITY>
0

>  <SCORE.RESTR.norm>
0

>  <SCORE.SYSTEM>
0

>  <SCORE.SYSTEM.CONST>
0

>  <SCORE.SYSTEM.DIHEDRAL>
0

>  <SCORE.SYSTEM.SOLV>
0

>  <SCORE.SYSTEM.norm>
0

>  <SCORE.heavy>
11

>  <SCORE.norm>
-0.862799

>  <RMSD>
2.842

$$$$
ligand
 OpenBabel11021811503D
libRbt.so/2013.1/901 2013/11/27
 11 12  0  0  0  0  0  0  0  0999 V2000
    3.6770  -20.4973   25.3266 N   0  0  0  0  0  0  0  0  0  0  0  0
    3.1884  -21.0581   24.1928 C   0  0  0  0  0  0  0  0  0  0  0  0
    4.0579  -21.3820   23.1014 N   0  0  0  0  0  0  0  0  0  0  0  0
    1.8750  -21.3177   24.0644 N   0  0  0  0  0  0  0  0  0  0  0  0
    0.9879  -21.0302   25.0773 C   0  0  0  0  0  0  0  0  0  0  0  0
    1.4582  -20.4554   26.2438 C   0  0  0  0  0  0  0  0  0  0  0  0
    2.8550  -20.1850   26.3522 C   0  0  0  0  0  0  0  0  0  0  0  0
    3.3754  -19.5888   27.5445 N   0  0  0  0  0  0  0  0  0  0  0  0
    0.3632  -20.2777   27.0680 N   0  0  0  0  0  0  0  0  0  0  0  0
   -0.7386  -20.7205   26.4295 C   0  0  0  0  0  0  0  0  0  0  0  0
   -0.3849  -21.1826   25.2136 N   0  0  0  0  0  0  0  0  0  0  0  0
  1  7  2  0  0  0  0
  1  2  1  0  0  0  0
  2  3  1  0  0  0  0
  2  4  2  0  0  0  0
  4  5  1  0  0  0  0
  5  6  2  0  0  0  0
  5 11  1  0  0  0  0
  6  7  1  0  0  0  0
  6  9  1  0  0  0  0
  7  8  1  0  0  0  0
  9 10  1  0  0  0  0
 10 11  2  0  0  0  0
M  END
>  <CHROM.1>
1.90619490,-20.70023969,25.50008020,-0.53009781,0.14477341,1.16678651

>  <Name>
ligand

>  <RI>
0

>  <Rbt.Current_Directory>
/home/itssahil/PROJECTS/Mol_Feturizer/New_Systems/rnas/4LVZ

>  <Rbt.Executable>
rbdock ($Id: //depot/dev/client3/rdock/2013.1/src/exe/rbdock.cxx#4 $)

>  <Rbt.Library>
libRbt.so (2013.1, Build901 2013/11/27)

>  <Rbt.Parameter_File>
/export/apps/rDock/src/rDock_2013.1_src/data/scripts/dock_solv.prm

>  <Rbt.Receptor>
prm/pocket_docking_8.prm

>  <SCORE>
-9.49089

>  <SCORE.INTER>
-9.49089

>  <SCORE.INTER.CONST>
1

>  <SCORE.INTER.POLAR>
0

>  <SCORE.INTER.ROT>
0

>  <SCORE.INTER.SOLV>
13.1013

>  <SCORE.INTER.VDW>
-14.2943

>  <SCORE.INTER.norm>
-0.862808

>  <SCORE.INTRA>
0

>  <SCORE.INTRA.DIHEDRAL>
0

>  <SCORE.INTRA.DIHEDRAL.0>
0

>  <SCORE.INTRA.POLAR>
0

>  <SCORE.INTRA.POLAR.0>
0

>  <SCORE.INTRA.REPUL>
0

>  <SCORE.INTRA.REPUL.0>
0

>  <SCORE.INTRA.SOLV>
0

>  <SCORE.INTRA.SOLV.lig_0>
-49.4056

>  <SCORE.INTRA.VDW>
0

>  <SCORE.INTRA.VDW.0>
0

>  <SCORE.INTRA.norm>
0

>  <SCORE.RESTR>
0

>  <SCORE.RESTR.CAVITY>
0

>  <SCORE.RESTR.norm>
0

>  <SCORE.SYSTEM>
0

>  <SCORE.SYSTEM.CONST>
0

>  <SCORE.SYSTEM.DIHEDRAL>
0

>  <SCORE.SYSTEM.SOLV>
0

>  <SCORE.SYSTEM.norm>
0

>  <SCORE.heavy>
11

>  <SCORE.norm>
-0.862808

>  <RMSD>
2.842

$$$$
ligand
 OpenBabel11021811503D
libRbt.so/2013.1/901 2013/11/27
 11 12  0  0  0  0  0  0  0  0999 V2000
    3.7914  -20.4674   25.2533 N   0  0  0  0  0  0  0  0  0  0  0  0
    3.2462  -20.9686   24.1175 C   0  0  0  0  0  0  0  0  0  0  0  0
    4.0625  -21.2486   22.9741 N   0  0  0  0  0  0  0  0  0  0  0  0
    1.9255  -21.2089   24.0361 N   0  0  0  0  0  0  0  0  0  0  0  0
    1.0877  -20.9614   25.1003 C   0  0  0  0  0  0  0  0  0  0  0  0
    1.6162  -20.4475   26.2703 C   0  0  0  0  0  0  0  0  0  0  0  0
    3.0195  -20.1963   26.3284 C   0  0  0  0  0  0  0  0  0  0  0  0
    3.5994  -19.6628   27.5230 N   0  0  0  0  0  0  0  0  0  0  0  0
    0.5611  -20.2987   27.1503 N   0  0  0  0  0  0  0  0  0  0  0  0
   -0.5732  -20.6997   26.5418 C   0  0  0  0  0  0  0  0  0  0  0  0
   -0.2794  -21.1067   25.2908 N   0  0  0  0  0  0  0  0  0  0  0  0
  1  7  2  0  0  0  0
  1  2  1  0  0  0  0
  2  3  1  0  0  0  0
  2  4  2  0  0  0  0
  4  5  1  0  0  0  0
  5  6  2  0  0  0  0
  5 11  1  0  0  0  0
  6  7  1  0  0  0  0
  6  9  1  0  0  0  0
  7  8  1  0  0  0  0
  9 10  1  0  0  0  0
 10 11  2  0  0  0  0
M  END
>  <CHROM.1>
2.02772609,-20.66102438,25.49646688,-0.57615911,0.15114473,1.22107178

>  <Name>
ligand

>  <RI>
0

>  <Rbt.Current_Directory>
/home/itssahil/PROJECTS/Mol_Feturizer/New_Systems/rnas/4LVZ

>  <Rbt.Executable>
rbdock ($Id: //depot/dev/client3/rdock/2013.1/src/exe/rbdock.cxx#4 $)

>  <Rbt.Library>
libRbt.so (2013.1, Build901 2013/11/27)

>  <Rbt.Parameter_File>
/export/apps/rDock/src/rDock_2013.1_src/data/scripts/dock_solv.prm

>  <Rbt.Receptor>
prm/pocket_docking_3.prm

>  <SCORE>
-9.41671

>  <SCORE.INTER>
-9.41671

>  <SCORE.INTER.CONST>
1

>  <SCORE.INTER.POLAR>
0

>  <SCORE.INTER.ROT>
0

>  <SCORE.INTER.SOLV>
12.0561

>  <SCORE.INTER.VDW>
-13.8965

>  <SCORE.INTER.norm>
-0.856064

>  <SCORE.INTRA>
0

>  <SCORE.INTRA.DIHEDRAL>
0

>  <SCORE.INTRA.DIHEDRAL.0>
0

>  <SCORE.INTRA.POLAR>
0

>  <SCORE.INTRA.POLAR.0>
0

>  <SCORE.INTRA.REPUL>
0

>  <SCORE.INTRA.REPUL.0>
0

>  <SCORE.INTRA.SOLV>
0

>  <SCORE.INTRA.SOLV.lig_0>
-49.4056

>  <SCORE.INTRA.VDW>
0

>  <SCORE.INTRA.VDW.0>
0

>  <SCORE.INTRA.norm>
0

>  <SCORE.RESTR>
0

>  <SCORE.RESTR.CAVITY>
0

>  <SCORE.RESTR.norm>
0

>  <SCORE.SYSTEM>
0

>  <SCORE.SYSTEM.CONST>
0

>  <SCORE.SYSTEM.DIHEDRAL>
0

>  <SCORE.SYSTEM.SOLV>
0

>  <SCORE.SYSTEM.norm>
0

>  <SCORE.heavy>
11

>  <SCORE.norm>
-0.856064

>  <RMSD>
2.843

$$$$
ligand
 OpenBabel11021811503D
libRbt.so/2013.1/901 2013/11/27
 11 12  0  0  0  0  0  0  0  0999 V2000
    3.8125  -20.4797   25.2858 N   0  0  0  0  0  0  0  0  0  0  0  0
    3.3117  -21.0309   24.1526 C   0  0  0  0  0  0  0  0  0  0  0  0
    4.1708  -21.3544   23.0530 N   0  0  0  0  0  0  0  0  0  0  0  0
    1.9957  -21.2811   24.0327 N   0  0  0  0  0  0  0  0  0  0  0  0
    1.1181  -20.9935   25.0538 C   0  0  0  0  0  0  0  0  0  0  0  0
    1.6009  -20.4282   26.2199 C   0  0  0  0  0  0  0  0  0  0  0  0
    3.0003  -20.1677   26.3193 C   0  0  0  0  0  0  0  0  0  0  0  0
    3.5335  -19.5816   27.5109 N   0  0  0  0  0  0  0  0  0  0  0  0
    0.5134  -20.2480   27.0533 N   0  0  0  0  0  0  0  0  0  0  0  0
   -0.5961  -20.6799   26.4206 C   0  0  0  0  0  0  0  0  0  0  0  0
   -0.2546  -21.1376   25.1996 N   0  0  0  0  0  0  0  0  0  0  0  0
  1  7  2  0  0  0  0
  1  2  1  0  0  0  0
  2  3  1  0  0  0  0
  2  4  2  0  0  0  0
  4  5  1  0  0  0  0
  5  6  2  0  0  0  0
  5 11  1  0  0  0  0
  6  7  1  0  0  0  0
  6  9  1  0  0  0  0
  7  8  1  0  0  0  0
  9 10  1  0  0  0  0
 10 11  2  0  0  0  0
M  END
>  <CHROM.1>
2.04172135,-20.67190000,25.47149041,-0.53967338,0.14163497,1.17370140

>  <Name>
ligand

>  <RI>
0

>  <Rbt.Current_Directory>
/home/itssahil/PROJECTS/Mol_Feturizer/New_Systems/rnas/4LVZ

>  <Rbt.Executable>
rbdock ($Id: //depot/dev/client3/rdock/2013.1/src/exe/rbdock.cxx#4 $)

>  <Rbt.Library>
libRbt.so (2013.1, Build901 2013/11/27)

>  <Rbt.Parameter_File>
/export/apps/rDock/src/rDock_2013.1_src/data/scripts/dock_solv.prm

>  <Rbt.Receptor>
prm/pocket_docking_4.prm

>  <SCORE>
-9.49182

>  <SCORE.INTER>
-9.49182

>  <SCORE.INTER.CONST>
1

>  <SCORE.INTER.POLAR>
0

>  <SCORE.INTER.ROT>
0

>  <SCORE.INTER.SOLV>
12.0234

>  <SCORE.INTER.VDW>
-13.9357

>  <SCORE.INTER.norm>
-0.862893

>  <SCORE.INTRA>
0

>  <SCORE.INTRA.DIHEDRAL>
0

>  <SCORE.INTRA.DIHEDRAL.0>
0

>  <SCORE.INTRA.POLAR>
0

>  <SCORE.INTRA.POLAR.0>
0

>  <SCORE.INTRA.REPUL>
0

>  <SCORE.INTRA.REPUL.0>
0

>  <SCORE.INTRA.SOLV>
0

>  <SCORE.INTRA.SOLV.lig_0>
-49.4056

>  <SCORE.INTRA.VDW>
0

>  <SCORE.INTRA.VDW.0>
0

>  <SCORE.INTRA.norm>
0

>  <SCORE.RESTR>
0

>  <SCORE.RESTR.CAVITY>
0

>  <SCORE.RESTR.norm>
0

>  <SCORE.SYSTEM>
0

>  <SCORE.SYSTEM.CONST>
0

>  <SCORE.SYSTEM.DIHEDRAL>
0

>  <SCORE.SYSTEM.SOLV>
0

>  <SCORE.SYSTEM.norm>
0

>  <SCORE.heavy>
11

>  <SCORE.norm>
-0.862893

>  <RMSD>
2.843

$$$$
ligand
 OpenBabel11021811503D
libRbt.so/2013.1/901 2013/11/27
 11 12  0  0  0  0  0  0  0  0999 V2000
    3.6907  -20.4689   25.3009 N   0  0  0  0  0  0  0  0  0  0  0  0
    3.2050  -21.0506   24.1765 C   0  0  0  0  0  0  0  0  0  0  0  0
    4.0749  -21.3799   23.0870 N   0  0  0  0  0  0  0  0  0  0  0  0
    1.8942  -21.3264   24.0557 N   0  0  0  0  0  0  0  0  0  0  0  0
    1.0069  -21.0348   25.0672 C   0  0  0  0  0  0  0  0  0  0  0  0
    1.4742  -20.4387   26.2243 C   0  0  0  0  0  0  0  0  0  0  0  0
    2.8683  -20.1515   26.3246 C   0  0  0  0  0  0  0  0  0  0  0  0
    3.3854  -19.5332   27.5071 N   0  0  0  0  0  0  0  0  0  0  0  0
    0.3797  -20.2618   27.0493 N   0  0  0  0  0  0  0  0  0  0  0  0
   -0.7190  -20.7255   26.4203 C   0  0  0  0  0  0  0  0  0  0  0  0
   -0.3637  -21.2004   25.2098 N   0  0  0  0  0  0  0  0  0  0  0  0
  1  7  2  0  0  0  0
  1  2  1  0  0  0  0
  2  3  1  0  0  0  0
  2  4  2  0  0  0  0
  4  5  1  0  0  0  0
  5  6  2  0  0  0  0
  5 11  1  0  0  0  0
  6  7  1  0  0  0  0
  6  9  1  0  0  0  0
  7  8  1  0  0  0  0
  9 10  1  0  0  0  0
 10 11  2  0  0  0  0
M  END
>  <CHROM.1>
1.92273429,-20.68889200,25.48262039,-0.52838616,0.15609205,1.15275334

>  <Name>
ligand

>  <RI>
0

>  <Rbt.Current_Directory>
/home/itssahil/PROJECTS/Mol_Feturizer/New_Systems/rnas/4LVZ

>  <Rbt.Executable>
rbdock ($Id: //depot/dev/client3/rdock/2013.1/src/exe/rbdock.cxx#4 $)

>  <Rbt.Library>
libRbt.so (2013.1, Build901 2013/11/27)

>  <Rbt.Parameter_File>
/export/apps/rDock/src/rDock_2013.1_src/data/scripts/dock_solv.prm

>  <Rbt.Receptor>
prm/pocket_docking_5.prm

>  <SCORE>
-9.47279

>  <SCORE.INTER>
-9.47279

>  <SCORE.INTER.CONST>
1

>  <SCORE.INTER.POLAR>
0

>  <SCORE.INTER.ROT>
0

>  <SCORE.INTER.SOLV>
13.036

>  <SCORE.INTER.VDW>
-14.2605

>  <SCORE.INTER.norm>
-0.861163

>  <SCORE.INTRA>
0

>  <SCORE.INTRA.DIHEDRAL>
0

>  <SCORE.INTRA.DIHEDRAL.0>
0

>  <SCORE.INTRA.POLAR>
0

>  <SCORE.INTRA.POLAR.0>
0

>  <SCORE.INTRA.REPUL>
0

>  <SCORE.INTRA.REPUL.0>
0

>  <SCORE.INTRA.SOLV>
0

>  <SCORE.INTRA.SOLV.lig_0>
-49.4056

>  <SCORE.INTRA.VDW>
0

>  <SCORE.INTRA.VDW.0>
0

>  <SCORE.INTRA.norm>
0

>  <SCORE.RESTR>
0

>  <SCORE.RESTR.CAVITY>
0

>  <SCORE.RESTR.norm>
0

>  <SCORE.SYSTEM>
0

>  <SCORE.SYSTEM.CONST>
0

>  <SCORE.SYSTEM.DIHEDRAL>
0

>  <SCORE.SYSTEM.SOLV>
0

>  <SCORE.SYSTEM.norm>
0

>  <SCORE.heavy>
11

>  <SCORE.norm>
-0.861163

>  <RMSD>
2.843

$$$$
ligand
 OpenBabel11021811503D
libRbt.so/2013.1/901 2013/11/27
 11 12  0  0  0  0  0  0  0  0999 V2000
    3.7715  -20.4581   25.2452 N   0  0  0  0  0  0  0  0  0  0  0  0
    3.2329  -21.0063   24.1281 C   0  0  0  0  0  0  0  0  0  0  0  0
    4.0510  -21.3072   22.9914 N   0  0  0  0  0  0  0  0  0  0  0  0
    1.9168  -21.2747   24.0593 N   0  0  0  0  0  0  0  0  0  0  0  0
    1.0776  -21.0092   25.1180 C   0  0  0  0  0  0  0  0  0  0  0  0
    1.5994  -20.4476   26.2689 C   0  0  0  0  0  0  0  0  0  0  0  0
    2.9978  -20.1674   26.3138 C   0  0  0  0  0  0  0  0  0  0  0  0
    3.5707  -19.5844   27.4884 N   0  0  0  0  0  0  0  0  0  0  0  0
    0.5443  -20.2909   27.1475 N   0  0  0  0  0  0  0  0  0  0  0  0
   -0.5838  -20.7333   26.5563 C   0  0  0  0  0  0  0  0  0  0  0  0
   -0.2859  -21.1748   25.3181 N   0  0  0  0  0  0  0  0  0  0  0  0
  1  7  2  0  0  0  0
  1  2  1  0  0  0  0
  2  3  1  0  0  0  0
  2  4  2  0  0  0  0
  4  5  1  0  0  0  0
  5  6  2  0  0  0  0
  5 11  1  0  0  0  0
  6  7  1  0  0  0  0
  6  9  1  0  0  0  0
  7  8  1  0  0  0  0
  9 10  1  0  0  0  0
 10 11  2  0  0  0  0
M  END
>  <CHROM.1>
2.01276482,-20.67795438,25.50085694,-0.57223642,0.17051088,1.18812214

>  <Name>
ligand

>  <RI>
0

>  <Rbt.Current_Directory>
/home/itssahil/PROJECTS/Mol_Feturizer/New_Systems/rnas/4LVZ

>  <Rbt.Executable>
rbdock ($Id: //depot/dev/client3/rdock/2013.1/src/exe/rbdock.cxx#4 $)

>  <Rbt.Library>
libRbt.so (2013.1, Build901 2013/11/27)

>  <Rbt.Parameter_File>
/export/apps/rDock/src/rDock_2013.1_src/data/scripts/dock_solv.prm

>  <Rbt.Receptor>
prm/pocket_docking_5.prm

>  <SCORE>
-9.42631

>  <SCORE.INTER>
-9.42631

>  <SCORE.INTER.CONST>
1

>  <SCORE.INTER.POLAR>
0

>  <SCORE.INTER.ROT>
0

>  <SCORE.INTER.SOLV>
12.3769

>  <SCORE.INTER.VDW>
-14.0098

>  <SCORE.INTER.norm>
-0.856938

>  <SCORE.INTRA>
0

>  <SCORE.INTRA.DIHEDRAL>
0

>  <SCORE.INTRA.DIHEDRAL.0>
0

>  <SCORE.INTRA.POLAR>
0

>  <SCORE.INTRA.POLAR.0>
0

>  <SCORE.INTRA.REPUL>
0

>  <SCORE.INTRA.REPUL.0>
0

>  <SCORE.INTRA.SOLV>
0

>  <SCORE.INTRA.SOLV.lig_0>
-49.4056

>  <SCORE.INTRA.VDW>
0

>  <SCORE.INTRA.VDW.0>
0

>  <SCORE.INTRA.norm>
0

>  <SCORE.RESTR>
0

>  <SCORE.RESTR.CAVITY>
0

>  <SCORE.RESTR.norm>
0

>  <SCORE.SYSTEM>
0

>  <SCORE.SYSTEM.CONST>
0

>  <SCORE.SYSTEM.DIHEDRAL>
0

>  <SCORE.SYSTEM.SOLV>
0

>  <SCORE.SYSTEM.norm>
0

>  <SCORE.heavy>
11

>  <SCORE.norm>
-0.856938

>  <RMSD>
2.843

$$$$
ligand
 OpenBabel11021811503D
libRbt.so/2013.1/901 2013/11/27
 11 12  0  0  0  0  0  0  0  0999 V2000
    3.8193  -20.4788   25.2918 N   0  0  0  0  0  0  0  0  0  0  0  0
    3.3236  -21.0314   24.1571 C   0  0  0  0  0  0  0  0  0  0  0  0
    4.1875  -21.3557   23.0615 N   0  0  0  0  0  0  0  0  0  0  0  0
    2.0083  -21.2824   24.0319 N   0  0  0  0  0  0  0  0  0  0  0  0
    1.1262  -20.9941   25.0490 C   0  0  0  0  0  0  0  0  0  0  0  0
    1.6038  -20.4274   26.2165 C   0  0  0  0  0  0  0  0  0  0  0  0
    3.0026  -20.1661   26.3215 C   0  0  0  0  0  0  0  0  0  0  0  0
    3.5304  -19.5785   27.5148 N   0  0  0  0  0  0  0  0  0  0  0  0
    0.5126  -20.2468   27.0450 N   0  0  0  0  0  0  0  0  0  0  0  0
   -0.5940  -20.6799   26.4081 C   0  0  0  0  0  0  0  0  0  0  0  0
   -0.2471  -21.1387   25.1891 N   0  0  0  0  0  0  0  0  0  0  0  0
  1  7  2  0  0  0  0
  1  2  1  0  0  0  0
  2  3  1  0  0  0  0
  2  4  2  0  0  0  0
  4  5  1  0  0  0  0
  5  6  2  0  0  0  0
  5 11  1  0  0  0  0
  6  7  1  0  0  0  0
  6  9  1  0  0  0  0
  7  8  1  0  0  0  0
  9 10  1  0  0  0  0
 10 11  2  0  0  0  0
M  END
>  <CHROM.1>
2.04785601,-20.67168180,25.47019146,-0.53553487,0.14041449,1.17207043

>  <Name>
ligand

>  <RI>
0

>  <Rbt.Current_Directory>
/home/itssahil/PROJECTS/Mol_Feturizer/New_Systems/rnas/4LVZ

>  <Rbt.Executable>
rbdock ($Id: //depot/dev/client3/rdock/2013.1/src/exe/rbdock.cxx#4 $)

>  <Rbt.Library>
libRbt.so (2013.1, Build901 2013/11/27)

>  <Rbt.Parameter_File>
/export/apps/rDock/src/rDock_2013.1_src/data/scripts/dock_solv.prm

>  <Rbt.Receptor>
prm/pocket_docking_6.prm

>  <SCORE>
-9.48734

>  <SCORE.INTER>
-9.48734

>  <SCORE.INTER.CONST>
1

>  <SCORE.INTER.POLAR>
0

>  <SCORE.INTER.ROT>
0

>  <SCORE.INTER.SOLV>
11.9904

>  <SCORE.INTER.VDW>
-13.9217

>  <SCORE.INTER.norm>
-0.862485

>  <SCORE.INTRA>
0

>  <SCORE.INTRA.DIHEDRAL>
0

>  <SCORE.INTRA.DIHEDRAL.0>
0

>  <SCORE.INTRA.POLAR>
0

>  <SCORE.INTRA.POLAR.0>
0

>  <SCORE.INTRA.REPUL>
0

>  <SCORE.INTRA.REPUL.0>
0

>  <SCORE.INTRA.SOLV>
0

>  <SCORE.INTRA.SOLV.lig_0>
-49.4056

>  <SCORE.INTRA.VDW>
0

>  <SCORE.INTRA.VDW.0>
0

>  <SCORE.INTRA.norm>
0

>  <SCORE.RESTR>
0

>  <SCORE.RESTR.CAVITY>
0

>  <SCORE.RESTR.norm>
0

>  <SCORE.SYSTEM>
0

>  <SCORE.SYSTEM.CONST>
0

>  <SCORE.SYSTEM.DIHEDRAL>
0

>  <SCORE.SYSTEM.SOLV>
0

>  <SCORE.SYSTEM.norm>
0

>  <SCORE.heavy>
11

>  <SCORE.norm>
-0.862485

>  <RMSD>
2.843

$$$$
ligand
 OpenBabel11021811503D
libRbt.so/2013.1/901 2013/11/27
 11 12  0  0  0  0  0  0  0  0999 V2000
    3.7951  -20.4247   25.2071 N   0  0  0  0  0  0  0  0  0  0  0  0
    3.2282  -20.8788   24.0621 C   0  0  0  0  0  0  0  0  0  0  0  0
    4.0187  -21.0900   22.8863 N   0  0  0  0  0  0  0  0  0  0  0  0
    1.9095  -21.1358   24.0022 N   0  0  0  0  0  0  0  0  0  0  0  0
    1.0959  -20.9535   25.0978 C   0  0  0  0  0  0  0  0  0  0  0  0
    1.6467  -20.4887   26.2780 C   0  0  0  0  0  0  0  0  0  0  0  0
    3.0473  -20.2184   26.3132 C   0  0  0  0  0  0  0  0  0  0  0  0
    3.6499  -19.7343   27.5176 N   0  0  0  0  0  0  0  0  0  0  0  0
    0.6126  -20.3994   27.1903 N   0  0  0  0  0  0  0  0  0  0  0  0
   -0.5310  -20.7883   26.5915 C   0  0  0  0  0  0  0  0  0  0  0  0
   -0.2636  -21.1294   25.3151 N   0  0  0  0  0  0  0  0  0  0  0  0
  1  7  2  0  0  0  0
  1  2  1  0  0  0  0
  2  3  1  0  0  0  0
  2  4  2  0  0  0  0
  4  5  1  0  0  0  0
  5  6  2  0  0  0  0
  5 11  1  0  0  0  0
  6  7  1  0  0  0  0
  6  9  1  0  0  0  0
  7  8  1  0  0  0  0
  9 10  1  0  0  0  0
 10 11  2  0  0  0  0
M  END
>  <CHROM.1>
2.04129373,-20.65780181,25.48456150,-0.59565919,0.17363925,1.27296677

>  <Name>
ligand

>  <RI>
0

>  <Rbt.Current_Directory>
/home/itssahil/PROJECTS/Mol_Feturizer/New_Systems/rnas/4LVZ

>  <Rbt.Executable>
rbdock ($Id: //depot/dev/client3/rdock/2013.1/src/exe/rbdock.cxx#4 $)

>  <Rbt.Library>
libRbt.so (2013.1, Build901 2013/11/27)

>  <Rbt.Parameter_File>
/export/apps/rDock/src/rDock_2013.1_src/data/scripts/dock_solv.prm

>  <Rbt.Receptor>
prm/pocket_docking_7.prm

>  <SCORE>
-9.42743

>  <SCORE.INTER>
-9.42743

>  <SCORE.INTER.CONST>
1

>  <SCORE.INTER.POLAR>
0

>  <SCORE.INTER.ROT>
0

>  <SCORE.INTER.SOLV>
11.7194

>  <SCORE.INTER.VDW>
-13.7914

>  <SCORE.INTER.norm>
-0.857039

>  <SCORE.INTRA>
0

>  <SCORE.INTRA.DIHEDRAL>
0

>  <SCORE.INTRA.DIHEDRAL.0>
0

>  <SCORE.INTRA.POLAR>
0

>  <SCORE.INTRA.POLAR.0>
0

>  <SCORE.INTRA.REPUL>
0

>  <SCORE.INTRA.REPUL.0>
0

>  <SCORE.INTRA.SOLV>
0

>  <SCORE.INTRA.SOLV.lig_0>
-49.4056

>  <SCORE.INTRA.VDW>
0

>  <SCORE.INTRA.VDW.0>
0

>  <SCORE.INTRA.norm>
0

>  <SCORE.RESTR>
0

>  <SCORE.RESTR.CAVITY>
0

>  <SCORE.RESTR.norm>
0

>  <SCORE.SYSTEM>
0

>  <SCORE.SYSTEM.CONST>
0

>  <SCORE.SYSTEM.DIHEDRAL>
0

>  <SCORE.SYSTEM.SOLV>
0

>  <SCORE.SYSTEM.norm>
0

>  <SCORE.heavy>
11

>  <SCORE.norm>
-0.857039

>  <RMSD>
2.843

$$$$
ligand
 OpenBabel11021811503D
libRbt.so/2013.1/901 2013/11/27
 11 12  0  0  0  0  0  0  0  0999 V2000
    3.7581  -20.4654   25.2380 N   0  0  0  0  0  0  0  0  0  0  0  0
    3.2124  -21.0348   24.1350 C   0  0  0  0  0  0  0  0  0  0  0  0
    4.0197  -21.3399   22.9917 N   0  0  0  0  0  0  0  0  0  0  0  0
    1.8992  -21.3210   24.0867 N   0  0  0  0  0  0  0  0  0  0  0  0
    1.0702  -21.0527   25.1527 C   0  0  0  0  0  0  0  0  0  0  0  0
    1.5993  -20.4696   26.2895 C   0  0  0  0  0  0  0  0  0  0  0  0
    2.9944  -20.1709   26.3127 C   0  0  0  0  0  0  0  0  0  0  0  0
    3.5746  -19.5654   27.4723 N   0  0  0  0  0  0  0  0  0  0  0  0
    0.5535  -20.3151   27.1796 N   0  0  0  0  0  0  0  0  0  0  0  0
   -0.5761  -20.7796   26.6088 C   0  0  0  0  0  0  0  0  0  0  0  0
   -0.2884  -21.2332   25.3726 N   0  0  0  0  0  0  0  0  0  0  0  0
  1  7  2  0  0  0  0
  1  2  1  0  0  0  0
  2  3  1  0  0  0  0
  2  4  2  0  0  0  0
  4  5  1  0  0  0  0
  5  6  2  0  0  0  0
  5 11  1  0  0  0  0
  6  7  1  0  0  0  0
  6  9  1  0  0  0  0
  7  8  1  0  0  0  0
  9 10  1  0  0  0  0
 10 11  2  0  0  0  0
M  END
>  <CHROM.1>
2.00574458,-20.70451781,25.51918793,-0.57937127,0.18736247,1.17656356

>  <Name>
ligand

>  <RI>
0

>  <Rbt.Current_Directory>
/home/itssahil/PROJECTS/Mol_Feturizer/New_Systems/rnas/4LVZ

>  <Rbt.Executable>
rbdock ($Id: //depot/dev/client3/rdock/2013.1/src/exe/rbdock.cxx#4 $)

>  <Rbt.Library>
libRbt.so (2013.1, Build901 2013/11/27)

>  <Rbt.Parameter_File>
/export/apps/rDock/src/rDock_2013.1_src/data/scripts/dock_solv.prm

>  <Rbt.Receptor>
prm/pocket_docking_3.prm

>  <SCORE>
-9.42806

>  <SCORE.INTER>
-9.42806

>  <SCORE.INTER.CONST>
1

>  <SCORE.INTER.POLAR>
0

>  <SCORE.INTER.ROT>
0

>  <SCORE.INTER.SOLV>
12.5455

>  <SCORE.INTER.VDW>
-14.0672

>  <SCORE.INTER.norm>
-0.857097

>  <SCORE.INTRA>
0

>  <SCORE.INTRA.DIHEDRAL>
0

>  <SCORE.INTRA.DIHEDRAL.0>
0

>  <SCORE.INTRA.POLAR>
0

>  <SCORE.INTRA.POLAR.0>
0

>  <SCORE.INTRA.REPUL>
0

>  <SCORE.INTRA.REPUL.0>
0

>  <SCORE.INTRA.SOLV>
0

>  <SCORE.INTRA.SOLV.lig_0>
-49.4056

>  <SCORE.INTRA.VDW>
0

>  <SCORE.INTRA.VDW.0>
0

>  <SCORE.INTRA.norm>
0

>  <SCORE.RESTR>
0

>  <SCORE.RESTR.CAVITY>
0

>  <SCORE.RESTR.norm>
0

>  <SCORE.SYSTEM>
0

>  <SCORE.SYSTEM.CONST>
0

>  <SCORE.SYSTEM.DIHEDRAL>
0

>  <SCORE.SYSTEM.SOLV>
0

>  <SCORE.SYSTEM.norm>
0

>  <SCORE.heavy>
11

>  <SCORE.norm>
-0.857097

>  <RMSD>
2.844

$$$$
ligand
 OpenBabel11021811503D
libRbt.so/2013.1/901 2013/11/27
 11 12  0  0  0  0  0  0  0  0999 V2000
    3.7833  -20.4727   25.2714 N   0  0  0  0  0  0  0  0  0  0  0  0
    3.2647  -21.0163   24.1426 C   0  0  0  0  0  0  0  0  0  0  0  0
    4.1067  -21.3353   23.0286 N   0  0  0  0  0  0  0  0  0  0  0  0
    1.9465  -21.2631   24.0407 N   0  0  0  0  0  0  0  0  0  0  0  0
    1.0847  -20.9795   25.0764 C   0  0  0  0  0  0  0  0  0  0  0  0
    1.5860  -20.4220   26.2384 C   0  0  0  0  0  0  0  0  0  0  0  0
    2.9872  -20.1649   26.3185 C   0  0  0  0  0  0  0  0  0  0  0  0
    3.5392  -19.5868   27.5055 N   0  0  0  0  0  0  0  0  0  0  0  0
    0.5112  -20.2442   27.0888 N   0  0  0  0  0  0  0  0  0  0  0  0
   -0.6084  -20.6702   26.4701 C   0  0  0  0  0  0  0  0  0  0  0  0
   -0.2860  -21.1215   25.2416 N   0  0  0  0  0  0  0  0  0  0  0  0
  1  7  2  0  0  0  0
  1  2  1  0  0  0  0
  2  3  1  0  0  0  0
  2  4  2  0  0  0  0
  4  5  1  0  0  0  0
  5  6  2  0  0  0  0
  5 11  1  0  0  0  0
  6  7  1  0  0  0  0
  6  9  1  0  0  0  0
  7  8  1  0  0  0  0
  9 10  1  0  0  0  0
 10 11  2  0  0  0  0
M  END
>  <CHROM.1>
2.01509628,-20.66224239,25.48213390,-0.55430480,0.14532207,1.18152189

>  <Name>
ligand

>  <RI>
0

>  <Rbt.Current_Directory>
/home/itssahil/PROJECTS/Mol_Feturizer/New_Systems/rnas/4LVZ

>  <Rbt.Executable>
rbdock ($Id: //depot/dev/client3/rdock/2013.1/src/exe/rbdock.cxx#4 $)

>  <Rbt.Library>
libRbt.so (2013.1, Build901 2013/11/27)

>  <Rbt.Parameter_File>
/export/apps/rDock/src/rDock_2013.1_src/data/scripts/dock_solv.prm

>  <Rbt.Receptor>
prm/pocket_docking_3.prm

>  <SCORE>
-9.44529

>  <SCORE.INTER>
-9.44529

>  <SCORE.INTER.CONST>
1

>  <SCORE.INTER.POLAR>
0

>  <SCORE.INTER.ROT>
0

>  <SCORE.INTER.SOLV>
12.2587

>  <SCORE.INTER.VDW>
-13.9831

>  <SCORE.INTER.norm>
-0.858663

>  <SCORE.INTRA>
0

>  <SCORE.INTRA.DIHEDRAL>
0

>  <SCORE.INTRA.DIHEDRAL.0>
0

>  <SCORE.INTRA.POLAR>
0

>  <SCORE.INTRA.POLAR.0>
0

>  <SCORE.INTRA.REPUL>
0

>  <SCORE.INTRA.REPUL.0>
0

>  <SCORE.INTRA.SOLV>
0

>  <SCORE.INTRA.SOLV.lig_0>
-49.4056

>  <SCORE.INTRA.VDW>
0

>  <SCORE.INTRA.VDW.0>
0

>  <SCORE.INTRA.norm>
0

>  <SCORE.RESTR>
0

>  <SCORE.RESTR.CAVITY>
0

>  <SCORE.RESTR.norm>
0

>  <SCORE.SYSTEM>
0

>  <SCORE.SYSTEM.CONST>
0

>  <SCORE.SYSTEM.DIHEDRAL>
0

>  <SCORE.SYSTEM.SOLV>
0

>  <SCORE.SYSTEM.norm>
0

>  <SCORE.heavy>
11

>  <SCORE.norm>
-0.858663

>  <RMSD>
2.844

$$$$
ligand
 OpenBabel11021811503D
libRbt.so/2013.1/901 2013/11/27
 11 12  0  0  0  0  0  0  0  0999 V2000
    3.8133  -20.4805   25.2855 N   0  0  0  0  0  0  0  0  0  0  0  0
    3.3128  -21.0307   24.1517 C   0  0  0  0  0  0  0  0  0  0  0  0
    4.1726  -21.3561   23.0532 N   0  0  0  0  0  0  0  0  0  0  0  0
    1.9964  -21.2781   24.0302 N   0  0  0  0  0  0  0  0  0  0  0  0
    1.1182  -20.9886   25.0503 C   0  0  0  0  0  0  0  0  0  0  0  0
    1.6008  -20.4243   26.2169 C   0  0  0  0  0  0  0  0  0  0  0  0
    3.0005  -20.1667   26.3179 C   0  0  0  0  0  0  0  0  0  0  0  0
    3.5335  -19.5817   27.5102 N   0  0  0  0  0  0  0  0  0  0  0  0
    0.5126  -20.2417   27.0489 N   0  0  0  0  0  0  0  0  0  0  0  0
   -0.5970  -20.6713   26.4150 C   0  0  0  0  0  0  0  0  0  0  0  0
   -0.2550  -21.1297   25.1944 N   0  0  0  0  0  0  0  0  0  0  0  0
  1  7  2  0  0  0  0
  1  2  1  0  0  0  0
  2  3  1  0  0  0  0
  2  4  2  0  0  0  0
  4  5  1  0  0  0  0
  5  6  2  0  0  0  0
  5 11  1  0  0  0  0
  6  7  1  0  0  0  0
  6  9  1  0  0  0  0
  7  8  1  0  0  0  0
  9 10  1  0  0  0  0
 10 11  2  0  0  0  0
M  END
>  <CHROM.1>
2.04195607,-20.66895031,25.46902069,-0.53937211,0.13919671,1.17360463

>  <Name>
ligand

>  <RI>
0

>  <Rbt.Current_Directory>
/home/itssahil/PROJECTS/Mol_Feturizer/New_Systems/rnas/4LVZ

>  <Rbt.Executable>
rbdock ($Id: //depot/dev/client3/rdock/2013.1/src/exe/rbdock.cxx#4 $)

>  <Rbt.Library>
libRbt.so (2013.1, Build901 2013/11/27)

>  <Rbt.Parameter_File>
/export/apps/rDock/src/rDock_2013.1_src/data/scripts/dock_solv.prm

>  <Rbt.Receptor>
prm/pocket_docking_3.prm

>  <SCORE>
-9.49162

>  <SCORE.INTER>
-9.49162

>  <SCORE.INTER.CONST>
1

>  <SCORE.INTER.POLAR>
0

>  <SCORE.INTER.ROT>
0

>  <SCORE.INTER.SOLV>
12.0218

>  <SCORE.INTER.VDW>
-13.935

>  <SCORE.INTER.norm>
-0.862875

>  <SCORE.INTRA>
0

>  <SCORE.INTRA.DIHEDRAL>
0

>  <SCORE.INTRA.DIHEDRAL.0>
0

>  <SCORE.INTRA.POLAR>
0

>  <SCORE.INTRA.POLAR.0>
0

>  <SCORE.INTRA.REPUL>
0

>  <SCORE.INTRA.REPUL.0>
0

>  <SCORE.INTRA.SOLV>
0

>  <SCORE.INTRA.SOLV.lig_0>
-49.4056

>  <SCORE.INTRA.VDW>
0

>  <SCORE.INTRA.VDW.0>
0

>  <SCORE.INTRA.norm>
0

>  <SCORE.RESTR>
0

>  <SCORE.RESTR.CAVITY>
0

>  <SCORE.RESTR.norm>
0

>  <SCORE.SYSTEM>
0

>  <SCORE.SYSTEM.CONST>
0

>  <SCORE.SYSTEM.DIHEDRAL>
0

>  <SCORE.SYSTEM.SOLV>
0

>  <SCORE.SYSTEM.norm>
0

>  <SCORE.heavy>
11

>  <SCORE.norm>
-0.862875

>  <RMSD>
2.844

$$$$
ligand
 OpenBabel11021811503D
libRbt.so/2013.1/901 2013/11/27
 11 12  0  0  0  0  0  0  0  0999 V2000
    3.7608  -20.4641   25.2642 N   0  0  0  0  0  0  0  0  0  0  0  0
    3.2303  -20.9717   24.1243 C   0  0  0  0  0  0  0  0  0  0  0  0
    4.0612  -21.2577   22.9929 N   0  0  0  0  0  0  0  0  0  0  0  0
    1.9108  -21.2129   24.0274 N   0  0  0  0  0  0  0  0  0  0  0  0
    1.0595  -20.9599   25.0794 C   0  0  0  0  0  0  0  0  0  0  0  0
    1.5728  -20.4394   26.2533 C   0  0  0  0  0  0  0  0  0  0  0  0
    2.9752  -20.1873   26.3279 C   0  0  0  0  0  0  0  0  0  0  0  0
    3.5396  -19.6470   27.5268 N   0  0  0  0  0  0  0  0  0  0  0  0
    0.5065  -20.2861   27.1189 N   0  0  0  0  0  0  0  0  0  0  0  0
   -0.6198  -20.6908   26.4982 C   0  0  0  0  0  0  0  0  0  0  0  0
   -0.3100  -21.1046   25.2533 N   0  0  0  0  0  0  0  0  0  0  0  0
  1  7  2  0  0  0  0
  1  2  1  0  0  0  0
  2  3  1  0  0  0  0
  2  4  2  0  0  0  0
  4  5  1  0  0  0  0
  5  6  2  0  0  0  0
  5 11  1  0  0  0  0
  6  7  1  0  0  0  0
  6  9  1  0  0  0  0
  7  8  1  0  0  0  0
  9 10  1  0  0  0  0
 10 11  2  0  0  0  0
M  END
>  <CHROM.1>
1.99425959,-20.65696244,25.48590299,-0.56394936,0.14702943,1.21375908

>  <Name>
ligand

>  <RI>
0

>  <Rbt.Current_Directory>
/home/itssahil/PROJECTS/Mol_Feturizer/New_Systems/rnas/4LVZ

>  <Rbt.Executable>
rbdock ($Id: //depot/dev/client3/rdock/2013.1/src/exe/rbdock.cxx#4 $)

>  <Rbt.Library>
libRbt.so (2013.1, Build901 2013/11/27)

>  <Rbt.Parameter_File>
/export/apps/rDock/src/rDock_2013.1_src/data/scripts/dock_solv.prm

>  <Rbt.Receptor>
prm/pocket_docking_4.prm

>  <SCORE>
-9.4478

>  <SCORE.INTER>
-9.4478

>  <SCORE.INTER.CONST>
1

>  <SCORE.INTER.POLAR>
0

>  <SCORE.INTER.ROT>
0

>  <SCORE.INTER.SOLV>
12.3122

>  <SCORE.INTER.VDW>
-14.0026

>  <SCORE.INTER.norm>
-0.858891

>  <SCORE.INTRA>
0

>  <SCORE.INTRA.DIHEDRAL>
0

>  <SCORE.INTRA.DIHEDRAL.0>
0

>  <SCORE.INTRA.POLAR>
0

>  <SCORE.INTRA.POLAR.0>
0

>  <SCORE.INTRA.REPUL>
0

>  <SCORE.INTRA.REPUL.0>
0

>  <SCORE.INTRA.SOLV>
0

>  <SCORE.INTRA.SOLV.lig_0>
-49.4056

>  <SCORE.INTRA.VDW>
0

>  <SCORE.INTRA.VDW.0>
0

>  <SCORE.INTRA.norm>
0

>  <SCORE.RESTR>
0

>  <SCORE.RESTR.CAVITY>
0

>  <SCORE.RESTR.norm>
0

>  <SCORE.SYSTEM>
0

>  <SCORE.SYSTEM.CONST>
0

>  <SCORE.SYSTEM.DIHEDRAL>
0

>  <SCORE.SYSTEM.SOLV>
0

>  <SCORE.SYSTEM.norm>
0

>  <SCORE.heavy>
11

>  <SCORE.norm>
-0.858891

>  <RMSD>
2.844

$$$$
ligand
 OpenBabel11021811503D
libRbt.so/2013.1/901 2013/11/27
 11 12  0  0  0  0  0  0  0  0999 V2000
    3.7803  -20.4338   25.2345 N   0  0  0  0  0  0  0  0  0  0  0  0
    3.2347  -20.9663   24.1131 C   0  0  0  0  0  0  0  0  0  0  0  0
    4.0483  -21.2645   22.9724 N   0  0  0  0  0  0  0  0  0  0  0  0
    1.9160  -21.2213   24.0438 N   0  0  0  0  0  0  0  0  0  0  0  0
    1.0809  -20.9575   25.1062 C   0  0  0  0  0  0  0  0  0  0  0  0
    1.6098  -20.4117   26.2615 C   0  0  0  0  0  0  0  0  0  0  0  0
    3.0109  -20.1456   26.3069 C   0  0  0  0  0  0  0  0  0  0  0  0
    3.5911  -19.5791   27.4860 N   0  0  0  0  0  0  0  0  0  0  0  0
    0.5575  -20.2530   27.1431 N   0  0  0  0  0  0  0  0  0  0  0  0
   -0.5757  -20.6789   26.5495 C   0  0  0  0  0  0  0  0  0  0  0  0
   -0.2838  -21.1117   25.3067 N   0  0  0  0  0  0  0  0  0  0  0  0
  1  7  2  0  0  0  0
  1  2  1  0  0  0  0
  2  3  1  0  0  0  0
  2  4  2  0  0  0  0
  4  5  1  0  0  0  0
  5  6  2  0  0  0  0
  5 11  1  0  0  0  0
  6  7  1  0  0  0  0
  6  9  1  0  0  0  0
  7  8  1  0  0  0  0
  9 10  1  0  0  0  0
 10 11  2  0  0  0  0
M  END
>  <CHROM.1>
2.01978530,-20.63893873,25.49069129,-0.57723282,0.16202816,1.19826848

>  <Name>
ligand

>  <RI>
0

>  <Rbt.Current_Directory>
/home/itssahil/PROJECTS/Mol_Feturizer/New_Systems/rnas/4LVZ

>  <Rbt.Executable>
rbdock ($Id: //depot/dev/client3/rdock/2013.1/src/exe/rbdock.cxx#4 $)

>  <Rbt.Library>
libRbt.so (2013.1, Build901 2013/11/27)

>  <Rbt.Parameter_File>
/export/apps/rDock/src/rDock_2013.1_src/data/scripts/dock_solv.prm

>  <Rbt.Receptor>
prm/pocket_docking_4.prm

>  <SCORE>
-9.4726

>  <SCORE.INTER>
-9.4726

>  <SCORE.INTER.CONST>
1

>  <SCORE.INTER.POLAR>
0

>  <SCORE.INTER.ROT>
0

>  <SCORE.INTER.SOLV>
12.3354

>  <SCORE.INTER.VDW>
-14.0269

>  <SCORE.INTER.norm>
-0.861146

>  <SCORE.INTRA>
0

>  <SCORE.INTRA.DIHEDRAL>
0

>  <SCORE.INTRA.DIHEDRAL.0>
0

>  <SCORE.INTRA.POLAR>
0

>  <SCORE.INTRA.POLAR.0>
0

>  <SCORE.INTRA.REPUL>
0

>  <SCORE.INTRA.REPUL.0>
0

>  <SCORE.INTRA.SOLV>
0

>  <SCORE.INTRA.SOLV.lig_0>
-49.4056

>  <SCORE.INTRA.VDW>
0

>  <SCORE.INTRA.VDW.0>
0

>  <SCORE.INTRA.norm>
0

>  <SCORE.RESTR>
0

>  <SCORE.RESTR.CAVITY>
0

>  <SCORE.RESTR.norm>
0

>  <SCORE.SYSTEM>
0

>  <SCORE.SYSTEM.CONST>
0

>  <SCORE.SYSTEM.DIHEDRAL>
0

>  <SCORE.SYSTEM.SOLV>
0

>  <SCORE.SYSTEM.norm>
0

>  <SCORE.heavy>
11

>  <SCORE.norm>
-0.861146

>  <RMSD>
2.844

$$$$
ligand
 OpenBabel11021811503D
libRbt.so/2013.1/901 2013/11/27
 11 12  0  0  0  0  0  0  0  0999 V2000
    3.8160  -20.4769   25.2825 N   0  0  0  0  0  0  0  0  0  0  0  0
    3.3166  -21.0324   24.1509 C   0  0  0  0  0  0  0  0  0  0  0  0
    4.1769  -21.3594   23.0532 N   0  0  0  0  0  0  0  0  0  0  0  0
    2.0008  -21.2838   24.0307 N   0  0  0  0  0  0  0  0  0  0  0  0
    1.1222  -20.9930   25.0500 C   0  0  0  0  0  0  0  0  0  0  0  0
    1.6036  -20.4234   26.2145 C   0  0  0  0  0  0  0  0  0  0  0  0
    3.0027  -20.1617   26.3141 C   0  0  0  0  0  0  0  0  0  0  0  0
    3.5345  -19.5710   27.5042 N   0  0  0  0  0  0  0  0  0  0  0  0
    0.5152  -20.2408   27.0462 N   0  0  0  0  0  0  0  0  0  0  0  0
   -0.5935  -20.6756   26.4141 C   0  0  0  0  0  0  0  0  0  0  0  0
   -0.2506  -21.1374   25.1951 N   0  0  0  0  0  0  0  0  0  0  0  0
  1  7  2  0  0  0  0
  1  2  1  0  0  0  0
  2  3  1  0  0  0  0
  2  4  2  0  0  0  0
  4  5  1  0  0  0  0
  5  6  2  0  0  0  0
  5 11  1  0  0  0  0
  6  7  1  0  0  0  0
  6  9  1  0  0  0  0
  7  8  1  0  0  0  0
  9 10  1  0  0  0  0
 10 11  2  0  0  0  0
M  END
>  <CHROM.1>
2.04519789,-20.66947972,25.46731041,-0.53862316,0.14180365,1.16999404

>  <Name>
ligand

>  <RI>
0

>  <Rbt.Current_Directory>
/home/itssahil/PROJECTS/Mol_Feturizer/New_Systems/rnas/4LVZ

>  <Rbt.Executable>
rbdock ($Id: //depot/dev/client3/rdock/2013.1/src/exe/rbdock.cxx#4 $)

>  <Rbt.Library>
libRbt.so (2013.1, Build901 2013/11/27)

>  <Rbt.Parameter_File>
/export/apps/rDock/src/rDock_2013.1_src/data/scripts/dock_solv.prm

>  <Rbt.Receptor>
prm/pocket_docking_7.prm

>  <SCORE>
-9.48744

>  <SCORE.INTER>
-9.48744

>  <SCORE.INTER.CONST>
1

>  <SCORE.INTER.POLAR>
0

>  <SCORE.INTER.ROT>
0

>  <SCORE.INTER.SOLV>
12.0288

>  <SCORE.INTER.VDW>
-13.9345

>  <SCORE.INTER.norm>
-0.862494

>  <SCORE.INTRA>
0

>  <SCORE.INTRA.DIHEDRAL>
0

>  <SCORE.INTRA.DIHEDRAL.0>
0

>  <SCORE.INTRA.POLAR>
0

>  <SCORE.INTRA.POLAR.0>
0

>  <SCORE.INTRA.REPUL>
0

>  <SCORE.INTRA.REPUL.0>
0

>  <SCORE.INTRA.SOLV>
0

>  <SCORE.INTRA.SOLV.lig_0>
-49.4056

>  <SCORE.INTRA.VDW>
0

>  <SCORE.INTRA.VDW.0>
0

>  <SCORE.INTRA.norm>
0

>  <SCORE.RESTR>
0

>  <SCORE.RESTR.CAVITY>
0

>  <SCORE.RESTR.norm>
0

>  <SCORE.SYSTEM>
0

>  <SCORE.SYSTEM.CONST>
0

>  <SCORE.SYSTEM.DIHEDRAL>
0

>  <SCORE.SYSTEM.SOLV>
0

>  <SCORE.SYSTEM.norm>
0

>  <SCORE.heavy>
11

>  <SCORE.norm>
-0.862494

>  <RMSD>
2.844

$$$$
ligand
 OpenBabel11021811503D
libRbt.so/2013.1/901 2013/11/27
 11 12  0  0  0  0  0  0  0  0999 V2000
    3.8412  -20.5007   25.2735 N   0  0  0  0  0  0  0  0  0  0  0  0
    3.3228  -21.0429   24.1439 C   0  0  0  0  0  0  0  0  0  0  0  0
    4.1650  -21.3598   23.0294 N   0  0  0  0  0  0  0  0  0  0  0  0
    2.0048  -21.2903   24.0417 N   0  0  0  0  0  0  0  0  0  0  0  0
    1.1429  -21.0088   25.0778 C   0  0  0  0  0  0  0  0  0  0  0  0
    1.6438  -20.4527   26.2406 C   0  0  0  0  0  0  0  0  0  0  0  0
    3.0449  -20.1949   26.3211 C   0  0  0  0  0  0  0  0  0  0  0  0
    3.5965  -19.6182   27.5089 N   0  0  0  0  0  0  0  0  0  0  0  0
    0.5690  -20.2769   27.0913 N   0  0  0  0  0  0  0  0  0  0  0  0
   -0.5504  -20.7026   26.4720 C   0  0  0  0  0  0  0  0  0  0  0  0
   -0.2278  -21.1519   25.2428 N   0  0  0  0  0  0  0  0  0  0  0  0
  1  7  2  0  0  0  0
  1  2  1  0  0  0  0
  2  3  1  0  0  0  0
  2  4  2  0  0  0  0
  4  5  1  0  0  0  0
  5  6  2  0  0  0  0
  5 11  1  0  0  0  0
  6  7  1  0  0  0  0
  6  9  1  0  0  0  0
  7  8  1  0  0  0  0
  9 10  1  0  0  0  0
 10 11  2  0  0  0  0
M  END
>  <CHROM.1>
2.07305230,-20.69160638,25.48399318,-0.55409672,0.14587292,1.18296662

>  <Name>
ligand

>  <RI>
0

>  <Rbt.Current_Directory>
/home/itssahil/PROJECTS/Mol_Feturizer/New_Systems/rnas/4LVZ

>  <Rbt.Executable>
rbdock ($Id: //depot/dev/client3/rdock/2013.1/src/exe/rbdock.cxx#4 $)

>  <Rbt.Library>
libRbt.so (2013.1, Build901 2013/11/27)

>  <Rbt.Parameter_File>
/export/apps/rDock/src/rDock_2013.1_src/data/scripts/dock_solv.prm

>  <Rbt.Receptor>
prm/pocket_docking_3.prm

>  <SCORE>
-9.40205

>  <SCORE.INTER>
-9.40205

>  <SCORE.INTER.CONST>
1

>  <SCORE.INTER.POLAR>
0

>  <SCORE.INTER.ROT>
0

>  <SCORE.INTER.SOLV>
11.7293

>  <SCORE.INTER.VDW>
-13.7778

>  <SCORE.INTER.norm>
-0.854732

>  <SCORE.INTRA>
0

>  <SCORE.INTRA.DIHEDRAL>
0

>  <SCORE.INTRA.DIHEDRAL.0>
0

>  <SCORE.INTRA.POLAR>
0

>  <SCORE.INTRA.POLAR.0>
0

>  <SCORE.INTRA.REPUL>
0

>  <SCORE.INTRA.REPUL.0>
0

>  <SCORE.INTRA.SOLV>
0

>  <SCORE.INTRA.SOLV.lig_0>
-49.4056

>  <SCORE.INTRA.VDW>
0

>  <SCORE.INTRA.VDW.0>
0

>  <SCORE.INTRA.norm>
0

>  <SCORE.RESTR>
0

>  <SCORE.RESTR.CAVITY>
0

>  <SCORE.RESTR.norm>
0

>  <SCORE.SYSTEM>
0

>  <SCORE.SYSTEM.CONST>
0

>  <SCORE.SYSTEM.DIHEDRAL>
0

>  <SCORE.SYSTEM.SOLV>
0

>  <SCORE.SYSTEM.norm>
0

>  <SCORE.heavy>
11

>  <SCORE.norm>
-0.854732

>  <RMSD>
2.845

$$$$
ligand
 OpenBabel11021811503D
libRbt.so/2013.1/901 2013/11/27
 11 12  0  0  0  0  0  0  0  0999 V2000
    3.6928  -20.4610   25.2920 N   0  0  0  0  0  0  0  0  0  0  0  0
    3.2004  -20.9981   24.1485 C   0  0  0  0  0  0  0  0  0  0  0  0
    4.0661  -21.2981   23.0473 N   0  0  0  0  0  0  0  0  0  0  0  0
    1.8868  -21.2562   24.0195 N   0  0  0  0  0  0  0  0  0  0  0  0
    1.0032  -20.9910   25.0416 C   0  0  0  0  0  0  0  0  0  0  0  0
    1.4775  -20.4405   26.2183 C   0  0  0  0  0  0  0  0  0  0  0  0
    2.8744  -20.1712   26.3271 C   0  0  0  0  0  0  0  0  0  0  0  0
    3.3987  -19.5999   27.5298 N   0  0  0  0  0  0  0  0  0  0  0  0
    0.3854  -20.2813   27.0501 N   0  0  0  0  0  0  0  0  0  0  0  0
   -0.7184  -20.7115   26.4065 C   0  0  0  0  0  0  0  0  0  0  0  0
   -0.3689  -21.1475   25.1798 N   0  0  0  0  0  0  0  0  0  0  0  0
  1  7  2  0  0  0  0
  1  2  1  0  0  0  0
  2  3  1  0  0  0  0
  2  4  2  0  0  0  0
  4  5  1  0  0  0  0
  5  6  2  0  0  0  0
  5 11  1  0  0  0  0
  6  7  1  0  0  0  0
  6  9  1  0  0  0  0
  7  8  1  0  0  0  0
  9 10  1  0  0  0  0
 10 11  2  0  0  0  0
M  END
>  <CHROM.1>
1.92284052,-20.66917842,25.46781534,-0.53325642,0.14702435,1.18838210

>  <Name>
ligand

>  <RI>
0

>  <Rbt.Current_Directory>
/home/itssahil/PROJECTS/Mol_Feturizer/New_Systems/rnas/4LVZ

>  <Rbt.Executable>
rbdock ($Id: //depot/dev/client3/rdock/2013.1/src/exe/rbdock.cxx#4 $)

>  <Rbt.Library>
libRbt.so (2013.1, Build901 2013/11/27)

>  <Rbt.Parameter_File>
/export/apps/rDock/src/rDock_2013.1_src/data/scripts/dock_solv.prm

>  <Rbt.Receptor>
prm/pocket_docking_3.prm

>  <SCORE>
-9.46794

>  <SCORE.INTER>
-9.46794

>  <SCORE.INTER.CONST>
1

>  <SCORE.INTER.POLAR>
0

>  <SCORE.INTER.ROT>
0

>  <SCORE.INTER.SOLV>
12.8409

>  <SCORE.INTER.VDW>
-14.1923

>  <SCORE.INTER.norm>
-0.860722

>  <SCORE.INTRA>
0

>  <SCORE.INTRA.DIHEDRAL>
0

>  <SCORE.INTRA.DIHEDRAL.0>
0

>  <SCORE.INTRA.POLAR>
0

>  <SCORE.INTRA.POLAR.0>
0

>  <SCORE.INTRA.REPUL>
0

>  <SCORE.INTRA.REPUL.0>
0

>  <SCORE.INTRA.SOLV>
0

>  <SCORE.INTRA.SOLV.lig_0>
-49.4056

>  <SCORE.INTRA.VDW>
0

>  <SCORE.INTRA.VDW.0>
0

>  <SCORE.INTRA.norm>
0

>  <SCORE.RESTR>
0

>  <SCORE.RESTR.CAVITY>
0

>  <SCORE.RESTR.norm>
0

>  <SCORE.SYSTEM>
0

>  <SCORE.SYSTEM.CONST>
0

>  <SCORE.SYSTEM.DIHEDRAL>
0

>  <SCORE.SYSTEM.SOLV>
0

>  <SCORE.SYSTEM.norm>
0

>  <SCORE.heavy>
11

>  <SCORE.norm>
-0.860722

>  <RMSD>
2.845

$$$$
ligand
 OpenBabel11021811503D
libRbt.so/2013.1/901 2013/11/27
 11 12  0  0  0  0  0  0  0  0999 V2000
    3.7042  -20.4813   25.3015 N   0  0  0  0  0  0  0  0  0  0  0  0
    3.2128  -21.0247   24.1605 C   0  0  0  0  0  0  0  0  0  0  0  0
    4.0796  -21.3315   23.0620 N   0  0  0  0  0  0  0  0  0  0  0  0
    1.8992  -21.2827   24.0315 N   0  0  0  0  0  0  0  0  0  0  0  0
    1.0146  -21.0111   25.0510 C   0  0  0  0  0  0  0  0  0  0  0  0
    1.4878  -20.4541   26.2250 C   0  0  0  0  0  0  0  0  0  0  0  0
    2.8848  -20.1850   26.3339 C   0  0  0  0  0  0  0  0  0  0  0  0
    3.4081  -19.6070   27.5339 N   0  0  0  0  0  0  0  0  0  0  0  0
    0.3949  -20.2895   27.0547 N   0  0  0  0  0  0  0  0  0  0  0  0
   -0.7084  -20.7228   26.4123 C   0  0  0  0  0  0  0  0  0  0  0  0
   -0.3578  -21.1661   25.1886 N   0  0  0  0  0  0  0  0  0  0  0  0
  1  7  2  0  0  0  0
  1  2  1  0  0  0  0
  2  3  1  0  0  0  0
  2  4  2  0  0  0  0
  4  5  1  0  0  0  0
  5  6  2  0  0  0  0
  5 11  1  0  0  0  0
  6  7  1  0  0  0  0
  6  9  1  0  0  0  0
  7  8  1  0  0  0  0
  9 10  1  0  0  0  0
 10 11  2  0  0  0  0
M  END
>  <CHROM.1>
1.93393106,-20.68739730,25.47643256,-0.53238993,0.14607485,1.18246934

>  <Name>
ligand

>  <RI>
0

>  <Rbt.Current_Directory>
/home/itssahil/PROJECTS/Mol_Feturizer/New_Systems/rnas/4LVZ

>  <Rbt.Executable>
rbdock ($Id: //depot/dev/client3/rdock/2013.1/src/exe/rbdock.cxx#4 $)

>  <Rbt.Library>
libRbt.so (2013.1, Build901 2013/11/27)

>  <Rbt.Parameter_File>
/export/apps/rDock/src/rDock_2013.1_src/data/scripts/dock_solv.prm

>  <Rbt.Receptor>
prm/pocket_docking_7.prm

>  <SCORE>
-9.49519

>  <SCORE.INTER>
-9.49519

>  <SCORE.INTER.CONST>
1

>  <SCORE.INTER.POLAR>
0

>  <SCORE.INTER.ROT>
0

>  <SCORE.INTER.SOLV>
12.7678

>  <SCORE.INTER.VDW>
-14.1861

>  <SCORE.INTER.norm>
-0.863199

>  <SCORE.INTRA>
0

>  <SCORE.INTRA.DIHEDRAL>
0

>  <SCORE.INTRA.DIHEDRAL.0>
0

>  <SCORE.INTRA.POLAR>
0

>  <SCORE.INTRA.POLAR.0>
0

>  <SCORE.INTRA.REPUL>
0

>  <SCORE.INTRA.REPUL.0>
0

>  <SCORE.INTRA.SOLV>
0

>  <SCORE.INTRA.SOLV.lig_0>
-49.4056

>  <SCORE.INTRA.VDW>
0

>  <SCORE.INTRA.VDW.0>
0

>  <SCORE.INTRA.norm>
0

>  <SCORE.RESTR>
0

>  <SCORE.RESTR.CAVITY>
0

>  <SCORE.RESTR.norm>
0

>  <SCORE.SYSTEM>
0

>  <SCORE.SYSTEM.CONST>
0

>  <SCORE.SYSTEM.DIHEDRAL>
0

>  <SCORE.SYSTEM.SOLV>
0

>  <SCORE.SYSTEM.norm>
0

>  <SCORE.heavy>
11

>  <SCORE.norm>
-0.863199

>  <RMSD>
2.845

$$$$
ligand
 OpenBabel11021811503D
libRbt.so/2013.1/901 2013/11/27
 11 12  0  0  0  0  0  0  0  0999 V2000
    3.7165  -20.4461   25.2558 N   0  0  0  0  0  0  0  0  0  0  0  0
    3.2180  -21.0281   24.1372 C   0  0  0  0  0  0  0  0  0  0  0  0
    4.0688  -21.3246   23.0236 N   0  0  0  0  0  0  0  0  0  0  0  0
    1.9118  -21.3352   24.0451 N   0  0  0  0  0  0  0  0  0  0  0  0
    1.0426  -21.0760   25.0809 C   0  0  0  0  0  0  0  0  0  0  0  0
    1.5232  -20.4805   26.2327 C   0  0  0  0  0  0  0  0  0  0  0  0
    2.9117  -20.1598   26.3025 C   0  0  0  0  0  0  0  0  0  0  0  0
    3.4422  -19.5409   27.4787 N   0  0  0  0  0  0  0  0  0  0  0  0
    0.4451  -20.3393   27.0858 N   0  0  0  0  0  0  0  0  0  0  0  0
   -0.6569  -20.8236   26.4785 C   0  0  0  0  0  0  0  0  0  0  0  0
   -0.3197  -21.2771   25.2547 N   0  0  0  0  0  0  0  0  0  0  0  0
  1  7  2  0  0  0  0
  1  2  1  0  0  0  0
  2  3  1  0  0  0  0
  2  4  2  0  0  0  0
  4  5  1  0  0  0  0
  5  6  2  0  0  0  0
  5 11  1  0  0  0  0
  6  7  1  0  0  0  0
  6  9  1  0  0  0  0
  7  8  1  0  0  0  0
  9 10  1  0  0  0  0
 10 11  2  0  0  0  0
M  END
>  <CHROM.1>
1.95944391,-20.71180564,25.47776921,-0.54093357,0.18846698,1.16543840

>  <Name>
ligand

>  <RI>
0

>  <Rbt.Current_Directory>
/home/itssahil/PROJECTS/Mol_Feturizer/New_Systems/rnas/4LVZ

>  <Rbt.Executable>
rbdock ($Id: //depot/dev/client3/rdock/2013.1/src/exe/rbdock.cxx#4 $)

>  <Rbt.Library>
libRbt.so (2013.1, Build901 2013/11/27)

>  <Rbt.Parameter_File>
/export/apps/rDock/src/rDock_2013.1_src/data/scripts/dock_solv.prm

>  <Rbt.Receptor>
prm/pocket_docking_8.prm

>  <SCORE>
-9.45607

>  <SCORE.INTER>
-9.45607

>  <SCORE.INTER.CONST>
1

>  <SCORE.INTER.POLAR>
0

>  <SCORE.INTER.ROT>
0

>  <SCORE.INTER.SOLV>
12.7457

>  <SCORE.INTER.VDW>
-14.1526

>  <SCORE.INTER.norm>
-0.859643

>  <SCORE.INTRA>
0

>  <SCORE.INTRA.DIHEDRAL>
0

>  <SCORE.INTRA.DIHEDRAL.0>
0

>  <SCORE.INTRA.POLAR>
0

>  <SCORE.INTRA.POLAR.0>
0

>  <SCORE.INTRA.REPUL>
0

>  <SCORE.INTRA.REPUL.0>
0

>  <SCORE.INTRA.SOLV>
0

>  <SCORE.INTRA.SOLV.lig_0>
-49.4056

>  <SCORE.INTRA.VDW>
0

>  <SCORE.INTRA.VDW.0>
0

>  <SCORE.INTRA.norm>
0

>  <SCORE.RESTR>
0

>  <SCORE.RESTR.CAVITY>
0

>  <SCORE.RESTR.norm>
0

>  <SCORE.SYSTEM>
0

>  <SCORE.SYSTEM.CONST>
0

>  <SCORE.SYSTEM.DIHEDRAL>
0

>  <SCORE.SYSTEM.SOLV>
0

>  <SCORE.SYSTEM.norm>
0

>  <SCORE.heavy>
11

>  <SCORE.norm>
-0.859643

>  <RMSD>
2.845

$$$$
ligand
 OpenBabel11021811503D
libRbt.so/2013.1/901 2013/11/27
 11 12  0  0  0  0  0  0  0  0999 V2000
    3.7762  -20.4699   25.2703 N   0  0  0  0  0  0  0  0  0  0  0  0
    3.2552  -21.0077   24.1398 C   0  0  0  0  0  0  0  0  0  0  0  0
    4.0968  -21.3328   23.0272 N   0  0  0  0  0  0  0  0  0  0  0  0
    1.9351  -21.2427   24.0348 N   0  0  0  0  0  0  0  0  0  0  0  0
    1.0736  -20.9526   25.0689 C   0  0  0  0  0  0  0  0  0  0  0  0
    1.5772  -20.4009   26.2327 C   0  0  0  0  0  0  0  0  0  0  0  0
    2.9805  -20.1563   26.3161 C   0  0  0  0  0  0  0  0  0  0  0  0
    3.5350  -19.5844   27.5049 N   0  0  0  0  0  0  0  0  0  0  0  0
    0.5022  -20.2146   27.0809 N   0  0  0  0  0  0  0  0  0  0  0  0
   -0.6198  -20.6299   26.4594 C   0  0  0  0  0  0  0  0  0  0  0  0
   -0.2987  -21.0827   25.2310 N   0  0  0  0  0  0  0  0  0  0  0  0
  1  7  2  0  0  0  0
  1  2  1  0  0  0  0
  2  3  1  0  0  0  0
  2  4  2  0  0  0  0
  4  5  1  0  0  0  0
  5  6  2  0  0  0  0
  5 11  1  0  0  0  0
  6  7  1  0  0  0  0
  6  9  1  0  0  0  0
  7  8  1  0  0  0  0
  9 10  1  0  0  0  0
 10 11  2  0  0  0  0
M  END
>  <CHROM.1>
2.00586769,-20.64409575,25.47705215,-0.55566332,0.13631003,1.18285565

>  <Name>
ligand

>  <RI>
0

>  <Rbt.Current_Directory>
/home/itssahil/PROJECTS/Mol_Feturizer/New_Systems/rnas/4LVZ

>  <Rbt.Executable>
rbdock ($Id: //depot/dev/client3/rdock/2013.1/src/exe/rbdock.cxx#4 $)

>  <Rbt.Library>
libRbt.so (2013.1, Build901 2013/11/27)

>  <Rbt.Parameter_File>
/export/apps/rDock/src/rDock_2013.1_src/data/scripts/dock_solv.prm

>  <Rbt.Receptor>
prm/pocket_docking_4.prm

>  <SCORE>
-9.45218

>  <SCORE.INTER>
-9.45218

>  <SCORE.INTER.CONST>
1

>  <SCORE.INTER.POLAR>
0

>  <SCORE.INTER.ROT>
0

>  <SCORE.INTER.SOLV>
12.3397

>  <SCORE.INTER.VDW>
-14.0147

>  <SCORE.INTER.norm>
-0.859289

>  <SCORE.INTRA>
0

>  <SCORE.INTRA.DIHEDRAL>
0

>  <SCORE.INTRA.DIHEDRAL.0>
0

>  <SCORE.INTRA.POLAR>
0

>  <SCORE.INTRA.POLAR.0>
0

>  <SCORE.INTRA.REPUL>
0

>  <SCORE.INTRA.REPUL.0>
0

>  <SCORE.INTRA.SOLV>
0

>  <SCORE.INTRA.SOLV.lig_0>
-49.4056

>  <SCORE.INTRA.VDW>
0

>  <SCORE.INTRA.VDW.0>
0

>  <SCORE.INTRA.norm>
0

>  <SCORE.RESTR>
0

>  <SCORE.RESTR.CAVITY>
0

>  <SCORE.RESTR.norm>
0

>  <SCORE.SYSTEM>
0

>  <SCORE.SYSTEM.CONST>
0

>  <SCORE.SYSTEM.DIHEDRAL>
0

>  <SCORE.SYSTEM.SOLV>
0

>  <SCORE.SYSTEM.norm>
0

>  <SCORE.heavy>
11

>  <SCORE.norm>
-0.859289

>  <RMSD>
2.846

$$$$
ligand
 OpenBabel11021811503D
libRbt.so/2013.1/901 2013/11/27
 11 12  0  0  0  0  0  0  0  0999 V2000
    3.7284  -20.4715   25.2656 N   0  0  0  0  0  0  0  0  0  0  0  0
    3.2054  -21.0162   24.1394 C   0  0  0  0  0  0  0  0  0  0  0  0
    4.0412  -21.3239   23.0174 N   0  0  0  0  0  0  0  0  0  0  0  0
    1.8888  -21.2748   24.0475 N   0  0  0  0  0  0  0  0  0  0  0  0
    1.0331  -21.0025   25.0912 C   0  0  0  0  0  0  0  0  0  0  0  0
    1.5387  -20.4441   26.2509 C   0  0  0  0  0  0  0  0  0  0  0  0
    2.9382  -20.1745   26.3203 C   0  0  0  0  0  0  0  0  0  0  0  0
    3.4946  -19.5951   27.5046 N   0  0  0  0  0  0  0  0  0  0  0  0
    0.4695  -20.2791   27.1106 N   0  0  0  0  0  0  0  0  0  0  0  0
   -0.6513  -20.7133   26.4999 C   0  0  0  0  0  0  0  0  0  0  0  0
   -0.3349  -21.1577   25.2672 N   0  0  0  0  0  0  0  0  0  0  0  0
  1  7  2  0  0  0  0
  1  2  1  0  0  0  0
  2  3  1  0  0  0  0
  2  4  2  0  0  0  0
  4  5  1  0  0  0  0
  5  6  2  0  0  0  0
  5 11  1  0  0  0  0
  6  7  1  0  0  0  0
  6  9  1  0  0  0  0
  7  8  1  0  0  0  0
  9 10  1  0  0  0  0
 10 11  2  0  0  0  0
M  END
>  <CHROM.1>
1.96379330,-20.67802392,25.49030508,-0.55852678,0.15694677,1.18542292

>  <Name>
ligand

>  <RI>
0

>  <Rbt.Current_Directory>
/home/itssahil/PROJECTS/Mol_Feturizer/New_Systems/rnas/4LVZ

>  <Rbt.Executable>
rbdock ($Id: //depot/dev/client3/rdock/2013.1/src/exe/rbdock.cxx#4 $)

>  <Rbt.Library>
libRbt.so (2013.1, Build901 2013/11/27)

>  <Rbt.Parameter_File>
/export/apps/rDock/src/rDock_2013.1_src/data/scripts/dock_solv.prm

>  <Rbt.Receptor>
prm/pocket_docking_5.prm

>  <SCORE>
-9.43607

>  <SCORE.INTER>
-9.43607

>  <SCORE.INTER.CONST>
1

>  <SCORE.INTER.POLAR>
0

>  <SCORE.INTER.ROT>
0

>  <SCORE.INTER.SOLV>
12.6542

>  <SCORE.INTER.VDW>
-14.1088

>  <SCORE.INTER.norm>
-0.857824

>  <SCORE.INTRA>
0

>  <SCORE.INTRA.DIHEDRAL>
0

>  <SCORE.INTRA.DIHEDRAL.0>
0

>  <SCORE.INTRA.POLAR>
0

>  <SCORE.INTRA.POLAR.0>
0

>  <SCORE.INTRA.REPUL>
0

>  <SCORE.INTRA.REPUL.0>
0

>  <SCORE.INTRA.SOLV>
0

>  <SCORE.INTRA.SOLV.lig_0>
-49.4056

>  <SCORE.INTRA.VDW>
0

>  <SCORE.INTRA.VDW.0>
0

>  <SCORE.INTRA.norm>
0

>  <SCORE.RESTR>
0

>  <SCORE.RESTR.CAVITY>
0

>  <SCORE.RESTR.norm>
0

>  <SCORE.SYSTEM>
0

>  <SCORE.SYSTEM.CONST>
0

>  <SCORE.SYSTEM.DIHEDRAL>
0

>  <SCORE.SYSTEM.SOLV>
0

>  <SCORE.SYSTEM.norm>
0

>  <SCORE.heavy>
11

>  <SCORE.norm>
-0.857824

>  <RMSD>
2.846

$$$$
ligand
 OpenBabel11021811503D
libRbt.so/2013.1/901 2013/11/27
 11 12  0  0  0  0  0  0  0  0999 V2000
    3.7892  -20.4659   25.2573 N   0  0  0  0  0  0  0  0  0  0  0  0
    3.2691  -21.0104   24.1296 C   0  0  0  0  0  0  0  0  0  0  0  0
    4.1083  -21.3209   23.0110 N   0  0  0  0  0  0  0  0  0  0  0  0
    1.9522  -21.2660   24.0331 N   0  0  0  0  0  0  0  0  0  0  0  0
    1.0933  -20.9908   25.0733 C   0  0  0  0  0  0  0  0  0  0  0  0
    1.5959  -20.4327   26.2344 C   0  0  0  0  0  0  0  0  0  0  0  0
    2.9957  -20.1661   26.3088 C   0  0  0  0  0  0  0  0  0  0  0  0
    3.5491  -19.5871   27.4947 N   0  0  0  0  0  0  0  0  0  0  0  0
    0.5238  -20.2644   27.0901 N   0  0  0  0  0  0  0  0  0  0  0  0
   -0.5956  -20.6965   26.4755 C   0  0  0  0  0  0  0  0  0  0  0  0
   -0.2757  -21.1427   25.2444 N   0  0  0  0  0  0  0  0  0  0  0  0
  1  7  2  0  0  0  0
  1  2  1  0  0  0  0
  2  3  1  0  0  0  0
  2  4  2  0  0  0  0
  4  5  1  0  0  0  0
  5  6  2  0  0  0  0
  5 11  1  0  0  0  0
  6  7  1  0  0  0  0
  6  9  1  0  0  0  0
  7  8  1  0  0  0  0
  9 10  1  0  0  0  0
 10 11  2  0  0  0  0
M  END
>  <CHROM.1>
2.02324526,-20.66814942,25.47561313,-0.55592082,0.15341175,1.18417995

>  <Name>
ligand

>  <RI>
0

>  <Rbt.Current_Directory>
/home/itssahil/PROJECTS/Mol_Feturizer/New_Systems/rnas/4LVZ

>  <Rbt.Executable>
rbdock ($Id: //depot/dev/client3/rdock/2013.1/src/exe/rbdock.cxx#4 $)

>  <Rbt.Library>
libRbt.so (2013.1, Build901 2013/11/27)

>  <Rbt.Parameter_File>
/export/apps/rDock/src/rDock_2013.1_src/data/scripts/dock_solv.prm

>  <Rbt.Receptor>
prm/pocket_docking_8.prm

>  <SCORE>
-9.4479

>  <SCORE.INTER>
-9.4479

>  <SCORE.INTER.CONST>
1

>  <SCORE.INTER.POLAR>
0

>  <SCORE.INTER.ROT>
0

>  <SCORE.INTER.SOLV>
12.1954

>  <SCORE.INTER.VDW>
-13.9637

>  <SCORE.INTER.norm>
-0.8589

>  <SCORE.INTRA>
0

>  <SCORE.INTRA.DIHEDRAL>
0

>  <SCORE.INTRA.DIHEDRAL.0>
0

>  <SCORE.INTRA.POLAR>
0

>  <SCORE.INTRA.POLAR.0>
0

>  <SCORE.INTRA.REPUL>
0

>  <SCORE.INTRA.REPUL.0>
0

>  <SCORE.INTRA.SOLV>
0

>  <SCORE.INTRA.SOLV.lig_0>
-49.4056

>  <SCORE.INTRA.VDW>
0

>  <SCORE.INTRA.VDW.0>
0

>  <SCORE.INTRA.norm>
0

>  <SCORE.RESTR>
0

>  <SCORE.RESTR.CAVITY>
0

>  <SCORE.RESTR.norm>
0

>  <SCORE.SYSTEM>
0

>  <SCORE.SYSTEM.CONST>
0

>  <SCORE.SYSTEM.DIHEDRAL>
0

>  <SCORE.SYSTEM.SOLV>
0

>  <SCORE.SYSTEM.norm>
0

>  <SCORE.heavy>
11

>  <SCORE.norm>
-0.8589

>  <RMSD>
2.846

$$$$
ligand
 OpenBabel11021811503D
libRbt.so/2013.1/901 2013/11/27
 11 12  0  0  0  0  0  0  0  0999 V2000
    3.7082  -20.4551   25.2675 N   0  0  0  0  0  0  0  0  0  0  0  0
    3.2106  -21.0212   24.1403 C   0  0  0  0  0  0  0  0  0  0  0  0
    4.0677  -21.3295   23.0347 N   0  0  0  0  0  0  0  0  0  0  0  0
    1.8995  -21.3008   24.0320 N   0  0  0  0  0  0  0  0  0  0  0  0
    1.0241  -21.0291   25.0594 C   0  0  0  0  0  0  0  0  0  0  0  0
    1.5038  -20.4493   26.2196 C   0  0  0  0  0  0  0  0  0  0  0  0
    2.8978  -20.1575   26.3065 C   0  0  0  0  0  0  0  0  0  0  0  0
    3.4275  -19.5556   27.4919 N   0  0  0  0  0  0  0  0  0  0  0  0
    0.4193  -20.2902   27.0612 N   0  0  0  0  0  0  0  0  0  0  0  0
   -0.6855  -20.7487   26.4392 C   0  0  0  0  0  0  0  0  0  0  0  0
   -0.3439  -21.2029   25.2169 N   0  0  0  0  0  0  0  0  0  0  0  0
  1  7  2  0  0  0  0
  1  2  1  0  0  0  0
  2  3  1  0  0  0  0
  2  4  2  0  0  0  0
  4  5  1  0  0  0  0
  5  6  2  0  0  0  0
  5 11  1  0  0  0  0
  6  7  1  0  0  0  0
  6  9  1  0  0  0  0
  7  8  1  0  0  0  0
  9 10  1  0  0  0  0
 10 11  2  0  0  0  0
M  END
>  <CHROM.1>
1.94372591,-20.68573878,25.46835684,-0.53861425,0.16517182,1.17014885

>  <Name>
ligand

>  <RI>
0

>  <Rbt.Current_Directory>
/home/itssahil/PROJECTS/Mol_Feturizer/New_Systems/rnas/4LVZ

>  <Rbt.Executable>
rbdock ($Id: //depot/dev/client3/rdock/2013.1/src/exe/rbdock.cxx#4 $)

>  <Rbt.Library>
libRbt.so (2013.1, Build901 2013/11/27)

>  <Rbt.Parameter_File>
/export/apps/rDock/src/rDock_2013.1_src/data/scripts/dock_solv.prm

>  <Rbt.Receptor>
prm/pocket_docking_8.prm

>  <SCORE>
-9.42728

>  <SCORE.INTER>
-9.42728

>  <SCORE.INTER.CONST>
1

>  <SCORE.INTER.POLAR>
0

>  <SCORE.INTER.ROT>
0

>  <SCORE.INTER.SOLV>
12.7905

>  <SCORE.INTER.VDW>
-14.1483

>  <SCORE.INTER.norm>
-0.857025

>  <SCORE.INTRA>
0

>  <SCORE.INTRA.DIHEDRAL>
0

>  <SCORE.INTRA.DIHEDRAL.0>
0

>  <SCORE.INTRA.POLAR>
0

>  <SCORE.INTRA.POLAR.0>
0

>  <SCORE.INTRA.REPUL>
0

>  <SCORE.INTRA.REPUL.0>
0

>  <SCORE.INTRA.SOLV>
0

>  <SCORE.INTRA.SOLV.lig_0>
-49.4056

>  <SCORE.INTRA.VDW>
0

>  <SCORE.INTRA.VDW.0>
0

>  <SCORE.INTRA.norm>
0

>  <SCORE.RESTR>
0

>  <SCORE.RESTR.CAVITY>
0

>  <SCORE.RESTR.norm>
0

>  <SCORE.SYSTEM>
0

>  <SCORE.SYSTEM.CONST>
0

>  <SCORE.SYSTEM.DIHEDRAL>
0

>  <SCORE.SYSTEM.SOLV>
0

>  <SCORE.SYSTEM.norm>
0

>  <SCORE.heavy>
11

>  <SCORE.norm>
-0.857025

>  <RMSD>
2.847

$$$$
ligand
 OpenBabel11021811503D
libRbt.so/2013.1/901 2013/11/27
 11 12  0  0  0  0  0  0  0  0999 V2000
    3.7729  -20.4726   25.2596 N   0  0  0  0  0  0  0  0  0  0  0  0
    3.2631  -21.0231   24.1302 C   0  0  0  0  0  0  0  0  0  0  0  0
    4.1099  -21.3253   23.0151 N   0  0  0  0  0  0  0  0  0  0  0  0
    1.9494  -21.2928   24.0287 N   0  0  0  0  0  0  0  0  0  0  0  0
    1.0834  -21.0261   25.0653 C   0  0  0  0  0  0  0  0  0  0  0  0
    1.5756  -20.4621   26.2281 C   0  0  0  0  0  0  0  0  0  0  0  0
    2.9721  -20.1807   26.3078 C   0  0  0  0  0  0  0  0  0  0  0  0
    3.5147  -19.5951   27.4955 N   0  0  0  0  0  0  0  0  0  0  0  0
    0.4984  -20.3047   27.0794 N   0  0  0  0  0  0  0  0  0  0  0  0
   -0.6140  -20.7491   26.4607 C   0  0  0  0  0  0  0  0  0  0  0  0
   -0.2845  -21.1925   25.2312 N   0  0  0  0  0  0  0  0  0  0  0  0
  1  7  2  0  0  0  0
  1  2  1  0  0  0  0
  2  3  1  0  0  0  0
  2  4  2  0  0  0  0
  4  5  1  0  0  0  0
  5  6  2  0  0  0  0
  5 11  1  0  0  0  0
  6  7  1  0  0  0  0
  6  9  1  0  0  0  0
  7  8  1  0  0  0  0
  9 10  1  0  0  0  0
 10 11  2  0  0  0  0
M  END
>  <CHROM.1>
2.00834490,-20.69344240,25.47113869,-0.54816805,0.16174835,1.18240120

>  <Name>
ligand

>  <RI>
0

>  <Rbt.Current_Directory>
/home/itssahil/PROJECTS/Mol_Feturizer/New_Systems/rnas/4LVZ

>  <Rbt.Executable>
rbdock ($Id: //depot/dev/client3/rdock/2013.1/src/exe/rbdock.cxx#4 $)

>  <Rbt.Library>
libRbt.so (2013.1, Build901 2013/11/27)

>  <Rbt.Parameter_File>
/export/apps/rDock/src/rDock_2013.1_src/data/scripts/dock_solv.prm

>  <Rbt.Receptor>
prm/pocket_docking_8.prm

>  <SCORE>
-9.4156

>  <SCORE.INTER>
-9.4156

>  <SCORE.INTER.CONST>
1

>  <SCORE.INTER.POLAR>
0

>  <SCORE.INTER.ROT>
0

>  <SCORE.INTER.SOLV>
12.2541

>  <SCORE.INTER.VDW>
-13.9618

>  <SCORE.INTER.norm>
-0.855963

>  <SCORE.INTRA>
0

>  <SCORE.INTRA.DIHEDRAL>
0

>  <SCORE.INTRA.DIHEDRAL.0>
0

>  <SCORE.INTRA.POLAR>
0

>  <SCORE.INTRA.POLAR.0>
0

>  <SCORE.INTRA.REPUL>
0

>  <SCORE.INTRA.REPUL.0>
0

>  <SCORE.INTRA.SOLV>
0

>  <SCORE.INTRA.SOLV.lig_0>
-49.4056

>  <SCORE.INTRA.VDW>
0

>  <SCORE.INTRA.VDW.0>
0

>  <SCORE.INTRA.norm>
0

>  <SCORE.RESTR>
0

>  <SCORE.RESTR.CAVITY>
0

>  <SCORE.RESTR.norm>
0

>  <SCORE.SYSTEM>
0

>  <SCORE.SYSTEM.CONST>
0

>  <SCORE.SYSTEM.DIHEDRAL>
0

>  <SCORE.SYSTEM.SOLV>
0

>  <SCORE.SYSTEM.norm>
0

>  <SCORE.heavy>
11

>  <SCORE.norm>
-0.855963

>  <RMSD>
2.847

$$$$
ligand
 OpenBabel11021811503D
libRbt.so/2013.1/901 2013/11/27
 11 12  0  0  0  0  0  0  0  0999 V2000
    3.8038  -20.5037   25.2276 N   0  0  0  0  0  0  0  0  0  0  0  0
    3.2184  -20.9765   24.0996 C   0  0  0  0  0  0  0  0  0  0  0  0
    3.9968  -21.2480   22.9281 N   0  0  0  0  0  0  0  0  0  0  0  0
    1.8924  -21.1960   24.0528 N   0  0  0  0  0  0  0  0  0  0  0  0
    1.0897  -20.9553   25.1452 C   0  0  0  0  0  0  0  0  0  0  0  0
    1.6596  -20.4701   26.3081 C   0  0  0  0  0  0  0  0  0  0  0  0
    3.0677  -20.2406   26.3294 C   0  0  0  0  0  0  0  0  0  0  0  0
    3.6900  -19.7370   27.5156 N   0  0  0  0  0  0  0  0  0  0  0  0
    0.6329  -20.3216   27.2210 N   0  0  0  0  0  0  0  0  0  0  0  0
   -0.5245  -20.6951   26.6391 C   0  0  0  0  0  0  0  0  0  0  0  0
   -0.2734  -21.0840   25.3732 N   0  0  0  0  0  0  0  0  0  0  0  0
  1  7  2  0  0  0  0
  1  2  1  0  0  0  0
  2  3  1  0  0  0  0
  2  4  2  0  0  0  0
  4  5  1  0  0  0  0
  5  6  2  0  0  0  0
  5 11  1  0  0  0  0
  6  7  1  0  0  0  0
  6  9  1  0  0  0  0
  7  8  1  0  0  0  0
  9 10  1  0  0  0  0
 10 11  2  0  0  0  0
M  END
>  <CHROM.1>
2.04526582,-20.67578884,25.51886432,-0.60898162,0.14679059,1.24357133

>  <Name>
ligand

>  <RI>
0

>  <Rbt.Current_Directory>
/home/itssahil/PROJECTS/Mol_Feturizer/New_Systems/rnas/4LVZ

>  <Rbt.Executable>
rbdock ($Id: //depot/dev/client3/rdock/2013.1/src/exe/rbdock.cxx#4 $)

>  <Rbt.Library>
libRbt.so (2013.1, Build901 2013/11/27)

>  <Rbt.Parameter_File>
/export/apps/rDock/src/rDock_2013.1_src/data/scripts/dock_solv.prm

>  <Rbt.Receptor>
prm/pocket_docking_3.prm

>  <SCORE>
-9.38607

>  <SCORE.INTER>
-9.38607

>  <SCORE.INTER.CONST>
1

>  <SCORE.INTER.POLAR>
0

>  <SCORE.INTER.ROT>
0

>  <SCORE.INTER.SOLV>
11.857

>  <SCORE.INTER.VDW>
-13.8097

>  <SCORE.INTER.norm>
-0.853279

>  <SCORE.INTRA>
0

>  <SCORE.INTRA.DIHEDRAL>
0

>  <SCORE.INTRA.DIHEDRAL.0>
0

>  <SCORE.INTRA.POLAR>
0

>  <SCORE.INTRA.POLAR.0>
0

>  <SCORE.INTRA.REPUL>
0

>  <SCORE.INTRA.REPUL.0>
0

>  <SCORE.INTRA.SOLV>
0

>  <SCORE.INTRA.SOLV.lig_0>
-49.4056

>  <SCORE.INTRA.VDW>
0

>  <SCORE.INTRA.VDW.0>
0

>  <SCORE.INTRA.norm>
0

>  <SCORE.RESTR>
0

>  <SCORE.RESTR.CAVITY>
0

>  <SCORE.RESTR.norm>
0

>  <SCORE.SYSTEM>
0

>  <SCORE.SYSTEM.CONST>
0

>  <SCORE.SYSTEM.DIHEDRAL>
0

>  <SCORE.SYSTEM.SOLV>
0

>  <SCORE.SYSTEM.norm>
0

>  <SCORE.heavy>
11

>  <SCORE.norm>
-0.853279

>  <RMSD>
2.848

$$$$
ligand
 OpenBabel11021811503D
libRbt.so/2013.1/901 2013/11/27
 11 12  0  0  0  0  0  0  0  0999 V2000
    3.7892  -20.4980   25.2288 N   0  0  0  0  0  0  0  0  0  0  0  0
    3.2164  -20.9769   24.0969 C   0  0  0  0  0  0  0  0  0  0  0  0
    4.0047  -21.2354   22.9291 N   0  0  0  0  0  0  0  0  0  0  0  0
    1.8938  -21.2146   24.0426 N   0  0  0  0  0  0  0  0  0  0  0  0
    1.0821  -20.9870   25.1312 C   0  0  0  0  0  0  0  0  0  0  0  0
    1.6391  -20.4961   26.2978 C   0  0  0  0  0  0  0  0  0  0  0  0
    3.0437  -20.2470   26.3271 C   0  0  0  0  0  0  0  0  0  0  0  0
    3.6527  -19.7370   27.5174 N   0  0  0  0  0  0  0  0  0  0  0  0
    0.6055  -20.3634   27.2056 N   0  0  0  0  0  0  0  0  0  0  0  0
   -0.5435  -20.7518   26.6169 C   0  0  0  0  0  0  0  0  0  0  0  0
   -0.2802  -21.1350   25.3516 N   0  0  0  0  0  0  0  0  0  0  0  0
  1  7  2  0  0  0  0
  1  2  1  0  0  0  0
  2  3  1  0  0  0  0
  2  4  2  0  0  0  0
  4  5  1  0  0  0  0
  5  6  2  0  0  0  0
  5 11  1  0  0  0  0
  6  7  1  0  0  0  0
  6  9  1  0  0  0  0
  7  8  1  0  0  0  0
  9 10  1  0  0  0  0
 10 11  2  0  0  0  0
M  END
>  <CHROM.1>
2.03170811,-20.69495622,25.51037660,-0.59937813,0.15821066,1.24384805

>  <Name>
ligand

>  <RI>
0

>  <Rbt.Current_Directory>
/home/itssahil/PROJECTS/Mol_Feturizer/New_Systems/rnas/4LVZ

>  <Rbt.Executable>
rbdock ($Id: //depot/dev/client3/rdock/2013.1/src/exe/rbdock.cxx#4 $)

>  <Rbt.Library>
libRbt.so (2013.1, Build901 2013/11/27)

>  <Rbt.Parameter_File>
/export/apps/rDock/src/rDock_2013.1_src/data/scripts/dock_solv.prm

>  <Rbt.Receptor>
prm/pocket_docking_5.prm

>  <SCORE>
-9.45067

>  <SCORE.INTER>
-9.45067

>  <SCORE.INTER.CONST>
1

>  <SCORE.INTER.POLAR>
0

>  <SCORE.INTER.ROT>
0

>  <SCORE.INTER.SOLV>
11.9033

>  <SCORE.INTER.VDW>
-13.8682

>  <SCORE.INTER.norm>
-0.859152

>  <SCORE.INTRA>
0

>  <SCORE.INTRA.DIHEDRAL>
0

>  <SCORE.INTRA.DIHEDRAL.0>
0

>  <SCORE.INTRA.POLAR>
0

>  <SCORE.INTRA.POLAR.0>
0

>  <SCORE.INTRA.REPUL>
0

>  <SCORE.INTRA.REPUL.0>
0

>  <SCORE.INTRA.SOLV>
0

>  <SCORE.INTRA.SOLV.lig_0>
-49.4056

>  <SCORE.INTRA.VDW>
0

>  <SCORE.INTRA.VDW.0>
0

>  <SCORE.INTRA.norm>
0

>  <SCORE.RESTR>
0

>  <SCORE.RESTR.CAVITY>
0

>  <SCORE.RESTR.norm>
0

>  <SCORE.SYSTEM>
0

>  <SCORE.SYSTEM.CONST>
0

>  <SCORE.SYSTEM.DIHEDRAL>
0

>  <SCORE.SYSTEM.SOLV>
0

>  <SCORE.SYSTEM.norm>
0

>  <SCORE.heavy>
11

>  <SCORE.norm>
-0.859152

>  <RMSD>
2.848

$$$$
ligand
 OpenBabel11021811503D
libRbt.so/2013.1/901 2013/11/27
 11 12  0  0  0  0  0  0  0  0999 V2000
    3.7499  -20.4717   25.2732 N   0  0  0  0  0  0  0  0  0  0  0  0
    3.2582  -21.0300   24.1396 C   0  0  0  0  0  0  0  0  0  0  0  0
    4.1231  -21.3425   23.0413 N   0  0  0  0  0  0  0  0  0  0  0  0
    1.9458  -21.2977   24.0179 N   0  0  0  0  0  0  0  0  0  0  0  0
    1.0630  -21.0214   25.0377 C   0  0  0  0  0  0  0  0  0  0  0  0
    1.5366  -20.4493   26.2042 C   0  0  0  0  0  0  0  0  0  0  0  0
    2.9322  -20.1701   26.3054 C   0  0  0  0  0  0  0  0  0  0  0  0
    3.4558  -19.5764   27.4976 N   0  0  0  0  0  0  0  0  0  0  0  0
    0.4455  -20.2832   27.0359 N   0  0  0  0  0  0  0  0  0  0  0  0
   -0.6572  -20.7301   26.4019 C   0  0  0  0  0  0  0  0  0  0  0  0
   -0.3079  -21.1837   25.1816 N   0  0  0  0  0  0  0  0  0  0  0  0
  1  7  2  0  0  0  0
  1  2  1  0  0  0  0
  2  3  1  0  0  0  0
  2  4  2  0  0  0  0
  4  5  1  0  0  0  0
  5  6  2  0  0  0  0
  5 11  1  0  0  0  0
  6  7  1  0  0  0  0
  6  9  1  0  0  0  0
  7  8  1  0  0  0  0
  9 10  1  0  0  0  0
 10 11  2  0  0  0  0
M  END
>  <CHROM.1>
1.98164585,-20.68738411,25.45648868,-0.53314003,0.15335780,1.17231505

>  <Name>
ligand

>  <RI>
0

>  <Rbt.Current_Directory>
/home/itssahil/PROJECTS/Mol_Feturizer/New_Systems/rnas/4LVZ

>  <Rbt.Executable>
rbdock ($Id: //depot/dev/client3/rdock/2013.1/src/exe/rbdock.cxx#4 $)

>  <Rbt.Library>
libRbt.so (2013.1, Build901 2013/11/27)

>  <Rbt.Parameter_File>
/export/apps/rDock/src/rDock_2013.1_src/data/scripts/dock_solv.prm

>  <Rbt.Receptor>
prm/pocket_docking_5.prm

>  <SCORE>
-9.44931

>  <SCORE.INTER>
-9.44931

>  <SCORE.INTER.CONST>
1

>  <SCORE.INTER.POLAR>
0

>  <SCORE.INTER.ROT>
0

>  <SCORE.INTER.SOLV>
12.4314

>  <SCORE.INTER.VDW>
-14.0433

>  <SCORE.INTER.norm>
-0.859028

>  <SCORE.INTRA>
0

>  <SCORE.INTRA.DIHEDRAL>
0

>  <SCORE.INTRA.DIHEDRAL.0>
0

>  <SCORE.INTRA.POLAR>
0

>  <SCORE.INTRA.POLAR.0>
0

>  <SCORE.INTRA.REPUL>
0

>  <SCORE.INTRA.REPUL.0>
0

>  <SCORE.INTRA.SOLV>
0

>  <SCORE.INTRA.SOLV.lig_0>
-49.4056

>  <SCORE.INTRA.VDW>
0

>  <SCORE.INTRA.VDW.0>
0

>  <SCORE.INTRA.norm>
0

>  <SCORE.RESTR>
0

>  <SCORE.RESTR.CAVITY>
0

>  <SCORE.RESTR.norm>
0

>  <SCORE.SYSTEM>
0

>  <SCORE.SYSTEM.CONST>
0

>  <SCORE.SYSTEM.DIHEDRAL>
0

>  <SCORE.SYSTEM.SOLV>
0

>  <SCORE.SYSTEM.norm>
0

>  <SCORE.heavy>
11

>  <SCORE.norm>
-0.859028

>  <RMSD>
2.848

$$$$
ligand
 OpenBabel11021811503D
libRbt.so/2013.1/901 2013/11/27
 11 12  0  0  0  0  0  0  0  0999 V2000
    3.7938  -20.4659   25.2067 N   0  0  0  0  0  0  0  0  0  0  0  0
    3.2131  -20.9709   24.0903 C   0  0  0  0  0  0  0  0  0  0  0  0
    3.9901  -21.2395   22.9172 N   0  0  0  0  0  0  0  0  0  0  0  0
    1.8930  -21.2258   24.0566 N   0  0  0  0  0  0  0  0  0  0  0  0
    1.0920  -20.9897   25.1513 C   0  0  0  0  0  0  0  0  0  0  0  0
    1.6571  -20.4723   26.3025 C   0  0  0  0  0  0  0  0  0  0  0  0
    3.0588  -20.2056   26.3099 C   0  0  0  0  0  0  0  0  0  0  0  0
    3.6760  -19.6680   27.4838 N   0  0  0  0  0  0  0  0  0  0  0  0
    0.6333  -20.3370   27.2208 N   0  0  0  0  0  0  0  0  0  0  0  0
   -0.5179  -20.7494   26.6531 C   0  0  0  0  0  0  0  0  0  0  0  0
   -0.2656  -21.1506   25.3912 N   0  0  0  0  0  0  0  0  0  0  0  0
  1  7  2  0  0  0  0
  1  2  1  0  0  0  0
  2  3  1  0  0  0  0
  2  4  2  0  0  0  0
  4  5  1  0  0  0  0
  5  6  2  0  0  0  0
  5 11  1  0  0  0  0
  6  7  1  0  0  0  0
  6  9  1  0  0  0  0
  7  8  1  0  0  0  0
  9 10  1  0  0  0  0
 10 11  2  0  0  0  0
M  END
>  <CHROM.1>
2.04248340,-20.67966051,25.51359615,-0.60717291,0.17397731,1.22828594

>  <Name>
ligand

>  <RI>
0

>  <Rbt.Current_Directory>
/home/itssahil/PROJECTS/Mol_Feturizer/New_Systems/rnas/4LVZ

>  <Rbt.Executable>
rbdock ($Id: //depot/dev/client3/rdock/2013.1/src/exe/rbdock.cxx#4 $)

>  <Rbt.Library>
libRbt.so (2013.1, Build901 2013/11/27)

>  <Rbt.Parameter_File>
/export/apps/rDock/src/rDock_2013.1_src/data/scripts/dock_solv.prm

>  <Rbt.Receptor>
prm/pocket_docking_7.prm

>  <SCORE>
-9.44248

>  <SCORE.INTER>
-9.44248

>  <SCORE.INTER.CONST>
1

>  <SCORE.INTER.POLAR>
0

>  <SCORE.INTER.ROT>
0

>  <SCORE.INTER.SOLV>
12.028

>  <SCORE.INTER.VDW>
-13.9043

>  <SCORE.INTER.norm>
-0.858407

>  <SCORE.INTRA>
0

>  <SCORE.INTRA.DIHEDRAL>
0

>  <SCORE.INTRA.DIHEDRAL.0>
0

>  <SCORE.INTRA.POLAR>
0

>  <SCORE.INTRA.POLAR.0>
0

>  <SCORE.INTRA.REPUL>
0

>  <SCORE.INTRA.REPUL.0>
0

>  <SCORE.INTRA.SOLV>
0

>  <SCORE.INTRA.SOLV.lig_0>
-49.4056

>  <SCORE.INTRA.VDW>
0

>  <SCORE.INTRA.VDW.0>
0

>  <SCORE.INTRA.norm>
0

>  <SCORE.RESTR>
0

>  <SCORE.RESTR.CAVITY>
0

>  <SCORE.RESTR.norm>
0

>  <SCORE.SYSTEM>
0

>  <SCORE.SYSTEM.CONST>
0

>  <SCORE.SYSTEM.DIHEDRAL>
0

>  <SCORE.SYSTEM.SOLV>
0

>  <SCORE.SYSTEM.norm>
0

>  <SCORE.heavy>
11

>  <SCORE.norm>
-0.858407

>  <RMSD>
2.848

$$$$
ligand
 OpenBabel11021811503D
libRbt.so/2013.1/901 2013/11/27
 11 12  0  0  0  0  0  0  0  0999 V2000
    3.7964  -20.4892   25.2230 N   0  0  0  0  0  0  0  0  0  0  0  0
    3.2230  -20.9658   24.0905 C   0  0  0  0  0  0  0  0  0  0  0  0
    4.0106  -21.2221   22.9218 N   0  0  0  0  0  0  0  0  0  0  0  0
    1.9003  -21.2032   24.0364 N   0  0  0  0  0  0  0  0  0  0  0  0
    1.0891  -20.9776   25.1258 C   0  0  0  0  0  0  0  0  0  0  0  0
    1.6468  -20.4890   26.2932 C   0  0  0  0  0  0  0  0  0  0  0  0
    3.0515  -20.2403   26.3222 C   0  0  0  0  0  0  0  0  0  0  0  0
    3.6611  -19.7327   27.5132 N   0  0  0  0  0  0  0  0  0  0  0  0
    0.6137  -20.3580   27.2017 N   0  0  0  0  0  0  0  0  0  0  0  0
   -0.5357  -20.7450   26.6128 C   0  0  0  0  0  0  0  0  0  0  0  0
   -0.2731  -21.1257   25.3466 N   0  0  0  0  0  0  0  0  0  0  0  0
  1  7  2  0  0  0  0
  1  2  1  0  0  0  0
  2  3  1  0  0  0  0
  2  4  2  0  0  0  0
  4  5  1  0  0  0  0
  5  6  2  0  0  0  0
  5 11  1  0  0  0  0
  6  7  1  0  0  0  0
  6  9  1  0  0  0  0
  7  8  1  0  0  0  0
  9 10  1  0  0  0  0
 10 11  2  0  0  0  0
M  END
>  <CHROM.1>
2.03896679,-20.68643069,25.50510428,-0.59991108,0.15820071,1.24591788

>  <Name>
ligand

>  <RI>
0

>  <Rbt.Current_Directory>
/home/itssahil/PROJECTS/Mol_Feturizer/New_Systems/rnas/4LVZ

>  <Rbt.Executable>
rbdock ($Id: //depot/dev/client3/rdock/2013.1/src/exe/rbdock.cxx#4 $)

>  <Rbt.Library>
libRbt.so (2013.1, Build901 2013/11/27)

>  <Rbt.Parameter_File>
/export/apps/rDock/src/rDock_2013.1_src/data/scripts/dock_solv.prm

>  <Rbt.Receptor>
prm/pocket_docking_8.prm

>  <SCORE>
-9.44249

>  <SCORE.INTER>
-9.44249

>  <SCORE.INTER.CONST>
1

>  <SCORE.INTER.POLAR>
0

>  <SCORE.INTER.ROT>
0

>  <SCORE.INTER.SOLV>
11.8417

>  <SCORE.INTER.VDW>
-13.8422

>  <SCORE.INTER.norm>
-0.858408

>  <SCORE.INTRA>
0

>  <SCORE.INTRA.DIHEDRAL>
0

>  <SCORE.INTRA.DIHEDRAL.0>
0

>  <SCORE.INTRA.POLAR>
0

>  <SCORE.INTRA.POLAR.0>
0

>  <SCORE.INTRA.REPUL>
0

>  <SCORE.INTRA.REPUL.0>
0

>  <SCORE.INTRA.SOLV>
0

>  <SCORE.INTRA.SOLV.lig_0>
-49.4056

>  <SCORE.INTRA.VDW>
0

>  <SCORE.INTRA.VDW.0>
0

>  <SCORE.INTRA.norm>
0

>  <SCORE.RESTR>
0

>  <SCORE.RESTR.CAVITY>
0

>  <SCORE.RESTR.norm>
0

>  <SCORE.SYSTEM>
0

>  <SCORE.SYSTEM.CONST>
0

>  <SCORE.SYSTEM.DIHEDRAL>
0

>  <SCORE.SYSTEM.SOLV>
0

>  <SCORE.SYSTEM.norm>
0

>  <SCORE.heavy>
11

>  <SCORE.norm>
-0.858408

>  <RMSD>
2.848

$$$$
ligand
 OpenBabel11021811503D
libRbt.so/2013.1/901 2013/11/27
 11 12  0  0  0  0  0  0  0  0999 V2000
    3.7861  -20.5421   25.2546 N   0  0  0  0  0  0  0  0  0  0  0  0
    3.2179  -21.0077   24.1148 C   0  0  0  0  0  0  0  0  0  0  0  0
    4.0144  -21.2741   22.9544 N   0  0  0  0  0  0  0  0  0  0  0  0
    1.8924  -21.2244   24.0457 N   0  0  0  0  0  0  0  0  0  0  0  0
    1.0729  -20.9882   25.1265 C   0  0  0  0  0  0  0  0  0  0  0  0
    1.6250  -20.5105   26.3009 C   0  0  0  0  0  0  0  0  0  0  0  0
    3.0330  -20.2836   26.3459 C   0  0  0  0  0  0  0  0  0  0  0  0
    3.6372  -19.7877   27.5447 N   0  0  0  0  0  0  0  0  0  0  0  0
    0.5841  -20.3651   27.1983 N   0  0  0  0  0  0  0  0  0  0  0  0
   -0.5645  -20.7332   26.5959 C   0  0  0  0  0  0  0  0  0  0  0  0
   -0.2939  -21.1156   25.3320 N   0  0  0  0  0  0  0  0  0  0  0  0
  1  7  2  0  0  0  0
  1  2  1  0  0  0  0
  2  3  1  0  0  0  0
  2  4  2  0  0  0  0
  4  5  1  0  0  0  0
  5  6  2  0  0  0  0
  5 11  1  0  0  0  0
  6  7  1  0  0  0  0
  6  9  1  0  0  0  0
  7  8  1  0  0  0  0
  9 10  1  0  0  0  0
 10 11  2  0  0  0  0
M  END
>  <CHROM.1>
2.02283953,-20.71252576,25.51686422,-0.59431341,0.13998370,1.24696325

>  <Name>
ligand

>  <RI>
0

>  <Rbt.Current_Directory>
/home/itssahil/PROJECTS/Mol_Feturizer/New_Systems/rnas/4LVZ

>  <Rbt.Executable>
rbdock ($Id: //depot/dev/client3/rdock/2013.1/src/exe/rbdock.cxx#4 $)

>  <Rbt.Library>
libRbt.so (2013.1, Build901 2013/11/27)

>  <Rbt.Parameter_File>
/export/apps/rDock/src/rDock_2013.1_src/data/scripts/dock_solv.prm

>  <Rbt.Receptor>
prm/pocket_docking_3.prm

>  <SCORE>
-9.41302

>  <SCORE.INTER>
-9.41302

>  <SCORE.INTER.CONST>
1

>  <SCORE.INTER.POLAR>
0

>  <SCORE.INTER.ROT>
0

>  <SCORE.INTER.SOLV>
11.9263

>  <SCORE.INTER.VDW>
-13.8508

>  <SCORE.INTER.norm>
-0.855729

>  <SCORE.INTRA>
0

>  <SCORE.INTRA.DIHEDRAL>
0

>  <SCORE.INTRA.DIHEDRAL.0>
0

>  <SCORE.INTRA.POLAR>
0

>  <SCORE.INTRA.POLAR.0>
0

>  <SCORE.INTRA.REPUL>
0

>  <SCORE.INTRA.REPUL.0>
0

>  <SCORE.INTRA.SOLV>
0

>  <SCORE.INTRA.SOLV.lig_0>
-49.4056

>  <SCORE.INTRA.VDW>
0

>  <SCORE.INTRA.VDW.0>
0

>  <SCORE.INTRA.norm>
0

>  <SCORE.RESTR>
0

>  <SCORE.RESTR.CAVITY>
0

>  <SCORE.RESTR.norm>
0

>  <SCORE.SYSTEM>
0

>  <SCORE.SYSTEM.CONST>
0

>  <SCORE.SYSTEM.DIHEDRAL>
0

>  <SCORE.SYSTEM.SOLV>
0

>  <SCORE.SYSTEM.norm>
0

>  <SCORE.heavy>
11

>  <SCORE.norm>
-0.855729

>  <RMSD>
2.849

$$$$
ligand
 OpenBabel11021811503D
libRbt.so/2013.1/901 2013/11/27
 11 12  0  0  0  0  0  0  0  0999 V2000
    3.7749  -20.5087   25.2245 N   0  0  0  0  0  0  0  0  0  0  0  0
    3.1876  -20.9939   24.1028 C   0  0  0  0  0  0  0  0  0  0  0  0
    3.9612  -21.2616   22.9273 N   0  0  0  0  0  0  0  0  0  0  0  0
    1.8640  -21.2296   24.0662 N   0  0  0  0  0  0  0  0  0  0  0  0
    1.0659  -20.9933   25.1629 C   0  0  0  0  0  0  0  0  0  0  0  0
    1.6379  -20.4958   26.3195 C   0  0  0  0  0  0  0  0  0  0  0  0
    3.0432  -20.2492   26.3301 C   0  0  0  0  0  0  0  0  0  0  0  0
    3.6674  -19.7325   27.5096 N   0  0  0  0  0  0  0  0  0  0  0  0
    0.6157  -20.3553   27.2388 N   0  0  0  0  0  0  0  0  0  0  0  0
   -0.5411  -20.7454   26.6666 C   0  0  0  0  0  0  0  0  0  0  0  0
   -0.2939  -21.1373   25.4008 N   0  0  0  0  0  0  0  0  0  0  0  0
  1  7  2  0  0  0  0
  1  2  1  0  0  0  0
  2  3  1  0  0  0  0
  2  4  2  0  0  0  0
  4  5  1  0  0  0  0
  5  6  2  0  0  0  0
  5 11  1  0  0  0  0
  6  7  1  0  0  0  0
  6  9  1  0  0  0  0
  7  8  1  0  0  0  0
  9 10  1  0  0  0  0
 10 11  2  0  0  0  0
M  END
>  <CHROM.1>
2.02056996,-20.70054807,25.52868362,-0.61158738,0.16040479,1.23923832

>  <Name>
ligand

>  <RI>
0

>  <Rbt.Current_Directory>
/home/itssahil/PROJECTS/Mol_Feturizer/New_Systems/rnas/4LVZ

>  <Rbt.Executable>
rbdock ($Id: //depot/dev/client3/rdock/2013.1/src/exe/rbdock.cxx#4 $)

>  <Rbt.Library>
libRbt.so (2013.1, Build901 2013/11/27)

>  <Rbt.Parameter_File>
/export/apps/rDock/src/rDock_2013.1_src/data/scripts/dock_solv.prm

>  <Rbt.Receptor>
prm/pocket_docking_5.prm

>  <SCORE>
-9.40943

>  <SCORE.INTER>
-9.40943

>  <SCORE.INTER.CONST>
1

>  <SCORE.INTER.POLAR>
0

>  <SCORE.INTER.ROT>
0

>  <SCORE.INTER.SOLV>
12.0743

>  <SCORE.INTER.VDW>
-13.8977

>  <SCORE.INTER.norm>
-0.855403

>  <SCORE.INTRA>
0

>  <SCORE.INTRA.DIHEDRAL>
0

>  <SCORE.INTRA.DIHEDRAL.0>
0

>  <SCORE.INTRA.POLAR>
0

>  <SCORE.INTRA.POLAR.0>
0

>  <SCORE.INTRA.REPUL>
0

>  <SCORE.INTRA.REPUL.0>
0

>  <SCORE.INTRA.SOLV>
0

>  <SCORE.INTRA.SOLV.lig_0>
-49.4056

>  <SCORE.INTRA.VDW>
0

>  <SCORE.INTRA.VDW.0>
0

>  <SCORE.INTRA.norm>
0

>  <SCORE.RESTR>
0

>  <SCORE.RESTR.CAVITY>
0

>  <SCORE.RESTR.norm>
0

>  <SCORE.SYSTEM>
0

>  <SCORE.SYSTEM.CONST>
0

>  <SCORE.SYSTEM.DIHEDRAL>
0

>  <SCORE.SYSTEM.SOLV>
0

>  <SCORE.SYSTEM.norm>
0

>  <SCORE.heavy>
11

>  <SCORE.norm>
-0.855403

>  <RMSD>
2.849

$$$$
ligand
 OpenBabel11021811503D
libRbt.so/2013.1/901 2013/11/27
 11 12  0  0  0  0  0  0  0  0999 V2000
    3.7973  -20.4963   25.2223 N   0  0  0  0  0  0  0  0  0  0  0  0
    3.2218  -20.9702   24.0896 C   0  0  0  0  0  0  0  0  0  0  0  0
    4.0079  -21.2269   22.9199 N   0  0  0  0  0  0  0  0  0  0  0  0
    1.8986  -21.2044   24.0364 N   0  0  0  0  0  0  0  0  0  0  0  0
    1.0889  -20.9783   25.1268 C   0  0  0  0  0  0  0  0  0  0  0  0
    1.6486  -20.4925   26.2943 C   0  0  0  0  0  0  0  0  0  0  0  0
    3.0539  -20.2471   26.3224 C   0  0  0  0  0  0  0  0  0  0  0  0
    3.6658  -19.7423   27.5135 N   0  0  0  0  0  0  0  0  0  0  0  0
    0.6167  -20.3601   27.2038 N   0  0  0  0  0  0  0  0  0  0  0  0
   -0.5341  -20.7438   26.6154 C   0  0  0  0  0  0  0  0  0  0  0  0
   -0.2735  -21.1235   25.3486 N   0  0  0  0  0  0  0  0  0  0  0  0
  1  7  2  0  0  0  0
  1  2  1  0  0  0  0
  2  3  1  0  0  0  0
  2  4  2  0  0  0  0
  4  5  1  0  0  0  0
  5  6  2  0  0  0  0
  5 11  1  0  0  0  0
  6  7  1  0  0  0  0
  6  9  1  0  0  0  0
  7  8  1  0  0  0  0
  9 10  1  0  0  0  0
 10 11  2  0  0  0  0
M  END
>  <CHROM.1>
2.03971002,-20.68980986,25.50561957,-0.60148117,0.15626439,1.24739254

>  <Name>
ligand

>  <RI>
0

>  <Rbt.Current_Directory>
/home/itssahil/PROJECTS/Mol_Feturizer/New_Systems/rnas/4LVZ

>  <Rbt.Executable>
rbdock ($Id: //depot/dev/client3/rdock/2013.1/src/exe/rbdock.cxx#4 $)

>  <Rbt.Library>
libRbt.so (2013.1, Build901 2013/11/27)

>  <Rbt.Parameter_File>
/export/apps/rDock/src/rDock_2013.1_src/data/scripts/dock_solv.prm

>  <Rbt.Receptor>
prm/pocket_docking_7.prm

>  <SCORE>
-9.44486

>  <SCORE.INTER>
-9.44486

>  <SCORE.INTER.CONST>
1

>  <SCORE.INTER.POLAR>
0

>  <SCORE.INTER.ROT>
0

>  <SCORE.INTER.SOLV>
11.827

>  <SCORE.INTER.VDW>
-13.8389

>  <SCORE.INTER.norm>
-0.858624

>  <SCORE.INTRA>
0

>  <SCORE.INTRA.DIHEDRAL>
0

>  <SCORE.INTRA.DIHEDRAL.0>
0

>  <SCORE.INTRA.POLAR>
0

>  <SCORE.INTRA.POLAR.0>
0

>  <SCORE.INTRA.REPUL>
0

>  <SCORE.INTRA.REPUL.0>
0

>  <SCORE.INTRA.SOLV>
0

>  <SCORE.INTRA.SOLV.lig_0>
-49.4056

>  <SCORE.INTRA.VDW>
0

>  <SCORE.INTRA.VDW.0>
0

>  <SCORE.INTRA.norm>
0

>  <SCORE.RESTR>
0

>  <SCORE.RESTR.CAVITY>
0

>  <SCORE.RESTR.norm>
0

>  <SCORE.SYSTEM>
0

>  <SCORE.SYSTEM.CONST>
0

>  <SCORE.SYSTEM.DIHEDRAL>
0

>  <SCORE.SYSTEM.SOLV>
0

>  <SCORE.SYSTEM.norm>
0

>  <SCORE.heavy>
11

>  <SCORE.norm>
-0.858624

>  <RMSD>
2.849

$$$$
ligand
 OpenBabel11021811503D
libRbt.so/2013.1/901 2013/11/27
 11 12  0  0  0  0  0  0  0  0999 V2000
    3.7993  -20.5326   25.2388 N   0  0  0  0  0  0  0  0  0  0  0  0
    3.2286  -21.0057   24.1034 C   0  0  0  0  0  0  0  0  0  0  0  0
    4.0227  -21.2817   22.9436 N   0  0  0  0  0  0  0  0  0  0  0  0
    1.9027  -21.2213   24.0381 N   0  0  0  0  0  0  0  0  0  0  0  0
    1.0853  -20.9761   25.1186 C   0  0  0  0  0  0  0  0  0  0  0  0
    1.6401  -20.4905   26.2885 C   0  0  0  0  0  0  0  0  0  0  0  0
    3.0484  -20.2652   26.3295 C   0  0  0  0  0  0  0  0  0  0  0  0
    3.6553  -19.7613   27.5235 N   0  0  0  0  0  0  0  0  0  0  0  0
    0.6009  -20.3372   27.1865 N   0  0  0  0  0  0  0  0  0  0  0  0
   -0.5493  -20.7082   26.5888 C   0  0  0  0  0  0  0  0  0  0  0  0
   -0.2813  -21.1002   25.3273 N   0  0  0  0  0  0  0  0  0  0  0  0
  1  7  2  0  0  0  0
  1  2  1  0  0  0  0
  2  3  1  0  0  0  0
  2  4  2  0  0  0  0
  4  5  1  0  0  0  0
  5  6  2  0  0  0  0
  5 11  1  0  0  0  0
  6  7  1  0  0  0  0
  6  9  1  0  0  0  0
  7  8  1  0  0  0  0
  9 10  1  0  0  0  0
 10 11  2  0  0  0  0
M  END
>  <CHROM.1>
2.03626333,-20.69881107,25.50527038,-0.59635362,0.13927930,1.23995555

>  <Name>
ligand

>  <RI>
0

>  <Rbt.Current_Directory>
/home/itssahil/PROJECTS/Mol_Feturizer/New_Systems/rnas/4LVZ

>  <Rbt.Executable>
rbdock ($Id: //depot/dev/client3/rdock/2013.1/src/exe/rbdock.cxx#4 $)

>  <Rbt.Library>
libRbt.so (2013.1, Build901 2013/11/27)

>  <Rbt.Parameter_File>
/export/apps/rDock/src/rDock_2013.1_src/data/scripts/dock_solv.prm

>  <Rbt.Receptor>
prm/pocket_docking_6.prm

>  <SCORE>
-9.45872

>  <SCORE.INTER>
-9.45872

>  <SCORE.INTER.CONST>
1

>  <SCORE.INTER.POLAR>
0

>  <SCORE.INTER.ROT>
0

>  <SCORE.INTER.SOLV>
11.8398

>  <SCORE.INTER.VDW>
-13.8524

>  <SCORE.INTER.norm>
-0.859883

>  <SCORE.INTRA>
0

>  <SCORE.INTRA.DIHEDRAL>
0

>  <SCORE.INTRA.DIHEDRAL.0>
0

>  <SCORE.INTRA.POLAR>
0

>  <SCORE.INTRA.POLAR.0>
0

>  <SCORE.INTRA.REPUL>
0

>  <SCORE.INTRA.REPUL.0>
0

>  <SCORE.INTRA.SOLV>
0

>  <SCORE.INTRA.SOLV.lig_0>
-49.4056

>  <SCORE.INTRA.VDW>
0

>  <SCORE.INTRA.VDW.0>
0

>  <SCORE.INTRA.norm>
0

>  <SCORE.RESTR>
0

>  <SCORE.RESTR.CAVITY>
0

>  <SCORE.RESTR.norm>
0

>  <SCORE.SYSTEM>
0

>  <SCORE.SYSTEM.CONST>
0

>  <SCORE.SYSTEM.DIHEDRAL>
0

>  <SCORE.SYSTEM.SOLV>
0

>  <SCORE.SYSTEM.norm>
0

>  <SCORE.heavy>
11

>  <SCORE.norm>
-0.859883

>  <RMSD>
2.851

$$$$
ligand
 OpenBabel11021811503D
libRbt.so/2013.1/901 2013/11/27
 11 12  0  0  0  0  0  0  0  0999 V2000
    3.8034  -20.5105   25.2333 N   0  0  0  0  0  0  0  0  0  0  0  0
    3.2377  -20.9885   24.0975 C   0  0  0  0  0  0  0  0  0  0  0  0
    4.0363  -21.2648   22.9408 N   0  0  0  0  0  0  0  0  0  0  0  0
    1.9127  -21.2085   24.0287 N   0  0  0  0  0  0  0  0  0  0  0  0
    1.0912  -20.9633   25.1060 C   0  0  0  0  0  0  0  0  0  0  0  0
    1.6408  -20.4729   26.2764 C   0  0  0  0  0  0  0  0  0  0  0  0
    3.0483  -20.2428   26.3211 C   0  0  0  0  0  0  0  0  0  0  0  0
    3.6499  -19.7338   27.5156 N   0  0  0  0  0  0  0  0  0  0  0  0
    0.5984  -20.3206   27.1708 N   0  0  0  0  0  0  0  0  0  0  0  0
   -0.5487  -20.6969   26.5705 C   0  0  0  0  0  0  0  0  0  0  0  0
   -0.2756  -21.0913   25.3108 N   0  0  0  0  0  0  0  0  0  0  0  0
  1  7  2  0  0  0  0
  1  2  1  0  0  0  0
  2  3  1  0  0  0  0
  2  4  2  0  0  0  0
  4  5  1  0  0  0  0
  5  6  2  0  0  0  0
  5 11  1  0  0  0  0
  6  7  1  0  0  0  0
  6  9  1  0  0  0  0
  7  8  1  0  0  0  0
  9 10  1  0  0  0  0
 10 11  2  0  0  0  0
M  END
>  <CHROM.1>
2.04011465,-20.68184592,25.49487660,-0.59235750,0.14139411,1.23681550

>  <Name>
ligand

>  <RI>
0

>  <Rbt.Current_Directory>
/home/itssahil/PROJECTS/Mol_Feturizer/New_Systems/rnas/4LVZ

>  <Rbt.Executable>
rbdock ($Id: //depot/dev/client3/rdock/2013.1/src/exe/rbdock.cxx#4 $)

>  <Rbt.Library>
libRbt.so (2013.1, Build901 2013/11/27)

>  <Rbt.Parameter_File>
/export/apps/rDock/src/rDock_2013.1_src/data/scripts/dock_solv.prm

>  <Rbt.Receptor>
prm/pocket_docking_7.prm

>  <SCORE>
-9.43779

>  <SCORE.INTER>
-9.43779

>  <SCORE.INTER.CONST>
1

>  <SCORE.INTER.POLAR>
0

>  <SCORE.INTER.ROT>
0

>  <SCORE.INTER.SOLV>
11.8143

>  <SCORE.INTER.VDW>
-13.83

>  <SCORE.INTER.norm>
-0.857981

>  <SCORE.INTRA>
0

>  <SCORE.INTRA.DIHEDRAL>
0

>  <SCORE.INTRA.DIHEDRAL.0>
0

>  <SCORE.INTRA.POLAR>
0

>  <SCORE.INTRA.POLAR.0>
0

>  <SCORE.INTRA.REPUL>
0

>  <SCORE.INTRA.REPUL.0>
0

>  <SCORE.INTRA.SOLV>
0

>  <SCORE.INTRA.SOLV.lig_0>
-49.4056

>  <SCORE.INTRA.VDW>
0

>  <SCORE.INTRA.VDW.0>
0

>  <SCORE.INTRA.norm>
0

>  <SCORE.RESTR>
0

>  <SCORE.RESTR.CAVITY>
0

>  <SCORE.RESTR.norm>
0

>  <SCORE.SYSTEM>
0

>  <SCORE.SYSTEM.CONST>
0

>  <SCORE.SYSTEM.DIHEDRAL>
0

>  <SCORE.SYSTEM.SOLV>
0

>  <SCORE.SYSTEM.norm>
0

>  <SCORE.heavy>
11

>  <SCORE.norm>
-0.857981

>  <RMSD>
2.851

$$$$
ligand
 OpenBabel11021811503D
libRbt.so/2013.1/901 2013/11/27
 11 12  0  0  0  0  0  0  0  0999 V2000
    3.8549  -20.5497   25.2620 N   0  0  0  0  0  0  0  0  0  0  0  0
    3.3145  -21.0573   24.1267 C   0  0  0  0  0  0  0  0  0  0  0  0
    4.1382  -21.3613   22.9948 N   0  0  0  0  0  0  0  0  0  0  0  0
    1.9916  -21.2816   24.0350 N   0  0  0  0  0  0  0  0  0  0  0  0
    1.1467  -21.0108   25.0879 C   0  0  0  0  0  0  0  0  0  0  0  0
    1.6703  -20.4899   26.2570 C   0  0  0  0  0  0  0  0  0  0  0  0
    3.0761  -20.2560   26.3261 C   0  0  0  0  0  0  0  0  0  0  0  0
    3.6511  -19.7158   27.5201 N   0  0  0  0  0  0  0  0  0  0  0  0
    0.6086  -20.3171   27.1247 N   0  0  0  0  0  0  0  0  0  0  0  0
   -0.5247  -20.7107   26.5096 C   0  0  0  0  0  0  0  0  0  0  0  0
   -0.2240  -21.1362   25.2665 N   0  0  0  0  0  0  0  0  0  0  0  0
  1  7  2  0  0  0  0
  1  2  1  0  0  0  0
  2  3  1  0  0  0  0
  2  4  2  0  0  0  0
  4  5  1  0  0  0  0
  5  6  2  0  0  0  0
  5 11  1  0  0  0  0
  6  7  1  0  0  0  0
  6  9  1  0  0  0  0
  7  8  1  0  0  0  0
  9 10  1  0  0  0  0
 10 11  2  0  0  0  0
M  END
>  <CHROM.1>
2.08661271,-20.71777579,25.48982128,-0.57134832,0.13562502,1.20858750

>  <Name>
ligand

>  <RI>
0

>  <Rbt.Current_Directory>
/home/itssahil/PROJECTS/Mol_Feturizer/New_Systems/rnas/4LVZ

>  <Rbt.Executable>
rbdock ($Id: //depot/dev/client3/rdock/2013.1/src/exe/rbdock.cxx#4 $)

>  <Rbt.Library>
libRbt.so (2013.1, Build901 2013/11/27)

>  <Rbt.Parameter_File>
/export/apps/rDock/src/rDock_2013.1_src/data/scripts/dock_solv.prm

>  <Rbt.Receptor>
prm/pocket_docking_4.prm

>  <SCORE>
-9.39619

>  <SCORE.INTER>
-9.39619

>  <SCORE.INTER.CONST>
1

>  <SCORE.INTER.POLAR>
0

>  <SCORE.INTER.ROT>
0

>  <SCORE.INTER.SOLV>
11.4537

>  <SCORE.INTER.VDW>
-13.682

>  <SCORE.INTER.norm>
-0.854199

>  <SCORE.INTRA>
0

>  <SCORE.INTRA.DIHEDRAL>
0

>  <SCORE.INTRA.DIHEDRAL.0>
0

>  <SCORE.INTRA.POLAR>
0

>  <SCORE.INTRA.POLAR.0>
0

>  <SCORE.INTRA.REPUL>
0

>  <SCORE.INTRA.REPUL.0>
0

>  <SCORE.INTRA.SOLV>
0

>  <SCORE.INTRA.SOLV.lig_0>
-49.4056

>  <SCORE.INTRA.VDW>
0

>  <SCORE.INTRA.VDW.0>
0

>  <SCORE.INTRA.norm>
0

>  <SCORE.RESTR>
0

>  <SCORE.RESTR.CAVITY>
0

>  <SCORE.RESTR.norm>
0

>  <SCORE.SYSTEM>
0

>  <SCORE.SYSTEM.CONST>
0

>  <SCORE.SYSTEM.DIHEDRAL>
0

>  <SCORE.SYSTEM.SOLV>
0

>  <SCORE.SYSTEM.norm>
0

>  <SCORE.heavy>
11

>  <SCORE.norm>
-0.854199

>  <RMSD>
2.852

$$$$
ligand
 OpenBabel11021811503D
libRbt.so/2013.1/901 2013/11/27
 11 12  0  0  0  0  0  0  0  0999 V2000
    3.7246  -20.3666   25.1408 N   0  0  0  0  0  0  0  0  0  0  0  0
    3.1415  -20.7936   23.9935 C   0  0  0  0  0  0  0  0  0  0  0  0
    3.9095  -20.9477   22.7941 N   0  0  0  0  0  0  0  0  0  0  0  0
    1.8273  -21.0766   23.9536 N   0  0  0  0  0  0  0  0  0  0  0  0
    1.0351  -20.9492   25.0724 C   0  0  0  0  0  0  0  0  0  0  0  0
    1.6028  -20.5129   26.2556 C   0  0  0  0  0  0  0  0  0  0  0  0
    2.9979  -20.2140   26.2694 C   0  0  0  0  0  0  0  0  0  0  0  0
    3.6174  -19.7583   27.4762 N   0  0  0  0  0  0  0  0  0  0  0  0
    0.5879  -20.4770   27.1928 N   0  0  0  0  0  0  0  0  0  0  0  0
   -0.5607  -20.8698   26.6061 C   0  0  0  0  0  0  0  0  0  0  0  0
   -0.3152  -21.1616   25.3132 N   0  0  0  0  0  0  0  0  0  0  0  0
  1  7  2  0  0  0  0
  1  2  1  0  0  0  0
  2  3  1  0  0  0  0
  2  4  2  0  0  0  0
  4  5  1  0  0  0  0
  5  6  2  0  0  0  0
  5 11  1  0  0  0  0
  6  7  1  0  0  0  0
  6  9  1  0  0  0  0
  7  8  1  0  0  0  0
  9 10  1  0  0  0  0
 10 11  2  0  0  0  0
M  END
>  <CHROM.1>
1.98271194,-20.64654255,25.44832275,-0.61149635,0.20006173,1.31011561

>  <Name>
ligand

>  <RI>
0

>  <Rbt.Current_Directory>
/home/itssahil/PROJECTS/Mol_Feturizer/New_Systems/rnas/4LVZ

>  <Rbt.Executable>
rbdock ($Id: //depot/dev/client3/rdock/2013.1/src/exe/rbdock.cxx#4 $)

>  <Rbt.Library>
libRbt.so (2013.1, Build901 2013/11/27)

>  <Rbt.Parameter_File>
/export/apps/rDock/src/rDock_2013.1_src/data/scripts/dock_solv.prm

>  <Rbt.Receptor>
prm/pocket_docking_6.prm

>  <SCORE>
-9.38032

>  <SCORE.INTER>
-9.38032

>  <SCORE.INTER.CONST>
1

>  <SCORE.INTER.POLAR>
0

>  <SCORE.INTER.ROT>
0

>  <SCORE.INTER.SOLV>
12.0095

>  <SCORE.INTER.VDW>
-13.8567

>  <SCORE.INTER.norm>
-0.852756

>  <SCORE.INTRA>
0

>  <SCORE.INTRA.DIHEDRAL>
0

>  <SCORE.INTRA.DIHEDRAL.0>
0

>  <SCORE.INTRA.POLAR>
0

>  <SCORE.INTRA.POLAR.0>
0

>  <SCORE.INTRA.REPUL>
0

>  <SCORE.INTRA.REPUL.0>
0

>  <SCORE.INTRA.SOLV>
0

>  <SCORE.INTRA.SOLV.lig_0>
-49.4056

>  <SCORE.INTRA.VDW>
0

>  <SCORE.INTRA.VDW.0>
0

>  <SCORE.INTRA.norm>
0

>  <SCORE.RESTR>
0

>  <SCORE.RESTR.CAVITY>
0

>  <SCORE.RESTR.norm>
0

>  <SCORE.SYSTEM>
0

>  <SCORE.SYSTEM.CONST>
0

>  <SCORE.SYSTEM.DIHEDRAL>
0

>  <SCORE.SYSTEM.SOLV>
0

>  <SCORE.SYSTEM.norm>
0

>  <SCORE.heavy>
11

>  <SCORE.norm>
-0.852756

>  <RMSD>
2.852

$$$$
ligand
 OpenBabel11021811503D
libRbt.so/2013.1/901 2013/11/27
 11 12  0  0  0  0  0  0  0  0999 V2000
    3.7621  -20.5213   25.2352 N   0  0  0  0  0  0  0  0  0  0  0  0
    3.2005  -21.0257   24.1088 C   0  0  0  0  0  0  0  0  0  0  0  0
    3.9988  -21.3018   22.9518 N   0  0  0  0  0  0  0  0  0  0  0  0
    1.8798  -21.2727   24.0497 N   0  0  0  0  0  0  0  0  0  0  0  0
    1.0588  -21.0292   25.1278 C   0  0  0  0  0  0  0  0  0  0  0  0
    1.6043  -20.5122   26.2887 C   0  0  0  0  0  0  0  0  0  0  0  0
    3.0071  -20.2538   26.3231 C   0  0  0  0  0  0  0  0  0  0  0  0
    3.6043  -19.7169   27.5076 N   0  0  0  0  0  0  0  0  0  0  0  0
    0.5634  -20.3685   27.1863 N   0  0  0  0  0  0  0  0  0  0  0  0
   -0.5789  -20.7755   26.5971 C   0  0  0  0  0  0  0  0  0  0  0  0
   -0.3041  -21.1814   25.3414 N   0  0  0  0  0  0  0  0  0  0  0  0
  1  7  2  0  0  0  0
  1  2  1  0  0  0  0
  2  3  1  0  0  0  0
  2  4  2  0  0  0  0
  4  5  1  0  0  0  0
  5  6  2  0  0  0  0
  5 11  1  0  0  0  0
  6  7  1  0  0  0  0
  6  9  1  0  0  0  0
  7  8  1  0  0  0  0
  9 10  1  0  0  0  0
 10 11  2  0  0  0  0
M  END
>  <CHROM.1>
2.00382877,-20.72383758,25.50804070,-0.59042220,0.16171142,1.22300734

>  <Name>
ligand

>  <RI>
0

>  <Rbt.Current_Directory>
/home/itssahil/PROJECTS/Mol_Feturizer/New_Systems/rnas/4LVZ

>  <Rbt.Executable>
rbdock ($Id: //depot/dev/client3/rdock/2013.1/src/exe/rbdock.cxx#4 $)

>  <Rbt.Library>
libRbt.so (2013.1, Build901 2013/11/27)

>  <Rbt.Parameter_File>
/export/apps/rDock/src/rDock_2013.1_src/data/scripts/dock_solv.prm

>  <Rbt.Receptor>
prm/pocket_docking_6.prm

>  <SCORE>
-9.40982

>  <SCORE.INTER>
-9.40982

>  <SCORE.INTER.CONST>
1

>  <SCORE.INTER.POLAR>
0

>  <SCORE.INTER.ROT>
0

>  <SCORE.INTER.SOLV>
12.1744

>  <SCORE.INTER.VDW>
-13.9314

>  <SCORE.INTER.norm>
-0.855438

>  <SCORE.INTRA>
0

>  <SCORE.INTRA.DIHEDRAL>
0

>  <SCORE.INTRA.DIHEDRAL.0>
0

>  <SCORE.INTRA.POLAR>
0

>  <SCORE.INTRA.POLAR.0>
0

>  <SCORE.INTRA.REPUL>
0

>  <SCORE.INTRA.REPUL.0>
0

>  <SCORE.INTRA.SOLV>
0

>  <SCORE.INTRA.SOLV.lig_0>
-49.4056

>  <SCORE.INTRA.VDW>
0

>  <SCORE.INTRA.VDW.0>
0

>  <SCORE.INTRA.norm>
0

>  <SCORE.RESTR>
0

>  <SCORE.RESTR.CAVITY>
0

>  <SCORE.RESTR.norm>
0

>  <SCORE.SYSTEM>
0

>  <SCORE.SYSTEM.CONST>
0

>  <SCORE.SYSTEM.DIHEDRAL>
0

>  <SCORE.SYSTEM.SOLV>
0

>  <SCORE.SYSTEM.norm>
0

>  <SCORE.heavy>
11

>  <SCORE.norm>
-0.855438

>  <RMSD>
2.852

$$$$
ligand
 OpenBabel11021811503D
libRbt.so/2013.1/901 2013/11/27
 11 12  0  0  0  0  0  0  0  0999 V2000
    3.7202  -20.4514   25.1974 N   0  0  0  0  0  0  0  0  0  0  0  0
    3.1737  -20.9859   24.0775 C   0  0  0  0  0  0  0  0  0  0  0  0
    3.9845  -21.2767   22.9329 N   0  0  0  0  0  0  0  0  0  0  0  0
    1.8565  -21.2498   24.0133 N   0  0  0  0  0  0  0  0  0  0  0  0
    1.0240  -20.9935   25.0796 C   0  0  0  0  0  0  0  0  0  0  0  0
    1.5540  -20.4459   26.2335 C   0  0  0  0  0  0  0  0  0  0  0  0
    2.9534  -20.1702   26.2735 C   0  0  0  0  0  0  0  0  0  0  0  0
    3.5346  -19.6016   27.4511 N   0  0  0  0  0  0  0  0  0  0  0  0
    0.5043  -20.2958   27.1198 N   0  0  0  0  0  0  0  0  0  0  0  0
   -0.6284  -20.7286   26.5302 C   0  0  0  0  0  0  0  0  0  0  0  0
   -0.3387  -21.1574   25.2856 N   0  0  0  0  0  0  0  0  0  0  0  0
  1  7  2  0  0  0  0
  1  2  1  0  0  0  0
  2  3  1  0  0  0  0
  2  4  2  0  0  0  0
  4  5  1  0  0  0  0
  5  6  2  0  0  0  0
  5 11  1  0  0  0  0
  6  7  1  0  0  0  0
  6  9  1  0  0  0  0
  7  8  1  0  0  0  0
  9 10  1  0  0  0  0
 10 11  2  0  0  0  0
M  END
>  <CHROM.1>
1.96230015,-20.66906749,25.46068790,-0.57864777,0.16995639,1.20008907

>  <Name>
ligand

>  <RI>
0

>  <Rbt.Current_Directory>
/home/itssahil/PROJECTS/Mol_Feturizer/New_Systems/rnas/4LVZ

>  <Rbt.Executable>
rbdock ($Id: //depot/dev/client3/rdock/2013.1/src/exe/rbdock.cxx#4 $)

>  <Rbt.Library>
libRbt.so (2013.1, Build901 2013/11/27)

>  <Rbt.Parameter_File>
/export/apps/rDock/src/rDock_2013.1_src/data/scripts/dock_solv.prm

>  <Rbt.Receptor>
prm/pocket_docking_8.prm

>  <SCORE>
-9.44534

>  <SCORE.INTER>
-9.44534

>  <SCORE.INTER.CONST>
1

>  <SCORE.INTER.POLAR>
0

>  <SCORE.INTER.ROT>
0

>  <SCORE.INTER.SOLV>
12.6659

>  <SCORE.INTER.VDW>
-14.1188

>  <SCORE.INTER.norm>
-0.858668

>  <SCORE.INTRA>
0

>  <SCORE.INTRA.DIHEDRAL>
0

>  <SCORE.INTRA.DIHEDRAL.0>
0

>  <SCORE.INTRA.POLAR>
0

>  <SCORE.INTRA.POLAR.0>
0

>  <SCORE.INTRA.REPUL>
0

>  <SCORE.INTRA.REPUL.0>
0

>  <SCORE.INTRA.SOLV>
0

>  <SCORE.INTRA.SOLV.lig_0>
-49.4056

>  <SCORE.INTRA.VDW>
0

>  <SCORE.INTRA.VDW.0>
0

>  <SCORE.INTRA.norm>
0

>  <SCORE.RESTR>
0

>  <SCORE.RESTR.CAVITY>
0

>  <SCORE.RESTR.norm>
0

>  <SCORE.SYSTEM>
0

>  <SCORE.SYSTEM.CONST>
0

>  <SCORE.SYSTEM.DIHEDRAL>
0

>  <SCORE.SYSTEM.SOLV>
0

>  <SCORE.SYSTEM.norm>
0

>  <SCORE.heavy>
11

>  <SCORE.norm>
-0.858668

>  <RMSD>
2.857

$$$$
ligand
 OpenBabel11021811503D
libRbt.so/2013.1/901 2013/11/27
 11 12  0  0  0  0  0  0  0  0999 V2000
    3.7850  -20.5294   25.2092 N   0  0  0  0  0  0  0  0  0  0  0  0
    3.2225  -21.0044   24.0705 C   0  0  0  0  0  0  0  0  0  0  0  0
    4.0229  -21.2691   22.9124 N   0  0  0  0  0  0  0  0  0  0  0  0
    1.8989  -21.2324   24.0003 N   0  0  0  0  0  0  0  0  0  0  0  0
    1.0757  -20.9985   25.0789 C   0  0  0  0  0  0  0  0  0  0  0  0
    1.6221  -20.5114   26.2521 C   0  0  0  0  0  0  0  0  0  0  0  0
    3.0281  -20.2727   26.2984 C   0  0  0  0  0  0  0  0  0  0  0  0
    3.6263  -19.7669   27.4959 N   0  0  0  0  0  0  0  0  0  0  0  0
    0.5787  -20.3709   27.1473 N   0  0  0  0  0  0  0  0  0  0  0  0
   -0.5660  -20.7509   26.5447 C   0  0  0  0  0  0  0  0  0  0  0  0
   -0.2902  -21.1363   25.2828 N   0  0  0  0  0  0  0  0  0  0  0  0
  1  7  2  0  0  0  0
  1  2  1  0  0  0  0
  2  3  1  0  0  0  0
  2  4  2  0  0  0  0
  4  5  1  0  0  0  0
  5  6  2  0  0  0  0
  5 11  1  0  0  0  0
  6  7  1  0  0  0  0
  6  9  1  0  0  0  0
  7  8  1  0  0  0  0
  9 10  1  0  0  0  0
 10 11  2  0  0  0  0
M  END
>  <CHROM.1>
2.02280940,-20.71335894,25.46951065,-0.59016776,0.14730057,1.24224437

>  <Name>
ligand

>  <RI>
0

>  <Rbt.Current_Directory>
/home/itssahil/PROJECTS/Mol_Feturizer/New_Systems/rnas/4LVZ

>  <Rbt.Executable>
rbdock ($Id: //depot/dev/client3/rdock/2013.1/src/exe/rbdock.cxx#4 $)

>  <Rbt.Library>
libRbt.so (2013.1, Build901 2013/11/27)

>  <Rbt.Parameter_File>
/export/apps/rDock/src/rDock_2013.1_src/data/scripts/dock_solv.prm

>  <Rbt.Receptor>
prm/pocket_docking_4.prm

>  <SCORE>
-9.46137

>  <SCORE.INTER>
-9.46137

>  <SCORE.INTER.CONST>
1

>  <SCORE.INTER.POLAR>
0

>  <SCORE.INTER.ROT>
0

>  <SCORE.INTER.SOLV>
11.8542

>  <SCORE.INTER.VDW>
-13.859

>  <SCORE.INTER.norm>
-0.860124

>  <SCORE.INTRA>
0

>  <SCORE.INTRA.DIHEDRAL>
0

>  <SCORE.INTRA.DIHEDRAL.0>
0

>  <SCORE.INTRA.POLAR>
0

>  <SCORE.INTRA.POLAR.0>
0

>  <SCORE.INTRA.REPUL>
0

>  <SCORE.INTRA.REPUL.0>
0

>  <SCORE.INTRA.SOLV>
0

>  <SCORE.INTRA.SOLV.lig_0>
-49.4056

>  <SCORE.INTRA.VDW>
0

>  <SCORE.INTRA.VDW.0>
0

>  <SCORE.INTRA.norm>
0

>  <SCORE.RESTR>
0

>  <SCORE.RESTR.CAVITY>
0

>  <SCORE.RESTR.norm>
0

>  <SCORE.SYSTEM>
0

>  <SCORE.SYSTEM.CONST>
0

>  <SCORE.SYSTEM.DIHEDRAL>
0

>  <SCORE.SYSTEM.SOLV>
0

>  <SCORE.SYSTEM.norm>
0

>  <SCORE.heavy>
11

>  <SCORE.norm>
-0.860124

>  <RMSD>
2.860

$$$$
ligand
 OpenBabel11021811503D
libRbt.so/2013.1/901 2013/11/27
 11 12  0  0  0  0  0  0  0  0999 V2000
    3.8018  -20.5141   25.1848 N   0  0  0  0  0  0  0  0  0  0  0  0
    3.2429  -21.0205   24.0579 C   0  0  0  0  0  0  0  0  0  0  0  0
    4.0446  -21.3024   22.9048 N   0  0  0  0  0  0  0  0  0  0  0  0
    1.9217  -21.2644   23.9949 N   0  0  0  0  0  0  0  0  0  0  0  0
    1.0976  -21.0153   25.0693 C   0  0  0  0  0  0  0  0  0  0  0  0
    1.6402  -20.4961   26.2305 C   0  0  0  0  0  0  0  0  0  0  0  0
    3.0436  -20.2412   26.2691 C   0  0  0  0  0  0  0  0  0  0  0  0
    3.6379  -19.7022   27.4541 N   0  0  0  0  0  0  0  0  0  0  0  0
    0.5965  -20.3469   27.1239 N   0  0  0  0  0  0  0  0  0  0  0  0
   -0.5447  -20.7527   26.5318 C   0  0  0  0  0  0  0  0  0  0  0  0
   -0.2666  -21.1633   25.2785 N   0  0  0  0  0  0  0  0  0  0  0  0
  1  7  2  0  0  0  0
  1  2  1  0  0  0  0
  2  3  1  0  0  0  0
  2  4  2  0  0  0  0
  4  5  1  0  0  0  0
  5  6  2  0  0  0  0
  5 11  1  0  0  0  0
  6  7  1  0  0  0  0
  6  9  1  0  0  0  0
  7  8  1  0  0  0  0
  9 10  1  0  0  0  0
 10 11  2  0  0  0  0
M  END
>  <CHROM.1>
2.04199170,-20.71123164,25.45195575,-0.58791163,0.15803850,1.21947811

>  <Name>
ligand

>  <RI>
0

>  <Rbt.Current_Directory>
/home/itssahil/PROJECTS/Mol_Feturizer/New_Systems/rnas/4LVZ

>  <Rbt.Executable>
rbdock ($Id: //depot/dev/client3/rdock/2013.1/src/exe/rbdock.cxx#4 $)

>  <Rbt.Library>
libRbt.so (2013.1, Build901 2013/11/27)

>  <Rbt.Parameter_File>
/export/apps/rDock/src/rDock_2013.1_src/data/scripts/dock_solv.prm

>  <Rbt.Receptor>
prm/pocket_docking_6.prm

>  <SCORE>
-9.38808

>  <SCORE.INTER>
-9.38808

>  <SCORE.INTER.CONST>
1

>  <SCORE.INTER.POLAR>
0

>  <SCORE.INTER.ROT>
0

>  <SCORE.INTER.SOLV>
11.8156

>  <SCORE.INTER.VDW>
-13.7973

>  <SCORE.INTER.norm>
-0.853462

>  <SCORE.INTRA>
0

>  <SCORE.INTRA.DIHEDRAL>
0

>  <SCORE.INTRA.DIHEDRAL.0>
0

>  <SCORE.INTRA.POLAR>
0

>  <SCORE.INTRA.POLAR.0>
0

>  <SCORE.INTRA.REPUL>
0

>  <SCORE.INTRA.REPUL.0>
0

>  <SCORE.INTRA.SOLV>
0

>  <SCORE.INTRA.SOLV.lig_0>
-49.4056

>  <SCORE.INTRA.VDW>
0

>  <SCORE.INTRA.VDW.0>
0

>  <SCORE.INTRA.norm>
0

>  <SCORE.RESTR>
0

>  <SCORE.RESTR.CAVITY>
0

>  <SCORE.RESTR.norm>
0

>  <SCORE.SYSTEM>
0

>  <SCORE.SYSTEM.CONST>
0

>  <SCORE.SYSTEM.DIHEDRAL>
0

>  <SCORE.SYSTEM.SOLV>
0

>  <SCORE.SYSTEM.norm>
0

>  <SCORE.heavy>
11

>  <SCORE.norm>
-0.853462

>  <RMSD>
2.864

$$$$
ligand
 OpenBabel11021811503D
libRbt.so/2013.1/901 2013/11/27
 11 12  0  0  0  0  0  0  0  0999 V2000
    3.8114  -20.5519   25.2132 N   0  0  0  0  0  0  0  0  0  0  0  0
    3.2608  -21.0460   24.0769 C   0  0  0  0  0  0  0  0  0  0  0  0
    4.0749  -21.3409   22.9357 N   0  0  0  0  0  0  0  0  0  0  0  0
    1.9365  -21.2652   23.9930 N   0  0  0  0  0  0  0  0  0  0  0  0
    1.1005  -21.0026   25.0550 C   0  0  0  0  0  0  0  0  0  0  0  0
    1.6346  -20.4955   26.2254 C   0  0  0  0  0  0  0  0  0  0  0  0
    3.0417  -20.2668   26.2862 C   0  0  0  0  0  0  0  0  0  0  0  0
    3.6275  -19.7409   27.4813 N   0  0  0  0  0  0  0  0  0  0  0  0
    0.5801  -20.3283   27.1028 N   0  0  0  0  0  0  0  0  0  0  0  0
   -0.5591  -20.7119   26.4924 C   0  0  0  0  0  0  0  0  0  0  0  0
   -0.2692  -21.1255   25.2427 N   0  0  0  0  0  0  0  0  0  0  0  0
  1  7  2  0  0  0  0
  1  2  1  0  0  0  0
  2  3  1  0  0  0  0
  2  4  2  0  0  0  0
  4  5  1  0  0  0  0
  5  6  2  0  0  0  0
  5 11  1  0  0  0  0
  6  7  1  0  0  0  0
  6  9  1  0  0  0  0
  7  8  1  0  0  0  0
  9 10  1  0  0  0  0
 10 11  2  0  0  0  0
M  END
>  <CHROM.1>
2.04439089,-20.71674507,25.45275669,-0.57965417,0.13525569,1.22006268

>  <Name>
ligand

>  <RI>
0

>  <Rbt.Current_Directory>
/home/itssahil/PROJECTS/Mol_Feturizer/New_Systems/rnas/4LVZ

>  <Rbt.Executable>
rbdock ($Id: //depot/dev/client3/rdock/2013.1/src/exe/rbdock.cxx#4 $)

>  <Rbt.Library>
libRbt.so (2013.1, Build901 2013/11/27)

>  <Rbt.Parameter_File>
/export/apps/rDock/src/rDock_2013.1_src/data/scripts/dock_solv.prm

>  <Rbt.Receptor>
prm/pocket_docking_7.prm

>  <SCORE>
-9.43052

>  <SCORE.INTER>
-9.43052

>  <SCORE.INTER.CONST>
1

>  <SCORE.INTER.POLAR>
0

>  <SCORE.INTER.ROT>
0

>  <SCORE.INTER.SOLV>
11.6985

>  <SCORE.INTER.VDW>
-13.7865

>  <SCORE.INTER.norm>
-0.85732

>  <SCORE.INTRA>
0

>  <SCORE.INTRA.DIHEDRAL>
0

>  <SCORE.INTRA.DIHEDRAL.0>
0

>  <SCORE.INTRA.POLAR>
0

>  <SCORE.INTRA.POLAR.0>
0

>  <SCORE.INTRA.REPUL>
0

>  <SCORE.INTRA.REPUL.0>
0

>  <SCORE.INTRA.SOLV>
0

>  <SCORE.INTRA.SOLV.lig_0>
-49.4056

>  <SCORE.INTRA.VDW>
0

>  <SCORE.INTRA.VDW.0>
0

>  <SCORE.INTRA.norm>
0

>  <SCORE.RESTR>
0

>  <SCORE.RESTR.CAVITY>
0

>  <SCORE.RESTR.norm>
0

>  <SCORE.SYSTEM>
0

>  <SCORE.SYSTEM.CONST>
0

>  <SCORE.SYSTEM.DIHEDRAL>
0

>  <SCORE.SYSTEM.SOLV>
0

>  <SCORE.SYSTEM.norm>
0

>  <SCORE.heavy>
11

>  <SCORE.norm>
-0.85732

>  <RMSD>
2.865

$$$$
ligand
 OpenBabel11021811503D
libRbt.so/2013.1/901 2013/11/27
 11 12  0  0  0  0  0  0  0  0999 V2000
    3.8749  -20.5458   25.2064 N   0  0  0  0  0  0  0  0  0  0  0  0
    3.3271  -21.0669   24.0808 C   0  0  0  0  0  0  0  0  0  0  0  0
    4.1429  -21.3817   22.9463 N   0  0  0  0  0  0  0  0  0  0  0  0
    2.0040  -21.2946   24.0015 N   0  0  0  0  0  0  0  0  0  0  0  0
    1.1664  -21.0138   25.0575 C   0  0  0  0  0  0  0  0  0  0  0  0
    1.6976  -20.4791   26.2169 C   0  0  0  0  0  0  0  0  0  0  0  0
    3.1035  -20.2419   26.2730 C   0  0  0  0  0  0  0  0  0  0  0  0
    3.6863  -19.6876   27.4567 N   0  0  0  0  0  0  0  0  0  0  0  0
    0.6421  -20.2987   27.0905 N   0  0  0  0  0  0  0  0  0  0  0  0
   -0.4950  -20.7011   26.4883 C   0  0  0  0  0  0  0  0  0  0  0  0
   -0.2027  -21.1398   25.2477 N   0  0  0  0  0  0  0  0  0  0  0  0
  1  7  2  0  0  0  0
  1  2  1  0  0  0  0
  2  3  1  0  0  0  0
  2  4  2  0  0  0  0
  4  5  1  0  0  0  0
  5  6  2  0  0  0  0
  5 11  1  0  0  0  0
  6  7  1  0  0  0  0
  6  9  1  0  0  0  0
  7  8  1  0  0  0  0
  9 10  1  0  0  0  0
 10 11  2  0  0  0  0
M  END
>  <CHROM.1>
2.10869316,-20.71464618,25.44923802,-0.57767081,0.14004972,1.19847670

>  <Name>
ligand

>  <RI>
0

>  <Rbt.Current_Directory>
/home/itssahil/PROJECTS/Mol_Feturizer/New_Systems/rnas/4LVZ

>  <Rbt.Executable>
rbdock ($Id: //depot/dev/client3/rdock/2013.1/src/exe/rbdock.cxx#4 $)

>  <Rbt.Library>
libRbt.so (2013.1, Build901 2013/11/27)

>  <Rbt.Parameter_File>
/export/apps/rDock/src/rDock_2013.1_src/data/scripts/dock_solv.prm

>  <Rbt.Receptor>
prm/pocket_docking_3.prm

>  <SCORE>
-9.40884

>  <SCORE.INTER>
-9.40884

>  <SCORE.INTER.CONST>
1

>  <SCORE.INTER.POLAR>
0

>  <SCORE.INTER.ROT>
0

>  <SCORE.INTER.SOLV>
11.3319

>  <SCORE.INTER.VDW>
-13.6498

>  <SCORE.INTER.norm>
-0.855349

>  <SCORE.INTRA>
0

>  <SCORE.INTRA.DIHEDRAL>
0

>  <SCORE.INTRA.DIHEDRAL.0>
0

>  <SCORE.INTRA.POLAR>
0

>  <SCORE.INTRA.POLAR.0>
0

>  <SCORE.INTRA.REPUL>
0

>  <SCORE.INTRA.REPUL.0>
0

>  <SCORE.INTRA.SOLV>
0

>  <SCORE.INTRA.SOLV.lig_0>
-49.4056

>  <SCORE.INTRA.VDW>
0

>  <SCORE.INTRA.VDW.0>
0

>  <SCORE.INTRA.norm>
0

>  <SCORE.RESTR>
0

>  <SCORE.RESTR.CAVITY>
0

>  <SCORE.RESTR.norm>
0

>  <SCORE.SYSTEM>
0

>  <SCORE.SYSTEM.CONST>
0

>  <SCORE.SYSTEM.DIHEDRAL>
0

>  <SCORE.SYSTEM.SOLV>
0

>  <SCORE.SYSTEM.norm>
0

>  <SCORE.heavy>
11

>  <SCORE.norm>
-0.855349

>  <RMSD>
2.866

$$$$
ligand
 OpenBabel11021811503D
libRbt.so/2013.1/901 2013/11/27
 11 12  0  0  0  0  0  0  0  0999 V2000
    3.8124  -20.5599   25.2314 N   0  0  0  0  0  0  0  0  0  0  0  0
    3.2832  -21.0816   24.0972 C   0  0  0  0  0  0  0  0  0  0  0  0
    4.1185  -21.4034   22.9789 N   0  0  0  0  0  0  0  0  0  0  0  0
    1.9607  -21.3033   23.9939 N   0  0  0  0  0  0  0  0  0  0  0  0
    1.1050  -21.0156   25.0334 C   0  0  0  0  0  0  0  0  0  0  0  0
    1.6171  -20.4802   26.2010 C   0  0  0  0  0  0  0  0  0  0  0  0
    3.0227  -20.2494   26.2826 C   0  0  0  0  0  0  0  0  0  0  0  0
    3.5860  -19.6945   27.4754 N   0  0  0  0  0  0  0  0  0  0  0  0
    0.5463  -20.2925   27.0543 N   0  0  0  0  0  0  0  0  0  0  0  0
   -0.5813  -20.6913   26.4321 C   0  0  0  0  0  0  0  0  0  0  0  0
   -0.2680  -21.1347   25.1984 N   0  0  0  0  0  0  0  0  0  0  0  0
  1  7  2  0  0  0  0
  1  2  1  0  0  0  0
  2  3  1  0  0  0  0
  2  4  2  0  0  0  0
  4  5  1  0  0  0  0
  5  6  2  0  0  0  0
  5 11  1  0  0  0  0
  6  7  1  0  0  0  0
  6  9  1  0  0  0  0
  7  8  1  0  0  0  0
  9 10  1  0  0  0  0
 10 11  2  0  0  0  0
M  END
>  <CHROM.1>
2.04120432,-20.71981225,25.44176782,-0.56192515,0.12886908,1.19361528

>  <Name>
ligand

>  <RI>
0

>  <Rbt.Current_Directory>
/home/itssahil/PROJECTS/Mol_Feturizer/New_Systems/rnas/4LVZ

>  <Rbt.Executable>
rbdock ($Id: //depot/dev/client3/rdock/2013.1/src/exe/rbdock.cxx#4 $)

>  <Rbt.Library>
libRbt.so (2013.1, Build901 2013/11/27)

>  <Rbt.Parameter_File>
/export/apps/rDock/src/rDock_2013.1_src/data/scripts/dock_solv.prm

>  <Rbt.Receptor>
prm/pocket_docking_5.prm

>  <SCORE>
-9.4164

>  <SCORE.INTER>
-9.4164

>  <SCORE.INTER.CONST>
1

>  <SCORE.INTER.POLAR>
0

>  <SCORE.INTER.ROT>
0

>  <SCORE.INTER.SOLV>
11.7887

>  <SCORE.INTER.VDW>
-13.8072

>  <SCORE.INTER.norm>
-0.856036

>  <SCORE.INTRA>
0

>  <SCORE.INTRA.DIHEDRAL>
0

>  <SCORE.INTRA.DIHEDRAL.0>
0

>  <SCORE.INTRA.POLAR>
0

>  <SCORE.INTRA.POLAR.0>
0

>  <SCORE.INTRA.REPUL>
0

>  <SCORE.INTRA.REPUL.0>
0

>  <SCORE.INTRA.SOLV>
0

>  <SCORE.INTRA.SOLV.lig_0>
-49.4056

>  <SCORE.INTRA.VDW>
0

>  <SCORE.INTRA.VDW.0>
0

>  <SCORE.INTRA.norm>
0

>  <SCORE.RESTR>
0

>  <SCORE.RESTR.CAVITY>
0

>  <SCORE.RESTR.norm>
0

>  <SCORE.SYSTEM>
0

>  <SCORE.SYSTEM.CONST>
0

>  <SCORE.SYSTEM.DIHEDRAL>
0

>  <SCORE.SYSTEM.SOLV>
0

>  <SCORE.SYSTEM.norm>
0

>  <SCORE.heavy>
11

>  <SCORE.norm>
-0.856036

>  <RMSD>
2.866

$$$$
ligand
 OpenBabel11021811503D
libRbt.so/2013.1/901 2013/11/27
 11 12  0  0  0  0  0  0  0  0999 V2000
    3.8684  -20.5526   25.2074 N   0  0  0  0  0  0  0  0  0  0  0  0
    3.3206  -21.0746   24.0821 C   0  0  0  0  0  0  0  0  0  0  0  0
    4.1364  -21.3892   22.9474 N   0  0  0  0  0  0  0  0  0  0  0  0
    1.9977  -21.3036   24.0033 N   0  0  0  0  0  0  0  0  0  0  0  0
    1.1602  -21.0232   25.0596 C   0  0  0  0  0  0  0  0  0  0  0  0
    1.6914  -20.4875   26.2186 C   0  0  0  0  0  0  0  0  0  0  0  0
    3.0971  -20.2490   26.2741 C   0  0  0  0  0  0  0  0  0  0  0  0
    3.6797  -19.6937   27.4573 N   0  0  0  0  0  0  0  0  0  0  0  0
    0.6360  -20.3078   27.0925 N   0  0  0  0  0  0  0  0  0  0  0  0
   -0.5010  -20.7115   26.4908 C   0  0  0  0  0  0  0  0  0  0  0  0
   -0.2087  -21.1504   25.2503 N   0  0  0  0  0  0  0  0  0  0  0  0
  1  7  2  0  0  0  0
  1  2  1  0  0  0  0
  2  3  1  0  0  0  0
  2  4  2  0  0  0  0
  4  5  1  0  0  0  0
  5  6  2  0  0  0  0
  5 11  1  0  0  0  0
  6  7  1  0  0  0  0
  6  9  1  0  0  0  0
  7  8  1  0  0  0  0
  9 10  1  0  0  0  0
 10 11  2  0  0  0  0
M  END
>  <CHROM.1>
2.10239707,-20.72300478,25.45084731,-0.57765454,0.14104214,1.19809536

>  <Name>
ligand

>  <RI>
0

>  <Rbt.Current_Directory>
/home/itssahil/PROJECTS/Mol_Feturizer/New_Systems/rnas/4LVZ

>  <Rbt.Executable>
rbdock ($Id: //depot/dev/client3/rdock/2013.1/src/exe/rbdock.cxx#4 $)

>  <Rbt.Library>
libRbt.so (2013.1, Build901 2013/11/27)

>  <Rbt.Parameter_File>
/export/apps/rDock/src/rDock_2013.1_src/data/scripts/dock_solv.prm

>  <Rbt.Receptor>
prm/pocket_docking_6.prm

>  <SCORE>
-9.40483

>  <SCORE.INTER>
-9.40483

>  <SCORE.INTER.CONST>
1

>  <SCORE.INTER.POLAR>
0

>  <SCORE.INTER.ROT>
0

>  <SCORE.INTER.SOLV>
11.364

>  <SCORE.INTER.VDW>
-13.6579

>  <SCORE.INTER.norm>
-0.854984

>  <SCORE.INTRA>
0

>  <SCORE.INTRA.DIHEDRAL>
0

>  <SCORE.INTRA.DIHEDRAL.0>
0

>  <SCORE.INTRA.POLAR>
0

>  <SCORE.INTRA.POLAR.0>
0

>  <SCORE.INTRA.REPUL>
0

>  <SCORE.INTRA.REPUL.0>
0

>  <SCORE.INTRA.SOLV>
0

>  <SCORE.INTRA.SOLV.lig_0>
-49.4056

>  <SCORE.INTRA.VDW>
0

>  <SCORE.INTRA.VDW.0>
0

>  <SCORE.INTRA.norm>
0

>  <SCORE.RESTR>
0

>  <SCORE.RESTR.CAVITY>
0

>  <SCORE.RESTR.norm>
0

>  <SCORE.SYSTEM>
0

>  <SCORE.SYSTEM.CONST>
0

>  <SCORE.SYSTEM.DIHEDRAL>
0

>  <SCORE.SYSTEM.SOLV>
0

>  <SCORE.SYSTEM.norm>
0

>  <SCORE.heavy>
11

>  <SCORE.norm>
-0.854984

>  <RMSD>
2.866

$$$$
ligand
 OpenBabel11021811503D
libRbt.so/2013.1/901 2013/11/27
 11 12  0  0  0  0  0  0  0  0999 V2000
    3.7886  -20.4964   25.2007 N   0  0  0  0  0  0  0  0  0  0  0  0
    3.2622  -21.0415   24.0763 C   0  0  0  0  0  0  0  0  0  0  0  0
    4.0980  -21.3710   22.9606 N   0  0  0  0  0  0  0  0  0  0  0  0
    1.9420  -21.2799   23.9802 N   0  0  0  0  0  0  0  0  0  0  0  0
    1.0860  -20.9860   25.0177 C   0  0  0  0  0  0  0  0  0  0  0  0
    1.5952  -20.4268   26.1755 C   0  0  0  0  0  0  0  0  0  0  0  0
    2.9983  -20.1788   26.2494 C   0  0  0  0  0  0  0  0  0  0  0  0
    3.5585  -19.5992   27.4318 N   0  0  0  0  0  0  0  0  0  0  0  0
    0.5247  -20.2382   27.0290 N   0  0  0  0  0  0  0  0  0  0  0  0
   -0.6000  -20.6594   26.4163 C   0  0  0  0  0  0  0  0  0  0  0  0
   -0.2851  -21.1182   25.1886 N   0  0  0  0  0  0  0  0  0  0  0  0
  1  7  2  0  0  0  0
  1  2  1  0  0  0  0
  2  3  1  0  0  0  0
  2  4  2  0  0  0  0
  4  5  1  0  0  0  0
  5  6  2  0  0  0  0
  5 11  1  0  0  0  0
  6  7  1  0  0  0  0
  6  9  1  0  0  0  0
  7  8  1  0  0  0  0
  9 10  1  0  0  0  0
 10 11  2  0  0  0  0
M  END
>  <CHROM.1>
2.01990734,-20.67325602,25.41873844,-0.56027605,0.14054384,1.17799746

>  <Name>
ligand

>  <RI>
0

>  <Rbt.Current_Directory>
/home/itssahil/PROJECTS/Mol_Feturizer/New_Systems/rnas/4LVZ

>  <Rbt.Executable>
rbdock ($Id: //depot/dev/client3/rdock/2013.1/src/exe/rbdock.cxx#4 $)

>  <Rbt.Library>
libRbt.so (2013.1, Build901 2013/11/27)

>  <Rbt.Parameter_File>
/export/apps/rDock/src/rDock_2013.1_src/data/scripts/dock_solv.prm

>  <Rbt.Receptor>
prm/pocket_docking_4.prm

>  <SCORE>
-9.43369

>  <SCORE.INTER>
-9.43369

>  <SCORE.INTER.CONST>
1

>  <SCORE.INTER.POLAR>
0

>  <SCORE.INTER.ROT>
0

>  <SCORE.INTER.SOLV>
12.1502

>  <SCORE.INTER.VDW>
-13.9392

>  <SCORE.INTER.norm>
-0.857608

>  <SCORE.INTRA>
0

>  <SCORE.INTRA.DIHEDRAL>
0

>  <SCORE.INTRA.DIHEDRAL.0>
0

>  <SCORE.INTRA.POLAR>
0

>  <SCORE.INTRA.POLAR.0>
0

>  <SCORE.INTRA.REPUL>
0

>  <SCORE.INTRA.REPUL.0>
0

>  <SCORE.INTRA.SOLV>
0

>  <SCORE.INTRA.SOLV.lig_0>
-49.4056

>  <SCORE.INTRA.VDW>
0

>  <SCORE.INTRA.VDW.0>
0

>  <SCORE.INTRA.norm>
0

>  <SCORE.RESTR>
0

>  <SCORE.RESTR.CAVITY>
0

>  <SCORE.RESTR.norm>
0

>  <SCORE.SYSTEM>
0

>  <SCORE.SYSTEM.CONST>
0

>  <SCORE.SYSTEM.DIHEDRAL>
0

>  <SCORE.SYSTEM.SOLV>
0

>  <SCORE.SYSTEM.norm>
0

>  <SCORE.heavy>
11

>  <SCORE.norm>
-0.857608

>  <RMSD>
2.867

$$$$
ligand
 OpenBabel11021811503D
libRbt.so/2013.1/901 2013/11/27
 11 12  0  0  0  0  0  0  0  0999 V2000
    3.8729  -20.5556   25.2136 N   0  0  0  0  0  0  0  0  0  0  0  0
    3.3387  -21.0640   24.0758 C   0  0  0  0  0  0  0  0  0  0  0  0
    4.1681  -21.3655   22.9474 N   0  0  0  0  0  0  0  0  0  0  0  0
    2.0167  -21.2914   23.9782 N   0  0  0  0  0  0  0  0  0  0  0  0
    1.1666  -21.0230   25.0274 C   0  0  0  0  0  0  0  0  0  0  0  0
    1.6838  -20.5014   26.1990 C   0  0  0  0  0  0  0  0  0  0  0  0
    3.0887  -20.2642   26.2744 C   0  0  0  0  0  0  0  0  0  0  0  0
    3.6571  -19.7231   27.4711 N   0  0  0  0  0  0  0  0  0  0  0  0
    0.6179  -20.3315   27.0621 N   0  0  0  0  0  0  0  0  0  0  0  0
   -0.5118  -20.7275   26.4419 C   0  0  0  0  0  0  0  0  0  0  0  0
   -0.2046  -21.1518   25.1999 N   0  0  0  0  0  0  0  0  0  0  0  0
  1  7  2  0  0  0  0
  1  2  1  0  0  0  0
  2  3  1  0  0  0  0
  2  4  2  0  0  0  0
  4  5  1  0  0  0  0
  5  6  2  0  0  0  0
  5 11  1  0  0  0  0
  6  7  1  0  0  0  0
  6  9  1  0  0  0  0
  7  8  1  0  0  0  0
  9 10  1  0  0  0  0
 10 11  2  0  0  0  0
M  END
>  <CHROM.1>
2.10399902,-20.72795755,25.43360118,-0.56633533,0.13628712,1.20832927

>  <Name>
ligand

>  <RI>
0

>  <Rbt.Current_Directory>
/home/itssahil/PROJECTS/Mol_Feturizer/New_Systems/rnas/4LVZ

>  <Rbt.Executable>
rbdock ($Id: //depot/dev/client3/rdock/2013.1/src/exe/rbdock.cxx#4 $)

>  <Rbt.Library>
libRbt.so (2013.1, Build901 2013/11/27)

>  <Rbt.Parameter_File>
/export/apps/rDock/src/rDock_2013.1_src/data/scripts/dock_solv.prm

>  <Rbt.Receptor>
prm/pocket_docking_6.prm

>  <SCORE>
-9.41252

>  <SCORE.INTER>
-9.41252

>  <SCORE.INTER.CONST>
1

>  <SCORE.INTER.POLAR>
0

>  <SCORE.INTER.ROT>
0

>  <SCORE.INTER.SOLV>
11.2205

>  <SCORE.INTER.VDW>
-13.6152

>  <SCORE.INTER.norm>
-0.855683

>  <SCORE.INTRA>
0

>  <SCORE.INTRA.DIHEDRAL>
0

>  <SCORE.INTRA.DIHEDRAL.0>
0

>  <SCORE.INTRA.POLAR>
0

>  <SCORE.INTRA.POLAR.0>
0

>  <SCORE.INTRA.REPUL>
0

>  <SCORE.INTRA.REPUL.0>
0

>  <SCORE.INTRA.SOLV>
0

>  <SCORE.INTRA.SOLV.lig_0>
-49.4056

>  <SCORE.INTRA.VDW>
0

>  <SCORE.INTRA.VDW.0>
0

>  <SCORE.INTRA.norm>
0

>  <SCORE.RESTR>
0

>  <SCORE.RESTR.CAVITY>
0

>  <SCORE.RESTR.norm>
0

>  <SCORE.SYSTEM>
0

>  <SCORE.SYSTEM.CONST>
0

>  <SCORE.SYSTEM.DIHEDRAL>
0

>  <SCORE.SYSTEM.SOLV>
0

>  <SCORE.SYSTEM.norm>
0

>  <SCORE.heavy>
11

>  <SCORE.norm>
-0.855683

>  <RMSD>
2.867

$$$$
ligand
 OpenBabel11021811503D
libRbt.so/2013.1/901 2013/11/27
 11 12  0  0  0  0  0  0  0  0999 V2000
    3.7945  -20.5364   25.1889 N   0  0  0  0  0  0  0  0  0  0  0  0
    3.2191  -21.0118   24.0569 C   0  0  0  0  0  0  0  0  0  0  0  0
    4.0105  -21.3039   22.8991 N   0  0  0  0  0  0  0  0  0  0  0  0
    1.8911  -21.2146   23.9930 N   0  0  0  0  0  0  0  0  0  0  0  0
    1.0762  -20.9537   25.0716 C   0  0  0  0  0  0  0  0  0  0  0  0
    1.6357  -20.4655   26.2381 C   0  0  0  0  0  0  0  0  0  0  0  0
    3.0462  -20.2539   26.2777 C   0  0  0  0  0  0  0  0  0  0  0  0
    3.6581  -19.7477   27.4682 N   0  0  0  0  0  0  0  0  0  0  0  0
    0.5981  -20.2955   27.1349 N   0  0  0  0  0  0  0  0  0  0  0  0
   -0.5557  -20.6592   26.5397 C   0  0  0  0  0  0  0  0  0  0  0  0
   -0.2916  -21.0627   25.2810 N   0  0  0  0  0  0  0  0  0  0  0  0
  1  7  2  0  0  0  0
  1  2  1  0  0  0  0
  2  3  1  0  0  0  0
  2  4  2  0  0  0  0
  4  5  1  0  0  0  0
  5  6  2  0  0  0  0
  5 11  1  0  0  0  0
  6  7  1  0  0  0  0
  6  9  1  0  0  0  0
  7  8  1  0  0  0  0
  9 10  1  0  0  0  0
 10 11  2  0  0  0  0
M  END
>  <CHROM.1>
2.02985347,-20.68318999,25.45641504,-0.59958779,0.12986309,1.23333816

>  <Name>
ligand

>  <RI>
0

>  <Rbt.Current_Directory>
/home/itssahil/PROJECTS/Mol_Feturizer/New_Systems/rnas/4LVZ

>  <Rbt.Executable>
rbdock ($Id: //depot/dev/client3/rdock/2013.1/src/exe/rbdock.cxx#4 $)

>  <Rbt.Library>
libRbt.so (2013.1, Build901 2013/11/27)

>  <Rbt.Parameter_File>
/export/apps/rDock/src/rDock_2013.1_src/data/scripts/dock_solv.prm

>  <Rbt.Receptor>
prm/pocket_docking_7.prm

>  <SCORE>
-9.39157

>  <SCORE.INTER>
-9.39157

>  <SCORE.INTER.CONST>
1

>  <SCORE.INTER.POLAR>
0

>  <SCORE.INTER.ROT>
0

>  <SCORE.INTER.SOLV>
11.8532

>  <SCORE.INTER.VDW>
-13.8121

>  <SCORE.INTER.norm>
-0.853779

>  <SCORE.INTRA>
0

>  <SCORE.INTRA.DIHEDRAL>
0

>  <SCORE.INTRA.DIHEDRAL.0>
0

>  <SCORE.INTRA.POLAR>
0

>  <SCORE.INTRA.POLAR.0>
0

>  <SCORE.INTRA.REPUL>
0

>  <SCORE.INTRA.REPUL.0>
0

>  <SCORE.INTRA.SOLV>
0

>  <SCORE.INTRA.SOLV.lig_0>
-49.4056

>  <SCORE.INTRA.VDW>
0

>  <SCORE.INTRA.VDW.0>
0

>  <SCORE.INTRA.norm>
0

>  <SCORE.RESTR>
0

>  <SCORE.RESTR.CAVITY>
0

>  <SCORE.RESTR.norm>
0

>  <SCORE.SYSTEM>
0

>  <SCORE.SYSTEM.CONST>
0

>  <SCORE.SYSTEM.DIHEDRAL>
0

>  <SCORE.SYSTEM.SOLV>
0

>  <SCORE.SYSTEM.norm>
0

>  <SCORE.heavy>
11

>  <SCORE.norm>
-0.853779

>  <RMSD>
2.867

$$$$
ligand
 OpenBabel11021811503D
libRbt.so/2013.1/901 2013/11/27
 11 12  0  0  0  0  0  0  0  0999 V2000
    3.6914  -20.4741   25.1911 N   0  0  0  0  0  0  0  0  0  0  0  0
    3.1580  -21.0086   24.0649 C   0  0  0  0  0  0  0  0  0  0  0  0
    3.9838  -21.3090   22.9336 N   0  0  0  0  0  0  0  0  0  0  0  0
    1.8401  -21.2637   23.9818 N   0  0  0  0  0  0  0  0  0  0  0  0
    0.9936  -20.9980   25.0346 C   0  0  0  0  0  0  0  0  0  0  0  0
    1.5100  -20.4501   26.1946 C   0  0  0  0  0  0  0  0  0  0  0  0
    2.9105  -20.1839   26.2546 C   0  0  0  0  0  0  0  0  0  0  0  0
    3.4780  -19.6153   27.4389 N   0  0  0  0  0  0  0  0  0  0  0  0
    0.4482  -20.2897   27.0645 N   0  0  0  0  0  0  0  0  0  0  0  0
   -0.6785  -20.7166   26.4595 C   0  0  0  0  0  0  0  0  0  0  0  0
   -0.3732  -21.1517   25.2207 N   0  0  0  0  0  0  0  0  0  0  0  0
  1  7  2  0  0  0  0
  1  2  1  0  0  0  0
  2  3  1  0  0  0  0
  2  4  2  0  0  0  0
  4  5  1  0  0  0  0
  5  6  2  0  0  0  0
  5 11  1  0  0  0  0
  6  7  1  0  0  0  0
  6  9  1  0  0  0  0
  7  8  1  0  0  0  0
  9 10  1  0  0  0  0
 10 11  2  0  0  0  0
M  END
>  <CHROM.1>
1.92827918,-20.67873134,25.42868068,-0.56708382,0.15802661,1.19482041

>  <Name>
ligand

>  <RI>
0

>  <Rbt.Current_Directory>
/home/itssahil/PROJECTS/Mol_Feturizer/New_Systems/rnas/4LVZ

>  <Rbt.Executable>
rbdock ($Id: //depot/dev/client3/rdock/2013.1/src/exe/rbdock.cxx#4 $)

>  <Rbt.Library>
libRbt.so (2013.1, Build901 2013/11/27)

>  <Rbt.Parameter_File>
/export/apps/rDock/src/rDock_2013.1_src/data/scripts/dock_solv.prm

>  <Rbt.Receptor>
prm/pocket_docking_8.prm

>  <SCORE>
-9.36916

>  <SCORE.INTER>
-9.36916

>  <SCORE.INTER.CONST>
1

>  <SCORE.INTER.POLAR>
0

>  <SCORE.INTER.ROT>
0

>  <SCORE.INTER.SOLV>
12.8063

>  <SCORE.INTER.VDW>
-14.1149

>  <SCORE.INTER.norm>
-0.851742

>  <SCORE.INTRA>
0

>  <SCORE.INTRA.DIHEDRAL>
0

>  <SCORE.INTRA.DIHEDRAL.0>
0

>  <SCORE.INTRA.POLAR>
0

>  <SCORE.INTRA.POLAR.0>
0

>  <SCORE.INTRA.REPUL>
0

>  <SCORE.INTRA.REPUL.0>
0

>  <SCORE.INTRA.SOLV>
0

>  <SCORE.INTRA.SOLV.lig_0>
-49.4056

>  <SCORE.INTRA.VDW>
0

>  <SCORE.INTRA.VDW.0>
0

>  <SCORE.INTRA.norm>
0

>  <SCORE.RESTR>
0

>  <SCORE.RESTR.CAVITY>
0

>  <SCORE.RESTR.norm>
0

>  <SCORE.SYSTEM>
0

>  <SCORE.SYSTEM.CONST>
0

>  <SCORE.SYSTEM.DIHEDRAL>
0

>  <SCORE.SYSTEM.SOLV>
0

>  <SCORE.SYSTEM.norm>
0

>  <SCORE.heavy>
11

>  <SCORE.norm>
-0.851742

>  <RMSD>
2.867

$$$$
ligand
 OpenBabel11021811503D
libRbt.so/2013.1/901 2013/11/27
 11 12  0  0  0  0  0  0  0  0999 V2000
    3.8393  -20.5791   25.2141 N   0  0  0  0  0  0  0  0  0  0  0  0
    3.3063  -21.0853   24.0747 C   0  0  0  0  0  0  0  0  0  0  0  0
    4.1369  -21.3848   22.9467 N   0  0  0  0  0  0  0  0  0  0  0  0
    1.9845  -21.3124   23.9752 N   0  0  0  0  0  0  0  0  0  0  0  0
    1.1332  -21.0460   25.0240 C   0  0  0  0  0  0  0  0  0  0  0  0
    1.6492  -20.5266   26.1972 C   0  0  0  0  0  0  0  0  0  0  0  0
    3.0541  -20.2897   26.2746 C   0  0  0  0  0  0  0  0  0  0  0  0
    3.6212  -19.7510   27.4730 N   0  0  0  0  0  0  0  0  0  0  0  0
    0.5824  -20.3582   27.0594 N   0  0  0  0  0  0  0  0  0  0  0  0
   -0.5467  -20.7530   26.4372 C   0  0  0  0  0  0  0  0  0  0  0  0
   -0.2382  -21.1750   25.1948 N   0  0  0  0  0  0  0  0  0  0  0  0
  1  7  2  0  0  0  0
  1  2  1  0  0  0  0
  2  3  1  0  0  0  0
  2  4  2  0  0  0  0
  4  5  1  0  0  0  0
  5  6  2  0  0  0  0
  5 11  1  0  0  0  0
  6  7  1  0  0  0  0
  6  9  1  0  0  0  0
  7  8  1  0  0  0  0
  9 10  1  0  0  0  0
 10 11  2  0  0  0  0
M  END
>  <CHROM.1>
2.07020898,-20.75175752,25.43183063,-0.56534046,0.13581323,1.21009775

>  <Name>
ligand

>  <RI>
0

>  <Rbt.Current_Directory>
/home/itssahil/PROJECTS/Mol_Feturizer/New_Systems/rnas/4LVZ

>  <Rbt.Executable>
rbdock ($Id: //depot/dev/client3/rdock/2013.1/src/exe/rbdock.cxx#4 $)

>  <Rbt.Library>
libRbt.so (2013.1, Build901 2013/11/27)

>  <Rbt.Parameter_File>
/export/apps/rDock/src/rDock_2013.1_src/data/scripts/dock_solv.prm

>  <Rbt.Receptor>
prm/pocket_docking_6.prm

>  <SCORE>
-9.38572

>  <SCORE.INTER>
-9.38572

>  <SCORE.INTER.CONST>
1

>  <SCORE.INTER.POLAR>
0

>  <SCORE.INTER.ROT>
0

>  <SCORE.INTER.SOLV>
11.4231

>  <SCORE.INTER.VDW>
-13.6648

>  <SCORE.INTER.norm>
-0.853247

>  <SCORE.INTRA>
0

>  <SCORE.INTRA.DIHEDRAL>
0

>  <SCORE.INTRA.DIHEDRAL.0>
0

>  <SCORE.INTRA.POLAR>
0

>  <SCORE.INTRA.POLAR.0>
0

>  <SCORE.INTRA.REPUL>
0

>  <SCORE.INTRA.REPUL.0>
0

>  <SCORE.INTRA.SOLV>
0

>  <SCORE.INTRA.SOLV.lig_0>
-49.4056

>  <SCORE.INTRA.VDW>
0

>  <SCORE.INTRA.VDW.0>
0

>  <SCORE.INTRA.norm>
0

>  <SCORE.RESTR>
0

>  <SCORE.RESTR.CAVITY>
0

>  <SCORE.RESTR.norm>
0

>  <SCORE.SYSTEM>
0

>  <SCORE.SYSTEM.CONST>
0

>  <SCORE.SYSTEM.DIHEDRAL>
0

>  <SCORE.SYSTEM.SOLV>
0

>  <SCORE.SYSTEM.norm>
0

>  <SCORE.heavy>
11

>  <SCORE.norm>
-0.853247

>  <RMSD>
2.871

$$$$
ligand
 OpenBabel11021811503D
libRbt.so/2013.1/901 2013/11/27
 11 12  0  0  0  0  0  0  0  0999 V2000
    3.8134  -20.5864   25.2086 N   0  0  0  0  0  0  0  0  0  0  0  0
    3.2709  -21.0947   24.0746 C   0  0  0  0  0  0  0  0  0  0  0  0
    4.0921  -21.3962   22.9403 N   0  0  0  0  0  0  0  0  0  0  0  0
    1.9483  -21.3219   23.9865 N   0  0  0  0  0  0  0  0  0  0  0  0
    1.1058  -21.0535   25.0418 C   0  0  0  0  0  0  0  0  0  0  0  0
    1.6315  -20.5320   26.2098 C   0  0  0  0  0  0  0  0  0  0  0  0
    3.0370  -20.2950   26.2750 C   0  0  0  0  0  0  0  0  0  0  0  0
    3.6141  -19.7542   27.4677 N   0  0  0  0  0  0  0  0  0  0  0  0
    0.5719  -20.3620   27.0805 N   0  0  0  0  0  0  0  0  0  0  0  0
   -0.5623  -20.7578   26.4684 C   0  0  0  0  0  0  0  0  0  0  0  0
   -0.2641  -21.1821   25.2242 N   0  0  0  0  0  0  0  0  0  0  0  0
  1  7  2  0  0  0  0
  1  2  1  0  0  0  0
  2  3  1  0  0  0  0
  2  4  2  0  0  0  0
  4  5  1  0  0  0  0
  5  6  2  0  0  0  0
  5 11  1  0  0  0  0
  6  7  1  0  0  0  0
  6  9  1  0  0  0  0
  7  8  1  0  0  0  0
  9 10  1  0  0  0  0
 10 11  2  0  0  0  0
M  END
>  <CHROM.1>
2.04613150,-20.75857976,25.44130352,-0.57320162,0.13870424,1.20934928

>  <Name>
ligand

>  <RI>
0

>  <Rbt.Current_Directory>
/home/itssahil/PROJECTS/Mol_Feturizer/New_Systems/rnas/4LVZ

>  <Rbt.Executable>
rbdock ($Id: //depot/dev/client3/rdock/2013.1/src/exe/rbdock.cxx#4 $)

>  <Rbt.Library>
libRbt.so (2013.1, Build901 2013/11/27)

>  <Rbt.Parameter_File>
/export/apps/rDock/src/rDock_2013.1_src/data/scripts/dock_solv.prm

>  <Rbt.Receptor>
prm/pocket_docking_4.prm

>  <SCORE>
-9.41312

>  <SCORE.INTER>
-9.41312

>  <SCORE.INTER.CONST>
1

>  <SCORE.INTER.POLAR>
0

>  <SCORE.INTER.ROT>
0

>  <SCORE.INTER.SOLV>
11.6394

>  <SCORE.INTER.VDW>
-13.7552

>  <SCORE.INTER.norm>
-0.855738

>  <SCORE.INTRA>
0

>  <SCORE.INTRA.DIHEDRAL>
0

>  <SCORE.INTRA.DIHEDRAL.0>
0

>  <SCORE.INTRA.POLAR>
0

>  <SCORE.INTRA.POLAR.0>
0

>  <SCORE.INTRA.REPUL>
0

>  <SCORE.INTRA.REPUL.0>
0

>  <SCORE.INTRA.SOLV>
0

>  <SCORE.INTRA.SOLV.lig_0>
-49.4056

>  <SCORE.INTRA.VDW>
0

>  <SCORE.INTRA.VDW.0>
0

>  <SCORE.INTRA.norm>
0

>  <SCORE.RESTR>
0

>  <SCORE.RESTR.CAVITY>
0

>  <SCORE.RESTR.norm>
0

>  <SCORE.SYSTEM>
0

>  <SCORE.SYSTEM.CONST>
0

>  <SCORE.SYSTEM.DIHEDRAL>
0

>  <SCORE.SYSTEM.SOLV>
0

>  <SCORE.SYSTEM.norm>
0

>  <SCORE.heavy>
11

>  <SCORE.norm>
-0.855738

>  <RMSD>
2.872

$$$$
ligand
 OpenBabel11021811503D
libRbt.so/2013.1/901 2013/11/27
 11 12  0  0  0  0  0  0  0  0999 V2000
    3.8087  -20.5181   25.1331 N   0  0  0  0  0  0  0  0  0  0  0  0
    3.2177  -21.0046   24.0139 C   0  0  0  0  0  0  0  0  0  0  0  0
    3.9869  -21.2713   22.8353 N   0  0  0  0  0  0  0  0  0  0  0  0
    1.8943  -21.2425   23.9827 N   0  0  0  0  0  0  0  0  0  0  0  0
    1.1003  -21.0074   25.0826 C   0  0  0  0  0  0  0  0  0  0  0  0
    1.6761  -20.5086   26.2367 C   0  0  0  0  0  0  0  0  0  0  0  0
    3.0810  -20.2596   26.2416 C   0  0  0  0  0  0  0  0  0  0  0  0
    3.7092  -19.7415   27.4184 N   0  0  0  0  0  0  0  0  0  0  0  0
    0.6574  -20.3695   27.1602 N   0  0  0  0  0  0  0  0  0  0  0  0
   -0.5010  -20.7618   26.5927 C   0  0  0  0  0  0  0  0  0  0  0  0
   -0.2583  -21.1536   25.3260 N   0  0  0  0  0  0  0  0  0  0  0  0
  1  7  2  0  0  0  0
  1  2  1  0  0  0  0
  2  3  1  0  0  0  0
  2  4  2  0  0  0  0
  4  5  1  0  0  0  0
  5  6  2  0  0  0  0
  5 11  1  0  0  0  0
  6  7  1  0  0  0  0
  6  9  1  0  0  0  0
  7  8  1  0  0  0  0
  9 10  1  0  0  0  0
 10 11  2  0  0  0  0
M  END
>  <CHROM.1>
2.05595310,-20.71287463,25.44440952,-0.61490787,0.16333477,1.23951210

>  <Name>
ligand

>  <RI>
0

>  <Rbt.Current_Directory>
/home/itssahil/PROJECTS/Mol_Feturizer/New_Systems/rnas/4LVZ

>  <Rbt.Executable>
rbdock ($Id: //depot/dev/client3/rdock/2013.1/src/exe/rbdock.cxx#4 $)

>  <Rbt.Library>
libRbt.so (2013.1, Build901 2013/11/27)

>  <Rbt.Parameter_File>
/export/apps/rDock/src/rDock_2013.1_src/data/scripts/dock_solv.prm

>  <Rbt.Receptor>
prm/pocket_docking_3.prm

>  <SCORE>
-9.38805

>  <SCORE.INTER>
-9.38805

>  <SCORE.INTER.CONST>
1

>  <SCORE.INTER.POLAR>
0

>  <SCORE.INTER.ROT>
0

>  <SCORE.INTER.SOLV>
11.7427

>  <SCORE.INTER.VDW>
-13.7729

>  <SCORE.INTER.norm>
-0.853459

>  <SCORE.INTRA>
0

>  <SCORE.INTRA.DIHEDRAL>
0

>  <SCORE.INTRA.DIHEDRAL.0>
0

>  <SCORE.INTRA.POLAR>
0

>  <SCORE.INTRA.POLAR.0>
0

>  <SCORE.INTRA.REPUL>
0

>  <SCORE.INTRA.REPUL.0>
0

>  <SCORE.INTRA.SOLV>
0

>  <SCORE.INTRA.SOLV.lig_0>
-49.4056

>  <SCORE.INTRA.VDW>
0

>  <SCORE.INTRA.VDW.0>
0

>  <SCORE.INTRA.norm>
0

>  <SCORE.RESTR>
0

>  <SCORE.RESTR.CAVITY>
0

>  <SCORE.RESTR.norm>
0

>  <SCORE.SYSTEM>
0

>  <SCORE.SYSTEM.CONST>
0

>  <SCORE.SYSTEM.DIHEDRAL>
0

>  <SCORE.SYSTEM.SOLV>
0

>  <SCORE.SYSTEM.norm>
0

>  <SCORE.heavy>
11

>  <SCORE.norm>
-0.853459

>  <RMSD>
2.873

$$$$
ligand
 OpenBabel11021811503D
libRbt.so/2013.1/901 2013/11/27
 11 12  0  0  0  0  0  0  0  0999 V2000
    3.8237  -20.6175   25.2403 N   0  0  0  0  0  0  0  0  0  0  0  0
    3.2960  -21.1582   24.1144 C   0  0  0  0  0  0  0  0  0  0  0  0
    4.1350  -21.5148   23.0095 N   0  0  0  0  0  0  0  0  0  0  0  0
    1.9717  -21.3668   24.0067 N   0  0  0  0  0  0  0  0  0  0  0  0
    1.1124  -21.0459   25.0335 C   0  0  0  0  0  0  0  0  0  0  0  0
    1.6229  -20.4905   26.1925 C   0  0  0  0  0  0  0  0  0  0  0  0
    3.0306  -20.2743   26.2788 C   0  0  0  0  0  0  0  0  0  0  0  0
    3.5923  -19.6995   27.4628 N   0  0  0  0  0  0  0  0  0  0  0  0
    0.5487  -20.2712   27.0338 N   0  0  0  0  0  0  0  0  0  0  0  0
   -0.5793  -20.6706   26.4127 C   0  0  0  0  0  0  0  0  0  0  0  0
   -0.2629  -21.1452   25.1914 N   0  0  0  0  0  0  0  0  0  0  0  0
  1  7  2  0  0  0  0
  1  2  1  0  0  0  0
  2  3  1  0  0  0  0
  2  4  2  0  0  0  0
  4  5  1  0  0  0  0
  5  6  2  0  0  0  0
  5 11  1  0  0  0  0
  6  7  1  0  0  0  0
  6  9  1  0  0  0  0
  7  8  1  0  0  0  0
  9 10  1  0  0  0  0
 10 11  2  0  0  0  0
M  END
>  <CHROM.1>
2.04932840,-20.75196457,25.44174333,-0.55997097,0.11537171,1.17100927

>  <Name>
ligand

>  <RI>
0

>  <Rbt.Current_Directory>
/home/itssahil/PROJECTS/Mol_Feturizer/New_Systems/rnas/4LVZ

>  <Rbt.Executable>
rbdock ($Id: //depot/dev/client3/rdock/2013.1/src/exe/rbdock.cxx#4 $)

>  <Rbt.Library>
libRbt.so (2013.1, Build901 2013/11/27)

>  <Rbt.Parameter_File>
/export/apps/rDock/src/rDock_2013.1_src/data/scripts/dock_solv.prm

>  <Rbt.Receptor>
prm/pocket_docking_5.prm

>  <SCORE>
-9.44281

>  <SCORE.INTER>
-9.44281

>  <SCORE.INTER.CONST>
1

>  <SCORE.INTER.POLAR>
0

>  <SCORE.INTER.ROT>
0

>  <SCORE.INTER.SOLV>
11.8767

>  <SCORE.INTER.VDW>
-13.8541

>  <SCORE.INTER.norm>
-0.858437

>  <SCORE.INTRA>
0

>  <SCORE.INTRA.DIHEDRAL>
0

>  <SCORE.INTRA.DIHEDRAL.0>
0

>  <SCORE.INTRA.POLAR>
0

>  <SCORE.INTRA.POLAR.0>
0

>  <SCORE.INTRA.REPUL>
0

>  <SCORE.INTRA.REPUL.0>
0

>  <SCORE.INTRA.SOLV>
0

>  <SCORE.INTRA.SOLV.lig_0>
-49.4056

>  <SCORE.INTRA.VDW>
0

>  <SCORE.INTRA.VDW.0>
0

>  <SCORE.INTRA.norm>
0

>  <SCORE.RESTR>
0

>  <SCORE.RESTR.CAVITY>
0

>  <SCORE.RESTR.norm>
0

>  <SCORE.SYSTEM>
0

>  <SCORE.SYSTEM.CONST>
0

>  <SCORE.SYSTEM.DIHEDRAL>
0

>  <SCORE.SYSTEM.SOLV>
0

>  <SCORE.SYSTEM.norm>
0

>  <SCORE.heavy>
11

>  <SCORE.norm>
-0.858437

>  <RMSD>
2.873

$$$$
ligand
 OpenBabel11021811503D
libRbt.so/2013.1/901 2013/11/27
 11 12  0  0  0  0  0  0  0  0999 V2000
    3.8205  -20.6163   25.2350 N   0  0  0  0  0  0  0  0  0  0  0  0
    3.2897  -21.1553   24.1096 C   0  0  0  0  0  0  0  0  0  0  0  0
    4.1255  -21.5086   23.0012 N   0  0  0  0  0  0  0  0  0  0  0  0
    1.9653  -21.3650   24.0058 N   0  0  0  0  0  0  0  0  0  0  0  0
    1.1090  -21.0472   25.0361 C   0  0  0  0  0  0  0  0  0  0  0  0
    1.6227  -20.4936   26.1946 C   0  0  0  0  0  0  0  0  0  0  0  0
    3.0305  -20.2761   26.2767 C   0  0  0  0  0  0  0  0  0  0  0  0
    3.5955  -19.7031   27.4601 N   0  0  0  0  0  0  0  0  0  0  0  0
    0.5511  -20.2772   27.0399 N   0  0  0  0  0  0  0  0  0  0  0  0
   -0.5786  -20.6766   26.4217 C   0  0  0  0  0  0  0  0  0  0  0  0
   -0.2657  -21.1484   25.1983 N   0  0  0  0  0  0  0  0  0  0  0  0
  1  7  2  0  0  0  0
  1  2  1  0  0  0  0
  2  3  1  0  0  0  0
  2  4  2  0  0  0  0
  4  5  1  0  0  0  0
  5  6  2  0  0  0  0
  5 11  1  0  0  0  0
  6  7  1  0  0  0  0
  6  9  1  0  0  0  0
  7  8  1  0  0  0  0
  9 10  1  0  0  0  0
 10 11  2  0  0  0  0
M  END
>  <CHROM.1>
2.04695511,-20.75310385,25.44189037,-0.56259259,0.11763760,1.17338784

>  <Name>
ligand

>  <RI>
0

>  <Rbt.Current_Directory>
/home/itssahil/PROJECTS/Mol_Feturizer/New_Systems/rnas/4LVZ

>  <Rbt.Executable>
rbdock ($Id: //depot/dev/client3/rdock/2013.1/src/exe/rbdock.cxx#4 $)

>  <Rbt.Library>
libRbt.so (2013.1, Build901 2013/11/27)

>  <Rbt.Parameter_File>
/export/apps/rDock/src/rDock_2013.1_src/data/scripts/dock_solv.prm

>  <Rbt.Receptor>
prm/pocket_docking_7.prm

>  <SCORE>
-9.4479

>  <SCORE.INTER>
-9.4479

>  <SCORE.INTER.CONST>
1

>  <SCORE.INTER.POLAR>
0

>  <SCORE.INTER.ROT>
0

>  <SCORE.INTER.SOLV>
11.8762

>  <SCORE.INTER.VDW>
-13.8573

>  <SCORE.INTER.norm>
-0.8589

>  <SCORE.INTRA>
0

>  <SCORE.INTRA.DIHEDRAL>
0

>  <SCORE.INTRA.DIHEDRAL.0>
0

>  <SCORE.INTRA.POLAR>
0

>  <SCORE.INTRA.POLAR.0>
0

>  <SCORE.INTRA.REPUL>
0

>  <SCORE.INTRA.REPUL.0>
0

>  <SCORE.INTRA.SOLV>
0

>  <SCORE.INTRA.SOLV.lig_0>
-49.4056

>  <SCORE.INTRA.VDW>
0

>  <SCORE.INTRA.VDW.0>
0

>  <SCORE.INTRA.norm>
0

>  <SCORE.RESTR>
0

>  <SCORE.RESTR.CAVITY>
0

>  <SCORE.RESTR.norm>
0

>  <SCORE.SYSTEM>
0

>  <SCORE.SYSTEM.CONST>
0

>  <SCORE.SYSTEM.DIHEDRAL>
0

>  <SCORE.SYSTEM.SOLV>
0

>  <SCORE.SYSTEM.norm>
0

>  <SCORE.heavy>
11

>  <SCORE.norm>
-0.8589

>  <RMSD>
2.874

$$$$
ligand
 OpenBabel11021811503D
libRbt.so/2013.1/901 2013/11/27
 11 12  0  0  0  0  0  0  0  0999 V2000
    3.7895  -20.5525   25.1931 N   0  0  0  0  0  0  0  0  0  0  0  0
    3.2512  -21.0706   24.0615 C   0  0  0  0  0  0  0  0  0  0  0  0
    4.0782  -21.3928   22.9371 N   0  0  0  0  0  0  0  0  0  0  0  0
    1.9275  -21.2884   23.9665 N   0  0  0  0  0  0  0  0  0  0  0  0
    1.0795  -21.0001   25.0122 C   0  0  0  0  0  0  0  0  0  0  0  0
    1.6008  -20.4682   26.1773 C   0  0  0  0  0  0  0  0  0  0  0  0
    3.0077  -20.2416   26.2500 C   0  0  0  0  0  0  0  0  0  0  0  0
    3.5804  -19.6904   27.4401 N   0  0  0  0  0  0  0  0  0  0  0  0
    0.5363  -20.2790   27.0380 N   0  0  0  0  0  0  0  0  0  0  0  0
   -0.5966  -20.6734   26.4226 C   0  0  0  0  0  0  0  0  0  0  0  0
   -0.2927  -21.1156   25.1860 N   0  0  0  0  0  0  0  0  0  0  0  0
  1  7  2  0  0  0  0
  1  2  1  0  0  0  0
  2  3  1  0  0  0  0
  2  4  2  0  0  0  0
  4  5  1  0  0  0  0
  5  6  2  0  0  0  0
  5 11  1  0  0  0  0
  6  7  1  0  0  0  0
  6  9  1  0  0  0  0
  7  8  1  0  0  0  0
  9 10  1  0  0  0  0
 10 11  2  0  0  0  0
M  END
>  <CHROM.1>
2.01924661,-20.70769760,25.41484522,-0.56918260,0.12862815,1.19632337

>  <Name>
ligand

>  <RI>
0

>  <Rbt.Current_Directory>
/home/itssahil/PROJECTS/Mol_Feturizer/New_Systems/rnas/4LVZ

>  <Rbt.Executable>
rbdock ($Id: //depot/dev/client3/rdock/2013.1/src/exe/rbdock.cxx#4 $)

>  <Rbt.Library>
libRbt.so (2013.1, Build901 2013/11/27)

>  <Rbt.Parameter_File>
/export/apps/rDock/src/rDock_2013.1_src/data/scripts/dock_solv.prm

>  <Rbt.Receptor>
prm/pocket_docking_4.prm

>  <SCORE>
-9.49378

>  <SCORE.INTER>
-9.49378

>  <SCORE.INTER.CONST>
1

>  <SCORE.INTER.POLAR>
0

>  <SCORE.INTER.ROT>
0

>  <SCORE.INTER.SOLV>
11.9283

>  <SCORE.INTER.VDW>
-13.9053

>  <SCORE.INTER.norm>
-0.863071

>  <SCORE.INTRA>
0

>  <SCORE.INTRA.DIHEDRAL>
0

>  <SCORE.INTRA.DIHEDRAL.0>
0

>  <SCORE.INTRA.POLAR>
0

>  <SCORE.INTRA.POLAR.0>
0

>  <SCORE.INTRA.REPUL>
0

>  <SCORE.INTRA.REPUL.0>
0

>  <SCORE.INTRA.SOLV>
0

>  <SCORE.INTRA.SOLV.lig_0>
-49.4056

>  <SCORE.INTRA.VDW>
0

>  <SCORE.INTRA.VDW.0>
0

>  <SCORE.INTRA.norm>
0

>  <SCORE.RESTR>
0

>  <SCORE.RESTR.CAVITY>
0

>  <SCORE.RESTR.norm>
0

>  <SCORE.SYSTEM>
0

>  <SCORE.SYSTEM.CONST>
0

>  <SCORE.SYSTEM.DIHEDRAL>
0

>  <SCORE.SYSTEM.SOLV>
0

>  <SCORE.SYSTEM.norm>
0

>  <SCORE.heavy>
11

>  <SCORE.norm>
-0.863071

>  <RMSD>
2.875

$$$$
ligand
 OpenBabel11021811503D
libRbt.so/2013.1/901 2013/11/27
 11 12  0  0  0  0  0  0  0  0999 V2000
    3.7916  -20.5477   25.1912 N   0  0  0  0  0  0  0  0  0  0  0  0
    3.2530  -21.0646   24.0592 C   0  0  0  0  0  0  0  0  0  0  0  0
    4.0795  -21.3845   22.9338 N   0  0  0  0  0  0  0  0  0  0  0  0
    1.9293  -21.2833   23.9648 N   0  0  0  0  0  0  0  0  0  0  0  0
    1.0818  -20.9972   25.0115 C   0  0  0  0  0  0  0  0  0  0  0  0
    1.6035  -20.4666   26.1771 C   0  0  0  0  0  0  0  0  0  0  0  0
    3.0102  -20.2389   26.2492 C   0  0  0  0  0  0  0  0  0  0  0  0
    3.5833  -19.6890   27.4396 N   0  0  0  0  0  0  0  0  0  0  0  0
    0.5394  -20.2795   27.0387 N   0  0  0  0  0  0  0  0  0  0  0  0
   -0.5935  -20.6739   26.4235 C   0  0  0  0  0  0  0  0  0  0  0  0
   -0.2902  -21.1141   25.1861 N   0  0  0  0  0  0  0  0  0  0  0  0
  1  7  2  0  0  0  0
  1  2  1  0  0  0  0
  2  3  1  0  0  0  0
  2  4  2  0  0  0  0
  4  5  1  0  0  0  0
  5  6  2  0  0  0  0
  5 11  1  0  0  0  0
  6  7  1  0  0  0  0
  6  9  1  0  0  0  0
  7  8  1  0  0  0  0
  9 10  1  0  0  0  0
 10 11  2  0  0  0  0
M  END
>  <CHROM.1>
2.02161009,-20.70463504,25.41395288,-0.56952014,0.12963158,1.19781447

>  <Name>
ligand

>  <RI>
0

>  <Rbt.Current_Directory>
/home/itssahil/PROJECTS/Mol_Feturizer/New_Systems/rnas/4LVZ

>  <Rbt.Executable>
rbdock ($Id: //depot/dev/client3/rdock/2013.1/src/exe/rbdock.cxx#4 $)

>  <Rbt.Library>
libRbt.so (2013.1, Build901 2013/11/27)

>  <Rbt.Parameter_File>
/export/apps/rDock/src/rDock_2013.1_src/data/scripts/dock_solv.prm

>  <Rbt.Receptor>
prm/pocket_docking_5.prm

>  <SCORE>
-9.4949

>  <SCORE.INTER>
-9.4949

>  <SCORE.INTER.CONST>
1

>  <SCORE.INTER.POLAR>
0

>  <SCORE.INTER.ROT>
0

>  <SCORE.INTER.SOLV>
11.9131

>  <SCORE.INTER.VDW>
-13.901

>  <SCORE.INTER.norm>
-0.863173

>  <SCORE.INTRA>
0

>  <SCORE.INTRA.DIHEDRAL>
0

>  <SCORE.INTRA.DIHEDRAL.0>
0

>  <SCORE.INTRA.POLAR>
0

>  <SCORE.INTRA.POLAR.0>
0

>  <SCORE.INTRA.REPUL>
0

>  <SCORE.INTRA.REPUL.0>
0

>  <SCORE.INTRA.SOLV>
0

>  <SCORE.INTRA.SOLV.lig_0>
-49.4056

>  <SCORE.INTRA.VDW>
0

>  <SCORE.INTRA.VDW.0>
0

>  <SCORE.INTRA.norm>
0

>  <SCORE.RESTR>
0

>  <SCORE.RESTR.CAVITY>
0

>  <SCORE.RESTR.norm>
0

>  <SCORE.SYSTEM>
0

>  <SCORE.SYSTEM.CONST>
0

>  <SCORE.SYSTEM.DIHEDRAL>
0

>  <SCORE.SYSTEM.SOLV>
0

>  <SCORE.SYSTEM.norm>
0

>  <SCORE.heavy>
11

>  <SCORE.norm>
-0.863173

>  <RMSD>
2.875

$$$$
ligand
 OpenBabel11021811503D
libRbt.so/2013.1/901 2013/11/27
 11 12  0  0  0  0  0  0  0  0999 V2000
    3.8022  -20.5533   25.1882 N   0  0  0  0  0  0  0  0  0  0  0  0
    3.2616  -21.0524   24.0493 C   0  0  0  0  0  0  0  0  0  0  0  0
    4.0867  -21.3587   22.9191 N   0  0  0  0  0  0  0  0  0  0  0  0
    1.9373  -21.2659   23.9524 N   0  0  0  0  0  0  0  0  0  0  0  0
    1.0911  -20.9922   25.0034 C   0  0  0  0  0  0  0  0  0  0  0  0
    1.6148  -20.4798   26.1762 C   0  0  0  0  0  0  0  0  0  0  0  0
    3.0223  -20.2574   26.2508 C   0  0  0  0  0  0  0  0  0  0  0  0
    3.5975  -19.7262   27.4487 N   0  0  0  0  0  0  0  0  0  0  0  0
    0.5517  -20.3018   27.0410 N   0  0  0  0  0  0  0  0  0  0  0  0
   -0.5827  -20.6841   26.4207 C   0  0  0  0  0  0  0  0  0  0  0  0
   -0.2812  -21.1075   25.1770 N   0  0  0  0  0  0  0  0  0  0  0  0
  1  7  2  0  0  0  0
  1  2  1  0  0  0  0
  2  3  1  0  0  0  0
  2  4  2  0  0  0  0
  4  5  1  0  0  0  0
  5  6  2  0  0  0  0
  5 11  1  0  0  0  0
  6  7  1  0  0  0  0
  6  9  1  0  0  0  0
  7  8  1  0  0  0  0
  9 10  1  0  0  0  0
 10 11  2  0  0  0  0
M  END
>  <CHROM.1>
2.03190355,-20.70818071,25.40956951,-0.57102084,0.12702041,1.21224844

>  <Name>
ligand

>  <RI>
0

>  <Rbt.Current_Directory>
/home/itssahil/PROJECTS/Mol_Feturizer/New_Systems/rnas/4LVZ

>  <Rbt.Executable>
rbdock ($Id: //depot/dev/client3/rdock/2013.1/src/exe/rbdock.cxx#4 $)

>  <Rbt.Library>
libRbt.so (2013.1, Build901 2013/11/27)

>  <Rbt.Parameter_File>
/export/apps/rDock/src/rDock_2013.1_src/data/scripts/dock_solv.prm

>  <Rbt.Receptor>
prm/pocket_docking_3.prm

>  <SCORE>
-9.47048

>  <SCORE.INTER>
-9.47048

>  <SCORE.INTER.CONST>
1

>  <SCORE.INTER.POLAR>
0

>  <SCORE.INTER.ROT>
0

>  <SCORE.INTER.SOLV>
11.7621

>  <SCORE.INTER.VDW>
-13.8344

>  <SCORE.INTER.norm>
-0.860953

>  <SCORE.INTRA>
0

>  <SCORE.INTRA.DIHEDRAL>
0

>  <SCORE.INTRA.DIHEDRAL.0>
0

>  <SCORE.INTRA.POLAR>
0

>  <SCORE.INTRA.POLAR.0>
0

>  <SCORE.INTRA.REPUL>
0

>  <SCORE.INTRA.REPUL.0>
0

>  <SCORE.INTRA.SOLV>
0

>  <SCORE.INTRA.SOLV.lig_0>
-49.4056

>  <SCORE.INTRA.VDW>
0

>  <SCORE.INTRA.VDW.0>
0

>  <SCORE.INTRA.norm>
0

>  <SCORE.RESTR>
0

>  <SCORE.RESTR.CAVITY>
0

>  <SCORE.RESTR.norm>
0

>  <SCORE.SYSTEM>
0

>  <SCORE.SYSTEM.CONST>
0

>  <SCORE.SYSTEM.DIHEDRAL>
0

>  <SCORE.SYSTEM.SOLV>
0

>  <SCORE.SYSTEM.norm>
0

>  <SCORE.heavy>
11

>  <SCORE.norm>
-0.860953

>  <RMSD>
2.876

$$$$
ligand
 OpenBabel11021811503D
libRbt.so/2013.1/901 2013/11/27
 11 12  0  0  0  0  0  0  0  0999 V2000
    3.8165  -20.6202   25.2280 N   0  0  0  0  0  0  0  0  0  0  0  0
    3.2819  -21.1579   24.1039 C   0  0  0  0  0  0  0  0  0  0  0  0
    4.1147  -21.5159   22.9947 N   0  0  0  0  0  0  0  0  0  0  0  0
    1.9565  -21.3622   24.0021 N   0  0  0  0  0  0  0  0  0  0  0  0
    1.1030  -21.0398   25.0332 C   0  0  0  0  0  0  0  0  0  0  0  0
    1.6206  -20.4873   26.1904 C   0  0  0  0  0  0  0  0  0  0  0  0
    3.0294  -20.2757   26.2705 C   0  0  0  0  0  0  0  0  0  0  0  0
    3.5983  -19.7040   27.4526 N   0  0  0  0  0  0  0  0  0  0  0  0
    0.5510  -20.2655   27.0369 N   0  0  0  0  0  0  0  0  0  0  0  0
   -0.5812  -20.6606   26.4206 C   0  0  0  0  0  0  0  0  0  0  0  0
   -0.2719  -21.1349   25.1973 N   0  0  0  0  0  0  0  0  0  0  0  0
  1  7  2  0  0  0  0
  1  2  1  0  0  0  0
  2  3  1  0  0  0  0
  2  4  2  0  0  0  0
  4  5  1  0  0  0  0
  5  6  2  0  0  0  0
  5 11  1  0  0  0  0
  6  7  1  0  0  0  0
  6  9  1  0  0  0  0
  7  8  1  0  0  0  0
  9 10  1  0  0  0  0
 10 11  2  0  0  0  0
M  END
>  <CHROM.1>
2.04269019,-20.74925757,25.43742473,-0.56548215,0.11421851,1.17279367

>  <Name>
ligand

>  <RI>
0

>  <Rbt.Current_Directory>
/home/itssahil/PROJECTS/Mol_Feturizer/New_Systems/rnas/4LVZ

>  <Rbt.Executable>
rbdock ($Id: //depot/dev/client3/rdock/2013.1/src/exe/rbdock.cxx#4 $)

>  <Rbt.Library>
libRbt.so (2013.1, Build901 2013/11/27)

>  <Rbt.Parameter_File>
/export/apps/rDock/src/rDock_2013.1_src/data/scripts/dock_solv.prm

>  <Rbt.Receptor>
prm/pocket_docking_5.prm

>  <SCORE>
-9.44477

>  <SCORE.INTER>
-9.44477

>  <SCORE.INTER.CONST>
1

>  <SCORE.INTER.POLAR>
0

>  <SCORE.INTER.ROT>
0

>  <SCORE.INTER.SOLV>
11.9149

>  <SCORE.INTER.VDW>
-13.8681

>  <SCORE.INTER.norm>
-0.858615

>  <SCORE.INTRA>
0

>  <SCORE.INTRA.DIHEDRAL>
0

>  <SCORE.INTRA.DIHEDRAL.0>
0

>  <SCORE.INTRA.POLAR>
0

>  <SCORE.INTRA.POLAR.0>
0

>  <SCORE.INTRA.REPUL>
0

>  <SCORE.INTRA.REPUL.0>
0

>  <SCORE.INTRA.SOLV>
0

>  <SCORE.INTRA.SOLV.lig_0>
-49.4056

>  <SCORE.INTRA.VDW>
0

>  <SCORE.INTRA.VDW.0>
0

>  <SCORE.INTRA.norm>
0

>  <SCORE.RESTR>
0

>  <SCORE.RESTR.CAVITY>
0

>  <SCORE.RESTR.norm>
0

>  <SCORE.SYSTEM>
0

>  <SCORE.SYSTEM.CONST>
0

>  <SCORE.SYSTEM.DIHEDRAL>
0

>  <SCORE.SYSTEM.SOLV>
0

>  <SCORE.SYSTEM.norm>
0

>  <SCORE.heavy>
11

>  <SCORE.norm>
-0.858615

>  <RMSD>
2.876

$$$$
ligand
 OpenBabel11021811503D
libRbt.so/2013.1/901 2013/11/27
 11 12  0  0  0  0  0  0  0  0999 V2000
    3.7839  -20.5597   25.1910 N   0  0  0  0  0  0  0  0  0  0  0  0
    3.2428  -21.0845   24.0638 C   0  0  0  0  0  0  0  0  0  0  0  0
    4.0665  -21.4092   22.9377 N   0  0  0  0  0  0  0  0  0  0  0  0
    1.9194  -21.3067   23.9749 N   0  0  0  0  0  0  0  0  0  0  0  0
    1.0746  -21.0164   25.0226 C   0  0  0  0  0  0  0  0  0  0  0  0
    1.5988  -20.4778   26.1834 C   0  0  0  0  0  0  0  0  0  0  0  0
    3.0052  -20.2465   26.2496 C   0  0  0  0  0  0  0  0  0  0  0  0
    3.5808  -19.6883   27.4349 N   0  0  0  0  0  0  0  0  0  0  0  0
    0.5370  -20.2879   27.0473 N   0  0  0  0  0  0  0  0  0  0  0  0
   -0.5970  -20.6885   26.4380 C   0  0  0  0  0  0  0  0  0  0  0  0
   -0.2966  -21.1353   25.2022 N   0  0  0  0  0  0  0  0  0  0  0  0
  1  7  2  0  0  0  0
  1  2  1  0  0  0  0
  2  3  1  0  0  0  0
  2  4  2  0  0  0  0
  4  5  1  0  0  0  0
  5  6  2  0  0  0  0
  5 11  1  0  0  0  0
  6  7  1  0  0  0  0
  6  9  1  0  0  0  0
  7  8  1  0  0  0  0
  9 10  1  0  0  0  0
 10 11  2  0  0  0  0
M  END
>  <CHROM.1>
2.01497893,-20.71934322,25.42031899,-0.57168451,0.13289069,1.19220850

>  <Name>
ligand

>  <RI>
0

>  <Rbt.Current_Directory>
/home/itssahil/PROJECTS/Mol_Feturizer/New_Systems/rnas/4LVZ

>  <Rbt.Executable>
rbdock ($Id: //depot/dev/client3/rdock/2013.1/src/exe/rbdock.cxx#4 $)

>  <Rbt.Library>
libRbt.so (2013.1, Build901 2013/11/27)

>  <Rbt.Parameter_File>
/export/apps/rDock/src/rDock_2013.1_src/data/scripts/dock_solv.prm

>  <Rbt.Receptor>
prm/pocket_docking_7.prm

>  <SCORE>
-9.44741

>  <SCORE.INTER>
-9.44741

>  <SCORE.INTER.CONST>
1

>  <SCORE.INTER.POLAR>
0

>  <SCORE.INTER.ROT>
0

>  <SCORE.INTER.SOLV>
11.9901

>  <SCORE.INTER.VDW>
-13.895

>  <SCORE.INTER.norm>
-0.858855

>  <SCORE.INTRA>
0

>  <SCORE.INTRA.DIHEDRAL>
0

>  <SCORE.INTRA.DIHEDRAL.0>
0

>  <SCORE.INTRA.POLAR>
0

>  <SCORE.INTRA.POLAR.0>
0

>  <SCORE.INTRA.REPUL>
0

>  <SCORE.INTRA.REPUL.0>
0

>  <SCORE.INTRA.SOLV>
0

>  <SCORE.INTRA.SOLV.lig_0>
-49.4056

>  <SCORE.INTRA.VDW>
0

>  <SCORE.INTRA.VDW.0>
0

>  <SCORE.INTRA.norm>
0

>  <SCORE.RESTR>
0

>  <SCORE.RESTR.CAVITY>
0

>  <SCORE.RESTR.norm>
0

>  <SCORE.SYSTEM>
0

>  <SCORE.SYSTEM.CONST>
0

>  <SCORE.SYSTEM.DIHEDRAL>
0

>  <SCORE.SYSTEM.SOLV>
0

>  <SCORE.SYSTEM.norm>
0

>  <SCORE.heavy>
11

>  <SCORE.norm>
-0.858855

>  <RMSD>
2.876

$$$$
ligand
 OpenBabel11021811503D
libRbt.so/2013.1/901 2013/11/27
 11 12  0  0  0  0  0  0  0  0999 V2000
    3.8035  -20.5843   25.2065 N   0  0  0  0  0  0  0  0  0  0  0  0
    3.2652  -21.1039   24.0757 C   0  0  0  0  0  0  0  0  0  0  0  0
    4.0934  -21.4378   22.9556 N   0  0  0  0  0  0  0  0  0  0  0  0
    1.9402  -21.3124   23.9773 N   0  0  0  0  0  0  0  0  0  0  0  0
    1.0909  -21.0127   25.0188 C   0  0  0  0  0  0  0  0  0  0  0  0
    1.6124  -20.4790   26.1831 C   0  0  0  0  0  0  0  0  0  0  0  0
    3.0206  -20.2625   26.2593 C   0  0  0  0  0  0  0  0  0  0  0  0
    3.5935  -19.7098   27.4485 N   0  0  0  0  0  0  0  0  0  0  0  0
    0.5465  -20.2777   27.0393 N   0  0  0  0  0  0  0  0  0  0  0  0
   -0.5873  -20.6667   26.4220 C   0  0  0  0  0  0  0  0  0  0  0  0
   -0.2827  -21.1172   25.1886 N   0  0  0  0  0  0  0  0  0  0  0  0
  1  7  2  0  0  0  0
  1  2  1  0  0  0  0
  2  3  1  0  0  0  0
  2  4  2  0  0  0  0
  4  5  1  0  0  0  0
  5  6  2  0  0  0  0
  5 11  1  0  0  0  0
  6  7  1  0  0  0  0
  6  9  1  0  0  0  0
  7  8  1  0  0  0  0
  9 10  1  0  0  0  0
 10 11  2  0  0  0  0
M  END
>  <CHROM.1>
2.03149160,-20.72531640,25.42314296,-0.56885151,0.12052275,1.19140319

>  <Name>
ligand

>  <RI>
0

>  <Rbt.Current_Directory>
/home/itssahil/PROJECTS/Mol_Feturizer/New_Systems/rnas/4LVZ

>  <Rbt.Executable>
rbdock ($Id: //depot/dev/client3/rdock/2013.1/src/exe/rbdock.cxx#4 $)

>  <Rbt.Library>
libRbt.so (2013.1, Build901 2013/11/27)

>  <Rbt.Parameter_File>
/export/apps/rDock/src/rDock_2013.1_src/data/scripts/dock_solv.prm

>  <Rbt.Receptor>
prm/pocket_docking_8.prm

>  <SCORE>
-9.47379

>  <SCORE.INTER>
-9.47379

>  <SCORE.INTER.CONST>
1

>  <SCORE.INTER.POLAR>
0

>  <SCORE.INTER.ROT>
0

>  <SCORE.INTER.SOLV>
11.8553

>  <SCORE.INTER.VDW>
-13.8676

>  <SCORE.INTER.norm>
-0.861253

>  <SCORE.INTRA>
0

>  <SCORE.INTRA.DIHEDRAL>
0

>  <SCORE.INTRA.DIHEDRAL.0>
0

>  <SCORE.INTRA.POLAR>
0

>  <SCORE.INTRA.POLAR.0>
0

>  <SCORE.INTRA.REPUL>
0

>  <SCORE.INTRA.REPUL.0>
0

>  <SCORE.INTRA.SOLV>
0

>  <SCORE.INTRA.SOLV.lig_0>
-49.4056

>  <SCORE.INTRA.VDW>
0

>  <SCORE.INTRA.VDW.0>
0

>  <SCORE.INTRA.norm>
0

>  <SCORE.RESTR>
0

>  <SCORE.RESTR.CAVITY>
0

>  <SCORE.RESTR.norm>
0

>  <SCORE.SYSTEM>
0

>  <SCORE.SYSTEM.CONST>
0

>  <SCORE.SYSTEM.DIHEDRAL>
0

>  <SCORE.SYSTEM.SOLV>
0

>  <SCORE.SYSTEM.norm>
0

>  <SCORE.heavy>
11

>  <SCORE.norm>
-0.861253

>  <RMSD>
2.876

$$$$
ligand
 OpenBabel11021811503D
libRbt.so/2013.1/901 2013/11/27
 11 12  0  0  0  0  0  0  0  0999 V2000
    3.8170  -20.6285   25.2291 N   0  0  0  0  0  0  0  0  0  0  0  0
    3.2803  -21.1602   24.1031 C   0  0  0  0  0  0  0  0  0  0  0  0
    4.1114  -21.5147   22.9915 N   0  0  0  0  0  0  0  0  0  0  0  0
    1.9545  -21.3615   24.0016 N   0  0  0  0  0  0  0  0  0  0  0  0
    1.1025  -21.0421   25.0350 C   0  0  0  0  0  0  0  0  0  0  0  0
    1.6223  -20.4957   26.1942 C   0  0  0  0  0  0  0  0  0  0  0  0
    3.0315  -20.2872   26.2738 C   0  0  0  0  0  0  0  0  0  0  0  0
    3.6027  -19.7219   27.4579 N   0  0  0  0  0  0  0  0  0  0  0  0
    0.5539  -20.2758   27.0427 N   0  0  0  0  0  0  0  0  0  0  0  0
   -0.5796  -20.6660   26.4257 C   0  0  0  0  0  0  0  0  0  0  0  0
   -0.2724  -21.1353   25.2000 N   0  0  0  0  0  0  0  0  0  0  0  0
  1  7  2  0  0  0  0
  1  2  1  0  0  0  0
  2  3  1  0  0  0  0
  2  4  2  0  0  0  0
  4  5  1  0  0  0  0
  5  6  2  0  0  0  0
  5 11  1  0  0  0  0
  6  7  1  0  0  0  0
  6  9  1  0  0  0  0
  7  8  1  0  0  0  0
  9 10  1  0  0  0  0
 10 11  2  0  0  0  0
M  END
>  <CHROM.1>
2.04315715,-20.75515302,25.43959940,-0.56711309,0.11284613,1.17745091

>  <Name>
ligand

>  <RI>
0

>  <Rbt.Current_Directory>
/home/itssahil/PROJECTS/Mol_Feturizer/New_Systems/rnas/4LVZ

>  <Rbt.Executable>
rbdock ($Id: //depot/dev/client3/rdock/2013.1/src/exe/rbdock.cxx#4 $)

>  <Rbt.Library>
libRbt.so (2013.1, Build901 2013/11/27)

>  <Rbt.Parameter_File>
/export/apps/rDock/src/rDock_2013.1_src/data/scripts/dock_solv.prm

>  <Rbt.Receptor>
prm/pocket_docking_4.prm

>  <SCORE>
-9.44947

>  <SCORE.INTER>
-9.44947

>  <SCORE.INTER.CONST>
1

>  <SCORE.INTER.POLAR>
0

>  <SCORE.INTER.ROT>
0

>  <SCORE.INTER.SOLV>
11.8853

>  <SCORE.INTER.VDW>
-13.8614

>  <SCORE.INTER.norm>
-0.859043

>  <SCORE.INTRA>
0

>  <SCORE.INTRA.DIHEDRAL>
0

>  <SCORE.INTRA.DIHEDRAL.0>
0

>  <SCORE.INTRA.POLAR>
0

>  <SCORE.INTRA.POLAR.0>
0

>  <SCORE.INTRA.REPUL>
0

>  <SCORE.INTRA.REPUL.0>
0

>  <SCORE.INTRA.SOLV>
0

>  <SCORE.INTRA.SOLV.lig_0>
-49.4056

>  <SCORE.INTRA.VDW>
0

>  <SCORE.INTRA.VDW.0>
0

>  <SCORE.INTRA.norm>
0

>  <SCORE.RESTR>
0

>  <SCORE.RESTR.CAVITY>
0

>  <SCORE.RESTR.norm>
0

>  <SCORE.SYSTEM>
0

>  <SCORE.SYSTEM.CONST>
0

>  <SCORE.SYSTEM.DIHEDRAL>
0

>  <SCORE.SYSTEM.SOLV>
0

>  <SCORE.SYSTEM.norm>
0

>  <SCORE.heavy>
11

>  <SCORE.norm>
-0.859043

>  <RMSD>
2.877

$$$$
ligand
 OpenBabel11021811503D
libRbt.so/2013.1/901 2013/11/27
 11 12  0  0  0  0  0  0  0  0999 V2000
    3.7910  -20.5724   25.1936 N   0  0  0  0  0  0  0  0  0  0  0  0
    3.2472  -21.0788   24.0594 C   0  0  0  0  0  0  0  0  0  0  0  0
    4.0692  -21.3938   22.9294 N   0  0  0  0  0  0  0  0  0  0  0  0
    1.9224  -21.2915   23.9672 N   0  0  0  0  0  0  0  0  0  0  0  0
    1.0790  -21.0097   25.0183 C   0  0  0  0  0  0  0  0  0  0  0  0
    1.6061  -20.4897   26.1863 C   0  0  0  0  0  0  0  0  0  0  0  0
    3.0139  -20.2683   26.2560 C   0  0  0  0  0  0  0  0  0  0  0  0
    3.5926  -19.7294   27.4488 N   0  0  0  0  0  0  0  0  0  0  0  0
    0.5452  -20.3046   27.0523 N   0  0  0  0  0  0  0  0  0  0  0  0
   -0.5910  -20.6900   26.4374 C   0  0  0  0  0  0  0  0  0  0  0  0
   -0.2930  -21.1223   25.1960 N   0  0  0  0  0  0  0  0  0  0  0  0
  1  7  2  0  0  0  0
  1  2  1  0  0  0  0
  2  3  1  0  0  0  0
  2  4  2  0  0  0  0
  4  5  1  0  0  0  0
  5  6  2  0  0  0  0
  5 11  1  0  0  0  0
  6  7  1  0  0  0  0
  6  9  1  0  0  0  0
  7  8  1  0  0  0  0
  9 10  1  0  0  0  0
 10 11  2  0  0  0  0
M  END
>  <CHROM.1>
2.02109410,-20.72384772,25.42025034,-0.57366054,0.12687783,1.20565538

>  <Name>
ligand

>  <RI>
0

>  <Rbt.Current_Directory>
/home/itssahil/PROJECTS/Mol_Feturizer/New_Systems/rnas/4LVZ

>  <Rbt.Executable>
rbdock ($Id: //depot/dev/client3/rdock/2013.1/src/exe/rbdock.cxx#4 $)

>  <Rbt.Library>
libRbt.so (2013.1, Build901 2013/11/27)

>  <Rbt.Parameter_File>
/export/apps/rDock/src/rDock_2013.1_src/data/scripts/dock_solv.prm

>  <Rbt.Receptor>
prm/pocket_docking_5.prm

>  <SCORE>
-9.43456

>  <SCORE.INTER>
-9.43456

>  <SCORE.INTER.CONST>
1

>  <SCORE.INTER.POLAR>
0

>  <SCORE.INTER.ROT>
0

>  <SCORE.INTER.SOLV>
11.8603

>  <SCORE.INTER.VDW>
-13.8431

>  <SCORE.INTER.norm>
-0.857688

>  <SCORE.INTRA>
0

>  <SCORE.INTRA.DIHEDRAL>
0

>  <SCORE.INTRA.DIHEDRAL.0>
0

>  <SCORE.INTRA.POLAR>
0

>  <SCORE.INTRA.POLAR.0>
0

>  <SCORE.INTRA.REPUL>
0

>  <SCORE.INTRA.REPUL.0>
0

>  <SCORE.INTRA.SOLV>
0

>  <SCORE.INTRA.SOLV.lig_0>
-49.4056

>  <SCORE.INTRA.VDW>
0

>  <SCORE.INTRA.VDW.0>
0

>  <SCORE.INTRA.norm>
0

>  <SCORE.RESTR>
0

>  <SCORE.RESTR.CAVITY>
0

>  <SCORE.RESTR.norm>
0

>  <SCORE.SYSTEM>
0

>  <SCORE.SYSTEM.CONST>
0

>  <SCORE.SYSTEM.DIHEDRAL>
0

>  <SCORE.SYSTEM.SOLV>
0

>  <SCORE.SYSTEM.norm>
0

>  <SCORE.heavy>
11

>  <SCORE.norm>
-0.857688

>  <RMSD>
2.877

$$$$
ligand
 OpenBabel11021811503D
libRbt.so/2013.1/901 2013/11/27
 11 12  0  0  0  0  0  0  0  0999 V2000
    3.7996  -20.5676   25.1935 N   0  0  0  0  0  0  0  0  0  0  0  0
    3.2579  -21.0577   24.0512 C   0  0  0  0  0  0  0  0  0  0  0  0
    4.0828  -21.3614   22.9201 N   0  0  0  0  0  0  0  0  0  0  0  0
    1.9327  -21.2645   23.9517 N   0  0  0  0  0  0  0  0  0  0  0  0
    1.0867  -20.9930   25.0034 C   0  0  0  0  0  0  0  0  0  0  0  0
    1.6116  -20.4896   26.1796 C   0  0  0  0  0  0  0  0  0  0  0  0
    3.0199  -20.2741   26.2570 C   0  0  0  0  0  0  0  0  0  0  0  0
    3.5963  -19.7524   27.4585 N   0  0  0  0  0  0  0  0  0  0  0  0
    0.5483  -20.3117   27.0443 N   0  0  0  0  0  0  0  0  0  0  0  0
   -0.5871  -20.6852   26.4207 C   0  0  0  0  0  0  0  0  0  0  0  0
   -0.2863  -21.1029   25.1749 N   0  0  0  0  0  0  0  0  0  0  0  0
  1  7  2  0  0  0  0
  1  2  1  0  0  0  0
  2  3  1  0  0  0  0
  2  4  2  0  0  0  0
  4  5  1  0  0  0  0
  5  6  2  0  0  0  0
  5 11  1  0  0  0  0
  6  7  1  0  0  0  0
  6  9  1  0  0  0  0
  7  8  1  0  0  0  0
  9 10  1  0  0  0  0
 10 11  2  0  0  0  0
M  END
>  <CHROM.1>
2.02839351,-20.71557568,25.41215689,-0.57165018,0.12235185,1.21800839

>  <Name>
ligand

>  <RI>
0

>  <Rbt.Current_Directory>
/home/itssahil/PROJECTS/Mol_Feturizer/New_Systems/rnas/4LVZ

>  <Rbt.Executable>
rbdock ($Id: //depot/dev/client3/rdock/2013.1/src/exe/rbdock.cxx#4 $)

>  <Rbt.Library>
libRbt.so (2013.1, Build901 2013/11/27)

>  <Rbt.Parameter_File>
/export/apps/rDock/src/rDock_2013.1_src/data/scripts/dock_solv.prm

>  <Rbt.Receptor>
prm/pocket_docking_6.prm

>  <SCORE>
-9.46875

>  <SCORE.INTER>
-9.46875

>  <SCORE.INTER.CONST>
1

>  <SCORE.INTER.POLAR>
0

>  <SCORE.INTER.ROT>
0

>  <SCORE.INTER.SOLV>
11.7505

>  <SCORE.INTER.VDW>
-13.8293

>  <SCORE.INTER.norm>
-0.860795

>  <SCORE.INTRA>
0

>  <SCORE.INTRA.DIHEDRAL>
0

>  <SCORE.INTRA.DIHEDRAL.0>
0

>  <SCORE.INTRA.POLAR>
0

>  <SCORE.INTRA.POLAR.0>
0

>  <SCORE.INTRA.REPUL>
0

>  <SCORE.INTRA.REPUL.0>
0

>  <SCORE.INTRA.SOLV>
0

>  <SCORE.INTRA.SOLV.lig_0>
-49.4056

>  <SCORE.INTRA.VDW>
0

>  <SCORE.INTRA.VDW.0>
0

>  <SCORE.INTRA.norm>
0

>  <SCORE.RESTR>
0

>  <SCORE.RESTR.CAVITY>
0

>  <SCORE.RESTR.norm>
0

>  <SCORE.SYSTEM>
0

>  <SCORE.SYSTEM.CONST>
0

>  <SCORE.SYSTEM.DIHEDRAL>
0

>  <SCORE.SYSTEM.SOLV>
0

>  <SCORE.SYSTEM.norm>
0

>  <SCORE.heavy>
11

>  <SCORE.norm>
-0.860795

>  <RMSD>
2.877

$$$$
ligand
 OpenBabel11021811503D
libRbt.so/2013.1/901 2013/11/27
 11 12  0  0  0  0  0  0  0  0999 V2000
    3.8842  -20.5937   25.1433 N   0  0  0  0  0  0  0  0  0  0  0  0
    3.3181  -21.0964   24.0184 C   0  0  0  0  0  0  0  0  0  0  0  0
    4.1167  -21.4012   22.8690 N   0  0  0  0  0  0  0  0  0  0  0  0
    1.9926  -21.3148   23.9538 N   0  0  0  0  0  0  0  0  0  0  0  0
    1.1710  -21.0428   25.0246 C   0  0  0  0  0  0  0  0  0  0  0  0
    1.7210  -20.5269   26.1837 C   0  0  0  0  0  0  0  0  0  0  0  0
    3.1290  -20.2992   26.2241 C   0  0  0  0  0  0  0  0  0  0  0  0
    3.7310  -19.7643   27.4070 N   0  0  0  0  0  0  0  0  0  0  0  0
    0.6784  -20.3516   27.0737 N   0  0  0  0  0  0  0  0  0  0  0  0
   -0.4692  -20.7389   26.4815 C   0  0  0  0  0  0  0  0  0  0  0  0
   -0.1962  -21.1628   25.2314 N   0  0  0  0  0  0  0  0  0  0  0  0
  1  7  2  0  0  0  0
  1  2  1  0  0  0  0
  2  3  1  0  0  0  0
  2  4  2  0  0  0  0
  4  5  1  0  0  0  0
  5  6  2  0  0  0  0
  5 11  1  0  0  0  0
  6  7  1  0  0  0  0
  6  9  1  0  0  0  0
  7  8  1  0  0  0  0
  9 10  1  0  0  0  0
 10 11  2  0  0  0  0
M  END
>  <CHROM.1>
2.12030655,-20.75475716,25.40754627,-0.59254703,0.13892231,1.21378865

>  <Name>
ligand

>  <RI>
0

>  <Rbt.Current_Directory>
/home/itssahil/PROJECTS/Mol_Feturizer/New_Systems/rnas/4LVZ

>  <Rbt.Executable>
rbdock ($Id: //depot/dev/client3/rdock/2013.1/src/exe/rbdock.cxx#4 $)

>  <Rbt.Library>
libRbt.so (2013.1, Build901 2013/11/27)

>  <Rbt.Parameter_File>
/export/apps/rDock/src/rDock_2013.1_src/data/scripts/dock_solv.prm

>  <Rbt.Receptor>
prm/pocket_docking_4.prm

>  <SCORE>
-9.36213

>  <SCORE.INTER>
-9.36213

>  <SCORE.INTER.CONST>
1

>  <SCORE.INTER.POLAR>
0

>  <SCORE.INTER.ROT>
0

>  <SCORE.INTER.SOLV>
11.1565

>  <SCORE.INTER.VDW>
-13.5602

>  <SCORE.INTER.norm>
-0.851103

>  <SCORE.INTRA>
0

>  <SCORE.INTRA.DIHEDRAL>
0

>  <SCORE.INTRA.DIHEDRAL.0>
0

>  <SCORE.INTRA.POLAR>
0

>  <SCORE.INTRA.POLAR.0>
0

>  <SCORE.INTRA.REPUL>
0

>  <SCORE.INTRA.REPUL.0>
0

>  <SCORE.INTRA.SOLV>
0

>  <SCORE.INTRA.SOLV.lig_0>
-49.4056

>  <SCORE.INTRA.VDW>
0

>  <SCORE.INTRA.VDW.0>
0

>  <SCORE.INTRA.norm>
0

>  <SCORE.RESTR>
0

>  <SCORE.RESTR.CAVITY>
0

>  <SCORE.RESTR.norm>
0

>  <SCORE.SYSTEM>
0

>  <SCORE.SYSTEM.CONST>
0

>  <SCORE.SYSTEM.DIHEDRAL>
0

>  <SCORE.SYSTEM.SOLV>
0

>  <SCORE.SYSTEM.norm>
0

>  <SCORE.heavy>
11

>  <SCORE.norm>
-0.851103

>  <RMSD>
2.887

$$$$
ligand
 OpenBabel11021811503D
libRbt.so/2013.1/901 2013/11/27
 11 12  0  0  0  0  0  0  0  0999 V2000
    6.3623  -21.9800   22.7328 N   0  0  0  0  0  0  0  0  0  0  0  0
    7.1571  -23.0382   23.0280 C   0  0  0  0  0  0  0  0  0  0  0  0
    8.1572  -23.4842   22.1044 N   0  0  0  0  0  0  0  0  0  0  0  0
    7.0208  -23.6973   24.1924 N   0  0  0  0  0  0  0  0  0  0  0  0
    6.0788  -23.3176   25.1219 C   0  0  0  0  0  0  0  0  0  0  0  0
    5.2527  -22.2434   24.8459 C   0  0  0  0  0  0  0  0  0  0  0  0
    5.4142  -21.5651   23.6011 C   0  0  0  0  0  0  0  0  0  0  0  0
    4.5748  -20.4508   23.2823 N   0  0  0  0  0  0  0  0  0  0  0  0
    4.4174  -22.0949   25.9369 N   0  0  0  0  0  0  0  0  0  0  0  0
    4.7147  -23.0456   26.8454 C   0  0  0  0  0  0  0  0  0  0  0  0
    5.7229  -23.8048   26.3718 N   0  0  0  0  0  0  0  0  0  0  0  0
  1  7  2  0  0  0  0
  1  2  1  0  0  0  0
  2  3  1  0  0  0  0
  2  4  2  0  0  0  0
  4  5  1  0  0  0  0
  5  6  2  0  0  0  0
  5 11  1  0  0  0  0
  6  7  1  0  0  0  0
  6  9  1  0  0  0  0
  7  8  1  0  0  0  0
  9 10  1  0  0  0  0
 10 11  2  0  0  0  0
M  END
>  <CHROM.1>
5.90959580,-22.60893980,24.34723981,0.74273152,0.72430017,-0.96872705

>  <Name>
ligand

>  <RI>
0

>  <Rbt.Current_Directory>
/home/itssahil/PROJECTS/Mol_Feturizer/New_Systems/rnas/4LVZ

>  <Rbt.Executable>
rbdock ($Id: //depot/dev/client3/rdock/2013.1/src/exe/rbdock.cxx#4 $)

>  <Rbt.Library>
libRbt.so (2013.1, Build901 2013/11/27)

>  <Rbt.Parameter_File>
/export/apps/rDock/src/rDock_2013.1_src/data/scripts/dock_solv.prm

>  <Rbt.Receptor>
prm/pocket_docking_8.prm

>  <SCORE>
-7.60383

>  <SCORE.INTER>
-7.60383

>  <SCORE.INTER.CONST>
1

>  <SCORE.INTER.POLAR>
0

>  <SCORE.INTER.ROT>
0

>  <SCORE.INTER.SOLV>
4.10098

>  <SCORE.INTER.VDW>
-10.0362

>  <SCORE.INTER.norm>
-0.691258

>  <SCORE.INTRA>
0

>  <SCORE.INTRA.DIHEDRAL>
0

>  <SCORE.INTRA.DIHEDRAL.0>
0

>  <SCORE.INTRA.POLAR>
0

>  <SCORE.INTRA.POLAR.0>
0

>  <SCORE.INTRA.REPUL>
0

>  <SCORE.INTRA.REPUL.0>
0

>  <SCORE.INTRA.SOLV>
0

>  <SCORE.INTRA.SOLV.lig_0>
-49.4056

>  <SCORE.INTRA.VDW>
0

>  <SCORE.INTRA.VDW.0>
0

>  <SCORE.INTRA.norm>
0

>  <SCORE.RESTR>
0

>  <SCORE.RESTR.CAVITY>
0

>  <SCORE.RESTR.norm>
0

>  <SCORE.SYSTEM>
0

>  <SCORE.SYSTEM.CONST>
0

>  <SCORE.SYSTEM.DIHEDRAL>
0

>  <SCORE.SYSTEM.SOLV>
0

>  <SCORE.SYSTEM.norm>
0

>  <SCORE.heavy>
11

>  <SCORE.norm>
-0.691258

>  <RMSD>
5.517

$$$$
ligand
 OpenBabel11021811503D
libRbt.so/2013.1/901 2013/11/27
 11 12  0  0  0  0  0  0  0  0999 V2000
   -2.1633  -30.7414   26.0781 N   0  0  0  0  0  0  0  0  0  0  0  0
   -1.1731  -30.1794   26.8144 C   0  0  0  0  0  0  0  0  0  0  0  0
    0.1880  -30.2266   26.3702 N   0  0  0  0  0  0  0  0  0  0  0  0
   -1.4451  -29.5697   27.9819 N   0  0  0  0  0  0  0  0  0  0  0  0
   -2.7327  -29.4904   28.4631 C   0  0  0  0  0  0  0  0  0  0  0  0
   -3.7620  -30.0574   27.7341 C   0  0  0  0  0  0  0  0  0  0  0  0
   -3.4455  -30.7032   26.5018 C   0  0  0  0  0  0  0  0  0  0  0  0
   -4.4861  -31.3023   25.7231 N   0  0  0  0  0  0  0  0  0  0  0  0
   -4.9240  -29.8327   28.4477 N   0  0  0  0  0  0  0  0  0  0  0  0
   -4.6192  -29.1592   29.5751 C   0  0  0  0  0  0  0  0  0  0  0  0
   -3.2896  -28.9398   29.6090 N   0  0  0  0  0  0  0  0  0  0  0  0
  1  7  2  0  0  0  0
  1  2  1  0  0  0  0
  2  3  1  0  0  0  0
  2  4  2  0  0  0  0
  4  5  1  0  0  0  0
  5  6  2  0  0  0  0
  5 11  1  0  0  0  0
  6  7  1  0  0  0  0
  6  9  1  0  0  0  0
  7  8  1  0  0  0  0
  9 10  1  0  0  0  0
 10 11  2  0  0  0  0
M  END
>  <CHROM.1>
-2.87832064,-30.02532692,27.55558828,0.67045586,-0.13186060,-2.08194736

>  <Name>
ligand

>  <RI>
0

>  <Rbt.Current_Directory>
/home/itssahil/PROJECTS/Mol_Feturizer/New_Systems/rnas/4LVZ

>  <Rbt.Executable>
rbdock ($Id: //depot/dev/client3/rdock/2013.1/src/exe/rbdock.cxx#4 $)

>  <Rbt.Library>
libRbt.so (2013.1, Build901 2013/11/27)

>  <Rbt.Parameter_File>
/export/apps/rDock/src/rDock_2013.1_src/data/scripts/dock_solv.prm

>  <Rbt.Receptor>
prm/blind_docking_80.prm

>  <SCORE>
-7.60094

>  <SCORE.INTER>
-7.60094

>  <SCORE.INTER.CONST>
1

>  <SCORE.INTER.POLAR>
0

>  <SCORE.INTER.ROT>
0

>  <SCORE.INTER.SOLV>
20.5707

>  <SCORE.INTER.VDW>
-15.5242

>  <SCORE.INTER.norm>
-0.690995

>  <SCORE.INTRA>
0

>  <SCORE.INTRA.DIHEDRAL>
0

>  <SCORE.INTRA.DIHEDRAL.0>
0

>  <SCORE.INTRA.POLAR>
0

>  <SCORE.INTRA.POLAR.0>
0

>  <SCORE.INTRA.REPUL>
0

>  <SCORE.INTRA.REPUL.0>
0

>  <SCORE.INTRA.SOLV>
0

>  <SCORE.INTRA.SOLV.lig_0>
-49.4056

>  <SCORE.INTRA.VDW>
0

>  <SCORE.INTRA.VDW.0>
0

>  <SCORE.INTRA.norm>
0

>  <SCORE.RESTR>
0

>  <SCORE.RESTR.CAVITY>
0

>  <SCORE.RESTR.norm>
0

>  <SCORE.SYSTEM>
0

>  <SCORE.SYSTEM.CONST>
0

>  <SCORE.SYSTEM.DIHEDRAL>
0

>  <SCORE.SYSTEM.SOLV>
0

>  <SCORE.SYSTEM.norm>
0

>  <SCORE.heavy>
11

>  <SCORE.norm>
-0.690995

>  <RMSD>
11.152

$$$$
ligand
 OpenBabel11021811503D
libRbt.so/2013.1/901 2013/11/27
 11 12  0  0  0  0  0  0  0  0999 V2000
   -1.9504  -29.0809   28.4763 N   0  0  0  0  0  0  0  0  0  0  0  0
   -1.2043  -29.5479   27.4448 C   0  0  0  0  0  0  0  0  0  0  0  0
    0.2028  -29.2874   27.3809 N   0  0  0  0  0  0  0  0  0  0  0  0
   -1.7695  -30.2615   26.4548 N   0  0  0  0  0  0  0  0  0  0  0  0
   -3.1166  -30.5459   26.4586 C   0  0  0  0  0  0  0  0  0  0  0  0
   -3.9021  -30.0798   27.4969 C   0  0  0  0  0  0  0  0  0  0  0  0
   -3.2788  -29.3204   28.5317 C   0  0  0  0  0  0  0  0  0  0  0  0
   -4.0622  -28.8209   29.6201 N   0  0  0  0  0  0  0  0  0  0  0  0
   -5.1916  -30.5054   27.2407 N   0  0  0  0  0  0  0  0  0  0  0  0
   -5.1991  -31.2009   26.0857 C   0  0  0  0  0  0  0  0  0  0  0  0
   -3.9468  -31.2386   25.5884 N   0  0  0  0  0  0  0  0  0  0  0  0
  1  7  2  0  0  0  0
  1  2  1  0  0  0  0
  2  3  1  0  0  0  0
  2  4  2  0  0  0  0
  4  5  1  0  0  0  0
  5  6  2  0  0  0  0
  5 11  1  0  0  0  0
  6  7  1  0  0  0  0
  6  9  1  0  0  0  0
  7  8  1  0  0  0  0
  9 10  1  0  0  0  0
 10 11  2  0  0  0  0
M  END
>  <CHROM.1>
-3.01712713,-29.97962194,27.35323776,0.43575956,0.17685306,1.02642703

>  <Name>
ligand

>  <RI>
0

>  <Rbt.Current_Directory>
/home/itssahil/PROJECTS/Mol_Feturizer/New_Systems/rnas/4LVZ

>  <Rbt.Executable>
rbdock ($Id: //depot/dev/client3/rdock/2013.1/src/exe/rbdock.cxx#4 $)

>  <Rbt.Library>
libRbt.so (2013.1, Build901 2013/11/27)

>  <Rbt.Parameter_File>
/export/apps/rDock/src/rDock_2013.1_src/data/scripts/dock_solv.prm

>  <Rbt.Receptor>
prm/blind_docking_100.prm

>  <SCORE>
-10.6665

>  <SCORE.INTER>
-10.6669

>  <SCORE.INTER.CONST>
1

>  <SCORE.INTER.POLAR>
0

>  <SCORE.INTER.ROT>
0

>  <SCORE.INTER.SOLV>
16.7279

>  <SCORE.INTER.VDW>
-16.2872

>  <SCORE.INTER.norm>
-0.969717

>  <SCORE.INTRA>
0

>  <SCORE.INTRA.DIHEDRAL>
0

>  <SCORE.INTRA.DIHEDRAL.0>
0

>  <SCORE.INTRA.POLAR>
0

>  <SCORE.INTRA.POLAR.0>
0

>  <SCORE.INTRA.REPUL>
0

>  <SCORE.INTRA.REPUL.0>
0

>  <SCORE.INTRA.SOLV>
0

>  <SCORE.INTRA.SOLV.lig_0>
-49.4056

>  <SCORE.INTRA.VDW>
0

>  <SCORE.INTRA.VDW.0>
0

>  <SCORE.INTRA.norm>
0

>  <SCORE.RESTR>
0.000424951

>  <SCORE.RESTR.CAVITY>
0.000424951

>  <SCORE.RESTR.norm>
3.86319e-05

>  <SCORE.SYSTEM>
0

>  <SCORE.SYSTEM.CONST>
0

>  <SCORE.SYSTEM.DIHEDRAL>
0

>  <SCORE.SYSTEM.SOLV>
0

>  <SCORE.SYSTEM.norm>
0

>  <SCORE.heavy>
11

>  <SCORE.norm>
-0.969678

>  <RMSD>
11.247

$$$$
ligand
 OpenBabel11021811503D
libRbt.so/2013.1/901 2013/11/27
 11 12  0  0  0  0  0  0  0  0999 V2000
   -2.0104  -29.0511   28.5049 N   0  0  0  0  0  0  0  0  0  0  0  0
   -1.2462  -29.5075   27.4820 C   0  0  0  0  0  0  0  0  0  0  0  0
    0.1585  -29.2308   27.4362 N   0  0  0  0  0  0  0  0  0  0  0  0
   -1.7907  -30.2256   26.4837 N   0  0  0  0  0  0  0  0  0  0  0  0
   -3.1344  -30.5254   26.4701 C   0  0  0  0  0  0  0  0  0  0  0  0
   -3.9381  -30.0703   27.4993 C   0  0  0  0  0  0  0  0  0  0  0  0
   -3.3366  -29.3058   28.5431 C   0  0  0  0  0  0  0  0  0  0  0  0
   -4.1393  -28.8175   29.6225 N   0  0  0  0  0  0  0  0  0  0  0  0
   -5.2194  -30.5102   27.2262 N   0  0  0  0  0  0  0  0  0  0  0  0
   -5.2044  -31.2034   26.0699 C   0  0  0  0  0  0  0  0  0  0  0  0
   -3.9457  -31.2258   25.5883 N   0  0  0  0  0  0  0  0  0  0  0  0
  1  7  2  0  0  0  0
  1  2  1  0  0  0  0
  2  3  1  0  0  0  0
  2  4  2  0  0  0  0
  4  5  1  0  0  0  0
  5  6  2  0  0  0  0
  5 11  1  0  0  0  0
  6  7  1  0  0  0  0
  6  9  1  0  0  0  0
  7  8  1  0  0  0  0
  9 10  1  0  0  0  0
 10 11  2  0  0  0  0
M  END
>  <CHROM.1>
-3.05266572,-29.95977333,27.36690384,0.45269994,0.18014386,1.02529543

>  <Name>
ligand

>  <RI>
0

>  <Rbt.Current_Directory>
/home/itssahil/PROJECTS/Mol_Feturizer/New_Systems/rnas/4LVZ

>  <Rbt.Executable>
rbdock ($Id: //depot/dev/client3/rdock/2013.1/src/exe/rbdock.cxx#4 $)

>  <Rbt.Library>
libRbt.so (2013.1, Build901 2013/11/27)

>  <Rbt.Parameter_File>
/export/apps/rDock/src/rDock_2013.1_src/data/scripts/dock_solv.prm

>  <Rbt.Receptor>
prm/blind_docking_100.prm

>  <SCORE>
-10.6898

>  <SCORE.INTER>
-10.7101

>  <SCORE.INTER.CONST>
1

>  <SCORE.INTER.POLAR>
0

>  <SCORE.INTER.ROT>
0

>  <SCORE.INTER.SOLV>
16.6614

>  <SCORE.INTER.VDW>
-16.2939

>  <SCORE.INTER.norm>
-0.97365

>  <SCORE.INTRA>
0

>  <SCORE.INTRA.DIHEDRAL>
0

>  <SCORE.INTRA.DIHEDRAL.0>
0

>  <SCORE.INTRA.POLAR>
0

>  <SCORE.INTRA.POLAR.0>
0

>  <SCORE.INTRA.REPUL>
0

>  <SCORE.INTRA.REPUL.0>
0

>  <SCORE.INTRA.SOLV>
0

>  <SCORE.INTRA.SOLV.lig_0>
-49.4056

>  <SCORE.INTRA.VDW>
0

>  <SCORE.INTRA.VDW.0>
0

>  <SCORE.INTRA.norm>
0

>  <SCORE.RESTR>
0.020317

>  <SCORE.RESTR.CAVITY>
0.020317

>  <SCORE.RESTR.norm>
0.001847

>  <SCORE.SYSTEM>
0

>  <SCORE.SYSTEM.CONST>
0

>  <SCORE.SYSTEM.DIHEDRAL>
0

>  <SCORE.SYSTEM.SOLV>
0

>  <SCORE.SYSTEM.norm>
0

>  <SCORE.heavy>
11

>  <SCORE.norm>
-0.971803

>  <RMSD>
11.248

$$$$
ligand
 OpenBabel11021811503D
libRbt.so/2013.1/901 2013/11/27
 11 12  0  0  0  0  0  0  0  0999 V2000
   -1.9484  -29.0868   28.4667 N   0  0  0  0  0  0  0  0  0  0  0  0
   -1.1840  -29.5496   27.4468 C   0  0  0  0  0  0  0  0  0  0  0  0
    0.2218  -29.2781   27.4025 N   0  0  0  0  0  0  0  0  0  0  0  0
   -1.7292  -30.2694   26.4501 N   0  0  0  0  0  0  0  0  0  0  0  0
   -3.0740  -30.5645   26.4353 C   0  0  0  0  0  0  0  0  0  0  0  0
   -3.8779  -30.1029   27.4614 C   0  0  0  0  0  0  0  0  0  0  0  0
   -3.2755  -29.3368   28.5036 C   0  0  0  0  0  0  0  0  0  0  0  0
   -4.0783  -28.8417   29.5798 N   0  0  0  0  0  0  0  0  0  0  0  0
   -5.1603  -30.5392   27.1877 N   0  0  0  0  0  0  0  0  0  0  0  0
   -5.1457  -31.2367   26.0339 C   0  0  0  0  0  0  0  0  0  0  0  0
   -3.8862  -31.2653   25.5546 N   0  0  0  0  0  0  0  0  0  0  0  0
  1  7  2  0  0  0  0
  1  2  1  0  0  0  0
  2  3  1  0  0  0  0
  2  4  2  0  0  0  0
  4  5  1  0  0  0  0
  5  6  2  0  0  0  0
  5 11  1  0  0  0  0
  6  7  1  0  0  0  0
  6  9  1  0  0  0  0
  7  8  1  0  0  0  0
  9 10  1  0  0  0  0
 10 11  2  0  0  0  0
M  END
>  <CHROM.1>
-2.99181258,-29.99594909,27.33019839,0.45233726,0.17622382,1.02174758

>  <Name>
ligand

>  <RI>
0

>  <Rbt.Current_Directory>
/home/itssahil/PROJECTS/Mol_Feturizer/New_Systems/rnas/4LVZ

>  <Rbt.Executable>
rbdock ($Id: //depot/dev/client3/rdock/2013.1/src/exe/rbdock.cxx#4 $)

>  <Rbt.Library>
libRbt.so (2013.1, Build901 2013/11/27)

>  <Rbt.Parameter_File>
/export/apps/rDock/src/rDock_2013.1_src/data/scripts/dock_solv.prm

>  <Rbt.Receptor>
prm/blind_docking_100.prm

>  <SCORE>
-10.6371

>  <SCORE.INTER>
-10.6372

>  <SCORE.INTER.CONST>
1

>  <SCORE.INTER.POLAR>
0

>  <SCORE.INTER.ROT>
0

>  <SCORE.INTER.SOLV>
16.7347

>  <SCORE.INTER.VDW>
-16.2697

>  <SCORE.INTER.norm>
-0.96702

>  <SCORE.INTRA>
0

>  <SCORE.INTRA.DIHEDRAL>
0

>  <SCORE.INTRA.DIHEDRAL.0>
0

>  <SCORE.INTRA.POLAR>
0

>  <SCORE.INTRA.POLAR.0>
0

>  <SCORE.INTRA.REPUL>
0

>  <SCORE.INTRA.REPUL.0>
0

>  <SCORE.INTRA.SOLV>
0

>  <SCORE.INTRA.SOLV.lig_0>
-49.4056

>  <SCORE.INTRA.VDW>
0

>  <SCORE.INTRA.VDW.0>
0

>  <SCORE.INTRA.norm>
0

>  <SCORE.RESTR>
0.000110236

>  <SCORE.RESTR.CAVITY>
0.000110236

>  <SCORE.RESTR.norm>
1.00214e-05

>  <SCORE.SYSTEM>
0

>  <SCORE.SYSTEM.CONST>
0

>  <SCORE.SYSTEM.DIHEDRAL>
0

>  <SCORE.SYSTEM.SOLV>
0

>  <SCORE.SYSTEM.norm>
0

>  <SCORE.heavy>
11

>  <SCORE.norm>
-0.96701

>  <RMSD>
11.248

$$$$
ligand
 OpenBabel11021811503D
libRbt.so/2013.1/901 2013/11/27
 11 12  0  0  0  0  0  0  0  0999 V2000
   -1.9464  -29.0875   28.4653 N   0  0  0  0  0  0  0  0  0  0  0  0
   -1.1808  -29.5581   27.4499 C   0  0  0  0  0  0  0  0  0  0  0  0
    0.2260  -29.2918   27.4081 N   0  0  0  0  0  0  0  0  0  0  0  0
   -1.7258  -30.2809   26.4552 N   0  0  0  0  0  0  0  0  0  0  0  0
   -3.0716  -30.5714   26.4381 C   0  0  0  0  0  0  0  0  0  0  0  0
   -3.8767  -30.1018   27.4596 C   0  0  0  0  0  0  0  0  0  0  0  0
   -3.2745  -29.3326   28.4996 C   0  0  0  0  0  0  0  0  0  0  0  0
   -4.0786  -28.8293   29.5711 N   0  0  0  0  0  0  0  0  0  0  0  0
   -5.1599  -30.5350   27.1844 N   0  0  0  0  0  0  0  0  0  0  0  0
   -5.1446  -31.2382   26.0342 C   0  0  0  0  0  0  0  0  0  0  0  0
   -3.8838  -31.2736   25.5586 N   0  0  0  0  0  0  0  0  0  0  0  0
  1  7  2  0  0  0  0
  1  2  1  0  0  0  0
  2  3  1  0  0  0  0
  2  4  2  0  0  0  0
  4  5  1  0  0  0  0
  5  6  2  0  0  0  0
  5 11  1  0  0  0  0
  6  7  1  0  0  0  0
  6  9  1  0  0  0  0
  7  8  1  0  0  0  0
  9 10  1  0  0  0  0
 10 11  2  0  0  0  0
M  END
>  <CHROM.1>
-2.98990583,-29.99863417,27.33037365,0.45288868,0.17173571,1.01667236

>  <Name>
ligand

>  <RI>
0

>  <Rbt.Current_Directory>
/home/itssahil/PROJECTS/Mol_Feturizer/New_Systems/rnas/4LVZ

>  <Rbt.Executable>
rbdock ($Id: //depot/dev/client3/rdock/2013.1/src/exe/rbdock.cxx#4 $)

>  <Rbt.Library>
libRbt.so (2013.1, Build901 2013/11/27)

>  <Rbt.Parameter_File>
/export/apps/rDock/src/rDock_2013.1_src/data/scripts/dock_solv.prm

>  <Rbt.Receptor>
prm/blind_docking_100.prm

>  <SCORE>
-10.6472

>  <SCORE.INTER>
-10.6481

>  <SCORE.INTER.CONST>
1

>  <SCORE.INTER.POLAR>
0

>  <SCORE.INTER.ROT>
0

>  <SCORE.INTER.SOLV>
16.703

>  <SCORE.INTER.VDW>
-16.2664

>  <SCORE.INTER.norm>
-0.968011

>  <SCORE.INTRA>
0

>  <SCORE.INTRA.DIHEDRAL>
0

>  <SCORE.INTRA.DIHEDRAL.0>
0

>  <SCORE.INTRA.POLAR>
0

>  <SCORE.INTRA.POLAR.0>
0

>  <SCORE.INTRA.REPUL>
0

>  <SCORE.INTRA.REPUL.0>
0

>  <SCORE.INTRA.SOLV>
0

>  <SCORE.INTRA.SOLV.lig_0>
-49.4056

>  <SCORE.INTRA.VDW>
0

>  <SCORE.INTRA.VDW.0>
0

>  <SCORE.INTRA.norm>
0

>  <SCORE.RESTR>
0.000895017

>  <SCORE.RESTR.CAVITY>
0.000895017

>  <SCORE.RESTR.norm>
8.13652e-05

>  <SCORE.SYSTEM>
0

>  <SCORE.SYSTEM.CONST>
0

>  <SCORE.SYSTEM.DIHEDRAL>
0

>  <SCORE.SYSTEM.SOLV>
0

>  <SCORE.SYSTEM.norm>
0

>  <SCORE.heavy>
11

>  <SCORE.norm>
-0.967929

>  <RMSD>
11.249

$$$$
ligand
 OpenBabel11021811503D
libRbt.so/2013.1/901 2013/11/27
 11 12  0  0  0  0  0  0  0  0999 V2000
   -1.9470  -29.0846   28.4710 N   0  0  0  0  0  0  0  0  0  0  0  0
   -1.2015  -29.5532   27.4398 C   0  0  0  0  0  0  0  0  0  0  0  0
    0.2059  -29.2943   27.3756 N   0  0  0  0  0  0  0  0  0  0  0  0
   -1.7674  -30.2670   26.4503 N   0  0  0  0  0  0  0  0  0  0  0  0
   -3.1148  -30.5500   26.4544 C   0  0  0  0  0  0  0  0  0  0  0  0
   -3.8998  -30.0823   27.4924 C   0  0  0  0  0  0  0  0  0  0  0  0
   -3.2757  -29.3227   28.5265 C   0  0  0  0  0  0  0  0  0  0  0  0
   -4.0586  -28.8216   29.6146 N   0  0  0  0  0  0  0  0  0  0  0  0
   -5.1898  -30.5068   27.2366 N   0  0  0  0  0  0  0  0  0  0  0  0
   -5.1981  -31.2031   26.0821 C   0  0  0  0  0  0  0  0  0  0  0  0
   -3.9458  -31.2425   25.5848 N   0  0  0  0  0  0  0  0  0  0  0  0
  1  7  2  0  0  0  0
  1  2  1  0  0  0  0
  2  3  1  0  0  0  0
  2  4  2  0  0  0  0
  4  5  1  0  0  0  0
  5  6  2  0  0  0  0
  5 11  1  0  0  0  0
  6  7  1  0  0  0  0
  6  9  1  0  0  0  0
  7  8  1  0  0  0  0
  9 10  1  0  0  0  0
 10 11  2  0  0  0  0
M  END
>  <CHROM.1>
-3.01476086,-29.98314668,27.34860595,0.43519582,0.17597213,1.02575288

>  <Name>
ligand

>  <RI>
0

>  <Rbt.Current_Directory>
/home/itssahil/PROJECTS/Mol_Feturizer/New_Systems/rnas/4LVZ

>  <Rbt.Executable>
rbdock ($Id: //depot/dev/client3/rdock/2013.1/src/exe/rbdock.cxx#4 $)

>  <Rbt.Library>
libRbt.so (2013.1, Build901 2013/11/27)

>  <Rbt.Parameter_File>
/export/apps/rDock/src/rDock_2013.1_src/data/scripts/dock_solv.prm

>  <Rbt.Receptor>
prm/blind_docking_100.prm

>  <SCORE>
-10.6675

>  <SCORE.INTER>
-10.6675

>  <SCORE.INTER.CONST>
1

>  <SCORE.INTER.POLAR>
0

>  <SCORE.INTER.ROT>
0

>  <SCORE.INTER.SOLV>
16.7161

>  <SCORE.INTER.VDW>
-16.2837

>  <SCORE.INTER.norm>
-0.969773

>  <SCORE.INTRA>
0

>  <SCORE.INTRA.DIHEDRAL>
0

>  <SCORE.INTRA.DIHEDRAL.0>
0

>  <SCORE.INTRA.POLAR>
0

>  <SCORE.INTRA.POLAR.0>
0

>  <SCORE.INTRA.REPUL>
0

>  <SCORE.INTRA.REPUL.0>
0

>  <SCORE.INTRA.SOLV>
0

>  <SCORE.INTRA.SOLV.lig_0>
-49.4056

>  <SCORE.INTRA.VDW>
0

>  <SCORE.INTRA.VDW.0>
0

>  <SCORE.INTRA.norm>
0

>  <SCORE.RESTR>
1.62678e-05

>  <SCORE.RESTR.CAVITY>
1.62678e-05

>  <SCORE.RESTR.norm>
1.47889e-06

>  <SCORE.SYSTEM>
0

>  <SCORE.SYSTEM.CONST>
0

>  <SCORE.SYSTEM.DIHEDRAL>
0

>  <SCORE.SYSTEM.SOLV>
0

>  <SCORE.SYSTEM.norm>
0

>  <SCORE.heavy>
11

>  <SCORE.norm>
-0.969772

>  <RMSD>
11.249

$$$$
ligand
 OpenBabel11021811503D
libRbt.so/2013.1/901 2013/11/27
 11 12  0  0  0  0  0  0  0  0999 V2000
   -1.9535  -29.0850   28.4668 N   0  0  0  0  0  0  0  0  0  0  0  0
   -1.2034  -29.5560   27.4402 C   0  0  0  0  0  0  0  0  0  0  0  0
    0.2038  -29.2947   27.3800 N   0  0  0  0  0  0  0  0  0  0  0  0
   -1.7644  -30.2744   26.4513 N   0  0  0  0  0  0  0  0  0  0  0  0
   -3.1113  -30.5599   26.4516 C   0  0  0  0  0  0  0  0  0  0  0  0
   -3.9009  -30.0898   27.4850 C   0  0  0  0  0  0  0  0  0  0  0  0
   -3.2819  -29.3253   28.5185 C   0  0  0  0  0  0  0  0  0  0  0  0
   -4.0696  -28.8216   29.6019 N   0  0  0  0  0  0  0  0  0  0  0  0
   -5.1892  -30.5177   27.2261 N   0  0  0  0  0  0  0  0  0  0  0  0
   -5.1920  -31.2183   26.0742 C   0  0  0  0  0  0  0  0  0  0  0  0
   -3.9379  -31.2572   25.5815 N   0  0  0  0  0  0  0  0  0  0  0  0
  1  7  2  0  0  0  0
  1  2  1  0  0  0  0
  2  3  1  0  0  0  0
  2  4  2  0  0  0  0
  4  5  1  0  0  0  0
  5  6  2  0  0  0  0
  5 11  1  0  0  0  0
  6  7  1  0  0  0  0
  6  9  1  0  0  0  0
  7  8  1  0  0  0  0
  9 10  1  0  0  0  0
 10 11  2  0  0  0  0
M  END
>  <CHROM.1>
-3.01552036,-29.98960236,27.34401702,0.43928701,0.17568455,1.02133874

>  <Name>
ligand

>  <RI>
0

>  <Rbt.Current_Directory>
/home/itssahil/PROJECTS/Mol_Feturizer/New_Systems/rnas/4LVZ

>  <Rbt.Executable>
rbdock ($Id: //depot/dev/client3/rdock/2013.1/src/exe/rbdock.cxx#4 $)

>  <Rbt.Library>
libRbt.so (2013.1, Build901 2013/11/27)

>  <Rbt.Parameter_File>
/export/apps/rDock/src/rDock_2013.1_src/data/scripts/dock_solv.prm

>  <Rbt.Receptor>
prm/blind_docking_100.prm

>  <SCORE>
-10.6769

>  <SCORE.INTER>
-10.6806

>  <SCORE.INTER.CONST>
1

>  <SCORE.INTER.POLAR>
0

>  <SCORE.INTER.ROT>
0

>  <SCORE.INTER.SOLV>
16.681

>  <SCORE.INTER.VDW>
-16.2807

>  <SCORE.INTER.norm>
-0.970962

>  <SCORE.INTRA>
0

>  <SCORE.INTRA.DIHEDRAL>
0

>  <SCORE.INTRA.DIHEDRAL.0>
0

>  <SCORE.INTRA.POLAR>
0

>  <SCORE.INTRA.POLAR.0>
0

>  <SCORE.INTRA.REPUL>
0

>  <SCORE.INTRA.REPUL.0>
0

>  <SCORE.INTRA.SOLV>
0

>  <SCORE.INTRA.SOLV.lig_0>
-49.4056

>  <SCORE.INTRA.VDW>
0

>  <SCORE.INTRA.VDW.0>
0

>  <SCORE.INTRA.norm>
0

>  <SCORE.RESTR>
0.00364014

>  <SCORE.RESTR.CAVITY>
0.00364014

>  <SCORE.RESTR.norm>
0.000330922

>  <SCORE.SYSTEM>
0

>  <SCORE.SYSTEM.CONST>
0

>  <SCORE.SYSTEM.DIHEDRAL>
0

>  <SCORE.SYSTEM.SOLV>
0

>  <SCORE.SYSTEM.norm>
0

>  <SCORE.heavy>
11

>  <SCORE.norm>
-0.970631

>  <RMSD>
11.254

$$$$
ligand
 OpenBabel11021811503D
libRbt.so/2013.1/901 2013/11/27
 11 12  0  0  0  0  0  0  0  0999 V2000
   -1.9423  -29.0930   28.4634 N   0  0  0  0  0  0  0  0  0  0  0  0
   -1.1942  -29.5700   27.4380 C   0  0  0  0  0  0  0  0  0  0  0  0
    0.2143  -29.3161   27.3779 N   0  0  0  0  0  0  0  0  0  0  0  0
   -1.7585  -30.2877   26.4504 N   0  0  0  0  0  0  0  0  0  0  0  0
   -3.1069  -30.5662   26.4508 C   0  0  0  0  0  0  0  0  0  0  0  0
   -3.8945  -30.0898   27.4828 C   0  0  0  0  0  0  0  0  0  0  0  0
   -3.2719  -29.3263   28.5150 C   0  0  0  0  0  0  0  0  0  0  0  0
   -4.0575  -28.8163   29.5970 N   0  0  0  0  0  0  0  0  0  0  0  0
   -5.1848  -30.5116   27.2243 N   0  0  0  0  0  0  0  0  0  0  0  0
   -5.1908  -31.2146   26.0739 C   0  0  0  0  0  0  0  0  0  0  0  0
   -3.9367  -31.2610   25.5818 N   0  0  0  0  0  0  0  0  0  0  0  0
  1  7  2  0  0  0  0
  1  2  1  0  0  0  0
  2  3  1  0  0  0  0
  2  4  2  0  0  0  0
  4  5  1  0  0  0  0
  5  6  2  0  0  0  0
  5 11  1  0  0  0  0
  6  7  1  0  0  0  0
  6  9  1  0  0  0  0
  7  8  1  0  0  0  0
  9 10  1  0  0  0  0
 10 11  2  0  0  0  0
M  END
>  <CHROM.1>
-3.00851350,-29.99449241,27.34201114,0.43690588,0.17105559,1.01963176

>  <Name>
ligand

>  <RI>
0

>  <Rbt.Current_Directory>
/home/itssahil/PROJECTS/Mol_Feturizer/New_Systems/rnas/4LVZ

>  <Rbt.Executable>
rbdock ($Id: //depot/dev/client3/rdock/2013.1/src/exe/rbdock.cxx#4 $)

>  <Rbt.Library>
libRbt.so (2013.1, Build901 2013/11/27)

>  <Rbt.Parameter_File>
/export/apps/rDock/src/rDock_2013.1_src/data/scripts/dock_solv.prm

>  <Rbt.Receptor>
prm/blind_docking_100.prm

>  <SCORE>
-10.6445

>  <SCORE.INTER>
-10.6464

>  <SCORE.INTER.CONST>
1

>  <SCORE.INTER.POLAR>
0

>  <SCORE.INTER.ROT>
0

>  <SCORE.INTER.SOLV>
16.6725

>  <SCORE.INTER.VDW>
-16.2551

>  <SCORE.INTER.norm>
-0.967858

>  <SCORE.INTRA>
0

>  <SCORE.INTRA.DIHEDRAL>
0

>  <SCORE.INTRA.DIHEDRAL.0>
0

>  <SCORE.INTRA.POLAR>
0

>  <SCORE.INTRA.POLAR.0>
0

>  <SCORE.INTRA.REPUL>
0

>  <SCORE.INTRA.REPUL.0>
0

>  <SCORE.INTRA.SOLV>
0

>  <SCORE.INTRA.SOLV.lig_0>
-49.4056

>  <SCORE.INTRA.VDW>
0

>  <SCORE.INTRA.VDW.0>
0

>  <SCORE.INTRA.norm>
0

>  <SCORE.RESTR>
0.00192667

>  <SCORE.RESTR.CAVITY>
0.00192667

>  <SCORE.RESTR.norm>
0.000175152

>  <SCORE.SYSTEM>
0

>  <SCORE.SYSTEM.CONST>
0

>  <SCORE.SYSTEM.DIHEDRAL>
0

>  <SCORE.SYSTEM.SOLV>
0

>  <SCORE.SYSTEM.norm>
0

>  <SCORE.heavy>
11

>  <SCORE.norm>
-0.967683

>  <RMSD>
11.255

$$$$
ligand
 OpenBabel11021811503D
libRbt.so/2013.1/901 2013/11/27
 11 12  0  0  0  0  0  0  0  0999 V2000
   -1.9557  -29.1016   28.4432 N   0  0  0  0  0  0  0  0  0  0  0  0
   -1.1977  -29.5740   27.4231 C   0  0  0  0  0  0  0  0  0  0  0  0
    0.2092  -29.3093   27.3714 N   0  0  0  0  0  0  0  0  0  0  0  0
   -1.7503  -30.2972   26.4329 N   0  0  0  0  0  0  0  0  0  0  0  0
   -3.0965  -30.5861   26.4253 C   0  0  0  0  0  0  0  0  0  0  0  0
   -3.8941  -30.1146   27.4519 C   0  0  0  0  0  0  0  0  0  0  0  0
   -3.2838  -29.3451   28.4869 C   0  0  0  0  0  0  0  0  0  0  0  0
   -4.0800  -28.8398   29.5634 N   0  0  0  0  0  0  0  0  0  0  0  0
   -5.1795  -30.5465   27.1859 N   0  0  0  0  0  0  0  0  0  0  0  0
   -5.1730  -31.2509   26.0363 C   0  0  0  0  0  0  0  0  0  0  0  0
   -3.9156  -31.2883   25.5521 N   0  0  0  0  0  0  0  0  0  0  0  0
  1  7  2  0  0  0  0
  1  2  1  0  0  0  0
  2  3  1  0  0  0  0
  2  4  2  0  0  0  0
  4  5  1  0  0  0  0
  5  6  2  0  0  0  0
  5 11  1  0  0  0  0
  6  7  1  0  0  0  0
  6  9  1  0  0  0  0
  7  8  1  0  0  0  0
  9 10  1  0  0  0  0
 10 11  2  0  0  0  0
M  END
>  <CHROM.1>
-3.00802065,-30.01256793,27.31641368,0.44633953,0.17437494,1.01681088

>  <Name>
ligand

>  <RI>
0

>  <Rbt.Current_Directory>
/home/itssahil/PROJECTS/Mol_Feturizer/New_Systems/rnas/4LVZ

>  <Rbt.Executable>
rbdock ($Id: //depot/dev/client3/rdock/2013.1/src/exe/rbdock.cxx#4 $)

>  <Rbt.Library>
libRbt.so (2013.1, Build901 2013/11/27)

>  <Rbt.Parameter_File>
/export/apps/rDock/src/rDock_2013.1_src/data/scripts/dock_solv.prm

>  <Rbt.Receptor>
prm/blind_docking_100.prm

>  <SCORE>
-10.6741

>  <SCORE.INTER>
-10.6869

>  <SCORE.INTER.CONST>
1

>  <SCORE.INTER.POLAR>
0

>  <SCORE.INTER.ROT>
0

>  <SCORE.INTER.SOLV>
16.5969

>  <SCORE.INTER.VDW>
-16.2569

>  <SCORE.INTER.norm>
-0.971535

>  <SCORE.INTRA>
0

>  <SCORE.INTRA.DIHEDRAL>
0

>  <SCORE.INTRA.DIHEDRAL.0>
0

>  <SCORE.INTRA.POLAR>
0

>  <SCORE.INTRA.POLAR.0>
0

>  <SCORE.INTRA.REPUL>
0

>  <SCORE.INTRA.REPUL.0>
0

>  <SCORE.INTRA.SOLV>
0

>  <SCORE.INTRA.SOLV.lig_0>
-49.4056

>  <SCORE.INTRA.VDW>
0

>  <SCORE.INTRA.VDW.0>
0

>  <SCORE.INTRA.norm>
0

>  <SCORE.RESTR>
0.0127804

>  <SCORE.RESTR.CAVITY>
0.0127804

>  <SCORE.RESTR.norm>
0.00116185

>  <SCORE.SYSTEM>
0

>  <SCORE.SYSTEM.CONST>
0

>  <SCORE.SYSTEM.DIHEDRAL>
0

>  <SCORE.SYSTEM.SOLV>
0

>  <SCORE.SYSTEM.norm>
0

>  <SCORE.heavy>
11

>  <SCORE.norm>
-0.970374

>  <RMSD>
11.268

$$$$
ligand
 OpenBabel11021811503D
libRbt.so/2013.1/901 2013/11/27
 11 12  0  0  0  0  0  0  0  0999 V2000
   -2.2741  -28.9849   28.6168 N   0  0  0  0  0  0  0  0  0  0  0  0
   -1.4451  -29.3762   27.6177 C   0  0  0  0  0  0  0  0  0  0  0  0
   -0.0562  -29.0264   27.6381 N   0  0  0  0  0  0  0  0  0  0  0  0
   -1.9091  -30.0970   26.5814 N   0  0  0  0  0  0  0  0  0  0  0  0
   -3.2335  -30.4654   26.5038 C   0  0  0  0  0  0  0  0  0  0  0  0
   -4.1021  -30.0776   27.5075 C   0  0  0  0  0  0  0  0  0  0  0  0
   -3.5854  -29.3086   28.5928 C   0  0  0  0  0  0  0  0  0  0  0  0
   -4.4568  -28.8888   29.6474 N   0  0  0  0  0  0  0  0  0  0  0  0
   -5.3460  -30.5763   27.1703 N   0  0  0  0  0  0  0  0  0  0  0  0
   -5.2466  -31.2395   26.0007 C   0  0  0  0  0  0  0  0  0  0  0  0
   -3.9695  -31.1852   25.5729 N   0  0  0  0  0  0  0  0  0  0  0  0
  1  7  2  0  0  0  0
  1  2  1  0  0  0  0
  2  3  1  0  0  0  0
  2  4  2  0  0  0  0
  4  5  1  0  0  0  0
  5  6  2  0  0  0  0
  5 11  1  0  0  0  0
  6  7  1  0  0  0  0
  6  9  1  0  0  0  0
  7  8  1  0  0  0  0
  9 10  1  0  0  0  0
 10 11  2  0  0  0  0
M  END
>  <CHROM.1>
-3.21889925,-29.91827961,27.41557498,0.51684798,0.20323363,1.03628587

>  <Name>
ligand

>  <RI>
0

>  <Rbt.Current_Directory>
/home/itssahil/PROJECTS/Mol_Feturizer/New_Systems/rnas/4LVZ

>  <Rbt.Executable>
rbdock ($Id: //depot/dev/client3/rdock/2013.1/src/exe/rbdock.cxx#4 $)

>  <Rbt.Library>
libRbt.so (2013.1, Build901 2013/11/27)

>  <Rbt.Parameter_File>
/export/apps/rDock/src/rDock_2013.1_src/data/scripts/dock_solv.prm

>  <Rbt.Receptor>
prm/blind_docking_80.prm

>  <SCORE>
-10.9393

>  <SCORE.INTER>
-10.9576

>  <SCORE.INTER.CONST>
1

>  <SCORE.INTER.POLAR>
0

>  <SCORE.INTER.ROT>
0

>  <SCORE.INTER.SOLV>
16.1842

>  <SCORE.INTER.VDW>
-16.2998

>  <SCORE.INTER.norm>
-0.996149

>  <SCORE.INTRA>
0

>  <SCORE.INTRA.DIHEDRAL>
0

>  <SCORE.INTRA.DIHEDRAL.0>
0

>  <SCORE.INTRA.POLAR>
0

>  <SCORE.INTRA.POLAR.0>
0

>  <SCORE.INTRA.REPUL>
0

>  <SCORE.INTRA.REPUL.0>
0

>  <SCORE.INTRA.SOLV>
0

>  <SCORE.INTRA.SOLV.lig_0>
-49.4056

>  <SCORE.INTRA.VDW>
0

>  <SCORE.INTRA.VDW.0>
0

>  <SCORE.INTRA.norm>
0

>  <SCORE.RESTR>
0.0183033

>  <SCORE.RESTR.CAVITY>
0.0183033

>  <SCORE.RESTR.norm>
0.00166393

>  <SCORE.SYSTEM>
0

>  <SCORE.SYSTEM.CONST>
0

>  <SCORE.SYSTEM.DIHEDRAL>
0

>  <SCORE.SYSTEM.SOLV>
0

>  <SCORE.SYSTEM.norm>
0

>  <SCORE.heavy>
11

>  <SCORE.norm>
-0.994485

>  <RMSD>
11.297

$$$$
ligand
 OpenBabel11021811503D
libRbt.so/2013.1/901 2013/11/27
 11 12  0  0  0  0  0  0  0  0999 V2000
   -2.3005  -28.9624   28.5940 N   0  0  0  0  0  0  0  0  0  0  0  0
   -1.4495  -29.3756   27.6226 C   0  0  0  0  0  0  0  0  0  0  0  0
   -0.0625  -29.0201   27.6631 N   0  0  0  0  0  0  0  0  0  0  0  0
   -1.8894  -30.1238   26.5952 N   0  0  0  0  0  0  0  0  0  0  0  0
   -3.2106  -30.4990   26.4992 C   0  0  0  0  0  0  0  0  0  0  0  0
   -4.1013  -30.0894   27.4745 C   0  0  0  0  0  0  0  0  0  0  0  0
   -3.6101  -29.2916   28.5507 C   0  0  0  0  0  0  0  0  0  0  0  0
   -4.5048  -28.8487   29.5760 N   0  0  0  0  0  0  0  0  0  0  0  0
   -5.3363  -30.6011   27.1240 N   0  0  0  0  0  0  0  0  0  0  0  0
   -5.2102  -31.2930   25.9737 C   0  0  0  0  0  0  0  0  0  0  0  0
   -3.9246  -31.2446   25.5715 N   0  0  0  0  0  0  0  0  0  0  0  0
  1  7  2  0  0  0  0
  1  2  1  0  0  0  0
  2  3  1  0  0  0  0
  2  4  2  0  0  0  0
  4  5  1  0  0  0  0
  5  6  2  0  0  0  0
  5 11  1  0  0  0  0
  6  7  1  0  0  0  0
  6  9  1  0  0  0  0
  7  8  1  0  0  0  0
  9 10  1  0  0  0  0
 10 11  2  0  0  0  0
M  END
>  <CHROM.1>
-3.21695699,-29.92915850,27.39706369,0.53692180,0.19527687,1.00724053

>  <Name>
ligand

>  <RI>
0

>  <Rbt.Current_Directory>
/home/itssahil/PROJECTS/Mol_Feturizer/New_Systems/rnas/4LVZ

>  <Rbt.Executable>
rbdock ($Id: //depot/dev/client3/rdock/2013.1/src/exe/rbdock.cxx#4 $)

>  <Rbt.Library>
libRbt.so (2013.1, Build901 2013/11/27)

>  <Rbt.Parameter_File>
/export/apps/rDock/src/rDock_2013.1_src/data/scripts/dock_solv.prm

>  <Rbt.Receptor>
prm/blind_docking_60.prm

>  <SCORE>
-10.9927

>  <SCORE.INTER>
-11.0205

>  <SCORE.INTER.CONST>
1

>  <SCORE.INTER.POLAR>
0

>  <SCORE.INTER.ROT>
0

>  <SCORE.INTER.SOLV>
16.1384

>  <SCORE.INTER.VDW>
-16.3264

>  <SCORE.INTER.norm>
-1.00186

>  <SCORE.INTRA>
0

>  <SCORE.INTRA.DIHEDRAL>
0

>  <SCORE.INTRA.DIHEDRAL.0>
0

>  <SCORE.INTRA.POLAR>
0

>  <SCORE.INTRA.POLAR.0>
0

>  <SCORE.INTRA.REPUL>
0

>  <SCORE.INTRA.REPUL.0>
0

>  <SCORE.INTRA.SOLV>
0

>  <SCORE.INTRA.SOLV.lig_0>
-49.4056

>  <SCORE.INTRA.VDW>
0

>  <SCORE.INTRA.VDW.0>
0

>  <SCORE.INTRA.norm>
0

>  <SCORE.RESTR>
0.0277722

>  <SCORE.RESTR.CAVITY>
0.0277722

>  <SCORE.RESTR.norm>
0.00252475

>  <SCORE.SYSTEM>
0

>  <SCORE.SYSTEM.CONST>
0

>  <SCORE.SYSTEM.DIHEDRAL>
0

>  <SCORE.SYSTEM.SOLV>
0

>  <SCORE.SYSTEM.norm>
0

>  <SCORE.heavy>
11

>  <SCORE.norm>
-0.999335

>  <RMSD>
11.302

$$$$
ligand
 OpenBabel11021811503D
libRbt.so/2013.1/901 2013/11/27
 11 12  0  0  0  0  0  0  0  0999 V2000
   -2.2626  -29.0081   28.6312 N   0  0  0  0  0  0  0  0  0  0  0  0
   -1.4296  -29.4242   27.6456 C   0  0  0  0  0  0  0  0  0  0  0  0
   -0.0355  -29.0962   27.6768 N   0  0  0  0  0  0  0  0  0  0  0  0
   -1.8941  -30.1495   26.6127 N   0  0  0  0  0  0  0  0  0  0  0  0
   -3.2233  -30.4977   26.5251 C   0  0  0  0  0  0  0  0  0  0  0  0
   -4.0961  -30.0845   27.5150 C   0  0  0  0  0  0  0  0  0  0  0  0
   -3.5787  -29.3113   28.5968 C   0  0  0  0  0  0  0  0  0  0  0  0
   -4.4543  -28.8654   29.6371 N   0  0  0  0  0  0  0  0  0  0  0  0
   -5.3442  -30.5673   27.1701 N   0  0  0  0  0  0  0  0  0  0  0  0
   -5.2431  -31.2456   26.0094 C   0  0  0  0  0  0  0  0  0  0  0  0
   -3.9609  -31.2165   25.5947 N   0  0  0  0  0  0  0  0  0  0  0  0
  1  7  2  0  0  0  0
  1  2  1  0  0  0  0
  2  3  1  0  0  0  0
  2  4  2  0  0  0  0
  4  5  1  0  0  0  0
  5  6  2  0  0  0  0
  5 11  1  0  0  0  0
  6  7  1  0  0  0  0
  6  9  1  0  0  0  0
  7  8  1  0  0  0  0
  9 10  1  0  0  0  0
 10 11  2  0  0  0  0
M  END
>  <CHROM.1>
-3.20957199,-29.94029582,27.43066292,0.51778002,0.18410204,1.02455621

>  <Name>
ligand

>  <RI>
0

>  <Rbt.Current_Directory>
/home/itssahil/PROJECTS/Mol_Feturizer/New_Systems/rnas/4LVZ

>  <Rbt.Executable>
rbdock ($Id: //depot/dev/client3/rdock/2013.1/src/exe/rbdock.cxx#4 $)

>  <Rbt.Library>
libRbt.so (2013.1, Build901 2013/11/27)

>  <Rbt.Parameter_File>
/export/apps/rDock/src/rDock_2013.1_src/data/scripts/dock_solv.prm

>  <Rbt.Receptor>
prm/blind_docking_80.prm

>  <SCORE>
-10.9659

>  <SCORE.INTER>
-10.9877

>  <SCORE.INTER.CONST>
1

>  <SCORE.INTER.POLAR>
0

>  <SCORE.INTER.ROT>
0

>  <SCORE.INTER.SOLV>
16.1641

>  <SCORE.INTER.VDW>
-16.3131

>  <SCORE.INTER.norm>
-0.998878

>  <SCORE.INTRA>
0

>  <SCORE.INTRA.DIHEDRAL>
0

>  <SCORE.INTRA.DIHEDRAL.0>
0

>  <SCORE.INTRA.POLAR>
0

>  <SCORE.INTRA.POLAR.0>
0

>  <SCORE.INTRA.REPUL>
0

>  <SCORE.INTRA.REPUL.0>
0

>  <SCORE.INTRA.SOLV>
0

>  <SCORE.INTRA.SOLV.lig_0>
-49.4056

>  <SCORE.INTRA.VDW>
0

>  <SCORE.INTRA.VDW.0>
0

>  <SCORE.INTRA.norm>
0

>  <SCORE.RESTR>
0.0217162

>  <SCORE.RESTR.CAVITY>
0.0217162

>  <SCORE.RESTR.norm>
0.0019742

>  <SCORE.SYSTEM>
0

>  <SCORE.SYSTEM.CONST>
0

>  <SCORE.SYSTEM.DIHEDRAL>
0

>  <SCORE.SYSTEM.SOLV>
0

>  <SCORE.SYSTEM.norm>
0

>  <SCORE.heavy>
11

>  <SCORE.norm>
-0.996904

>  <RMSD>
11.312

$$$$
ligand
 OpenBabel11021811503D
libRbt.so/2013.1/901 2013/11/27
 11 12  0  0  0  0  0  0  0  0999 V2000
   -2.2685  -29.0082   28.6270 N   0  0  0  0  0  0  0  0  0  0  0  0
   -1.4407  -29.4248   27.6371 C   0  0  0  0  0  0  0  0  0  0  0  0
   -0.0458  -29.0997   27.6625 N   0  0  0  0  0  0  0  0  0  0  0  0
   -1.9113  -30.1481   26.6055 N   0  0  0  0  0  0  0  0  0  0  0  0
   -3.2416  -30.4935   26.5236 C   0  0  0  0  0  0  0  0  0  0  0  0
   -4.1091  -30.0796   27.5178 C   0  0  0  0  0  0  0  0  0  0  0  0
   -3.5853  -29.3087   28.5981 C   0  0  0  0  0  0  0  0  0  0  0  0
   -4.4553  -28.8622   29.6429 N   0  0  0  0  0  0  0  0  0  0  0  0
   -5.3597  -30.5596   27.1780 N   0  0  0  0  0  0  0  0  0  0  0  0
   -5.2652  -31.2367   26.0161 C   0  0  0  0  0  0  0  0  0  0  0  0
   -3.9848  -31.2098   25.5957 N   0  0  0  0  0  0  0  0  0  0  0  0
  1  7  2  0  0  0  0
  1  2  1  0  0  0  0
  2  3  1  0  0  0  0
  2  4  2  0  0  0  0
  4  5  1  0  0  0  0
  5  6  2  0  0  0  0
  5 11  1  0  0  0  0
  6  7  1  0  0  0  0
  6  9  1  0  0  0  0
  7  8  1  0  0  0  0
  9 10  1  0  0  0  0
 10 11  2  0  0  0  0
M  END
>  <CHROM.1>
-3.22268182,-29.93715628,27.42965393,0.51280250,0.18471331,1.02659559

>  <Name>
ligand

>  <RI>
0

>  <Rbt.Current_Directory>
/home/itssahil/PROJECTS/Mol_Feturizer/New_Systems/rnas/4LVZ

>  <Rbt.Executable>
rbdock ($Id: //depot/dev/client3/rdock/2013.1/src/exe/rbdock.cxx#4 $)

>  <Rbt.Library>
libRbt.so (2013.1, Build901 2013/11/27)

>  <Rbt.Parameter_File>
/export/apps/rDock/src/rDock_2013.1_src/data/scripts/dock_solv.prm

>  <Rbt.Receptor>
prm/blind_docking_60.prm

>  <SCORE>
-11.0125

>  <SCORE.INTER>
-11.0426

>  <SCORE.INTER.CONST>
1

>  <SCORE.INTER.POLAR>
0

>  <SCORE.INTER.ROT>
0

>  <SCORE.INTER.SOLV>
16.1194

>  <SCORE.INTER.VDW>
-16.3349

>  <SCORE.INTER.norm>
-1.00387

>  <SCORE.INTRA>
0

>  <SCORE.INTRA.DIHEDRAL>
0

>  <SCORE.INTRA.DIHEDRAL.0>
0

>  <SCORE.INTRA.POLAR>
0

>  <SCORE.INTRA.POLAR.0>
0

>  <SCORE.INTRA.REPUL>
0

>  <SCORE.INTRA.REPUL.0>
0

>  <SCORE.INTRA.SOLV>
0

>  <SCORE.INTRA.SOLV.lig_0>
-49.4056

>  <SCORE.INTRA.VDW>
0

>  <SCORE.INTRA.VDW.0>
0

>  <SCORE.INTRA.norm>
0

>  <SCORE.RESTR>
0.0300556

>  <SCORE.RESTR.CAVITY>
0.0300556

>  <SCORE.RESTR.norm>
0.00273233

>  <SCORE.SYSTEM>
0

>  <SCORE.SYSTEM.CONST>
0

>  <SCORE.SYSTEM.DIHEDRAL>
0

>  <SCORE.SYSTEM.SOLV>
0

>  <SCORE.SYSTEM.norm>
0

>  <SCORE.heavy>
11

>  <SCORE.norm>
-1.00114

>  <RMSD>
11.315

$$$$
ligand
 OpenBabel11021811503D
libRbt.so/2013.1/901 2013/11/27
 11 12  0  0  0  0  0  0  0  0999 V2000
   -2.2586  -29.0238   28.5898 N   0  0  0  0  0  0  0  0  0  0  0  0
   -1.4413  -29.4345   27.5888 C   0  0  0  0  0  0  0  0  0  0  0  0
   -0.0466  -29.1079   27.6004 N   0  0  0  0  0  0  0  0  0  0  0  0
   -1.9225  -30.1529   26.5587 N   0  0  0  0  0  0  0  0  0  0  0  0
   -3.2532  -30.4994   26.4896 C   0  0  0  0  0  0  0  0  0  0  0  0
   -4.1102  -30.0916   27.4954 C   0  0  0  0  0  0  0  0  0  0  0  0
   -3.5753  -29.3255   28.5739 C   0  0  0  0  0  0  0  0  0  0  0  0
   -4.4343  -28.8853   29.6304 N   0  0  0  0  0  0  0  0  0  0  0  0
   -5.3640  -30.5711   27.1670 N   0  0  0  0  0  0  0  0  0  0  0  0
   -5.2815  -31.2423   26.0006 C   0  0  0  0  0  0  0  0  0  0  0  0
   -4.0058  -31.2117   25.5663 N   0  0  0  0  0  0  0  0  0  0  0  0
  1  7  2  0  0  0  0
  1  2  1  0  0  0  0
  2  3  1  0  0  0  0
  2  4  2  0  0  0  0
  4  5  1  0  0  0  0
  5  6  2  0  0  0  0
  5 11  1  0  0  0  0
  6  7  1  0  0  0  0
  6  9  1  0  0  0  0
  7  8  1  0  0  0  0
  9 10  1  0  0  0  0
 10 11  2  0  0  0  0
M  END
>  <CHROM.1>
-3.22493405,-29.94765571,27.39828029,0.50376603,0.19128195,1.03337722

>  <Name>
ligand

>  <RI>
0

>  <Rbt.Current_Directory>
/home/itssahil/PROJECTS/Mol_Feturizer/New_Systems/rnas/4LVZ

>  <Rbt.Executable>
rbdock ($Id: //depot/dev/client3/rdock/2013.1/src/exe/rbdock.cxx#4 $)

>  <Rbt.Library>
libRbt.so (2013.1, Build901 2013/11/27)

>  <Rbt.Parameter_File>
/export/apps/rDock/src/rDock_2013.1_src/data/scripts/dock_solv.prm

>  <Rbt.Receptor>
prm/blind_docking_60.prm

>  <SCORE>
-11.078

>  <SCORE.INTER>
-11.1146

>  <SCORE.INTER.CONST>
1

>  <SCORE.INTER.POLAR>
0

>  <SCORE.INTER.ROT>
0

>  <SCORE.INTER.SOLV>
16.05

>  <SCORE.INTER.VDW>
-16.3597

>  <SCORE.INTER.norm>
-1.01042

>  <SCORE.INTRA>
0

>  <SCORE.INTRA.DIHEDRAL>
0

>  <SCORE.INTRA.DIHEDRAL.0>
0

>  <SCORE.INTRA.POLAR>
0

>  <SCORE.INTRA.POLAR.0>
0

>  <SCORE.INTRA.REPUL>
0

>  <SCORE.INTRA.REPUL.0>
0

>  <SCORE.INTRA.SOLV>
0

>  <SCORE.INTRA.SOLV.lig_0>
-49.4056

>  <SCORE.INTRA.VDW>
0

>  <SCORE.INTRA.VDW.0>
0

>  <SCORE.INTRA.norm>
0

>  <SCORE.RESTR>
0.0365835

>  <SCORE.RESTR.CAVITY>
0.0365835

>  <SCORE.RESTR.norm>
0.00332577

>  <SCORE.SYSTEM>
0

>  <SCORE.SYSTEM.CONST>
0

>  <SCORE.SYSTEM.DIHEDRAL>
0

>  <SCORE.SYSTEM.SOLV>
0

>  <SCORE.SYSTEM.norm>
0

>  <SCORE.heavy>
11

>  <SCORE.norm>
-1.00709

>  <RMSD>
11.322

$$$$
ligand
 OpenBabel11021811503D
libRbt.so/2013.1/901 2013/11/27
 11 12  0  0  0  0  0  0  0  0999 V2000
   -2.2589  -29.0226   28.5879 N   0  0  0  0  0  0  0  0  0  0  0  0
   -1.4409  -29.4354   27.5883 C   0  0  0  0  0  0  0  0  0  0  0  0
   -0.0461  -29.1092   27.6005 N   0  0  0  0  0  0  0  0  0  0  0  0
   -1.9215  -30.1556   26.5592 N   0  0  0  0  0  0  0  0  0  0  0  0
   -3.2523  -30.5018   26.4897 C   0  0  0  0  0  0  0  0  0  0  0  0
   -4.1099  -30.0919   27.4941 C   0  0  0  0  0  0  0  0  0  0  0  0
   -3.5757  -29.3241   28.5715 C   0  0  0  0  0  0  0  0  0  0  0  0
   -4.4353  -28.8817   29.6266 N   0  0  0  0  0  0  0  0  0  0  0  0
   -5.3636  -30.5716   27.1655 N   0  0  0  0  0  0  0  0  0  0  0  0
   -5.2804  -31.2449   26.0004 C   0  0  0  0  0  0  0  0  0  0  0  0
   -4.0044  -31.2155   25.5670 N   0  0  0  0  0  0  0  0  0  0  0  0
  1  7  2  0  0  0  0
  1  2  1  0  0  0  0
  2  3  1  0  0  0  0
  2  4  2  0  0  0  0
  4  5  1  0  0  0  0
  5  6  2  0  0  0  0
  5 11  1  0  0  0  0
  6  7  1  0  0  0  0
  6  9  1  0  0  0  0
  7  8  1  0  0  0  0
  9 10  1  0  0  0  0
 10 11  2  0  0  0  0
M  END
>  <CHROM.1>
-3.22453793,-29.94838512,27.39733079,0.50430356,0.19063196,1.03146946

>  <Name>
ligand

>  <RI>
0

>  <Rbt.Current_Directory>
/home/itssahil/PROJECTS/Mol_Feturizer/New_Systems/rnas/4LVZ

>  <Rbt.Executable>
rbdock ($Id: //depot/dev/client3/rdock/2013.1/src/exe/rbdock.cxx#4 $)

>  <Rbt.Library>
libRbt.so (2013.1, Build901 2013/11/27)

>  <Rbt.Parameter_File>
/export/apps/rDock/src/rDock_2013.1_src/data/scripts/dock_solv.prm

>  <Rbt.Receptor>
prm/blind_docking_60.prm

>  <SCORE>
-11.0809

>  <SCORE.INTER>
-11.1183

>  <SCORE.INTER.CONST>
1

>  <SCORE.INTER.POLAR>
0

>  <SCORE.INTER.ROT>
0

>  <SCORE.INTER.SOLV>
16.0481

>  <SCORE.INTER.VDW>
-16.3616

>  <SCORE.INTER.norm>
-1.01076

>  <SCORE.INTRA>
0

>  <SCORE.INTRA.DIHEDRAL>
0

>  <SCORE.INTRA.DIHEDRAL.0>
0

>  <SCORE.INTRA.POLAR>
0

>  <SCORE.INTRA.POLAR.0>
0

>  <SCORE.INTRA.REPUL>
0

>  <SCORE.INTRA.REPUL.0>
0

>  <SCORE.INTRA.SOLV>
0

>  <SCORE.INTRA.SOLV.lig_0>
-49.4056

>  <SCORE.INTRA.VDW>
0

>  <SCORE.INTRA.VDW.0>
0

>  <SCORE.INTRA.norm>
0

>  <SCORE.RESTR>
0.0374648

>  <SCORE.RESTR.CAVITY>
0.0374648

>  <SCORE.RESTR.norm>
0.00340589

>  <SCORE.SYSTEM>
0

>  <SCORE.SYSTEM.CONST>
0

>  <SCORE.SYSTEM.DIHEDRAL>
0

>  <SCORE.SYSTEM.SOLV>
0

>  <SCORE.SYSTEM.norm>
0

>  <SCORE.heavy>
11

>  <SCORE.norm>
-1.00735

>  <RMSD>
11.322

$$$$
ligand
 OpenBabel11021811503D
libRbt.so/2013.1/901 2013/11/27
 11 12  0  0  0  0  0  0  0  0999 V2000
   -2.2563  -29.0306   28.5894 N   0  0  0  0  0  0  0  0  0  0  0  0
   -1.4394  -29.4466   27.5902 C   0  0  0  0  0  0  0  0  0  0  0  0
   -0.0435  -29.1254   27.6027 N   0  0  0  0  0  0  0  0  0  0  0  0
   -1.9222  -30.1654   26.5611 N   0  0  0  0  0  0  0  0  0  0  0  0
   -3.2542  -30.5069   26.4913 C   0  0  0  0  0  0  0  0  0  0  0  0
   -4.1107  -30.0936   27.4953 C   0  0  0  0  0  0  0  0  0  0  0  0
   -3.5741  -29.3273   28.5727 C   0  0  0  0  0  0  0  0  0  0  0  0
   -4.4326  -28.8816   29.6273 N   0  0  0  0  0  0  0  0  0  0  0  0
   -5.3660  -30.5690   27.1664 N   0  0  0  0  0  0  0  0  0  0  0  0
   -5.2848  -31.2429   26.0015 C   0  0  0  0  0  0  0  0  0  0  0  0
   -4.0086  -31.2182   25.5686 N   0  0  0  0  0  0  0  0  0  0  0  0
  1  7  2  0  0  0  0
  1  2  1  0  0  0  0
  2  3  1  0  0  0  0
  2  4  2  0  0  0  0
  4  5  1  0  0  0  0
  5  6  2  0  0  0  0
  5 11  1  0  0  0  0
  6  7  1  0  0  0  0
  6  9  1  0  0  0  0
  7  8  1  0  0  0  0
  9 10  1  0  0  0  0
 10 11  2  0  0  0  0
M  END
>  <CHROM.1>
-3.22482492,-29.95329158,27.39878931,0.50273424,0.18739829,1.03145026

>  <Name>
ligand

>  <RI>
0

>  <Rbt.Current_Directory>
/home/itssahil/PROJECTS/Mol_Feturizer/New_Systems/rnas/4LVZ

>  <Rbt.Executable>
rbdock ($Id: //depot/dev/client3/rdock/2013.1/src/exe/rbdock.cxx#4 $)

>  <Rbt.Library>
libRbt.so (2013.1, Build901 2013/11/27)

>  <Rbt.Parameter_File>
/export/apps/rDock/src/rDock_2013.1_src/data/scripts/dock_solv.prm

>  <Rbt.Receptor>
prm/blind_docking_60.prm

>  <SCORE>
-11.0669

>  <SCORE.INTER>
-11.1057

>  <SCORE.INTER.CONST>
1

>  <SCORE.INTER.POLAR>
0

>  <SCORE.INTER.ROT>
0

>  <SCORE.INTER.SOLV>
16.0305

>  <SCORE.INTER.VDW>
-16.3473

>  <SCORE.INTER.norm>
-1.00961

>  <SCORE.INTRA>
0

>  <SCORE.INTRA.DIHEDRAL>
0

>  <SCORE.INTRA.DIHEDRAL.0>
0

>  <SCORE.INTRA.POLAR>
0

>  <SCORE.INTRA.POLAR.0>
0

>  <SCORE.INTRA.REPUL>
0

>  <SCORE.INTRA.REPUL.0>
0

>  <SCORE.INTRA.SOLV>
0

>  <SCORE.INTRA.SOLV.lig_0>
-49.4056

>  <SCORE.INTRA.VDW>
0

>  <SCORE.INTRA.VDW.0>
0

>  <SCORE.INTRA.norm>
0

>  <SCORE.RESTR>
0.0388419

>  <SCORE.RESTR.CAVITY>
0.0388419

>  <SCORE.RESTR.norm>
0.00353108

>  <SCORE.SYSTEM>
0

>  <SCORE.SYSTEM.CONST>
0

>  <SCORE.SYSTEM.DIHEDRAL>
0

>  <SCORE.SYSTEM.SOLV>
0

>  <SCORE.SYSTEM.norm>
0

>  <SCORE.heavy>
11

>  <SCORE.norm>
-1.00608

>  <RMSD>
11.327

$$$$
ligand
 OpenBabel11021811503D
libRbt.so/2013.1/901 2013/11/27
 11 12  0  0  0  0  0  0  0  0999 V2000
   -2.2693  -29.0408   28.6038 N   0  0  0  0  0  0  0  0  0  0  0  0
   -1.4503  -29.4441   27.6012 C   0  0  0  0  0  0  0  0  0  0  0  0
   -0.0563  -29.1145   27.6157 N   0  0  0  0  0  0  0  0  0  0  0  0
   -1.9291  -30.1579   26.5668 N   0  0  0  0  0  0  0  0  0  0  0  0
   -3.2590  -30.5070   26.4948 C   0  0  0  0  0  0  0  0  0  0  0  0
   -4.1176  -30.1067   27.5022 C   0  0  0  0  0  0  0  0  0  0  0  0
   -3.5853  -29.3455   28.5853 C   0  0  0  0  0  0  0  0  0  0  0  0
   -4.4460  -28.9131   29.6436 N   0  0  0  0  0  0  0  0  0  0  0  0
   -5.3701  -30.5873   27.1702 N   0  0  0  0  0  0  0  0  0  0  0  0
   -5.2853  -31.2518   26.0002 C   0  0  0  0  0  0  0  0  0  0  0  0
   -4.0093  -31.2160   25.5670 N   0  0  0  0  0  0  0  0  0  0  0  0
  1  7  2  0  0  0  0
  1  2  1  0  0  0  0
  2  3  1  0  0  0  0
  2  4  2  0  0  0  0
  4  5  1  0  0  0  0
  5  6  2  0  0  0  0
  5 11  1  0  0  0  0
  6  7  1  0  0  0  0
  6  9  1  0  0  0  0
  7  8  1  0  0  0  0
  9 10  1  0  0  0  0
 10 11  2  0  0  0  0
M  END
>  <CHROM.1>
-3.23263511,-29.96027297,27.40652848,0.50558375,0.19286618,1.03857066

>  <Name>
ligand

>  <RI>
0

>  <Rbt.Current_Directory>
/home/itssahil/PROJECTS/Mol_Feturizer/New_Systems/rnas/4LVZ

>  <Rbt.Executable>
rbdock ($Id: //depot/dev/client3/rdock/2013.1/src/exe/rbdock.cxx#4 $)

>  <Rbt.Library>
libRbt.so (2013.1, Build901 2013/11/27)

>  <Rbt.Parameter_File>
/export/apps/rDock/src/rDock_2013.1_src/data/scripts/dock_solv.prm

>  <Rbt.Receptor>
prm/blind_docking_60.prm

>  <SCORE>
-11.0733

>  <SCORE.INTER>
-11.117

>  <SCORE.INTER.CONST>
1

>  <SCORE.INTER.POLAR>
0

>  <SCORE.INTER.ROT>
0

>  <SCORE.INTER.SOLV>
16.0127

>  <SCORE.INTER.VDW>
-16.3489

>  <SCORE.INTER.norm>
-1.01063

>  <SCORE.INTRA>
0

>  <SCORE.INTRA.DIHEDRAL>
0

>  <SCORE.INTRA.DIHEDRAL.0>
0

>  <SCORE.INTRA.POLAR>
0

>  <SCORE.INTRA.POLAR.0>
0

>  <SCORE.INTRA.REPUL>
0

>  <SCORE.INTRA.REPUL.0>
0

>  <SCORE.INTRA.SOLV>
0

>  <SCORE.INTRA.SOLV.lig_0>
-49.4056

>  <SCORE.INTRA.VDW>
0

>  <SCORE.INTRA.VDW.0>
0

>  <SCORE.INTRA.norm>
0

>  <SCORE.RESTR>
0.0437071

>  <SCORE.RESTR.CAVITY>
0.0437071

>  <SCORE.RESTR.norm>
0.00397337

>  <SCORE.SYSTEM>
0

>  <SCORE.SYSTEM.CONST>
0

>  <SCORE.SYSTEM.DIHEDRAL>
0

>  <SCORE.SYSTEM.SOLV>
0

>  <SCORE.SYSTEM.norm>
0

>  <SCORE.heavy>
11

>  <SCORE.norm>
-1.00666

>  <RMSD>
11.337

$$$$
ligand
 OpenBabel11021811503D
libRbt.so/2013.1/901 2013/11/27
 11 12  0  0  0  0  0  0  0  0999 V2000
   -2.2756  -29.0397   28.6099 N   0  0  0  0  0  0  0  0  0  0  0  0
   -1.4578  -29.4427   27.6063 C   0  0  0  0  0  0  0  0  0  0  0  0
   -0.0638  -29.1130   27.6193 N   0  0  0  0  0  0  0  0  0  0  0  0
   -1.9377  -30.1564   26.5723 N   0  0  0  0  0  0  0  0  0  0  0  0
   -3.2677  -30.5055   26.5017 C   0  0  0  0  0  0  0  0  0  0  0  0
   -4.1252  -30.1054   27.5101 C   0  0  0  0  0  0  0  0  0  0  0  0
   -3.5917  -29.3444   28.5927 C   0  0  0  0  0  0  0  0  0  0  0  0
   -4.4513  -28.9122   29.6521 N   0  0  0  0  0  0  0  0  0  0  0  0
   -5.3780  -30.5859   27.1794 N   0  0  0  0  0  0  0  0  0  0  0  0
   -5.2945  -31.2502   26.0091 C   0  0  0  0  0  0  0  0  0  0  0  0
   -4.0190  -31.2142   25.5745 N   0  0  0  0  0  0  0  0  0  0  0  0
  1  7  2  0  0  0  0
  1  2  1  0  0  0  0
  2  3  1  0  0  0  0
  2  4  2  0  0  0  0
  4  5  1  0  0  0  0
  5  6  2  0  0  0  0
  5 11  1  0  0  0  0
  6  7  1  0  0  0  0
  6  9  1  0  0  0  0
  7  8  1  0  0  0  0
  9 10  1  0  0  0  0
 10 11  2  0  0  0  0
M  END
>  <CHROM.1>
-3.24031677,-29.95890780,27.41347713,0.50463225,0.19345500,1.03896663

>  <Name>
ligand

>  <RI>
0

>  <Rbt.Current_Directory>
/home/itssahil/PROJECTS/Mol_Feturizer/New_Systems/rnas/4LVZ

>  <Rbt.Executable>
rbdock ($Id: //depot/dev/client3/rdock/2013.1/src/exe/rbdock.cxx#4 $)

>  <Rbt.Library>
libRbt.so (2013.1, Build901 2013/11/27)

>  <Rbt.Parameter_File>
/export/apps/rDock/src/rDock_2013.1_src/data/scripts/dock_solv.prm

>  <Rbt.Receptor>
prm/blind_docking_80.prm

>  <SCORE>
-11.1269

>  <SCORE.INTER>
-11.1769

>  <SCORE.INTER.CONST>
1

>  <SCORE.INTER.POLAR>
0

>  <SCORE.INTER.ROT>
0

>  <SCORE.INTER.SOLV>
16.0044

>  <SCORE.INTER.VDW>
-16.3861

>  <SCORE.INTER.norm>
-1.01608

>  <SCORE.INTRA>
0

>  <SCORE.INTRA.DIHEDRAL>
0

>  <SCORE.INTRA.DIHEDRAL.0>
0

>  <SCORE.INTRA.POLAR>
0

>  <SCORE.INTRA.POLAR.0>
0

>  <SCORE.INTRA.REPUL>
0

>  <SCORE.INTRA.REPUL.0>
0

>  <SCORE.INTRA.SOLV>
0

>  <SCORE.INTRA.SOLV.lig_0>
-49.4056

>  <SCORE.INTRA.VDW>
0

>  <SCORE.INTRA.VDW.0>
0

>  <SCORE.INTRA.norm>
0

>  <SCORE.RESTR>
0.0500268

>  <SCORE.RESTR.CAVITY>
0.0500268

>  <SCORE.RESTR.norm>
0.00454789

>  <SCORE.SYSTEM>
0

>  <SCORE.SYSTEM.CONST>
0

>  <SCORE.SYSTEM.DIHEDRAL>
0

>  <SCORE.SYSTEM.SOLV>
0

>  <SCORE.SYSTEM.norm>
0

>  <SCORE.heavy>
11

>  <SCORE.norm>
-1.01153

>  <RMSD>
11.341

$$$$
ligand
 OpenBabel11021811503D
libRbt.so/2013.1/901 2013/11/27
 11 12  0  0  0  0  0  0  0  0999 V2000
   -2.2787  -29.0506   28.6158 N   0  0  0  0  0  0  0  0  0  0  0  0
   -1.4616  -29.4485   27.6095 C   0  0  0  0  0  0  0  0  0  0  0  0
   -0.0673  -29.1202   27.6238 N   0  0  0  0  0  0  0  0  0  0  0  0
   -1.9427  -30.1555   26.5715 N   0  0  0  0  0  0  0  0  0  0  0  0
   -3.2730  -30.5030   26.4994 C   0  0  0  0  0  0  0  0  0  0  0  0
   -4.1297  -30.1081   27.5105 C   0  0  0  0  0  0  0  0  0  0  0  0
   -3.5950  -29.3540   28.5974 C   0  0  0  0  0  0  0  0  0  0  0  0
   -4.4537  -28.9273   29.6597 N   0  0  0  0  0  0  0  0  0  0  0  0
   -5.3831  -30.5854   27.1775 N   0  0  0  0  0  0  0  0  0  0  0  0
   -5.3007  -31.2428   26.0033 C   0  0  0  0  0  0  0  0  0  0  0  0
   -4.0254  -31.2055   25.5684 N   0  0  0  0  0  0  0  0  0  0  0  0
  1  7  2  0  0  0  0
  1  2  1  0  0  0  0
  2  3  1  0  0  0  0
  2  4  2  0  0  0  0
  4  5  1  0  0  0  0
  5  6  2  0  0  0  0
  5 11  1  0  0  0  0
  6  7  1  0  0  0  0
  6  9  1  0  0  0  0
  7  8  1  0  0  0  0
  9 10  1  0  0  0  0
 10 11  2  0  0  0  0
M  END
>  <CHROM.1>
-3.24471085,-29.96182184,27.41437895,0.50377565,0.19284744,1.04504776

>  <Name>
ligand

>  <RI>
0

>  <Rbt.Current_Directory>
/home/itssahil/PROJECTS/Mol_Feturizer/New_Systems/rnas/4LVZ

>  <Rbt.Executable>
rbdock ($Id: //depot/dev/client3/rdock/2013.1/src/exe/rbdock.cxx#4 $)

>  <Rbt.Library>
libRbt.so (2013.1, Build901 2013/11/27)

>  <Rbt.Parameter_File>
/export/apps/rDock/src/rDock_2013.1_src/data/scripts/dock_solv.prm

>  <Rbt.Receptor>
prm/blind_docking_60.prm

>  <SCORE>
-11.0953

>  <SCORE.INTER>
-11.1423

>  <SCORE.INTER.CONST>
1

>  <SCORE.INTER.POLAR>
0

>  <SCORE.INTER.ROT>
0

>  <SCORE.INTER.SOLV>
15.9823

>  <SCORE.INTER.VDW>
-16.3556

>  <SCORE.INTER.norm>
-1.01293

>  <SCORE.INTRA>
0

>  <SCORE.INTRA.DIHEDRAL>
0

>  <SCORE.INTRA.DIHEDRAL.0>
0

>  <SCORE.INTRA.POLAR>
0

>  <SCORE.INTRA.POLAR.0>
0

>  <SCORE.INTRA.REPUL>
0

>  <SCORE.INTRA.REPUL.0>
0

>  <SCORE.INTRA.SOLV>
0

>  <SCORE.INTRA.SOLV.lig_0>
-49.4056

>  <SCORE.INTRA.VDW>
0

>  <SCORE.INTRA.VDW.0>
0

>  <SCORE.INTRA.norm>
0

>  <SCORE.RESTR>
0.0470317

>  <SCORE.RESTR.CAVITY>
0.0470317

>  <SCORE.RESTR.norm>
0.00427561

>  <SCORE.SYSTEM>
0

>  <SCORE.SYSTEM.CONST>
0

>  <SCORE.SYSTEM.DIHEDRAL>
0

>  <SCORE.SYSTEM.SOLV>
0

>  <SCORE.SYSTEM.norm>
0

>  <SCORE.heavy>
11

>  <SCORE.norm>
-1.00866

>  <RMSD>
11.345

$$$$
ligand
 OpenBabel11021811503D
libRbt.so/2013.1/901 2013/11/27
 11 12  0  0  0  0  0  0  0  0999 V2000
   -5.4655  -29.9493   28.7779 N   0  0  0  0  0  0  0  0  0  0  0  0
   -5.0598  -29.2110   29.8405 C   0  0  0  0  0  0  0  0  0  0  0  0
   -5.9119  -29.0337   30.9782 N   0  0  0  0  0  0  0  0  0  0  0  0
   -3.8502  -28.6233   29.8482 N   0  0  0  0  0  0  0  0  0  0  0  0
   -2.9849  -28.7561   28.7855 C   0  0  0  0  0  0  0  0  0  0  0  0
   -3.3737  -29.5011   27.6872 C   0  0  0  0  0  0  0  0  0  0  0  0
   -4.6643  -30.1094   27.7021 C   0  0  0  0  0  0  0  0  0  0  0  0
   -5.0995  -30.8855   26.5812 N   0  0  0  0  0  0  0  0  0  0  0  0
   -2.3253  -29.4586   26.7878 N   0  0  0  0  0  0  0  0  0  0  0  0
   -1.3331  -28.7106   27.3109 C   0  0  0  0  0  0  0  0  0  0  0  0
   -1.7110  -28.2694   28.5272 N   0  0  0  0  0  0  0  0  0  0  0  0
  1  7  2  0  0  0  0
  1  2  1  0  0  0  0
  2  3  1  0  0  0  0
  2  4  2  0  0  0  0
  4  5  1  0  0  0  0
  5  6  2  0  0  0  0
  5 11  1  0  0  0  0
  6  7  1  0  0  0  0
  6  9  1  0  0  0  0
  7  8  1  0  0  0  0
  9 10  1  0  0  0  0
 10 11  2  0  0  0  0
M  END
>  <CHROM.1>
-3.81990959,-29.32315061,28.45081334,2.65225716,0.40358046,1.09902717

>  <Name>
ligand

>  <RI>
0

>  <Rbt.Current_Directory>
/home/itssahil/PROJECTS/Mol_Feturizer/New_Systems/rnas/4LVZ

>  <Rbt.Executable>
rbdock ($Id: //depot/dev/client3/rdock/2013.1/src/exe/rbdock.cxx#4 $)

>  <Rbt.Library>
libRbt.so (2013.1, Build901 2013/11/27)

>  <Rbt.Parameter_File>
/export/apps/rDock/src/rDock_2013.1_src/data/scripts/dock_solv.prm

>  <Rbt.Receptor>
prm/blind_docking_100.prm

>  <SCORE>
-7.99831

>  <SCORE.INTER>
-7.99831

>  <SCORE.INTER.CONST>
1

>  <SCORE.INTER.POLAR>
0

>  <SCORE.INTER.ROT>
0

>  <SCORE.INTER.SOLV>
16.4737

>  <SCORE.INTER.VDW>
-14.4234

>  <SCORE.INTER.norm>
-0.727119

>  <SCORE.INTRA>
0

>  <SCORE.INTRA.DIHEDRAL>
0

>  <SCORE.INTRA.DIHEDRAL.0>
0

>  <SCORE.INTRA.POLAR>
0

>  <SCORE.INTRA.POLAR.0>
0

>  <SCORE.INTRA.REPUL>
0

>  <SCORE.INTRA.REPUL.0>
0

>  <SCORE.INTRA.SOLV>
0

>  <SCORE.INTRA.SOLV.lig_0>
-49.4056

>  <SCORE.INTRA.VDW>
0

>  <SCORE.INTRA.VDW.0>
0

>  <SCORE.INTRA.norm>
0

>  <SCORE.RESTR>
0

>  <SCORE.RESTR.CAVITY>
0

>  <SCORE.RESTR.norm>
0

>  <SCORE.SYSTEM>
0

>  <SCORE.SYSTEM.CONST>
0

>  <SCORE.SYSTEM.DIHEDRAL>
0

>  <SCORE.SYSTEM.SOLV>
0

>  <SCORE.SYSTEM.norm>
0

>  <SCORE.heavy>
11

>  <SCORE.norm>
-0.727119

>  <RMSD>
11.425

$$$$
ligand
 OpenBabel11021811503D
libRbt.so/2013.1/901 2013/11/27
 11 12  0  0  0  0  0  0  0  0999 V2000
   -3.4079  -29.8050   27.1370 N   0  0  0  0  0  0  0  0  0  0  0  0
   -3.5759  -30.8265   26.2612 C   0  0  0  0  0  0  0  0  0  0  0  0
   -4.8869  -31.2932   25.9218 N   0  0  0  0  0  0  0  0  0  0  0  0
   -2.5149  -31.4291   25.6954 N   0  0  0  0  0  0  0  0  0  0  0  0
   -1.2293  -31.0267   25.9801 C   0  0  0  0  0  0  0  0  0  0  0  0
   -1.0284  -29.9891   26.8719 C   0  0  0  0  0  0  0  0  0  0  0  0
   -2.1708  -29.3708   27.4624 C   0  0  0  0  0  0  0  0  0  0  0  0
   -1.9992  -28.2956   28.3911 N   0  0  0  0  0  0  0  0  0  0  0  0
    0.3381  -29.8067   26.9670 N   0  0  0  0  0  0  0  0  0  0  0  0
    0.9534  -30.7024   26.1689 C   0  0  0  0  0  0  0  0  0  0  0  0
    0.0201  -31.4589   25.5576 N   0  0  0  0  0  0  0  0  0  0  0  0
  1  7  2  0  0  0  0
  1  2  1  0  0  0  0
  2  3  1  0  0  0  0
  2  4  2  0  0  0  0
  4  5  1  0  0  0  0
  5  6  2  0  0  0  0
  5 11  1  0  0  0  0
  6  7  1  0  0  0  0
  6  9  1  0  0  0  0
  7  8  1  0  0  0  0
  9 10  1  0  0  0  0
 10 11  2  0  0  0  0
M  END
>  <CHROM.1>
-1.79799622,-30.36267673,26.58549780,3.10832894,-0.03413072,-2.42757704

>  <Name>
ligand

>  <RI>
0

>  <Rbt.Current_Directory>
/home/itssahil/PROJECTS/Mol_Feturizer/New_Systems/rnas/4LVZ

>  <Rbt.Executable>
rbdock ($Id: //depot/dev/client3/rdock/2013.1/src/exe/rbdock.cxx#4 $)

>  <Rbt.Library>
libRbt.so (2013.1, Build901 2013/11/27)

>  <Rbt.Parameter_File>
/export/apps/rDock/src/rDock_2013.1_src/data/scripts/dock_solv.prm

>  <Rbt.Receptor>
prm/blind_docking_60.prm

>  <SCORE>
-6.14234

>  <SCORE.INTER>
-6.14234

>  <SCORE.INTER.CONST>
1

>  <SCORE.INTER.POLAR>
0

>  <SCORE.INTER.ROT>
0

>  <SCORE.INTER.SOLV>
23.2376

>  <SCORE.INTER.VDW>
-15.4408

>  <SCORE.INTER.norm>
-0.558395

>  <SCORE.INTRA>
0

>  <SCORE.INTRA.DIHEDRAL>
0

>  <SCORE.INTRA.DIHEDRAL.0>
0

>  <SCORE.INTRA.POLAR>
0

>  <SCORE.INTRA.POLAR.0>
0

>  <SCORE.INTRA.REPUL>
0

>  <SCORE.INTRA.REPUL.0>
0

>  <SCORE.INTRA.SOLV>
0

>  <SCORE.INTRA.SOLV.lig_0>
-49.4056

>  <SCORE.INTRA.VDW>
0

>  <SCORE.INTRA.VDW.0>
0

>  <SCORE.INTRA.norm>
0

>  <SCORE.RESTR>
0

>  <SCORE.RESTR.CAVITY>
0

>  <SCORE.RESTR.norm>
0

>  <SCORE.SYSTEM>
0

>  <SCORE.SYSTEM.CONST>
0

>  <SCORE.SYSTEM.DIHEDRAL>
0

>  <SCORE.SYSTEM.SOLV>
0

>  <SCORE.SYSTEM.norm>
0

>  <SCORE.heavy>
11

>  <SCORE.norm>
-0.558395

>  <RMSD>
11.495

$$$$
ligand
 OpenBabel11021811503D
libRbt.so/2013.1/901 2013/11/27
 11 12  0  0  0  0  0  0  0  0999 V2000
   -5.8498  -29.4857   29.1922 N   0  0  0  0  0  0  0  0  0  0  0  0
   -5.3124  -28.6761   30.1380 C   0  0  0  0  0  0  0  0  0  0  0  0
   -6.0913  -28.2399   31.2583 N   0  0  0  0  0  0  0  0  0  0  0  0
   -4.0374  -28.2591   30.0429 N   0  0  0  0  0  0  0  0  0  0  0  0
   -3.2368  -28.6435   28.9908 C   0  0  0  0  0  0  0  0  0  0  0  0
   -3.7596  -29.4667   28.0102 C   0  0  0  0  0  0  0  0  0  0  0  0
   -5.1167  -29.8902   28.1320 C   0  0  0  0  0  0  0  0  0  0  0  0
   -5.6904  -30.7406   27.1342 N   0  0  0  0  0  0  0  0  0  0  0  0
   -2.7489  -29.6821   27.0927 N   0  0  0  0  0  0  0  0  0  0  0  0
   -1.6492  -29.0114   27.4910 C   0  0  0  0  0  0  0  0  0  0  0  0
   -1.9211  -28.3690   28.6444 N   0  0  0  0  0  0  0  0  0  0  0  0
  1  7  2  0  0  0  0
  1  2  1  0  0  0  0
  2  3  1  0  0  0  0
  2  4  2  0  0  0  0
  4  5  1  0  0  0  0
  5  6  2  0  0  0  0
  5 11  1  0  0  0  0
  6  7  1  0  0  0  0
  6  9  1  0  0  0  0
  7  8  1  0  0  0  0
  9 10  1  0  0  0  0
 10 11  2  0  0  0  0
M  END
>  <CHROM.1>
-4.15023439,-29.13282022,28.75170120,2.55556373,0.30312544,0.99934655

>  <Name>
ligand

>  <RI>
0

>  <Rbt.Current_Directory>
/home/itssahil/PROJECTS/Mol_Feturizer/New_Systems/rnas/4LVZ

>  <Rbt.Executable>
rbdock ($Id: //depot/dev/client3/rdock/2013.1/src/exe/rbdock.cxx#4 $)

>  <Rbt.Library>
libRbt.so (2013.1, Build901 2013/11/27)

>  <Rbt.Parameter_File>
/export/apps/rDock/src/rDock_2013.1_src/data/scripts/dock_solv.prm

>  <Rbt.Receptor>
prm/blind_docking_80.prm

>  <SCORE>
-8.57693

>  <SCORE.INTER>
-8.57693

>  <SCORE.INTER.CONST>
1

>  <SCORE.INTER.POLAR>
0

>  <SCORE.INTER.ROT>
0

>  <SCORE.INTER.SOLV>
14.3328

>  <SCORE.INTER.VDW>
-14.0956

>  <SCORE.INTER.norm>
-0.779721

>  <SCORE.INTRA>
0

>  <SCORE.INTRA.DIHEDRAL>
0

>  <SCORE.INTRA.DIHEDRAL.0>
0

>  <SCORE.INTRA.POLAR>
0

>  <SCORE.INTRA.POLAR.0>
0

>  <SCORE.INTRA.REPUL>
0

>  <SCORE.INTRA.REPUL.0>
0

>  <SCORE.INTRA.SOLV>
0

>  <SCORE.INTRA.SOLV.lig_0>
-49.4056

>  <SCORE.INTRA.VDW>
0

>  <SCORE.INTRA.VDW.0>
0

>  <SCORE.INTRA.norm>
0

>  <SCORE.RESTR>
0

>  <SCORE.RESTR.CAVITY>
0

>  <SCORE.RESTR.norm>
0

>  <SCORE.SYSTEM>
0

>  <SCORE.SYSTEM.CONST>
0

>  <SCORE.SYSTEM.DIHEDRAL>
0

>  <SCORE.SYSTEM.SOLV>
0

>  <SCORE.SYSTEM.norm>
0

>  <SCORE.heavy>
11

>  <SCORE.norm>
-0.779721

>  <RMSD>
11.508

$$$$
ligand
 OpenBabel11021811503D
libRbt.so/2013.1/901 2013/11/27
 11 12  0  0  0  0  0  0  0  0999 V2000
   -5.8626  -29.5078   29.1533 N   0  0  0  0  0  0  0  0  0  0  0  0
   -5.3368  -28.7065   30.1125 C   0  0  0  0  0  0  0  0  0  0  0  0
   -6.1289  -28.2809   31.2276 N   0  0  0  0  0  0  0  0  0  0  0  0
   -4.0609  -28.2880   30.0361 N   0  0  0  0  0  0  0  0  0  0  0  0
   -3.2480  -28.6625   28.9899 C   0  0  0  0  0  0  0  0  0  0  0  0
   -3.7589  -29.4770   27.9959 C   0  0  0  0  0  0  0  0  0  0  0  0
   -5.1170  -29.9022   28.0980 C   0  0  0  0  0  0  0  0  0  0  0  0
   -5.6786  -30.7439   27.0860 N   0  0  0  0  0  0  0  0  0  0  0  0
   -2.7374  -29.6836   27.0883 N   0  0  0  0  0  0  0  0  0  0  0  0
   -1.6428  -29.0161   27.5054 C   0  0  0  0  0  0  0  0  0  0  0  0
   -1.9285  -28.3843   28.6613 N   0  0  0  0  0  0  0  0  0  0  0  0
  1  7  2  0  0  0  0
  1  2  1  0  0  0  0
  2  3  1  0  0  0  0
  2  4  2  0  0  0  0
  4  5  1  0  0  0  0
  5  6  2  0  0  0  0
  5 11  1  0  0  0  0
  6  7  1  0  0  0  0
  6  9  1  0  0  0  0
  7  8  1  0  0  0  0
  9 10  1  0  0  0  0
 10 11  2  0  0  0  0
M  END
>  <CHROM.1>
-4.15824662,-29.15006741,28.73576999,2.56611689,0.29731920,1.00528280

>  <Name>
ligand

>  <RI>
0

>  <Rbt.Current_Directory>
/home/itssahil/PROJECTS/Mol_Feturizer/New_Systems/rnas/4LVZ

>  <Rbt.Executable>
rbdock ($Id: //depot/dev/client3/rdock/2013.1/src/exe/rbdock.cxx#4 $)

>  <Rbt.Library>
libRbt.so (2013.1, Build901 2013/11/27)

>  <Rbt.Parameter_File>
/export/apps/rDock/src/rDock_2013.1_src/data/scripts/dock_solv.prm

>  <Rbt.Receptor>
prm/blind_docking_60.prm

>  <SCORE>
-8.60453

>  <SCORE.INTER>
-8.60453

>  <SCORE.INTER.CONST>
1

>  <SCORE.INTER.POLAR>
0

>  <SCORE.INTER.ROT>
0

>  <SCORE.INTER.SOLV>
14.4438

>  <SCORE.INTER.VDW>
-14.1509

>  <SCORE.INTER.norm>
-0.78223

>  <SCORE.INTRA>
0

>  <SCORE.INTRA.DIHEDRAL>
0

>  <SCORE.INTRA.DIHEDRAL.0>
0

>  <SCORE.INTRA.POLAR>
0

>  <SCORE.INTRA.POLAR.0>
0

>  <SCORE.INTRA.REPUL>
0

>  <SCORE.INTRA.REPUL.0>
0

>  <SCORE.INTRA.SOLV>
0

>  <SCORE.INTRA.SOLV.lig_0>
-49.4056

>  <SCORE.INTRA.VDW>
0

>  <SCORE.INTRA.VDW.0>
0

>  <SCORE.INTRA.norm>
0

>  <SCORE.RESTR>
0

>  <SCORE.RESTR.CAVITY>
0

>  <SCORE.RESTR.norm>
0

>  <SCORE.SYSTEM>
0

>  <SCORE.SYSTEM.CONST>
0

>  <SCORE.SYSTEM.DIHEDRAL>
0

>  <SCORE.SYSTEM.SOLV>
0

>  <SCORE.SYSTEM.norm>
0

>  <SCORE.heavy>
11

>  <SCORE.norm>
-0.78223

>  <RMSD>
11.523

$$$$
ligand
 OpenBabel11021811503D
libRbt.so/2013.1/901 2013/11/27
 11 12  0  0  0  0  0  0  0  0999 V2000
   -5.8662  -29.4926   29.1975 N   0  0  0  0  0  0  0  0  0  0  0  0
   -5.3222  -28.6945   30.1491 C   0  0  0  0  0  0  0  0  0  0  0  0
   -6.0954  -28.2656   31.2761 N   0  0  0  0  0  0  0  0  0  0  0  0
   -4.0456  -28.2822   30.0537 N   0  0  0  0  0  0  0  0  0  0  0  0
   -3.2502  -28.6601   28.9953 C   0  0  0  0  0  0  0  0  0  0  0  0
   -3.7799  -29.4715   28.0087 C   0  0  0  0  0  0  0  0  0  0  0  0
   -5.1385  -29.8902   28.1309 C   0  0  0  0  0  0  0  0  0  0  0  0
   -5.7191  -30.7285   27.1270 N   0  0  0  0  0  0  0  0  0  0  0  0
   -2.7731  -29.6826   27.0859 N   0  0  0  0  0  0  0  0  0  0  0  0
   -1.6692  -29.0206   27.4869 C   0  0  0  0  0  0  0  0  0  0  0  0
   -1.9345  -28.3881   28.6472 N   0  0  0  0  0  0  0  0  0  0  0  0
  1  7  2  0  0  0  0
  1  2  1  0  0  0  0
  2  3  1  0  0  0  0
  2  4  2  0  0  0  0
  4  5  1  0  0  0  0
  5  6  2  0  0  0  0
  5 11  1  0  0  0  0
  6  7  1  0  0  0  0
  6  9  1  0  0  0  0
  7  8  1  0  0  0  0
  9 10  1  0  0  0  0
 10 11  2  0  0  0  0
M  END
>  <CHROM.1>
-4.16657537,-29.14302918,28.75465016,2.55015871,0.30117936,1.01048483

>  <Name>
ligand

>  <RI>
0

>  <Rbt.Current_Directory>
/home/itssahil/PROJECTS/Mol_Feturizer/New_Systems/rnas/4LVZ

>  <Rbt.Executable>
rbdock ($Id: //depot/dev/client3/rdock/2013.1/src/exe/rbdock.cxx#4 $)

>  <Rbt.Library>
libRbt.so (2013.1, Build901 2013/11/27)

>  <Rbt.Parameter_File>
/export/apps/rDock/src/rDock_2013.1_src/data/scripts/dock_solv.prm

>  <Rbt.Receptor>
prm/blind_docking_80.prm

>  <SCORE>
-8.56857

>  <SCORE.INTER>
-8.56857

>  <SCORE.INTER.CONST>
1

>  <SCORE.INTER.POLAR>
0

>  <SCORE.INTER.ROT>
0

>  <SCORE.INTER.SOLV>
14.437

>  <SCORE.INTER.VDW>
-14.1247

>  <SCORE.INTER.norm>
-0.778961

>  <SCORE.INTRA>
0

>  <SCORE.INTRA.DIHEDRAL>
0

>  <SCORE.INTRA.DIHEDRAL.0>
0

>  <SCORE.INTRA.POLAR>
0

>  <SCORE.INTRA.POLAR.0>
0

>  <SCORE.INTRA.REPUL>
0

>  <SCORE.INTRA.REPUL.0>
0

>  <SCORE.INTRA.SOLV>
0

>  <SCORE.INTRA.SOLV.lig_0>
-49.4056

>  <SCORE.INTRA.VDW>
0

>  <SCORE.INTRA.VDW.0>
0

>  <SCORE.INTRA.norm>
0

>  <SCORE.RESTR>
0

>  <SCORE.RESTR.CAVITY>
0

>  <SCORE.RESTR.norm>
0

>  <SCORE.SYSTEM>
0

>  <SCORE.SYSTEM.CONST>
0

>  <SCORE.SYSTEM.DIHEDRAL>
0

>  <SCORE.SYSTEM.SOLV>
0

>  <SCORE.SYSTEM.norm>
0

>  <SCORE.heavy>
11

>  <SCORE.norm>
-0.778961

>  <RMSD>
11.525

$$$$
ligand
 OpenBabel11021811503D
libRbt.so/2013.1/901 2013/11/27
 11 12  0  0  0  0  0  0  0  0999 V2000
   -5.7957  -29.6252   29.1753 N   0  0  0  0  0  0  0  0  0  0  0  0
   -5.2403  -28.8732   30.1574 C   0  0  0  0  0  0  0  0  0  0  0  0
   -5.9964  -28.5091   31.3184 N   0  0  0  0  0  0  0  0  0  0  0  0
   -3.9684  -28.4468   30.0615 N   0  0  0  0  0  0  0  0  0  0  0  0
   -3.1894  -28.7635   28.9713 C   0  0  0  0  0  0  0  0  0  0  0  0
   -3.7310  -29.5268   27.9533 C   0  0  0  0  0  0  0  0  0  0  0  0
   -5.0843  -29.9615   28.0772 C   0  0  0  0  0  0  0  0  0  0  0  0
   -5.6771  -30.7512   27.0413 N   0  0  0  0  0  0  0  0  0  0  0  0
   -2.7393  -29.6822   27.0034 N   0  0  0  0  0  0  0  0  0  0  0  0
   -1.6329  -29.0335   27.4190 C   0  0  0  0  0  0  0  0  0  0  0  0
   -1.8818  -28.4638   28.6151 N   0  0  0  0  0  0  0  0  0  0  0  0
  1  7  2  0  0  0  0
  1  2  1  0  0  0  0
  2  3  1  0  0  0  0
  2  4  2  0  0  0  0
  4  5  1  0  0  0  0
  5  6  2  0  0  0  0
  5 11  1  0  0  0  0
  6  7  1  0  0  0  0
  6  9  1  0  0  0  0
  7  8  1  0  0  0  0
  9 10  1  0  0  0  0
 10 11  2  0  0  0  0
M  END
>  <CHROM.1>
-4.10658862,-29.24026823,28.72182785,2.53812752,0.31622853,1.06595567

>  <Name>
ligand

>  <RI>
0

>  <Rbt.Current_Directory>
/home/itssahil/PROJECTS/Mol_Feturizer/New_Systems/rnas/4LVZ

>  <Rbt.Executable>
rbdock ($Id: //depot/dev/client3/rdock/2013.1/src/exe/rbdock.cxx#4 $)

>  <Rbt.Library>
libRbt.so (2013.1, Build901 2013/11/27)

>  <Rbt.Parameter_File>
/export/apps/rDock/src/rDock_2013.1_src/data/scripts/dock_solv.prm

>  <Rbt.Receptor>
prm/blind_docking_60.prm

>  <SCORE>
-8.61108

>  <SCORE.INTER>
-8.61108

>  <SCORE.INTER.CONST>
1

>  <SCORE.INTER.POLAR>
0

>  <SCORE.INTER.ROT>
0

>  <SCORE.INTER.SOLV>
15.1861

>  <SCORE.INTER.VDW>
-14.4028

>  <SCORE.INTER.norm>
-0.782826

>  <SCORE.INTRA>
0

>  <SCORE.INTRA.DIHEDRAL>
0

>  <SCORE.INTRA.DIHEDRAL.0>
0

>  <SCORE.INTRA.POLAR>
0

>  <SCORE.INTRA.POLAR.0>
0

>  <SCORE.INTRA.REPUL>
0

>  <SCORE.INTRA.REPUL.0>
0

>  <SCORE.INTRA.SOLV>
0

>  <SCORE.INTRA.SOLV.lig_0>
-49.4056

>  <SCORE.INTRA.VDW>
0

>  <SCORE.INTRA.VDW.0>
0

>  <SCORE.INTRA.norm>
0

>  <SCORE.RESTR>
0

>  <SCORE.RESTR.CAVITY>
0

>  <SCORE.RESTR.norm>
0

>  <SCORE.SYSTEM>
0

>  <SCORE.SYSTEM.CONST>
0

>  <SCORE.SYSTEM.DIHEDRAL>
0

>  <SCORE.SYSTEM.SOLV>
0

>  <SCORE.SYSTEM.norm>
0

>  <SCORE.heavy>
11

>  <SCORE.norm>
-0.782826

>  <RMSD>
11.559

$$$$
ligand
 OpenBabel11021811503D
libRbt.so/2013.1/901 2013/11/27
 11 12  0  0  0  0  0  0  0  0999 V2000
   -5.8724  -29.5829   29.1673 N   0  0  0  0  0  0  0  0  0  0  0  0
   -5.3310  -28.8047   30.1368 C   0  0  0  0  0  0  0  0  0  0  0  0
   -6.1033  -28.4104   31.2770 N   0  0  0  0  0  0  0  0  0  0  0  0
   -4.0580  -28.3800   30.0472 N   0  0  0  0  0  0  0  0  0  0  0  0
   -3.2638  -28.7249   28.9768 C   0  0  0  0  0  0  0  0  0  0  0  0
   -3.7909  -29.5155   27.9720 C   0  0  0  0  0  0  0  0  0  0  0  0
   -5.1456  -29.9478   28.0885 C   0  0  0  0  0  0  0  0  0  0  0  0
   -5.7236  -30.7652   27.0659 N   0  0  0  0  0  0  0  0  0  0  0  0
   -2.7860  -29.6953   27.0404 N   0  0  0  0  0  0  0  0  0  0  0  0
   -1.6858  -29.0349   27.4540 C   0  0  0  0  0  0  0  0  0  0  0  0
   -1.9515  -28.4338   28.6309 N   0  0  0  0  0  0  0  0  0  0  0  0
  1  7  2  0  0  0  0
  1  2  1  0  0  0  0
  2  3  1  0  0  0  0
  2  4  2  0  0  0  0
  4  5  1  0  0  0  0
  5  6  2  0  0  0  0
  5 11  1  0  0  0  0
  6  7  1  0  0  0  0
  6  9  1  0  0  0  0
  7  8  1  0  0  0  0
  9 10  1  0  0  0  0
 10 11  2  0  0  0  0
M  END
>  <CHROM.1>
-4.17725075,-29.20888525,28.72731931,2.55112105,0.30981370,1.03535702

>  <Name>
ligand

>  <RI>
0

>  <Rbt.Current_Directory>
/home/itssahil/PROJECTS/Mol_Feturizer/New_Systems/rnas/4LVZ

>  <Rbt.Executable>
rbdock ($Id: //depot/dev/client3/rdock/2013.1/src/exe/rbdock.cxx#4 $)

>  <Rbt.Library>
libRbt.so (2013.1, Build901 2013/11/27)

>  <Rbt.Parameter_File>
/export/apps/rDock/src/rDock_2013.1_src/data/scripts/dock_solv.prm

>  <Rbt.Receptor>
prm/blind_docking_60.prm

>  <SCORE>
-8.59258

>  <SCORE.INTER>
-8.59258

>  <SCORE.INTER.CONST>
1

>  <SCORE.INTER.POLAR>
0

>  <SCORE.INTER.ROT>
0

>  <SCORE.INTER.SOLV>
14.8894

>  <SCORE.INTER.VDW>
-14.2915

>  <SCORE.INTER.norm>
-0.781144

>  <SCORE.INTRA>
0

>  <SCORE.INTRA.DIHEDRAL>
0

>  <SCORE.INTRA.DIHEDRAL.0>
0

>  <SCORE.INTRA.POLAR>
0

>  <SCORE.INTRA.POLAR.0>
0

>  <SCORE.INTRA.REPUL>
0

>  <SCORE.INTRA.REPUL.0>
0

>  <SCORE.INTRA.SOLV>
0

>  <SCORE.INTRA.SOLV.lig_0>
-49.4056

>  <SCORE.INTRA.VDW>
0

>  <SCORE.INTRA.VDW.0>
0

>  <SCORE.INTRA.norm>
0

>  <SCORE.RESTR>
0

>  <SCORE.RESTR.CAVITY>
0

>  <SCORE.RESTR.norm>
0

>  <SCORE.SYSTEM>
0

>  <SCORE.SYSTEM.CONST>
0

>  <SCORE.SYSTEM.DIHEDRAL>
0

>  <SCORE.SYSTEM.SOLV>
0

>  <SCORE.SYSTEM.norm>
0

>  <SCORE.heavy>
11

>  <SCORE.norm>
-0.781144

>  <RMSD>
11.575

$$$$
ligand
 OpenBabel11021811503D
libRbt.so/2013.1/901 2013/11/27
 11 12  0  0  0  0  0  0  0  0999 V2000
   -4.0377  -28.7517   29.0519 N   0  0  0  0  0  0  0  0  0  0  0  0
   -5.1870  -29.4073   28.7555 C   0  0  0  0  0  0  0  0  0  0  0  0
   -6.3685  -29.2072   29.5402 N   0  0  0  0  0  0  0  0  0  0  0  0
   -5.2424  -30.2653   27.7213 N   0  0  0  0  0  0  0  0  0  0  0  0
   -4.1414  -30.5006   26.9287 C   0  0  0  0  0  0  0  0  0  0  0  0
   -2.9553  -29.8476   27.2098 C   0  0  0  0  0  0  0  0  0  0  0  0
   -2.9217  -28.9470   28.3160 C   0  0  0  0  0  0  0  0  0  0  0  0
   -1.7101  -28.2561   28.6363 N   0  0  0  0  0  0  0  0  0  0  0  0
   -2.0361  -30.2725   26.2693 N   0  0  0  0  0  0  0  0  0  0  0  0
   -2.6331  -31.1576   25.4460 C   0  0  0  0  0  0  0  0  0  0  0  0
   -3.9163  -31.3152   25.8278 N   0  0  0  0  0  0  0  0  0  0  0  0
  1  7  2  0  0  0  0
  1  2  1  0  0  0  0
  2  3  1  0  0  0  0
  2  4  2  0  0  0  0
  4  5  1  0  0  0  0
  5  6  2  0  0  0  0
  5 11  1  0  0  0  0
  6  7  1  0  0  0  0
  6  9  1  0  0  0  0
  7  8  1  0  0  0  0
  9 10  1  0  0  0  0
 10 11  2  0  0  0  0
M  END
>  <CHROM.1>
-3.75287203,-29.80054572,27.62860154,-2.22175687,-0.27404353,-2.24921058

>  <Name>
ligand

>  <RI>
0

>  <Rbt.Current_Directory>
/home/itssahil/PROJECTS/Mol_Feturizer/New_Systems/rnas/4LVZ

>  <Rbt.Executable>
rbdock ($Id: //depot/dev/client3/rdock/2013.1/src/exe/rbdock.cxx#4 $)

>  <Rbt.Library>
libRbt.so (2013.1, Build901 2013/11/27)

>  <Rbt.Parameter_File>
/export/apps/rDock/src/rDock_2013.1_src/data/scripts/dock_solv.prm

>  <Rbt.Receptor>
prm/blind_docking_80.prm

>  <SCORE>
-10.4126

>  <SCORE.INTER>
-10.4126

>  <SCORE.INTER.CONST>
1

>  <SCORE.INTER.POLAR>
0

>  <SCORE.INTER.ROT>
0

>  <SCORE.INTER.SOLV>
15.4222

>  <SCORE.INTER.VDW>
-15.6825

>  <SCORE.INTER.norm>
-0.946603

>  <SCORE.INTRA>
0

>  <SCORE.INTRA.DIHEDRAL>
0

>  <SCORE.INTRA.DIHEDRAL.0>
0

>  <SCORE.INTRA.POLAR>
0

>  <SCORE.INTRA.POLAR.0>
0

>  <SCORE.INTRA.REPUL>
0

>  <SCORE.INTRA.REPUL.0>
0

>  <SCORE.INTRA.SOLV>
0

>  <SCORE.INTRA.SOLV.lig_0>
-49.4056

>  <SCORE.INTRA.VDW>
0

>  <SCORE.INTRA.VDW.0>
0

>  <SCORE.INTRA.norm>
0

>  <SCORE.RESTR>
0

>  <SCORE.RESTR.CAVITY>
0

>  <SCORE.RESTR.norm>
0

>  <SCORE.SYSTEM>
0

>  <SCORE.SYSTEM.CONST>
0

>  <SCORE.SYSTEM.DIHEDRAL>
0

>  <SCORE.SYSTEM.SOLV>
0

>  <SCORE.SYSTEM.norm>
0

>  <SCORE.heavy>
11

>  <SCORE.norm>
-0.946603

>  <RMSD>
11.674

$$$$
ligand
 OpenBabel11021811503D
libRbt.so/2013.1/901 2013/11/27
 11 12  0  0  0  0  0  0  0  0999 V2000
   -4.0567  -28.7420   29.0703 N   0  0  0  0  0  0  0  0  0  0  0  0
   -5.2051  -29.4024   28.7811 C   0  0  0  0  0  0  0  0  0  0  0  0
   -6.3837  -29.2042   29.5707 N   0  0  0  0  0  0  0  0  0  0  0  0
   -5.2624  -30.2635   27.7495 N   0  0  0  0  0  0  0  0  0  0  0  0
   -4.1643  -30.4973   26.9526 C   0  0  0  0  0  0  0  0  0  0  0  0
   -2.9791  -29.8394   27.2263 C   0  0  0  0  0  0  0  0  0  0  0  0
   -2.9435  -28.9356   28.3298 C   0  0  0  0  0  0  0  0  0  0  0  0
   -1.7329  -28.2396   28.6426 N   0  0  0  0  0  0  0  0  0  0  0  0
   -2.0628  -30.2638   26.2828 N   0  0  0  0  0  0  0  0  0  0  0  0
   -2.6605  -31.1533   25.4648 C   0  0  0  0  0  0  0  0  0  0  0  0
   -3.9413  -31.3142   25.8529 N   0  0  0  0  0  0  0  0  0  0  0  0
  1  7  2  0  0  0  0
  1  2  1  0  0  0  0
  2  3  1  0  0  0  0
  2  4  2  0  0  0  0
  4  5  1  0  0  0  0
  5  6  2  0  0  0  0
  5 11  1  0  0  0  0
  6  7  1  0  0  0  0
  6  9  1  0  0  0  0
  7  8  1  0  0  0  0
  9 10  1  0  0  0  0
 10 11  2  0  0  0  0
M  END
>  <CHROM.1>
-3.77488721,-29.79391721,27.64869532,-2.22027509,-0.27961839,-2.25162404

>  <Name>
ligand

>  <RI>
0

>  <Rbt.Current_Directory>
/home/itssahil/PROJECTS/Mol_Feturizer/New_Systems/rnas/4LVZ

>  <Rbt.Executable>
rbdock ($Id: //depot/dev/client3/rdock/2013.1/src/exe/rbdock.cxx#4 $)

>  <Rbt.Library>
libRbt.so (2013.1, Build901 2013/11/27)

>  <Rbt.Parameter_File>
/export/apps/rDock/src/rDock_2013.1_src/data/scripts/dock_solv.prm

>  <Rbt.Receptor>
prm/blind_docking_100.prm

>  <SCORE>
-10.3884

>  <SCORE.INTER>
-10.3884

>  <SCORE.INTER.CONST>
1

>  <SCORE.INTER.POLAR>
0

>  <SCORE.INTER.ROT>
0

>  <SCORE.INTER.SOLV>
15.3832

>  <SCORE.INTER.VDW>
-15.6533

>  <SCORE.INTER.norm>
-0.944397

>  <SCORE.INTRA>
0

>  <SCORE.INTRA.DIHEDRAL>
0

>  <SCORE.INTRA.DIHEDRAL.0>
0

>  <SCORE.INTRA.POLAR>
0

>  <SCORE.INTRA.POLAR.0>
0

>  <SCORE.INTRA.REPUL>
0

>  <SCORE.INTRA.REPUL.0>
0

>  <SCORE.INTRA.SOLV>
0

>  <SCORE.INTRA.SOLV.lig_0>
-49.4056

>  <SCORE.INTRA.VDW>
0

>  <SCORE.INTRA.VDW.0>
0

>  <SCORE.INTRA.norm>
0

>  <SCORE.RESTR>
0

>  <SCORE.RESTR.CAVITY>
0

>  <SCORE.RESTR.norm>
0

>  <SCORE.SYSTEM>
0

>  <SCORE.SYSTEM.CONST>
0

>  <SCORE.SYSTEM.DIHEDRAL>
0

>  <SCORE.SYSTEM.SOLV>
0

>  <SCORE.SYSTEM.norm>
0

>  <SCORE.heavy>
11

>  <SCORE.norm>
-0.944397

>  <RMSD>
11.680

$$$$
ligand
 OpenBabel11021811503D
libRbt.so/2013.1/901 2013/11/27
 11 12  0  0  0  0  0  0  0  0999 V2000
   -4.0741  -28.7487   29.0968 N   0  0  0  0  0  0  0  0  0  0  0  0
   -5.2244  -29.4155   28.8304 C   0  0  0  0  0  0  0  0  0  0  0  0
   -6.3845  -29.2329   29.6505 N   0  0  0  0  0  0  0  0  0  0  0  0
   -5.3007  -30.2684   27.7933 N   0  0  0  0  0  0  0  0  0  0  0  0
   -4.2209  -30.4870   26.9675 C   0  0  0  0  0  0  0  0  0  0  0  0
   -3.0342  -29.8225   27.2175 C   0  0  0  0  0  0  0  0  0  0  0  0
   -2.9782  -28.9276   28.3274 C   0  0  0  0  0  0  0  0  0  0  0  0
   -1.7654  -28.2250   28.6162 N   0  0  0  0  0  0  0  0  0  0  0  0
   -2.1385  -30.2319   26.2481 N   0  0  0  0  0  0  0  0  0  0  0  0
   -2.7496  -31.1192   25.4375 C   0  0  0  0  0  0  0  0  0  0  0  0
   -4.0192  -31.2931   25.8557 N   0  0  0  0  0  0  0  0  0  0  0  0
  1  7  2  0  0  0  0
  1  2  1  0  0  0  0
  2  3  1  0  0  0  0
  2  4  2  0  0  0  0
  4  5  1  0  0  0  0
  5  6  2  0  0  0  0
  5 11  1  0  0  0  0
  6  7  1  0  0  0  0
  6  9  1  0  0  0  0
  7  8  1  0  0  0  0
  9 10  1  0  0  0  0
 10 11  2  0  0  0  0
M  END
>  <CHROM.1>
-3.81970807,-29.78656979,27.65975505,-2.20505703,-0.30095341,-2.23884214

>  <Name>
ligand

>  <RI>
0

>  <Rbt.Current_Directory>
/home/itssahil/PROJECTS/Mol_Feturizer/New_Systems/rnas/4LVZ

>  <Rbt.Executable>
rbdock ($Id: //depot/dev/client3/rdock/2013.1/src/exe/rbdock.cxx#4 $)

>  <Rbt.Library>
libRbt.so (2013.1, Build901 2013/11/27)

>  <Rbt.Parameter_File>
/export/apps/rDock/src/rDock_2013.1_src/data/scripts/dock_solv.prm

>  <Rbt.Receptor>
prm/blind_docking_100.prm

>  <SCORE>
-10.4045

>  <SCORE.INTER>
-10.4045

>  <SCORE.INTER.CONST>
1

>  <SCORE.INTER.POLAR>
0

>  <SCORE.INTER.ROT>
0

>  <SCORE.INTER.SOLV>
15.1902

>  <SCORE.INTER.VDW>
-15.5997

>  <SCORE.INTER.norm>
-0.945865

>  <SCORE.INTRA>
0

>  <SCORE.INTRA.DIHEDRAL>
0

>  <SCORE.INTRA.DIHEDRAL.0>
0

>  <SCORE.INTRA.POLAR>
0

>  <SCORE.INTRA.POLAR.0>
0

>  <SCORE.INTRA.REPUL>
0

>  <SCORE.INTRA.REPUL.0>
0

>  <SCORE.INTRA.SOLV>
0

>  <SCORE.INTRA.SOLV.lig_0>
-49.4056

>  <SCORE.INTRA.VDW>
0

>  <SCORE.INTRA.VDW.0>
0

>  <SCORE.INTRA.norm>
0

>  <SCORE.RESTR>
0

>  <SCORE.RESTR.CAVITY>
0

>  <SCORE.RESTR.norm>
0

>  <SCORE.SYSTEM>
0

>  <SCORE.SYSTEM.CONST>
0

>  <SCORE.SYSTEM.DIHEDRAL>
0

>  <SCORE.SYSTEM.SOLV>
0

>  <SCORE.SYSTEM.norm>
0

>  <SCORE.heavy>
11

>  <SCORE.norm>
-0.945865

>  <RMSD>
11.693

$$$$
ligand
 OpenBabel11021811503D
libRbt.so/2013.1/901 2013/11/27
 11 12  0  0  0  0  0  0  0  0999 V2000
   -4.0730  -28.7171   29.1895 N   0  0  0  0  0  0  0  0  0  0  0  0
   -5.2420  -29.3658   28.9637 C   0  0  0  0  0  0  0  0  0  0  0  0
   -6.3699  -29.1651   29.8237 N   0  0  0  0  0  0  0  0  0  0  0  0
   -5.3678  -30.2174   27.9303 N   0  0  0  0  0  0  0  0  0  0  0  0
   -4.3210  -30.4529   27.0676 C   0  0  0  0  0  0  0  0  0  0  0  0
   -3.1161  -29.8069   27.2757 C   0  0  0  0  0  0  0  0  0  0  0  0
   -3.0075  -28.9130   28.3825 C   0  0  0  0  0  0  0  0  0  0  0  0
   -1.7745  -28.2294   28.6284 N   0  0  0  0  0  0  0  0  0  0  0  0
   -2.2612  -30.2302   26.2758 N   0  0  0  0  0  0  0  0  0  0  0  0
   -2.9140  -31.1078   25.4875 C   0  0  0  0  0  0  0  0  0  0  0  0
   -4.1708  -31.2619   25.9498 N   0  0  0  0  0  0  0  0  0  0  0  0
  1  7  2  0  0  0  0
  1  2  1  0  0  0  0
  2  3  1  0  0  0  0
  2  4  2  0  0  0  0
  4  5  1  0  0  0  0
  5  6  2  0  0  0  0
  5 11  1  0  0  0  0
  6  7  1  0  0  0  0
  6  9  1  0  0  0  0
  7  8  1  0  0  0  0
  9 10  1  0  0  0  0
 10 11  2  0  0  0  0
M  END
>  <CHROM.1>
-3.88502953,-29.75873134,27.74500955,-2.16615945,-0.31010634,-2.22739866

>  <Name>
ligand

>  <RI>
0

>  <Rbt.Current_Directory>
/home/itssahil/PROJECTS/Mol_Feturizer/New_Systems/rnas/4LVZ

>  <Rbt.Executable>
rbdock ($Id: //depot/dev/client3/rdock/2013.1/src/exe/rbdock.cxx#4 $)

>  <Rbt.Library>
libRbt.so (2013.1, Build901 2013/11/27)

>  <Rbt.Parameter_File>
/export/apps/rDock/src/rDock_2013.1_src/data/scripts/dock_solv.prm

>  <Rbt.Receptor>
prm/blind_docking_80.prm

>  <SCORE>
-10.4595

>  <SCORE.INTER>
-10.4595

>  <SCORE.INTER.CONST>
1

>  <SCORE.INTER.POLAR>
0

>  <SCORE.INTER.ROT>
0

>  <SCORE.INTER.SOLV>
14.8971

>  <SCORE.INTER.VDW>
-15.5387

>  <SCORE.INTER.norm>
-0.950862

>  <SCORE.INTRA>
0

>  <SCORE.INTRA.DIHEDRAL>
0

>  <SCORE.INTRA.DIHEDRAL.0>
0

>  <SCORE.INTRA.POLAR>
0

>  <SCORE.INTRA.POLAR.0>
0

>  <SCORE.INTRA.REPUL>
0

>  <SCORE.INTRA.REPUL.0>
0

>  <SCORE.INTRA.SOLV>
0

>  <SCORE.INTRA.SOLV.lig_0>
-49.4056

>  <SCORE.INTRA.VDW>
0

>  <SCORE.INTRA.VDW.0>
0

>  <SCORE.INTRA.norm>
0

>  <SCORE.RESTR>
0

>  <SCORE.RESTR.CAVITY>
0

>  <SCORE.RESTR.norm>
0

>  <SCORE.SYSTEM>
0

>  <SCORE.SYSTEM.CONST>
0

>  <SCORE.SYSTEM.DIHEDRAL>
0

>  <SCORE.SYSTEM.SOLV>
0

>  <SCORE.SYSTEM.norm>
0

>  <SCORE.heavy>
11

>  <SCORE.norm>
-0.950862

>  <RMSD>
11.701

$$$$
ligand
 OpenBabel11021811503D
libRbt.so/2013.1/901 2013/11/27
 11 12  0  0  0  0  0  0  0  0999 V2000
   -4.0756  -28.7187   29.1935 N   0  0  0  0  0  0  0  0  0  0  0  0
   -5.2450  -29.3666   28.9673 C   0  0  0  0  0  0  0  0  0  0  0  0
   -6.3720  -29.1677   29.8289 N   0  0  0  0  0  0  0  0  0  0  0  0
   -5.3720  -30.2158   27.9321 N   0  0  0  0  0  0  0  0  0  0  0  0
   -4.3261  -30.4495   27.0677 C   0  0  0  0  0  0  0  0  0  0  0  0
   -3.1209  -29.8043   27.2761 C   0  0  0  0  0  0  0  0  0  0  0  0
   -3.0109  -28.9130   28.3849 C   0  0  0  0  0  0  0  0  0  0  0  0
   -1.7775  -28.2303   28.6311 N   0  0  0  0  0  0  0  0  0  0  0  0
   -2.2671  -30.2255   26.2744 N   0  0  0  0  0  0  0  0  0  0  0  0
   -2.9209  -31.1011   25.4848 C   0  0  0  0  0  0  0  0  0  0  0  0
   -4.1772  -31.2560   25.9480 N   0  0  0  0  0  0  0  0  0  0  0  0
  1  7  2  0  0  0  0
  1  2  1  0  0  0  0
  2  3  1  0  0  0  0
  2  4  2  0  0  0  0
  4  5  1  0  0  0  0
  5  6  2  0  0  0  0
  5 11  1  0  0  0  0
  6  7  1  0  0  0  0
  6  9  1  0  0  0  0
  7  8  1  0  0  0  0
  9 10  1  0  0  0  0
 10 11  2  0  0  0  0
M  END
>  <CHROM.1>
-3.88930092,-29.75702226,27.74635144,-2.16516803,-0.31053249,-2.22476386

>  <Name>
ligand

>  <RI>
0

>  <Rbt.Current_Directory>
/home/itssahil/PROJECTS/Mol_Feturizer/New_Systems/rnas/4LVZ

>  <Rbt.Executable>
rbdock ($Id: //depot/dev/client3/rdock/2013.1/src/exe/rbdock.cxx#4 $)

>  <Rbt.Library>
libRbt.so (2013.1, Build901 2013/11/27)

>  <Rbt.Parameter_File>
/export/apps/rDock/src/rDock_2013.1_src/data/scripts/dock_solv.prm

>  <Rbt.Receptor>
prm/blind_docking_60.prm

>  <SCORE>
-10.4533

>  <SCORE.INTER>
-10.4533

>  <SCORE.INTER.CONST>
1

>  <SCORE.INTER.POLAR>
0

>  <SCORE.INTER.ROT>
0

>  <SCORE.INTER.SOLV>
14.8879

>  <SCORE.INTER.VDW>
-15.5315

>  <SCORE.INTER.norm>
-0.950301

>  <SCORE.INTRA>
0

>  <SCORE.INTRA.DIHEDRAL>
0

>  <SCORE.INTRA.DIHEDRAL.0>
0

>  <SCORE.INTRA.POLAR>
0

>  <SCORE.INTRA.POLAR.0>
0

>  <SCORE.INTRA.REPUL>
0

>  <SCORE.INTRA.REPUL.0>
0

>  <SCORE.INTRA.SOLV>
0

>  <SCORE.INTRA.SOLV.lig_0>
-49.4056

>  <SCORE.INTRA.VDW>
0

>  <SCORE.INTRA.VDW.0>
0

>  <SCORE.INTRA.norm>
0

>  <SCORE.RESTR>
0

>  <SCORE.RESTR.CAVITY>
0

>  <SCORE.RESTR.norm>
0

>  <SCORE.SYSTEM>
0

>  <SCORE.SYSTEM.CONST>
0

>  <SCORE.SYSTEM.DIHEDRAL>
0

>  <SCORE.SYSTEM.SOLV>
0

>  <SCORE.SYSTEM.norm>
0

>  <SCORE.heavy>
11

>  <SCORE.norm>
-0.950301

>  <RMSD>
11.702

$$$$
ligand
 OpenBabel11021811503D
libRbt.so/2013.1/901 2013/11/27
 11 12  0  0  0  0  0  0  0  0999 V2000
   -4.0398  -28.7372   29.1498 N   0  0  0  0  0  0  0  0  0  0  0  0
   -5.2170  -29.3733   28.9305 C   0  0  0  0  0  0  0  0  0  0  0  0
   -6.3380  -29.1602   29.7965 N   0  0  0  0  0  0  0  0  0  0  0  0
   -5.3576  -30.2237   27.8981 N   0  0  0  0  0  0  0  0  0  0  0  0
   -4.3180  -30.4707   27.0297 C   0  0  0  0  0  0  0  0  0  0  0  0
   -3.1051  -29.8377   27.2311 C   0  0  0  0  0  0  0  0  0  0  0  0
   -2.9808  -28.9448   28.3371 C   0  0  0  0  0  0  0  0  0  0  0  0
   -1.7392  -28.2745   28.5761 N   0  0  0  0  0  0  0  0  0  0  0  0
   -2.2603  -30.2705   26.2268 N   0  0  0  0  0  0  0  0  0  0  0  0
   -2.9268  -31.1412   25.4423 C   0  0  0  0  0  0  0  0  0  0  0  0
   -4.1826  -31.2816   25.9115 N   0  0  0  0  0  0  0  0  0  0  0  0
  1  7  2  0  0  0  0
  1  2  1  0  0  0  0
  2  3  1  0  0  0  0
  2  4  2  0  0  0  0
  4  5  1  0  0  0  0
  5  6  2  0  0  0  0
  5 11  1  0  0  0  0
  6  7  1  0  0  0  0
  6  9  1  0  0  0  0
  7  8  1  0  0  0  0
  9 10  1  0  0  0  0
 10 11  2  0  0  0  0
M  END
>  <CHROM.1>
-3.87093645,-29.78112865,27.70461322,-2.15475665,-0.30481988,-2.22420999

>  <Name>
ligand

>  <RI>
0

>  <Rbt.Current_Directory>
/home/itssahil/PROJECTS/Mol_Feturizer/New_Systems/rnas/4LVZ

>  <Rbt.Executable>
rbdock ($Id: //depot/dev/client3/rdock/2013.1/src/exe/rbdock.cxx#4 $)

>  <Rbt.Library>
libRbt.so (2013.1, Build901 2013/11/27)

>  <Rbt.Parameter_File>
/export/apps/rDock/src/rDock_2013.1_src/data/scripts/dock_solv.prm

>  <Rbt.Receptor>
prm/blind_docking_100.prm

>  <SCORE>
-10.3809

>  <SCORE.INTER>
-10.3809

>  <SCORE.INTER.CONST>
1

>  <SCORE.INTER.POLAR>
0

>  <SCORE.INTER.ROT>
0

>  <SCORE.INTER.SOLV>
14.8196

>  <SCORE.INTER.VDW>
-15.4605

>  <SCORE.INTER.norm>
-0.943719

>  <SCORE.INTRA>
0

>  <SCORE.INTRA.DIHEDRAL>
0

>  <SCORE.INTRA.DIHEDRAL.0>
0

>  <SCORE.INTRA.POLAR>
0

>  <SCORE.INTRA.POLAR.0>
0

>  <SCORE.INTRA.REPUL>
0

>  <SCORE.INTRA.REPUL.0>
0

>  <SCORE.INTRA.SOLV>
0

>  <SCORE.INTRA.SOLV.lig_0>
-49.4056

>  <SCORE.INTRA.VDW>
0

>  <SCORE.INTRA.VDW.0>
0

>  <SCORE.INTRA.norm>
0

>  <SCORE.RESTR>
0

>  <SCORE.RESTR.CAVITY>
0

>  <SCORE.RESTR.norm>
0

>  <SCORE.SYSTEM>
0

>  <SCORE.SYSTEM.CONST>
0

>  <SCORE.SYSTEM.DIHEDRAL>
0

>  <SCORE.SYSTEM.SOLV>
0

>  <SCORE.SYSTEM.norm>
0

>  <SCORE.heavy>
11

>  <SCORE.norm>
-0.943719

>  <RMSD>
11.703

$$$$
ligand
 OpenBabel11021811503D
libRbt.so/2013.1/901 2013/11/27
 11 12  0  0  0  0  0  0  0  0999 V2000
   -4.0721  -28.7225   29.2007 N   0  0  0  0  0  0  0  0  0  0  0  0
   -5.2434  -29.3651   28.9690 C   0  0  0  0  0  0  0  0  0  0  0  0
   -6.3731  -29.1619   29.8260 N   0  0  0  0  0  0  0  0  0  0  0  0
   -5.3697  -30.2128   27.9325 N   0  0  0  0  0  0  0  0  0  0  0  0
   -4.3212  -30.4504   27.0724 C   0  0  0  0  0  0  0  0  0  0  0  0
   -3.1140  -29.8107   27.2864 C   0  0  0  0  0  0  0  0  0  0  0  0
   -3.0048  -28.9209   28.3965 C   0  0  0  0  0  0  0  0  0  0  0  0
   -1.7695  -28.2438   28.6485 N   0  0  0  0  0  0  0  0  0  0  0  0
   -2.2578  -30.2349   26.2880 N   0  0  0  0  0  0  0  0  0  0  0  0
   -2.9122  -31.1069   25.4948 C   0  0  0  0  0  0  0  0  0  0  0  0
   -4.1711  -31.2566   25.9526 N   0  0  0  0  0  0  0  0  0  0  0  0
  1  7  2  0  0  0  0
  1  2  1  0  0  0  0
  2  3  1  0  0  0  0
  2  4  2  0  0  0  0
  4  5  1  0  0  0  0
  5  6  2  0  0  0  0
  5 11  1  0  0  0  0
  6  7  1  0  0  0  0
  6  9  1  0  0  0  0
  7  8  1  0  0  0  0
  9 10  1  0  0  0  0
 10 11  2  0  0  0  0
M  END
>  <CHROM.1>
-3.88423779,-29.76048641,27.75345688,-2.16589021,-0.30444425,-2.22413345

>  <Name>
ligand

>  <RI>
0

>  <Rbt.Current_Directory>
/home/itssahil/PROJECTS/Mol_Feturizer/New_Systems/rnas/4LVZ

>  <Rbt.Executable>
rbdock ($Id: //depot/dev/client3/rdock/2013.1/src/exe/rbdock.cxx#4 $)

>  <Rbt.Library>
libRbt.so (2013.1, Build901 2013/11/27)

>  <Rbt.Parameter_File>
/export/apps/rDock/src/rDock_2013.1_src/data/scripts/dock_solv.prm

>  <Rbt.Receptor>
prm/blind_docking_100.prm

>  <SCORE>
-10.4354

>  <SCORE.INTER>
-10.4354

>  <SCORE.INTER.CONST>
1

>  <SCORE.INTER.POLAR>
0

>  <SCORE.INTER.ROT>
0

>  <SCORE.INTER.SOLV>
14.9124

>  <SCORE.INTER.VDW>
-15.5277

>  <SCORE.INTER.norm>
-0.948672

>  <SCORE.INTRA>
0

>  <SCORE.INTRA.DIHEDRAL>
0

>  <SCORE.INTRA.DIHEDRAL.0>
0

>  <SCORE.INTRA.POLAR>
0

>  <SCORE.INTRA.POLAR.0>
0

>  <SCORE.INTRA.REPUL>
0

>  <SCORE.INTRA.REPUL.0>
0

>  <SCORE.INTRA.SOLV>
0

>  <SCORE.INTRA.SOLV.lig_0>
-49.4056

>  <SCORE.INTRA.VDW>
0

>  <SCORE.INTRA.VDW.0>
0

>  <SCORE.INTRA.norm>
0

>  <SCORE.RESTR>
0

>  <SCORE.RESTR.CAVITY>
0

>  <SCORE.RESTR.norm>
0

>  <SCORE.SYSTEM>
0

>  <SCORE.SYSTEM.CONST>
0

>  <SCORE.SYSTEM.DIHEDRAL>
0

>  <SCORE.SYSTEM.SOLV>
0

>  <SCORE.SYSTEM.norm>
0

>  <SCORE.heavy>
11

>  <SCORE.norm>
-0.948672

>  <RMSD>
11.703

$$$$
ligand
 OpenBabel11021811503D
libRbt.so/2013.1/901 2013/11/27
 11 12  0  0  0  0  0  0  0  0999 V2000
   -4.0676  -28.7413   29.2186 N   0  0  0  0  0  0  0  0  0  0  0  0
   -5.2440  -29.3710   28.9775 C   0  0  0  0  0  0  0  0  0  0  0  0
   -6.3753  -29.1631   29.8314 N   0  0  0  0  0  0  0  0  0  0  0  0
   -5.3741  -30.2099   27.9345 N   0  0  0  0  0  0  0  0  0  0  0  0
   -4.3244  -30.4514   27.0769 C   0  0  0  0  0  0  0  0  0  0  0  0
   -3.1121  -29.8248   27.3005 C   0  0  0  0  0  0  0  0  0  0  0  0
   -2.9990  -28.9440   28.4174 C   0  0  0  0  0  0  0  0  0  0  0  0
   -1.7583  -28.2807   28.6793 N   0  0  0  0  0  0  0  0  0  0  0  0
   -2.2558  -30.2500   26.3026 N   0  0  0  0  0  0  0  0  0  0  0  0
   -2.9151  -31.1100   25.5005 C   0  0  0  0  0  0  0  0  0  0  0  0
   -4.1773  -31.2510   25.9520 N   0  0  0  0  0  0  0  0  0  0  0  0
  1  7  2  0  0  0  0
  1  2  1  0  0  0  0
  2  3  1  0  0  0  0
  2  4  2  0  0  0  0
  4  5  1  0  0  0  0
  5  6  2  0  0  0  0
  5 11  1  0  0  0  0
  6  7  1  0  0  0  0
  6  9  1  0  0  0  0
  7  8  1  0  0  0  0
  9 10  1  0  0  0  0
 10 11  2  0  0  0  0
M  END
>  <CHROM.1>
-3.88366256,-29.77056858,27.76474137,-2.16326874,-0.29435566,-2.21617162

>  <Name>
ligand

>  <RI>
0

>  <Rbt.Current_Directory>
/home/itssahil/PROJECTS/Mol_Feturizer/New_Systems/rnas/4LVZ

>  <Rbt.Executable>
rbdock ($Id: //depot/dev/client3/rdock/2013.1/src/exe/rbdock.cxx#4 $)

>  <Rbt.Library>
libRbt.so (2013.1, Build901 2013/11/27)

>  <Rbt.Parameter_File>
/export/apps/rDock/src/rDock_2013.1_src/data/scripts/dock_solv.prm

>  <Rbt.Receptor>
prm/blind_docking_100.prm

>  <SCORE>
-10.4149

>  <SCORE.INTER>
-10.4149

>  <SCORE.INTER.CONST>
1

>  <SCORE.INTER.POLAR>
0

>  <SCORE.INTER.ROT>
0

>  <SCORE.INTER.SOLV>
14.9375

>  <SCORE.INTER.VDW>
-15.5224

>  <SCORE.INTER.norm>
-0.946811

>  <SCORE.INTRA>
0

>  <SCORE.INTRA.DIHEDRAL>
0

>  <SCORE.INTRA.DIHEDRAL.0>
0

>  <SCORE.INTRA.POLAR>
0

>  <SCORE.INTRA.POLAR.0>
0

>  <SCORE.INTRA.REPUL>
0

>  <SCORE.INTRA.REPUL.0>
0

>  <SCORE.INTRA.SOLV>
0

>  <SCORE.INTRA.SOLV.lig_0>
-49.4056

>  <SCORE.INTRA.VDW>
0

>  <SCORE.INTRA.VDW.0>
0

>  <SCORE.INTRA.norm>
0

>  <SCORE.RESTR>
0

>  <SCORE.RESTR.CAVITY>
0

>  <SCORE.RESTR.norm>
0

>  <SCORE.SYSTEM>
0

>  <SCORE.SYSTEM.CONST>
0

>  <SCORE.SYSTEM.DIHEDRAL>
0

>  <SCORE.SYSTEM.SOLV>
0

>  <SCORE.SYSTEM.norm>
0

>  <SCORE.heavy>
11

>  <SCORE.norm>
-0.946811

>  <RMSD>
11.713

$$$$
ligand
 OpenBabel11021811503D
libRbt.so/2013.1/901 2013/11/27
 11 12  0  0  0  0  0  0  0  0999 V2000
   -4.1127  -28.7390   29.1227 N   0  0  0  0  0  0  0  0  0  0  0  0
   -5.2774  -29.3871   28.8740 C   0  0  0  0  0  0  0  0  0  0  0  0
   -6.4237  -29.1809   29.7080 N   0  0  0  0  0  0  0  0  0  0  0  0
   -5.3817  -30.2431   27.8420 N   0  0  0  0  0  0  0  0  0  0  0  0
   -4.3164  -30.4840   27.0036 C   0  0  0  0  0  0  0  0  0  0  0  0
   -3.1154  -29.8388   27.2354 C   0  0  0  0  0  0  0  0  0  0  0  0
   -3.0299  -28.9401   28.3403 C   0  0  0  0  0  0  0  0  0  0  0  0
   -1.8016  -28.2571   28.6103 N   0  0  0  0  0  0  0  0  0  0  0  0
   -2.2393  -30.2679   26.2566 N   0  0  0  0  0  0  0  0  0  0  0  0
   -2.8759  -31.1481   25.4580 C   0  0  0  0  0  0  0  0  0  0  0  0
   -4.1428  -31.2984   25.8932 N   0  0  0  0  0  0  0  0  0  0  0  0
  1  7  2  0  0  0  0
  1  2  1  0  0  0  0
  2  3  1  0  0  0  0
  2  4  2  0  0  0  0
  4  5  1  0  0  0  0
  5  6  2  0  0  0  0
  5 11  1  0  0  0  0
  6  7  1  0  0  0  0
  6  9  1  0  0  0  0
  7  8  1  0  0  0  0
  9 10  1  0  0  0  0
 10 11  2  0  0  0  0
M  END
>  <CHROM.1>
-3.89444926,-29.78743290,27.68740691,-2.18346989,-0.29538326,-2.23707403

>  <Name>
ligand

>  <RI>
0

>  <Rbt.Current_Directory>
/home/itssahil/PROJECTS/Mol_Feturizer/New_Systems/rnas/4LVZ

>  <Rbt.Executable>
rbdock ($Id: //depot/dev/client3/rdock/2013.1/src/exe/rbdock.cxx#4 $)

>  <Rbt.Library>
libRbt.so (2013.1, Build901 2013/11/27)

>  <Rbt.Parameter_File>
/export/apps/rDock/src/rDock_2013.1_src/data/scripts/dock_solv.prm

>  <Rbt.Receptor>
prm/blind_docking_100.prm

>  <SCORE>
-10.4364

>  <SCORE.INTER>
-10.4364

>  <SCORE.INTER.CONST>
1

>  <SCORE.INTER.POLAR>
0

>  <SCORE.INTER.ROT>
0

>  <SCORE.INTER.SOLV>
14.9571

>  <SCORE.INTER.VDW>
-15.5433

>  <SCORE.INTER.norm>
-0.948763

>  <SCORE.INTRA>
0

>  <SCORE.INTRA.DIHEDRAL>
0

>  <SCORE.INTRA.DIHEDRAL.0>
0

>  <SCORE.INTRA.POLAR>
0

>  <SCORE.INTRA.POLAR.0>
0

>  <SCORE.INTRA.REPUL>
0

>  <SCORE.INTRA.REPUL.0>
0

>  <SCORE.INTRA.SOLV>
0

>  <SCORE.INTRA.SOLV.lig_0>
-49.4056

>  <SCORE.INTRA.VDW>
0

>  <SCORE.INTRA.VDW.0>
0

>  <SCORE.INTRA.norm>
0

>  <SCORE.RESTR>
0

>  <SCORE.RESTR.CAVITY>
0

>  <SCORE.RESTR.norm>
0

>  <SCORE.SYSTEM>
0

>  <SCORE.SYSTEM.CONST>
0

>  <SCORE.SYSTEM.DIHEDRAL>
0

>  <SCORE.SYSTEM.SOLV>
0

>  <SCORE.SYSTEM.norm>
0

>  <SCORE.heavy>
11

>  <SCORE.norm>
-0.948763

>  <RMSD>
11.728

$$$$
ligand
 OpenBabel11021811503D
libRbt.so/2013.1/901 2013/11/27
 11 12  0  0  0  0  0  0  0  0999 V2000
   -3.6069  -28.8096   29.5759 N   0  0  0  0  0  0  0  0  0  0  0  0
   -4.9201  -28.9584   29.8790 C   0  0  0  0  0  0  0  0  0  0  0  0
   -5.4622  -28.4028   31.0829 N   0  0  0  0  0  0  0  0  0  0  0  0
   -5.7429  -29.6363   29.0590 N   0  0  0  0  0  0  0  0  0  0  0  0
   -5.2830  -30.1935   27.8870 C   0  0  0  0  0  0  0  0  0  0  0  0
   -3.9475  -30.0596   27.5541 C   0  0  0  0  0  0  0  0  0  0  0  0
   -3.0949  -29.3406   28.4441 C   0  0  0  0  0  0  0  0  0  0  0  0
   -1.7071  -29.1847   28.1316 N   0  0  0  0  0  0  0  0  0  0  0  0
   -3.7722  -30.7105   26.3477 N   0  0  0  0  0  0  0  0  0  0  0  0
   -4.9535  -31.2301   25.9577 C   0  0  0  0  0  0  0  0  0  0  0  0
   -5.8902  -30.9303   26.8795 N   0  0  0  0  0  0  0  0  0  0  0  0
  1  7  2  0  0  0  0
  1  2  1  0  0  0  0
  2  3  1  0  0  0  0
  2  4  2  0  0  0  0
  4  5  1  0  0  0  0
  5  6  2  0  0  0  0
  5 11  1  0  0  0  0
  6  7  1  0  0  0  0
  6  9  1  0  0  0  0
  7  8  1  0  0  0  0
  9 10  1  0  0  0  0
 10 11  2  0  0  0  0
M  END
>  <CHROM.1>
-4.39534164,-29.75575668,28.27587114,-1.58898472,-0.20926994,-2.09347655

>  <Name>
ligand

>  <RI>
0

>  <Rbt.Current_Directory>
/home/itssahil/PROJECTS/Mol_Feturizer/New_Systems/rnas/4LVZ

>  <Rbt.Executable>
rbdock ($Id: //depot/dev/client3/rdock/2013.1/src/exe/rbdock.cxx#4 $)

>  <Rbt.Library>
libRbt.so (2013.1, Build901 2013/11/27)

>  <Rbt.Parameter_File>
/export/apps/rDock/src/rDock_2013.1_src/data/scripts/dock_solv.prm

>  <Rbt.Receptor>
prm/blind_docking_80.prm

>  <SCORE>
-11.2623

>  <SCORE.INTER>
-11.2696

>  <SCORE.INTER.CONST>
1

>  <SCORE.INTER.POLAR>
0

>  <SCORE.INTER.ROT>
0

>  <SCORE.INTER.SOLV>
12.6331

>  <SCORE.INTER.VDW>
-15.3241

>  <SCORE.INTER.norm>
-1.02451

>  <SCORE.INTRA>
0

>  <SCORE.INTRA.DIHEDRAL>
0

>  <SCORE.INTRA.DIHEDRAL.0>
0

>  <SCORE.INTRA.POLAR>
0

>  <SCORE.INTRA.POLAR.0>
0

>  <SCORE.INTRA.REPUL>
0

>  <SCORE.INTRA.REPUL.0>
0

>  <SCORE.INTRA.SOLV>
0

>  <SCORE.INTRA.SOLV.lig_0>
-49.4056

>  <SCORE.INTRA.VDW>
0

>  <SCORE.INTRA.VDW.0>
0

>  <SCORE.INTRA.norm>
0

>  <SCORE.RESTR>
0.00736448

>  <SCORE.RESTR.CAVITY>
0.00736448

>  <SCORE.RESTR.norm>
0.000669498

>  <SCORE.SYSTEM>
0

>  <SCORE.SYSTEM.CONST>
0

>  <SCORE.SYSTEM.DIHEDRAL>
0

>  <SCORE.SYSTEM.SOLV>
0

>  <SCORE.SYSTEM.norm>
0

>  <SCORE.heavy>
11

>  <SCORE.norm>
-1.02384

>  <RMSD>
11.854

$$$$
ligand
 OpenBabel11021811503D
libRbt.so/2013.1/901 2013/11/27
 11 12  0  0  0  0  0  0  0  0999 V2000
   -3.5726  -28.8415   29.5836 N   0  0  0  0  0  0  0  0  0  0  0  0
   -4.8905  -28.9643   29.8778 C   0  0  0  0  0  0  0  0  0  0  0  0
   -5.4305  -28.3944   31.0759 N   0  0  0  0  0  0  0  0  0  0  0  0
   -5.7201  -29.6294   29.0543 N   0  0  0  0  0  0  0  0  0  0  0  0
   -5.2626  -30.1994   27.8875 C   0  0  0  0  0  0  0  0  0  0  0  0
   -3.9225  -30.0919   27.5637 C   0  0  0  0  0  0  0  0  0  0  0  0
   -3.0628  -29.3861   28.4573 C   0  0  0  0  0  0  0  0  0  0  0  0
   -1.6701  -29.2576   28.1542 N   0  0  0  0  0  0  0  0  0  0  0  0
   -3.7510  -30.7503   26.3608 N   0  0  0  0  0  0  0  0  0  0  0  0
   -4.9392  -31.2488   25.9641 C   0  0  0  0  0  0  0  0  0  0  0  0
   -5.8765  -30.9281   26.8782 N   0  0  0  0  0  0  0  0  0  0  0  0
  1  7  2  0  0  0  0
  1  2  1  0  0  0  0
  2  3  1  0  0  0  0
  2  4  2  0  0  0  0
  4  5  1  0  0  0  0
  5  6  2  0  0  0  0
  5 11  1  0  0  0  0
  6  7  1  0  0  0  0
  6  9  1  0  0  0  0
  7  8  1  0  0  0  0
  9 10  1  0  0  0  0
 10 11  2  0  0  0  0
M  END
>  <CHROM.1>
-4.36959642,-29.77715963,28.28119494,-1.58560471,-0.18933233,-2.09627221

>  <Name>
ligand

>  <RI>
0

>  <Rbt.Current_Directory>
/home/itssahil/PROJECTS/Mol_Feturizer/New_Systems/rnas/4LVZ

>  <Rbt.Executable>
rbdock ($Id: //depot/dev/client3/rdock/2013.1/src/exe/rbdock.cxx#4 $)

>  <Rbt.Library>
libRbt.so (2013.1, Build901 2013/11/27)

>  <Rbt.Parameter_File>
/export/apps/rDock/src/rDock_2013.1_src/data/scripts/dock_solv.prm

>  <Rbt.Receptor>
prm/blind_docking_80.prm

>  <SCORE>
-11.2349

>  <SCORE.INTER>
-11.2435

>  <SCORE.INTER.CONST>
1

>  <SCORE.INTER.POLAR>
0

>  <SCORE.INTER.ROT>
0

>  <SCORE.INTER.SOLV>
12.7795

>  <SCORE.INTER.VDW>
-15.3555

>  <SCORE.INTER.norm>
-1.02214

>  <SCORE.INTRA>
0

>  <SCORE.INTRA.DIHEDRAL>
0

>  <SCORE.INTRA.DIHEDRAL.0>
0

>  <SCORE.INTRA.POLAR>
0

>  <SCORE.INTRA.POLAR.0>
0

>  <SCORE.INTRA.REPUL>
0

>  <SCORE.INTRA.REPUL.0>
0

>  <SCORE.INTRA.SOLV>
0

>  <SCORE.INTRA.SOLV.lig_0>
-49.4056

>  <SCORE.INTRA.VDW>
0

>  <SCORE.INTRA.VDW.0>
0

>  <SCORE.INTRA.norm>
0

>  <SCORE.RESTR>
0.00860986

>  <SCORE.RESTR.CAVITY>
0.00860986

>  <SCORE.RESTR.norm>
0.000782714

>  <SCORE.SYSTEM>
0

>  <SCORE.SYSTEM.CONST>
0

>  <SCORE.SYSTEM.DIHEDRAL>
0

>  <SCORE.SYSTEM.SOLV>
0

>  <SCORE.SYSTEM.norm>
0

>  <SCORE.heavy>
11

>  <SCORE.norm>
-1.02135

>  <RMSD>
11.857

$$$$
ligand
 OpenBabel11021811503D
libRbt.so/2013.1/901 2013/11/27
 11 12  0  0  0  0  0  0  0  0999 V2000
   -4.0753  -28.7445   29.5108 N   0  0  0  0  0  0  0  0  0  0  0  0
   -5.3530  -29.1969   29.4728 C   0  0  0  0  0  0  0  0  0  0  0  0
   -6.2818  -28.8585   30.5096 N   0  0  0  0  0  0  0  0  0  0  0  0
   -5.7762  -29.9789   28.4637 N   0  0  0  0  0  0  0  0  0  0  0  0
   -4.9324  -30.3391   27.4372 C   0  0  0  0  0  0  0  0  0  0  0  0
   -3.6231  -29.8943   27.4518 C   0  0  0  0  0  0  0  0  0  0  0  0
   -3.1980  -29.0707   28.5367 C   0  0  0  0  0  0  0  0  0  0  0  0
   -1.8494  -28.5945   28.5843 N   0  0  0  0  0  0  0  0  0  0  0  0
   -3.0179  -30.4053   26.3194 N   0  0  0  0  0  0  0  0  0  0  0  0
   -3.9192  -31.1414   25.6386 C   0  0  0  0  0  0  0  0  0  0  0  0
   -5.0936  -31.1183   26.3000 N   0  0  0  0  0  0  0  0  0  0  0  0
  1  7  2  0  0  0  0
  1  2  1  0  0  0  0
  2  3  1  0  0  0  0
  2  4  2  0  0  0  0
  4  5  1  0  0  0  0
  5  6  2  0  0  0  0
  5 11  1  0  0  0  0
  6  7  1  0  0  0  0
  6  9  1  0  0  0  0
  7  8  1  0  0  0  0
  9 10  1  0  0  0  0
 10 11  2  0  0  0  0
M  END
>  <CHROM.1>
-4.28906769,-29.74662686,28.04212487,-1.93145012,-0.27533768,-2.13362287

>  <Name>
ligand

>  <RI>
0

>  <Rbt.Current_Directory>
/home/itssahil/PROJECTS/Mol_Feturizer/New_Systems/rnas/4LVZ

>  <Rbt.Executable>
rbdock ($Id: //depot/dev/client3/rdock/2013.1/src/exe/rbdock.cxx#4 $)

>  <Rbt.Library>
libRbt.so (2013.1, Build901 2013/11/27)

>  <Rbt.Parameter_File>
/export/apps/rDock/src/rDock_2013.1_src/data/scripts/dock_solv.prm

>  <Rbt.Receptor>
prm/blind_docking_100.prm

>  <SCORE>
-10.6173

>  <SCORE.INTER>
-10.6173

>  <SCORE.INTER.CONST>
1

>  <SCORE.INTER.POLAR>
0

>  <SCORE.INTER.ROT>
0

>  <SCORE.INTER.SOLV>
13.5342

>  <SCORE.INTER.VDW>
-15.1896

>  <SCORE.INTER.norm>
-0.96521

>  <SCORE.INTRA>
0

>  <SCORE.INTRA.DIHEDRAL>
0

>  <SCORE.INTRA.DIHEDRAL.0>
0

>  <SCORE.INTRA.POLAR>
0

>  <SCORE.INTRA.POLAR.0>
0

>  <SCORE.INTRA.REPUL>
0

>  <SCORE.INTRA.REPUL.0>
0

>  <SCORE.INTRA.SOLV>
0

>  <SCORE.INTRA.SOLV.lig_0>
-49.4056

>  <SCORE.INTRA.VDW>
0

>  <SCORE.INTRA.VDW.0>
0

>  <SCORE.INTRA.norm>
0

>  <SCORE.RESTR>
0

>  <SCORE.RESTR.CAVITY>
0

>  <SCORE.RESTR.norm>
0

>  <SCORE.SYSTEM>
0

>  <SCORE.SYSTEM.CONST>
0

>  <SCORE.SYSTEM.DIHEDRAL>
0

>  <SCORE.SYSTEM.SOLV>
0

>  <SCORE.SYSTEM.norm>
0

>  <SCORE.heavy>
11

>  <SCORE.norm>
-0.96521

>  <RMSD>
11.868

$$$$
ligand
 OpenBabel11021811503D
libRbt.so/2013.1/901 2013/11/27
 11 12  0  0  0  0  0  0  0  0999 V2000
   -4.0732  -28.7804   29.5261 N   0  0  0  0  0  0  0  0  0  0  0  0
   -5.3580  -29.2122   29.4899 C   0  0  0  0  0  0  0  0  0  0  0  0
   -6.2783  -28.8634   30.5307 N   0  0  0  0  0  0  0  0  0  0  0  0
   -5.7966  -29.9829   28.4787 N   0  0  0  0  0  0  0  0  0  0  0  0
   -4.9615  -30.3521   27.4482 C   0  0  0  0  0  0  0  0  0  0  0  0
   -3.6452  -29.9284   27.4609 C   0  0  0  0  0  0  0  0  0  0  0  0
   -3.2039  -29.1165   28.5481 C   0  0  0  0  0  0  0  0  0  0  0  0
   -1.8477  -28.6621   28.5939 N   0  0  0  0  0  0  0  0  0  0  0  0
   -3.0514  -30.4442   26.3246 N   0  0  0  0  0  0  0  0  0  0  0  0
   -3.9664  -31.1628   25.6433 C   0  0  0  0  0  0  0  0  0  0  0  0
   -5.1383  -31.1237   26.3081 N   0  0  0  0  0  0  0  0  0  0  0  0
  1  7  2  0  0  0  0
  1  2  1  0  0  0  0
  2  3  1  0  0  0  0
  2  4  2  0  0  0  0
  4  5  1  0  0  0  0
  5  6  2  0  0  0  0
  5 11  1  0  0  0  0
  6  7  1  0  0  0  0
  6  9  1  0  0  0  0
  7  8  1  0  0  0  0
  9 10  1  0  0  0  0
 10 11  2  0  0  0  0
M  END
>  <CHROM.1>
-4.30704854,-29.77264650,28.05378961,-1.92013661,-0.26326243,-2.12630412

>  <Name>
ligand

>  <RI>
0

>  <Rbt.Current_Directory>
/home/itssahil/PROJECTS/Mol_Feturizer/New_Systems/rnas/4LVZ

>  <Rbt.Executable>
rbdock ($Id: //depot/dev/client3/rdock/2013.1/src/exe/rbdock.cxx#4 $)

>  <Rbt.Library>
libRbt.so (2013.1, Build901 2013/11/27)

>  <Rbt.Parameter_File>
/export/apps/rDock/src/rDock_2013.1_src/data/scripts/dock_solv.prm

>  <Rbt.Receptor>
prm/blind_docking_100.prm

>  <SCORE>
-10.6305

>  <SCORE.INTER>
-10.6305

>  <SCORE.INTER.CONST>
1

>  <SCORE.INTER.POLAR>
0

>  <SCORE.INTER.ROT>
0

>  <SCORE.INTER.SOLV>
13.4995

>  <SCORE.INTER.VDW>
-15.1869

>  <SCORE.INTER.norm>
-0.966413

>  <SCORE.INTRA>
0

>  <SCORE.INTRA.DIHEDRAL>
0

>  <SCORE.INTRA.DIHEDRAL.0>
0

>  <SCORE.INTRA.POLAR>
0

>  <SCORE.INTRA.POLAR.0>
0

>  <SCORE.INTRA.REPUL>
0

>  <SCORE.INTRA.REPUL.0>
0

>  <SCORE.INTRA.SOLV>
0

>  <SCORE.INTRA.SOLV.lig_0>
-49.4056

>  <SCORE.INTRA.VDW>
0

>  <SCORE.INTRA.VDW.0>
0

>  <SCORE.INTRA.norm>
0

>  <SCORE.RESTR>
0

>  <SCORE.RESTR.CAVITY>
0

>  <SCORE.RESTR.norm>
0

>  <SCORE.SYSTEM>
0

>  <SCORE.SYSTEM.CONST>
0

>  <SCORE.SYSTEM.DIHEDRAL>
0

>  <SCORE.SYSTEM.SOLV>
0

>  <SCORE.SYSTEM.norm>
0

>  <SCORE.heavy>
11

>  <SCORE.norm>
-0.966413

>  <RMSD>
11.897

$$$$
ligand
 OpenBabel11021811503D
libRbt.so/2013.1/901 2013/11/27
 11 12  0  0  0  0  0  0  0  0999 V2000
   -4.0678  -28.7937   29.5184 N   0  0  0  0  0  0  0  0  0  0  0  0
   -5.3572  -29.2111   29.4767 C   0  0  0  0  0  0  0  0  0  0  0  0
   -6.2763  -28.8576   30.5170 N   0  0  0  0  0  0  0  0  0  0  0  0
   -5.8016  -29.9719   28.4605 N   0  0  0  0  0  0  0  0  0  0  0  0
   -4.9679  -30.3450   27.4302 C   0  0  0  0  0  0  0  0  0  0  0  0
   -3.6471  -29.9358   27.4484 C   0  0  0  0  0  0  0  0  0  0  0  0
   -3.1998  -29.1342   28.5408 C   0  0  0  0  0  0  0  0  0  0  0  0
   -1.8388  -28.6950   28.5923 N   0  0  0  0  0  0  0  0  0  0  0  0
   -3.0561  -30.4522   26.3109 N   0  0  0  0  0  0  0  0  0  0  0  0
   -3.9771  -31.1573   25.6237 C   0  0  0  0  0  0  0  0  0  0  0  0
   -5.1503  -31.1088   26.2858 N   0  0  0  0  0  0  0  0  0  0  0  0
  1  7  2  0  0  0  0
  1  2  1  0  0  0  0
  2  3  1  0  0  0  0
  2  4  2  0  0  0  0
  4  5  1  0  0  0  0
  5  6  2  0  0  0  0
  5 11  1  0  0  0  0
  6  7  1  0  0  0  0
  6  9  1  0  0  0  0
  7  8  1  0  0  0  0
  9 10  1  0  0  0  0
 10 11  2  0  0  0  0
M  END
>  <CHROM.1>
-4.30875824,-29.77579107,28.04039381,-1.91642286,-0.25264319,-2.12027857

>  <Name>
ligand

>  <RI>
0

>  <Rbt.Current_Directory>
/home/itssahil/PROJECTS/Mol_Feturizer/New_Systems/rnas/4LVZ

>  <Rbt.Executable>
rbdock ($Id: //depot/dev/client3/rdock/2013.1/src/exe/rbdock.cxx#4 $)

>  <Rbt.Library>
libRbt.so (2013.1, Build901 2013/11/27)

>  <Rbt.Parameter_File>
/export/apps/rDock/src/rDock_2013.1_src/data/scripts/dock_solv.prm

>  <Rbt.Receptor>
prm/blind_docking_60.prm

>  <SCORE>
-10.6696

>  <SCORE.INTER>
-10.6696

>  <SCORE.INTER.CONST>
1

>  <SCORE.INTER.POLAR>
0

>  <SCORE.INTER.ROT>
0

>  <SCORE.INTER.SOLV>
13.4895

>  <SCORE.INTER.VDW>
-15.2096

>  <SCORE.INTER.norm>
-0.969966

>  <SCORE.INTRA>
0

>  <SCORE.INTRA.DIHEDRAL>
0

>  <SCORE.INTRA.DIHEDRAL.0>
0

>  <SCORE.INTRA.POLAR>
0

>  <SCORE.INTRA.POLAR.0>
0

>  <SCORE.INTRA.REPUL>
0

>  <SCORE.INTRA.REPUL.0>
0

>  <SCORE.INTRA.SOLV>
0

>  <SCORE.INTRA.SOLV.lig_0>
-49.4056

>  <SCORE.INTRA.VDW>
0

>  <SCORE.INTRA.VDW.0>
0

>  <SCORE.INTRA.norm>
0

>  <SCORE.RESTR>
0

>  <SCORE.RESTR.CAVITY>
0

>  <SCORE.RESTR.norm>
0

>  <SCORE.SYSTEM>
0

>  <SCORE.SYSTEM.CONST>
0

>  <SCORE.SYSTEM.DIHEDRAL>
0

>  <SCORE.SYSTEM.SOLV>
0

>  <SCORE.SYSTEM.norm>
0

>  <SCORE.heavy>
11

>  <SCORE.norm>
-0.969966

>  <RMSD>
11.898

$$$$
ligand
 OpenBabel11021811503D
libRbt.so/2013.1/901 2013/11/27
 11 12  0  0  0  0  0  0  0  0999 V2000
   -4.0782  -28.7909   29.5328 N   0  0  0  0  0  0  0  0  0  0  0  0
   -5.3660  -29.2130   29.4882 C   0  0  0  0  0  0  0  0  0  0  0  0
   -6.2885  -28.8633   30.5268 N   0  0  0  0  0  0  0  0  0  0  0  0
   -5.8055  -29.9749   28.4708 N   0  0  0  0  0  0  0  0  0  0  0  0
   -4.9684  -30.3445   27.4421 C   0  0  0  0  0  0  0  0  0  0  0  0
   -3.6491  -29.9305   27.4631 C   0  0  0  0  0  0  0  0  0  0  0  0
   -3.2070  -29.1278   28.5568 C   0  0  0  0  0  0  0  0  0  0  0  0
   -1.8477  -28.6836   28.6114 N   0  0  0  0  0  0  0  0  0  0  0  0
   -3.0539  -30.4442   26.3267 N   0  0  0  0  0  0  0  0  0  0  0  0
   -3.9709  -31.1524   25.6372 C   0  0  0  0  0  0  0  0  0  0  0  0
   -5.1456  -31.1084   26.2969 N   0  0  0  0  0  0  0  0  0  0  0  0
  1  7  2  0  0  0  0
  1  2  1  0  0  0  0
  2  3  1  0  0  0  0
  2  4  2  0  0  0  0
  4  5  1  0  0  0  0
  5  6  2  0  0  0  0
  5 11  1  0  0  0  0
  6  7  1  0  0  0  0
  6  9  1  0  0  0  0
  7  8  1  0  0  0  0
  9 10  1  0  0  0  0
 10 11  2  0  0  0  0
M  END
>  <CHROM.1>
-4.31254726,-29.77317447,28.05385379,-1.92020549,-0.25466411,-2.12075984

>  <Name>
ligand

>  <RI>
0

>  <Rbt.Current_Directory>
/home/itssahil/PROJECTS/Mol_Feturizer/New_Systems/rnas/4LVZ

>  <Rbt.Executable>
rbdock ($Id: //depot/dev/client3/rdock/2013.1/src/exe/rbdock.cxx#4 $)

>  <Rbt.Library>
libRbt.so (2013.1, Build901 2013/11/27)

>  <Rbt.Parameter_File>
/export/apps/rDock/src/rDock_2013.1_src/data/scripts/dock_solv.prm

>  <Rbt.Receptor>
prm/blind_docking_60.prm

>  <SCORE>
-10.6237

>  <SCORE.INTER>
-10.6237

>  <SCORE.INTER.CONST>
1

>  <SCORE.INTER.POLAR>
0

>  <SCORE.INTER.ROT>
0

>  <SCORE.INTER.SOLV>
13.5323

>  <SCORE.INTER.VDW>
-15.1932

>  <SCORE.INTER.norm>
-0.96579

>  <SCORE.INTRA>
0

>  <SCORE.INTRA.DIHEDRAL>
0

>  <SCORE.INTRA.DIHEDRAL.0>
0

>  <SCORE.INTRA.POLAR>
0

>  <SCORE.INTRA.POLAR.0>
0

>  <SCORE.INTRA.REPUL>
0

>  <SCORE.INTRA.REPUL.0>
0

>  <SCORE.INTRA.SOLV>
0

>  <SCORE.INTRA.SOLV.lig_0>
-49.4056

>  <SCORE.INTRA.VDW>
0

>  <SCORE.INTRA.VDW.0>
0

>  <SCORE.INTRA.norm>
0

>  <SCORE.RESTR>
0

>  <SCORE.RESTR.CAVITY>
0

>  <SCORE.RESTR.norm>
0

>  <SCORE.SYSTEM>
0

>  <SCORE.SYSTEM.CONST>
0

>  <SCORE.SYSTEM.DIHEDRAL>
0

>  <SCORE.SYSTEM.SOLV>
0

>  <SCORE.SYSTEM.norm>
0

>  <SCORE.heavy>
11

>  <SCORE.norm>
-0.96579

>  <RMSD>
11.901

$$$$
ligand
 OpenBabel11021811503D
libRbt.so/2013.1/901 2013/11/27
 11 12  0  0  0  0  0  0  0  0999 V2000
   -4.0727  -28.7987   29.5201 N   0  0  0  0  0  0  0  0  0  0  0  0
   -5.3630  -29.2130   29.4741 C   0  0  0  0  0  0  0  0  0  0  0  0
   -6.2848  -28.8566   30.5111 N   0  0  0  0  0  0  0  0  0  0  0  0
   -5.8057  -29.9731   28.4568 N   0  0  0  0  0  0  0  0  0  0  0  0
   -4.9694  -30.3488   27.4296 C   0  0  0  0  0  0  0  0  0  0  0  0
   -3.6477  -29.9428   27.4521 C   0  0  0  0  0  0  0  0  0  0  0  0
   -3.2022  -29.1419   28.5457 C   0  0  0  0  0  0  0  0  0  0  0  0
   -1.8403  -28.7060   28.6017 N   0  0  0  0  0  0  0  0  0  0  0  0
   -3.0540  -30.4614   26.3170 N   0  0  0  0  0  0  0  0  0  0  0  0
   -3.9744  -31.1645   25.6269 C   0  0  0  0  0  0  0  0  0  0  0  0
   -5.1497  -31.1127   26.2849 N   0  0  0  0  0  0  0  0  0  0  0  0
  1  7  2  0  0  0  0
  1  2  1  0  0  0  0
  2  3  1  0  0  0  0
  2  4  2  0  0  0  0
  4  5  1  0  0  0  0
  5  6  2  0  0  0  0
  5 11  1  0  0  0  0
  6  7  1  0  0  0  0
  6  9  1  0  0  0  0
  7  8  1  0  0  0  0
  9 10  1  0  0  0  0
 10 11  2  0  0  0  0
M  END
>  <CHROM.1>
-4.31097023,-29.78094042,28.04175915,-1.91813655,-0.24869486,-2.12118898

>  <Name>
ligand

>  <RI>
0

>  <Rbt.Current_Directory>
/home/itssahil/PROJECTS/Mol_Feturizer/New_Systems/rnas/4LVZ

>  <Rbt.Executable>
rbdock ($Id: //depot/dev/client3/rdock/2013.1/src/exe/rbdock.cxx#4 $)

>  <Rbt.Library>
libRbt.so (2013.1, Build901 2013/11/27)

>  <Rbt.Parameter_File>
/export/apps/rDock/src/rDock_2013.1_src/data/scripts/dock_solv.prm

>  <Rbt.Receptor>
prm/blind_docking_100.prm

>  <SCORE>
-10.6751

>  <SCORE.INTER>
-10.6751

>  <SCORE.INTER.CONST>
1

>  <SCORE.INTER.POLAR>
0

>  <SCORE.INTER.ROT>
0

>  <SCORE.INTER.SOLV>
13.511

>  <SCORE.INTER.VDW>
-15.2204

>  <SCORE.INTER.norm>
-0.970463

>  <SCORE.INTRA>
0

>  <SCORE.INTRA.DIHEDRAL>
0

>  <SCORE.INTRA.DIHEDRAL.0>
0

>  <SCORE.INTRA.POLAR>
0

>  <SCORE.INTRA.POLAR.0>
0

>  <SCORE.INTRA.REPUL>
0

>  <SCORE.INTRA.REPUL.0>
0

>  <SCORE.INTRA.SOLV>
0

>  <SCORE.INTRA.SOLV.lig_0>
-49.4056

>  <SCORE.INTRA.VDW>
0

>  <SCORE.INTRA.VDW.0>
0

>  <SCORE.INTRA.norm>
0

>  <SCORE.RESTR>
0

>  <SCORE.RESTR.CAVITY>
0

>  <SCORE.RESTR.norm>
0

>  <SCORE.SYSTEM>
0

>  <SCORE.SYSTEM.CONST>
0

>  <SCORE.SYSTEM.DIHEDRAL>
0

>  <SCORE.SYSTEM.SOLV>
0

>  <SCORE.SYSTEM.norm>
0

>  <SCORE.heavy>
11

>  <SCORE.norm>
-0.970463

>  <RMSD>
11.904

$$$$
ligand
 OpenBabel11021811503D
libRbt.so/2013.1/901 2013/11/27
 11 12  0  0  0  0  0  0  0  0999 V2000
   -4.1365  -28.7448   29.5025 N   0  0  0  0  0  0  0  0  0  0  0  0
   -5.4300  -29.1448   29.4281 C   0  0  0  0  0  0  0  0  0  0  0  0
   -6.3764  -28.7560   30.4306 N   0  0  0  0  0  0  0  0  0  0  0  0
   -5.8529  -29.9208   28.4143 N   0  0  0  0  0  0  0  0  0  0  0  0
   -4.9925  -30.3277   27.4195 C   0  0  0  0  0  0  0  0  0  0  0  0
   -3.6670  -29.9368   27.4716 C   0  0  0  0  0  0  0  0  0  0  0  0
   -3.2429  -29.1184   28.5607 C   0  0  0  0  0  0  0  0  0  0  0  0
   -1.8779  -28.6974   28.6468 N   0  0  0  0  0  0  0  0  0  0  0  0
   -3.0478  -30.4859   26.3648 N   0  0  0  0  0  0  0  0  0  0  0  0
   -3.9567  -31.1925   25.6632 C   0  0  0  0  0  0  0  0  0  0  0  0
   -5.1495  -31.1132   26.2860 N   0  0  0  0  0  0  0  0  0  0  0  0
  1  7  2  0  0  0  0
  1  2  1  0  0  0  0
  2  3  1  0  0  0  0
  2  4  2  0  0  0  0
  4  5  1  0  0  0  0
  5  6  2  0  0  0  0
  5 11  1  0  0  0  0
  6  7  1  0  0  0  0
  6  9  1  0  0  0  0
  7  8  1  0  0  0  0
  9 10  1  0  0  0  0
 10 11  2  0  0  0  0
M  END
>  <CHROM.1>
-4.34473584,-29.75486641,28.03847263,-1.93638028,-0.22332211,-2.14621965

>  <Name>
ligand

>  <RI>
0

>  <Rbt.Current_Directory>
/home/itssahil/PROJECTS/Mol_Feturizer/New_Systems/rnas/4LVZ

>  <Rbt.Executable>
rbdock ($Id: //depot/dev/client3/rdock/2013.1/src/exe/rbdock.cxx#4 $)

>  <Rbt.Library>
libRbt.so (2013.1, Build901 2013/11/27)

>  <Rbt.Parameter_File>
/export/apps/rDock/src/rDock_2013.1_src/data/scripts/dock_solv.prm

>  <Rbt.Receptor>
prm/blind_docking_100.prm

>  <SCORE>
-10.5868

>  <SCORE.INTER>
-10.5868

>  <SCORE.INTER.CONST>
1

>  <SCORE.INTER.POLAR>
0

>  <SCORE.INTER.ROT>
0

>  <SCORE.INTER.SOLV>
13.6244

>  <SCORE.INTER.VDW>
-15.1994

>  <SCORE.INTER.norm>
-0.962439

>  <SCORE.INTRA>
0

>  <SCORE.INTRA.DIHEDRAL>
0

>  <SCORE.INTRA.DIHEDRAL.0>
0

>  <SCORE.INTRA.POLAR>
0

>  <SCORE.INTRA.POLAR.0>
0

>  <SCORE.INTRA.REPUL>
0

>  <SCORE.INTRA.REPUL.0>
0

>  <SCORE.INTRA.SOLV>
0

>  <SCORE.INTRA.SOLV.lig_0>
-49.4056

>  <SCORE.INTRA.VDW>
0

>  <SCORE.INTRA.VDW.0>
0

>  <SCORE.INTRA.norm>
0

>  <SCORE.RESTR>
3.35314e-05

>  <SCORE.RESTR.CAVITY>
3.35314e-05

>  <SCORE.RESTR.norm>
3.04831e-06

>  <SCORE.SYSTEM>
0

>  <SCORE.SYSTEM.CONST>
0

>  <SCORE.SYSTEM.DIHEDRAL>
0

>  <SCORE.SYSTEM.SOLV>
0

>  <SCORE.SYSTEM.norm>
0

>  <SCORE.heavy>
11

>  <SCORE.norm>
-0.962436

>  <RMSD>
11.907

$$$$
ligand
 OpenBabel11021811503D
libRbt.so/2013.1/901 2013/11/27
 11 12  0  0  0  0  0  0  0  0999 V2000
   -4.1133  -28.7701   29.5177 N   0  0  0  0  0  0  0  0  0  0  0  0
   -5.3955  -29.2092   29.4738 C   0  0  0  0  0  0  0  0  0  0  0  0
   -6.3248  -28.8631   30.5075 N   0  0  0  0  0  0  0  0  0  0  0  0
   -5.8227  -29.9847   28.4615 N   0  0  0  0  0  0  0  0  0  0  0  0
   -4.9786  -30.3517   27.4376 C   0  0  0  0  0  0  0  0  0  0  0  0
   -3.6648  -29.9205   27.4582 C   0  0  0  0  0  0  0  0  0  0  0  0
   -3.2356  -29.1035   28.5464 C   0  0  0  0  0  0  0  0  0  0  0  0
   -1.8823  -28.6414   28.6004 N   0  0  0  0  0  0  0  0  0  0  0  0
   -3.0604  -30.4356   26.3272 N   0  0  0  0  0  0  0  0  0  0  0  0
   -3.9667  -31.1610   25.6414 C   0  0  0  0  0  0  0  0  0  0  0  0
   -5.1433  -31.1270   26.2982 N   0  0  0  0  0  0  0  0  0  0  0  0
  1  7  2  0  0  0  0
  1  2  1  0  0  0  0
  2  3  1  0  0  0  0
  2  4  2  0  0  0  0
  4  5  1  0  0  0  0
  5  6  2  0  0  0  0
  5 11  1  0  0  0  0
  6  7  1  0  0  0  0
  6  9  1  0  0  0  0
  7  8  1  0  0  0  0
  9 10  1  0  0  0  0
 10 11  2  0  0  0  0
M  END
>  <CHROM.1>
-4.33157852,-29.76710077,28.04621296,-1.92921591,-0.26446030,-2.13106266

>  <Name>
ligand

>  <RI>
0

>  <Rbt.Current_Directory>
/home/itssahil/PROJECTS/Mol_Feturizer/New_Systems/rnas/4LVZ

>  <Rbt.Executable>
rbdock ($Id: //depot/dev/client3/rdock/2013.1/src/exe/rbdock.cxx#4 $)

>  <Rbt.Library>
libRbt.so (2013.1, Build901 2013/11/27)

>  <Rbt.Parameter_File>
/export/apps/rDock/src/rDock_2013.1_src/data/scripts/dock_solv.prm

>  <Rbt.Receptor>
prm/blind_docking_80.prm

>  <SCORE>
-10.6445

>  <SCORE.INTER>
-10.6447

>  <SCORE.INTER.CONST>
1

>  <SCORE.INTER.POLAR>
0

>  <SCORE.INTER.ROT>
0

>  <SCORE.INTER.SOLV>
13.5194

>  <SCORE.INTER.VDW>
-15.2029

>  <SCORE.INTER.norm>
-0.967697

>  <SCORE.INTRA>
0

>  <SCORE.INTRA.DIHEDRAL>
0

>  <SCORE.INTRA.DIHEDRAL.0>
0

>  <SCORE.INTRA.POLAR>
0

>  <SCORE.INTRA.POLAR.0>
0

>  <SCORE.INTRA.REPUL>
0

>  <SCORE.INTRA.REPUL.0>
0

>  <SCORE.INTRA.SOLV>
0

>  <SCORE.INTRA.SOLV.lig_0>
-49.4056

>  <SCORE.INTRA.VDW>
0

>  <SCORE.INTRA.VDW.0>
0

>  <SCORE.INTRA.norm>
0

>  <SCORE.RESTR>
0.000143709

>  <SCORE.RESTR.CAVITY>
0.000143709

>  <SCORE.RESTR.norm>
1.30644e-05

>  <SCORE.SYSTEM>
0

>  <SCORE.SYSTEM.CONST>
0

>  <SCORE.SYSTEM.DIHEDRAL>
0

>  <SCORE.SYSTEM.SOLV>
0

>  <SCORE.SYSTEM.norm>
0

>  <SCORE.heavy>
11

>  <SCORE.norm>
-0.967684

>  <RMSD>
11.908

$$$$
ligand
 OpenBabel11021811503D
libRbt.so/2013.1/901 2013/11/27
 11 12  0  0  0  0  0  0  0  0999 V2000
   -3.7292  -28.8226   29.6839 N   0  0  0  0  0  0  0  0  0  0  0  0
   -5.0491  -28.9972   29.9405 C   0  0  0  0  0  0  0  0  0  0  0  0
   -5.6413  -28.4648   31.1312 N   0  0  0  0  0  0  0  0  0  0  0  0
   -5.8317  -29.6796   29.0857 N   0  0  0  0  0  0  0  0  0  0  0  0
   -5.3228  -30.2155   27.9240 C   0  0  0  0  0  0  0  0  0  0  0  0
   -3.9793  -30.0550   27.6383 C   0  0  0  0  0  0  0  0  0  0  0  0
   -3.1700  -29.3318   28.5646 C   0  0  0  0  0  0  0  0  0  0  0  0
   -1.7754  -29.1487   28.3012 N   0  0  0  0  0  0  0  0  0  0  0  0
   -3.7519  -30.6890   26.4316 N   0  0  0  0  0  0  0  0  0  0  0  0
   -4.9101  -31.2241   25.9959 C   0  0  0  0  0  0  0  0  0  0  0  0
   -5.8825  -30.9510   26.8885 N   0  0  0  0  0  0  0  0  0  0  0  0
  1  7  2  0  0  0  0
  1  2  1  0  0  0  0
  2  3  1  0  0  0  0
  2  4  2  0  0  0  0
  4  5  1  0  0  0  0
  5  6  2  0  0  0  0
  5 11  1  0  0  0  0
  6  7  1  0  0  0  0
  6  9  1  0  0  0  0
  7  8  1  0  0  0  0
  9 10  1  0  0  0  0
 10 11  2  0  0  0  0
M  END
>  <CHROM.1>
-4.45656640,-29.76714739,28.34764670,-1.62788780,-0.20732962,-2.09037077

>  <Name>
ligand

>  <RI>
0

>  <Rbt.Current_Directory>
/home/itssahil/PROJECTS/Mol_Feturizer/New_Systems/rnas/4LVZ

>  <Rbt.Executable>
rbdock ($Id: //depot/dev/client3/rdock/2013.1/src/exe/rbdock.cxx#4 $)

>  <Rbt.Library>
libRbt.so (2013.1, Build901 2013/11/27)

>  <Rbt.Parameter_File>
/export/apps/rDock/src/rDock_2013.1_src/data/scripts/dock_solv.prm

>  <Rbt.Receptor>
prm/blind_docking_80.prm

>  <SCORE>
-11.3495

>  <SCORE.INTER>
-11.3526

>  <SCORE.INTER.CONST>
1

>  <SCORE.INTER.POLAR>
0

>  <SCORE.INTER.ROT>
0

>  <SCORE.INTER.SOLV>
12.5548

>  <SCORE.INTER.VDW>
-15.3533

>  <SCORE.INTER.norm>
-1.03206

>  <SCORE.INTRA>
0

>  <SCORE.INTRA.DIHEDRAL>
0

>  <SCORE.INTRA.DIHEDRAL.0>
0

>  <SCORE.INTRA.POLAR>
0

>  <SCORE.INTRA.POLAR.0>
0

>  <SCORE.INTRA.REPUL>
0

>  <SCORE.INTRA.REPUL.0>
0

>  <SCORE.INTRA.SOLV>
0

>  <SCORE.INTRA.SOLV.lig_0>
-49.4056

>  <SCORE.INTRA.VDW>
0

>  <SCORE.INTRA.VDW.0>
0

>  <SCORE.INTRA.norm>
0

>  <SCORE.RESTR>
0.00311025

>  <SCORE.RESTR.CAVITY>
0.00311025

>  <SCORE.RESTR.norm>
0.00028275

>  <SCORE.SYSTEM>
0

>  <SCORE.SYSTEM.CONST>
0

>  <SCORE.SYSTEM.DIHEDRAL>
0

>  <SCORE.SYSTEM.SOLV>
0

>  <SCORE.SYSTEM.norm>
0

>  <SCORE.heavy>
11

>  <SCORE.norm>
-1.03177

>  <RMSD>
11.922

$$$$
ligand
 OpenBabel11021811503D
libRbt.so/2013.1/901 2013/11/27
 11 12  0  0  0  0  0  0  0  0999 V2000
   -3.7004  -28.8497   29.6827 N   0  0  0  0  0  0  0  0  0  0  0  0
   -5.0167  -29.0391   29.9471 C   0  0  0  0  0  0  0  0  0  0  0  0
   -5.6055  -28.5220   31.1463 N   0  0  0  0  0  0  0  0  0  0  0  0
   -5.7989  -29.7221   29.0924 N   0  0  0  0  0  0  0  0  0  0  0  0
   -5.2932  -30.2438   27.9228 C   0  0  0  0  0  0  0  0  0  0  0  0
   -3.9533  -30.0681   27.6290 C   0  0  0  0  0  0  0  0  0  0  0  0
   -3.1444  -29.3446   28.5553 C   0  0  0  0  0  0  0  0  0  0  0  0
   -1.7535  -29.1460   28.2836 N   0  0  0  0  0  0  0  0  0  0  0  0
   -3.7285  -30.6902   26.4156 N   0  0  0  0  0  0  0  0  0  0  0  0
   -4.8847  -31.2329   25.9838 C   0  0  0  0  0  0  0  0  0  0  0  0
   -5.8533  -30.9762   26.8854 N   0  0  0  0  0  0  0  0  0  0  0  0
  1  7  2  0  0  0  0
  1  2  1  0  0  0  0
  2  3  1  0  0  0  0
  2  4  2  0  0  0  0
  4  5  1  0  0  0  0
  5  6  2  0  0  0  0
  5 11  1  0  0  0  0
  6  7  1  0  0  0  0
  6  9  1  0  0  0  0
  7  8  1  0  0  0  0
  9 10  1  0  0  0  0
 10 11  2  0  0  0  0
M  END
>  <CHROM.1>
-4.42824362,-29.79050991,28.34396337,-1.62638627,-0.21914409,-2.08200299

>  <Name>
ligand

>  <RI>
0

>  <Rbt.Current_Directory>
/home/itssahil/PROJECTS/Mol_Feturizer/New_Systems/rnas/4LVZ

>  <Rbt.Executable>
rbdock ($Id: //depot/dev/client3/rdock/2013.1/src/exe/rbdock.cxx#4 $)

>  <Rbt.Library>
libRbt.so (2013.1, Build901 2013/11/27)

>  <Rbt.Parameter_File>
/export/apps/rDock/src/rDock_2013.1_src/data/scripts/dock_solv.prm

>  <Rbt.Receptor>
prm/blind_docking_60.prm

>  <SCORE>
-11.3707

>  <SCORE.INTER>
-11.3815

>  <SCORE.INTER.CONST>
1

>  <SCORE.INTER.POLAR>
0

>  <SCORE.INTER.ROT>
0

>  <SCORE.INTER.SOLV>
12.686

>  <SCORE.INTER.VDW>
-15.4163

>  <SCORE.INTER.norm>
-1.03468

>  <SCORE.INTRA>
0

>  <SCORE.INTRA.DIHEDRAL>
0

>  <SCORE.INTRA.DIHEDRAL.0>
0

>  <SCORE.INTRA.POLAR>
0

>  <SCORE.INTRA.POLAR.0>
0

>  <SCORE.INTRA.REPUL>
0

>  <SCORE.INTRA.REPUL.0>
0

>  <SCORE.INTRA.SOLV>
0

>  <SCORE.INTRA.SOLV.lig_0>
-49.4056

>  <SCORE.INTRA.VDW>
0

>  <SCORE.INTRA.VDW.0>
0

>  <SCORE.INTRA.norm>
0

>  <SCORE.RESTR>
0.0107218

>  <SCORE.RESTR.CAVITY>
0.0107218

>  <SCORE.RESTR.norm>
0.000974712

>  <SCORE.SYSTEM>
0

>  <SCORE.SYSTEM.CONST>
0

>  <SCORE.SYSTEM.DIHEDRAL>
0

>  <SCORE.SYSTEM.SOLV>
0

>  <SCORE.SYSTEM.norm>
0

>  <SCORE.heavy>
11

>  <SCORE.norm>
-1.0337

>  <RMSD>
11.924

$$$$
ligand
 OpenBabel11021811503D
libRbt.so/2013.1/901 2013/11/27
 11 12  0  0  0  0  0  0  0  0999 V2000
   -3.7037  -28.8606   29.6563 N   0  0  0  0  0  0  0  0  0  0  0  0
   -5.0162  -29.0451   29.9428 C   0  0  0  0  0  0  0  0  0  0  0  0
   -5.5818  -28.5292   31.1536 N   0  0  0  0  0  0  0  0  0  0  0  0
   -5.8159  -29.7219   29.0996 N   0  0  0  0  0  0  0  0  0  0  0  0
   -5.3327  -30.2421   27.9199 C   0  0  0  0  0  0  0  0  0  0  0  0
   -3.9974  -30.0713   27.6035 C   0  0  0  0  0  0  0  0  0  0  0  0
   -3.1694  -29.3543   28.5180 C   0  0  0  0  0  0  0  0  0  0  0  0
   -1.7825  -29.1609   28.2229 N   0  0  0  0  0  0  0  0  0  0  0  0
   -3.7963  -30.6905   26.3845 N   0  0  0  0  0  0  0  0  0  0  0  0
   -4.9621  -31.2268   25.9711 C   0  0  0  0  0  0  0  0  0  0  0  0
   -5.9138  -30.9688   26.8901 N   0  0  0  0  0  0  0  0  0  0  0  0
  1  7  2  0  0  0  0
  1  2  1  0  0  0  0
  2  3  1  0  0  0  0
  2  4  2  0  0  0  0
  4  5  1  0  0  0  0
  5  6  2  0  0  0  0
  5 11  1  0  0  0  0
  6  7  1  0  0  0  0
  6  9  1  0  0  0  0
  7  8  1  0  0  0  0
  9 10  1  0  0  0  0
 10 11  2  0  0  0  0
M  END
>  <CHROM.1>
-4.45869286,-29.79391383,28.32745280,-1.60875539,-0.22371220,-2.07499562

>  <Name>
ligand

>  <RI>
0

>  <Rbt.Current_Directory>
/home/itssahil/PROJECTS/Mol_Feturizer/New_Systems/rnas/4LVZ

>  <Rbt.Executable>
rbdock ($Id: //depot/dev/client3/rdock/2013.1/src/exe/rbdock.cxx#4 $)

>  <Rbt.Library>
libRbt.so (2013.1, Build901 2013/11/27)

>  <Rbt.Parameter_File>
/export/apps/rDock/src/rDock_2013.1_src/data/scripts/dock_solv.prm

>  <Rbt.Receptor>
prm/blind_docking_60.prm

>  <SCORE>
-11.3212

>  <SCORE.INTER>
-11.3255

>  <SCORE.INTER.CONST>
1

>  <SCORE.INTER.POLAR>
0

>  <SCORE.INTER.ROT>
0

>  <SCORE.INTER.SOLV>
12.5174

>  <SCORE.INTER.VDW>
-15.3228

>  <SCORE.INTER.norm>
-1.02959

>  <SCORE.INTRA>
0

>  <SCORE.INTRA.DIHEDRAL>
0

>  <SCORE.INTRA.DIHEDRAL.0>
0

>  <SCORE.INTRA.POLAR>
0

>  <SCORE.INTRA.POLAR.0>
0

>  <SCORE.INTRA.REPUL>
0

>  <SCORE.INTRA.REPUL.0>
0

>  <SCORE.INTRA.SOLV>
0

>  <SCORE.INTRA.SOLV.lig_0>
-49.4056

>  <SCORE.INTRA.VDW>
0

>  <SCORE.INTRA.VDW.0>
0

>  <SCORE.INTRA.norm>
0

>  <SCORE.RESTR>
0.00425827

>  <SCORE.RESTR.CAVITY>
0.00425827

>  <SCORE.RESTR.norm>
0.000387116

>  <SCORE.SYSTEM>
0

>  <SCORE.SYSTEM.CONST>
0

>  <SCORE.SYSTEM.DIHEDRAL>
0

>  <SCORE.SYSTEM.SOLV>
0

>  <SCORE.SYSTEM.norm>
0

>  <SCORE.heavy>
11

>  <SCORE.norm>
-1.0292

>  <RMSD>
11.935

$$$$
ligand
 OpenBabel11021811503D
libRbt.so/2013.1/901 2013/11/27
 11 12  0  0  0  0  0  0  0  0999 V2000
   -3.7176  -28.8440   29.6586 N   0  0  0  0  0  0  0  0  0  0  0  0
   -5.0320  -29.0300   29.9348 C   0  0  0  0  0  0  0  0  0  0  0  0
   -5.6102  -28.5055   31.1359 N   0  0  0  0  0  0  0  0  0  0  0  0
   -5.8220  -29.7166   29.0902 N   0  0  0  0  0  0  0  0  0  0  0  0
   -5.3266  -30.2453   27.9195 C   0  0  0  0  0  0  0  0  0  0  0  0
   -3.9890  -30.0732   27.6137 C   0  0  0  0  0  0  0  0  0  0  0  0
   -3.1715  -29.3458   28.5294 C   0  0  0  0  0  0  0  0  0  0  0  0
   -1.7826  -29.1507   28.2453 N   0  0  0  0  0  0  0  0  0  0  0  0
   -3.7750  -30.7022   26.4020 N   0  0  0  0  0  0  0  0  0  0  0  0
   -4.9354  -31.2456   25.9826 C   0  0  0  0  0  0  0  0  0  0  0  0
   -5.8962  -30.9826   26.8907 N   0  0  0  0  0  0  0  0  0  0  0  0
  1  7  2  0  0  0  0
  1  2  1  0  0  0  0
  2  3  1  0  0  0  0
  2  4  2  0  0  0  0
  4  5  1  0  0  0  0
  5  6  2  0  0  0  0
  5 11  1  0  0  0  0
  6  7  1  0  0  0  0
  6  9  1  0  0  0  0
  7  8  1  0  0  0  0
  9 10  1  0  0  0  0
 10 11  2  0  0  0  0
M  END
>  <CHROM.1>
-4.45767696,-29.79099863,28.33104016,-1.61838028,-0.22192473,-2.08571320

>  <Name>
ligand

>  <RI>
0

>  <Rbt.Current_Directory>
/home/itssahil/PROJECTS/Mol_Feturizer/New_Systems/rnas/4LVZ

>  <Rbt.Executable>
rbdock ($Id: //depot/dev/client3/rdock/2013.1/src/exe/rbdock.cxx#4 $)

>  <Rbt.Library>
libRbt.so (2013.1, Build901 2013/11/27)

>  <Rbt.Parameter_File>
/export/apps/rDock/src/rDock_2013.1_src/data/scripts/dock_solv.prm

>  <Rbt.Receptor>
prm/blind_docking_80.prm

>  <SCORE>
-11.3771

>  <SCORE.INTER>
-11.3834

>  <SCORE.INTER.CONST>
1

>  <SCORE.INTER.POLAR>
0

>  <SCORE.INTER.ROT>
0

>  <SCORE.INTER.SOLV>
12.4851

>  <SCORE.INTER.VDW>
-15.3507

>  <SCORE.INTER.norm>
-1.03486

>  <SCORE.INTRA>
0

>  <SCORE.INTRA.DIHEDRAL>
0

>  <SCORE.INTRA.DIHEDRAL.0>
0

>  <SCORE.INTRA.POLAR>
0

>  <SCORE.INTRA.POLAR.0>
0

>  <SCORE.INTRA.REPUL>
0

>  <SCORE.INTRA.REPUL.0>
0

>  <SCORE.INTRA.SOLV>
0

>  <SCORE.INTRA.SOLV.lig_0>
-49.4056

>  <SCORE.INTRA.VDW>
0

>  <SCORE.INTRA.VDW.0>
0

>  <SCORE.INTRA.norm>
0

>  <SCORE.RESTR>
0.00629003

>  <SCORE.RESTR.CAVITY>
0.00629003

>  <SCORE.RESTR.norm>
0.000571821

>  <SCORE.SYSTEM>
0

>  <SCORE.SYSTEM.CONST>
0

>  <SCORE.SYSTEM.DIHEDRAL>
0

>  <SCORE.SYSTEM.SOLV>
0

>  <SCORE.SYSTEM.norm>
0

>  <SCORE.heavy>
11

>  <SCORE.norm>
-1.03429

>  <RMSD>
11.935

$$$$
ligand
 OpenBabel11021811503D
libRbt.so/2013.1/901 2013/11/27
 11 12  0  0  0  0  0  0  0  0999 V2000
   -3.7223  -28.8439   29.6614 N   0  0  0  0  0  0  0  0  0  0  0  0
   -5.0387  -29.0224   29.9329 C   0  0  0  0  0  0  0  0  0  0  0  0
   -5.6187  -28.4924   31.1306 N   0  0  0  0  0  0  0  0  0  0  0  0
   -5.8291  -29.7064   29.0865 N   0  0  0  0  0  0  0  0  0  0  0  0
   -5.3320  -30.2400   27.9188 C   0  0  0  0  0  0  0  0  0  0  0  0
   -3.9923  -30.0756   27.6179 C   0  0  0  0  0  0  0  0  0  0  0  0
   -3.1745  -29.3509   28.5353 C   0  0  0  0  0  0  0  0  0  0  0  0
   -1.7835  -29.1637   28.2562 N   0  0  0  0  0  0  0  0  0  0  0  0
   -3.7770  -30.7082   26.4082 N   0  0  0  0  0  0  0  0  0  0  0  0
   -4.9386  -31.2462   25.9854 C   0  0  0  0  0  0  0  0  0  0  0  0
   -5.9015  -30.9763   26.8892 N   0  0  0  0  0  0  0  0  0  0  0  0
  1  7  2  0  0  0  0
  1  2  1  0  0  0  0
  2  3  1  0  0  0  0
  2  4  2  0  0  0  0
  4  5  1  0  0  0  0
  5  6  2  0  0  0  0
  5 11  1  0  0  0  0
  6  7  1  0  0  0  0
  6  9  1  0  0  0  0
  7  8  1  0  0  0  0
  9 10  1  0  0  0  0
 10 11  2  0  0  0  0
M  END
>  <CHROM.1>
-4.46226007,-29.78957133,28.33280333,-1.61913757,-0.21537492,-2.08784029

>  <Name>
ligand

>  <RI>
0

>  <Rbt.Current_Directory>
/home/itssahil/PROJECTS/Mol_Feturizer/New_Systems/rnas/4LVZ

>  <Rbt.Executable>
rbdock ($Id: //depot/dev/client3/rdock/2013.1/src/exe/rbdock.cxx#4 $)

>  <Rbt.Library>
libRbt.so (2013.1, Build901 2013/11/27)

>  <Rbt.Parameter_File>
/export/apps/rDock/src/rDock_2013.1_src/data/scripts/dock_solv.prm

>  <Rbt.Receptor>
prm/blind_docking_80.prm

>  <SCORE>
-11.3871

>  <SCORE.INTER>
-11.3937

>  <SCORE.INTER.CONST>
1

>  <SCORE.INTER.POLAR>
0

>  <SCORE.INTER.ROT>
0

>  <SCORE.INTER.SOLV>
12.4727

>  <SCORE.INTER.VDW>
-15.3534

>  <SCORE.INTER.norm>
-1.03579

>  <SCORE.INTRA>
0

>  <SCORE.INTRA.DIHEDRAL>
0

>  <SCORE.INTRA.DIHEDRAL.0>
0

>  <SCORE.INTRA.POLAR>
0

>  <SCORE.INTRA.POLAR.0>
0

>  <SCORE.INTRA.REPUL>
0

>  <SCORE.INTRA.REPUL.0>
0

>  <SCORE.INTRA.SOLV>
0

>  <SCORE.INTRA.SOLV.lig_0>
-49.4056

>  <SCORE.INTRA.VDW>
0

>  <SCORE.INTRA.VDW.0>
0

>  <SCORE.INTRA.norm>
0

>  <SCORE.RESTR>
0.00657043

>  <SCORE.RESTR.CAVITY>
0.00657043

>  <SCORE.RESTR.norm>
0.000597311

>  <SCORE.SYSTEM>
0

>  <SCORE.SYSTEM.CONST>
0

>  <SCORE.SYSTEM.DIHEDRAL>
0

>  <SCORE.SYSTEM.SOLV>
0

>  <SCORE.SYSTEM.norm>
0

>  <SCORE.heavy>
11

>  <SCORE.norm>
-1.03519

>  <RMSD>
11.937

$$$$
ligand
 OpenBabel11021811503D
libRbt.so/2013.1/901 2013/11/27
 11 12  0  0  0  0  0  0  0  0999 V2000
   -3.7251  -28.8410   29.6548 N   0  0  0  0  0  0  0  0  0  0  0  0
   -5.0399  -29.0265   29.9295 C   0  0  0  0  0  0  0  0  0  0  0  0
   -5.6195  -28.5006   31.1293 N   0  0  0  0  0  0  0  0  0  0  0  0
   -5.8289  -29.7138   29.0846 N   0  0  0  0  0  0  0  0  0  0  0  0
   -5.3321  -30.2438   27.9150 C   0  0  0  0  0  0  0  0  0  0  0  0
   -3.9940  -30.0723   27.6108 C   0  0  0  0  0  0  0  0  0  0  0  0
   -3.1776  -29.3441   28.5269 C   0  0  0  0  0  0  0  0  0  0  0  0
   -1.7883  -29.1495   28.2443 N   0  0  0  0  0  0  0  0  0  0  0  0
   -3.7785  -30.7026   26.4000 N   0  0  0  0  0  0  0  0  0  0  0  0
   -4.9385  -31.2462   25.9797 C   0  0  0  0  0  0  0  0  0  0  0  0
   -5.9005  -30.9821   26.8863 N   0  0  0  0  0  0  0  0  0  0  0  0
  1  7  2  0  0  0  0
  1  2  1  0  0  0  0
  2  3  1  0  0  0  0
  2  4  2  0  0  0  0
  4  5  1  0  0  0  0
  5  6  2  0  0  0  0
  5 11  1  0  0  0  0
  6  7  1  0  0  0  0
  6  9  1  0  0  0  0
  7  8  1  0  0  0  0
  9 10  1  0  0  0  0
 10 11  2  0  0  0  0
M  END
>  <CHROM.1>
-4.46358792,-29.78927750,28.32725179,-1.61944816,-0.22113159,-2.08699018

>  <Name>
ligand

>  <RI>
0

>  <Rbt.Current_Directory>
/home/itssahil/PROJECTS/Mol_Feturizer/New_Systems/rnas/4LVZ

>  <Rbt.Executable>
rbdock ($Id: //depot/dev/client3/rdock/2013.1/src/exe/rbdock.cxx#4 $)

>  <Rbt.Library>
libRbt.so (2013.1, Build901 2013/11/27)

>  <Rbt.Parameter_File>
/export/apps/rDock/src/rDock_2013.1_src/data/scripts/dock_solv.prm

>  <Rbt.Receptor>
prm/blind_docking_80.prm

>  <SCORE>
-11.3979

>  <SCORE.INTER>
-11.4084

>  <SCORE.INTER.CONST>
1

>  <SCORE.INTER.POLAR>
0

>  <SCORE.INTER.ROT>
0

>  <SCORE.INTER.SOLV>
12.4435

>  <SCORE.INTER.VDW>
-15.3534

>  <SCORE.INTER.norm>
-1.03712

>  <SCORE.INTRA>
0

>  <SCORE.INTRA.DIHEDRAL>
0

>  <SCORE.INTRA.DIHEDRAL.0>
0

>  <SCORE.INTRA.POLAR>
0

>  <SCORE.INTRA.POLAR.0>
0

>  <SCORE.INTRA.REPUL>
0

>  <SCORE.INTRA.REPUL.0>
0

>  <SCORE.INTRA.SOLV>
0

>  <SCORE.INTRA.SOLV.lig_0>
-49.4056

>  <SCORE.INTRA.VDW>
0

>  <SCORE.INTRA.VDW.0>
0

>  <SCORE.INTRA.norm>
0

>  <SCORE.RESTR>
0.0104595

>  <SCORE.RESTR.CAVITY>
0.0104595

>  <SCORE.RESTR.norm>
0.000950865

>  <SCORE.SYSTEM>
0

>  <SCORE.SYSTEM.CONST>
0

>  <SCORE.SYSTEM.DIHEDRAL>
0

>  <SCORE.SYSTEM.SOLV>
0

>  <SCORE.SYSTEM.norm>
0

>  <SCORE.heavy>
11

>  <SCORE.norm>
-1.03617

>  <RMSD>
11.937

$$$$
ligand
 OpenBabel11021811503D
libRbt.so/2013.1/901 2013/11/27
 11 12  0  0  0  0  0  0  0  0999 V2000
   -3.7224  -28.8418   29.6601 N   0  0  0  0  0  0  0  0  0  0  0  0
   -5.0380  -29.0227   29.9342 C   0  0  0  0  0  0  0  0  0  0  0  0
   -5.6169  -28.4930   31.1326 N   0  0  0  0  0  0  0  0  0  0  0  0
   -5.8286  -29.7090   29.0899 N   0  0  0  0  0  0  0  0  0  0  0  0
   -5.3326  -30.2426   27.9216 C   0  0  0  0  0  0  0  0  0  0  0  0
   -3.9938  -30.0757   27.6180 C   0  0  0  0  0  0  0  0  0  0  0  0
   -3.1757  -29.3486   28.5334 C   0  0  0  0  0  0  0  0  0  0  0  0
   -1.7856  -29.1588   28.2515 N   0  0  0  0  0  0  0  0  0  0  0  0
   -3.7794  -30.7088   26.4085 N   0  0  0  0  0  0  0  0  0  0  0  0
   -4.9408  -31.2496   25.9883 C   0  0  0  0  0  0  0  0  0  0  0  0
   -5.9025  -30.9809   26.8937 N   0  0  0  0  0  0  0  0  0  0  0  0
  1  7  2  0  0  0  0
  1  2  1  0  0  0  0
  2  3  1  0  0  0  0
  2  4  2  0  0  0  0
  4  5  1  0  0  0  0
  5  6  2  0  0  0  0
  5 11  1  0  0  0  0
  6  7  1  0  0  0  0
  6  9  1  0  0  0  0
  7  8  1  0  0  0  0
  9 10  1  0  0  0  0
 10 11  2  0  0  0  0
M  END
>  <CHROM.1>
-4.46296495,-29.79006094,28.33364554,-1.61850364,-0.21807145,-2.08851347

>  <Name>
ligand

>  <RI>
0

>  <Rbt.Current_Directory>
/home/itssahil/PROJECTS/Mol_Feturizer/New_Systems/rnas/4LVZ

>  <Rbt.Executable>
rbdock ($Id: //depot/dev/client3/rdock/2013.1/src/exe/rbdock.cxx#4 $)

>  <Rbt.Library>
libRbt.so (2013.1, Build901 2013/11/27)

>  <Rbt.Parameter_File>
/export/apps/rDock/src/rDock_2013.1_src/data/scripts/dock_solv.prm

>  <Rbt.Receptor>
prm/blind_docking_60.prm

>  <SCORE>
-11.3686

>  <SCORE.INTER>
-11.3716

>  <SCORE.INTER.CONST>
1

>  <SCORE.INTER.POLAR>
0

>  <SCORE.INTER.ROT>
0

>  <SCORE.INTER.SOLV>
12.4645

>  <SCORE.INTER.VDW>
-15.3359

>  <SCORE.INTER.norm>
-1.03378

>  <SCORE.INTRA>
0

>  <SCORE.INTRA.DIHEDRAL>
0

>  <SCORE.INTRA.DIHEDRAL.0>
0

>  <SCORE.INTRA.POLAR>
0

>  <SCORE.INTRA.POLAR.0>
0

>  <SCORE.INTRA.REPUL>
0

>  <SCORE.INTRA.REPUL.0>
0

>  <SCORE.INTRA.SOLV>
0

>  <SCORE.INTRA.SOLV.lig_0>
-49.4056

>  <SCORE.INTRA.VDW>
0

>  <SCORE.INTRA.VDW.0>
0

>  <SCORE.INTRA.norm>
0

>  <SCORE.RESTR>
0.0030181

>  <SCORE.RESTR.CAVITY>
0.0030181

>  <SCORE.RESTR.norm>
0.000274373

>  <SCORE.SYSTEM>
0

>  <SCORE.SYSTEM.CONST>
0

>  <SCORE.SYSTEM.DIHEDRAL>
0

>  <SCORE.SYSTEM.SOLV>
0

>  <SCORE.SYSTEM.norm>
0

>  <SCORE.heavy>
11

>  <SCORE.norm>
-1.03351

>  <RMSD>
11.938

$$$$
ligand
 OpenBabel11021811503D
libRbt.so/2013.1/901 2013/11/27
 11 12  0  0  0  0  0  0  0  0999 V2000
   -3.7189  -28.8482   29.6593 N   0  0  0  0  0  0  0  0  0  0  0  0
   -5.0346  -29.0259   29.9349 C   0  0  0  0  0  0  0  0  0  0  0  0
   -5.6100  -28.4980   31.1358 N   0  0  0  0  0  0  0  0  0  0  0  0
   -5.8286  -29.7072   29.0898 N   0  0  0  0  0  0  0  0  0  0  0  0
   -5.3361  -30.2389   27.9191 C   0  0  0  0  0  0  0  0  0  0  0  0
   -3.9972  -30.0751   27.6140 C   0  0  0  0  0  0  0  0  0  0  0  0
   -3.1755  -29.3532   28.5303 C   0  0  0  0  0  0  0  0  0  0  0  0
   -1.7853  -29.1669   28.2468 N   0  0  0  0  0  0  0  0  0  0  0  0
   -3.7867  -30.7052   26.4022 N   0  0  0  0  0  0  0  0  0  0  0  0
   -4.9503  -31.2412   25.9822 C   0  0  0  0  0  0  0  0  0  0  0  0
   -5.9098  -30.9723   26.8899 N   0  0  0  0  0  0  0  0  0  0  0  0
  1  7  2  0  0  0  0
  1  2  1  0  0  0  0
  2  3  1  0  0  0  0
  2  4  2  0  0  0  0
  4  5  1  0  0  0  0
  5  6  2  0  0  0  0
  5 11  1  0  0  0  0
  6  7  1  0  0  0  0
  6  9  1  0  0  0  0
  7  8  1  0  0  0  0
  9 10  1  0  0  0  0
 10 11  2  0  0  0  0
M  END
>  <CHROM.1>
-4.46442317,-29.79017822,28.33118680,-1.61557785,-0.21617822,-2.08488826

>  <Name>
ligand

>  <RI>
0

>  <Rbt.Current_Directory>
/home/itssahil/PROJECTS/Mol_Feturizer/New_Systems/rnas/4LVZ

>  <Rbt.Executable>
rbdock ($Id: //depot/dev/client3/rdock/2013.1/src/exe/rbdock.cxx#4 $)

>  <Rbt.Library>
libRbt.so (2013.1, Build901 2013/11/27)

>  <Rbt.Parameter_File>
/export/apps/rDock/src/rDock_2013.1_src/data/scripts/dock_solv.prm

>  <Rbt.Receptor>
prm/blind_docking_80.prm

>  <SCORE>
-11.3737

>  <SCORE.INTER>
-11.3788

>  <SCORE.INTER.CONST>
1

>  <SCORE.INTER.POLAR>
0

>  <SCORE.INTER.ROT>
0

>  <SCORE.INTER.SOLV>
12.4699

>  <SCORE.INTER.VDW>
-15.3425

>  <SCORE.INTER.norm>
-1.03444

>  <SCORE.INTRA>
0

>  <SCORE.INTRA.DIHEDRAL>
0

>  <SCORE.INTRA.DIHEDRAL.0>
0

>  <SCORE.INTRA.POLAR>
0

>  <SCORE.INTRA.POLAR.0>
0

>  <SCORE.INTRA.REPUL>
0

>  <SCORE.INTRA.REPUL.0>
0

>  <SCORE.INTRA.SOLV>
0

>  <SCORE.INTRA.SOLV.lig_0>
-49.4056

>  <SCORE.INTRA.VDW>
0

>  <SCORE.INTRA.VDW.0>
0

>  <SCORE.INTRA.norm>
0

>  <SCORE.RESTR>
0.00506247

>  <SCORE.RESTR.CAVITY>
0.00506247

>  <SCORE.RESTR.norm>
0.000460225

>  <SCORE.SYSTEM>
0

>  <SCORE.SYSTEM.CONST>
0

>  <SCORE.SYSTEM.DIHEDRAL>
0

>  <SCORE.SYSTEM.SOLV>
0

>  <SCORE.SYSTEM.norm>
0

>  <SCORE.heavy>
11

>  <SCORE.norm>
-1.03398

>  <RMSD>
11.938

$$$$
ligand
 OpenBabel11021811503D
libRbt.so/2013.1/901 2013/11/27
 11 12  0  0  0  0  0  0  0  0999 V2000
   -3.7295  -28.8403   29.6521 N   0  0  0  0  0  0  0  0  0  0  0  0
   -5.0452  -29.0209   29.9256 C   0  0  0  0  0  0  0  0  0  0  0  0
   -5.6244  -28.4909   31.1237 N   0  0  0  0  0  0  0  0  0  0  0  0
   -5.8356  -29.7069   29.0810 N   0  0  0  0  0  0  0  0  0  0  0  0
   -5.3393  -30.2407   27.9129 C   0  0  0  0  0  0  0  0  0  0  0  0
   -4.0003  -30.0743   27.6099 C   0  0  0  0  0  0  0  0  0  0  0  0
   -3.1825  -29.3473   28.5256 C   0  0  0  0  0  0  0  0  0  0  0  0
   -1.7921  -29.1580   28.2443 N   0  0  0  0  0  0  0  0  0  0  0  0
   -3.7856  -30.7074   26.4005 N   0  0  0  0  0  0  0  0  0  0  0  0
   -4.9470  -31.2478   25.9798 C   0  0  0  0  0  0  0  0  0  0  0  0
   -5.9090  -30.9789   26.8848 N   0  0  0  0  0  0  0  0  0  0  0  0
  1  7  2  0  0  0  0
  1  2  1  0  0  0  0
  2  3  1  0  0  0  0
  2  4  2  0  0  0  0
  4  5  1  0  0  0  0
  5  6  2  0  0  0  0
  5 11  1  0  0  0  0
  6  7  1  0  0  0  0
  6  9  1  0  0  0  0
  7  8  1  0  0  0  0
  9 10  1  0  0  0  0
 10 11  2  0  0  0  0
M  END
>  <CHROM.1>
-4.46972810,-29.78840739,28.32533957,-1.61873010,-0.21759091,-2.08859053

>  <Name>
ligand

>  <RI>
0

>  <Rbt.Current_Directory>
/home/itssahil/PROJECTS/Mol_Feturizer/New_Systems/rnas/4LVZ

>  <Rbt.Executable>
rbdock ($Id: //depot/dev/client3/rdock/2013.1/src/exe/rbdock.cxx#4 $)

>  <Rbt.Library>
libRbt.so (2013.1, Build901 2013/11/27)

>  <Rbt.Parameter_File>
/export/apps/rDock/src/rDock_2013.1_src/data/scripts/dock_solv.prm

>  <Rbt.Receptor>
prm/blind_docking_80.prm

>  <SCORE>
-11.4056

>  <SCORE.INTER>
-11.4168

>  <SCORE.INTER.CONST>
1

>  <SCORE.INTER.POLAR>
0

>  <SCORE.INTER.ROT>
0

>  <SCORE.INTER.SOLV>
12.4061

>  <SCORE.INTER.VDW>
-15.3466

>  <SCORE.INTER.norm>
-1.03789

>  <SCORE.INTRA>
0

>  <SCORE.INTRA.DIHEDRAL>
0

>  <SCORE.INTRA.DIHEDRAL.0>
0

>  <SCORE.INTRA.POLAR>
0

>  <SCORE.INTRA.POLAR.0>
0

>  <SCORE.INTRA.REPUL>
0

>  <SCORE.INTRA.REPUL.0>
0

>  <SCORE.INTRA.SOLV>
0

>  <SCORE.INTRA.SOLV.lig_0>
-49.4056

>  <SCORE.INTRA.VDW>
0

>  <SCORE.INTRA.VDW.0>
0

>  <SCORE.INTRA.norm>
0

>  <SCORE.RESTR>
0.0111916

>  <SCORE.RESTR.CAVITY>
0.0111916

>  <SCORE.RESTR.norm>
0.00101742

>  <SCORE.SYSTEM>
0

>  <SCORE.SYSTEM.CONST>
0

>  <SCORE.SYSTEM.DIHEDRAL>
0

>  <SCORE.SYSTEM.SOLV>
0

>  <SCORE.SYSTEM.norm>
0

>  <SCORE.heavy>
11

>  <SCORE.norm>
-1.03687

>  <RMSD>
11.939

$$$$
ligand
 OpenBabel11021811503D
libRbt.so/2013.1/901 2013/11/27
 11 12  0  0  0  0  0  0  0  0999 V2000
   -3.7210  -28.8528   29.6516 N   0  0  0  0  0  0  0  0  0  0  0  0
   -5.0360  -29.0262   29.9332 C   0  0  0  0  0  0  0  0  0  0  0  0
   -5.6040  -28.4970   31.1371 N   0  0  0  0  0  0  0  0  0  0  0  0
   -5.8362  -29.7043   29.0914 N   0  0  0  0  0  0  0  0  0  0  0  0
   -5.3509  -30.2369   27.9181 C   0  0  0  0  0  0  0  0  0  0  0  0
   -4.0130  -30.0776   27.6069 C   0  0  0  0  0  0  0  0  0  0  0  0
   -3.1846  -29.3591   28.5198 C   0  0  0  0  0  0  0  0  0  0  0  0
   -1.7950  -29.1773   28.2300 N   0  0  0  0  0  0  0  0  0  0  0  0
   -3.8102  -30.7077   26.3938 N   0  0  0  0  0  0  0  0  0  0  0  0
   -4.9776  -31.2394   25.9789 C   0  0  0  0  0  0  0  0  0  0  0  0
   -5.9320  -30.9677   26.8912 N   0  0  0  0  0  0  0  0  0  0  0  0
  1  7  2  0  0  0  0
  1  2  1  0  0  0  0
  2  3  1  0  0  0  0
  2  4  2  0  0  0  0
  4  5  1  0  0  0  0
  5  6  2  0  0  0  0
  5 11  1  0  0  0  0
  6  7  1  0  0  0  0
  6  9  1  0  0  0  0
  7  8  1  0  0  0  0
  9 10  1  0  0  0  0
 10 11  2  0  0  0  0
M  END
>  <CHROM.1>
-4.47583570,-29.79145941,28.32642366,-1.60971390,-0.21544730,-2.08303199

>  <Name>
ligand

>  <RI>
0

>  <Rbt.Current_Directory>
/home/itssahil/PROJECTS/Mol_Feturizer/New_Systems/rnas/4LVZ

>  <Rbt.Executable>
rbdock ($Id: //depot/dev/client3/rdock/2013.1/src/exe/rbdock.cxx#4 $)

>  <Rbt.Library>
libRbt.so (2013.1, Build901 2013/11/27)

>  <Rbt.Parameter_File>
/export/apps/rDock/src/rDock_2013.1_src/data/scripts/dock_solv.prm

>  <Rbt.Receptor>
prm/blind_docking_80.prm

>  <SCORE>
-11.3914

>  <SCORE.INTER>
-11.3941

>  <SCORE.INTER.CONST>
1

>  <SCORE.INTER.POLAR>
0

>  <SCORE.INTER.ROT>
0

>  <SCORE.INTER.SOLV>
12.4117

>  <SCORE.INTER.VDW>
-15.3333

>  <SCORE.INTER.norm>
-1.03583

>  <SCORE.INTRA>
0

>  <SCORE.INTRA.DIHEDRAL>
0

>  <SCORE.INTRA.DIHEDRAL.0>
0

>  <SCORE.INTRA.POLAR>
0

>  <SCORE.INTRA.POLAR.0>
0

>  <SCORE.INTRA.REPUL>
0

>  <SCORE.INTRA.REPUL.0>
0

>  <SCORE.INTRA.SOLV>
0

>  <SCORE.INTRA.SOLV.lig_0>
-49.4056

>  <SCORE.INTRA.VDW>
0

>  <SCORE.INTRA.VDW.0>
0

>  <SCORE.INTRA.norm>
0

>  <SCORE.RESTR>
0.00274232

>  <SCORE.RESTR.CAVITY>
0.00274232

>  <SCORE.RESTR.norm>
0.000249302

>  <SCORE.SYSTEM>
0

>  <SCORE.SYSTEM.CONST>
0

>  <SCORE.SYSTEM.DIHEDRAL>
0

>  <SCORE.SYSTEM.SOLV>
0

>  <SCORE.SYSTEM.norm>
0

>  <SCORE.heavy>
11

>  <SCORE.norm>
-1.03558

>  <RMSD>
11.942

$$$$
ligand
 OpenBabel11021811503D
libRbt.so/2013.1/901 2013/11/27
 11 12  0  0  0  0  0  0  0  0999 V2000
   -3.7150  -28.8555   29.6458 N   0  0  0  0  0  0  0  0  0  0  0  0
   -5.0271  -29.0371   29.9355 C   0  0  0  0  0  0  0  0  0  0  0  0
   -5.5904  -28.5132   31.1439 N   0  0  0  0  0  0  0  0  0  0  0  0
   -5.8287  -29.7185   29.0977 N   0  0  0  0  0  0  0  0  0  0  0  0
   -5.3479  -30.2463   27.9205 C   0  0  0  0  0  0  0  0  0  0  0  0
   -4.0129  -30.0786   27.6010 C   0  0  0  0  0  0  0  0  0  0  0  0
   -3.1829  -29.3567   28.5097 C   0  0  0  0  0  0  0  0  0  0  0  0
   -1.7963  -29.1663   28.2113 N   0  0  0  0  0  0  0  0  0  0  0  0
   -3.8142  -30.7055   26.3855 N   0  0  0  0  0  0  0  0  0  0  0  0
   -4.9812  -31.2433   25.9772 C   0  0  0  0  0  0  0  0  0  0  0  0
   -5.9312  -30.9788   26.8961 N   0  0  0  0  0  0  0  0  0  0  0  0
  1  7  2  0  0  0  0
  1  2  1  0  0  0  0
  2  3  1  0  0  0  0
  2  4  2  0  0  0  0
  4  5  1  0  0  0  0
  5  6  2  0  0  0  0
  5 11  1  0  0  0  0
  6  7  1  0  0  0  0
  6  9  1  0  0  0  0
  7  8  1  0  0  0  0
  9 10  1  0  0  0  0
 10 11  2  0  0  0  0
M  END
>  <CHROM.1>
-4.47281837,-29.79637532,28.32391095,-1.60691317,-0.22371687,-2.08075010

>  <Name>
ligand

>  <RI>
0

>  <Rbt.Current_Directory>
/home/itssahil/PROJECTS/Mol_Feturizer/New_Systems/rnas/4LVZ

>  <Rbt.Executable>
rbdock ($Id: //depot/dev/client3/rdock/2013.1/src/exe/rbdock.cxx#4 $)

>  <Rbt.Library>
libRbt.so (2013.1, Build901 2013/11/27)

>  <Rbt.Parameter_File>
/export/apps/rDock/src/rDock_2013.1_src/data/scripts/dock_solv.prm

>  <Rbt.Receptor>
prm/blind_docking_60.prm

>  <SCORE>
-11.3652

>  <SCORE.INTER>
-11.3653

>  <SCORE.INTER.CONST>
1

>  <SCORE.INTER.POLAR>
0

>  <SCORE.INTER.ROT>
0

>  <SCORE.INTER.SOLV>
12.4102

>  <SCORE.INTER.VDW>
-15.3136

>  <SCORE.INTER.norm>
-1.03321

>  <SCORE.INTRA>
0

>  <SCORE.INTRA.DIHEDRAL>
0

>  <SCORE.INTRA.DIHEDRAL.0>
0

>  <SCORE.INTRA.POLAR>
0

>  <SCORE.INTRA.POLAR.0>
0

>  <SCORE.INTRA.REPUL>
0

>  <SCORE.INTRA.REPUL.0>
0

>  <SCORE.INTRA.SOLV>
0

>  <SCORE.INTRA.SOLV.lig_0>
-49.4056

>  <SCORE.INTRA.VDW>
0

>  <SCORE.INTRA.VDW.0>
0

>  <SCORE.INTRA.norm>
0

>  <SCORE.RESTR>
0.000127215

>  <SCORE.RESTR.CAVITY>
0.000127215

>  <SCORE.RESTR.norm>
1.1565e-05

>  <SCORE.SYSTEM>
0

>  <SCORE.SYSTEM.CONST>
0

>  <SCORE.SYSTEM.DIHEDRAL>
0

>  <SCORE.SYSTEM.SOLV>
0

>  <SCORE.SYSTEM.norm>
0

>  <SCORE.heavy>
11

>  <SCORE.norm>
-1.0332

>  <RMSD>
11.943

$$$$
ligand
 OpenBabel11021811503D
libRbt.so/2013.1/901 2013/11/27
 11 12  0  0  0  0  0  0  0  0999 V2000
   -3.7248  -28.8513   29.6503 N   0  0  0  0  0  0  0  0  0  0  0  0
   -5.0404  -29.0231   29.9301 C   0  0  0  0  0  0  0  0  0  0  0  0
   -5.6097  -28.4921   31.1326 N   0  0  0  0  0  0  0  0  0  0  0  0
   -5.8400  -29.7013   29.0879 N   0  0  0  0  0  0  0  0  0  0  0  0
   -5.3535  -30.2357   27.9159 C   0  0  0  0  0  0  0  0  0  0  0  0
   -4.0149  -30.0780   27.6065 C   0  0  0  0  0  0  0  0  0  0  0  0
   -3.1872  -29.3592   28.5199 C   0  0  0  0  0  0  0  0  0  0  0  0
   -1.7970  -29.1791   28.2319 N   0  0  0  0  0  0  0  0  0  0  0  0
   -3.8109  -30.7096   26.3944 N   0  0  0  0  0  0  0  0  0  0  0  0
   -4.9782  -31.2406   25.9783 C   0  0  0  0  0  0  0  0  0  0  0  0
   -5.9337  -30.9671   26.8889 N   0  0  0  0  0  0  0  0  0  0  0  0
  1  7  2  0  0  0  0
  1  2  1  0  0  0  0
  2  3  1  0  0  0  0
  2  4  2  0  0  0  0
  4  5  1  0  0  0  0
  5  6  2  0  0  0  0
  5 11  1  0  0  0  0
  6  7  1  0  0  0  0
  6  9  1  0  0  0  0
  7  8  1  0  0  0  0
  9 10  1  0  0  0  0
 10 11  2  0  0  0  0
M  END
>  <CHROM.1>
-4.47856741,-29.79062322,28.32503217,-1.61057596,-0.21388376,-2.08430307

>  <Name>
ligand

>  <RI>
0

>  <Rbt.Current_Directory>
/home/itssahil/PROJECTS/Mol_Feturizer/New_Systems/rnas/4LVZ

>  <Rbt.Executable>
rbdock ($Id: //depot/dev/client3/rdock/2013.1/src/exe/rbdock.cxx#4 $)

>  <Rbt.Library>
libRbt.so (2013.1, Build901 2013/11/27)

>  <Rbt.Parameter_File>
/export/apps/rDock/src/rDock_2013.1_src/data/scripts/dock_solv.prm

>  <Rbt.Receptor>
prm/blind_docking_80.prm

>  <SCORE>
-11.4007

>  <SCORE.INTER>
-11.4054

>  <SCORE.INTER.CONST>
1

>  <SCORE.INTER.POLAR>
0

>  <SCORE.INTER.ROT>
0

>  <SCORE.INTER.SOLV>
12.3918

>  <SCORE.INTER.VDW>
-15.3342

>  <SCORE.INTER.norm>
-1.03686

>  <SCORE.INTRA>
0

>  <SCORE.INTRA.DIHEDRAL>
0

>  <SCORE.INTRA.DIHEDRAL.0>
0

>  <SCORE.INTRA.POLAR>
0

>  <SCORE.INTRA.POLAR.0>
0

>  <SCORE.INTRA.REPUL>
0

>  <SCORE.INTRA.REPUL.0>
0

>  <SCORE.INTRA.SOLV>
0

>  <SCORE.INTRA.SOLV.lig_0>
-49.4056

>  <SCORE.INTRA.VDW>
0

>  <SCORE.INTRA.VDW.0>
0

>  <SCORE.INTRA.norm>
0

>  <SCORE.RESTR>
0.00476074

>  <SCORE.RESTR.CAVITY>
0.00476074

>  <SCORE.RESTR.norm>
0.000432795

>  <SCORE.SYSTEM>
0

>  <SCORE.SYSTEM.CONST>
0

>  <SCORE.SYSTEM.DIHEDRAL>
0

>  <SCORE.SYSTEM.SOLV>
0

>  <SCORE.SYSTEM.norm>
0

>  <SCORE.heavy>
11

>  <SCORE.norm>
-1.03642

>  <RMSD>
11.943

$$$$
ligand
 OpenBabel11021811503D
libRbt.so/2013.1/901 2013/11/27
 11 12  0  0  0  0  0  0  0  0999 V2000
   -3.7331  -28.8485   29.6413 N   0  0  0  0  0  0  0  0  0  0  0  0
   -5.0485  -29.0227   29.9204 C   0  0  0  0  0  0  0  0  0  0  0  0
   -5.6198  -28.4907   31.1215 N   0  0  0  0  0  0  0  0  0  0  0  0
   -5.8460  -29.7041   29.0787 N   0  0  0  0  0  0  0  0  0  0  0  0
   -5.3574  -30.2395   27.9081 C   0  0  0  0  0  0  0  0  0  0  0  0
   -4.0189  -30.0795   27.5995 C   0  0  0  0  0  0  0  0  0  0  0  0
   -3.1935  -29.3573   28.5121 C   0  0  0  0  0  0  0  0  0  0  0  0
   -1.8035  -29.1747   28.2249 N   0  0  0  0  0  0  0  0  0  0  0  0
   -3.8127  -30.7128   26.3886 N   0  0  0  0  0  0  0  0  0  0  0  0
   -4.9785  -31.2471   25.9726 C   0  0  0  0  0  0  0  0  0  0  0  0
   -5.9353  -30.9740   26.8820 N   0  0  0  0  0  0  0  0  0  0  0  0
  1  7  2  0  0  0  0
  1  2  1  0  0  0  0
  2  3  1  0  0  0  0
  2  4  2  0  0  0  0
  4  5  1  0  0  0  0
  5  6  2  0  0  0  0
  5 11  1  0  0  0  0
  6  7  1  0  0  0  0
  6  9  1  0  0  0  0
  7  8  1  0  0  0  0
  9 10  1  0  0  0  0
 10 11  2  0  0  0  0
M  END
>  <CHROM.1>
-4.48379688,-29.79184376,28.31709261,-1.61233570,-0.21538959,-2.08645747

>  <Name>
ligand

>  <RI>
0

>  <Rbt.Current_Directory>
/home/itssahil/PROJECTS/Mol_Feturizer/New_Systems/rnas/4LVZ

>  <Rbt.Executable>
rbdock ($Id: //depot/dev/client3/rdock/2013.1/src/exe/rbdock.cxx#4 $)

>  <Rbt.Library>
libRbt.so (2013.1, Build901 2013/11/27)

>  <Rbt.Parameter_File>
/export/apps/rDock/src/rDock_2013.1_src/data/scripts/dock_solv.prm

>  <Rbt.Receptor>
prm/blind_docking_60.prm

>  <SCORE>
-11.4295

>  <SCORE.INTER>
-11.4422

>  <SCORE.INTER.CONST>
1

>  <SCORE.INTER.POLAR>
0

>  <SCORE.INTER.ROT>
0

>  <SCORE.INTER.SOLV>
12.3277

>  <SCORE.INTER.VDW>
-15.3374

>  <SCORE.INTER.norm>
-1.0402

>  <SCORE.INTRA>
0

>  <SCORE.INTRA.DIHEDRAL>
0

>  <SCORE.INTRA.DIHEDRAL.0>
0

>  <SCORE.INTRA.POLAR>
0

>  <SCORE.INTRA.POLAR.0>
0

>  <SCORE.INTRA.REPUL>
0

>  <SCORE.INTRA.REPUL.0>
0

>  <SCORE.INTRA.SOLV>
0

>  <SCORE.INTRA.SOLV.lig_0>
-49.4056

>  <SCORE.INTRA.VDW>
0

>  <SCORE.INTRA.VDW.0>
0

>  <SCORE.INTRA.norm>
0

>  <SCORE.RESTR>
0.0126988

>  <SCORE.RESTR.CAVITY>
0.0126988

>  <SCORE.RESTR.norm>
0.00115443

>  <SCORE.SYSTEM>
0

>  <SCORE.SYSTEM.CONST>
0

>  <SCORE.SYSTEM.DIHEDRAL>
0

>  <SCORE.SYSTEM.SOLV>
0

>  <SCORE.SYSTEM.norm>
0

>  <SCORE.heavy>
11

>  <SCORE.norm>
-1.03905

>  <RMSD>
11.946

$$$$
ligand
 OpenBabel11021811503D
libRbt.so/2013.1/901 2013/11/27
 11 12  0  0  0  0  0  0  0  0999 V2000
   -3.7140  -28.8705   29.6541 N   0  0  0  0  0  0  0  0  0  0  0  0
   -5.0308  -29.0350   29.9325 C   0  0  0  0  0  0  0  0  0  0  0  0
   -5.5979  -28.5031   31.1356 N   0  0  0  0  0  0  0  0  0  0  0  0
   -5.8339  -29.7065   29.0881 N   0  0  0  0  0  0  0  0  0  0  0  0
   -5.3496  -30.2412   27.9154 C   0  0  0  0  0  0  0  0  0  0  0  0
   -4.0099  -30.0909   27.6074 C   0  0  0  0  0  0  0  0  0  0  0  0
   -3.1786  -29.3792   28.5229 C   0  0  0  0  0  0  0  0  0  0  0  0
   -1.7871  -29.2068   28.2365 N   0  0  0  0  0  0  0  0  0  0  0  0
   -3.8087  -30.7211   26.3940 N   0  0  0  0  0  0  0  0  0  0  0  0
   -4.9789  -31.2441   25.9759 C   0  0  0  0  0  0  0  0  0  0  0  0
   -5.9334  -30.9669   26.8863 N   0  0  0  0  0  0  0  0  0  0  0  0
  1  7  2  0  0  0  0
  1  2  1  0  0  0  0
  2  3  1  0  0  0  0
  2  4  2  0  0  0  0
  4  5  1  0  0  0  0
  5  6  2  0  0  0  0
  5 11  1  0  0  0  0
  6  7  1  0  0  0  0
  6  9  1  0  0  0  0
  7  8  1  0  0  0  0
  9 10  1  0  0  0  0
 10 11  2  0  0  0  0
M  END
>  <CHROM.1>
-4.47238752,-29.80234710,28.32614025,-1.60825930,-0.20824957,-2.08162527

>  <Name>
ligand

>  <RI>
0

>  <Rbt.Current_Directory>
/home/itssahil/PROJECTS/Mol_Feturizer/New_Systems/rnas/4LVZ

>  <Rbt.Executable>
rbdock ($Id: //depot/dev/client3/rdock/2013.1/src/exe/rbdock.cxx#4 $)

>  <Rbt.Library>
libRbt.so (2013.1, Build901 2013/11/27)

>  <Rbt.Parameter_File>
/export/apps/rDock/src/rDock_2013.1_src/data/scripts/dock_solv.prm

>  <Rbt.Receptor>
prm/blind_docking_60.prm

>  <SCORE>
-11.3898

>  <SCORE.INTER>
-11.397

>  <SCORE.INTER.CONST>
1

>  <SCORE.INTER.POLAR>
0

>  <SCORE.INTER.ROT>
0

>  <SCORE.INTER.SOLV>
12.4414

>  <SCORE.INTER.VDW>
-15.3451

>  <SCORE.INTER.norm>
-1.03609

>  <SCORE.INTRA>
0

>  <SCORE.INTRA.DIHEDRAL>
0

>  <SCORE.INTRA.DIHEDRAL.0>
0

>  <SCORE.INTRA.POLAR>
0

>  <SCORE.INTRA.POLAR.0>
0

>  <SCORE.INTRA.REPUL>
0

>  <SCORE.INTRA.REPUL.0>
0

>  <SCORE.INTRA.SOLV>
0

>  <SCORE.INTRA.SOLV.lig_0>
-49.4056

>  <SCORE.INTRA.VDW>
0

>  <SCORE.INTRA.VDW.0>
0

>  <SCORE.INTRA.norm>
0

>  <SCORE.RESTR>
0.0071798

>  <SCORE.RESTR.CAVITY>
0.0071798

>  <SCORE.RESTR.norm>
0.000652709

>  <SCORE.SYSTEM>
0

>  <SCORE.SYSTEM.CONST>
0

>  <SCORE.SYSTEM.DIHEDRAL>
0

>  <SCORE.SYSTEM.SOLV>
0

>  <SCORE.SYSTEM.norm>
0

>  <SCORE.heavy>
11

>  <SCORE.norm>
-1.03544

>  <RMSD>
11.949

$$$$
ligand
 OpenBabel11021811503D
libRbt.so/2013.1/901 2013/11/27
 11 12  0  0  0  0  0  0  0  0999 V2000
   -3.6672  -28.9291   29.6800 N   0  0  0  0  0  0  0  0  0  0  0  0
   -4.9859  -29.0798   29.9573 C   0  0  0  0  0  0  0  0  0  0  0  0
   -5.5440  -28.5609   31.1702 N   0  0  0  0  0  0  0  0  0  0  0  0
   -5.7993  -29.7252   29.1025 N   0  0  0  0  0  0  0  0  0  0  0  0
   -5.3239  -30.2463   27.9201 C   0  0  0  0  0  0  0  0  0  0  0  0
   -3.9825  -30.1097   27.6129 C   0  0  0  0  0  0  0  0  0  0  0  0
   -3.1402  -29.4257   28.5395 C   0  0  0  0  0  0  0  0  0  0  0  0
   -1.7468  -29.2681   28.2543 N   0  0  0  0  0  0  0  0  0  0  0  0
   -3.7916  -30.7216   26.3886 N   0  0  0  0  0  0  0  0  0  0  0  0
   -4.9695  -31.2207   25.9631 C   0  0  0  0  0  0  0  0  0  0  0  0
   -5.9191  -30.9458   26.8794 N   0  0  0  0  0  0  0  0  0  0  0  0
  1  7  2  0  0  0  0
  1  2  1  0  0  0  0
  2  3  1  0  0  0  0
  2  4  2  0  0  0  0
  4  5  1  0  0  0  0
  5  6  2  0  0  0  0
  5 11  1  0  0  0  0
  6  7  1  0  0  0  0
  6  9  1  0  0  0  0
  7  8  1  0  0  0  0
  9 10  1  0  0  0  0
 10 11  2  0  0  0  0
M  END
>  <CHROM.1>
-4.44011479,-29.82708232,28.33721080,-1.60022886,-0.19642896,-2.06273368

>  <Name>
ligand

>  <RI>
0

>  <Rbt.Current_Directory>
/home/itssahil/PROJECTS/Mol_Feturizer/New_Systems/rnas/4LVZ

>  <Rbt.Executable>
rbdock ($Id: //depot/dev/client3/rdock/2013.1/src/exe/rbdock.cxx#4 $)

>  <Rbt.Library>
libRbt.so (2013.1, Build901 2013/11/27)

>  <Rbt.Parameter_File>
/export/apps/rDock/src/rDock_2013.1_src/data/scripts/dock_solv.prm

>  <Rbt.Receptor>
prm/blind_docking_60.prm

>  <SCORE>
-11.3649

>  <SCORE.INTER>
-11.3745

>  <SCORE.INTER.CONST>
1

>  <SCORE.INTER.POLAR>
0

>  <SCORE.INTER.ROT>
0

>  <SCORE.INTER.SOLV>
12.7408

>  <SCORE.INTER.VDW>
-15.4299

>  <SCORE.INTER.norm>
-1.03404

>  <SCORE.INTRA>
0

>  <SCORE.INTRA.DIHEDRAL>
0

>  <SCORE.INTRA.DIHEDRAL.0>
0

>  <SCORE.INTRA.POLAR>
0

>  <SCORE.INTRA.POLAR.0>
0

>  <SCORE.INTRA.REPUL>
0

>  <SCORE.INTRA.REPUL.0>
0

>  <SCORE.INTRA.SOLV>
0

>  <SCORE.INTRA.SOLV.lig_0>
-49.4056

>  <SCORE.INTRA.VDW>
0

>  <SCORE.INTRA.VDW.0>
0

>  <SCORE.INTRA.norm>
0

>  <SCORE.RESTR>
0.00961659

>  <SCORE.RESTR.CAVITY>
0.00961659

>  <SCORE.RESTR.norm>
0.000874236

>  <SCORE.SYSTEM>
0

>  <SCORE.SYSTEM.CONST>
0

>  <SCORE.SYSTEM.DIHEDRAL>
0

>  <SCORE.SYSTEM.SOLV>
0

>  <SCORE.SYSTEM.norm>
0

>  <SCORE.heavy>
11

>  <SCORE.norm>
-1.03317

>  <RMSD>
11.951

$$$$
ligand
 OpenBabel11021811503D
libRbt.so/2013.1/901 2013/11/27
 11 12  0  0  0  0  0  0  0  0999 V2000
   -3.7125  -28.8819   29.6050 N   0  0  0  0  0  0  0  0  0  0  0  0
   -5.0188  -29.0884   29.9043 C   0  0  0  0  0  0  0  0  0  0  0  0
   -5.5803  -28.5851   31.1223 N   0  0  0  0  0  0  0  0  0  0  0  0
   -5.8161  -29.7757   29.0673 N   0  0  0  0  0  0  0  0  0  0  0  0
   -5.3367  -30.2847   27.8812 C   0  0  0  0  0  0  0  0  0  0  0  0
   -4.0076  -30.0915   27.5517 C   0  0  0  0  0  0  0  0  0  0  0  0
   -3.1820  -29.3637   28.4598 C   0  0  0  0  0  0  0  0  0  0  0  0
   -1.8015  -29.1471   28.1512 N   0  0  0  0  0  0  0  0  0  0  0  0
   -3.8090  -30.7039   26.3289 N   0  0  0  0  0  0  0  0  0  0  0  0
   -4.9702  -31.2578   25.9257 C   0  0  0  0  0  0  0  0  0  0  0  0
   -5.9166  -31.0178   26.8551 N   0  0  0  0  0  0  0  0  0  0  0  0
  1  7  2  0  0  0  0
  1  2  1  0  0  0  0
  2  3  1  0  0  0  0
  2  4  2  0  0  0  0
  4  5  1  0  0  0  0
  5  6  2  0  0  0  0
  5 11  1  0  0  0  0
  6  7  1  0  0  0  0
  6  9  1  0  0  0  0
  7  8  1  0  0  0  0
  9 10  1  0  0  0  0
 10 11  2  0  0  0  0
M  END
>  <CHROM.1>
-4.46590569,-29.82360705,28.28110502,-1.60754574,-0.24278282,-2.07183675

>  <Name>
ligand

>  <RI>
0

>  <Rbt.Current_Directory>
/home/itssahil/PROJECTS/Mol_Feturizer/New_Systems/rnas/4LVZ

>  <Rbt.Executable>
rbdock ($Id: //depot/dev/client3/rdock/2013.1/src/exe/rbdock.cxx#4 $)

>  <Rbt.Library>
libRbt.so (2013.1, Build901 2013/11/27)

>  <Rbt.Parameter_File>
/export/apps/rDock/src/rDock_2013.1_src/data/scripts/dock_solv.prm

>  <Rbt.Receptor>
prm/blind_docking_80.prm

>  <SCORE>
-11.5283

>  <SCORE.INTER>
-11.5732

>  <SCORE.INTER.CONST>
1

>  <SCORE.INTER.POLAR>
0

>  <SCORE.INTER.ROT>
0

>  <SCORE.INTER.SOLV>
12.3406

>  <SCORE.INTER.VDW>
-15.429

>  <SCORE.INTER.norm>
-1.05211

>  <SCORE.INTRA>
0

>  <SCORE.INTRA.DIHEDRAL>
0

>  <SCORE.INTRA.DIHEDRAL.0>
0

>  <SCORE.INTRA.POLAR>
0

>  <SCORE.INTRA.POLAR.0>
0

>  <SCORE.INTRA.REPUL>
0

>  <SCORE.INTRA.REPUL.0>
0

>  <SCORE.INTRA.SOLV>
0

>  <SCORE.INTRA.SOLV.lig_0>
-49.4056

>  <SCORE.INTRA.VDW>
0

>  <SCORE.INTRA.VDW.0>
0

>  <SCORE.INTRA.norm>
0

>  <SCORE.RESTR>
0.0448503

>  <SCORE.RESTR.CAVITY>
0.0448503

>  <SCORE.RESTR.norm>
0.0040773

>  <SCORE.SYSTEM>
0

>  <SCORE.SYSTEM.CONST>
0

>  <SCORE.SYSTEM.DIHEDRAL>
0

>  <SCORE.SYSTEM.SOLV>
0

>  <SCORE.SYSTEM.norm>
0

>  <SCORE.heavy>
11

>  <SCORE.norm>
-1.04803

>  <RMSD>
11.954

$$$$
ligand
 OpenBabel11021811503D
libRbt.so/2013.1/901 2013/11/27
 11 12  0  0  0  0  0  0  0  0999 V2000
   -3.7044  -28.8826   29.6455 N   0  0  0  0  0  0  0  0  0  0  0  0
   -5.0184  -29.0540   29.9328 C   0  0  0  0  0  0  0  0  0  0  0  0
   -5.5793  -28.5279   31.1414 N   0  0  0  0  0  0  0  0  0  0  0  0
   -5.8243  -29.7271   29.0924 N   0  0  0  0  0  0  0  0  0  0  0  0
   -5.3460  -30.2565   27.9149 C   0  0  0  0  0  0  0  0  0  0  0  0
   -4.0092  -30.0992   27.5978 C   0  0  0  0  0  0  0  0  0  0  0  0
   -3.1747  -29.3860   28.5092 C   0  0  0  0  0  0  0  0  0  0  0  0
   -1.7861  -29.2064   28.2134 N   0  0  0  0  0  0  0  0  0  0  0  0
   -3.8138  -30.7253   26.3814 N   0  0  0  0  0  0  0  0  0  0  0  0
   -4.9844  -31.2527   25.9702 C   0  0  0  0  0  0  0  0  0  0  0  0
   -5.9337  -30.9822   26.8881 N   0  0  0  0  0  0  0  0  0  0  0  0
  1  7  2  0  0  0  0
  1  2  1  0  0  0  0
  2  3  1  0  0  0  0
  2  4  2  0  0  0  0
  4  5  1  0  0  0  0
  5  6  2  0  0  0  0
  5 11  1  0  0  0  0
  6  7  1  0  0  0  0
  6  9  1  0  0  0  0
  7  8  1  0  0  0  0
  9 10  1  0  0  0  0
 10 11  2  0  0  0  0
M  END
>  <CHROM.1>
-4.46789657,-29.81464558,28.32057391,-1.60421189,-0.21578018,-2.07818461

>  <Name>
ligand

>  <RI>
0

>  <Rbt.Current_Directory>
/home/itssahil/PROJECTS/Mol_Feturizer/New_Systems/rnas/4LVZ

>  <Rbt.Executable>
rbdock ($Id: //depot/dev/client3/rdock/2013.1/src/exe/rbdock.cxx#4 $)

>  <Rbt.Library>
libRbt.so (2013.1, Build901 2013/11/27)

>  <Rbt.Parameter_File>
/export/apps/rDock/src/rDock_2013.1_src/data/scripts/dock_solv.prm

>  <Rbt.Receptor>
prm/blind_docking_80.prm

>  <SCORE>
-11.3986

>  <SCORE.INTER>
-11.4071

>  <SCORE.INTER.CONST>
1

>  <SCORE.INTER.POLAR>
0

>  <SCORE.INTER.ROT>
0

>  <SCORE.INTER.SOLV>
12.44

>  <SCORE.INTER.VDW>
-15.3514

>  <SCORE.INTER.norm>
-1.037

>  <SCORE.INTRA>
0

>  <SCORE.INTRA.DIHEDRAL>
0

>  <SCORE.INTRA.DIHEDRAL.0>
0

>  <SCORE.INTRA.POLAR>
0

>  <SCORE.INTRA.POLAR.0>
0

>  <SCORE.INTRA.REPUL>
0

>  <SCORE.INTRA.REPUL.0>
0

>  <SCORE.INTRA.SOLV>
0

>  <SCORE.INTRA.SOLV.lig_0>
-49.4056

>  <SCORE.INTRA.VDW>
0

>  <SCORE.INTRA.VDW.0>
0

>  <SCORE.INTRA.norm>
0

>  <SCORE.RESTR>
0.0084237

>  <SCORE.RESTR.CAVITY>
0.0084237

>  <SCORE.RESTR.norm>
0.000765791

>  <SCORE.SYSTEM>
0

>  <SCORE.SYSTEM.CONST>
0

>  <SCORE.SYSTEM.DIHEDRAL>
0

>  <SCORE.SYSTEM.SOLV>
0

>  <SCORE.SYSTEM.norm>
0

>  <SCORE.heavy>
11

>  <SCORE.norm>
-1.03624

>  <RMSD>
11.954

$$$$
ligand
 OpenBabel11021811503D
libRbt.so/2013.1/901 2013/11/27
 11 12  0  0  0  0  0  0  0  0999 V2000
   -3.7131  -28.8815   29.6563 N   0  0  0  0  0  0  0  0  0  0  0  0
   -5.0321  -29.0346   29.9310 C   0  0  0  0  0  0  0  0  0  0  0  0
   -5.5983  -28.4964   31.1317 N   0  0  0  0  0  0  0  0  0  0  0  0
   -5.8382  -29.7007   29.0852 N   0  0  0  0  0  0  0  0  0  0  0  0
   -5.3549  -30.2411   27.9147 C   0  0  0  0  0  0  0  0  0  0  0  0
   -4.0131  -30.1024   27.6104 C   0  0  0  0  0  0  0  0  0  0  0  0
   -3.1786  -29.3962   28.5274 C   0  0  0  0  0  0  0  0  0  0  0  0
   -1.7849  -29.2359   28.2449 N   0  0  0  0  0  0  0  0  0  0  0  0
   -3.8136  -30.7359   26.3986 N   0  0  0  0  0  0  0  0  0  0  0  0
   -4.9868  -31.2498   25.9777 C   0  0  0  0  0  0  0  0  0  0  0  0
   -5.9417  -30.9633   26.8849 N   0  0  0  0  0  0  0  0  0  0  0  0
  1  7  2  0  0  0  0
  1  2  1  0  0  0  0
  2  3  1  0  0  0  0
  2  4  2  0  0  0  0
  4  5  1  0  0  0  0
  5  6  2  0  0  0  0
  5 11  1  0  0  0  0
  6  7  1  0  0  0  0
  6  9  1  0  0  0  0
  7  8  1  0  0  0  0
  9 10  1  0  0  0  0
 10 11  2  0  0  0  0
M  END
>  <CHROM.1>
-4.47531072,-29.80891831,28.32741788,-1.60674313,-0.19954077,-2.08273932

>  <Name>
ligand

>  <RI>
0

>  <Rbt.Current_Directory>
/home/itssahil/PROJECTS/Mol_Feturizer/New_Systems/rnas/4LVZ

>  <Rbt.Executable>
rbdock ($Id: //depot/dev/client3/rdock/2013.1/src/exe/rbdock.cxx#4 $)

>  <Rbt.Library>
libRbt.so (2013.1, Build901 2013/11/27)

>  <Rbt.Parameter_File>
/export/apps/rDock/src/rDock_2013.1_src/data/scripts/dock_solv.prm

>  <Rbt.Receptor>
prm/blind_docking_60.prm

>  <SCORE>
-11.4018

>  <SCORE.INTER>
-11.4094

>  <SCORE.INTER.CONST>
1

>  <SCORE.INTER.POLAR>
0

>  <SCORE.INTER.ROT>
0

>  <SCORE.INTER.SOLV>
12.4414

>  <SCORE.INTER.VDW>
-15.3534

>  <SCORE.INTER.norm>
-1.03722

>  <SCORE.INTRA>
0

>  <SCORE.INTRA.DIHEDRAL>
0

>  <SCORE.INTRA.DIHEDRAL.0>
0

>  <SCORE.INTRA.POLAR>
0

>  <SCORE.INTRA.POLAR.0>
0

>  <SCORE.INTRA.REPUL>
0

>  <SCORE.INTRA.REPUL.0>
0

>  <SCORE.INTRA.SOLV>
0

>  <SCORE.INTRA.SOLV.lig_0>
-49.4056

>  <SCORE.INTRA.VDW>
0

>  <SCORE.INTRA.VDW.0>
0

>  <SCORE.INTRA.norm>
0

>  <SCORE.RESTR>
0.00766526

>  <SCORE.RESTR.CAVITY>
0.00766526

>  <SCORE.RESTR.norm>
0.000696842

>  <SCORE.SYSTEM>
0

>  <SCORE.SYSTEM.CONST>
0

>  <SCORE.SYSTEM.DIHEDRAL>
0

>  <SCORE.SYSTEM.SOLV>
0

>  <SCORE.SYSTEM.norm>
0

>  <SCORE.heavy>
11

>  <SCORE.norm>
-1.03652

>  <RMSD>
11.955

$$$$
ligand
 OpenBabel11021811503D
libRbt.so/2013.1/901 2013/11/27
 11 12  0  0  0  0  0  0  0  0999 V2000
   -3.7149  -28.8856   29.6059 N   0  0  0  0  0  0  0  0  0  0  0  0
   -5.0229  -29.0892   29.8995 C   0  0  0  0  0  0  0  0  0  0  0  0
   -5.5886  -28.5848   31.1150 N   0  0  0  0  0  0  0  0  0  0  0  0
   -5.8180  -29.7748   29.0590 N   0  0  0  0  0  0  0  0  0  0  0  0
   -5.3346  -30.2848   27.8749 C   0  0  0  0  0  0  0  0  0  0  0  0
   -4.0036  -30.0945   27.5513 C   0  0  0  0  0  0  0  0  0  0  0  0
   -3.1804  -29.3686   28.4630 C   0  0  0  0  0  0  0  0  0  0  0  0
   -1.7981  -29.1550   28.1605 N   0  0  0  0  0  0  0  0  0  0  0  0
   -3.8010  -30.7073   26.3293 N   0  0  0  0  0  0  0  0  0  0  0  0
   -4.9617  -31.2587   25.9211 C   0  0  0  0  0  0  0  0  0  0  0  0
   -5.9115  -31.0166   26.8464 N   0  0  0  0  0  0  0  0  0  0  0  0
  1  7  2  0  0  0  0
  1  2  1  0  0  0  0
  2  3  1  0  0  0  0
  2  4  2  0  0  0  0
  4  5  1  0  0  0  0
  5  6  2  0  0  0  0
  5 11  1  0  0  0  0
  6  7  1  0  0  0  0
  6  9  1  0  0  0  0
  7  8  1  0  0  0  0
  9 10  1  0  0  0  0
 10 11  2  0  0  0  0
M  END
>  <CHROM.1>
-4.46451516,-29.82563378,28.27871049,-1.61041281,-0.23875567,-2.07248048

>  <Name>
ligand

>  <RI>
0

>  <Rbt.Current_Directory>
/home/itssahil/PROJECTS/Mol_Feturizer/New_Systems/rnas/4LVZ

>  <Rbt.Executable>
rbdock ($Id: //depot/dev/client3/rdock/2013.1/src/exe/rbdock.cxx#4 $)

>  <Rbt.Library>
libRbt.so (2013.1, Build901 2013/11/27)

>  <Rbt.Parameter_File>
/export/apps/rDock/src/rDock_2013.1_src/data/scripts/dock_solv.prm

>  <Rbt.Receptor>
prm/blind_docking_60.prm

>  <SCORE>
-11.5462

>  <SCORE.INTER>
-11.5999

>  <SCORE.INTER.CONST>
1

>  <SCORE.INTER.POLAR>
0

>  <SCORE.INTER.ROT>
0

>  <SCORE.INTER.SOLV>
12.3323

>  <SCORE.INTER.VDW>
-15.444

>  <SCORE.INTER.norm>
-1.05453

>  <SCORE.INTRA>
0

>  <SCORE.INTRA.DIHEDRAL>
0

>  <SCORE.INTRA.DIHEDRAL.0>
0

>  <SCORE.INTRA.POLAR>
0

>  <SCORE.INTRA.POLAR.0>
0

>  <SCORE.INTRA.REPUL>
0

>  <SCORE.INTRA.REPUL.0>
0

>  <SCORE.INTRA.SOLV>
0

>  <SCORE.INTRA.SOLV.lig_0>
-49.4056

>  <SCORE.INTRA.VDW>
0

>  <SCORE.INTRA.VDW.0>
0

>  <SCORE.INTRA.norm>
0

>  <SCORE.RESTR>
0.0536343

>  <SCORE.RESTR.CAVITY>
0.0536343

>  <SCORE.RESTR.norm>
0.00487585

>  <SCORE.SYSTEM>
0

>  <SCORE.SYSTEM.CONST>
0

>  <SCORE.SYSTEM.DIHEDRAL>
0

>  <SCORE.SYSTEM.SOLV>
0

>  <SCORE.SYSTEM.norm>
0

>  <SCORE.heavy>
11

>  <SCORE.norm>
-1.04966

>  <RMSD>
11.956

$$$$
ligand
 OpenBabel11021811503D
libRbt.so/2013.1/901 2013/11/27
 11 12  0  0  0  0  0  0  0  0999 V2000
   -3.7359  -28.8655   29.6125 N   0  0  0  0  0  0  0  0  0  0  0  0
   -5.0487  -29.0537   29.8946 C   0  0  0  0  0  0  0  0  0  0  0  0
   -5.6219  -28.5316   31.0992 N   0  0  0  0  0  0  0  0  0  0  0  0
   -5.8419  -29.7400   29.0528 N   0  0  0  0  0  0  0  0  0  0  0  0
   -5.3514  -30.2664   27.8790 C   0  0  0  0  0  0  0  0  0  0  0  0
   -4.0154  -30.0921   27.5671 C   0  0  0  0  0  0  0  0  0  0  0  0
   -3.1945  -29.3651   28.4800 C   0  0  0  0  0  0  0  0  0  0  0  0
   -1.8072  -29.1678   28.1896 N   0  0  0  0  0  0  0  0  0  0  0  0
   -3.8063  -30.7191   26.3535 N   0  0  0  0  0  0  0  0  0  0  0  0
   -4.9680  -31.2634   25.9388 C   0  0  0  0  0  0  0  0  0  0  0  0
   -5.9249  -31.0030   26.8518 N   0  0  0  0  0  0  0  0  0  0  0  0
  1  7  2  0  0  0  0
  1  2  1  0  0  0  0
  2  3  1  0  0  0  0
  2  4  2  0  0  0  0
  4  5  1  0  0  0  0
  5  6  2  0  0  0  0
  5 11  1  0  0  0  0
  6  7  1  0  0  0  0
  6  9  1  0  0  0  0
  7  8  1  0  0  0  0
  9 10  1  0  0  0  0
 10 11  2  0  0  0  0
M  END
>  <CHROM.1>
-4.48105235,-29.81160908,28.28706124,-1.61479064,-0.22536244,-2.08348158

>  <Name>
ligand

>  <RI>
0

>  <Rbt.Current_Directory>
/home/itssahil/PROJECTS/Mol_Feturizer/New_Systems/rnas/4LVZ

>  <Rbt.Executable>
rbdock ($Id: //depot/dev/client3/rdock/2013.1/src/exe/rbdock.cxx#4 $)

>  <Rbt.Library>
libRbt.so (2013.1, Build901 2013/11/27)

>  <Rbt.Parameter_File>
/export/apps/rDock/src/rDock_2013.1_src/data/scripts/dock_solv.prm

>  <Rbt.Receptor>
prm/blind_docking_60.prm

>  <SCORE>
-11.5468

>  <SCORE.INTER>
-11.5949

>  <SCORE.INTER.CONST>
1

>  <SCORE.INTER.POLAR>
0

>  <SCORE.INTER.ROT>
0

>  <SCORE.INTER.SOLV>
12.2402

>  <SCORE.INTER.VDW>
-15.41

>  <SCORE.INTER.norm>
-1.05408

>  <SCORE.INTRA>
0

>  <SCORE.INTRA.DIHEDRAL>
0

>  <SCORE.INTRA.DIHEDRAL.0>
0

>  <SCORE.INTRA.POLAR>
0

>  <SCORE.INTRA.POLAR.0>
0

>  <SCORE.INTRA.REPUL>
0

>  <SCORE.INTRA.REPUL.0>
0

>  <SCORE.INTRA.SOLV>
0

>  <SCORE.INTRA.SOLV.lig_0>
-49.4056

>  <SCORE.INTRA.VDW>
0

>  <SCORE.INTRA.VDW.0>
0

>  <SCORE.INTRA.norm>
0

>  <SCORE.RESTR>
0.0481649

>  <SCORE.RESTR.CAVITY>
0.0481649

>  <SCORE.RESTR.norm>
0.00437863

>  <SCORE.SYSTEM>
0

>  <SCORE.SYSTEM.CONST>
0

>  <SCORE.SYSTEM.DIHEDRAL>
0

>  <SCORE.SYSTEM.SOLV>
0

>  <SCORE.SYSTEM.norm>
0

>  <SCORE.heavy>
11

>  <SCORE.norm>
-1.0497

>  <RMSD>
11.956

$$$$
ligand
 OpenBabel11021811503D
libRbt.so/2013.1/901 2013/11/27
 11 12  0  0  0  0  0  0  0  0999 V2000
   -3.7264  -28.8717   29.6370 N   0  0  0  0  0  0  0  0  0  0  0  0
   -5.0431  -29.0375   29.9149 C   0  0  0  0  0  0  0  0  0  0  0  0
   -5.6119  -28.5030   31.1160 N   0  0  0  0  0  0  0  0  0  0  0  0
   -5.8445  -29.7128   29.0719 N   0  0  0  0  0  0  0  0  0  0  0  0
   -5.3585  -30.2502   27.9012 C   0  0  0  0  0  0  0  0  0  0  0  0
   -4.0188  -30.0988   27.5937 C   0  0  0  0  0  0  0  0  0  0  0  0
   -3.1893  -29.3830   28.5077 C   0  0  0  0  0  0  0  0  0  0  0  0
   -1.7979  -29.2093   28.2218 N   0  0  0  0  0  0  0  0  0  0  0  0
   -3.8157  -30.7322   26.3824 N   0  0  0  0  0  0  0  0  0  0  0  0
   -4.9847  -31.2584   25.9649 C   0  0  0  0  0  0  0  0  0  0  0  0
   -5.9404  -30.9799   26.8738 N   0  0  0  0  0  0  0  0  0  0  0  0
  1  7  2  0  0  0  0
  1  2  1  0  0  0  0
  2  3  1  0  0  0  0
  2  4  2  0  0  0  0
  4  5  1  0  0  0  0
  5  6  2  0  0  0  0
  5 11  1  0  0  0  0
  6  7  1  0  0  0  0
  6  9  1  0  0  0  0
  7  8  1  0  0  0  0
  9 10  1  0  0  0  0
 10 11  2  0  0  0  0
M  END
>  <CHROM.1>
-4.48227947,-29.80878284,28.31126757,-1.60970219,-0.20925919,-2.08491645

>  <Name>
ligand

>  <RI>
0

>  <Rbt.Current_Directory>
/home/itssahil/PROJECTS/Mol_Feturizer/New_Systems/rnas/4LVZ

>  <Rbt.Executable>
rbdock ($Id: //depot/dev/client3/rdock/2013.1/src/exe/rbdock.cxx#4 $)

>  <Rbt.Library>
libRbt.so (2013.1, Build901 2013/11/27)

>  <Rbt.Parameter_File>
/export/apps/rDock/src/rDock_2013.1_src/data/scripts/dock_solv.prm

>  <Rbt.Receptor>
prm/blind_docking_60.prm

>  <SCORE>
-11.4648

>  <SCORE.INTER>
-11.4865

>  <SCORE.INTER.CONST>
1

>  <SCORE.INTER.POLAR>
0

>  <SCORE.INTER.ROT>
0

>  <SCORE.INTER.SOLV>
12.3255

>  <SCORE.INTER.VDW>
-15.3662

>  <SCORE.INTER.norm>
-1.04423

>  <SCORE.INTRA>
0

>  <SCORE.INTRA.DIHEDRAL>
0

>  <SCORE.INTRA.DIHEDRAL.0>
0

>  <SCORE.INTRA.POLAR>
0

>  <SCORE.INTRA.POLAR.0>
0

>  <SCORE.INTRA.REPUL>
0

>  <SCORE.INTRA.REPUL.0>
0

>  <SCORE.INTRA.SOLV>
0

>  <SCORE.INTRA.SOLV.lig_0>
-49.4056

>  <SCORE.INTRA.VDW>
0

>  <SCORE.INTRA.VDW.0>
0

>  <SCORE.INTRA.norm>
0

>  <SCORE.RESTR>
0.021696

>  <SCORE.RESTR.CAVITY>
0.021696

>  <SCORE.RESTR.norm>
0.00197237

>  <SCORE.SYSTEM>
0

>  <SCORE.SYSTEM.CONST>
0

>  <SCORE.SYSTEM.DIHEDRAL>
0

>  <SCORE.SYSTEM.SOLV>
0

>  <SCORE.SYSTEM.norm>
0

>  <SCORE.heavy>
11

>  <SCORE.norm>
-1.04226

>  <RMSD>
11.957

$$$$
ligand
 OpenBabel11021811503D
libRbt.so/2013.1/901 2013/11/27
 11 12  0  0  0  0  0  0  0  0999 V2000
   -3.6781  -28.9289   29.6842 N   0  0  0  0  0  0  0  0  0  0  0  0
   -4.9962  -29.0821   29.9632 C   0  0  0  0  0  0  0  0  0  0  0  0
   -5.5546  -28.5607   31.1749 N   0  0  0  0  0  0  0  0  0  0  0  0
   -5.8086  -29.7326   29.1113 N   0  0  0  0  0  0  0  0  0  0  0  0
   -5.3330  -30.2564   27.9302 C   0  0  0  0  0  0  0  0  0  0  0  0
   -3.9923  -30.1172   27.6213 C   0  0  0  0  0  0  0  0  0  0  0  0
   -3.1509  -29.4279   28.5448 C   0  0  0  0  0  0  0  0  0  0  0  0
   -1.7582  -29.2675   28.2577 N   0  0  0  0  0  0  0  0  0  0  0  0
   -3.8009  -30.7327   26.3989 N   0  0  0  0  0  0  0  0  0  0  0  0
   -4.9778  -31.2364   25.9761 C   0  0  0  0  0  0  0  0  0  0  0  0
   -5.9273  -30.9609   26.8925 N   0  0  0  0  0  0  0  0  0  0  0  0
  1  7  2  0  0  0  0
  1  2  1  0  0  0  0
  2  3  1  0  0  0  0
  2  4  2  0  0  0  0
  4  5  1  0  0  0  0
  5  6  2  0  0  0  0
  5 11  1  0  0  0  0
  6  7  1  0  0  0  0
  6  9  1  0  0  0  0
  7  8  1  0  0  0  0
  9 10  1  0  0  0  0
 10 11  2  0  0  0  0
M  END
>  <CHROM.1>
-4.44994339,-29.83342771,28.34508356,-1.60067159,-0.19923327,-2.06617117

>  <Name>
ligand

>  <RI>
0

>  <Rbt.Current_Directory>
/home/itssahil/PROJECTS/Mol_Feturizer/New_Systems/rnas/4LVZ

>  <Rbt.Executable>
rbdock ($Id: //depot/dev/client3/rdock/2013.1/src/exe/rbdock.cxx#4 $)

>  <Rbt.Library>
libRbt.so (2013.1, Build901 2013/11/27)

>  <Rbt.Parameter_File>
/export/apps/rDock/src/rDock_2013.1_src/data/scripts/dock_solv.prm

>  <Rbt.Receptor>
prm/blind_docking_60.prm

>  <SCORE>
-11.3591

>  <SCORE.INTER>
-11.3595

>  <SCORE.INTER.CONST>
1

>  <SCORE.INTER.POLAR>
0

>  <SCORE.INTER.ROT>
0

>  <SCORE.INTER.SOLV>
12.7297

>  <SCORE.INTER.VDW>
-15.4162

>  <SCORE.INTER.norm>
-1.03268

>  <SCORE.INTRA>
0

>  <SCORE.INTRA.DIHEDRAL>
0

>  <SCORE.INTRA.DIHEDRAL.0>
0

>  <SCORE.INTRA.POLAR>
0

>  <SCORE.INTRA.POLAR.0>
0

>  <SCORE.INTRA.REPUL>
0

>  <SCORE.INTRA.REPUL.0>
0

>  <SCORE.INTRA.SOLV>
0

>  <SCORE.INTRA.SOLV.lig_0>
-49.4056

>  <SCORE.INTRA.VDW>
0

>  <SCORE.INTRA.VDW.0>
0

>  <SCORE.INTRA.norm>
0

>  <SCORE.RESTR>
0.000364453

>  <SCORE.RESTR.CAVITY>
0.000364453

>  <SCORE.RESTR.norm>
3.31321e-05

>  <SCORE.SYSTEM>
0

>  <SCORE.SYSTEM.CONST>
0

>  <SCORE.SYSTEM.DIHEDRAL>
0

>  <SCORE.SYSTEM.SOLV>
0

>  <SCORE.SYSTEM.norm>
0

>  <SCORE.heavy>
11

>  <SCORE.norm>
-1.03265

>  <RMSD>
11.963

$$$$
ligand
 OpenBabel11021811503D
libRbt.so/2013.1/901 2013/11/27
 11 12  0  0  0  0  0  0  0  0999 V2000
   -3.7283  -28.8852   29.6252 N   0  0  0  0  0  0  0  0  0  0  0  0
   -5.0428  -29.0641   29.9057 C   0  0  0  0  0  0  0  0  0  0  0  0
   -5.6132  -28.5404   31.1108 N   0  0  0  0  0  0  0  0  0  0  0  0
   -5.8402  -29.7427   29.0616 N   0  0  0  0  0  0  0  0  0  0  0  0
   -5.3525  -30.2702   27.8871 C   0  0  0  0  0  0  0  0  0  0  0  0
   -4.0150  -30.1052   27.5768 C   0  0  0  0  0  0  0  0  0  0  0  0
   -3.1896  -29.3863   28.4921 C   0  0  0  0  0  0  0  0  0  0  0  0
   -1.8006  -29.1987   28.2034 N   0  0  0  0  0  0  0  0  0  0  0  0
   -3.8095  -30.7311   26.3620 N   0  0  0  0  0  0  0  0  0  0  0  0
   -4.9748  -31.2658   25.9451 C   0  0  0  0  0  0  0  0  0  0  0  0
   -5.9305  -31.0002   26.8578 N   0  0  0  0  0  0  0  0  0  0  0  0
  1  7  2  0  0  0  0
  1  2  1  0  0  0  0
  2  3  1  0  0  0  0
  2  4  2  0  0  0  0
  4  5  1  0  0  0  0
  5  6  2  0  0  0  0
  5 11  1  0  0  0  0
  6  7  1  0  0  0  0
  6  9  1  0  0  0  0
  7  8  1  0  0  0  0
  9 10  1  0  0  0  0
 10 11  2  0  0  0  0
M  END
>  <CHROM.1>
-4.47922747,-29.82276871,28.29696752,-1.61189664,-0.21839687,-2.08064964

>  <Name>
ligand

>  <RI>
0

>  <Rbt.Current_Directory>
/home/itssahil/PROJECTS/Mol_Feturizer/New_Systems/rnas/4LVZ

>  <Rbt.Executable>
rbdock ($Id: //depot/dev/client3/rdock/2013.1/src/exe/rbdock.cxx#4 $)

>  <Rbt.Library>
libRbt.so (2013.1, Build901 2013/11/27)

>  <Rbt.Parameter_File>
/export/apps/rDock/src/rDock_2013.1_src/data/scripts/dock_solv.prm

>  <Rbt.Receptor>
prm/blind_docking_60.prm

>  <SCORE>
-11.4961

>  <SCORE.INTER>
-11.5384

>  <SCORE.INTER.CONST>
1

>  <SCORE.INTER.POLAR>
0

>  <SCORE.INTER.ROT>
0

>  <SCORE.INTER.SOLV>
12.3081

>  <SCORE.INTER.VDW>
-15.395

>  <SCORE.INTER.norm>
-1.04894

>  <SCORE.INTRA>
0

>  <SCORE.INTRA.DIHEDRAL>
0

>  <SCORE.INTRA.DIHEDRAL.0>
0

>  <SCORE.INTRA.POLAR>
0

>  <SCORE.INTRA.POLAR.0>
0

>  <SCORE.INTRA.REPUL>
0

>  <SCORE.INTRA.REPUL.0>
0

>  <SCORE.INTRA.SOLV>
0

>  <SCORE.INTRA.SOLV.lig_0>
-49.4056

>  <SCORE.INTRA.VDW>
0

>  <SCORE.INTRA.VDW.0>
0

>  <SCORE.INTRA.norm>
0

>  <SCORE.RESTR>
0.042228

>  <SCORE.RESTR.CAVITY>
0.042228

>  <SCORE.RESTR.norm>
0.00383891

>  <SCORE.SYSTEM>
0

>  <SCORE.SYSTEM.CONST>
0

>  <SCORE.SYSTEM.DIHEDRAL>
0

>  <SCORE.SYSTEM.SOLV>
0

>  <SCORE.SYSTEM.norm>
0

>  <SCORE.heavy>
11

>  <SCORE.norm>
-1.0451

>  <RMSD>
11.965

$$$$
ligand
 OpenBabel11021811503D
libRbt.so/2013.1/901 2013/11/27
 11 12  0  0  0  0  0  0  0  0999 V2000
   -3.7491  -28.8626   29.6203 N   0  0  0  0  0  0  0  0  0  0  0  0
   -5.0642  -29.0399   29.8989 C   0  0  0  0  0  0  0  0  0  0  0  0
   -5.6377  -28.5075   31.0987 N   0  0  0  0  0  0  0  0  0  0  0  0
   -5.8594  -29.7248   29.0578 N   0  0  0  0  0  0  0  0  0  0  0  0
   -5.3686  -30.2608   27.8884 C   0  0  0  0  0  0  0  0  0  0  0  0
   -4.0304  -30.0977   27.5803 C   0  0  0  0  0  0  0  0  0  0  0  0
   -3.2074  -29.3718   28.4923 C   0  0  0  0  0  0  0  0  0  0  0  0
   -1.8177  -29.1860   28.2057 N   0  0  0  0  0  0  0  0  0  0  0  0
   -3.8216  -30.7323   26.3706 N   0  0  0  0  0  0  0  0  0  0  0  0
   -4.9858  -31.2704   25.9547 C   0  0  0  0  0  0  0  0  0  0  0  0
   -5.9439  -30.9985   26.8630 N   0  0  0  0  0  0  0  0  0  0  0  0
  1  7  2  0  0  0  0
  1  2  1  0  0  0  0
  2  3  1  0  0  0  0
  2  4  2  0  0  0  0
  4  5  1  0  0  0  0
  5  6  2  0  0  0  0
  5 11  1  0  0  0  0
  6  7  1  0  0  0  0
  6  9  1  0  0  0  0
  7  8  1  0  0  0  0
  9 10  1  0  0  0  0
 10 11  2  0  0  0  0
M  END
>  <CHROM.1>
-4.49644772,-29.81011128,28.29715002,-1.61424741,-0.21741841,-2.08848038

>  <Name>
ligand

>  <RI>
0

>  <Rbt.Current_Directory>
/home/itssahil/PROJECTS/Mol_Feturizer/New_Systems/rnas/4LVZ

>  <Rbt.Executable>
rbdock ($Id: //depot/dev/client3/rdock/2013.1/src/exe/rbdock.cxx#4 $)

>  <Rbt.Library>
libRbt.so (2013.1, Build901 2013/11/27)

>  <Rbt.Parameter_File>
/export/apps/rDock/src/rDock_2013.1_src/data/scripts/dock_solv.prm

>  <Rbt.Receptor>
prm/blind_docking_80.prm

>  <SCORE>
-11.4949

>  <SCORE.INTER>
-11.5315

>  <SCORE.INTER.CONST>
1

>  <SCORE.INTER.POLAR>
0

>  <SCORE.INTER.ROT>
0

>  <SCORE.INTER.SOLV>
12.1967

>  <SCORE.INTER.VDW>
-15.3532

>  <SCORE.INTER.norm>
-1.04832

>  <SCORE.INTRA>
0

>  <SCORE.INTRA.DIHEDRAL>
0

>  <SCORE.INTRA.DIHEDRAL.0>
0

>  <SCORE.INTRA.POLAR>
0

>  <SCORE.INTRA.POLAR.0>
0

>  <SCORE.INTRA.REPUL>
0

>  <SCORE.INTRA.REPUL.0>
0

>  <SCORE.INTRA.SOLV>
0

>  <SCORE.INTRA.SOLV.lig_0>
-49.4056

>  <SCORE.INTRA.VDW>
0

>  <SCORE.INTRA.VDW.0>
0

>  <SCORE.INTRA.norm>
0

>  <SCORE.RESTR>
0.0366028

>  <SCORE.RESTR.CAVITY>
0.0366028

>  <SCORE.RESTR.norm>
0.00332753

>  <SCORE.SYSTEM>
0

>  <SCORE.SYSTEM.CONST>
0

>  <SCORE.SYSTEM.DIHEDRAL>
0

>  <SCORE.SYSTEM.SOLV>
0

>  <SCORE.SYSTEM.norm>
0

>  <SCORE.heavy>
11

>  <SCORE.norm>
-1.04499

>  <RMSD>
11.965

$$$$
ligand
 OpenBabel11021811503D
libRbt.so/2013.1/901 2013/11/27
 11 12  0  0  0  0  0  0  0  0999 V2000
   -7.8445  -28.3287   29.9700 N   0  0  0  0  0  0  0  0  0  0  0  0
   -8.6655  -27.2628   29.8017 C   0  0  0  0  0  0  0  0  0  0  0  0
  -10.0268  -27.4431   29.3939 N   0  0  0  0  0  0  0  0  0  0  0  0
   -8.2190  -26.0111   30.0081 N   0  0  0  0  0  0  0  0  0  0  0  0
   -6.9215  -25.7716   30.4015 C   0  0  0  0  0  0  0  0  0  0  0  0
   -6.0613  -26.8399   30.5781 C   0  0  0  0  0  0  0  0  0  0  0  0
   -6.5586  -28.1571   30.3470 C   0  0  0  0  0  0  0  0  0  0  0  0
   -5.6951  -29.2854   30.5184 N   0  0  0  0  0  0  0  0  0  0  0  0
   -4.8446  -26.3100   30.9635 N   0  0  0  0  0  0  0  0  0  0  0  0
   -4.9514  -24.9670   31.0153 C   0  0  0  0  0  0  0  0  0  0  0  0
   -6.2071  -24.6136   30.6756 N   0  0  0  0  0  0  0  0  0  0  0  0
  1  7  2  0  0  0  0
  1  2  1  0  0  0  0
  2  3  1  0  0  0  0
  2  4  2  0  0  0  0
  4  5  1  0  0  0  0
  5  6  2  0  0  0  0
  5 11  1  0  0  0  0
  6  7  1  0  0  0  0
  6  9  1  0  0  0  0
  7  8  1  0  0  0  0
  9 10  1  0  0  0  0
 10 11  2  0  0  0  0
M  END
>  <CHROM.1>
-6.92785595,-26.83235751,30.32734241,-2.61727565,-0.27950879,0.06487010

>  <Name>
ligand

>  <RI>
0

>  <Rbt.Current_Directory>
/home/itssahil/PROJECTS/Mol_Feturizer/New_Systems/rnas/4LVZ

>  <Rbt.Executable>
rbdock ($Id: //depot/dev/client3/rdock/2013.1/src/exe/rbdock.cxx#4 $)

>  <Rbt.Library>
libRbt.so (2013.1, Build901 2013/11/27)

>  <Rbt.Parameter_File>
/export/apps/rDock/src/rDock_2013.1_src/data/scripts/dock_solv.prm

>  <Rbt.Receptor>
prm/blind_docking_100.prm

>  <SCORE>
-9.74052

>  <SCORE.INTER>
-9.74052

>  <SCORE.INTER.CONST>
1

>  <SCORE.INTER.POLAR>
0

>  <SCORE.INTER.ROT>
0

>  <SCORE.INTER.SOLV>
9.40263

>  <SCORE.INTER.VDW>
-13.2279

>  <SCORE.INTER.norm>
-0.885502

>  <SCORE.INTRA>
0

>  <SCORE.INTRA.DIHEDRAL>
0

>  <SCORE.INTRA.DIHEDRAL.0>
0

>  <SCORE.INTRA.POLAR>
0

>  <SCORE.INTRA.POLAR.0>
0

>  <SCORE.INTRA.REPUL>
0

>  <SCORE.INTRA.REPUL.0>
0

>  <SCORE.INTRA.SOLV>
0

>  <SCORE.INTRA.SOLV.lig_0>
-49.4056

>  <SCORE.INTRA.VDW>
0

>  <SCORE.INTRA.VDW.0>
0

>  <SCORE.INTRA.norm>
0

>  <SCORE.RESTR>
0

>  <SCORE.RESTR.CAVITY>
0

>  <SCORE.RESTR.norm>
0

>  <SCORE.SYSTEM>
0

>  <SCORE.SYSTEM.CONST>
0

>  <SCORE.SYSTEM.DIHEDRAL>
0

>  <SCORE.SYSTEM.SOLV>
0

>  <SCORE.SYSTEM.norm>
0

>  <SCORE.heavy>
11

>  <SCORE.norm>
-0.885502

>  <RMSD>
12.374

$$$$
ligand
 OpenBabel11021811503D
libRbt.so/2013.1/901 2013/11/27
 11 12  0  0  0  0  0  0  0  0999 V2000
   -7.4892  -26.5286   30.8989 N   0  0  0  0  0  0  0  0  0  0  0  0
   -6.1915  -26.3025   31.2207 C   0  0  0  0  0  0  0  0  0  0  0  0
   -5.8062  -25.1139   31.9212 N   0  0  0  0  0  0  0  0  0  0  0  0
   -5.2353  -27.1863   30.8843 N   0  0  0  0  0  0  0  0  0  0  0  0
   -5.5412  -28.3476   30.2109 C   0  0  0  0  0  0  0  0  0  0  0  0
   -6.8562  -28.6026   29.8676 C   0  0  0  0  0  0  0  0  0  0  0  0
   -7.8505  -27.6461   30.2313 C   0  0  0  0  0  0  0  0  0  0  0  0
   -9.2209  -27.8773   29.8899 N   0  0  0  0  0  0  0  0  0  0  0  0
   -6.8656  -29.8167   29.2074 N   0  0  0  0  0  0  0  0  0  0  0  0
   -5.6035  -30.2863   29.1419 C   0  0  0  0  0  0  0  0  0  0  0  0
   -4.7771  -29.4085   29.7449 N   0  0  0  0  0  0  0  0  0  0  0  0
  1  7  2  0  0  0  0
  1  2  1  0  0  0  0
  2  3  1  0  0  0  0
  2  4  2  0  0  0  0
  4  5  1  0  0  0  0
  5  6  2  0  0  0  0
  5 11  1  0  0  0  0
  6  7  1  0  0  0  0
  6  9  1  0  0  0  0
  7  8  1  0  0  0  0
  9 10  1  0  0  0  0
 10 11  2  0  0  0  0
M  END
>  <CHROM.1>
-6.50022815,-27.89768428,30.30359094,1.67610726,-0.13487475,0.49788153

>  <Name>
ligand

>  <RI>
0

>  <Rbt.Current_Directory>
/home/itssahil/PROJECTS/Mol_Feturizer/New_Systems/rnas/4LVZ

>  <Rbt.Executable>
rbdock ($Id: //depot/dev/client3/rdock/2013.1/src/exe/rbdock.cxx#4 $)

>  <Rbt.Library>
libRbt.so (2013.1, Build901 2013/11/27)

>  <Rbt.Parameter_File>
/export/apps/rDock/src/rDock_2013.1_src/data/scripts/dock_solv.prm

>  <Rbt.Receptor>
prm/blind_docking_80.prm

>  <SCORE>
-8.94661

>  <SCORE.INTER>
-8.94661

>  <SCORE.INTER.CONST>
1

>  <SCORE.INTER.POLAR>
0

>  <SCORE.INTER.ROT>
0

>  <SCORE.INTER.SOLV>
7.09234

>  <SCORE.INTER.VDW>
-11.9285

>  <SCORE.INTER.norm>
-0.813328

>  <SCORE.INTRA>
0

>  <SCORE.INTRA.DIHEDRAL>
0

>  <SCORE.INTRA.DIHEDRAL.0>
0

>  <SCORE.INTRA.POLAR>
0

>  <SCORE.INTRA.POLAR.0>
0

>  <SCORE.INTRA.REPUL>
0

>  <SCORE.INTRA.REPUL.0>
0

>  <SCORE.INTRA.SOLV>
0

>  <SCORE.INTRA.SOLV.lig_0>
-49.4056

>  <SCORE.INTRA.VDW>
0

>  <SCORE.INTRA.VDW.0>
0

>  <SCORE.INTRA.norm>
0

>  <SCORE.RESTR>
0

>  <SCORE.RESTR.CAVITY>
0

>  <SCORE.RESTR.norm>
0

>  <SCORE.SYSTEM>
0

>  <SCORE.SYSTEM.CONST>
0

>  <SCORE.SYSTEM.DIHEDRAL>
0

>  <SCORE.SYSTEM.SOLV>
0

>  <SCORE.SYSTEM.norm>
0

>  <SCORE.heavy>
11

>  <SCORE.norm>
-0.813328

>  <RMSD>
12.433

$$$$
ligand
 OpenBabel11021811503D
libRbt.so/2013.1/901 2013/11/27
 11 12  0  0  0  0  0  0  0  0999 V2000
   -7.4852  -26.4920   30.8326 N   0  0  0  0  0  0  0  0  0  0  0  0
   -6.1875  -26.2618   31.1513 C   0  0  0  0  0  0  0  0  0  0  0  0
   -5.7945  -25.0404   31.7883 N   0  0  0  0  0  0  0  0  0  0  0  0
   -5.2383  -27.1725   30.8713 N   0  0  0  0  0  0  0  0  0  0  0  0
   -5.5518  -28.3660   30.2605 C   0  0  0  0  0  0  0  0  0  0  0  0
   -6.8671  -28.6261   29.9218 C   0  0  0  0  0  0  0  0  0  0  0  0
   -7.8536  -27.6408   30.2248 C   0  0  0  0  0  0  0  0  0  0  0  0
   -9.2240  -27.8765   29.8862 N   0  0  0  0  0  0  0  0  0  0  0  0
   -6.8847  -29.8745   29.3293 N   0  0  0  0  0  0  0  0  0  0  0  0
   -5.6272  -30.3599   29.2993 C   0  0  0  0  0  0  0  0  0  0  0  0
   -4.7958  -29.4587   29.8594 N   0  0  0  0  0  0  0  0  0  0  0  0
  1  7  2  0  0  0  0
  1  2  1  0  0  0  0
  2  3  1  0  0  0  0
  2  4  2  0  0  0  0
  4  5  1  0  0  0  0
  5  6  2  0  0  0  0
  5 11  1  0  0  0  0
  6  7  1  0  0  0  0
  6  9  1  0  0  0  0
  7  8  1  0  0  0  0
  9 10  1  0  0  0  0
 10 11  2  0  0  0  0
M  END
>  <CHROM.1>
-6.50664715,-27.90186002,30.32102740,1.67006154,-0.14609241,0.44195618

>  <Name>
ligand

>  <RI>
0

>  <Rbt.Current_Directory>
/home/itssahil/PROJECTS/Mol_Feturizer/New_Systems/rnas/4LVZ

>  <Rbt.Executable>
rbdock ($Id: //depot/dev/client3/rdock/2013.1/src/exe/rbdock.cxx#4 $)

>  <Rbt.Library>
libRbt.so (2013.1, Build901 2013/11/27)

>  <Rbt.Parameter_File>
/export/apps/rDock/src/rDock_2013.1_src/data/scripts/dock_solv.prm

>  <Rbt.Receptor>
prm/blind_docking_60.prm

>  <SCORE>
-8.96367

>  <SCORE.INTER>
-8.96367

>  <SCORE.INTER.CONST>
1

>  <SCORE.INTER.POLAR>
0

>  <SCORE.INTER.ROT>
0

>  <SCORE.INTER.SOLV>
7.75102

>  <SCORE.INTER.VDW>
-12.1595

>  <SCORE.INTER.norm>
-0.814879

>  <SCORE.INTRA>
0

>  <SCORE.INTRA.DIHEDRAL>
0

>  <SCORE.INTRA.DIHEDRAL.0>
0

>  <SCORE.INTRA.POLAR>
0

>  <SCORE.INTRA.POLAR.0>
0

>  <SCORE.INTRA.REPUL>
0

>  <SCORE.INTRA.REPUL.0>
0

>  <SCORE.INTRA.SOLV>
0

>  <SCORE.INTRA.SOLV.lig_0>
-49.4056

>  <SCORE.INTRA.VDW>
0

>  <SCORE.INTRA.VDW.0>
0

>  <SCORE.INTRA.norm>
0

>  <SCORE.RESTR>
0

>  <SCORE.RESTR.CAVITY>
0

>  <SCORE.RESTR.norm>
0

>  <SCORE.SYSTEM>
0

>  <SCORE.SYSTEM.CONST>
0

>  <SCORE.SYSTEM.DIHEDRAL>
0

>  <SCORE.SYSTEM.SOLV>
0

>  <SCORE.SYSTEM.norm>
0

>  <SCORE.heavy>
11

>  <SCORE.norm>
-0.814879

>  <RMSD>
12.445

$$$$
ligand
 OpenBabel11021811503D
libRbt.so/2013.1/901 2013/11/27
 11 12  0  0  0  0  0  0  0  0999 V2000
   -7.4205  -26.4800   30.7547 N   0  0  0  0  0  0  0  0  0  0  0  0
   -6.1100  -26.2945   31.0494 C   0  0  0  0  0  0  0  0  0  0  0  0
   -5.6585  -25.0729   31.6460 N   0  0  0  0  0  0  0  0  0  0  0  0
   -5.2028  -27.2508   30.7827 N   0  0  0  0  0  0  0  0  0  0  0  0
   -5.5734  -28.4470   30.2105 C   0  0  0  0  0  0  0  0  0  0  0  0
   -6.9029  -28.6623   29.8969 C   0  0  0  0  0  0  0  0  0  0  0  0
   -7.8441  -27.6293   30.1848 C   0  0  0  0  0  0  0  0  0  0  0  0
   -9.2277  -27.8179   29.8715 N   0  0  0  0  0  0  0  0  0  0  0  0
   -6.9798  -29.9250   29.3406 N   0  0  0  0  0  0  0  0  0  0  0  0
   -5.7437  -30.4622   29.3076 C   0  0  0  0  0  0  0  0  0  0  0  0
   -4.8683  -29.5806   29.8306 N   0  0  0  0  0  0  0  0  0  0  0  0
  1  7  2  0  0  0  0
  1  2  1  0  0  0  0
  2  3  1  0  0  0  0
  2  4  2  0  0  0  0
  4  5  1  0  0  0  0
  5  6  2  0  0  0  0
  5 11  1  0  0  0  0
  6  7  1  0  0  0  0
  6  9  1  0  0  0  0
  7  8  1  0  0  0  0
  9 10  1  0  0  0  0
 10 11  2  0  0  0  0
M  END
>  <CHROM.1>
-6.50760155,-27.94259735,30.27049939,1.62661330,-0.15022475,0.40730620

>  <Name>
ligand

>  <RI>
0

>  <Rbt.Current_Directory>
/home/itssahil/PROJECTS/Mol_Feturizer/New_Systems/rnas/4LVZ

>  <Rbt.Executable>
rbdock ($Id: //depot/dev/client3/rdock/2013.1/src/exe/rbdock.cxx#4 $)

>  <Rbt.Library>
libRbt.so (2013.1, Build901 2013/11/27)

>  <Rbt.Parameter_File>
/export/apps/rDock/src/rDock_2013.1_src/data/scripts/dock_solv.prm

>  <Rbt.Receptor>
prm/blind_docking_100.prm

>  <SCORE>
-8.96463

>  <SCORE.INTER>
-8.96463

>  <SCORE.INTER.CONST>
1

>  <SCORE.INTER.POLAR>
0

>  <SCORE.INTER.ROT>
0

>  <SCORE.INTER.SOLV>
8.40849

>  <SCORE.INTER.VDW>
-12.3793

>  <SCORE.INTER.norm>
-0.814966

>  <SCORE.INTRA>
0

>  <SCORE.INTRA.DIHEDRAL>
0

>  <SCORE.INTRA.DIHEDRAL.0>
0

>  <SCORE.INTRA.POLAR>
0

>  <SCORE.INTRA.POLAR.0>
0

>  <SCORE.INTRA.REPUL>
0

>  <SCORE.INTRA.REPUL.0>
0

>  <SCORE.INTRA.SOLV>
0

>  <SCORE.INTRA.SOLV.lig_0>
-49.4056

>  <SCORE.INTRA.VDW>
0

>  <SCORE.INTRA.VDW.0>
0

>  <SCORE.INTRA.norm>
0

>  <SCORE.RESTR>
0

>  <SCORE.RESTR.CAVITY>
0

>  <SCORE.RESTR.norm>
0

>  <SCORE.SYSTEM>
0

>  <SCORE.SYSTEM.CONST>
0

>  <SCORE.SYSTEM.DIHEDRAL>
0

>  <SCORE.SYSTEM.SOLV>
0

>  <SCORE.SYSTEM.norm>
0

>  <SCORE.heavy>
11

>  <SCORE.norm>
-0.814966

>  <RMSD>
12.449

$$$$
ligand
 OpenBabel11021811503D
libRbt.so/2013.1/901 2013/11/27
 11 12  0  0  0  0  0  0  0  0999 V2000
   -7.4282  -26.4312   30.5970 N   0  0  0  0  0  0  0  0  0  0  0  0
   -6.1394  -26.2801   30.9904 C   0  0  0  0  0  0  0  0  0  0  0  0
   -5.6896  -25.0505   31.5717 N   0  0  0  0  0  0  0  0  0  0  0  0
   -5.2521  -27.2792   30.8383 N   0  0  0  0  0  0  0  0  0  0  0  0
   -5.6222  -28.4852   30.2868 C   0  0  0  0  0  0  0  0  0  0  0  0
   -6.9296  -28.6662   29.8743 C   0  0  0  0  0  0  0  0  0  0  0  0
   -7.8496  -27.5884   30.0416 C   0  0  0  0  0  0  0  0  0  0  0  0
   -9.2098  -27.7407   29.6238 N   0  0  0  0  0  0  0  0  0  0  0  0
   -7.0112  -29.9484   29.3654 N   0  0  0  0  0  0  0  0  0  0  0  0
   -5.7985  -30.5306   29.4559 C   0  0  0  0  0  0  0  0  0  0  0  0
   -4.9341  -29.6590   30.0126 N   0  0  0  0  0  0  0  0  0  0  0  0
  1  7  2  0  0  0  0
  1  2  1  0  0  0  0
  2  3  1  0  0  0  0
  2  4  2  0  0  0  0
  4  5  1  0  0  0  0
  5  6  2  0  0  0  0
  5 11  1  0  0  0  0
  6  7  1  0  0  0  0
  6  9  1  0  0  0  0
  7  8  1  0  0  0  0
  9 10  1  0  0  0  0
 10 11  2  0  0  0  0
M  END
>  <CHROM.1>
-6.53764012,-27.94542187,30.24936125,1.62220056,-0.23981049,0.36403910

>  <Name>
ligand

>  <RI>
0

>  <Rbt.Current_Directory>
/home/itssahil/PROJECTS/Mol_Feturizer/New_Systems/rnas/4LVZ

>  <Rbt.Executable>
rbdock ($Id: //depot/dev/client3/rdock/2013.1/src/exe/rbdock.cxx#4 $)

>  <Rbt.Library>
libRbt.so (2013.1, Build901 2013/11/27)

>  <Rbt.Parameter_File>
/export/apps/rDock/src/rDock_2013.1_src/data/scripts/dock_solv.prm

>  <Rbt.Receptor>
prm/blind_docking_80.prm

>  <SCORE>
-9.0127

>  <SCORE.INTER>
-9.0127

>  <SCORE.INTER.CONST>
1

>  <SCORE.INTER.POLAR>
0

>  <SCORE.INTER.ROT>
0

>  <SCORE.INTER.SOLV>
9.28967

>  <SCORE.INTER.VDW>
-12.705

>  <SCORE.INTER.norm>
-0.819336

>  <SCORE.INTRA>
0

>  <SCORE.INTRA.DIHEDRAL>
0

>  <SCORE.INTRA.DIHEDRAL.0>
0

>  <SCORE.INTRA.POLAR>
0

>  <SCORE.INTRA.POLAR.0>
0

>  <SCORE.INTRA.REPUL>
0

>  <SCORE.INTRA.REPUL.0>
0

>  <SCORE.INTRA.SOLV>
0

>  <SCORE.INTRA.SOLV.lig_0>
-49.4056

>  <SCORE.INTRA.VDW>
0

>  <SCORE.INTRA.VDW.0>
0

>  <SCORE.INTRA.norm>
0

>  <SCORE.RESTR>
0

>  <SCORE.RESTR.CAVITY>
0

>  <SCORE.RESTR.norm>
0

>  <SCORE.SYSTEM>
0

>  <SCORE.SYSTEM.CONST>
0

>  <SCORE.SYSTEM.DIHEDRAL>
0

>  <SCORE.SYSTEM.SOLV>
0

>  <SCORE.SYSTEM.norm>
0

>  <SCORE.heavy>
11

>  <SCORE.norm>
-0.819336

>  <RMSD>
12.455

$$$$
ligand
 OpenBabel11021811503D
libRbt.so/2013.1/901 2013/11/27
 11 12  0  0  0  0  0  0  0  0999 V2000
    4.0120  -28.4042   15.9082 N   0  0  0  0  0  0  0  0  0  0  0  0
    4.6681  -27.2209   15.9975 C   0  0  0  0  0  0  0  0  0  0  0  0
    6.0998  -27.1746   15.9971 N   0  0  0  0  0  0  0  0  0  0  0  0
    3.9896  -26.0637   16.0946 N   0  0  0  0  0  0  0  0  0  0  0  0
    2.6130  -26.0413   16.0999 C   0  0  0  0  0  0  0  0  0  0  0  0
    1.9179  -27.2336   16.0128 C   0  0  0  0  0  0  0  0  0  0  0  0
    2.6617  -28.4474   15.9165 C   0  0  0  0  0  0  0  0  0  0  0  0
    1.9744  -29.6995   15.8270 N   0  0  0  0  0  0  0  0  0  0  0  0
    0.5742  -26.9126   16.0446 N   0  0  0  0  0  0  0  0  0  0  0  0
    0.4486  -25.5747   16.1537 C   0  0  0  0  0  0  0  0  0  0  0  0
    1.6768  -25.0206   16.1910 N   0  0  0  0  0  0  0  0  0  0  0  0
  1  7  2  0  0  0  0
  1  2  1  0  0  0  0
  2  3  1  0  0  0  0
  2  4  2  0  0  0  0
  4  5  1  0  0  0  0
  5  6  2  0  0  0  0
  5 11  1  0  0  0  0
  6  7  1  0  0  0  0
  6  9  1  0  0  0  0
  7  8  1  0  0  0  0
  9 10  1  0  0  0  0
 10 11  2  0  0  0  0
M  END
>  <CHROM.1>
2.80749384,-27.08377216,16.02110768,0.34753861,-0.00585377,-3.06411651

>  <Name>
ligand

>  <RI>
0

>  <Rbt.Current_Directory>
/home/itssahil/PROJECTS/Mol_Feturizer/New_Systems/rnas/4LVZ

>  <Rbt.Executable>
rbdock ($Id: //depot/dev/client3/rdock/2013.1/src/exe/rbdock.cxx#4 $)

>  <Rbt.Library>
libRbt.so (2013.1, Build901 2013/11/27)

>  <Rbt.Parameter_File>
/export/apps/rDock/src/rDock_2013.1_src/data/scripts/dock_solv.prm

>  <Rbt.Receptor>
prm/blind_docking_40.prm

>  <SCORE>
-5.62826

>  <SCORE.INTER>
-5.62826

>  <SCORE.INTER.CONST>
1

>  <SCORE.INTER.POLAR>
0

>  <SCORE.INTER.ROT>
0

>  <SCORE.INTER.SOLV>
15.6164

>  <SCORE.INTER.VDW>
-12.5576

>  <SCORE.INTER.norm>
-0.51166

>  <SCORE.INTRA>
0

>  <SCORE.INTRA.DIHEDRAL>
0

>  <SCORE.INTRA.DIHEDRAL.0>
0

>  <SCORE.INTRA.POLAR>
0

>  <SCORE.INTRA.POLAR.0>
0

>  <SCORE.INTRA.REPUL>
0

>  <SCORE.INTRA.REPUL.0>
0

>  <SCORE.INTRA.SOLV>
0

>  <SCORE.INTRA.SOLV.lig_0>
-49.4056

>  <SCORE.INTRA.VDW>
0

>  <SCORE.INTRA.VDW.0>
0

>  <SCORE.INTRA.norm>
0

>  <SCORE.RESTR>
0

>  <SCORE.RESTR.CAVITY>
0

>  <SCORE.RESTR.norm>
0

>  <SCORE.SYSTEM>
0

>  <SCORE.SYSTEM.CONST>
0

>  <SCORE.SYSTEM.DIHEDRAL>
0

>  <SCORE.SYSTEM.SOLV>
0

>  <SCORE.SYSTEM.norm>
0

>  <SCORE.heavy>
11

>  <SCORE.norm>
-0.51166

>  <RMSD>
12.456

$$$$
ligand
 OpenBabel11021811503D
libRbt.so/2013.1/901 2013/11/27
 11 12  0  0  0  0  0  0  0  0999 V2000
   -7.4833  -26.5088   30.8170 N   0  0  0  0  0  0  0  0  0  0  0  0
   -6.1783  -26.2919   31.1144 C   0  0  0  0  0  0  0  0  0  0  0  0
   -5.7631  -25.0765   31.7489 N   0  0  0  0  0  0  0  0  0  0  0  0
   -5.2425  -27.2104   30.8151 N   0  0  0  0  0  0  0  0  0  0  0  0
   -5.5775  -28.3986   30.2055 C   0  0  0  0  0  0  0  0  0  0  0  0
   -6.9007  -28.6452   29.8883 C   0  0  0  0  0  0  0  0  0  0  0  0
   -7.8727  -27.6520   30.2114 C   0  0  0  0  0  0  0  0  0  0  0  0
   -9.2507  -27.8736   29.8954 N   0  0  0  0  0  0  0  0  0  0  0  0
   -6.9399  -29.8912   29.2918 N   0  0  0  0  0  0  0  0  0  0  0  0
   -5.6878  -30.3881   29.2387 C   0  0  0  0  0  0  0  0  0  0  0  0
   -4.8386  -29.4968   29.7878 N   0  0  0  0  0  0  0  0  0  0  0  0
  1  7  2  0  0  0  0
  1  2  1  0  0  0  0
  2  3  1  0  0  0  0
  2  4  2  0  0  0  0
  4  5  1  0  0  0  0
  5  6  2  0  0  0  0
  5 11  1  0  0  0  0
  6  7  1  0  0  0  0
  6  9  1  0  0  0  0
  7  8  1  0  0  0  0
  9 10  1  0  0  0  0
 10 11  2  0  0  0  0
M  END
>  <CHROM.1>
-6.52676732,-27.92585174,30.28387514,1.65422051,-0.13475719,0.44333713

>  <Name>
ligand

>  <RI>
0

>  <Rbt.Current_Directory>
/home/itssahil/PROJECTS/Mol_Feturizer/New_Systems/rnas/4LVZ

>  <Rbt.Executable>
rbdock ($Id: //depot/dev/client3/rdock/2013.1/src/exe/rbdock.cxx#4 $)

>  <Rbt.Library>
libRbt.so (2013.1, Build901 2013/11/27)

>  <Rbt.Parameter_File>
/export/apps/rDock/src/rDock_2013.1_src/data/scripts/dock_solv.prm

>  <Rbt.Receptor>
prm/blind_docking_60.prm

>  <SCORE>
-8.95567

>  <SCORE.INTER>
-8.95567

>  <SCORE.INTER.CONST>
1

>  <SCORE.INTER.POLAR>
0

>  <SCORE.INTER.ROT>
0

>  <SCORE.INTER.SOLV>
7.79058

>  <SCORE.INTER.VDW>
-12.1673

>  <SCORE.INTER.norm>
-0.814152

>  <SCORE.INTRA>
0

>  <SCORE.INTRA.DIHEDRAL>
0

>  <SCORE.INTRA.DIHEDRAL.0>
0

>  <SCORE.INTRA.POLAR>
0

>  <SCORE.INTRA.POLAR.0>
0

>  <SCORE.INTRA.REPUL>
0

>  <SCORE.INTRA.REPUL.0>
0

>  <SCORE.INTRA.SOLV>
0

>  <SCORE.INTRA.SOLV.lig_0>
-49.4056

>  <SCORE.INTRA.VDW>
0

>  <SCORE.INTRA.VDW.0>
0

>  <SCORE.INTRA.norm>
0

>  <SCORE.RESTR>
0

>  <SCORE.RESTR.CAVITY>
0

>  <SCORE.RESTR.norm>
0

>  <SCORE.SYSTEM>
0

>  <SCORE.SYSTEM.CONST>
0

>  <SCORE.SYSTEM.DIHEDRAL>
0

>  <SCORE.SYSTEM.SOLV>
0

>  <SCORE.SYSTEM.norm>
0

>  <SCORE.heavy>
11

>  <SCORE.norm>
-0.814152

>  <RMSD>
12.460

$$$$
ligand
 OpenBabel11021811503D
libRbt.so/2013.1/901 2013/11/27
 11 12  0  0  0  0  0  0  0  0999 V2000
   -7.4966  -26.5062   30.8634 N   0  0  0  0  0  0  0  0  0  0  0  0
   -6.2047  -26.2871   31.2122 C   0  0  0  0  0  0  0  0  0  0  0  0
   -5.8194  -25.0773   31.8755 N   0  0  0  0  0  0  0  0  0  0  0  0
   -5.2541  -27.1981   30.9382 N   0  0  0  0  0  0  0  0  0  0  0  0
   -5.5603  -28.3808   30.3033 C   0  0  0  0  0  0  0  0  0  0  0  0
   -6.8694  -28.6295   29.9336 C   0  0  0  0  0  0  0  0  0  0  0  0
   -7.8576  -27.6441   30.2309 C   0  0  0  0  0  0  0  0  0  0  0  0
   -9.2217  -27.8680   29.8607 N   0  0  0  0  0  0  0  0  0  0  0  0
   -6.8804  -29.8688   29.3222 N   0  0  0  0  0  0  0  0  0  0  0  0
   -5.6248  -30.3597   29.3109 C   0  0  0  0  0  0  0  0  0  0  0  0
   -4.8011  -29.4711   29.9014 N   0  0  0  0  0  0  0  0  0  0  0  0
  1  7  2  0  0  0  0
  1  2  1  0  0  0  0
  2  3  1  0  0  0  0
  2  4  2  0  0  0  0
  4  5  1  0  0  0  0
  5  6  2  0  0  0  0
  5 11  1  0  0  0  0
  6  7  1  0  0  0  0
  6  9  1  0  0  0  0
  7  8  1  0  0  0  0
  9 10  1  0  0  0  0
 10 11  2  0  0  0  0
M  END
>  <CHROM.1>
-6.51407417,-27.91301754,30.35102382,1.67487340,-0.16673447,0.45767281

>  <Name>
ligand

>  <RI>
0

>  <Rbt.Current_Directory>
/home/itssahil/PROJECTS/Mol_Feturizer/New_Systems/rnas/4LVZ

>  <Rbt.Executable>
rbdock ($Id: //depot/dev/client3/rdock/2013.1/src/exe/rbdock.cxx#4 $)

>  <Rbt.Library>
libRbt.so (2013.1, Build901 2013/11/27)

>  <Rbt.Parameter_File>
/export/apps/rDock/src/rDock_2013.1_src/data/scripts/dock_solv.prm

>  <Rbt.Receptor>
prm/blind_docking_80.prm

>  <SCORE>
-8.96435

>  <SCORE.INTER>
-8.96435

>  <SCORE.INTER.CONST>
1

>  <SCORE.INTER.POLAR>
0

>  <SCORE.INTER.ROT>
0

>  <SCORE.INTER.SOLV>
7.33398

>  <SCORE.INTER.VDW>
-12.0209

>  <SCORE.INTER.norm>
-0.814941

>  <SCORE.INTRA>
0

>  <SCORE.INTRA.DIHEDRAL>
0

>  <SCORE.INTRA.DIHEDRAL.0>
0

>  <SCORE.INTRA.POLAR>
0

>  <SCORE.INTRA.POLAR.0>
0

>  <SCORE.INTRA.REPUL>
0

>  <SCORE.INTRA.REPUL.0>
0

>  <SCORE.INTRA.SOLV>
0

>  <SCORE.INTRA.SOLV.lig_0>
-49.4056

>  <SCORE.INTRA.VDW>
0

>  <SCORE.INTRA.VDW.0>
0

>  <SCORE.INTRA.norm>
0

>  <SCORE.RESTR>
0

>  <SCORE.RESTR.CAVITY>
0

>  <SCORE.RESTR.norm>
0

>  <SCORE.SYSTEM>
0

>  <SCORE.SYSTEM.CONST>
0

>  <SCORE.SYSTEM.DIHEDRAL>
0

>  <SCORE.SYSTEM.SOLV>
0

>  <SCORE.SYSTEM.norm>
0

>  <SCORE.heavy>
11

>  <SCORE.norm>
-0.814941

>  <RMSD>
12.465

$$$$
ligand
 OpenBabel11021811503D
libRbt.so/2013.1/901 2013/11/27
 11 12  0  0  0  0  0  0  0  0999 V2000
   -7.4558  -26.4950   30.7628 N   0  0  0  0  0  0  0  0  0  0  0  0
   -6.1539  -26.3161   31.0970 C   0  0  0  0  0  0  0  0  0  0  0  0
   -5.7182  -25.1052   31.7262 N   0  0  0  0  0  0  0  0  0  0  0  0
   -5.2404  -27.2691   30.8400 N   0  0  0  0  0  0  0  0  0  0  0  0
   -5.5958  -28.4551   30.2378 C   0  0  0  0  0  0  0  0  0  0  0  0
   -6.9162  -28.6634   29.8837 C   0  0  0  0  0  0  0  0  0  0  0  0
   -7.8642  -27.6341   30.1623 C   0  0  0  0  0  0  0  0  0  0  0  0
   -9.2386  -27.8157   29.8073 N   0  0  0  0  0  0  0  0  0  0  0  0
   -6.9786  -29.9166   29.3045 N   0  0  0  0  0  0  0  0  0  0  0  0
   -5.7425  -30.4548   29.2971 C   0  0  0  0  0  0  0  0  0  0  0  0
   -4.8813  -29.5832   29.8590 N   0  0  0  0  0  0  0  0  0  0  0  0
  1  7  2  0  0  0  0
  1  2  1  0  0  0  0
  2  3  1  0  0  0  0
  2  4  2  0  0  0  0
  4  5  1  0  0  0  0
  5  6  2  0  0  0  0
  5 11  1  0  0  0  0
  6  7  1  0  0  0  0
  6  9  1  0  0  0  0
  7  8  1  0  0  0  0
  9 10  1  0  0  0  0
 10 11  2  0  0  0  0
M  END
>  <CHROM.1>
-6.53090344,-27.95054055,30.28005419,1.63709006,-0.17621468,0.42561789

>  <Name>
ligand

>  <RI>
0

>  <Rbt.Current_Directory>
/home/itssahil/PROJECTS/Mol_Feturizer/New_Systems/rnas/4LVZ

>  <Rbt.Executable>
rbdock ($Id: //depot/dev/client3/rdock/2013.1/src/exe/rbdock.cxx#4 $)

>  <Rbt.Library>
libRbt.so (2013.1, Build901 2013/11/27)

>  <Rbt.Parameter_File>
/export/apps/rDock/src/rDock_2013.1_src/data/scripts/dock_solv.prm

>  <Rbt.Receptor>
prm/blind_docking_60.prm

>  <SCORE>
-8.99081

>  <SCORE.INTER>
-8.99081

>  <SCORE.INTER.CONST>
1

>  <SCORE.INTER.POLAR>
0

>  <SCORE.INTER.ROT>
0

>  <SCORE.INTER.SOLV>
8.04545

>  <SCORE.INTER.VDW>
-12.2757

>  <SCORE.INTER.norm>
-0.817346

>  <SCORE.INTRA>
0

>  <SCORE.INTRA.DIHEDRAL>
0

>  <SCORE.INTRA.DIHEDRAL.0>
0

>  <SCORE.INTRA.POLAR>
0

>  <SCORE.INTRA.POLAR.0>
0

>  <SCORE.INTRA.REPUL>
0

>  <SCORE.INTRA.REPUL.0>
0

>  <SCORE.INTRA.SOLV>
0

>  <SCORE.INTRA.SOLV.lig_0>
-49.4056

>  <SCORE.INTRA.VDW>
0

>  <SCORE.INTRA.VDW.0>
0

>  <SCORE.INTRA.norm>
0

>  <SCORE.RESTR>
0

>  <SCORE.RESTR.CAVITY>
0

>  <SCORE.RESTR.norm>
0

>  <SCORE.SYSTEM>
0

>  <SCORE.SYSTEM.CONST>
0

>  <SCORE.SYSTEM.DIHEDRAL>
0

>  <SCORE.SYSTEM.SOLV>
0

>  <SCORE.SYSTEM.norm>
0

>  <SCORE.heavy>
11

>  <SCORE.norm>
-0.817346

>  <RMSD>
12.471

$$$$
ligand
 OpenBabel11021811503D
libRbt.so/2013.1/901 2013/11/27
 11 12  0  0  0  0  0  0  0  0999 V2000
   -7.5101  -26.5076   30.8602 N   0  0  0  0  0  0  0  0  0  0  0  0
   -6.2145  -26.2976   31.2005 C   0  0  0  0  0  0  0  0  0  0  0  0
   -5.8176  -25.0938   31.8678 N   0  0  0  0  0  0  0  0  0  0  0  0
   -5.2710  -27.2122   30.9141 N   0  0  0  0  0  0  0  0  0  0  0  0
   -5.5884  -28.3895   30.2746 C   0  0  0  0  0  0  0  0  0  0  0  0
   -6.9016  -28.6288   29.9134 C   0  0  0  0  0  0  0  0  0  0  0  0
   -7.8821  -27.6398   30.2239 C   0  0  0  0  0  0  0  0  0  0  0  0
   -9.2501  -27.8541   29.8626 N   0  0  0  0  0  0  0  0  0  0  0  0
   -6.9241  -29.8645   29.2950 N   0  0  0  0  0  0  0  0  0  0  0  0
   -5.6713  -30.3622   29.2713 C   0  0  0  0  0  0  0  0  0  0  0  0
   -4.8383  -29.4815   29.8608 N   0  0  0  0  0  0  0  0  0  0  0  0
  1  7  2  0  0  0  0
  1  2  1  0  0  0  0
  2  3  1  0  0  0  0
  2  4  2  0  0  0  0
  4  5  1  0  0  0  0
  5  6  2  0  0  0  0
  5 11  1  0  0  0  0
  6  7  1  0  0  0  0
  6  9  1  0  0  0  0
  7  8  1  0  0  0  0
  9 10  1  0  0  0  0
 10 11  2  0  0  0  0
M  END
>  <CHROM.1>
-6.53922151,-27.91677401,30.33228495,1.66650925,-0.16245489,0.46210624

>  <Name>
ligand

>  <RI>
0

>  <Rbt.Current_Directory>
/home/itssahil/PROJECTS/Mol_Feturizer/New_Systems/rnas/4LVZ

>  <Rbt.Executable>
rbdock ($Id: //depot/dev/client3/rdock/2013.1/src/exe/rbdock.cxx#4 $)

>  <Rbt.Library>
libRbt.so (2013.1, Build901 2013/11/27)

>  <Rbt.Parameter_File>
/export/apps/rDock/src/rDock_2013.1_src/data/scripts/dock_solv.prm

>  <Rbt.Receptor>
prm/blind_docking_80.prm

>  <SCORE>
-8.97194

>  <SCORE.INTER>
-8.97194

>  <SCORE.INTER.CONST>
1

>  <SCORE.INTER.POLAR>
0

>  <SCORE.INTER.ROT>
0

>  <SCORE.INTER.SOLV>
7.31716

>  <SCORE.INTER.VDW>
-12.0203

>  <SCORE.INTER.norm>
-0.815631

>  <SCORE.INTRA>
0

>  <SCORE.INTRA.DIHEDRAL>
0

>  <SCORE.INTRA.DIHEDRAL.0>
0

>  <SCORE.INTRA.POLAR>
0

>  <SCORE.INTRA.POLAR.0>
0

>  <SCORE.INTRA.REPUL>
0

>  <SCORE.INTRA.REPUL.0>
0

>  <SCORE.INTRA.SOLV>
0

>  <SCORE.INTRA.SOLV.lig_0>
-49.4056

>  <SCORE.INTRA.VDW>
0

>  <SCORE.INTRA.VDW.0>
0

>  <SCORE.INTRA.norm>
0

>  <SCORE.RESTR>
0

>  <SCORE.RESTR.CAVITY>
0

>  <SCORE.RESTR.norm>
0

>  <SCORE.SYSTEM>
0

>  <SCORE.SYSTEM.CONST>
0

>  <SCORE.SYSTEM.DIHEDRAL>
0

>  <SCORE.SYSTEM.SOLV>
0

>  <SCORE.SYSTEM.norm>
0

>  <SCORE.heavy>
11

>  <SCORE.norm>
-0.815631

>  <RMSD>
12.478

$$$$
ligand
 OpenBabel11021811503D
libRbt.so/2013.1/901 2013/11/27
 11 12  0  0  0  0  0  0  0  0999 V2000
    5.1258  -28.5508   16.6343 N   0  0  0  0  0  0  0  0  0  0  0  0
    4.1556  -28.9835   17.4770 C   0  0  0  0  0  0  0  0  0  0  0  0
    4.3753  -30.1136   18.3294 N   0  0  0  0  0  0  0  0  0  0  0  0
    2.9623  -28.3653   17.5276 N   0  0  0  0  0  0  0  0  0  0  0  0
    2.6893  -27.2736   16.7342 C   0  0  0  0  0  0  0  0  0  0  0  0
    3.6595  -26.8124   15.8633 C   0  0  0  0  0  0  0  0  0  0  0  0
    4.9148  -27.4898   15.8251 C   0  0  0  0  0  0  0  0  0  0  0  0
    5.9405  -27.0403   14.9341 N   0  0  0  0  0  0  0  0  0  0  0  0
    3.1160  -25.7271   15.2028 N   0  0  0  0  0  0  0  0  0  0  0  0
    1.8576  -25.5331   15.6462 C   0  0  0  0  0  0  0  0  0  0  0  0
    1.5730  -26.4637   16.5789 N   0  0  0  0  0  0  0  0  0  0  0  0
  1  7  2  0  0  0  0
  1  2  1  0  0  0  0
  2  3  1  0  0  0  0
  2  4  2  0  0  0  0
  4  5  1  0  0  0  0
  5  6  2  0  0  0  0
  5 11  1  0  0  0  0
  6  7  1  0  0  0  0
  6  9  1  0  0  0  0
  7  8  1  0  0  0  0
  9 10  1  0  0  0  0
 10 11  2  0  0  0  0
M  END
>  <CHROM.1>
3.68483637,-27.50521639,16.44058627,-1.02545940,0.35597450,-0.70732563

>  <Name>
ligand

>  <RI>
0

>  <Rbt.Current_Directory>
/home/itssahil/PROJECTS/Mol_Feturizer/New_Systems/rnas/4LVZ

>  <Rbt.Executable>
rbdock ($Id: //depot/dev/client3/rdock/2013.1/src/exe/rbdock.cxx#4 $)

>  <Rbt.Library>
libRbt.so (2013.1, Build901 2013/11/27)

>  <Rbt.Parameter_File>
/export/apps/rDock/src/rDock_2013.1_src/data/scripts/dock_solv.prm

>  <Rbt.Receptor>
prm/blind_docking_80.prm

>  <SCORE>
-6.42287

>  <SCORE.INTER>
-6.42287

>  <SCORE.INTER.CONST>
1

>  <SCORE.INTER.POLAR>
0

>  <SCORE.INTER.ROT>
0

>  <SCORE.INTER.SOLV>
6.63354

>  <SCORE.INTER.VDW>
-10.0931

>  <SCORE.INTER.norm>
-0.583897

>  <SCORE.INTRA>
0

>  <SCORE.INTRA.DIHEDRAL>
0

>  <SCORE.INTRA.DIHEDRAL.0>
0

>  <SCORE.INTRA.POLAR>
0

>  <SCORE.INTRA.POLAR.0>
0

>  <SCORE.INTRA.REPUL>
0

>  <SCORE.INTRA.REPUL.0>
0

>  <SCORE.INTRA.SOLV>
0

>  <SCORE.INTRA.SOLV.lig_0>
-49.4056

>  <SCORE.INTRA.VDW>
0

>  <SCORE.INTRA.VDW.0>
0

>  <SCORE.INTRA.norm>
0

>  <SCORE.RESTR>
0

>  <SCORE.RESTR.CAVITY>
0

>  <SCORE.RESTR.norm>
0

>  <SCORE.SYSTEM>
0

>  <SCORE.SYSTEM.CONST>
0

>  <SCORE.SYSTEM.DIHEDRAL>
0

>  <SCORE.SYSTEM.SOLV>
0

>  <SCORE.SYSTEM.norm>
0

>  <SCORE.heavy>
11

>  <SCORE.norm>
-0.583897

>  <RMSD>
12.479

$$$$
ligand
 OpenBabel11021811503D
libRbt.so/2013.1/901 2013/11/27
 11 12  0  0  0  0  0  0  0  0999 V2000
   -7.5109  -26.5137   30.8539 N   0  0  0  0  0  0  0  0  0  0  0  0
   -6.2147  -26.3053   31.1931 C   0  0  0  0  0  0  0  0  0  0  0  0
   -5.8159  -25.1025   31.8611 N   0  0  0  0  0  0  0  0  0  0  0  0
   -5.2724  -27.2207   30.9049 N   0  0  0  0  0  0  0  0  0  0  0  0
   -5.5917  -28.3971   30.2648 C   0  0  0  0  0  0  0  0  0  0  0  0
   -6.9055  -28.6347   29.9046 C   0  0  0  0  0  0  0  0  0  0  0  0
   -7.8846  -27.6449   30.2169 C   0  0  0  0  0  0  0  0  0  0  0  0
   -9.2532  -27.8575   29.8568 N   0  0  0  0  0  0  0  0  0  0  0  0
   -6.9298  -29.8698   29.2851 N   0  0  0  0  0  0  0  0  0  0  0  0
   -5.6776  -30.3688   29.2598 C   0  0  0  0  0  0  0  0  0  0  0  0
   -4.8431  -29.4895   29.8492 N   0  0  0  0  0  0  0  0  0  0  0  0
  1  7  2  0  0  0  0
  1  2  1  0  0  0  0
  2  3  1  0  0  0  0
  2  4  2  0  0  0  0
  4  5  1  0  0  0  0
  5  6  2  0  0  0  0
  5 11  1  0  0  0  0
  6  7  1  0  0  0  0
  6  9  1  0  0  0  0
  7  8  1  0  0  0  0
  9 10  1  0  0  0  0
 10 11  2  0  0  0  0
M  END
>  <CHROM.1>
-6.54196193,-27.92339088,30.32376031,1.66513166,-0.16203904,0.46277927

>  <Name>
ligand

>  <RI>
0

>  <Rbt.Current_Directory>
/home/itssahil/PROJECTS/Mol_Feturizer/New_Systems/rnas/4LVZ

>  <Rbt.Executable>
rbdock ($Id: //depot/dev/client3/rdock/2013.1/src/exe/rbdock.cxx#4 $)

>  <Rbt.Library>
libRbt.so (2013.1, Build901 2013/11/27)

>  <Rbt.Parameter_File>
/export/apps/rDock/src/rDock_2013.1_src/data/scripts/dock_solv.prm

>  <Rbt.Receptor>
prm/blind_docking_100.prm

>  <SCORE>
-8.96561

>  <SCORE.INTER>
-8.96561

>  <SCORE.INTER.CONST>
1

>  <SCORE.INTER.POLAR>
0

>  <SCORE.INTER.ROT>
0

>  <SCORE.INTER.SOLV>
7.32414

>  <SCORE.INTER.VDW>
-12.0185

>  <SCORE.INTER.norm>
-0.815055

>  <SCORE.INTRA>
0

>  <SCORE.INTRA.DIHEDRAL>
0

>  <SCORE.INTRA.DIHEDRAL.0>
0

>  <SCORE.INTRA.POLAR>
0

>  <SCORE.INTRA.POLAR.0>
0

>  <SCORE.INTRA.REPUL>
0

>  <SCORE.INTRA.REPUL.0>
0

>  <SCORE.INTRA.SOLV>
0

>  <SCORE.INTRA.SOLV.lig_0>
-49.4056

>  <SCORE.INTRA.VDW>
0

>  <SCORE.INTRA.VDW.0>
0

>  <SCORE.INTRA.norm>
0

>  <SCORE.RESTR>
0

>  <SCORE.RESTR.CAVITY>
0

>  <SCORE.RESTR.norm>
0

>  <SCORE.SYSTEM>
0

>  <SCORE.SYSTEM.CONST>
0

>  <SCORE.SYSTEM.DIHEDRAL>
0

>  <SCORE.SYSTEM.SOLV>
0

>  <SCORE.SYSTEM.norm>
0

>  <SCORE.heavy>
11

>  <SCORE.norm>
-0.815055

>  <RMSD>
12.481

$$$$
ligand
 OpenBabel11021811503D
libRbt.so/2013.1/901 2013/11/27
 11 12  0  0  0  0  0  0  0  0999 V2000
   -7.4848  -26.4220   30.6392 N   0  0  0  0  0  0  0  0  0  0  0  0
   -6.1830  -26.2626   30.9833 C   0  0  0  0  0  0  0  0  0  0  0  0
   -5.7198  -25.0310   31.5496 N   0  0  0  0  0  0  0  0  0  0  0  0
   -5.2952  -27.2552   30.7954 N   0  0  0  0  0  0  0  0  0  0  0  0
   -5.6777  -28.4628   30.2560 C   0  0  0  0  0  0  0  0  0  0  0  0
   -6.9987  -28.6521   29.8933 C   0  0  0  0  0  0  0  0  0  0  0  0
   -7.9190  -27.5811   30.0980 C   0  0  0  0  0  0  0  0  0  0  0  0
   -9.2931  -27.7422   29.7321 N   0  0  0  0  0  0  0  0  0  0  0  0
   -7.0908  -29.9340   29.3854 N   0  0  0  0  0  0  0  0  0  0  0  0
   -5.8715  -30.5079   29.4283 C   0  0  0  0  0  0  0  0  0  0  0  0
   -4.9925  -29.6312   29.9533 N   0  0  0  0  0  0  0  0  0  0  0  0
  1  7  2  0  0  0  0
  1  2  1  0  0  0  0
  2  3  1  0  0  0  0
  2  4  2  0  0  0  0
  4  5  1  0  0  0  0
  5  6  2  0  0  0  0
  5 11  1  0  0  0  0
  6  7  1  0  0  0  0
  6  9  1  0  0  0  0
  7  8  1  0  0  0  0
  9 10  1  0  0  0  0
 10 11  2  0  0  0  0
M  END
>  <CHROM.1>
-6.59765029,-27.92935051,30.25467890,1.61492372,-0.20160638,0.36437654

>  <Name>
ligand

>  <RI>
0

>  <Rbt.Current_Directory>
/home/itssahil/PROJECTS/Mol_Feturizer/New_Systems/rnas/4LVZ

>  <Rbt.Executable>
rbdock ($Id: //depot/dev/client3/rdock/2013.1/src/exe/rbdock.cxx#4 $)

>  <Rbt.Library>
libRbt.so (2013.1, Build901 2013/11/27)

>  <Rbt.Parameter_File>
/export/apps/rDock/src/rDock_2013.1_src/data/scripts/dock_solv.prm

>  <Rbt.Receptor>
prm/blind_docking_100.prm

>  <SCORE>
-9.01537

>  <SCORE.INTER>
-9.01537

>  <SCORE.INTER.CONST>
1

>  <SCORE.INTER.POLAR>
0

>  <SCORE.INTER.ROT>
0

>  <SCORE.INTER.SOLV>
9.12425

>  <SCORE.INTER.VDW>
-12.6517

>  <SCORE.INTER.norm>
-0.819579

>  <SCORE.INTRA>
0

>  <SCORE.INTRA.DIHEDRAL>
0

>  <SCORE.INTRA.DIHEDRAL.0>
0

>  <SCORE.INTRA.POLAR>
0

>  <SCORE.INTRA.POLAR.0>
0

>  <SCORE.INTRA.REPUL>
0

>  <SCORE.INTRA.REPUL.0>
0

>  <SCORE.INTRA.SOLV>
0

>  <SCORE.INTRA.SOLV.lig_0>
-49.4056

>  <SCORE.INTRA.VDW>
0

>  <SCORE.INTRA.VDW.0>
0

>  <SCORE.INTRA.norm>
0

>  <SCORE.RESTR>
0

>  <SCORE.RESTR.CAVITY>
0

>  <SCORE.RESTR.norm>
0

>  <SCORE.SYSTEM>
0

>  <SCORE.SYSTEM.CONST>
0

>  <SCORE.SYSTEM.DIHEDRAL>
0

>  <SCORE.SYSTEM.SOLV>
0

>  <SCORE.SYSTEM.norm>
0

>  <SCORE.heavy>
11

>  <SCORE.norm>
-0.819579

>  <RMSD>
12.492

$$$$
ligand
 OpenBabel11021811503D
libRbt.so/2013.1/901 2013/11/27
 11 12  0  0  0  0  0  0  0  0999 V2000
   -7.4557  -26.3811   30.6294 N   0  0  0  0  0  0  0  0  0  0  0  0
   -6.1522  -26.2691   30.9858 C   0  0  0  0  0  0  0  0  0  0  0  0
   -5.6503  -25.0557   31.5581 N   0  0  0  0  0  0  0  0  0  0  0  0
   -5.2990  -27.2929   30.8046 N   0  0  0  0  0  0  0  0  0  0  0  0
   -5.7199  -28.4853   30.2598 C   0  0  0  0  0  0  0  0  0  0  0  0
   -7.0434  -28.6264   29.8846 C   0  0  0  0  0  0  0  0  0  0  0  0
   -7.9263  -27.5232   30.0824 C   0  0  0  0  0  0  0  0  0  0  0  0
   -9.3019  -27.6342   29.7035 N   0  0  0  0  0  0  0  0  0  0  0  0
   -7.1768  -29.9036   29.3739 N   0  0  0  0  0  0  0  0  0  0  0  0
   -5.9795  -30.5211   29.4272 C   0  0  0  0  0  0  0  0  0  0  0  0
   -5.0743  -29.6773   29.9617 N   0  0  0  0  0  0  0  0  0  0  0  0
  1  7  2  0  0  0  0
  1  2  1  0  0  0  0
  2  3  1  0  0  0  0
  2  4  2  0  0  0  0
  4  5  1  0  0  0  0
  5  6  2  0  0  0  0
  5 11  1  0  0  0  0
  6  7  1  0  0  0  0
  6  9  1  0  0  0  0
  7  8  1  0  0  0  0
  9 10  1  0  0  0  0
 10 11  2  0  0  0  0
M  END
>  <CHROM.1>
-6.61990131,-27.91900815,30.25077207,1.58379544,-0.22305112,0.35915801

>  <Name>
ligand

>  <RI>
0

>  <Rbt.Current_Directory>
/home/itssahil/PROJECTS/Mol_Feturizer/New_Systems/rnas/4LVZ

>  <Rbt.Executable>
rbdock ($Id: //depot/dev/client3/rdock/2013.1/src/exe/rbdock.cxx#4 $)

>  <Rbt.Library>
libRbt.so (2013.1, Build901 2013/11/27)

>  <Rbt.Parameter_File>
/export/apps/rDock/src/rDock_2013.1_src/data/scripts/dock_solv.prm

>  <Rbt.Receptor>
prm/blind_docking_80.prm

>  <SCORE>
-8.96435

>  <SCORE.INTER>
-8.96435

>  <SCORE.INTER.CONST>
1

>  <SCORE.INTER.POLAR>
0

>  <SCORE.INTER.ROT>
0

>  <SCORE.INTER.SOLV>
9.29338

>  <SCORE.INTER.VDW>
-12.674

>  <SCORE.INTER.norm>
-0.814941

>  <SCORE.INTRA>
0

>  <SCORE.INTRA.DIHEDRAL>
0

>  <SCORE.INTRA.DIHEDRAL.0>
0

>  <SCORE.INTRA.POLAR>
0

>  <SCORE.INTRA.POLAR.0>
0

>  <SCORE.INTRA.REPUL>
0

>  <SCORE.INTRA.REPUL.0>
0

>  <SCORE.INTRA.SOLV>
0

>  <SCORE.INTRA.SOLV.lig_0>
-49.4056

>  <SCORE.INTRA.VDW>
0

>  <SCORE.INTRA.VDW.0>
0

>  <SCORE.INTRA.norm>
0

>  <SCORE.RESTR>
0

>  <SCORE.RESTR.CAVITY>
0

>  <SCORE.RESTR.norm>
0

>  <SCORE.SYSTEM>
0

>  <SCORE.SYSTEM.CONST>
0

>  <SCORE.SYSTEM.DIHEDRAL>
0

>  <SCORE.SYSTEM.SOLV>
0

>  <SCORE.SYSTEM.norm>
0

>  <SCORE.heavy>
11

>  <SCORE.norm>
-0.814941

>  <RMSD>
12.494

$$$$
ligand
 OpenBabel11021811503D
libRbt.so/2013.1/901 2013/11/27
 11 12  0  0  0  0  0  0  0  0999 V2000
   -7.4960  -26.3958   30.6636 N   0  0  0  0  0  0  0  0  0  0  0  0
   -6.1881  -26.2602   30.9948 C   0  0  0  0  0  0  0  0  0  0  0  0
   -5.7022  -25.0467   31.5808 N   0  0  0  0  0  0  0  0  0  0  0  0
   -5.3156  -27.2598   30.7752 N   0  0  0  0  0  0  0  0  0  0  0  0
   -5.7203  -28.4509   30.2156 C   0  0  0  0  0  0  0  0  0  0  0  0
   -7.0479  -28.6158   29.8655 C   0  0  0  0  0  0  0  0  0  0  0  0
   -7.9517  -27.5377   30.1038 C   0  0  0  0  0  0  0  0  0  0  0  0
   -9.3321  -27.6737   29.7518 N   0  0  0  0  0  0  0  0  0  0  0  0
   -7.1628  -29.8855   29.3321 N   0  0  0  0  0  0  0  0  0  0  0  0
   -5.9506  -30.4755   29.3479 C   0  0  0  0  0  0  0  0  0  0  0  0
   -5.0539  -29.6213   29.8801 N   0  0  0  0  0  0  0  0  0  0  0  0
  1  7  2  0  0  0  0
  1  2  1  0  0  0  0
  2  3  1  0  0  0  0
  2  4  2  0  0  0  0
  4  5  1  0  0  0  0
  5  6  2  0  0  0  0
  5 11  1  0  0  0  0
  6  7  1  0  0  0  0
  6  9  1  0  0  0  0
  7  8  1  0  0  0  0
  9 10  1  0  0  0  0
 10 11  2  0  0  0  0
M  END
>  <CHROM.1>
-6.63319337,-27.90590109,30.23678520,1.59817538,-0.19480966,0.38198798

>  <Name>
ligand

>  <RI>
0

>  <Rbt.Current_Directory>
/home/itssahil/PROJECTS/Mol_Feturizer/New_Systems/rnas/4LVZ

>  <Rbt.Executable>
rbdock ($Id: //depot/dev/client3/rdock/2013.1/src/exe/rbdock.cxx#4 $)

>  <Rbt.Library>
libRbt.so (2013.1, Build901 2013/11/27)

>  <Rbt.Parameter_File>
/export/apps/rDock/src/rDock_2013.1_src/data/scripts/dock_solv.prm

>  <Rbt.Receptor>
prm/blind_docking_100.prm

>  <SCORE>
-9.01589

>  <SCORE.INTER>
-9.01589

>  <SCORE.INTER.CONST>
1

>  <SCORE.INTER.POLAR>
0

>  <SCORE.INTER.ROT>
0

>  <SCORE.INTER.SOLV>
9.00803

>  <SCORE.INTER.VDW>
-12.6133

>  <SCORE.INTER.norm>
-0.819626

>  <SCORE.INTRA>
0

>  <SCORE.INTRA.DIHEDRAL>
0

>  <SCORE.INTRA.DIHEDRAL.0>
0

>  <SCORE.INTRA.POLAR>
0

>  <SCORE.INTRA.POLAR.0>
0

>  <SCORE.INTRA.REPUL>
0

>  <SCORE.INTRA.REPUL.0>
0

>  <SCORE.INTRA.SOLV>
0

>  <SCORE.INTRA.SOLV.lig_0>
-49.4056

>  <SCORE.INTRA.VDW>
0

>  <SCORE.INTRA.VDW.0>
0

>  <SCORE.INTRA.norm>
0

>  <SCORE.RESTR>
0

>  <SCORE.RESTR.CAVITY>
0

>  <SCORE.RESTR.norm>
0

>  <SCORE.SYSTEM>
0

>  <SCORE.SYSTEM.CONST>
0

>  <SCORE.SYSTEM.DIHEDRAL>
0

>  <SCORE.SYSTEM.SOLV>
0

>  <SCORE.SYSTEM.norm>
0

>  <SCORE.heavy>
11

>  <SCORE.norm>
-0.819626

>  <RMSD>
12.495

$$$$
ligand
 OpenBabel11021811503D
libRbt.so/2013.1/901 2013/11/27
 11 12  0  0  0  0  0  0  0  0999 V2000
   -7.4932  -26.3952   30.6648 N   0  0  0  0  0  0  0  0  0  0  0  0
   -6.1845  -26.2611   30.9933 C   0  0  0  0  0  0  0  0  0  0  0  0
   -5.6960  -25.0480   31.5780 N   0  0  0  0  0  0  0  0  0  0  0  0
   -5.3137  -27.2618   30.7722 N   0  0  0  0  0  0  0  0  0  0  0  0
   -5.7209  -28.4526   30.2137 C   0  0  0  0  0  0  0  0  0  0  0  0
   -7.0495  -28.6159   29.8663 C   0  0  0  0  0  0  0  0  0  0  0  0
   -7.9515  -27.5367   30.1062 C   0  0  0  0  0  0  0  0  0  0  0  0
   -9.3328  -27.6710   29.7570 N   0  0  0  0  0  0  0  0  0  0  0  0
   -7.1669  -29.8856   29.3335 N   0  0  0  0  0  0  0  0  0  0  0  0
   -5.9555  -30.4771   29.3470 C   0  0  0  0  0  0  0  0  0  0  0  0
   -5.0567  -29.6239   29.8772 N   0  0  0  0  0  0  0  0  0  0  0  0
  1  7  2  0  0  0  0
  1  2  1  0  0  0  0
  2  3  1  0  0  0  0
  2  4  2  0  0  0  0
  4  5  1  0  0  0  0
  5  6  2  0  0  0  0
  5 11  1  0  0  0  0
  6  7  1  0  0  0  0
  6  9  1  0  0  0  0
  7  8  1  0  0  0  0
  9 10  1  0  0  0  0
 10 11  2  0  0  0  0
M  END
>  <CHROM.1>
-6.63312995,-27.90644354,30.23660039,1.59626181,-0.19339583,0.38136012

>  <Name>
ligand

>  <RI>
0

>  <Rbt.Current_Directory>
/home/itssahil/PROJECTS/Mol_Feturizer/New_Systems/rnas/4LVZ

>  <Rbt.Executable>
rbdock ($Id: //depot/dev/client3/rdock/2013.1/src/exe/rbdock.cxx#4 $)

>  <Rbt.Library>
libRbt.so (2013.1, Build901 2013/11/27)

>  <Rbt.Parameter_File>
/export/apps/rDock/src/rDock_2013.1_src/data/scripts/dock_solv.prm

>  <Rbt.Receptor>
prm/blind_docking_60.prm

>  <SCORE>
-9.01423

>  <SCORE.INTER>
-9.01423

>  <SCORE.INTER.CONST>
1

>  <SCORE.INTER.POLAR>
0

>  <SCORE.INTER.ROT>
0

>  <SCORE.INTER.SOLV>
9.01081

>  <SCORE.INTER.VDW>
-12.6131

>  <SCORE.INTER.norm>
-0.819476

>  <SCORE.INTRA>
0

>  <SCORE.INTRA.DIHEDRAL>
0

>  <SCORE.INTRA.DIHEDRAL.0>
0

>  <SCORE.INTRA.POLAR>
0

>  <SCORE.INTRA.POLAR.0>
0

>  <SCORE.INTRA.REPUL>
0

>  <SCORE.INTRA.REPUL.0>
0

>  <SCORE.INTRA.SOLV>
0

>  <SCORE.INTRA.SOLV.lig_0>
-49.4056

>  <SCORE.INTRA.VDW>
0

>  <SCORE.INTRA.VDW.0>
0

>  <SCORE.INTRA.norm>
0

>  <SCORE.RESTR>
0

>  <SCORE.RESTR.CAVITY>
0

>  <SCORE.RESTR.norm>
0

>  <SCORE.SYSTEM>
0

>  <SCORE.SYSTEM.CONST>
0

>  <SCORE.SYSTEM.DIHEDRAL>
0

>  <SCORE.SYSTEM.SOLV>
0

>  <SCORE.SYSTEM.norm>
0

>  <SCORE.heavy>
11

>  <SCORE.norm>
-0.819476

>  <RMSD>
12.495

$$$$
ligand
 OpenBabel11021811503D
libRbt.so/2013.1/901 2013/11/27
 11 12  0  0  0  0  0  0  0  0999 V2000
   -7.4707  -26.4564   30.6609 N   0  0  0  0  0  0  0  0  0  0  0  0
   -6.1789  -26.2901   31.0380 C   0  0  0  0  0  0  0  0  0  0  0  0
   -5.7383  -25.0583   31.6215 N   0  0  0  0  0  0  0  0  0  0  0  0
   -5.2801  -27.2759   30.8674 N   0  0  0  0  0  0  0  0  0  0  0  0
   -5.6411  -28.4833   30.3128 C   0  0  0  0  0  0  0  0  0  0  0  0
   -6.9514  -28.6795   29.9166 C   0  0  0  0  0  0  0  0  0  0  0  0
   -7.8836  -27.6156   30.1034 C   0  0  0  0  0  0  0  0  0  0  0  0
   -9.2471  -27.7839   29.7027 N   0  0  0  0  0  0  0  0  0  0  0  0
   -7.0222  -29.9595   29.4003 N   0  0  0  0  0  0  0  0  0  0  0  0
   -5.8006  -30.5255   29.4707 C   0  0  0  0  0  0  0  0  0  0  0  0
   -4.9407  -29.6457   30.0216 N   0  0  0  0  0  0  0  0  0  0  0  0
  1  7  2  0  0  0  0
  1  2  1  0  0  0  0
  2  3  1  0  0  0  0
  2  4  2  0  0  0  0
  4  5  1  0  0  0  0
  5  6  2  0  0  0  0
  5 11  1  0  0  0  0
  6  7  1  0  0  0  0
  6  9  1  0  0  0  0
  7  8  1  0  0  0  0
  9 10  1  0  0  0  0
 10 11  2  0  0  0  0
M  END
>  <CHROM.1>
-6.56425617,-27.95592895,30.29122094,1.63040774,-0.22237100,0.37253036

>  <Name>
ligand

>  <RI>
0

>  <Rbt.Current_Directory>
/home/itssahil/PROJECTS/Mol_Feturizer/New_Systems/rnas/4LVZ

>  <Rbt.Executable>
rbdock ($Id: //depot/dev/client3/rdock/2013.1/src/exe/rbdock.cxx#4 $)

>  <Rbt.Library>
libRbt.so (2013.1, Build901 2013/11/27)

>  <Rbt.Parameter_File>
/export/apps/rDock/src/rDock_2013.1_src/data/scripts/dock_solv.prm

>  <Rbt.Receptor>
prm/blind_docking_80.prm

>  <SCORE>
-9.04125

>  <SCORE.INTER>
-9.04125

>  <SCORE.INTER.CONST>
1

>  <SCORE.INTER.POLAR>
0

>  <SCORE.INTER.ROT>
0

>  <SCORE.INTER.SOLV>
8.7774

>  <SCORE.INTER.VDW>
-12.5533

>  <SCORE.INTER.norm>
-0.821932

>  <SCORE.INTRA>
0

>  <SCORE.INTRA.DIHEDRAL>
0

>  <SCORE.INTRA.DIHEDRAL.0>
0

>  <SCORE.INTRA.POLAR>
0

>  <SCORE.INTRA.POLAR.0>
0

>  <SCORE.INTRA.REPUL>
0

>  <SCORE.INTRA.REPUL.0>
0

>  <SCORE.INTRA.SOLV>
0

>  <SCORE.INTRA.SOLV.lig_0>
-49.4056

>  <SCORE.INTRA.VDW>
0

>  <SCORE.INTRA.VDW.0>
0

>  <SCORE.INTRA.norm>
0

>  <SCORE.RESTR>
0

>  <SCORE.RESTR.CAVITY>
0

>  <SCORE.RESTR.norm>
0

>  <SCORE.SYSTEM>
0

>  <SCORE.SYSTEM.CONST>
0

>  <SCORE.SYSTEM.DIHEDRAL>
0

>  <SCORE.SYSTEM.SOLV>
0

>  <SCORE.SYSTEM.norm>
0

>  <SCORE.heavy>
11

>  <SCORE.norm>
-0.821932

>  <RMSD>
12.496

$$$$
ligand
 OpenBabel11021811503D
libRbt.so/2013.1/901 2013/11/27
 11 12  0  0  0  0  0  0  0  0999 V2000
   -7.4978  -26.4162   30.6692 N   0  0  0  0  0  0  0  0  0  0  0  0
   -6.1942  -26.2488   31.0027 C   0  0  0  0  0  0  0  0  0  0  0  0
   -5.7338  -25.0139   31.5640 N   0  0  0  0  0  0  0  0  0  0  0  0
   -5.3022  -27.2364   30.8087 N   0  0  0  0  0  0  0  0  0  0  0  0
   -5.6819  -28.4468   30.2736 C   0  0  0  0  0  0  0  0  0  0  0  0
   -7.0046  -28.6442   29.9217 C   0  0  0  0  0  0  0  0  0  0  0  0
   -7.9295  -27.5784   30.1326 C   0  0  0  0  0  0  0  0  0  0  0  0
   -9.3055  -27.7480   29.7778 N   0  0  0  0  0  0  0  0  0  0  0  0
   -7.0932  -29.9272   29.4158 N   0  0  0  0  0  0  0  0  0  0  0  0
   -5.8703  -30.4939   29.4495 C   0  0  0  0  0  0  0  0  0  0  0  0
   -4.9922  -29.6115   29.9667 N   0  0  0  0  0  0  0  0  0  0  0  0
  1  7  2  0  0  0  0
  1  2  1  0  0  0  0
  2  3  1  0  0  0  0
  2  4  2  0  0  0  0
  4  5  1  0  0  0  0
  5  6  2  0  0  0  0
  5 11  1  0  0  0  0
  6  7  1  0  0  0  0
  6  9  1  0  0  0  0
  7  8  1  0  0  0  0
  9 10  1  0  0  0  0
 10 11  2  0  0  0  0
M  END
>  <CHROM.1>
-6.60493857,-27.91873928,30.27909098,1.61762124,-0.19206500,0.36386188

>  <Name>
ligand

>  <RI>
0

>  <Rbt.Current_Directory>
/home/itssahil/PROJECTS/Mol_Feturizer/New_Systems/rnas/4LVZ

>  <Rbt.Executable>
rbdock ($Id: //depot/dev/client3/rdock/2013.1/src/exe/rbdock.cxx#4 $)

>  <Rbt.Library>
libRbt.so (2013.1, Build901 2013/11/27)

>  <Rbt.Parameter_File>
/export/apps/rDock/src/rDock_2013.1_src/data/scripts/dock_solv.prm

>  <Rbt.Receptor>
prm/blind_docking_80.prm

>  <SCORE>
-9.01911

>  <SCORE.INTER>
-9.01911

>  <SCORE.INTER.CONST>
1

>  <SCORE.INTER.POLAR>
0

>  <SCORE.INTER.ROT>
0

>  <SCORE.INTER.SOLV>
9.00737

>  <SCORE.INTER.VDW>
-12.6152

>  <SCORE.INTER.norm>
-0.819919

>  <SCORE.INTRA>
0

>  <SCORE.INTRA.DIHEDRAL>
0

>  <SCORE.INTRA.DIHEDRAL.0>
0

>  <SCORE.INTRA.POLAR>
0

>  <SCORE.INTRA.POLAR.0>
0

>  <SCORE.INTRA.REPUL>
0

>  <SCORE.INTRA.REPUL.0>
0

>  <SCORE.INTRA.SOLV>
0

>  <SCORE.INTRA.SOLV.lig_0>
-49.4056

>  <SCORE.INTRA.VDW>
0

>  <SCORE.INTRA.VDW.0>
0

>  <SCORE.INTRA.norm>
0

>  <SCORE.RESTR>
0

>  <SCORE.RESTR.CAVITY>
0

>  <SCORE.RESTR.norm>
0

>  <SCORE.SYSTEM>
0

>  <SCORE.SYSTEM.CONST>
0

>  <SCORE.SYSTEM.DIHEDRAL>
0

>  <SCORE.SYSTEM.SOLV>
0

>  <SCORE.SYSTEM.norm>
0

>  <SCORE.heavy>
11

>  <SCORE.norm>
-0.819919

>  <RMSD>
12.500

$$$$
ligand
 OpenBabel11021811503D
libRbt.so/2013.1/901 2013/11/27
 11 12  0  0  0  0  0  0  0  0999 V2000
   -7.5218  -26.4095   30.6371 N   0  0  0  0  0  0  0  0  0  0  0  0
   -6.2175  -26.2592   30.9757 C   0  0  0  0  0  0  0  0  0  0  0  0
   -5.7466  -25.0368   31.5555 N   0  0  0  0  0  0  0  0  0  0  0  0
   -5.3344  -27.2524   30.7696 N   0  0  0  0  0  0  0  0  0  0  0  0
   -5.7244  -28.4514   30.2166 C   0  0  0  0  0  0  0  0  0  0  0  0
   -7.0481  -28.6313   29.8591 C   0  0  0  0  0  0  0  0  0  0  0  0
   -7.9633  -27.5598   30.0832 C   0  0  0  0  0  0  0  0  0  0  0  0
   -9.3401  -27.7112   29.7232 N   0  0  0  0  0  0  0  0  0  0  0  0
   -7.1477  -29.9060   29.3349 N   0  0  0  0  0  0  0  0  0  0  0  0
   -5.9303  -30.4847   29.3631 C   0  0  0  0  0  0  0  0  0  0  0  0
   -5.0451  -29.6182   29.8945 N   0  0  0  0  0  0  0  0  0  0  0  0
  1  7  2  0  0  0  0
  1  2  1  0  0  0  0
  2  3  1  0  0  0  0
  2  4  2  0  0  0  0
  4  5  1  0  0  0  0
  5  6  2  0  0  0  0
  5 11  1  0  0  0  0
  6  7  1  0  0  0  0
  6  9  1  0  0  0  0
  7  8  1  0  0  0  0
  9 10  1  0  0  0  0
 10 11  2  0  0  0  0
M  END
>  <CHROM.1>
-6.64236877,-27.91473420,30.22761950,1.60938923,-0.19750225,0.37645078

>  <Name>
ligand

>  <RI>
0

>  <Rbt.Current_Directory>
/home/itssahil/PROJECTS/Mol_Feturizer/New_Systems/rnas/4LVZ

>  <Rbt.Executable>
rbdock ($Id: //depot/dev/client3/rdock/2013.1/src/exe/rbdock.cxx#4 $)

>  <Rbt.Library>
libRbt.so (2013.1, Build901 2013/11/27)

>  <Rbt.Parameter_File>
/export/apps/rDock/src/rDock_2013.1_src/data/scripts/dock_solv.prm

>  <Rbt.Receptor>
prm/blind_docking_80.prm

>  <SCORE>
-9.01675

>  <SCORE.INTER>
-9.01675

>  <SCORE.INTER.CONST>
1

>  <SCORE.INTER.POLAR>
0

>  <SCORE.INTER.ROT>
0

>  <SCORE.INTER.SOLV>
9.11159

>  <SCORE.INTER.VDW>
-12.6484

>  <SCORE.INTER.norm>
-0.819705

>  <SCORE.INTRA>
0

>  <SCORE.INTRA.DIHEDRAL>
0

>  <SCORE.INTRA.DIHEDRAL.0>
0

>  <SCORE.INTRA.POLAR>
0

>  <SCORE.INTRA.POLAR.0>
0

>  <SCORE.INTRA.REPUL>
0

>  <SCORE.INTRA.REPUL.0>
0

>  <SCORE.INTRA.SOLV>
0

>  <SCORE.INTRA.SOLV.lig_0>
-49.4056

>  <SCORE.INTRA.VDW>
0

>  <SCORE.INTRA.VDW.0>
0

>  <SCORE.INTRA.norm>
0

>  <SCORE.RESTR>
0

>  <SCORE.RESTR.CAVITY>
0

>  <SCORE.RESTR.norm>
0

>  <SCORE.SYSTEM>
0

>  <SCORE.SYSTEM.CONST>
0

>  <SCORE.SYSTEM.DIHEDRAL>
0

>  <SCORE.SYSTEM.SOLV>
0

>  <SCORE.SYSTEM.norm>
0

>  <SCORE.heavy>
11

>  <SCORE.norm>
-0.819705

>  <RMSD>
12.505

$$$$
ligand
 OpenBabel11021811503D
libRbt.so/2013.1/901 2013/11/27
 11 12  0  0  0  0  0  0  0  0999 V2000
   -7.5141  -26.4211   30.6750 N   0  0  0  0  0  0  0  0  0  0  0  0
   -6.2042  -26.2626   30.9873 C   0  0  0  0  0  0  0  0  0  0  0  0
   -5.7282  -25.0346   31.5507 N   0  0  0  0  0  0  0  0  0  0  0  0
   -5.3204  -27.2527   30.7696 N   0  0  0  0  0  0  0  0  0  0  0  0
   -5.7152  -28.4568   30.2312 C   0  0  0  0  0  0  0  0  0  0  0  0
   -7.0447  -28.6451   29.9007 C   0  0  0  0  0  0  0  0  0  0  0  0
   -7.9607  -27.5768   30.1364 C   0  0  0  0  0  0  0  0  0  0  0  0
   -9.3434  -27.7369   29.8042 N   0  0  0  0  0  0  0  0  0  0  0  0
   -7.1482  -29.9233   29.3857 N   0  0  0  0  0  0  0  0  0  0  0  0
   -5.9277  -30.4959   29.3935 C   0  0  0  0  0  0  0  0  0  0  0  0
   -5.0365  -29.6221   29.9026 N   0  0  0  0  0  0  0  0  0  0  0  0
  1  7  2  0  0  0  0
  1  2  1  0  0  0  0
  2  3  1  0  0  0  0
  2  4  2  0  0  0  0
  4  5  1  0  0  0  0
  5  6  2  0  0  0  0
  5 11  1  0  0  0  0
  6  7  1  0  0  0  0
  6  9  1  0  0  0  0
  7  8  1  0  0  0  0
  9 10  1  0  0  0  0
 10 11  2  0  0  0  0
M  END
>  <CHROM.1>
-6.63541136,-27.92445891,30.25705260,1.60677088,-0.17755031,0.37021075

>  <Name>
ligand

>  <RI>
0

>  <Rbt.Current_Directory>
/home/itssahil/PROJECTS/Mol_Feturizer/New_Systems/rnas/4LVZ

>  <Rbt.Executable>
rbdock ($Id: //depot/dev/client3/rdock/2013.1/src/exe/rbdock.cxx#4 $)

>  <Rbt.Library>
libRbt.so (2013.1, Build901 2013/11/27)

>  <Rbt.Parameter_File>
/export/apps/rDock/src/rDock_2013.1_src/data/scripts/dock_solv.prm

>  <Rbt.Receptor>
prm/blind_docking_100.prm

>  <SCORE>
-9.05148

>  <SCORE.INTER>
-9.05148

>  <SCORE.INTER.CONST>
1

>  <SCORE.INTER.POLAR>
0

>  <SCORE.INTER.ROT>
0

>  <SCORE.INTER.SOLV>
8.908

>  <SCORE.INTER.VDW>
-12.6036

>  <SCORE.INTER.norm>
-0.822861

>  <SCORE.INTRA>
0

>  <SCORE.INTRA.DIHEDRAL>
0

>  <SCORE.INTRA.DIHEDRAL.0>
0

>  <SCORE.INTRA.POLAR>
0

>  <SCORE.INTRA.POLAR.0>
0

>  <SCORE.INTRA.REPUL>
0

>  <SCORE.INTRA.REPUL.0>
0

>  <SCORE.INTRA.SOLV>
0

>  <SCORE.INTRA.SOLV.lig_0>
-49.4056

>  <SCORE.INTRA.VDW>
0

>  <SCORE.INTRA.VDW.0>
0

>  <SCORE.INTRA.norm>
0

>  <SCORE.RESTR>
0

>  <SCORE.RESTR.CAVITY>
0

>  <SCORE.RESTR.norm>
0

>  <SCORE.SYSTEM>
0

>  <SCORE.SYSTEM.CONST>
0

>  <SCORE.SYSTEM.DIHEDRAL>
0

>  <SCORE.SYSTEM.SOLV>
0

>  <SCORE.SYSTEM.norm>
0

>  <SCORE.heavy>
11

>  <SCORE.norm>
-0.822861

>  <RMSD>
12.517

$$$$
ligand
 OpenBabel11021811503D
libRbt.so/2013.1/901 2013/11/27
 11 12  0  0  0  0  0  0  0  0999 V2000
   -7.5021  -26.4325   30.7217 N   0  0  0  0  0  0  0  0  0  0  0  0
   -6.2006  -26.2684   31.0646 C   0  0  0  0  0  0  0  0  0  0  0  0
   -5.7446  -25.0411   31.6458 N   0  0  0  0  0  0  0  0  0  0  0  0
   -5.3063  -27.2522   30.8615 N   0  0  0  0  0  0  0  0  0  0  0  0
   -5.6817  -28.4553   30.3073 C   0  0  0  0  0  0  0  0  0  0  0  0
   -7.0023  -28.6492   29.9455 C   0  0  0  0  0  0  0  0  0  0  0  0
   -7.9296  -27.5875   30.1664 C   0  0  0  0  0  0  0  0  0  0  0  0
   -9.3034  -27.7535   29.8019 N   0  0  0  0  0  0  0  0  0  0  0  0
   -7.0866  -29.9250   29.4210 N   0  0  0  0  0  0  0  0  0  0  0  0
   -5.8633  -30.4907   29.4533 C   0  0  0  0  0  0  0  0  0  0  0  0
   -4.9890  -29.6148   29.9876 N   0  0  0  0  0  0  0  0  0  0  0  0
  1  7  2  0  0  0  0
  1  2  1  0  0  0  0
  2  3  1  0  0  0  0
  2  4  2  0  0  0  0
  4  5  1  0  0  0  0
  5  6  2  0  0  0  0
  5 11  1  0  0  0  0
  6  7  1  0  0  0  0
  6  9  1  0  0  0  0
  7  8  1  0  0  0  0
  9 10  1  0  0  0  0
 10 11  2  0  0  0  0
M  END
>  <CHROM.1>
-6.60540142,-27.92839520,30.31521568,1.62069183,-0.19666255,0.37859404

>  <Name>
ligand

>  <RI>
0

>  <Rbt.Current_Directory>
/home/itssahil/PROJECTS/Mol_Feturizer/New_Systems/rnas/4LVZ

>  <Rbt.Executable>
rbdock ($Id: //depot/dev/client3/rdock/2013.1/src/exe/rbdock.cxx#4 $)

>  <Rbt.Library>
libRbt.so (2013.1, Build901 2013/11/27)

>  <Rbt.Parameter_File>
/export/apps/rDock/src/rDock_2013.1_src/data/scripts/dock_solv.prm

>  <Rbt.Receptor>
prm/blind_docking_100.prm

>  <SCORE>
-8.98379

>  <SCORE.INTER>
-8.98379

>  <SCORE.INTER.CONST>
1

>  <SCORE.INTER.POLAR>
0

>  <SCORE.INTER.ROT>
0

>  <SCORE.INTER.SOLV>
8.53114

>  <SCORE.INTER.VDW>
-12.4329

>  <SCORE.INTER.norm>
-0.816709

>  <SCORE.INTRA>
0

>  <SCORE.INTRA.DIHEDRAL>
0

>  <SCORE.INTRA.DIHEDRAL.0>
0

>  <SCORE.INTRA.POLAR>
0

>  <SCORE.INTRA.POLAR.0>
0

>  <SCORE.INTRA.REPUL>
0

>  <SCORE.INTRA.REPUL.0>
0

>  <SCORE.INTRA.SOLV>
0

>  <SCORE.INTRA.SOLV.lig_0>
-49.4056

>  <SCORE.INTRA.VDW>
0

>  <SCORE.INTRA.VDW.0>
0

>  <SCORE.INTRA.norm>
0

>  <SCORE.RESTR>
0

>  <SCORE.RESTR.CAVITY>
0

>  <SCORE.RESTR.norm>
0

>  <SCORE.SYSTEM>
0

>  <SCORE.SYSTEM.CONST>
0

>  <SCORE.SYSTEM.DIHEDRAL>
0

>  <SCORE.SYSTEM.SOLV>
0

>  <SCORE.SYSTEM.norm>
0

>  <SCORE.heavy>
11

>  <SCORE.norm>
-0.816709

>  <RMSD>
12.517

$$$$
ligand
 OpenBabel11021811503D
libRbt.so/2013.1/901 2013/11/27
 11 12  0  0  0  0  0  0  0  0999 V2000
   -7.5050  -26.4180   30.7202 N   0  0  0  0  0  0  0  0  0  0  0  0
   -6.1953  -26.2790   31.0426 C   0  0  0  0  0  0  0  0  0  0  0  0
   -5.7112  -25.0695   31.6382 N   0  0  0  0  0  0  0  0  0  0  0  0
   -5.3192  -27.2715   30.8051 N   0  0  0  0  0  0  0  0  0  0  0  0
   -5.7220  -28.4585   30.2356 C   0  0  0  0  0  0  0  0  0  0  0  0
   -7.0515  -28.6266   29.8940 C   0  0  0  0  0  0  0  0  0  0  0  0
   -7.9591  -27.5561   30.1513 C   0  0  0  0  0  0  0  0  0  0  0  0
   -9.3414  -27.6956   29.8085 N   0  0  0  0  0  0  0  0  0  0  0  0
   -7.1638  -29.8910   29.3475 N   0  0  0  0  0  0  0  0  0  0  0  0
   -5.9484  -30.4746   29.3473 C   0  0  0  0  0  0  0  0  0  0  0  0
   -5.0521  -29.6215   29.8819 N   0  0  0  0  0  0  0  0  0  0  0  0
  1  7  2  0  0  0  0
  1  2  1  0  0  0  0
  2  3  1  0  0  0  0
  2  4  2  0  0  0  0
  4  5  1  0  0  0  0
  5  6  2  0  0  0  0
  5 11  1  0  0  0  0
  6  7  1  0  0  0  0
  6  9  1  0  0  0  0
  7  8  1  0  0  0  0
  9 10  1  0  0  0  0
 10 11  2  0  0  0  0
M  END
>  <CHROM.1>
-6.63758918,-27.91866799,30.26990959,1.60019281,-0.18555440,0.39341494

>  <Name>
ligand

>  <RI>
0

>  <Rbt.Current_Directory>
/home/itssahil/PROJECTS/Mol_Feturizer/New_Systems/rnas/4LVZ

>  <Rbt.Executable>
rbdock ($Id: //depot/dev/client3/rdock/2013.1/src/exe/rbdock.cxx#4 $)

>  <Rbt.Library>
libRbt.so (2013.1, Build901 2013/11/27)

>  <Rbt.Parameter_File>
/export/apps/rDock/src/rDock_2013.1_src/data/scripts/dock_solv.prm

>  <Rbt.Receptor>
prm/blind_docking_80.prm

>  <SCORE>
-9.04048

>  <SCORE.INTER>
-9.04048

>  <SCORE.INTER.CONST>
1

>  <SCORE.INTER.POLAR>
0

>  <SCORE.INTER.ROT>
0

>  <SCORE.INTER.SOLV>
8.53891

>  <SCORE.INTER.VDW>
-12.4733

>  <SCORE.INTER.norm>
-0.821862

>  <SCORE.INTRA>
0

>  <SCORE.INTRA.DIHEDRAL>
0

>  <SCORE.INTRA.DIHEDRAL.0>
0

>  <SCORE.INTRA.POLAR>
0

>  <SCORE.INTRA.POLAR.0>
0

>  <SCORE.INTRA.REPUL>
0

>  <SCORE.INTRA.REPUL.0>
0

>  <SCORE.INTRA.SOLV>
0

>  <SCORE.INTRA.SOLV.lig_0>
-49.4056

>  <SCORE.INTRA.VDW>
0

>  <SCORE.INTRA.VDW.0>
0

>  <SCORE.INTRA.norm>
0

>  <SCORE.RESTR>
0

>  <SCORE.RESTR.CAVITY>
0

>  <SCORE.RESTR.norm>
0

>  <SCORE.SYSTEM>
0

>  <SCORE.SYSTEM.CONST>
0

>  <SCORE.SYSTEM.DIHEDRAL>
0

>  <SCORE.SYSTEM.SOLV>
0

>  <SCORE.SYSTEM.norm>
0

>  <SCORE.heavy>
11

>  <SCORE.norm>
-0.821862

>  <RMSD>
12.517

$$$$
ligand
 OpenBabel11021811503D
libRbt.so/2013.1/901 2013/11/27
 11 12  0  0  0  0  0  0  0  0999 V2000
   -7.4992  -26.4218   30.7306 N   0  0  0  0  0  0  0  0  0  0  0  0
   -6.1884  -26.2814   31.0480 C   0  0  0  0  0  0  0  0  0  0  0  0
   -5.7029  -25.0706   31.6398 N   0  0  0  0  0  0  0  0  0  0  0  0
   -5.3125  -27.2737   30.8089 N   0  0  0  0  0  0  0  0  0  0  0  0
   -5.7166  -28.4618   30.2427 C   0  0  0  0  0  0  0  0  0  0  0  0
   -7.0472  -28.6315   29.9063 C   0  0  0  0  0  0  0  0  0  0  0  0
   -7.9545  -27.5611   30.1652 C   0  0  0  0  0  0  0  0  0  0  0  0
   -9.3381  -27.7021   29.8278 N   0  0  0  0  0  0  0  0  0  0  0  0
   -7.1606  -29.8967   29.3623 N   0  0  0  0  0  0  0  0  0  0  0  0
   -5.9449  -30.4796   29.3586 C   0  0  0  0  0  0  0  0  0  0  0  0
   -5.0472  -29.6250   29.8885 N   0  0  0  0  0  0  0  0  0  0  0  0
  1  7  2  0  0  0  0
  1  2  1  0  0  0  0
  2  3  1  0  0  0  0
  2  4  2  0  0  0  0
  4  5  1  0  0  0  0
  5  6  2  0  0  0  0
  5 11  1  0  0  0  0
  6  7  1  0  0  0  0
  6  9  1  0  0  0  0
  7  8  1  0  0  0  0
  9 10  1  0  0  0  0
 10 11  2  0  0  0  0
M  END
>  <CHROM.1>
-6.63239088,-27.92258945,30.27956892,1.59939901,-0.18190843,0.39165840

>  <Name>
ligand

>  <RI>
0

>  <Rbt.Current_Directory>
/home/itssahil/PROJECTS/Mol_Feturizer/New_Systems/rnas/4LVZ

>  <Rbt.Executable>
rbdock ($Id: //depot/dev/client3/rdock/2013.1/src/exe/rbdock.cxx#4 $)

>  <Rbt.Library>
libRbt.so (2013.1, Build901 2013/11/27)

>  <Rbt.Parameter_File>
/export/apps/rDock/src/rDock_2013.1_src/data/scripts/dock_solv.prm

>  <Rbt.Receptor>
prm/blind_docking_60.prm

>  <SCORE>
-9.03527

>  <SCORE.INTER>
-9.03527

>  <SCORE.INTER.CONST>
1

>  <SCORE.INTER.POLAR>
0

>  <SCORE.INTER.ROT>
0

>  <SCORE.INTER.SOLV>
8.48397

>  <SCORE.INTER.VDW>
-12.4515

>  <SCORE.INTER.norm>
-0.821389

>  <SCORE.INTRA>
0

>  <SCORE.INTRA.DIHEDRAL>
0

>  <SCORE.INTRA.DIHEDRAL.0>
0

>  <SCORE.INTRA.POLAR>
0

>  <SCORE.INTRA.POLAR.0>
0

>  <SCORE.INTRA.REPUL>
0

>  <SCORE.INTRA.REPUL.0>
0

>  <SCORE.INTRA.SOLV>
0

>  <SCORE.INTRA.SOLV.lig_0>
-49.4056

>  <SCORE.INTRA.VDW>
0

>  <SCORE.INTRA.VDW.0>
0

>  <SCORE.INTRA.norm>
0

>  <SCORE.RESTR>
0

>  <SCORE.RESTR.CAVITY>
0

>  <SCORE.RESTR.norm>
0

>  <SCORE.SYSTEM>
0

>  <SCORE.SYSTEM.CONST>
0

>  <SCORE.SYSTEM.DIHEDRAL>
0

>  <SCORE.SYSTEM.SOLV>
0

>  <SCORE.SYSTEM.norm>
0

>  <SCORE.heavy>
11

>  <SCORE.norm>
-0.821389

>  <RMSD>
12.520

$$$$
ligand
 OpenBabel11021811503D
libRbt.so/2013.1/901 2013/11/27
 11 12  0  0  0  0  0  0  0  0999 V2000
   -7.5065  -26.4383   30.7103 N   0  0  0  0  0  0  0  0  0  0  0  0
   -6.2016  -26.2850   31.0455 C   0  0  0  0  0  0  0  0  0  0  0  0
   -5.7346  -25.0664   31.6362 N   0  0  0  0  0  0  0  0  0  0  0  0
   -5.3144  -27.2716   30.8257 N   0  0  0  0  0  0  0  0  0  0  0  0
   -5.7005  -28.4667   30.2616 C   0  0  0  0  0  0  0  0  0  0  0  0
   -7.0247  -28.6495   29.9073 C   0  0  0  0  0  0  0  0  0  0  0  0
   -7.9444  -27.5850   30.1461 C   0  0  0  0  0  0  0  0  0  0  0  0
   -9.3217  -27.7396   29.7897 N   0  0  0  0  0  0  0  0  0  0  0  0
   -7.1200  -29.9192   29.3702 N   0  0  0  0  0  0  0  0  0  0  0  0
   -5.8996  -30.4920   29.3877 C   0  0  0  0  0  0  0  0  0  0  0  0
   -5.0167  -29.6266   29.9248 N   0  0  0  0  0  0  0  0  0  0  0  0
  1  7  2  0  0  0  0
  1  2  1  0  0  0  0
  2  3  1  0  0  0  0
  2  4  2  0  0  0  0
  4  5  1  0  0  0  0
  5  6  2  0  0  0  0
  5 11  1  0  0  0  0
  6  7  1  0  0  0  0
  6  9  1  0  0  0  0
  7  8  1  0  0  0  0
  9 10  1  0  0  0  0
 10 11  2  0  0  0  0
M  END
>  <CHROM.1>
-6.62113349,-27.93481081,30.28175990,1.61267131,-0.19208762,0.38753478

>  <Name>
ligand

>  <RI>
0

>  <Rbt.Current_Directory>
/home/itssahil/PROJECTS/Mol_Feturizer/New_Systems/rnas/4LVZ

>  <Rbt.Executable>
rbdock ($Id: //depot/dev/client3/rdock/2013.1/src/exe/rbdock.cxx#4 $)

>  <Rbt.Library>
libRbt.so (2013.1, Build901 2013/11/27)

>  <Rbt.Parameter_File>
/export/apps/rDock/src/rDock_2013.1_src/data/scripts/dock_solv.prm

>  <Rbt.Receptor>
prm/blind_docking_60.prm

>  <SCORE>
-9.0066

>  <SCORE.INTER>
-9.0066

>  <SCORE.INTER.CONST>
1

>  <SCORE.INTER.POLAR>
0

>  <SCORE.INTER.ROT>
0

>  <SCORE.INTER.SOLV>
8.52328

>  <SCORE.INTER.VDW>
-12.4455

>  <SCORE.INTER.norm>
-0.818782

>  <SCORE.INTRA>
0

>  <SCORE.INTRA.DIHEDRAL>
0

>  <SCORE.INTRA.DIHEDRAL.0>
0

>  <SCORE.INTRA.POLAR>
0

>  <SCORE.INTRA.POLAR.0>
0

>  <SCORE.INTRA.REPUL>
0

>  <SCORE.INTRA.REPUL.0>
0

>  <SCORE.INTRA.SOLV>
0

>  <SCORE.INTRA.SOLV.lig_0>
-49.4056

>  <SCORE.INTRA.VDW>
0

>  <SCORE.INTRA.VDW.0>
0

>  <SCORE.INTRA.norm>
0

>  <SCORE.RESTR>
0

>  <SCORE.RESTR.CAVITY>
0

>  <SCORE.RESTR.norm>
0

>  <SCORE.SYSTEM>
0

>  <SCORE.SYSTEM.CONST>
0

>  <SCORE.SYSTEM.DIHEDRAL>
0

>  <SCORE.SYSTEM.SOLV>
0

>  <SCORE.SYSTEM.norm>
0

>  <SCORE.heavy>
11

>  <SCORE.norm>
-0.818782

>  <RMSD>
12.521

$$$$
ligand
 OpenBabel11021811503D
libRbt.so/2013.1/901 2013/11/27
 11 12  0  0  0  0  0  0  0  0999 V2000
   -7.5022  -26.4335   30.7203 N   0  0  0  0  0  0  0  0  0  0  0  0
   -6.1931  -26.2806   31.0388 C   0  0  0  0  0  0  0  0  0  0  0  0
   -5.7174  -25.0605   31.6193 N   0  0  0  0  0  0  0  0  0  0  0  0
   -5.3097  -27.2689   30.8114 N   0  0  0  0  0  0  0  0  0  0  0  0
   -5.7042  -28.4656   30.2564 C   0  0  0  0  0  0  0  0  0  0  0  0
   -7.0329  -28.6480   29.9192 C   0  0  0  0  0  0  0  0  0  0  0  0
   -7.9483  -27.5817   30.1656 C   0  0  0  0  0  0  0  0  0  0  0  0
   -9.3302  -27.7358   29.8270 N   0  0  0  0  0  0  0  0  0  0  0  0
   -7.1363  -29.9195   29.3878 N   0  0  0  0  0  0  0  0  0  0  0  0
   -5.9164  -30.4937   29.3922 C   0  0  0  0  0  0  0  0  0  0  0  0
   -5.0259  -29.6275   29.9152 N   0  0  0  0  0  0  0  0  0  0  0  0
  1  7  2  0  0  0  0
  1  2  1  0  0  0  0
  2  3  1  0  0  0  0
  2  4  2  0  0  0  0
  4  5  1  0  0  0  0
  5  6  2  0  0  0  0
  5 11  1  0  0  0  0
  6  7  1  0  0  0  0
  6  9  1  0  0  0  0
  7  8  1  0  0  0  0
  9 10  1  0  0  0  0
 10 11  2  0  0  0  0
M  END
>  <CHROM.1>
-6.62389400,-27.93252280,30.28610197,1.60683458,-0.18101700,0.38293826

>  <Name>
ligand

>  <RI>
0

>  <Rbt.Current_Directory>
/home/itssahil/PROJECTS/Mol_Feturizer/New_Systems/rnas/4LVZ

>  <Rbt.Executable>
rbdock ($Id: //depot/dev/client3/rdock/2013.1/src/exe/rbdock.cxx#4 $)

>  <Rbt.Library>
libRbt.so (2013.1, Build901 2013/11/27)

>  <Rbt.Parameter_File>
/export/apps/rDock/src/rDock_2013.1_src/data/scripts/dock_solv.prm

>  <Rbt.Receptor>
prm/blind_docking_60.prm

>  <SCORE>
-9.02445

>  <SCORE.INTER>
-9.02445

>  <SCORE.INTER.CONST>
1

>  <SCORE.INTER.POLAR>
0

>  <SCORE.INTER.ROT>
0

>  <SCORE.INTER.SOLV>
8.52243

>  <SCORE.INTER.VDW>
-12.4571

>  <SCORE.INTER.norm>
-0.820405

>  <SCORE.INTRA>
0

>  <SCORE.INTRA.DIHEDRAL>
0

>  <SCORE.INTRA.DIHEDRAL.0>
0

>  <SCORE.INTRA.POLAR>
0

>  <SCORE.INTRA.POLAR.0>
0

>  <SCORE.INTRA.REPUL>
0

>  <SCORE.INTRA.REPUL.0>
0

>  <SCORE.INTRA.SOLV>
0

>  <SCORE.INTRA.SOLV.lig_0>
-49.4056

>  <SCORE.INTRA.VDW>
0

>  <SCORE.INTRA.VDW.0>
0

>  <SCORE.INTRA.norm>
0

>  <SCORE.RESTR>
0

>  <SCORE.RESTR.CAVITY>
0

>  <SCORE.RESTR.norm>
0

>  <SCORE.SYSTEM>
0

>  <SCORE.SYSTEM.CONST>
0

>  <SCORE.SYSTEM.DIHEDRAL>
0

>  <SCORE.SYSTEM.SOLV>
0

>  <SCORE.SYSTEM.norm>
0

>  <SCORE.heavy>
11

>  <SCORE.norm>
-0.820405

>  <RMSD>
12.523

$$$$
ligand
 OpenBabel11021811503D
libRbt.so/2013.1/901 2013/11/27
 11 12  0  0  0  0  0  0  0  0999 V2000
   -7.5154  -26.4231   30.7265 N   0  0  0  0  0  0  0  0  0  0  0  0
   -6.2048  -26.2802   31.0435 C   0  0  0  0  0  0  0  0  0  0  0  0
   -5.7219  -25.0692   31.6371 N   0  0  0  0  0  0  0  0  0  0  0  0
   -5.3268  -27.2701   30.8025 N   0  0  0  0  0  0  0  0  0  0  0  0
   -5.7284  -28.4583   30.2345 C   0  0  0  0  0  0  0  0  0  0  0  0
   -7.0587  -28.6304   29.8985 C   0  0  0  0  0  0  0  0  0  0  0  0
   -7.9684  -27.5626   30.1595 C   0  0  0  0  0  0  0  0  0  0  0  0
   -9.3518  -27.7061   29.8225 N   0  0  0  0  0  0  0  0  0  0  0  0
   -7.1695  -29.8950   29.3525 N   0  0  0  0  0  0  0  0  0  0  0  0
   -5.9524  -30.4751   29.3473 C   0  0  0  0  0  0  0  0  0  0  0  0
   -5.0565  -29.6193   29.8782 N   0  0  0  0  0  0  0  0  0  0  0  0
  1  7  2  0  0  0  0
  1  2  1  0  0  0  0
  2  3  1  0  0  0  0
  2  4  2  0  0  0  0
  4  5  1  0  0  0  0
  5  6  2  0  0  0  0
  5 11  1  0  0  0  0
  6  7  1  0  0  0  0
  6  9  1  0  0  0  0
  7  8  1  0  0  0  0
  9 10  1  0  0  0  0
 10 11  2  0  0  0  0
M  END
>  <CHROM.1>
-6.64539431,-27.92116116,30.27267618,1.60137189,-0.18060184,0.39362202

>  <Name>
ligand

>  <RI>
0

>  <Rbt.Current_Directory>
/home/itssahil/PROJECTS/Mol_Feturizer/New_Systems/rnas/4LVZ

>  <Rbt.Executable>
rbdock ($Id: //depot/dev/client3/rdock/2013.1/src/exe/rbdock.cxx#4 $)

>  <Rbt.Library>
libRbt.so (2013.1, Build901 2013/11/27)

>  <Rbt.Parameter_File>
/export/apps/rDock/src/rDock_2013.1_src/data/scripts/dock_solv.prm

>  <Rbt.Receptor>
prm/blind_docking_100.prm

>  <SCORE>
-9.04523

>  <SCORE.INTER>
-9.04523

>  <SCORE.INTER.CONST>
1

>  <SCORE.INTER.POLAR>
0

>  <SCORE.INTER.ROT>
0

>  <SCORE.INTER.SOLV>
8.47397

>  <SCORE.INTER.VDW>
-12.4548

>  <SCORE.INTER.norm>
-0.822294

>  <SCORE.INTRA>
0

>  <SCORE.INTRA.DIHEDRAL>
0

>  <SCORE.INTRA.DIHEDRAL.0>
0

>  <SCORE.INTRA.POLAR>
0

>  <SCORE.INTRA.POLAR.0>
0

>  <SCORE.INTRA.REPUL>
0

>  <SCORE.INTRA.REPUL.0>
0

>  <SCORE.INTRA.SOLV>
0

>  <SCORE.INTRA.SOLV.lig_0>
-49.4056

>  <SCORE.INTRA.VDW>
0

>  <SCORE.INTRA.VDW.0>
0

>  <SCORE.INTRA.norm>
0

>  <SCORE.RESTR>
0

>  <SCORE.RESTR.CAVITY>
0

>  <SCORE.RESTR.norm>
0

>  <SCORE.SYSTEM>
0

>  <SCORE.SYSTEM.CONST>
0

>  <SCORE.SYSTEM.DIHEDRAL>
0

>  <SCORE.SYSTEM.SOLV>
0

>  <SCORE.SYSTEM.norm>
0

>  <SCORE.heavy>
11

>  <SCORE.norm>
-0.822294

>  <RMSD>
12.526

$$$$
ligand
 OpenBabel11021811503D
libRbt.so/2013.1/901 2013/11/27
 11 12  0  0  0  0  0  0  0  0999 V2000
    4.3591  -26.5380   14.0906 N   0  0  0  0  0  0  0  0  0  0  0  0
    4.9060  -26.1461   15.2679 C   0  0  0  0  0  0  0  0  0  0  0  0
    6.3182  -26.2414   15.4880 N   0  0  0  0  0  0  0  0  0  0  0  0
    4.1343  -25.6643   16.2584 N   0  0  0  0  0  0  0  0  0  0  0  0
    2.7706  -25.5473   16.1087 C   0  0  0  0  0  0  0  0  0  0  0  0
    2.1856  -25.9421   14.9194 C   0  0  0  0  0  0  0  0  0  0  0  0
    3.0262  -26.4551   13.8869 C   0  0  0  0  0  0  0  0  0  0  0  0
    2.4538  -26.8747   12.6443 N   0  0  0  0  0  0  0  0  0  0  0  0
    0.8282  -25.7189   15.0518 N   0  0  0  0  0  0  0  0  0  0  0  0
    0.5879  -25.2126   16.2780 C   0  0  0  0  0  0  0  0  0  0  0  0
    1.7552  -25.0998   16.9425 N   0  0  0  0  0  0  0  0  0  0  0  0
  1  7  2  0  0  0  0
  1  2  1  0  0  0  0
  2  3  1  0  0  0  0
  2  4  2  0  0  0  0
  4  5  1  0  0  0  0
  5  6  2  0  0  0  0
  5 11  1  0  0  0  0
  6  7  1  0  0  0  0
  6  9  1  0  0  0  0
  7  8  1  0  0  0  0
  9 10  1  0  0  0  0
 10 11  2  0  0  0  0
M  END
>  <CHROM.1>
3.05271226,-25.95524283,15.16800317,0.26073177,0.11613480,-1.94469244

>  <Name>
ligand

>  <RI>
0

>  <Rbt.Current_Directory>
/home/itssahil/PROJECTS/Mol_Feturizer/New_Systems/rnas/4LVZ

>  <Rbt.Executable>
rbdock ($Id: //depot/dev/client3/rdock/2013.1/src/exe/rbdock.cxx#4 $)

>  <Rbt.Library>
libRbt.so (2013.1, Build901 2013/11/27)

>  <Rbt.Parameter_File>
/export/apps/rDock/src/rDock_2013.1_src/data/scripts/dock_solv.prm

>  <Rbt.Receptor>
prm/blind_docking_100.prm

>  <SCORE>
-7.99247

>  <SCORE.INTER>
-7.99247

>  <SCORE.INTER.CONST>
1

>  <SCORE.INTER.POLAR>
0

>  <SCORE.INTER.ROT>
0

>  <SCORE.INTER.SOLV>
9.59015

>  <SCORE.INTER.VDW>
-12.125

>  <SCORE.INTER.norm>
-0.726588

>  <SCORE.INTRA>
0

>  <SCORE.INTRA.DIHEDRAL>
0

>  <SCORE.INTRA.DIHEDRAL.0>
0

>  <SCORE.INTRA.POLAR>
0

>  <SCORE.INTRA.POLAR.0>
0

>  <SCORE.INTRA.REPUL>
0

>  <SCORE.INTRA.REPUL.0>
0

>  <SCORE.INTRA.SOLV>
0

>  <SCORE.INTRA.SOLV.lig_0>
-49.4056

>  <SCORE.INTRA.VDW>
0

>  <SCORE.INTRA.VDW.0>
0

>  <SCORE.INTRA.norm>
0

>  <SCORE.RESTR>
0

>  <SCORE.RESTR.CAVITY>
0

>  <SCORE.RESTR.norm>
0

>  <SCORE.SYSTEM>
0

>  <SCORE.SYSTEM.CONST>
0

>  <SCORE.SYSTEM.DIHEDRAL>
0

>  <SCORE.SYSTEM.SOLV>
0

>  <SCORE.SYSTEM.norm>
0

>  <SCORE.heavy>
11

>  <SCORE.norm>
-0.726588

>  <RMSD>
12.549

$$$$
ligand
 OpenBabel11021811503D
libRbt.so/2013.1/901 2013/11/27
 11 12  0  0  0  0  0  0  0  0999 V2000
    4.3851  -26.5393   14.0487 N   0  0  0  0  0  0  0  0  0  0  0  0
    4.9382  -26.2000   15.2394 C   0  0  0  0  0  0  0  0  0  0  0  0
    6.3479  -26.3311   15.4569 N   0  0  0  0  0  0  0  0  0  0  0  0
    4.1749  -25.7380   16.2457 N   0  0  0  0  0  0  0  0  0  0  0  0
    2.8140  -25.5886   16.0994 C   0  0  0  0  0  0  0  0  0  0  0  0
    2.2228  -25.9296   14.8967 C   0  0  0  0  0  0  0  0  0  0  0  0
    3.0544  -26.4226   13.8472 C   0  0  0  0  0  0  0  0  0  0  0  0
    2.4753  -26.7868   12.5902 N   0  0  0  0  0  0  0  0  0  0  0  0
    0.8700  -25.6842   15.0360 N   0  0  0  0  0  0  0  0  0  0  0  0
    0.6382  -25.2166   16.2791 C   0  0  0  0  0  0  0  0  0  0  0  0
    1.8067  -25.1506   16.9478 N   0  0  0  0  0  0  0  0  0  0  0  0
  1  7  2  0  0  0  0
  1  2  1  0  0  0  0
  2  3  1  0  0  0  0
  2  4  2  0  0  0  0
  4  5  1  0  0  0  0
  5  6  2  0  0  0  0
  5 11  1  0  0  0  0
  6  7  1  0  0  0  0
  6  9  1  0  0  0  0
  7  8  1  0  0  0  0
  9 10  1  0  0  0  0
 10 11  2  0  0  0  0
M  END
>  <CHROM.1>
3.08918170,-25.96879274,15.14513918,0.26684509,0.13514431,-1.91026710

>  <Name>
ligand

>  <RI>
0

>  <Rbt.Current_Directory>
/home/itssahil/PROJECTS/Mol_Feturizer/New_Systems/rnas/4LVZ

>  <Rbt.Executable>
rbdock ($Id: //depot/dev/client3/rdock/2013.1/src/exe/rbdock.cxx#4 $)

>  <Rbt.Library>
libRbt.so (2013.1, Build901 2013/11/27)

>  <Rbt.Parameter_File>
/export/apps/rDock/src/rDock_2013.1_src/data/scripts/dock_solv.prm

>  <Rbt.Receptor>
prm/blind_docking_100.prm

>  <SCORE>
-8.00933

>  <SCORE.INTER>
-8.00933

>  <SCORE.INTER.CONST>
1

>  <SCORE.INTER.POLAR>
0

>  <SCORE.INTER.ROT>
0

>  <SCORE.INTER.SOLV>
8.86386

>  <SCORE.INTER.VDW>
-11.8942

>  <SCORE.INTER.norm>
-0.728121

>  <SCORE.INTRA>
0

>  <SCORE.INTRA.DIHEDRAL>
0

>  <SCORE.INTRA.DIHEDRAL.0>
0

>  <SCORE.INTRA.POLAR>
0

>  <SCORE.INTRA.POLAR.0>
0

>  <SCORE.INTRA.REPUL>
0

>  <SCORE.INTRA.REPUL.0>
0

>  <SCORE.INTRA.SOLV>
0

>  <SCORE.INTRA.SOLV.lig_0>
-49.4056

>  <SCORE.INTRA.VDW>
0

>  <SCORE.INTRA.VDW.0>
0

>  <SCORE.INTRA.norm>
0

>  <SCORE.RESTR>
0

>  <SCORE.RESTR.CAVITY>
0

>  <SCORE.RESTR.norm>
0

>  <SCORE.SYSTEM>
0

>  <SCORE.SYSTEM.CONST>
0

>  <SCORE.SYSTEM.DIHEDRAL>
0

>  <SCORE.SYSTEM.SOLV>
0

>  <SCORE.SYSTEM.norm>
0

>  <SCORE.heavy>
11

>  <SCORE.norm>
-0.728121

>  <RMSD>
12.580

$$$$
ligand
 OpenBabel11021811503D
libRbt.so/2013.1/901 2013/11/27
 11 12  0  0  0  0  0  0  0  0999 V2000
    4.4807  -26.6935   14.1024 N   0  0  0  0  0  0  0  0  0  0  0  0
    5.0135  -26.2504   15.2679 C   0  0  0  0  0  0  0  0  0  0  0  0
    6.4227  -26.3371   15.5097 N   0  0  0  0  0  0  0  0  0  0  0  0
    4.2301  -25.7245   16.2264 N   0  0  0  0  0  0  0  0  0  0  0  0
    2.8686  -25.6131   16.0546 C   0  0  0  0  0  0  0  0  0  0  0  0
    2.2979  -26.0596   14.8768 C   0  0  0  0  0  0  0  0  0  0  0  0
    3.1506  -26.6185   13.8785 C   0  0  0  0  0  0  0  0  0  0  0  0
    2.5931  -27.0922   12.6486 N   0  0  0  0  0  0  0  0  0  0  0  0
    0.9393  -25.8297   14.9822 N   0  0  0  0  0  0  0  0  0  0  0  0
    0.6844  -25.2694   16.1817 C   0  0  0  0  0  0  0  0  0  0  0  0
    1.8436  -25.1283   16.8550 N   0  0  0  0  0  0  0  0  0  0  0  0
  1  7  2  0  0  0  0
  1  2  1  0  0  0  0
  2  3  1  0  0  0  0
  2  4  2  0  0  0  0
  4  5  1  0  0  0  0
  5  6  2  0  0  0  0
  5 11  1  0  0  0  0
  6  7  1  0  0  0  0
  6  9  1  0  0  0  0
  7  8  1  0  0  0  0
  9 10  1  0  0  0  0
 10 11  2  0  0  0  0
M  END
>  <CHROM.1>
3.16185090,-26.06253950,15.13650321,0.24956444,0.12198854,-1.98760265

>  <Name>
ligand

>  <RI>
0

>  <Rbt.Current_Directory>
/home/itssahil/PROJECTS/Mol_Feturizer/New_Systems/rnas/4LVZ

>  <Rbt.Executable>
rbdock ($Id: //depot/dev/client3/rdock/2013.1/src/exe/rbdock.cxx#4 $)

>  <Rbt.Library>
libRbt.so (2013.1, Build901 2013/11/27)

>  <Rbt.Parameter_File>
/export/apps/rDock/src/rDock_2013.1_src/data/scripts/dock_solv.prm

>  <Rbt.Receptor>
prm/blind_docking_80.prm

>  <SCORE>
-8.03757

>  <SCORE.INTER>
-8.03757

>  <SCORE.INTER.CONST>
1

>  <SCORE.INTER.POLAR>
0

>  <SCORE.INTER.ROT>
0

>  <SCORE.INTER.SOLV>
9.10646

>  <SCORE.INTER.VDW>
-11.9939

>  <SCORE.INTER.norm>
-0.730688

>  <SCORE.INTRA>
0

>  <SCORE.INTRA.DIHEDRAL>
0

>  <SCORE.INTRA.DIHEDRAL.0>
0

>  <SCORE.INTRA.POLAR>
0

>  <SCORE.INTRA.POLAR.0>
0

>  <SCORE.INTRA.REPUL>
0

>  <SCORE.INTRA.REPUL.0>
0

>  <SCORE.INTRA.SOLV>
0

>  <SCORE.INTRA.SOLV.lig_0>
-49.4056

>  <SCORE.INTRA.VDW>
0

>  <SCORE.INTRA.VDW.0>
0

>  <SCORE.INTRA.norm>
0

>  <SCORE.RESTR>
0

>  <SCORE.RESTR.CAVITY>
0

>  <SCORE.RESTR.norm>
0

>  <SCORE.SYSTEM>
0

>  <SCORE.SYSTEM.CONST>
0

>  <SCORE.SYSTEM.DIHEDRAL>
0

>  <SCORE.SYSTEM.SOLV>
0

>  <SCORE.SYSTEM.norm>
0

>  <SCORE.heavy>
11

>  <SCORE.norm>
-0.730688

>  <RMSD>
12.634

$$$$
ligand
 OpenBabel11021811503D
libRbt.so/2013.1/901 2013/11/27
 11 12  0  0  0  0  0  0  0  0999 V2000
    4.1273  -26.6620   13.9273 N   0  0  0  0  0  0  0  0  0  0  0  0
    4.7044  -26.3656   15.1180 C   0  0  0  0  0  0  0  0  0  0  0  0
    6.1107  -26.5518   15.3176 N   0  0  0  0  0  0  0  0  0  0  0  0
    3.9688  -25.8956   16.1411 N   0  0  0  0  0  0  0  0  0  0  0  0
    2.6129  -25.6944   16.0124 C   0  0  0  0  0  0  0  0  0  0  0  0
    1.9974  -25.9908   14.8101 C   0  0  0  0  0  0  0  0  0  0  0  0
    2.7997  -26.4935   13.7426 C   0  0  0  0  0  0  0  0  0  0  0  0
    2.1949  -26.8126   12.4854 N   0  0  0  0  0  0  0  0  0  0  0  0
    0.6558  -25.6994   14.9687 N   0  0  0  0  0  0  0  0  0  0  0  0
    0.4539  -25.2475   16.2228 C   0  0  0  0  0  0  0  0  0  0  0  0
    1.6308  -25.2365   16.8798 N   0  0  0  0  0  0  0  0  0  0  0  0
  1  7  2  0  0  0  0
  1  2  1  0  0  0  0
  2  3  1  0  0  0  0
  2  4  2  0  0  0  0
  4  5  1  0  0  0  0
  5  6  2  0  0  0  0
  5 11  1  0  0  0  0
  6  7  1  0  0  0  0
  6  9  1  0  0  0  0
  7  8  1  0  0  0  0
  9 10  1  0  0  0  0
 10 11  2  0  0  0  0
M  END
>  <CHROM.1>
2.86421209,-26.06604448,15.04828211,0.28891444,0.16597051,-1.89473051

>  <Name>
ligand

>  <RI>
0

>  <Rbt.Current_Directory>
/home/itssahil/PROJECTS/Mol_Feturizer/New_Systems/rnas/4LVZ

>  <Rbt.Executable>
rbdock ($Id: //depot/dev/client3/rdock/2013.1/src/exe/rbdock.cxx#4 $)

>  <Rbt.Library>
libRbt.so (2013.1, Build901 2013/11/27)

>  <Rbt.Parameter_File>
/export/apps/rDock/src/rDock_2013.1_src/data/scripts/dock_solv.prm

>  <Rbt.Receptor>
prm/blind_docking_100.prm

>  <SCORE>
-7.98676

>  <SCORE.INTER>
-7.98676

>  <SCORE.INTER.CONST>
1

>  <SCORE.INTER.POLAR>
0

>  <SCORE.INTER.ROT>
0

>  <SCORE.INTER.SOLV>
7.39468

>  <SCORE.INTER.VDW>
-11.3894

>  <SCORE.INTER.norm>
-0.726069

>  <SCORE.INTRA>
0

>  <SCORE.INTRA.DIHEDRAL>
0

>  <SCORE.INTRA.DIHEDRAL.0>
0

>  <SCORE.INTRA.POLAR>
0

>  <SCORE.INTRA.POLAR.0>
0

>  <SCORE.INTRA.REPUL>
0

>  <SCORE.INTRA.REPUL.0>
0

>  <SCORE.INTRA.SOLV>
0

>  <SCORE.INTRA.SOLV.lig_0>
-49.4056

>  <SCORE.INTRA.VDW>
0

>  <SCORE.INTRA.VDW.0>
0

>  <SCORE.INTRA.norm>
0

>  <SCORE.RESTR>
0

>  <SCORE.RESTR.CAVITY>
0

>  <SCORE.RESTR.norm>
0

>  <SCORE.SYSTEM>
0

>  <SCORE.SYSTEM.CONST>
0

>  <SCORE.SYSTEM.DIHEDRAL>
0

>  <SCORE.SYSTEM.SOLV>
0

>  <SCORE.SYSTEM.norm>
0

>  <SCORE.heavy>
11

>  <SCORE.norm>
-0.726069

>  <RMSD>
12.700

$$$$
ligand
 OpenBabel11021811503D
libRbt.so/2013.1/901 2013/11/27
 11 12  0  0  0  0  0  0  0  0999 V2000
    4.1207  -26.6582   13.9252 N   0  0  0  0  0  0  0  0  0  0  0  0
    4.6914  -26.3514   15.1162 C   0  0  0  0  0  0  0  0  0  0  0  0
    6.0980  -26.5281   15.3224 N   0  0  0  0  0  0  0  0  0  0  0  0
    3.9491  -25.8797   16.1337 N   0  0  0  0  0  0  0  0  0  0  0  0
    2.5925  -25.6873   15.9986 C   0  0  0  0  0  0  0  0  0  0  0  0
    1.9834  -25.9945   14.7957 C   0  0  0  0  0  0  0  0  0  0  0  0
    2.7928  -26.4987   13.7343 C   0  0  0  0  0  0  0  0  0  0  0  0
    2.1949  -26.8287   12.4767 N   0  0  0  0  0  0  0  0  0  0  0  0
    0.6396  -25.7101   14.9474 N   0  0  0  0  0  0  0  0  0  0  0  0
    0.4301  -25.2520   16.1980 C   0  0  0  0  0  0  0  0  0  0  0  0
    1.6044  -25.2301   16.8595 N   0  0  0  0  0  0  0  0  0  0  0  0
  1  7  2  0  0  0  0
  1  2  1  0  0  0  0
  2  3  1  0  0  0  0
  2  4  2  0  0  0  0
  4  5  1  0  0  0  0
  5  6  2  0  0  0  0
  5 11  1  0  0  0  0
  6  7  1  0  0  0  0
  6  9  1  0  0  0  0
  7  8  1  0  0  0  0
  9 10  1  0  0  0  0
 10 11  2  0  0  0  0
M  END
>  <CHROM.1>
2.84976165,-26.06314914,15.03767492,0.28326332,0.16161645,-1.89971698

>  <Name>
ligand

>  <RI>
0

>  <Rbt.Current_Directory>
/home/itssahil/PROJECTS/Mol_Feturizer/New_Systems/rnas/4LVZ

>  <Rbt.Executable>
rbdock ($Id: //depot/dev/client3/rdock/2013.1/src/exe/rbdock.cxx#4 $)

>  <Rbt.Library>
libRbt.so (2013.1, Build901 2013/11/27)

>  <Rbt.Parameter_File>
/export/apps/rDock/src/rDock_2013.1_src/data/scripts/dock_solv.prm

>  <Rbt.Receptor>
prm/blind_docking_40.prm

>  <SCORE>
-8.0125

>  <SCORE.INTER>
-8.0125

>  <SCORE.INTER.CONST>
1

>  <SCORE.INTER.POLAR>
0

>  <SCORE.INTER.ROT>
0

>  <SCORE.INTER.SOLV>
7.54385

>  <SCORE.INTER.VDW>
-11.4563

>  <SCORE.INTER.norm>
-0.728409

>  <SCORE.INTRA>
0

>  <SCORE.INTRA.DIHEDRAL>
0

>  <SCORE.INTRA.DIHEDRAL.0>
0

>  <SCORE.INTRA.POLAR>
0

>  <SCORE.INTRA.POLAR.0>
0

>  <SCORE.INTRA.REPUL>
0

>  <SCORE.INTRA.REPUL.0>
0

>  <SCORE.INTRA.SOLV>
0

>  <SCORE.INTRA.SOLV.lig_0>
-49.4056

>  <SCORE.INTRA.VDW>
0

>  <SCORE.INTRA.VDW.0>
0

>  <SCORE.INTRA.norm>
0

>  <SCORE.RESTR>
0

>  <SCORE.RESTR.CAVITY>
0

>  <SCORE.RESTR.norm>
0

>  <SCORE.SYSTEM>
0

>  <SCORE.SYSTEM.CONST>
0

>  <SCORE.SYSTEM.DIHEDRAL>
0

>  <SCORE.SYSTEM.SOLV>
0

>  <SCORE.SYSTEM.norm>
0

>  <SCORE.heavy>
11

>  <SCORE.norm>
-0.728409

>  <RMSD>
12.706

$$$$
ligand
 OpenBabel11021811503D
libRbt.so/2013.1/901 2013/11/27
 11 12  0  0  0  0  0  0  0  0999 V2000
    4.1347  -26.5662   13.8853 N   0  0  0  0  0  0  0  0  0  0  0  0
    4.6829  -26.3585   15.1080 C   0  0  0  0  0  0  0  0  0  0  0  0
    6.0820  -26.5711   15.3299 N   0  0  0  0  0  0  0  0  0  0  0  0
    3.9244  -25.9538   16.1423 N   0  0  0  0  0  0  0  0  0  0  0  0
    2.5738  -25.7316   15.9935 C   0  0  0  0  0  0  0  0  0  0  0  0
    1.9876  -25.9382   14.7581 C   0  0  0  0  0  0  0  0  0  0  0  0
    2.8136  -26.3730   13.6790 C   0  0  0  0  0  0  0  0  0  0  0  0
    2.2394  -26.5984   12.3877 N   0  0  0  0  0  0  0  0  0  0  0  0
    0.6446  -25.6461   14.9025 N   0  0  0  0  0  0  0  0  0  0  0  0
    0.4135  -25.2804   16.1795 C   0  0  0  0  0  0  0  0  0  0  0  0
    1.5730  -25.3259   16.8654 N   0  0  0  0  0  0  0  0  0  0  0  0
  1  7  2  0  0  0  0
  1  2  1  0  0  0  0
  2  3  1  0  0  0  0
  2  4  2  0  0  0  0
  4  5  1  0  0  0  0
  5  6  2  0  0  0  0
  5 11  1  0  0  0  0
  6  7  1  0  0  0  0
  6  9  1  0  0  0  0
  7  8  1  0  0  0  0
  9 10  1  0  0  0  0
 10 11  2  0  0  0  0
M  END
>  <CHROM.1>
2.84735701,-26.03776139,15.01254251,0.26623612,0.18130598,-1.82123472

>  <Name>
ligand

>  <RI>
0

>  <Rbt.Current_Directory>
/home/itssahil/PROJECTS/Mol_Feturizer/New_Systems/rnas/4LVZ

>  <Rbt.Executable>
rbdock ($Id: //depot/dev/client3/rdock/2013.1/src/exe/rbdock.cxx#4 $)

>  <Rbt.Library>
libRbt.so (2013.1, Build901 2013/11/27)

>  <Rbt.Parameter_File>
/export/apps/rDock/src/rDock_2013.1_src/data/scripts/dock_solv.prm

>  <Rbt.Receptor>
prm/blind_docking_40.prm

>  <SCORE>
-7.9617

>  <SCORE.INTER>
-7.9617

>  <SCORE.INTER.CONST>
1

>  <SCORE.INTER.POLAR>
0

>  <SCORE.INTER.ROT>
0

>  <SCORE.INTER.SOLV>
6.77582

>  <SCORE.INTER.VDW>
-11.1664

>  <SCORE.INTER.norm>
-0.723791

>  <SCORE.INTRA>
0

>  <SCORE.INTRA.DIHEDRAL>
0

>  <SCORE.INTRA.DIHEDRAL.0>
0

>  <SCORE.INTRA.POLAR>
0

>  <SCORE.INTRA.POLAR.0>
0

>  <SCORE.INTRA.REPUL>
0

>  <SCORE.INTRA.REPUL.0>
0

>  <SCORE.INTRA.SOLV>
0

>  <SCORE.INTRA.SOLV.lig_0>
-49.4056

>  <SCORE.INTRA.VDW>
0

>  <SCORE.INTRA.VDW.0>
0

>  <SCORE.INTRA.norm>
0

>  <SCORE.RESTR>
0

>  <SCORE.RESTR.CAVITY>
0

>  <SCORE.RESTR.norm>
0

>  <SCORE.SYSTEM>
0

>  <SCORE.SYSTEM.CONST>
0

>  <SCORE.SYSTEM.DIHEDRAL>
0

>  <SCORE.SYSTEM.SOLV>
0

>  <SCORE.SYSTEM.norm>
0

>  <SCORE.heavy>
11

>  <SCORE.norm>
-0.723791

>  <RMSD>
12.715

$$$$
ligand
 OpenBabel11021811503D
libRbt.so/2013.1/901 2013/11/27
 11 12  0  0  0  0  0  0  0  0999 V2000
    4.1043  -26.6554   13.8969 N   0  0  0  0  0  0  0  0  0  0  0  0
    4.6853  -26.3431   15.0816 C   0  0  0  0  0  0  0  0  0  0  0  0
    6.0937  -26.5176   15.2761 N   0  0  0  0  0  0  0  0  0  0  0  0
    3.9515  -25.8677   16.1036 N   0  0  0  0  0  0  0  0  0  0  0  0
    2.5936  -25.6771   15.9797 C   0  0  0  0  0  0  0  0  0  0  0  0
    1.9742  -25.9899   14.7835 C   0  0  0  0  0  0  0  0  0  0  0  0
    2.7747  -26.4978   13.7171 C   0  0  0  0  0  0  0  0  0  0  0  0
    2.1659  -26.8337   12.4663 N   0  0  0  0  0  0  0  0  0  0  0  0
    0.6315  -25.7060   14.9459 N   0  0  0  0  0  0  0  0  0  0  0  0
    0.4327  -25.2428   16.1964 C   0  0  0  0  0  0  0  0  0  0  0  0
    1.6127  -25.2171   16.8473 N   0  0  0  0  0  0  0  0  0  0  0  0
  1  7  2  0  0  0  0
  1  2  1  0  0  0  0
  2  3  1  0  0  0  0
  2  4  2  0  0  0  0
  4  5  1  0  0  0  0
  5  6  2  0  0  0  0
  5 11  1  0  0  0  0
  6  7  1  0  0  0  0
  6  9  1  0  0  0  0
  7  8  1  0  0  0  0
  9 10  1  0  0  0  0
 10 11  2  0  0  0  0
M  END
>  <CHROM.1>
2.84271505,-26.05675057,15.01812775,0.29143607,0.15790521,-1.90523821

>  <Name>
ligand

>  <RI>
0

>  <Rbt.Current_Directory>
/home/itssahil/PROJECTS/Mol_Feturizer/New_Systems/rnas/4LVZ

>  <Rbt.Executable>
rbdock ($Id: //depot/dev/client3/rdock/2013.1/src/exe/rbdock.cxx#4 $)

>  <Rbt.Library>
libRbt.so (2013.1, Build901 2013/11/27)

>  <Rbt.Parameter_File>
/export/apps/rDock/src/rDock_2013.1_src/data/scripts/dock_solv.prm

>  <Rbt.Receptor>
prm/blind_docking_40.prm

>  <SCORE>
-8.01436

>  <SCORE.INTER>
-8.01436

>  <SCORE.INTER.CONST>
1

>  <SCORE.INTER.POLAR>
0

>  <SCORE.INTER.ROT>
0

>  <SCORE.INTER.SOLV>
7.57103

>  <SCORE.INTER.VDW>
-11.4666

>  <SCORE.INTER.norm>
-0.728578

>  <SCORE.INTRA>
0

>  <SCORE.INTRA.DIHEDRAL>
0

>  <SCORE.INTRA.DIHEDRAL.0>
0

>  <SCORE.INTRA.POLAR>
0

>  <SCORE.INTRA.POLAR.0>
0

>  <SCORE.INTRA.REPUL>
0

>  <SCORE.INTRA.REPUL.0>
0

>  <SCORE.INTRA.SOLV>
0

>  <SCORE.INTRA.SOLV.lig_0>
-49.4056

>  <SCORE.INTRA.VDW>
0

>  <SCORE.INTRA.VDW.0>
0

>  <SCORE.INTRA.norm>
0

>  <SCORE.RESTR>
0

>  <SCORE.RESTR.CAVITY>
0

>  <SCORE.RESTR.norm>
0

>  <SCORE.SYSTEM>
0

>  <SCORE.SYSTEM.CONST>
0

>  <SCORE.SYSTEM.DIHEDRAL>
0

>  <SCORE.SYSTEM.SOLV>
0

>  <SCORE.SYSTEM.norm>
0

>  <SCORE.heavy>
11

>  <SCORE.norm>
-0.728578

>  <RMSD>
12.722

$$$$
ligand
 OpenBabel11021811503D
libRbt.so/2013.1/901 2013/11/27
 11 12  0  0  0  0  0  0  0  0999 V2000
    4.1239  -26.6562   13.9182 N   0  0  0  0  0  0  0  0  0  0  0  0
    4.6766  -26.3498   15.1179 C   0  0  0  0  0  0  0  0  0  0  0  0
    6.0812  -26.5188   15.3427 N   0  0  0  0  0  0  0  0  0  0  0  0
    3.9177  -25.8856   16.1266 N   0  0  0  0  0  0  0  0  0  0  0  0
    2.5619  -25.7008   15.9736 C   0  0  0  0  0  0  0  0  0  0  0  0
    1.9711  -26.0077   14.7615 C   0  0  0  0  0  0  0  0  0  0  0  0
    2.7979  -26.5038   13.7097 C   0  0  0  0  0  0  0  0  0  0  0  0
    2.2191  -26.8334   12.4431 N   0  0  0  0  0  0  0  0  0  0  0  0
    0.6237  -25.7317   14.8958 N   0  0  0  0  0  0  0  0  0  0  0  0
    0.3945  -25.2787   16.1448 C   0  0  0  0  0  0  0  0  0  0  0  0
    1.5595  -25.2521   16.8223 N   0  0  0  0  0  0  0  0  0  0  0  0
  1  7  2  0  0  0  0
  1  2  1  0  0  0  0
  2  3  1  0  0  0  0
  2  4  2  0  0  0  0
  4  5  1  0  0  0  0
  5  6  2  0  0  0  0
  5 11  1  0  0  0  0
  6  7  1  0  0  0  0
  6  9  1  0  0  0  0
  7  8  1  0  0  0  0
  9 10  1  0  0  0  0
 10 11  2  0  0  0  0
M  END
>  <CHROM.1>
2.83448286,-26.07206574,15.01511946,0.26827484,0.16041474,-1.89421907

>  <Name>
ligand

>  <RI>
0

>  <Rbt.Current_Directory>
/home/itssahil/PROJECTS/Mol_Feturizer/New_Systems/rnas/4LVZ

>  <Rbt.Executable>
rbdock ($Id: //depot/dev/client3/rdock/2013.1/src/exe/rbdock.cxx#4 $)

>  <Rbt.Library>
libRbt.so (2013.1, Build901 2013/11/27)

>  <Rbt.Parameter_File>
/export/apps/rDock/src/rDock_2013.1_src/data/scripts/dock_solv.prm

>  <Rbt.Receptor>
prm/blind_docking_40.prm

>  <SCORE>
-8.0132

>  <SCORE.INTER>
-8.0132

>  <SCORE.INTER.CONST>
1

>  <SCORE.INTER.POLAR>
0

>  <SCORE.INTER.ROT>
0

>  <SCORE.INTER.SOLV>
7.53586

>  <SCORE.INTER.VDW>
-11.4541

>  <SCORE.INTER.norm>
-0.728473

>  <SCORE.INTRA>
0

>  <SCORE.INTRA.DIHEDRAL>
0

>  <SCORE.INTRA.DIHEDRAL.0>
0

>  <SCORE.INTRA.POLAR>
0

>  <SCORE.INTRA.POLAR.0>
0

>  <SCORE.INTRA.REPUL>
0

>  <SCORE.INTRA.REPUL.0>
0

>  <SCORE.INTRA.SOLV>
0

>  <SCORE.INTRA.SOLV.lig_0>
-49.4056

>  <SCORE.INTRA.VDW>
0

>  <SCORE.INTRA.VDW.0>
0

>  <SCORE.INTRA.norm>
0

>  <SCORE.RESTR>
0

>  <SCORE.RESTR.CAVITY>
0

>  <SCORE.RESTR.norm>
0

>  <SCORE.SYSTEM>
0

>  <SCORE.SYSTEM.CONST>
0

>  <SCORE.SYSTEM.DIHEDRAL>
0

>  <SCORE.SYSTEM.SOLV>
0

>  <SCORE.SYSTEM.norm>
0

>  <SCORE.heavy>
11

>  <SCORE.norm>
-0.728473

>  <RMSD>
12.727

$$$$
ligand
 OpenBabel11021811503D
libRbt.so/2013.1/901 2013/11/27
 11 12  0  0  0  0  0  0  0  0999 V2000
    4.0074  -26.4985   13.7824 N   0  0  0  0  0  0  0  0  0  0  0  0
    4.5748  -26.3063   14.9989 C   0  0  0  0  0  0  0  0  0  0  0  0
    5.9785  -26.5144   15.1944 N   0  0  0  0  0  0  0  0  0  0  0  0
    3.8314  -25.9215   16.0517 N   0  0  0  0  0  0  0  0  0  0  0  0
    2.4774  -25.7047   15.9286 C   0  0  0  0  0  0  0  0  0  0  0  0
    1.8718  -25.8958   14.7001 C   0  0  0  0  0  0  0  0  0  0  0  0
    2.6821  -26.3096   13.6010 C   0  0  0  0  0  0  0  0  0  0  0  0
    2.0877  -26.5186   12.3161 N   0  0  0  0  0  0  0  0  0  0  0  0
    0.5299  -25.6134   14.8712 N   0  0  0  0  0  0  0  0  0  0  0  0
    0.3181  -25.2685   16.1572 C   0  0  0  0  0  0  0  0  0  0  0  0
    1.4890  -25.3178   16.8230 N   0  0  0  0  0  0  0  0  0  0  0  0
  1  7  2  0  0  0  0
  1  2  1  0  0  0  0
  2  3  1  0  0  0  0
  2  4  2  0  0  0  0
  4  5  1  0  0  0  0
  5  6  2  0  0  0  0
  5 11  1  0  0  0  0
  6  7  1  0  0  0  0
  6  9  1  0  0  0  0
  7  8  1  0  0  0  0
  9 10  1  0  0  0  0
 10 11  2  0  0  0  0
M  END
>  <CHROM.1>
2.73623661,-25.99440445,14.93873111,0.28124722,0.17198243,-1.80867606

>  <Name>
ligand

>  <RI>
0

>  <Rbt.Current_Directory>
/home/itssahil/PROJECTS/Mol_Feturizer/New_Systems/rnas/4LVZ

>  <Rbt.Executable>
rbdock ($Id: //depot/dev/client3/rdock/2013.1/src/exe/rbdock.cxx#4 $)

>  <Rbt.Library>
libRbt.so (2013.1, Build901 2013/11/27)

>  <Rbt.Parameter_File>
/export/apps/rDock/src/rDock_2013.1_src/data/scripts/dock_solv.prm

>  <Rbt.Receptor>
prm/blind_docking_60.prm

>  <SCORE>
-8.01084

>  <SCORE.INTER>
-8.01084

>  <SCORE.INTER.CONST>
1

>  <SCORE.INTER.POLAR>
0

>  <SCORE.INTER.ROT>
0

>  <SCORE.INTER.SOLV>
6.74848

>  <SCORE.INTER.VDW>
-11.1901

>  <SCORE.INTER.norm>
-0.728258

>  <SCORE.INTRA>
0

>  <SCORE.INTRA.DIHEDRAL>
0

>  <SCORE.INTRA.DIHEDRAL.0>
0

>  <SCORE.INTRA.POLAR>
0

>  <SCORE.INTRA.POLAR.0>
0

>  <SCORE.INTRA.REPUL>
0

>  <SCORE.INTRA.REPUL.0>
0

>  <SCORE.INTRA.SOLV>
0

>  <SCORE.INTRA.SOLV.lig_0>
-49.4056

>  <SCORE.INTRA.VDW>
0

>  <SCORE.INTRA.VDW.0>
0

>  <SCORE.INTRA.norm>
0

>  <SCORE.RESTR>
0

>  <SCORE.RESTR.CAVITY>
0

>  <SCORE.RESTR.norm>
0

>  <SCORE.SYSTEM>
0

>  <SCORE.SYSTEM.CONST>
0

>  <SCORE.SYSTEM.DIHEDRAL>
0

>  <SCORE.SYSTEM.SOLV>
0

>  <SCORE.SYSTEM.norm>
0

>  <SCORE.heavy>
11

>  <SCORE.norm>
-0.728258

>  <RMSD>
12.757

$$$$
ligand
 OpenBabel11021811503D
libRbt.so/2013.1/901 2013/11/27
 11 12  0  0  0  0  0  0  0  0999 V2000
    4.1109  -26.5234   13.8124 N   0  0  0  0  0  0  0  0  0  0  0  0
    4.6556  -26.3320   15.0393 C   0  0  0  0  0  0  0  0  0  0  0  0
    6.0558  -26.5387   15.2602 N   0  0  0  0  0  0  0  0  0  0  0  0
    3.8927  -25.9494   16.0787 N   0  0  0  0  0  0  0  0  0  0  0  0
    2.5409  -25.7339   15.9312 C   0  0  0  0  0  0  0  0  0  0  0  0
    1.9582  -25.9242   14.6916 C   0  0  0  0  0  0  0  0  0  0  0  0
    2.7889  -26.3358   13.6070 C   0  0  0  0  0  0  0  0  0  0  0  0
    2.2184  -26.5439   12.3112 N   0  0  0  0  0  0  0  0  0  0  0  0
    0.6130  -25.6435   14.8383 N   0  0  0  0  0  0  0  0  0  0  0  0
    0.3773  -25.3003   16.1206 C   0  0  0  0  0  0  0  0  0  0  0  0
    1.5359  -25.3492   16.8078 N   0  0  0  0  0  0  0  0  0  0  0  0
  1  7  2  0  0  0  0
  1  2  1  0  0  0  0
  2  3  1  0  0  0  0
  2  4  2  0  0  0  0
  4  5  1  0  0  0  0
  5  6  2  0  0  0  0
  5 11  1  0  0  0  0
  6  7  1  0  0  0  0
  6  9  1  0  0  0  0
  7  8  1  0  0  0  0
  9 10  1  0  0  0  0
 10 11  2  0  0  0  0
M  END
>  <CHROM.1>
2.81817928,-26.02212350,14.94582841,0.26289568,0.17516092,-1.80433610

>  <Name>
ligand

>  <RI>
0

>  <Rbt.Current_Directory>
/home/itssahil/PROJECTS/Mol_Feturizer/New_Systems/rnas/4LVZ

>  <Rbt.Executable>
rbdock ($Id: //depot/dev/client3/rdock/2013.1/src/exe/rbdock.cxx#4 $)

>  <Rbt.Library>
libRbt.so (2013.1, Build901 2013/11/27)

>  <Rbt.Parameter_File>
/export/apps/rDock/src/rDock_2013.1_src/data/scripts/dock_solv.prm

>  <Rbt.Receptor>
prm/blind_docking_60.prm

>  <SCORE>
-8.03684

>  <SCORE.INTER>
-8.03684

>  <SCORE.INTER.CONST>
1

>  <SCORE.INTER.POLAR>
0

>  <SCORE.INTER.ROT>
0

>  <SCORE.INTER.SOLV>
6.63726

>  <SCORE.INTER.VDW>
-11.1703

>  <SCORE.INTER.norm>
-0.730621

>  <SCORE.INTRA>
0

>  <SCORE.INTRA.DIHEDRAL>
0

>  <SCORE.INTRA.DIHEDRAL.0>
0

>  <SCORE.INTRA.POLAR>
0

>  <SCORE.INTRA.POLAR.0>
0

>  <SCORE.INTRA.REPUL>
0

>  <SCORE.INTRA.REPUL.0>
0

>  <SCORE.INTRA.SOLV>
0

>  <SCORE.INTRA.SOLV.lig_0>
-49.4056

>  <SCORE.INTRA.VDW>
0

>  <SCORE.INTRA.VDW.0>
0

>  <SCORE.INTRA.norm>
0

>  <SCORE.RESTR>
0

>  <SCORE.RESTR.CAVITY>
0

>  <SCORE.RESTR.norm>
0

>  <SCORE.SYSTEM>
0

>  <SCORE.SYSTEM.CONST>
0

>  <SCORE.SYSTEM.DIHEDRAL>
0

>  <SCORE.SYSTEM.SOLV>
0

>  <SCORE.SYSTEM.norm>
0

>  <SCORE.heavy>
11

>  <SCORE.norm>
-0.730621

>  <RMSD>
12.765

$$$$
ligand
 OpenBabel11021811503D
libRbt.so/2013.1/901 2013/11/27
 11 12  0  0  0  0  0  0  0  0999 V2000
    3.5464  -27.5364   15.3131 N   0  0  0  0  0  0  0  0  0  0  0  0
    2.9662  -28.1278   16.3865 C   0  0  0  0  0  0  0  0  0  0  0  0
    3.7022  -29.0436   17.2060 N   0  0  0  0  0  0  0  0  0  0  0  0
    1.6842  -27.8725   16.7033 N   0  0  0  0  0  0  0  0  0  0  0  0
    0.9237  -27.0016   15.9557 C   0  0  0  0  0  0  0  0  0  0  0  0
    1.4890  -26.3864   14.8538 C   0  0  0  0  0  0  0  0  0  0  0  0
    2.8490  -26.6788   14.5363 C   0  0  0  0  0  0  0  0  0  0  0  0
    3.4649  -26.0614   13.4017 N   0  0  0  0  0  0  0  0  0  0  0  0
    0.5092  -25.5832   14.3018 N   0  0  0  0  0  0  0  0  0  0  0  0
   -0.6169  -25.7054   15.0330 C   0  0  0  0  0  0  0  0  0  0  0  0
   -0.3909  -26.5656   16.0459 N   0  0  0  0  0  0  0  0  0  0  0  0
  1  7  2  0  0  0  0
  1  2  1  0  0  0  0
  2  3  1  0  0  0  0
  2  4  2  0  0  0  0
  4  5  1  0  0  0  0
  5  6  2  0  0  0  0
  5 11  1  0  0  0  0
  6  7  1  0  0  0  0
  6  9  1  0  0  0  0
  7  8  1  0  0  0  0
  9 10  1  0  0  0  0
 10 11  2  0  0  0  0
M  END
>  <CHROM.1>
1.85102425,-26.97273382,15.43603143,-0.62179033,0.30120483,-0.92081619

>  <Name>
ligand

>  <RI>
0

>  <Rbt.Current_Directory>
/home/itssahil/PROJECTS/Mol_Feturizer/New_Systems/rnas/4LVZ

>  <Rbt.Executable>
rbdock ($Id: //depot/dev/client3/rdock/2013.1/src/exe/rbdock.cxx#4 $)

>  <Rbt.Library>
libRbt.so (2013.1, Build901 2013/11/27)

>  <Rbt.Parameter_File>
/export/apps/rDock/src/rDock_2013.1_src/data/scripts/dock_solv.prm

>  <Rbt.Receptor>
prm/blind_docking_80.prm

>  <SCORE>
-6.70797

>  <SCORE.INTER>
-6.70797

>  <SCORE.INTER.CONST>
1

>  <SCORE.INTER.POLAR>
0

>  <SCORE.INTER.ROT>
0

>  <SCORE.INTER.SOLV>
7.37858

>  <SCORE.INTER.VDW>
-10.5315

>  <SCORE.INTER.norm>
-0.609815

>  <SCORE.INTRA>
0

>  <SCORE.INTRA.DIHEDRAL>
0

>  <SCORE.INTRA.DIHEDRAL.0>
0

>  <SCORE.INTRA.POLAR>
0

>  <SCORE.INTRA.POLAR.0>
0

>  <SCORE.INTRA.REPUL>
0

>  <SCORE.INTRA.REPUL.0>
0

>  <SCORE.INTRA.SOLV>
0

>  <SCORE.INTRA.SOLV.lig_0>
-49.4056

>  <SCORE.INTRA.VDW>
0

>  <SCORE.INTRA.VDW.0>
0

>  <SCORE.INTRA.norm>
0

>  <SCORE.RESTR>
0

>  <SCORE.RESTR.CAVITY>
0

>  <SCORE.RESTR.norm>
0

>  <SCORE.SYSTEM>
0

>  <SCORE.SYSTEM.CONST>
0

>  <SCORE.SYSTEM.DIHEDRAL>
0

>  <SCORE.SYSTEM.SOLV>
0

>  <SCORE.SYSTEM.norm>
0

>  <SCORE.heavy>
11

>  <SCORE.norm>
-0.609815

>  <RMSD>
12.833

$$$$
ligand
 OpenBabel11021811503D
libRbt.so/2013.1/901 2013/11/27
 11 12  0  0  0  0  0  0  0  0999 V2000
    3.5193  -27.4931   15.1493 N   0  0  0  0  0  0  0  0  0  0  0  0
    2.9864  -28.0655   16.2570 C   0  0  0  0  0  0  0  0  0  0  0  0
    3.7556  -28.9719   17.0561 N   0  0  0  0  0  0  0  0  0  0  0  0
    1.7211  -27.7999   16.6277 N   0  0  0  0  0  0  0  0  0  0  0  0
    0.9305  -26.9373   15.9022 C   0  0  0  0  0  0  0  0  0  0  0  0
    1.4473  -26.3413   14.7663 C   0  0  0  0  0  0  0  0  0  0  0  0
    2.7904  -26.6445   14.3919 C   0  0  0  0  0  0  0  0  0  0  0  0
    3.3561  -26.0470   13.2210 N   0  0  0  0  0  0  0  0  0  0  0  0
    0.4463  -25.5424   14.2471 N   0  0  0  0  0  0  0  0  0  0  0  0
   -0.6458  -25.6487   15.0305 C   0  0  0  0  0  0  0  0  0  0  0  0
   -0.3770  -26.4942   16.0453 N   0  0  0  0  0  0  0  0  0  0  0  0
  1  7  2  0  0  0  0
  1  2  1  0  0  0  0
  2  3  1  0  0  0  0
  2  4  2  0  0  0  0
  4  5  1  0  0  0  0
  5  6  2  0  0  0  0
  5 11  1  0  0  0  0
  6  7  1  0  0  0  0
  6  9  1  0  0  0  0
  7  8  1  0  0  0  0
  9 10  1  0  0  0  0
 10 11  2  0  0  0  0
M  END
>  <CHROM.1>
1.83332314,-26.92029231,15.34043523,-0.58575979,0.33146225,-0.94738067

>  <Name>
ligand

>  <RI>
0

>  <Rbt.Current_Directory>
/home/itssahil/PROJECTS/Mol_Feturizer/New_Systems/rnas/4LVZ

>  <Rbt.Executable>
rbdock ($Id: //depot/dev/client3/rdock/2013.1/src/exe/rbdock.cxx#4 $)

>  <Rbt.Library>
libRbt.so (2013.1, Build901 2013/11/27)

>  <Rbt.Parameter_File>
/export/apps/rDock/src/rDock_2013.1_src/data/scripts/dock_solv.prm

>  <Rbt.Receptor>
prm/blind_docking_60.prm

>  <SCORE>
-6.78001

>  <SCORE.INTER>
-6.78001

>  <SCORE.INTER.CONST>
1

>  <SCORE.INTER.POLAR>
0

>  <SCORE.INTER.ROT>
0

>  <SCORE.INTER.SOLV>
6.70228

>  <SCORE.INTER.VDW>
-10.3541

>  <SCORE.INTER.norm>
-0.616364

>  <SCORE.INTRA>
0

>  <SCORE.INTRA.DIHEDRAL>
0

>  <SCORE.INTRA.DIHEDRAL.0>
0

>  <SCORE.INTRA.POLAR>
0

>  <SCORE.INTRA.POLAR.0>
0

>  <SCORE.INTRA.REPUL>
0

>  <SCORE.INTRA.REPUL.0>
0

>  <SCORE.INTRA.SOLV>
0

>  <SCORE.INTRA.SOLV.lig_0>
-49.4056

>  <SCORE.INTRA.VDW>
0

>  <SCORE.INTRA.VDW.0>
0

>  <SCORE.INTRA.norm>
0

>  <SCORE.RESTR>
0

>  <SCORE.RESTR.CAVITY>
0

>  <SCORE.RESTR.norm>
0

>  <SCORE.SYSTEM>
0

>  <SCORE.SYSTEM.CONST>
0

>  <SCORE.SYSTEM.DIHEDRAL>
0

>  <SCORE.SYSTEM.SOLV>
0

>  <SCORE.SYSTEM.norm>
0

>  <SCORE.heavy>
11

>  <SCORE.norm>
-0.616364

>  <RMSD>
12.883

$$$$
ligand
 OpenBabel11021811503D
libRbt.so/2013.1/901 2013/11/27
 11 12  0  0  0  0  0  0  0  0999 V2000
    3.5692  -27.4946   15.1698 N   0  0  0  0  0  0  0  0  0  0  0  0
    3.0317  -28.1020   16.2563 C   0  0  0  0  0  0  0  0  0  0  0  0
    3.8039  -29.0187   17.0408 N   0  0  0  0  0  0  0  0  0  0  0  0
    1.7590  -27.8625   16.6191 N   0  0  0  0  0  0  0  0  0  0  0  0
    0.9652  -26.9917   15.9069 C   0  0  0  0  0  0  0  0  0  0  0  0
    1.4867  -26.3602   14.7926 C   0  0  0  0  0  0  0  0  0  0  0  0
    2.8377  -26.6362   14.4260 C   0  0  0  0  0  0  0  0  0  0  0  0
    3.4086  -26.0017   13.2774 N   0  0  0  0  0  0  0  0  0  0  0  0
    0.4811  -25.5612   14.2825 N   0  0  0  0  0  0  0  0  0  0  0  0
   -0.6182  -25.7016   15.0504 C   0  0  0  0  0  0  0  0  0  0  0  0
   -0.3496  -26.5694   16.0462 N   0  0  0  0  0  0  0  0  0  0  0  0
  1  7  2  0  0  0  0
  1  2  1  0  0  0  0
  2  3  1  0  0  0  0
  2  4  2  0  0  0  0
  4  5  1  0  0  0  0
  5  6  2  0  0  0  0
  5 11  1  0  0  0  0
  6  7  1  0  0  0  0
  6  9  1  0  0  0  0
  7  8  1  0  0  0  0
  9 10  1  0  0  0  0
 10 11  2  0  0  0  0
M  END
>  <CHROM.1>
1.87388306,-26.94867275,15.35615588,-0.58717980,0.31423776,-0.92130890

>  <Name>
ligand

>  <RI>
0

>  <Rbt.Current_Directory>
/home/itssahil/PROJECTS/Mol_Feturizer/New_Systems/rnas/4LVZ

>  <Rbt.Executable>
rbdock ($Id: //depot/dev/client3/rdock/2013.1/src/exe/rbdock.cxx#4 $)

>  <Rbt.Library>
libRbt.so (2013.1, Build901 2013/11/27)

>  <Rbt.Parameter_File>
/export/apps/rDock/src/rDock_2013.1_src/data/scripts/dock_solv.prm

>  <Rbt.Receptor>
prm/blind_docking_40.prm

>  <SCORE>
-6.75735

>  <SCORE.INTER>
-6.75735

>  <SCORE.INTER.CONST>
1

>  <SCORE.INTER.POLAR>
0

>  <SCORE.INTER.ROT>
0

>  <SCORE.INTER.SOLV>
6.81285

>  <SCORE.INTER.VDW>
-10.3758

>  <SCORE.INTER.norm>
-0.614304

>  <SCORE.INTRA>
0

>  <SCORE.INTRA.DIHEDRAL>
0

>  <SCORE.INTRA.DIHEDRAL.0>
0

>  <SCORE.INTRA.POLAR>
0

>  <SCORE.INTRA.POLAR.0>
0

>  <SCORE.INTRA.REPUL>
0

>  <SCORE.INTRA.REPUL.0>
0

>  <SCORE.INTRA.SOLV>
0

>  <SCORE.INTRA.SOLV.lig_0>
-49.4056

>  <SCORE.INTRA.VDW>
0

>  <SCORE.INTRA.VDW.0>
0

>  <SCORE.INTRA.norm>
0

>  <SCORE.RESTR>
0

>  <SCORE.RESTR.CAVITY>
0

>  <SCORE.RESTR.norm>
0

>  <SCORE.SYSTEM>
0

>  <SCORE.SYSTEM.CONST>
0

>  <SCORE.SYSTEM.DIHEDRAL>
0

>  <SCORE.SYSTEM.SOLV>
0

>  <SCORE.SYSTEM.norm>
0

>  <SCORE.heavy>
11

>  <SCORE.norm>
-0.614304

>  <RMSD>
12.885

$$$$
ligand
 OpenBabel11021811503D
libRbt.so/2013.1/901 2013/11/27
 11 12  0  0  0  0  0  0  0  0999 V2000
  -10.9517  -15.9055   29.3044 N   0  0  0  0  0  0  0  0  0  0  0  0
  -10.2986  -15.0688   30.1482 C   0  0  0  0  0  0  0  0  0  0  0  0
  -10.9722  -14.4863   31.2702 N   0  0  0  0  0  0  0  0  0  0  0  0
   -9.0046  -14.7619   29.9478 N   0  0  0  0  0  0  0  0  0  0  0  0
   -8.3014  -15.2893   28.8881 C   0  0  0  0  0  0  0  0  0  0  0  0
   -8.9432  -16.1434   28.0100 C   0  0  0  0  0  0  0  0  0  0  0  0
  -10.3176  -16.4482   28.2421 C   0  0  0  0  0  0  0  0  0  0  0  0
  -11.0132  -17.3267   27.3519 N   0  0  0  0  0  0  0  0  0  0  0  0
   -8.0099  -16.5087   27.0585 N   0  0  0  0  0  0  0  0  0  0  0  0
   -6.8413  -15.8972   27.3377 C   0  0  0  0  0  0  0  0  0  0  0  0
   -6.9930  -15.1469   28.4472 N   0  0  0  0  0  0  0  0  0  0  0  0
  1  7  2  0  0  0  0
  1  2  1  0  0  0  0
  2  3  1  0  0  0  0
  2  4  2  0  0  0  0
  4  5  1  0  0  0  0
  5  6  2  0  0  0  0
  5 11  1  0  0  0  0
  6  7  1  0  0  0  0
  6  9  1  0  0  0  0
  7  8  1  0  0  0  0
  9 10  1  0  0  0  0
 10 11  2  0  0  0  0
M  END
>  <CHROM.1>
-9.26139798,-15.72268842,28.74184809,2.45984782,0.27339308,0.94555565

>  <Name>
ligand

>  <RI>
0

>  <Rbt.Current_Directory>
/home/itssahil/PROJECTS/Mol_Feturizer/New_Systems/rnas/4LVZ

>  <Rbt.Executable>
rbdock ($Id: //depot/dev/client3/rdock/2013.1/src/exe/rbdock.cxx#4 $)

>  <Rbt.Library>
libRbt.so (2013.1, Build901 2013/11/27)

>  <Rbt.Parameter_File>
/export/apps/rDock/src/rDock_2013.1_src/data/scripts/dock_solv.prm

>  <Rbt.Receptor>
prm/blind_docking_100.prm

>  <SCORE>
-5.70905

>  <SCORE.INTER>
-5.70905

>  <SCORE.INTER.CONST>
1

>  <SCORE.INTER.POLAR>
0

>  <SCORE.INTER.ROT>
0

>  <SCORE.INTER.SOLV>
7.47371

>  <SCORE.INTER.VDW>
-9.89727

>  <SCORE.INTER.norm>
-0.519004

>  <SCORE.INTRA>
0

>  <SCORE.INTRA.DIHEDRAL>
0

>  <SCORE.INTRA.DIHEDRAL.0>
0

>  <SCORE.INTRA.POLAR>
0

>  <SCORE.INTRA.POLAR.0>
0

>  <SCORE.INTRA.REPUL>
0

>  <SCORE.INTRA.REPUL.0>
0

>  <SCORE.INTRA.SOLV>
0

>  <SCORE.INTRA.SOLV.lig_0>
-49.4056

>  <SCORE.INTRA.VDW>
0

>  <SCORE.INTRA.VDW.0>
0

>  <SCORE.INTRA.norm>
0

>  <SCORE.RESTR>
0

>  <SCORE.RESTR.CAVITY>
0

>  <SCORE.RESTR.norm>
0

>  <SCORE.SYSTEM>
0

>  <SCORE.SYSTEM.CONST>
0

>  <SCORE.SYSTEM.DIHEDRAL>
0

>  <SCORE.SYSTEM.SOLV>
0

>  <SCORE.SYSTEM.norm>
0

>  <SCORE.heavy>
11

>  <SCORE.norm>
-0.519004

>  <RMSD>
12.895

$$$$
ligand
 OpenBabel11021811503D
libRbt.so/2013.1/901 2013/11/27
 11 12  0  0  0  0  0  0  0  0999 V2000
    3.6129  -27.5482   15.1838 N   0  0  0  0  0  0  0  0  0  0  0  0
    3.0594  -28.1242   16.2795 C   0  0  0  0  0  0  0  0  0  0  0  0
    3.8110  -29.0393   17.0854 N   0  0  0  0  0  0  0  0  0  0  0  0
    1.7898  -27.8540   16.6316 N   0  0  0  0  0  0  0  0  0  0  0  0
    1.0154  -26.9829   15.8986 C   0  0  0  0  0  0  0  0  0  0  0  0
    1.5534  -26.3832   14.7747 C   0  0  0  0  0  0  0  0  0  0  0  0
    2.9007  -26.6913   14.4200 C   0  0  0  0  0  0  0  0  0  0  0  0
    3.4882  -26.0900   13.2619 N   0  0  0  0  0  0  0  0  0  0  0  0
    0.5650  -25.5759   14.2444 N   0  0  0  0  0  0  0  0  0  0  0  0
   -0.5400  -25.6809   15.0096 C   0  0  0  0  0  0  0  0  0  0  0  0
   -0.2919  -26.5338   16.0235 N   0  0  0  0  0  0  0  0  0  0  0  0
  1  7  2  0  0  0  0
  1  2  1  0  0  0  0
  2  3  1  0  0  0  0
  2  4  2  0  0  0  0
  4  5  1  0  0  0  0
  5  6  2  0  0  0  0
  5 11  1  0  0  0  0
  6  7  1  0  0  0  0
  6  9  1  0  0  0  0
  7  8  1  0  0  0  0
  9 10  1  0  0  0  0
 10 11  2  0  0  0  0
M  END
>  <CHROM.1>
1.92714023,-26.96751269,15.35148570,-0.60269875,0.32634205,-0.93603101

>  <Name>
ligand

>  <RI>
0

>  <Rbt.Current_Directory>
/home/itssahil/PROJECTS/Mol_Feturizer/New_Systems/rnas/4LVZ

>  <Rbt.Executable>
rbdock ($Id: //depot/dev/client3/rdock/2013.1/src/exe/rbdock.cxx#4 $)

>  <Rbt.Library>
libRbt.so (2013.1, Build901 2013/11/27)

>  <Rbt.Parameter_File>
/export/apps/rDock/src/rDock_2013.1_src/data/scripts/dock_solv.prm

>  <Rbt.Receptor>
prm/blind_docking_100.prm

>  <SCORE>
-6.80559

>  <SCORE.INTER>
-6.80559

>  <SCORE.INTER.CONST>
1

>  <SCORE.INTER.POLAR>
0

>  <SCORE.INTER.ROT>
0

>  <SCORE.INTER.SOLV>
6.6816

>  <SCORE.INTER.VDW>
-10.3643

>  <SCORE.INTER.norm>
-0.61869

>  <SCORE.INTRA>
0

>  <SCORE.INTRA.DIHEDRAL>
0

>  <SCORE.INTRA.DIHEDRAL.0>
0

>  <SCORE.INTRA.POLAR>
0

>  <SCORE.INTRA.POLAR.0>
0

>  <SCORE.INTRA.REPUL>
0

>  <SCORE.INTRA.REPUL.0>
0

>  <SCORE.INTRA.SOLV>
0

>  <SCORE.INTRA.SOLV.lig_0>
-49.4056

>  <SCORE.INTRA.VDW>
0

>  <SCORE.INTRA.VDW.0>
0

>  <SCORE.INTRA.norm>
0

>  <SCORE.RESTR>
0

>  <SCORE.RESTR.CAVITY>
0

>  <SCORE.RESTR.norm>
0

>  <SCORE.SYSTEM>
0

>  <SCORE.SYSTEM.CONST>
0

>  <SCORE.SYSTEM.DIHEDRAL>
0

>  <SCORE.SYSTEM.SOLV>
0

>  <SCORE.SYSTEM.norm>
0

>  <SCORE.heavy>
11

>  <SCORE.norm>
-0.61869

>  <RMSD>
12.898

$$$$
ligand
 OpenBabel11021811503D
libRbt.so/2013.1/901 2013/11/27
 11 12  0  0  0  0  0  0  0  0999 V2000
    3.5357  -27.4862   15.1334 N   0  0  0  0  0  0  0  0  0  0  0  0
    3.0059  -28.0949   16.2231 C   0  0  0  0  0  0  0  0  0  0  0  0
    3.7841  -29.0111   17.0021 N   0  0  0  0  0  0  0  0  0  0  0  0
    1.7353  -27.8568   16.5944 N   0  0  0  0  0  0  0  0  0  0  0  0
    0.9360  -26.9865   15.8877 C   0  0  0  0  0  0  0  0  0  0  0  0
    1.4496  -26.3539   14.7705 C   0  0  0  0  0  0  0  0  0  0  0  0
    2.7985  -26.6283   14.3949 C   0  0  0  0  0  0  0  0  0  0  0  0
    3.3612  -25.9924   13.2430 N   0  0  0  0  0  0  0  0  0  0  0  0
    0.4398  -25.5556   14.2674 N   0  0  0  0  0  0  0  0  0  0  0  0
   -0.6543  -25.6976   15.0423 C   0  0  0  0  0  0  0  0  0  0  0  0
   -0.3783  -26.5657   16.0359 N   0  0  0  0  0  0  0  0  0  0  0  0
  1  7  2  0  0  0  0
  1  2  1  0  0  0  0
  2  3  1  0  0  0  0
  2  4  2  0  0  0  0
  4  5  1  0  0  0  0
  5  6  2  0  0  0  0
  5 11  1  0  0  0  0
  6  7  1  0  0  0  0
  6  9  1  0  0  0  0
  7  8  1  0  0  0  0
  9 10  1  0  0  0  0
 10 11  2  0  0  0  0
M  END
>  <CHROM.1>
1.84104386,-26.94222634,15.33116063,-0.58104693,0.31732539,-0.92266016

>  <Name>
ligand

>  <RI>
0

>  <Rbt.Current_Directory>
/home/itssahil/PROJECTS/Mol_Feturizer/New_Systems/rnas/4LVZ

>  <Rbt.Executable>
rbdock ($Id: //depot/dev/client3/rdock/2013.1/src/exe/rbdock.cxx#4 $)

>  <Rbt.Library>
libRbt.so (2013.1, Build901 2013/11/27)

>  <Rbt.Parameter_File>
/export/apps/rDock/src/rDock_2013.1_src/data/scripts/dock_solv.prm

>  <Rbt.Receptor>
prm/blind_docking_40.prm

>  <SCORE>
-6.79143

>  <SCORE.INTER>
-6.79143

>  <SCORE.INTER.CONST>
1

>  <SCORE.INTER.POLAR>
0

>  <SCORE.INTER.ROT>
0

>  <SCORE.INTER.SOLV>
6.7946

>  <SCORE.INTER.VDW>
-10.3925

>  <SCORE.INTER.norm>
-0.617403

>  <SCORE.INTRA>
0

>  <SCORE.INTRA.DIHEDRAL>
0

>  <SCORE.INTRA.DIHEDRAL.0>
0

>  <SCORE.INTRA.POLAR>
0

>  <SCORE.INTRA.POLAR.0>
0

>  <SCORE.INTRA.REPUL>
0

>  <SCORE.INTRA.REPUL.0>
0

>  <SCORE.INTRA.SOLV>
0

>  <SCORE.INTRA.SOLV.lig_0>
-49.4056

>  <SCORE.INTRA.VDW>
0

>  <SCORE.INTRA.VDW.0>
0

>  <SCORE.INTRA.norm>
0

>  <SCORE.RESTR>
0

>  <SCORE.RESTR.CAVITY>
0

>  <SCORE.RESTR.norm>
0

>  <SCORE.SYSTEM>
0

>  <SCORE.SYSTEM.CONST>
0

>  <SCORE.SYSTEM.DIHEDRAL>
0

>  <SCORE.SYSTEM.SOLV>
0

>  <SCORE.SYSTEM.norm>
0

>  <SCORE.heavy>
11

>  <SCORE.norm>
-0.617403

>  <RMSD>
12.903

$$$$
ligand
 OpenBabel11021811503D
libRbt.so/2013.1/901 2013/11/27
 11 12  0  0  0  0  0  0  0  0999 V2000
   -9.1211  -26.9026   31.5540 N   0  0  0  0  0  0  0  0  0  0  0  0
   -8.9239  -26.6983   30.2281 C   0  0  0  0  0  0  0  0  0  0  0  0
   -9.8772  -27.1627   29.2650 N   0  0  0  0  0  0  0  0  0  0  0  0
   -7.8256  -26.0602   29.7861 N   0  0  0  0  0  0  0  0  0  0  0  0
   -6.8725  -25.5894   30.6612 C   0  0  0  0  0  0  0  0  0  0  0  0
   -7.0465  -25.7862   32.0189 C   0  0  0  0  0  0  0  0  0  0  0  0
   -8.2175  -26.4711   32.4609 C   0  0  0  0  0  0  0  0  0  0  0  0
   -8.4283  -26.6937   33.8588 N   0  0  0  0  0  0  0  0  0  0  0  0
   -5.9511  -25.2224   32.6449 N   0  0  0  0  0  0  0  0  0  0  0  0
   -5.1323  -24.7048   31.7072 C   0  0  0  0  0  0  0  0  0  0  0  0
   -5.6705  -24.9170   30.4897 N   0  0  0  0  0  0  0  0  0  0  0  0
  1  7  2  0  0  0  0
  1  2  1  0  0  0  0
  2  3  1  0  0  0  0
  2  4  2  0  0  0  0
  4  5  1  0  0  0  0
  5  6  2  0  0  0  0
  5 11  1  0  0  0  0
  6  7  1  0  0  0  0
  6  9  1  0  0  0  0
  7  8  1  0  0  0  0
  9 10  1  0  0  0  0
 10 11  2  0  0  0  0
M  END
>  <CHROM.1>
-7.57317578,-26.03065033,31.32843888,2.81762171,-0.50571351,-1.49832791

>  <Name>
ligand

>  <RI>
0

>  <Rbt.Current_Directory>
/home/itssahil/PROJECTS/Mol_Feturizer/New_Systems/rnas/4LVZ

>  <Rbt.Executable>
rbdock ($Id: //depot/dev/client3/rdock/2013.1/src/exe/rbdock.cxx#4 $)

>  <Rbt.Library>
libRbt.so (2013.1, Build901 2013/11/27)

>  <Rbt.Parameter_File>
/export/apps/rDock/src/rDock_2013.1_src/data/scripts/dock_solv.prm

>  <Rbt.Receptor>
prm/blind_docking_80.prm

>  <SCORE>
-8.28966

>  <SCORE.INTER>
-8.28966

>  <SCORE.INTER.CONST>
1

>  <SCORE.INTER.POLAR>
0

>  <SCORE.INTER.ROT>
0

>  <SCORE.INTER.SOLV>
7.01668

>  <SCORE.INTER.VDW>
-11.4653

>  <SCORE.INTER.norm>
-0.753605

>  <SCORE.INTRA>
0

>  <SCORE.INTRA.DIHEDRAL>
0

>  <SCORE.INTRA.DIHEDRAL.0>
0

>  <SCORE.INTRA.POLAR>
0

>  <SCORE.INTRA.POLAR.0>
0

>  <SCORE.INTRA.REPUL>
0

>  <SCORE.INTRA.REPUL.0>
0

>  <SCORE.INTRA.SOLV>
0

>  <SCORE.INTRA.SOLV.lig_0>
-49.4056

>  <SCORE.INTRA.VDW>
0

>  <SCORE.INTRA.VDW.0>
0

>  <SCORE.INTRA.norm>
0

>  <SCORE.RESTR>
0

>  <SCORE.RESTR.CAVITY>
0

>  <SCORE.RESTR.norm>
0

>  <SCORE.SYSTEM>
0

>  <SCORE.SYSTEM.CONST>
0

>  <SCORE.SYSTEM.DIHEDRAL>
0

>  <SCORE.SYSTEM.SOLV>
0

>  <SCORE.SYSTEM.norm>
0

>  <SCORE.heavy>
11

>  <SCORE.norm>
-0.753605

>  <RMSD>
12.970

$$$$
ligand
 OpenBabel11021811503D
libRbt.so/2013.1/901 2013/11/27
 11 12  0  0  0  0  0  0  0  0999 V2000
   -9.2099  -26.9961   31.4046 N   0  0  0  0  0  0  0  0  0  0  0  0
   -9.0314  -26.7224   30.0887 C   0  0  0  0  0  0  0  0  0  0  0  0
   -9.9795  -27.1684   29.1119 N   0  0  0  0  0  0  0  0  0  0  0  0
   -7.9568  -26.0308   29.6694 N   0  0  0  0  0  0  0  0  0  0  0  0
   -7.0100  -25.5743   30.5586 C   0  0  0  0  0  0  0  0  0  0  0  0
   -7.1652  -25.8414   31.9065 C   0  0  0  0  0  0  0  0  0  0  0  0
   -8.3111  -26.5819   32.3242 C   0  0  0  0  0  0  0  0  0  0  0  0
   -8.5020  -26.8778   33.7113 N   0  0  0  0  0  0  0  0  0  0  0  0
   -6.0812  -25.2756   32.5504 N   0  0  0  0  0  0  0  0  0  0  0  0
   -5.2871  -24.6890   31.6323 C   0  0  0  0  0  0  0  0  0  0  0  0
   -5.8302  -24.8583   30.4103 N   0  0  0  0  0  0  0  0  0  0  0  0
  1  7  2  0  0  0  0
  1  2  1  0  0  0  0
  2  3  1  0  0  0  0
  2  4  2  0  0  0  0
  4  5  1  0  0  0  0
  5  6  2  0  0  0  0
  5 11  1  0  0  0  0
  6  7  1  0  0  0  0
  6  9  1  0  0  0  0
  7  8  1  0  0  0  0
  9 10  1  0  0  0  0
 10 11  2  0  0  0  0
M  END
>  <CHROM.1>
-7.69087305,-26.06806670,31.20928715,2.83105558,-0.53468094,-1.44328511

>  <Name>
ligand

>  <RI>
0

>  <Rbt.Current_Directory>
/home/itssahil/PROJECTS/Mol_Feturizer/New_Systems/rnas/4LVZ

>  <Rbt.Executable>
rbdock ($Id: //depot/dev/client3/rdock/2013.1/src/exe/rbdock.cxx#4 $)

>  <Rbt.Library>
libRbt.so (2013.1, Build901 2013/11/27)

>  <Rbt.Parameter_File>
/export/apps/rDock/src/rDock_2013.1_src/data/scripts/dock_solv.prm

>  <Rbt.Receptor>
prm/blind_docking_60.prm

>  <SCORE>
-8.25712

>  <SCORE.INTER>
-8.25712

>  <SCORE.INTER.CONST>
1

>  <SCORE.INTER.POLAR>
0

>  <SCORE.INTER.ROT>
0

>  <SCORE.INTER.SOLV>
7.14789

>  <SCORE.INTER.VDW>
-11.4874

>  <SCORE.INTER.norm>
-0.750647

>  <SCORE.INTRA>
0

>  <SCORE.INTRA.DIHEDRAL>
0

>  <SCORE.INTRA.DIHEDRAL.0>
0

>  <SCORE.INTRA.POLAR>
0

>  <SCORE.INTRA.POLAR.0>
0

>  <SCORE.INTRA.REPUL>
0

>  <SCORE.INTRA.REPUL.0>
0

>  <SCORE.INTRA.SOLV>
0

>  <SCORE.INTRA.SOLV.lig_0>
-49.4056

>  <SCORE.INTRA.VDW>
0

>  <SCORE.INTRA.VDW.0>
0

>  <SCORE.INTRA.norm>
0

>  <SCORE.RESTR>
0

>  <SCORE.RESTR.CAVITY>
0

>  <SCORE.RESTR.norm>
0

>  <SCORE.SYSTEM>
0

>  <SCORE.SYSTEM.CONST>
0

>  <SCORE.SYSTEM.DIHEDRAL>
0

>  <SCORE.SYSTEM.SOLV>
0

>  <SCORE.SYSTEM.norm>
0

>  <SCORE.heavy>
11

>  <SCORE.norm>
-0.750647

>  <RMSD>
13.025

$$$$
ligand
 OpenBabel11021811503D
libRbt.so/2013.1/901 2013/11/27
 11 12  0  0  0  0  0  0  0  0999 V2000
    3.3688  -26.0258   14.0989 N   0  0  0  0  0  0  0  0  0  0  0  0
    3.2823  -26.5300   15.3546 C   0  0  0  0  0  0  0  0  0  0  0  0
    4.4542  -26.9726   16.0494 N   0  0  0  0  0  0  0  0  0  0  0  0
    2.0932  -26.6319   15.9747 N   0  0  0  0  0  0  0  0  0  0  0  0
    0.9304  -26.2235   15.3607 C   0  0  0  0  0  0  0  0  0  0  0  0
    0.9888  -25.7078   14.0789 C   0  0  0  0  0  0  0  0  0  0  0  0
    2.2620  -25.6159   13.4416 C   0  0  0  0  0  0  0  0  0  0  0  0
    2.3586  -25.0891   12.1145 N   0  0  0  0  0  0  0  0  0  0  0  0
   -0.3073  -25.3902   13.7198 N   0  0  0  0  0  0  0  0  0  0  0  0
   -1.1312  -25.7049   14.7395 C   0  0  0  0  0  0  0  0  0  0  0  0
   -0.4015  -26.2161   15.7511 N   0  0  0  0  0  0  0  0  0  0  0  0
  1  7  2  0  0  0  0
  1  2  1  0  0  0  0
  2  3  1  0  0  0  0
  2  4  2  0  0  0  0
  4  5  1  0  0  0  0
  5  6  2  0  0  0  0
  5 11  1  0  0  0  0
  6  7  1  0  0  0  0
  6  9  1  0  0  0  0
  7  8  1  0  0  0  0
  9 10  1  0  0  0  0
 10 11  2  0  0  0  0
M  END
>  <CHROM.1>
1.65209971,-26.01349829,14.60848717,-0.22176260,0.12046685,-1.18214801

>  <Name>
ligand

>  <RI>
0

>  <Rbt.Current_Directory>
/home/itssahil/PROJECTS/Mol_Feturizer/New_Systems/rnas/4LVZ

>  <Rbt.Executable>
rbdock ($Id: //depot/dev/client3/rdock/2013.1/src/exe/rbdock.cxx#4 $)

>  <Rbt.Library>
libRbt.so (2013.1, Build901 2013/11/27)

>  <Rbt.Parameter_File>
/export/apps/rDock/src/rDock_2013.1_src/data/scripts/dock_solv.prm

>  <Rbt.Receptor>
prm/blind_docking_40.prm

>  <SCORE>
-7.45366

>  <SCORE.INTER>
-7.45366

>  <SCORE.INTER.CONST>
1

>  <SCORE.INTER.POLAR>
0

>  <SCORE.INTER.ROT>
0

>  <SCORE.INTER.SOLV>
5.86438

>  <SCORE.INTER.VDW>
-10.5239

>  <SCORE.INTER.norm>
-0.677605

>  <SCORE.INTRA>
0

>  <SCORE.INTRA.DIHEDRAL>
0

>  <SCORE.INTRA.DIHEDRAL.0>
0

>  <SCORE.INTRA.POLAR>
0

>  <SCORE.INTRA.POLAR.0>
0

>  <SCORE.INTRA.REPUL>
0

>  <SCORE.INTRA.REPUL.0>
0

>  <SCORE.INTRA.SOLV>
0

>  <SCORE.INTRA.SOLV.lig_0>
-49.4056

>  <SCORE.INTRA.VDW>
0

>  <SCORE.INTRA.VDW.0>
0

>  <SCORE.INTRA.norm>
0

>  <SCORE.RESTR>
0

>  <SCORE.RESTR.CAVITY>
0

>  <SCORE.RESTR.norm>
0

>  <SCORE.SYSTEM>
0

>  <SCORE.SYSTEM.CONST>
0

>  <SCORE.SYSTEM.DIHEDRAL>
0

>  <SCORE.SYSTEM.SOLV>
0

>  <SCORE.SYSTEM.norm>
0

>  <SCORE.heavy>
11

>  <SCORE.norm>
-0.677605

>  <RMSD>
13.037

$$$$
ligand
 OpenBabel11021811503D
libRbt.so/2013.1/901 2013/11/27
 11 12  0  0  0  0  0  0  0  0999 V2000
    3.3611  -26.0331   14.0870 N   0  0  0  0  0  0  0  0  0  0  0  0
    3.2763  -26.5297   15.3459 C   0  0  0  0  0  0  0  0  0  0  0  0
    4.4485  -26.9737   16.0394 N   0  0  0  0  0  0  0  0  0  0  0  0
    2.0888  -26.6223   15.9704 N   0  0  0  0  0  0  0  0  0  0  0  0
    0.9260  -26.2120   15.3579 C   0  0  0  0  0  0  0  0  0  0  0  0
    0.9825  -25.7041   14.0729 C   0  0  0  0  0  0  0  0  0  0  0  0
    2.2541  -25.6219   13.4309 C   0  0  0  0  0  0  0  0  0  0  0  0
    2.3487  -25.1033   12.1005 N   0  0  0  0  0  0  0  0  0  0  0  0
   -0.3133  -25.3824   13.7162 N   0  0  0  0  0  0  0  0  0  0  0  0
   -1.1352  -25.6873   14.7405 C   0  0  0  0  0  0  0  0  0  0  0  0
   -0.4046  -26.1960   15.7526 N   0  0  0  0  0  0  0  0  0  0  0  0
  1  7  2  0  0  0  0
  1  2  1  0  0  0  0
  2  3  1  0  0  0  0
  2  4  2  0  0  0  0
  4  5  1  0  0  0  0
  5  6  2  0  0  0  0
  5 11  1  0  0  0  0
  6  7  1  0  0  0  0
  6  9  1  0  0  0  0
  7  8  1  0  0  0  0
  9 10  1  0  0  0  0
 10 11  2  0  0  0  0
M  END
>  <CHROM.1>
1.64614523,-26.00979220,14.60207576,-0.22046550,0.12607197,-1.18814472

>  <Name>
ligand

>  <RI>
0

>  <Rbt.Current_Directory>
/home/itssahil/PROJECTS/Mol_Feturizer/New_Systems/rnas/4LVZ

>  <Rbt.Executable>
rbdock ($Id: //depot/dev/client3/rdock/2013.1/src/exe/rbdock.cxx#4 $)

>  <Rbt.Library>
libRbt.so (2013.1, Build901 2013/11/27)

>  <Rbt.Parameter_File>
/export/apps/rDock/src/rDock_2013.1_src/data/scripts/dock_solv.prm

>  <Rbt.Receptor>
prm/blind_docking_40.prm

>  <SCORE>
-7.45788

>  <SCORE.INTER>
-7.45788

>  <SCORE.INTER.CONST>
1

>  <SCORE.INTER.POLAR>
0

>  <SCORE.INTER.ROT>
0

>  <SCORE.INTER.SOLV>
5.76787

>  <SCORE.INTER.VDW>
-10.4945

>  <SCORE.INTER.norm>
-0.677989

>  <SCORE.INTRA>
0

>  <SCORE.INTRA.DIHEDRAL>
0

>  <SCORE.INTRA.DIHEDRAL.0>
0

>  <SCORE.INTRA.POLAR>
0

>  <SCORE.INTRA.POLAR.0>
0

>  <SCORE.INTRA.REPUL>
0

>  <SCORE.INTRA.REPUL.0>
0

>  <SCORE.INTRA.SOLV>
0

>  <SCORE.INTRA.SOLV.lig_0>
-49.4056

>  <SCORE.INTRA.VDW>
0

>  <SCORE.INTRA.VDW.0>
0

>  <SCORE.INTRA.norm>
0

>  <SCORE.RESTR>
0

>  <SCORE.RESTR.CAVITY>
0

>  <SCORE.RESTR.norm>
0

>  <SCORE.SYSTEM>
0

>  <SCORE.SYSTEM.CONST>
0

>  <SCORE.SYSTEM.DIHEDRAL>
0

>  <SCORE.SYSTEM.SOLV>
0

>  <SCORE.SYSTEM.norm>
0

>  <SCORE.heavy>
11

>  <SCORE.norm>
-0.677989

>  <RMSD>
13.041

$$$$
ligand
 OpenBabel11021811503D
libRbt.so/2013.1/901 2013/11/27
 11 12  0  0  0  0  0  0  0  0999 V2000
   -9.2187  -27.0113   31.4522 N   0  0  0  0  0  0  0  0  0  0  0  0
   -9.0397  -26.7700   30.1300 C   0  0  0  0  0  0  0  0  0  0  0  0
   -9.9879  -27.2393   29.1642 N   0  0  0  0  0  0  0  0  0  0  0  0
   -7.9646  -26.0897   29.6941 N   0  0  0  0  0  0  0  0  0  0  0  0
   -7.0176  -25.6121   30.5721 C   0  0  0  0  0  0  0  0  0  0  0  0
   -7.1733  -25.8459   31.9261 C   0  0  0  0  0  0  0  0  0  0  0  0
   -8.3198  -26.5751   32.3616 C   0  0  0  0  0  0  0  0  0  0  0  0
   -8.5112  -26.8368   33.7554 N   0  0  0  0  0  0  0  0  0  0  0  0
   -6.0891  -25.2651   32.5562 N   0  0  0  0  0  0  0  0  0  0  0  0
   -5.2943  -24.7018   31.6241 C   0  0  0  0  0  0  0  0  0  0  0  0
   -5.8373  -24.9008   30.4065 N   0  0  0  0  0  0  0  0  0  0  0  0
  1  7  2  0  0  0  0
  1  2  1  0  0  0  0
  2  3  1  0  0  0  0
  2  4  2  0  0  0  0
  4  5  1  0  0  0  0
  5  6  2  0  0  0  0
  5 11  1  0  0  0  0
  6  7  1  0  0  0  0
  6  9  1  0  0  0  0
  7  8  1  0  0  0  0
  9 10  1  0  0  0  0
 10 11  2  0  0  0  0
M  END
>  <CHROM.1>
-7.69897651,-26.08926950,31.23451257,2.83068715,-0.53403970,-1.46804675

>  <Name>
ligand

>  <RI>
0

>  <Rbt.Current_Directory>
/home/itssahil/PROJECTS/Mol_Feturizer/New_Systems/rnas/4LVZ

>  <Rbt.Executable>
rbdock ($Id: //depot/dev/client3/rdock/2013.1/src/exe/rbdock.cxx#4 $)

>  <Rbt.Library>
libRbt.so (2013.1, Build901 2013/11/27)

>  <Rbt.Parameter_File>
/export/apps/rDock/src/rDock_2013.1_src/data/scripts/dock_solv.prm

>  <Rbt.Receptor>
prm/blind_docking_60.prm

>  <SCORE>
-8.24751

>  <SCORE.INTER>
-8.24751

>  <SCORE.INTER.CONST>
1

>  <SCORE.INTER.POLAR>
0

>  <SCORE.INTER.ROT>
0

>  <SCORE.INTER.SOLV>
6.78268

>  <SCORE.INTER.VDW>
-11.3592

>  <SCORE.INTER.norm>
-0.749773

>  <SCORE.INTRA>
0

>  <SCORE.INTRA.DIHEDRAL>
0

>  <SCORE.INTRA.DIHEDRAL.0>
0

>  <SCORE.INTRA.POLAR>
0

>  <SCORE.INTRA.POLAR.0>
0

>  <SCORE.INTRA.REPUL>
0

>  <SCORE.INTRA.REPUL.0>
0

>  <SCORE.INTRA.SOLV>
0

>  <SCORE.INTRA.SOLV.lig_0>
-49.4056

>  <SCORE.INTRA.VDW>
0

>  <SCORE.INTRA.VDW.0>
0

>  <SCORE.INTRA.norm>
0

>  <SCORE.RESTR>
0

>  <SCORE.RESTR.CAVITY>
0

>  <SCORE.RESTR.norm>
0

>  <SCORE.SYSTEM>
0

>  <SCORE.SYSTEM.CONST>
0

>  <SCORE.SYSTEM.DIHEDRAL>
0

>  <SCORE.SYSTEM.SOLV>
0

>  <SCORE.SYSTEM.norm>
0

>  <SCORE.heavy>
11

>  <SCORE.norm>
-0.749773

>  <RMSD>
13.051

$$$$
ligand
 OpenBabel11021811503D
libRbt.so/2013.1/901 2013/11/27
 11 12  0  0  0  0  0  0  0  0999 V2000
    3.4605  -26.1876   14.0319 N   0  0  0  0  0  0  0  0  0  0  0  0
    3.4119  -26.5850   15.3274 C   0  0  0  0  0  0  0  0  0  0  0  0
    4.5970  -27.0157   16.0071 N   0  0  0  0  0  0  0  0  0  0  0  0
    2.2487  -26.5897   16.0024 N   0  0  0  0  0  0  0  0  0  0  0  0
    1.0751  -26.1869   15.4057 C   0  0  0  0  0  0  0  0  0  0  0  0
    1.0948  -25.7791   14.0844 C   0  0  0  0  0  0  0  0  0  0  0  0
    2.3409  -25.7891   13.3894 C   0  0  0  0  0  0  0  0  0  0  0  0
    2.3970  -25.3753   12.0206 N   0  0  0  0  0  0  0  0  0  0  0  0
   -0.2039  -25.4408   13.7543 N   0  0  0  0  0  0  0  0  0  0  0  0
   -0.9922  -25.6396   14.8298 C   0  0  0  0  0  0  0  0  0  0  0  0
   -0.2370  -26.0957   15.8489 N   0  0  0  0  0  0  0  0  0  0  0  0
  1  7  2  0  0  0  0
  1  2  1  0  0  0  0
  2  3  1  0  0  0  0
  2  4  2  0  0  0  0
  4  5  1  0  0  0  0
  5  6  2  0  0  0  0
  5 11  1  0  0  0  0
  6  7  1  0  0  0  0
  6  9  1  0  0  0  0
  7  8  1  0  0  0  0
  9 10  1  0  0  0  0
 10 11  2  0  0  0  0
M  END
>  <CHROM.1>
1.76963139,-26.06681718,14.60939947,-0.19370950,0.17039053,-1.26793965

>  <Name>
ligand

>  <RI>
0

>  <Rbt.Current_Directory>
/home/itssahil/PROJECTS/Mol_Feturizer/New_Systems/rnas/4LVZ

>  <Rbt.Executable>
rbdock ($Id: //depot/dev/client3/rdock/2013.1/src/exe/rbdock.cxx#4 $)

>  <Rbt.Library>
libRbt.so (2013.1, Build901 2013/11/27)

>  <Rbt.Parameter_File>
/export/apps/rDock/src/rDock_2013.1_src/data/scripts/dock_solv.prm

>  <Rbt.Receptor>
prm/blind_docking_40.prm

>  <SCORE>
-7.42907

>  <SCORE.INTER>
-7.42907

>  <SCORE.INTER.CONST>
1

>  <SCORE.INTER.POLAR>
0

>  <SCORE.INTER.ROT>
0

>  <SCORE.INTER.SOLV>
4.82645

>  <SCORE.INTER.VDW>
-10.1615

>  <SCORE.INTER.norm>
-0.67537

>  <SCORE.INTRA>
0

>  <SCORE.INTRA.DIHEDRAL>
0

>  <SCORE.INTRA.DIHEDRAL.0>
0

>  <SCORE.INTRA.POLAR>
0

>  <SCORE.INTRA.POLAR.0>
0

>  <SCORE.INTRA.REPUL>
0

>  <SCORE.INTRA.REPUL.0>
0

>  <SCORE.INTRA.SOLV>
0

>  <SCORE.INTRA.SOLV.lig_0>
-49.4056

>  <SCORE.INTRA.VDW>
0

>  <SCORE.INTRA.VDW.0>
0

>  <SCORE.INTRA.norm>
0

>  <SCORE.RESTR>
0

>  <SCORE.RESTR.CAVITY>
0

>  <SCORE.RESTR.norm>
0

>  <SCORE.SYSTEM>
0

>  <SCORE.SYSTEM.CONST>
0

>  <SCORE.SYSTEM.DIHEDRAL>
0

>  <SCORE.SYSTEM.SOLV>
0

>  <SCORE.SYSTEM.norm>
0

>  <SCORE.heavy>
11

>  <SCORE.norm>
-0.67537

>  <RMSD>
13.053

$$$$
ligand
 OpenBabel11021811503D
libRbt.so/2013.1/901 2013/11/27
 11 12  0  0  0  0  0  0  0  0999 V2000
    3.3518  -26.0638   14.0717 N   0  0  0  0  0  0  0  0  0  0  0  0
    3.2706  -26.5357   15.3403 C   0  0  0  0  0  0  0  0  0  0  0  0
    4.4438  -26.9723   16.0367 N   0  0  0  0  0  0  0  0  0  0  0  0
    2.0856  -26.6102   15.9721 N   0  0  0  0  0  0  0  0  0  0  0  0
    0.9219  -26.2058   15.3573 C   0  0  0  0  0  0  0  0  0  0  0  0
    0.9749  -25.7229   14.0625 C   0  0  0  0  0  0  0  0  0  0  0  0
    2.2438  -25.6596   13.4130 C   0  0  0  0  0  0  0  0  0  0  0  0
    2.3347  -25.1671   12.0725 N   0  0  0  0  0  0  0  0  0  0  0  0
   -0.3209  -25.4015   13.7057 N   0  0  0  0  0  0  0  0  0  0  0  0
   -1.1395  -25.6824   14.7395 C   0  0  0  0  0  0  0  0  0  0  0  0
   -0.4067  -26.1754   15.7578 N   0  0  0  0  0  0  0  0  0  0  0  0
  1  7  2  0  0  0  0
  1  2  1  0  0  0  0
  2  3  1  0  0  0  0
  2  4  2  0  0  0  0
  4  5  1  0  0  0  0
  5  6  2  0  0  0  0
  5 11  1  0  0  0  0
  6  7  1  0  0  0  0
  6  9  1  0  0  0  0
  7  8  1  0  0  0  0
  9 10  1  0  0  0  0
 10 11  2  0  0  0  0
M  END
>  <CHROM.1>
1.63948199,-26.02179687,14.59431507,-0.21789202,0.13253927,-1.20769708

>  <Name>
ligand

>  <RI>
0

>  <Rbt.Current_Directory>
/home/itssahil/PROJECTS/Mol_Feturizer/New_Systems/rnas/4LVZ

>  <Rbt.Executable>
rbdock ($Id: //depot/dev/client3/rdock/2013.1/src/exe/rbdock.cxx#4 $)

>  <Rbt.Library>
libRbt.so (2013.1, Build901 2013/11/27)

>  <Rbt.Parameter_File>
/export/apps/rDock/src/rDock_2013.1_src/data/scripts/dock_solv.prm

>  <Rbt.Receptor>
prm/blind_docking_60.prm

>  <SCORE>
-7.46246

>  <SCORE.INTER>
-7.46246

>  <SCORE.INTER.CONST>
1

>  <SCORE.INTER.POLAR>
0

>  <SCORE.INTER.ROT>
0

>  <SCORE.INTER.SOLV>
5.58929

>  <SCORE.INTER.VDW>
-10.4381

>  <SCORE.INTER.norm>
-0.678405

>  <SCORE.INTRA>
0

>  <SCORE.INTRA.DIHEDRAL>
0

>  <SCORE.INTRA.DIHEDRAL.0>
0

>  <SCORE.INTRA.POLAR>
0

>  <SCORE.INTRA.POLAR.0>
0

>  <SCORE.INTRA.REPUL>
0

>  <SCORE.INTRA.REPUL.0>
0

>  <SCORE.INTRA.SOLV>
0

>  <SCORE.INTRA.SOLV.lig_0>
-49.4056

>  <SCORE.INTRA.VDW>
0

>  <SCORE.INTRA.VDW.0>
0

>  <SCORE.INTRA.norm>
0

>  <SCORE.RESTR>
0

>  <SCORE.RESTR.CAVITY>
0

>  <SCORE.RESTR.norm>
0

>  <SCORE.SYSTEM>
0

>  <SCORE.SYSTEM.CONST>
0

>  <SCORE.SYSTEM.DIHEDRAL>
0

>  <SCORE.SYSTEM.SOLV>
0

>  <SCORE.SYSTEM.norm>
0

>  <SCORE.heavy>
11

>  <SCORE.norm>
-0.678405

>  <RMSD>
13.053

$$$$
ligand
 OpenBabel11021811503D
libRbt.so/2013.1/901 2013/11/27
 11 12  0  0  0  0  0  0  0  0999 V2000
    4.4011  -27.0809   14.3546 N   0  0  0  0  0  0  0  0  0  0  0  0
    3.0573  -26.9027   14.3248 C   0  0  0  0  0  0  0  0  0  0  0  0
    2.4171  -26.3452   13.1710 N   0  0  0  0  0  0  0  0  0  0  0  0
    2.2950  -27.2397   15.3803 N   0  0  0  0  0  0  0  0  0  0  0  0
    2.8500  -27.7804   16.5184 C   0  0  0  0  0  0  0  0  0  0  0  0
    4.2185  -27.9707   16.5775 C   0  0  0  0  0  0  0  0  0  0  0  0
    5.0049  -27.5994   15.4463 C   0  0  0  0  0  0  0  0  0  0  0  0
    6.4241  -27.7807   15.4743 N   0  0  0  0  0  0  0  0  0  0  0  0
    4.4900  -28.5150   17.8183 N   0  0  0  0  0  0  0  0  0  0  0  0
    3.3333  -28.6480   18.4980 C   0  0  0  0  0  0  0  0  0  0  0  0
    2.3190  -28.2058   17.7282 N   0  0  0  0  0  0  0  0  0  0  0  0
  1  7  2  0  0  0  0
  1  2  1  0  0  0  0
  2  3  1  0  0  0  0
  2  4  2  0  0  0  0
  4  5  1  0  0  0  0
  5  6  2  0  0  0  0
  5 11  1  0  0  0  0
  6  7  1  0  0  0  0
  6  9  1  0  0  0  0
  7  8  1  0  0  0  0
  9 10  1  0  0  0  0
 10 11  2  0  0  0  0
M  END
>  <CHROM.1>
3.71122675,-27.63304221,15.91223602,-1.65794261,-0.11272216,1.96081656

>  <Name>
ligand

>  <RI>
0

>  <Rbt.Current_Directory>
/home/itssahil/PROJECTS/Mol_Feturizer/New_Systems/rnas/4LVZ

>  <Rbt.Executable>
rbdock ($Id: //depot/dev/client3/rdock/2013.1/src/exe/rbdock.cxx#4 $)

>  <Rbt.Library>
libRbt.so (2013.1, Build901 2013/11/27)

>  <Rbt.Parameter_File>
/export/apps/rDock/src/rDock_2013.1_src/data/scripts/dock_solv.prm

>  <Rbt.Receptor>
prm/blind_docking_100.prm

>  <SCORE>
-6.68097

>  <SCORE.INTER>
-6.68097

>  <SCORE.INTER.CONST>
1

>  <SCORE.INTER.POLAR>
0

>  <SCORE.INTER.ROT>
0

>  <SCORE.INTER.SOLV>
2.99184

>  <SCORE.INTER.VDW>
-9.05126

>  <SCORE.INTER.norm>
-0.607361

>  <SCORE.INTRA>
0

>  <SCORE.INTRA.DIHEDRAL>
0

>  <SCORE.INTRA.DIHEDRAL.0>
0

>  <SCORE.INTRA.POLAR>
0

>  <SCORE.INTRA.POLAR.0>
0

>  <SCORE.INTRA.REPUL>
0

>  <SCORE.INTRA.REPUL.0>
0

>  <SCORE.INTRA.SOLV>
0

>  <SCORE.INTRA.SOLV.lig_0>
-49.4056

>  <SCORE.INTRA.VDW>
0

>  <SCORE.INTRA.VDW.0>
0

>  <SCORE.INTRA.norm>
0

>  <SCORE.RESTR>
0

>  <SCORE.RESTR.CAVITY>
0

>  <SCORE.RESTR.norm>
0

>  <SCORE.SYSTEM>
0

>  <SCORE.SYSTEM.CONST>
0

>  <SCORE.SYSTEM.DIHEDRAL>
0

>  <SCORE.SYSTEM.SOLV>
0

>  <SCORE.SYSTEM.norm>
0

>  <SCORE.heavy>
11

>  <SCORE.norm>
-0.607361

>  <RMSD>
13.082

$$$$
ligand
 OpenBabel11021811503D
libRbt.so/2013.1/901 2013/11/27
 11 12  0  0  0  0  0  0  0  0999 V2000
    4.3995  -27.0851   14.3570 N   0  0  0  0  0  0  0  0  0  0  0  0
    3.0552  -26.9103   14.3285 C   0  0  0  0  0  0  0  0  0  0  0  0
    2.4127  -26.3526   13.1760 N   0  0  0  0  0  0  0  0  0  0  0  0
    2.2945  -27.2511   15.3839 N   0  0  0  0  0  0  0  0  0  0  0  0
    2.8518  -27.7922   16.5207 C   0  0  0  0  0  0  0  0  0  0  0  0
    4.2207  -27.9791   16.5785 C   0  0  0  0  0  0  0  0  0  0  0  0
    5.0054  -27.6039   15.4474 C   0  0  0  0  0  0  0  0  0  0  0  0
    6.4251  -27.7816   15.4740 N   0  0  0  0  0  0  0  0  0  0  0  0
    4.4946  -28.5249   17.8182 N   0  0  0  0  0  0  0  0  0  0  0  0
    3.3387  -28.6619   18.4985 C   0  0  0  0  0  0  0  0  0  0  0  0
    2.3227  -28.2210   17.7302 N   0  0  0  0  0  0  0  0  0  0  0  0
  1  7  2  0  0  0  0
  1  2  1  0  0  0  0
  2  3  1  0  0  0  0
  2  4  2  0  0  0  0
  4  5  1  0  0  0  0
  5  6  2  0  0  0  0
  5 11  1  0  0  0  0
  6  7  1  0  0  0  0
  6  9  1  0  0  0  0
  7  8  1  0  0  0  0
  9 10  1  0  0  0  0
 10 11  2  0  0  0  0
M  END
>  <CHROM.1>
3.71215772,-27.64167755,15.91420072,-1.65959475,-0.11062725,1.96230746

>  <Name>
ligand

>  <RI>
0

>  <Rbt.Current_Directory>
/home/itssahil/PROJECTS/Mol_Feturizer/New_Systems/rnas/4LVZ

>  <Rbt.Executable>
rbdock ($Id: //depot/dev/client3/rdock/2013.1/src/exe/rbdock.cxx#4 $)

>  <Rbt.Library>
libRbt.so (2013.1, Build901 2013/11/27)

>  <Rbt.Parameter_File>
/export/apps/rDock/src/rDock_2013.1_src/data/scripts/dock_solv.prm

>  <Rbt.Receptor>
prm/blind_docking_100.prm

>  <SCORE>
-6.68829

>  <SCORE.INTER>
-6.68829

>  <SCORE.INTER.CONST>
1

>  <SCORE.INTER.POLAR>
0

>  <SCORE.INTER.ROT>
0

>  <SCORE.INTER.SOLV>
2.97906

>  <SCORE.INTER.VDW>
-9.05188

>  <SCORE.INTER.norm>
-0.608026

>  <SCORE.INTRA>
0

>  <SCORE.INTRA.DIHEDRAL>
0

>  <SCORE.INTRA.DIHEDRAL.0>
0

>  <SCORE.INTRA.POLAR>
0

>  <SCORE.INTRA.POLAR.0>
0

>  <SCORE.INTRA.REPUL>
0

>  <SCORE.INTRA.REPUL.0>
0

>  <SCORE.INTRA.SOLV>
0

>  <SCORE.INTRA.SOLV.lig_0>
-49.4056

>  <SCORE.INTRA.VDW>
0

>  <SCORE.INTRA.VDW.0>
0

>  <SCORE.INTRA.norm>
0

>  <SCORE.RESTR>
0

>  <SCORE.RESTR.CAVITY>
0

>  <SCORE.RESTR.norm>
0

>  <SCORE.SYSTEM>
0

>  <SCORE.SYSTEM.CONST>
0

>  <SCORE.SYSTEM.DIHEDRAL>
0

>  <SCORE.SYSTEM.SOLV>
0

>  <SCORE.SYSTEM.norm>
0

>  <SCORE.heavy>
11

>  <SCORE.norm>
-0.608026

>  <RMSD>
13.085

$$$$
ligand
 OpenBabel11021811503D
libRbt.so/2013.1/901 2013/11/27
 11 12  0  0  0  0  0  0  0  0999 V2000
    3.2851  -26.0691   13.9095 N   0  0  0  0  0  0  0  0  0  0  0  0
    3.2724  -26.5442   15.1794 C   0  0  0  0  0  0  0  0  0  0  0  0
    4.4815  -26.9827   15.8103 N   0  0  0  0  0  0  0  0  0  0  0  0
    2.1233  -26.6203   15.8741 N   0  0  0  0  0  0  0  0  0  0  0  0
    0.9282  -26.2143   15.3241 C   0  0  0  0  0  0  0  0  0  0  0  0
    0.9112  -25.7281   14.0296 C   0  0  0  0  0  0  0  0  0  0  0  0
    2.1431  -25.6632   13.3127 C   0  0  0  0  0  0  0  0  0  0  0  0
    2.1615  -25.1673   11.9704 N   0  0  0  0  0  0  0  0  0  0  0  0
   -0.4020  -25.4058   13.7442 N   0  0  0  0  0  0  0  0  0  0  0  0
   -1.1636  -25.6893   14.8200 C   0  0  0  0  0  0  0  0  0  0  0  0
   -0.3768  -26.1849   15.7959 N   0  0  0  0  0  0  0  0  0  0  0  0
  1  7  2  0  0  0  0
  1  2  1  0  0  0  0
  2  3  1  0  0  0  0
  2  4  2  0  0  0  0
  4  5  1  0  0  0  0
  5  6  2  0  0  0  0
  5 11  1  0  0  0  0
  6  7  1  0  0  0  0
  6  9  1  0  0  0  0
  7  8  1  0  0  0  0
  9 10  1  0  0  0  0
 10 11  2  0  0  0  0
M  END
>  <CHROM.1>
1.60347960,-26.02841293,14.52398085,-0.16682129,0.15172011,-1.21236258

>  <Name>
ligand

>  <RI>
0

>  <Rbt.Current_Directory>
/home/itssahil/PROJECTS/Mol_Feturizer/New_Systems/rnas/4LVZ

>  <Rbt.Executable>
rbdock ($Id: //depot/dev/client3/rdock/2013.1/src/exe/rbdock.cxx#4 $)

>  <Rbt.Library>
libRbt.so (2013.1, Build901 2013/11/27)

>  <Rbt.Parameter_File>
/export/apps/rDock/src/rDock_2013.1_src/data/scripts/dock_solv.prm

>  <Rbt.Receptor>
prm/blind_docking_40.prm

>  <SCORE>
-7.47499

>  <SCORE.INTER>
-7.47499

>  <SCORE.INTER.CONST>
1

>  <SCORE.INTER.POLAR>
0

>  <SCORE.INTER.ROT>
0

>  <SCORE.INTER.SOLV>
4.89797

>  <SCORE.INTER.VDW>
-10.216

>  <SCORE.INTER.norm>
-0.679545

>  <SCORE.INTRA>
0

>  <SCORE.INTRA.DIHEDRAL>
0

>  <SCORE.INTRA.DIHEDRAL.0>
0

>  <SCORE.INTRA.POLAR>
0

>  <SCORE.INTRA.POLAR.0>
0

>  <SCORE.INTRA.REPUL>
0

>  <SCORE.INTRA.REPUL.0>
0

>  <SCORE.INTRA.SOLV>
0

>  <SCORE.INTRA.SOLV.lig_0>
-49.4056

>  <SCORE.INTRA.VDW>
0

>  <SCORE.INTRA.VDW.0>
0

>  <SCORE.INTRA.norm>
0

>  <SCORE.RESTR>
0

>  <SCORE.RESTR.CAVITY>
0

>  <SCORE.RESTR.norm>
0

>  <SCORE.SYSTEM>
0

>  <SCORE.SYSTEM.CONST>
0

>  <SCORE.SYSTEM.DIHEDRAL>
0

>  <SCORE.SYSTEM.SOLV>
0

>  <SCORE.SYSTEM.norm>
0

>  <SCORE.heavy>
11

>  <SCORE.norm>
-0.679545

>  <RMSD>
13.121

$$$$
ligand
 OpenBabel11021811503D
libRbt.so/2013.1/901 2013/11/27
 11 12  0  0  0  0  0  0  0  0999 V2000
    1.9400  -26.3509   14.2503 N   0  0  0  0  0  0  0  0  0  0  0  0
    3.0037  -27.0355   13.7620 C   0  0  0  0  0  0  0  0  0  0  0  0
    3.4374  -26.8490   12.4095 N   0  0  0  0  0  0  0  0  0  0  0  0
    3.6726  -27.9099   14.5345 N   0  0  0  0  0  0  0  0  0  0  0  0
    3.3055  -28.1334   15.8425 C   0  0  0  0  0  0  0  0  0  0  0  0
    2.2226  -27.4510   16.3660 C   0  0  0  0  0  0  0  0  0  0  0  0
    1.5269  -26.5333   15.5236 C   0  0  0  0  0  0  0  0  0  0  0  0
    0.4006  -25.8118   16.0323 N   0  0  0  0  0  0  0  0  0  0  0  0
    2.0850  -27.8701   17.6756 N   0  0  0  0  0  0  0  0  0  0  0  0
    3.0427  -28.7802   17.9444 C   0  0  0  0  0  0  0  0  0  0  0  0
    3.7988  -28.9595   16.8429 N   0  0  0  0  0  0  0  0  0  0  0  0
  1  7  2  0  0  0  0
  1  2  1  0  0  0  0
  2  3  1  0  0  0  0
  2  4  2  0  0  0  0
  4  5  1  0  0  0  0
  5  6  2  0  0  0  0
  5 11  1  0  0  0  0
  6  7  1  0  0  0  0
  6  9  1  0  0  0  0
  7  8  1  0  0  0  0
  9 10  1  0  0  0  0
 10 11  2  0  0  0  0
M  END
>  <CHROM.1>
2.58264215,-27.41476272,15.53959871,1.55636669,0.65478100,-1.18321928

>  <Name>
ligand

>  <RI>
0

>  <Rbt.Current_Directory>
/home/itssahil/PROJECTS/Mol_Feturizer/New_Systems/rnas/4LVZ

>  <Rbt.Executable>
rbdock ($Id: //depot/dev/client3/rdock/2013.1/src/exe/rbdock.cxx#4 $)

>  <Rbt.Library>
libRbt.so (2013.1, Build901 2013/11/27)

>  <Rbt.Parameter_File>
/export/apps/rDock/src/rDock_2013.1_src/data/scripts/dock_solv.prm

>  <Rbt.Receptor>
prm/blind_docking_40.prm

>  <SCORE>
-4.52279

>  <SCORE.INTER>
-4.52279

>  <SCORE.INTER.CONST>
1

>  <SCORE.INTER.POLAR>
0

>  <SCORE.INTER.ROT>
0

>  <SCORE.INTER.SOLV>
10.5031

>  <SCORE.INTER.VDW>
-10.1162

>  <SCORE.INTER.norm>
-0.411163

>  <SCORE.INTRA>
0

>  <SCORE.INTRA.DIHEDRAL>
0

>  <SCORE.INTRA.DIHEDRAL.0>
0

>  <SCORE.INTRA.POLAR>
0

>  <SCORE.INTRA.POLAR.0>
0

>  <SCORE.INTRA.REPUL>
0

>  <SCORE.INTRA.REPUL.0>
0

>  <SCORE.INTRA.SOLV>
0

>  <SCORE.INTRA.SOLV.lig_0>
-49.4056

>  <SCORE.INTRA.VDW>
0

>  <SCORE.INTRA.VDW.0>
0

>  <SCORE.INTRA.norm>
0

>  <SCORE.RESTR>
0

>  <SCORE.RESTR.CAVITY>
0

>  <SCORE.RESTR.norm>
0

>  <SCORE.SYSTEM>
0

>  <SCORE.SYSTEM.CONST>
0

>  <SCORE.SYSTEM.DIHEDRAL>
0

>  <SCORE.SYSTEM.SOLV>
0

>  <SCORE.SYSTEM.norm>
0

>  <SCORE.heavy>
11

>  <SCORE.norm>
-0.411163

>  <RMSD>
13.277

$$$$
ligand
 OpenBabel11021811503D
libRbt.so/2013.1/901 2013/11/27
 11 12  0  0  0  0  0  0  0  0999 V2000
    3.2551  -26.0908   13.3788 N   0  0  0  0  0  0  0  0  0  0  0  0
    3.4431  -26.4464   14.6737 C   0  0  0  0  0  0  0  0  0  0  0  0
    4.7377  -26.8371   15.1462 N   0  0  0  0  0  0  0  0  0  0  0  0
    2.4169  -26.4462   15.5431 N   0  0  0  0  0  0  0  0  0  0  0  0
    1.1488  -26.0804   15.1510 C   0  0  0  0  0  0  0  0  0  0  0  0
    0.9277  -25.7158   13.8355 C   0  0  0  0  0  0  0  0  0  0  0  0
    2.0322  -25.7301   12.9323 C   0  0  0  0  0  0  0  0  0  0  0  0
    1.8385  -25.3604   11.5634 N   0  0  0  0  0  0  0  0  0  0  0  0
   -0.4153  -25.4076   13.7297 N   0  0  0  0  0  0  0  0  0  0  0  0
   -0.9982  -25.5827   14.9327 C   0  0  0  0  0  0  0  0  0  0  0  0
   -0.0666  -25.9941   15.8157 N   0  0  0  0  0  0  0  0  0  0  0  0
  1  7  2  0  0  0  0
  1  2  1  0  0  0  0
  2  3  1  0  0  0  0
  2  4  2  0  0  0  0
  4  5  1  0  0  0  0
  5  6  2  0  0  0  0
  5 11  1  0  0  0  0
  6  7  1  0  0  0  0
  6  9  1  0  0  0  0
  7  8  1  0  0  0  0
  9 10  1  0  0  0  0
 10 11  2  0  0  0  0
M  END
>  <CHROM.1>
1.69000284,-25.97617507,14.24153012,-0.01539195,0.20084560,-1.33231871

>  <Name>
ligand

>  <RI>
0

>  <Rbt.Current_Directory>
/home/itssahil/PROJECTS/Mol_Feturizer/New_Systems/rnas/4LVZ

>  <Rbt.Executable>
rbdock ($Id: //depot/dev/client3/rdock/2013.1/src/exe/rbdock.cxx#4 $)

>  <Rbt.Library>
libRbt.so (2013.1, Build901 2013/11/27)

>  <Rbt.Parameter_File>
/export/apps/rDock/src/rDock_2013.1_src/data/scripts/dock_solv.prm

>  <Rbt.Receptor>
prm/blind_docking_40.prm

>  <SCORE>
-7.40082

>  <SCORE.INTER>
-7.40082

>  <SCORE.INTER.CONST>
1

>  <SCORE.INTER.POLAR>
0

>  <SCORE.INTER.ROT>
0

>  <SCORE.INTER.SOLV>
3.09585

>  <SCORE.INTER.VDW>
-9.56583

>  <SCORE.INTER.norm>
-0.672802

>  <SCORE.INTRA>
0

>  <SCORE.INTRA.DIHEDRAL>
0

>  <SCORE.INTRA.DIHEDRAL.0>
0

>  <SCORE.INTRA.POLAR>
0

>  <SCORE.INTRA.POLAR.0>
0

>  <SCORE.INTRA.REPUL>
0

>  <SCORE.INTRA.REPUL.0>
0

>  <SCORE.INTRA.SOLV>
0

>  <SCORE.INTRA.SOLV.lig_0>
-49.4056

>  <SCORE.INTRA.VDW>
0

>  <SCORE.INTRA.VDW.0>
0

>  <SCORE.INTRA.norm>
0

>  <SCORE.RESTR>
0

>  <SCORE.RESTR.CAVITY>
0

>  <SCORE.RESTR.norm>
0

>  <SCORE.SYSTEM>
0

>  <SCORE.SYSTEM.CONST>
0

>  <SCORE.SYSTEM.DIHEDRAL>
0

>  <SCORE.SYSTEM.SOLV>
0

>  <SCORE.SYSTEM.norm>
0

>  <SCORE.heavy>
11

>  <SCORE.norm>
-0.672802

>  <RMSD>
13.350

$$$$
ligand
 OpenBabel11021811503D
libRbt.so/2013.1/901 2013/11/27
 11 12  0  0  0  0  0  0  0  0999 V2000
   -9.4127  -27.3496   32.2997 N   0  0  0  0  0  0  0  0  0  0  0  0
   -8.9076  -26.8323   33.4469 C   0  0  0  0  0  0  0  0  0  0  0  0
   -9.4801  -27.1672   34.7166 N   0  0  0  0  0  0  0  0  0  0  0  0
   -7.8611  -25.9881   33.4186 N   0  0  0  0  0  0  0  0  0  0  0  0
   -7.2663  -25.6276   32.2304 C   0  0  0  0  0  0  0  0  0  0  0  0
   -7.7626  -26.1379   31.0448 C   0  0  0  0  0  0  0  0  0  0  0  0
   -8.8771  -27.0270   31.1022 C   0  0  0  0  0  0  0  0  0  0  0  0
   -9.4173  -27.5719   29.8943 N   0  0  0  0  0  0  0  0  0  0  0  0
   -6.9865  -25.6105   30.0302 N   0  0  0  0  0  0  0  0  0  0  0  0
   -6.0533  -24.8019   30.5715 C   0  0  0  0  0  0  0  0  0  0  0  0
   -6.2036  -24.7939   31.9110 N   0  0  0  0  0  0  0  0  0  0  0  0
  1  7  2  0  0  0  0
  1  2  1  0  0  0  0
  2  3  1  0  0  0  0
  2  4  2  0  0  0  0
  4  5  1  0  0  0  0
  5  6  2  0  0  0  0
  5 11  1  0  0  0  0
  6  7  1  0  0  0  0
  6  9  1  0  0  0  0
  7  8  1  0  0  0  0
  9 10  1  0  0  0  0
 10 11  2  0  0  0  0
M  END
>  <CHROM.1>
-8.03786319,-26.27675010,31.89255557,2.48546691,0.67575190,1.47620057

>  <Name>
ligand

>  <RI>
0

>  <Rbt.Current_Directory>
/home/itssahil/PROJECTS/Mol_Feturizer/New_Systems/rnas/4LVZ

>  <Rbt.Executable>
rbdock ($Id: //depot/dev/client3/rdock/2013.1/src/exe/rbdock.cxx#4 $)

>  <Rbt.Library>
libRbt.so (2013.1, Build901 2013/11/27)

>  <Rbt.Parameter_File>
/export/apps/rDock/src/rDock_2013.1_src/data/scripts/dock_solv.prm

>  <Rbt.Receptor>
prm/blind_docking_80.prm

>  <SCORE>
-7.06638

>  <SCORE.INTER>
-7.06638

>  <SCORE.INTER.CONST>
1

>  <SCORE.INTER.POLAR>
0

>  <SCORE.INTER.ROT>
0

>  <SCORE.INTER.SOLV>
5.26545

>  <SCORE.INTER.VDW>
-10.0661

>  <SCORE.INTER.norm>
-0.642398

>  <SCORE.INTRA>
0

>  <SCORE.INTRA.DIHEDRAL>
0

>  <SCORE.INTRA.DIHEDRAL.0>
0

>  <SCORE.INTRA.POLAR>
0

>  <SCORE.INTRA.POLAR.0>
0

>  <SCORE.INTRA.REPUL>
0

>  <SCORE.INTRA.REPUL.0>
0

>  <SCORE.INTRA.SOLV>
0

>  <SCORE.INTRA.SOLV.lig_0>
-49.4056

>  <SCORE.INTRA.VDW>
0

>  <SCORE.INTRA.VDW.0>
0

>  <SCORE.INTRA.norm>
0

>  <SCORE.RESTR>
0

>  <SCORE.RESTR.CAVITY>
0

>  <SCORE.RESTR.norm>
0

>  <SCORE.SYSTEM>
0

>  <SCORE.SYSTEM.CONST>
0

>  <SCORE.SYSTEM.DIHEDRAL>
0

>  <SCORE.SYSTEM.SOLV>
0

>  <SCORE.SYSTEM.norm>
0

>  <SCORE.heavy>
11

>  <SCORE.norm>
-0.642398

>  <RMSD>
13.376

$$$$
ligand
 OpenBabel11021811503D
libRbt.so/2013.1/901 2013/11/27
 11 12  0  0  0  0  0  0  0  0999 V2000
   -8.2000  -26.8057   30.2096 N   0  0  0  0  0  0  0  0  0  0  0  0
   -9.0100  -27.6306   29.5010 C   0  0  0  0  0  0  0  0  0  0  0  0
  -10.3275  -27.2159   29.1213 N   0  0  0  0  0  0  0  0  0  0  0  0
   -8.5973  -28.8596   29.1434 N   0  0  0  0  0  0  0  0  0  0  0  0
   -7.3422  -29.3168   29.4775 C   0  0  0  0  0  0  0  0  0  0  0  0
   -6.4961  -28.4977   30.2023 C   0  0  0  0  0  0  0  0  0  0  0  0
   -6.9605  -27.2007   30.5740 C   0  0  0  0  0  0  0  0  0  0  0  0
   -6.1117  -26.3279   31.3260 N   0  0  0  0  0  0  0  0  0  0  0  0
   -5.3254  -29.2067   30.3938 N   0  0  0  0  0  0  0  0  0  0  0  0
   -5.4502  -30.4177   29.8144 C   0  0  0  0  0  0  0  0  0  0  0  0
   -6.6710  -30.5102   29.2504 N   0  0  0  0  0  0  0  0  0  0  0  0
  1  7  2  0  0  0  0
  1  2  1  0  0  0  0
  2  3  1  0  0  0  0
  2  4  2  0  0  0  0
  4  5  1  0  0  0  0
  5  6  2  0  0  0  0
  5 11  1  0  0  0  0
  6  7  1  0  0  0  0
  6  9  1  0  0  0  0
  7  8  1  0  0  0  0
  9 10  1  0  0  0  0
 10 11  2  0  0  0  0
M  END
>  <CHROM.1>
-7.33584585,-28.34536497,29.91009656,-2.60244517,0.37525575,-2.72834903

>  <Name>
ligand

>  <RI>
0

>  <Rbt.Current_Directory>
/home/itssahil/PROJECTS/Mol_Feturizer/New_Systems/rnas/4LVZ

>  <Rbt.Executable>
rbdock ($Id: //depot/dev/client3/rdock/2013.1/src/exe/rbdock.cxx#4 $)

>  <Rbt.Library>
libRbt.so (2013.1, Build901 2013/11/27)

>  <Rbt.Parameter_File>
/export/apps/rDock/src/rDock_2013.1_src/data/scripts/dock_solv.prm

>  <Rbt.Receptor>
prm/blind_docking_60.prm

>  <SCORE>
-10.3873

>  <SCORE.INTER>
-10.3873

>  <SCORE.INTER.CONST>
1

>  <SCORE.INTER.POLAR>
0

>  <SCORE.INTER.ROT>
0

>  <SCORE.INTER.SOLV>
6.59501

>  <SCORE.INTER.VDW>
-12.7232

>  <SCORE.INTER.norm>
-0.944297

>  <SCORE.INTRA>
0

>  <SCORE.INTRA.DIHEDRAL>
0

>  <SCORE.INTRA.DIHEDRAL.0>
0

>  <SCORE.INTRA.POLAR>
0

>  <SCORE.INTRA.POLAR.0>
0

>  <SCORE.INTRA.REPUL>
0

>  <SCORE.INTRA.REPUL.0>
0

>  <SCORE.INTRA.SOLV>
0

>  <SCORE.INTRA.SOLV.lig_0>
-49.4056

>  <SCORE.INTRA.VDW>
0

>  <SCORE.INTRA.VDW.0>
0

>  <SCORE.INTRA.norm>
0

>  <SCORE.RESTR>
0

>  <SCORE.RESTR.CAVITY>
0

>  <SCORE.RESTR.norm>
0

>  <SCORE.SYSTEM>
0

>  <SCORE.SYSTEM.CONST>
0

>  <SCORE.SYSTEM.DIHEDRAL>
0

>  <SCORE.SYSTEM.SOLV>
0

>  <SCORE.SYSTEM.norm>
0

>  <SCORE.heavy>
11

>  <SCORE.norm>
-0.944297

>  <RMSD>
13.394

$$$$
ligand
 OpenBabel11021811503D
libRbt.so/2013.1/901 2013/11/27
 11 12  0  0  0  0  0  0  0  0999 V2000
   -8.2077  -26.8169   30.1685 N   0  0  0  0  0  0  0  0  0  0  0  0
   -9.0163  -27.6521   29.4704 C   0  0  0  0  0  0  0  0  0  0  0  0
  -10.3357  -27.2458   29.0884 N   0  0  0  0  0  0  0  0  0  0  0  0
   -8.6003  -28.8838   29.1258 N   0  0  0  0  0  0  0  0  0  0  0  0
   -7.3433  -29.3333   29.4628 C   0  0  0  0  0  0  0  0  0  0  0  0
   -6.4985  -28.5035   30.1771 C   0  0  0  0  0  0  0  0  0  0  0  0
   -6.9664  -27.2040   30.5351 C   0  0  0  0  0  0  0  0  0  0  0  0
   -6.1190  -26.3203   31.2760 N   0  0  0  0  0  0  0  0  0  0  0  0
   -5.3253  -29.2068   30.3744 N   0  0  0  0  0  0  0  0  0  0  0  0
   -5.4473  -30.4245   29.8087 C   0  0  0  0  0  0  0  0  0  0  0  0
   -6.6687  -30.5271   29.2478 N   0  0  0  0  0  0  0  0  0  0  0  0
  1  7  2  0  0  0  0
  1  2  1  0  0  0  0
  2  3  1  0  0  0  0
  2  4  2  0  0  0  0
  4  5  1  0  0  0  0
  5  6  2  0  0  0  0
  5 11  1  0  0  0  0
  6  7  1  0  0  0  0
  6  9  1  0  0  0  0
  7  8  1  0  0  0  0
  9 10  1  0  0  0  0
 10 11  2  0  0  0  0
M  END
>  <CHROM.1>
-7.33922444,-28.35712636,29.88459605,-2.60482066,0.37248675,-2.73856961

>  <Name>
ligand

>  <RI>
0

>  <Rbt.Current_Directory>
/home/itssahil/PROJECTS/Mol_Feturizer/New_Systems/rnas/4LVZ

>  <Rbt.Executable>
rbdock ($Id: //depot/dev/client3/rdock/2013.1/src/exe/rbdock.cxx#4 $)

>  <Rbt.Library>
libRbt.so (2013.1, Build901 2013/11/27)

>  <Rbt.Parameter_File>
/export/apps/rDock/src/rDock_2013.1_src/data/scripts/dock_solv.prm

>  <Rbt.Receptor>
prm/blind_docking_100.prm

>  <SCORE>
-10.3507

>  <SCORE.INTER>
-10.3507

>  <SCORE.INTER.CONST>
1

>  <SCORE.INTER.POLAR>
0

>  <SCORE.INTER.ROT>
0

>  <SCORE.INTER.SOLV>
6.7064

>  <SCORE.INTER.VDW>
-12.736

>  <SCORE.INTER.norm>
-0.940976

>  <SCORE.INTRA>
0

>  <SCORE.INTRA.DIHEDRAL>
0

>  <SCORE.INTRA.DIHEDRAL.0>
0

>  <SCORE.INTRA.POLAR>
0

>  <SCORE.INTRA.POLAR.0>
0

>  <SCORE.INTRA.REPUL>
0

>  <SCORE.INTRA.REPUL.0>
0

>  <SCORE.INTRA.SOLV>
0

>  <SCORE.INTRA.SOLV.lig_0>
-49.4056

>  <SCORE.INTRA.VDW>
0

>  <SCORE.INTRA.VDW.0>
0

>  <SCORE.INTRA.norm>
0

>  <SCORE.RESTR>
0

>  <SCORE.RESTR.CAVITY>
0

>  <SCORE.RESTR.norm>
0

>  <SCORE.SYSTEM>
0

>  <SCORE.SYSTEM.CONST>
0

>  <SCORE.SYSTEM.DIHEDRAL>
0

>  <SCORE.SYSTEM.SOLV>
0

>  <SCORE.SYSTEM.norm>
0

>  <SCORE.heavy>
11

>  <SCORE.norm>
-0.940976

>  <RMSD>
13.397

$$$$
ligand
 OpenBabel11021811503D
libRbt.so/2013.1/901 2013/11/27
 11 12  0  0  0  0  0  0  0  0999 V2000
   -8.2532  -26.7525   30.1621 N   0  0  0  0  0  0  0  0  0  0  0  0
   -9.0688  -27.5776   29.4602 C   0  0  0  0  0  0  0  0  0  0  0  0
  -10.3817  -27.1553   29.0729 N   0  0  0  0  0  0  0  0  0  0  0  0
   -8.6661  -28.8139   29.1164 N   0  0  0  0  0  0  0  0  0  0  0  0
   -7.4160  -29.2786   29.4584 C   0  0  0  0  0  0  0  0  0  0  0  0
   -6.5643  -28.4595   30.1767 C   0  0  0  0  0  0  0  0  0  0  0  0
   -7.0182  -27.1547   30.5336 C   0  0  0  0  0  0  0  0  0  0  0  0
   -6.1634  -26.2816   31.2786 N   0  0  0  0  0  0  0  0  0  0  0  0
   -5.4004  -29.1768   30.3784 N   0  0  0  0  0  0  0  0  0  0  0  0
   -5.5346  -30.3926   29.8113 C   0  0  0  0  0  0  0  0  0  0  0  0
   -6.7548  -30.4803   29.2454 N   0  0  0  0  0  0  0  0  0  0  0  0
  1  7  2  0  0  0  0
  1  2  1  0  0  0  0
  2  3  1  0  0  0  0
  2  4  2  0  0  0  0
  4  5  1  0  0  0  0
  5  6  2  0  0  0  0
  5 11  1  0  0  0  0
  6  7  1  0  0  0  0
  6  9  1  0  0  0  0
  7  8  1  0  0  0  0
  9 10  1  0  0  0  0
 10 11  2  0  0  0  0
M  END
>  <CHROM.1>
-7.40201290,-28.30282098,29.88080313,-2.59474240,0.38097113,-2.74162440

>  <Name>
ligand

>  <RI>
0

>  <Rbt.Current_Directory>
/home/itssahil/PROJECTS/Mol_Feturizer/New_Systems/rnas/4LVZ

>  <Rbt.Executable>
rbdock ($Id: //depot/dev/client3/rdock/2013.1/src/exe/rbdock.cxx#4 $)

>  <Rbt.Library>
libRbt.so (2013.1, Build901 2013/11/27)

>  <Rbt.Parameter_File>
/export/apps/rDock/src/rDock_2013.1_src/data/scripts/dock_solv.prm

>  <Rbt.Receptor>
prm/blind_docking_80.prm

>  <SCORE>
-10.3617

>  <SCORE.INTER>
-10.3617

>  <SCORE.INTER.CONST>
1

>  <SCORE.INTER.POLAR>
0

>  <SCORE.INTER.ROT>
0

>  <SCORE.INTER.SOLV>
6.96005

>  <SCORE.INTER.VDW>
-12.8278

>  <SCORE.INTER.norm>
-0.941973

>  <SCORE.INTRA>
0

>  <SCORE.INTRA.DIHEDRAL>
0

>  <SCORE.INTRA.DIHEDRAL.0>
0

>  <SCORE.INTRA.POLAR>
0

>  <SCORE.INTRA.POLAR.0>
0

>  <SCORE.INTRA.REPUL>
0

>  <SCORE.INTRA.REPUL.0>
0

>  <SCORE.INTRA.SOLV>
0

>  <SCORE.INTRA.SOLV.lig_0>
-49.4056

>  <SCORE.INTRA.VDW>
0

>  <SCORE.INTRA.VDW.0>
0

>  <SCORE.INTRA.norm>
0

>  <SCORE.RESTR>
0

>  <SCORE.RESTR.CAVITY>
0

>  <SCORE.RESTR.norm>
0

>  <SCORE.SYSTEM>
0

>  <SCORE.SYSTEM.CONST>
0

>  <SCORE.SYSTEM.DIHEDRAL>
0

>  <SCORE.SYSTEM.SOLV>
0

>  <SCORE.SYSTEM.norm>
0

>  <SCORE.heavy>
11

>  <SCORE.norm>
-0.941973

>  <RMSD>
13.406

$$$$
ligand
 OpenBabel11021811503D
libRbt.so/2013.1/901 2013/11/27
 11 12  0  0  0  0  0  0  0  0999 V2000
   -8.2127  -26.7997   30.2022 N   0  0  0  0  0  0  0  0  0  0  0  0
   -9.0285  -27.6181   29.4929 C   0  0  0  0  0  0  0  0  0  0  0  0
  -10.3410  -27.1916   29.1088 N   0  0  0  0  0  0  0  0  0  0  0  0
   -8.6265  -28.8516   29.1386 N   0  0  0  0  0  0  0  0  0  0  0  0
   -7.3768  -29.3201   29.4770 C   0  0  0  0  0  0  0  0  0  0  0  0
   -6.5249  -28.5077   30.2026 C   0  0  0  0  0  0  0  0  0  0  0  0
   -6.9780  -27.2058   30.5707 C   0  0  0  0  0  0  0  0  0  0  0  0
   -6.1229  -26.3397   31.3235 N   0  0  0  0  0  0  0  0  0  0  0  0
   -5.3615  -29.2275   30.3985 N   0  0  0  0  0  0  0  0  0  0  0  0
   -5.4963  -30.4383   29.8210 C   0  0  0  0  0  0  0  0  0  0  0  0
   -6.7164  -30.5203   29.2538 N   0  0  0  0  0  0  0  0  0  0  0  0
  1  7  2  0  0  0  0
  1  2  1  0  0  0  0
  2  3  1  0  0  0  0
  2  4  2  0  0  0  0
  4  5  1  0  0  0  0
  5  6  2  0  0  0  0
  5 11  1  0  0  0  0
  6  7  1  0  0  0  0
  6  9  1  0  0  0  0
  7  8  1  0  0  0  0
  9 10  1  0  0  0  0
 10 11  2  0  0  0  0
M  END
>  <CHROM.1>
-7.36236414,-28.34799778,29.90781088,-2.59424970,0.38156034,-2.73318334

>  <Name>
ligand

>  <RI>
0

>  <Rbt.Current_Directory>
/home/itssahil/PROJECTS/Mol_Feturizer/New_Systems/rnas/4LVZ

>  <Rbt.Executable>
rbdock ($Id: //depot/dev/client3/rdock/2013.1/src/exe/rbdock.cxx#4 $)

>  <Rbt.Library>
libRbt.so (2013.1, Build901 2013/11/27)

>  <Rbt.Parameter_File>
/export/apps/rDock/src/rDock_2013.1_src/data/scripts/dock_solv.prm

>  <Rbt.Receptor>
prm/blind_docking_80.prm

>  <SCORE>
-10.351

>  <SCORE.INTER>
-10.351

>  <SCORE.INTER.CONST>
1

>  <SCORE.INTER.POLAR>
0

>  <SCORE.INTER.ROT>
0

>  <SCORE.INTER.SOLV>
6.67617

>  <SCORE.INTER.VDW>
-12.7261

>  <SCORE.INTER.norm>
-0.940999

>  <SCORE.INTRA>
0

>  <SCORE.INTRA.DIHEDRAL>
0

>  <SCORE.INTRA.DIHEDRAL.0>
0

>  <SCORE.INTRA.POLAR>
0

>  <SCORE.INTRA.POLAR.0>
0

>  <SCORE.INTRA.REPUL>
0

>  <SCORE.INTRA.REPUL.0>
0

>  <SCORE.INTRA.SOLV>
0

>  <SCORE.INTRA.SOLV.lig_0>
-49.4056

>  <SCORE.INTRA.VDW>
0

>  <SCORE.INTRA.VDW.0>
0

>  <SCORE.INTRA.norm>
0

>  <SCORE.RESTR>
0

>  <SCORE.RESTR.CAVITY>
0

>  <SCORE.RESTR.norm>
0

>  <SCORE.SYSTEM>
0

>  <SCORE.SYSTEM.CONST>
0

>  <SCORE.SYSTEM.DIHEDRAL>
0

>  <SCORE.SYSTEM.SOLV>
0

>  <SCORE.SYSTEM.norm>
0

>  <SCORE.heavy>
11

>  <SCORE.norm>
-0.940999

>  <RMSD>
13.412

$$$$
ligand
 OpenBabel11021811503D
libRbt.so/2013.1/901 2013/11/27
 11 12  0  0  0  0  0  0  0  0999 V2000
   -8.2213  -26.8734   30.2887 N   0  0  0  0  0  0  0  0  0  0  0  0
   -9.0205  -27.6686   29.5354 C   0  0  0  0  0  0  0  0  0  0  0  0
  -10.3387  -27.2455   29.1676 N   0  0  0  0  0  0  0  0  0  0  0  0
   -8.5961  -28.8757   29.1210 N   0  0  0  0  0  0  0  0  0  0  0  0
   -7.3397  -29.3394   29.4408 C   0  0  0  0  0  0  0  0  0  0  0  0
   -6.5044  -28.5504   30.2103 C   0  0  0  0  0  0  0  0  0  0  0  0
   -6.9811  -27.2766   30.6416 C   0  0  0  0  0  0  0  0  0  0  0  0
   -6.1437  -26.4353   31.4409 N   0  0  0  0  0  0  0  0  0  0  0  0
   -5.3296  -29.2593   30.3747 N   0  0  0  0  0  0  0  0  0  0  0  0
   -5.4415  -30.4414   29.7362 C   0  0  0  0  0  0  0  0  0  0  0  0
   -6.6580  -30.5153   29.1602 N   0  0  0  0  0  0  0  0  0  0  0  0
  1  7  2  0  0  0  0
  1  2  1  0  0  0  0
  2  3  1  0  0  0  0
  2  4  2  0  0  0  0
  4  5  1  0  0  0  0
  5  6  2  0  0  0  0
  5 11  1  0  0  0  0
  6  7  1  0  0  0  0
  6  9  1  0  0  0  0
  7  8  1  0  0  0  0
  9 10  1  0  0  0  0
 10 11  2  0  0  0  0
M  END
>  <CHROM.1>
-7.34348824,-28.39017892,29.92024511,-2.61271519,0.37792226,-2.67577313

>  <Name>
ligand

>  <RI>
0

>  <Rbt.Current_Directory>
/home/itssahil/PROJECTS/Mol_Feturizer/New_Systems/rnas/4LVZ

>  <Rbt.Executable>
rbdock ($Id: //depot/dev/client3/rdock/2013.1/src/exe/rbdock.cxx#4 $)

>  <Rbt.Library>
libRbt.so (2013.1, Build901 2013/11/27)

>  <Rbt.Parameter_File>
/export/apps/rDock/src/rDock_2013.1_src/data/scripts/dock_solv.prm

>  <Rbt.Receptor>
prm/blind_docking_100.prm

>  <SCORE>
-10.3898

>  <SCORE.INTER>
-10.3898

>  <SCORE.INTER.CONST>
1

>  <SCORE.INTER.POLAR>
0

>  <SCORE.INTER.ROT>
0

>  <SCORE.INTER.SOLV>
6.03498

>  <SCORE.INTER.VDW>
-12.5382

>  <SCORE.INTER.norm>
-0.944528

>  <SCORE.INTRA>
0

>  <SCORE.INTRA.DIHEDRAL>
0

>  <SCORE.INTRA.DIHEDRAL.0>
0

>  <SCORE.INTRA.POLAR>
0

>  <SCORE.INTRA.POLAR.0>
0

>  <SCORE.INTRA.REPUL>
0

>  <SCORE.INTRA.REPUL.0>
0

>  <SCORE.INTRA.SOLV>
0

>  <SCORE.INTRA.SOLV.lig_0>
-49.4056

>  <SCORE.INTRA.VDW>
0

>  <SCORE.INTRA.VDW.0>
0

>  <SCORE.INTRA.norm>
0

>  <SCORE.RESTR>
0

>  <SCORE.RESTR.CAVITY>
0

>  <SCORE.RESTR.norm>
0

>  <SCORE.SYSTEM>
0

>  <SCORE.SYSTEM.CONST>
0

>  <SCORE.SYSTEM.DIHEDRAL>
0

>  <SCORE.SYSTEM.SOLV>
0

>  <SCORE.SYSTEM.norm>
0

>  <SCORE.heavy>
11

>  <SCORE.norm>
-0.944528

>  <RMSD>
13.432

$$$$
ligand
 OpenBabel11021811503D
libRbt.so/2013.1/901 2013/11/27
 11 12  0  0  0  0  0  0  0  0999 V2000
   -8.2327  -26.8832   30.2795 N   0  0  0  0  0  0  0  0  0  0  0  0
   -9.0216  -27.6860   29.5234 C   0  0  0  0  0  0  0  0  0  0  0  0
  -10.3420  -27.2748   29.1496 N   0  0  0  0  0  0  0  0  0  0  0  0
   -8.5849  -28.8896   29.1117 N   0  0  0  0  0  0  0  0  0  0  0  0
   -7.3259  -29.3420   29.4371 C   0  0  0  0  0  0  0  0  0  0  0  0
   -6.5008  -28.5451   30.2096 C   0  0  0  0  0  0  0  0  0  0  0  0
   -6.9906  -27.2753   30.6380 C   0  0  0  0  0  0  0  0  0  0  0  0
   -6.1640  -26.4261   31.4403 N   0  0  0  0  0  0  0  0  0  0  0  0
   -5.3205  -29.2436   30.3796 N   0  0  0  0  0  0  0  0  0  0  0  0
   -5.4193  -30.4271   29.7414 C   0  0  0  0  0  0  0  0  0  0  0  0
   -6.6326  -30.5121   29.1603 N   0  0  0  0  0  0  0  0  0  0  0  0
  1  7  2  0  0  0  0
  1  2  1  0  0  0  0
  2  3  1  0  0  0  0
  2  4  2  0  0  0  0
  4  5  1  0  0  0  0
  5  6  2  0  0  0  0
  5 11  1  0  0  0  0
  6  7  1  0  0  0  0
  6  9  1  0  0  0  0
  7  8  1  0  0  0  0
  9 10  1  0  0  0  0
 10 11  2  0  0  0  0
M  END
>  <CHROM.1>
-7.34003993,-28.39251421,29.91588084,-2.62324141,0.37775884,-2.67258867

>  <Name>
ligand

>  <RI>
0

>  <Rbt.Current_Directory>
/home/itssahil/PROJECTS/Mol_Feturizer/New_Systems/rnas/4LVZ

>  <Rbt.Executable>
rbdock ($Id: //depot/dev/client3/rdock/2013.1/src/exe/rbdock.cxx#4 $)

>  <Rbt.Library>
libRbt.so (2013.1, Build901 2013/11/27)

>  <Rbt.Parameter_File>
/export/apps/rDock/src/rDock_2013.1_src/data/scripts/dock_solv.prm

>  <Rbt.Receptor>
prm/blind_docking_80.prm

>  <SCORE>
-10.3866

>  <SCORE.INTER>
-10.3866

>  <SCORE.INTER.CONST>
1

>  <SCORE.INTER.POLAR>
0

>  <SCORE.INTER.ROT>
0

>  <SCORE.INTER.SOLV>
5.95371

>  <SCORE.INTER.VDW>
-12.509

>  <SCORE.INTER.norm>
-0.944234

>  <SCORE.INTRA>
0

>  <SCORE.INTRA.DIHEDRAL>
0

>  <SCORE.INTRA.DIHEDRAL.0>
0

>  <SCORE.INTRA.POLAR>
0

>  <SCORE.INTRA.POLAR.0>
0

>  <SCORE.INTRA.REPUL>
0

>  <SCORE.INTRA.REPUL.0>
0

>  <SCORE.INTRA.SOLV>
0

>  <SCORE.INTRA.SOLV.lig_0>
-49.4056

>  <SCORE.INTRA.VDW>
0

>  <SCORE.INTRA.VDW.0>
0

>  <SCORE.INTRA.norm>
0

>  <SCORE.RESTR>
0

>  <SCORE.RESTR.CAVITY>
0

>  <SCORE.RESTR.norm>
0

>  <SCORE.SYSTEM>
0

>  <SCORE.SYSTEM.CONST>
0

>  <SCORE.SYSTEM.DIHEDRAL>
0

>  <SCORE.SYSTEM.SOLV>
0

>  <SCORE.SYSTEM.norm>
0

>  <SCORE.heavy>
11

>  <SCORE.norm>
-0.944234

>  <RMSD>
13.432

$$$$
ligand
 OpenBabel11021811503D
libRbt.so/2013.1/901 2013/11/27
 11 12  0  0  0  0  0  0  0  0999 V2000
   -8.2370  -26.8564   30.2376 N   0  0  0  0  0  0  0  0  0  0  0  0
   -9.0227  -27.6508   29.4693 C   0  0  0  0  0  0  0  0  0  0  0  0
  -10.3284  -27.2210   29.0662 N   0  0  0  0  0  0  0  0  0  0  0  0
   -8.5965  -28.8632   29.0728 N   0  0  0  0  0  0  0  0  0  0  0  0
   -7.3517  -29.3334   29.4265 C   0  0  0  0  0  0  0  0  0  0  0  0
   -6.5304  -28.5455   30.2119 C   0  0  0  0  0  0  0  0  0  0  0  0
   -7.0089  -27.2659   30.6237 C   0  0  0  0  0  0  0  0  0  0  0  0
   -6.1858  -26.4255   31.4387 N   0  0  0  0  0  0  0  0  0  0  0  0
   -5.3650  -29.2613   30.4098 N   0  0  0  0  0  0  0  0  0  0  0  0
   -5.4691  -30.4465   29.7756 C   0  0  0  0  0  0  0  0  0  0  0  0
   -6.6713  -30.5157   29.1699 N   0  0  0  0  0  0  0  0  0  0  0  0
  1  7  2  0  0  0  0
  1  2  1  0  0  0  0
  2  3  1  0  0  0  0
  2  4  2  0  0  0  0
  4  5  1  0  0  0  0
  5  6  2  0  0  0  0
  5 11  1  0  0  0  0
  6  7  1  0  0  0  0
  6  9  1  0  0  0  0
  7  8  1  0  0  0  0
  9 10  1  0  0  0  0
 10 11  2  0  0  0  0
M  END
>  <CHROM.1>
-7.36083826,-28.38134602,29.90010133,-2.61814983,0.40328224,-2.67967160

>  <Name>
ligand

>  <RI>
0

>  <Rbt.Current_Directory>
/home/itssahil/PROJECTS/Mol_Feturizer/New_Systems/rnas/4LVZ

>  <Rbt.Executable>
rbdock ($Id: //depot/dev/client3/rdock/2013.1/src/exe/rbdock.cxx#4 $)

>  <Rbt.Library>
libRbt.so (2013.1, Build901 2013/11/27)

>  <Rbt.Parameter_File>
/export/apps/rDock/src/rDock_2013.1_src/data/scripts/dock_solv.prm

>  <Rbt.Receptor>
prm/blind_docking_60.prm

>  <SCORE>
-10.364

>  <SCORE.INTER>
-10.364

>  <SCORE.INTER.CONST>
1

>  <SCORE.INTER.POLAR>
0

>  <SCORE.INTER.ROT>
0

>  <SCORE.INTER.SOLV>
6.16768

>  <SCORE.INTER.VDW>
-12.5652

>  <SCORE.INTER.norm>
-0.942181

>  <SCORE.INTRA>
0

>  <SCORE.INTRA.DIHEDRAL>
0

>  <SCORE.INTRA.DIHEDRAL.0>
0

>  <SCORE.INTRA.POLAR>
0

>  <SCORE.INTRA.POLAR.0>
0

>  <SCORE.INTRA.REPUL>
0

>  <SCORE.INTRA.REPUL.0>
0

>  <SCORE.INTRA.SOLV>
0

>  <SCORE.INTRA.SOLV.lig_0>
-49.4056

>  <SCORE.INTRA.VDW>
0

>  <SCORE.INTRA.VDW.0>
0

>  <SCORE.INTRA.norm>
0

>  <SCORE.RESTR>
0

>  <SCORE.RESTR.CAVITY>
0

>  <SCORE.RESTR.norm>
0

>  <SCORE.SYSTEM>
0

>  <SCORE.SYSTEM.CONST>
0

>  <SCORE.SYSTEM.DIHEDRAL>
0

>  <SCORE.SYSTEM.SOLV>
0

>  <SCORE.SYSTEM.norm>
0

>  <SCORE.heavy>
11

>  <SCORE.norm>
-0.942181

>  <RMSD>
13.435

$$$$
ligand
 OpenBabel11021811503D
libRbt.so/2013.1/901 2013/11/27
 11 12  0  0  0  0  0  0  0  0999 V2000
   -8.2333  -26.8851   30.2824 N   0  0  0  0  0  0  0  0  0  0  0  0
   -9.0270  -27.6912   29.5349 C   0  0  0  0  0  0  0  0  0  0  0  0
  -10.3501  -27.2822   29.1687 N   0  0  0  0  0  0  0  0  0  0  0  0
   -8.5924  -28.8962   29.1250 N   0  0  0  0  0  0  0  0  0  0  0  0
   -7.3310  -29.3466   29.4435 C   0  0  0  0  0  0  0  0  0  0  0  0
   -6.5010  -28.5463   30.2071 C   0  0  0  0  0  0  0  0  0  0  0  0
   -6.9885  -27.2750   30.6338 C   0  0  0  0  0  0  0  0  0  0  0  0
   -6.1569  -26.4222   31.4270 N   0  0  0  0  0  0  0  0  0  0  0  0
   -5.3192  -29.2434   30.3716 N   0  0  0  0  0  0  0  0  0  0  0  0
   -5.4217  -30.4295   29.7388 C   0  0  0  0  0  0  0  0  0  0  0  0
   -6.6390  -30.5175   29.1665 N   0  0  0  0  0  0  0  0  0  0  0  0
  1  7  2  0  0  0  0
  1  2  1  0  0  0  0
  2  3  1  0  0  0  0
  2  4  2  0  0  0  0
  4  5  1  0  0  0  0
  5  6  2  0  0  0  0
  5 11  1  0  0  0  0
  6  7  1  0  0  0  0
  6  9  1  0  0  0  0
  7  8  1  0  0  0  0
  9 10  1  0  0  0  0
 10 11  2  0  0  0  0
M  END
>  <CHROM.1>
-7.34234515,-28.39529427,29.91855621,-2.62041898,0.37133371,-2.67758070

>  <Name>
ligand

>  <RI>
0

>  <Rbt.Current_Directory>
/home/itssahil/PROJECTS/Mol_Feturizer/New_Systems/rnas/4LVZ

>  <Rbt.Executable>
rbdock ($Id: //depot/dev/client3/rdock/2013.1/src/exe/rbdock.cxx#4 $)

>  <Rbt.Library>
libRbt.so (2013.1, Build901 2013/11/27)

>  <Rbt.Parameter_File>
/export/apps/rDock/src/rDock_2013.1_src/data/scripts/dock_solv.prm

>  <Rbt.Receptor>
prm/blind_docking_100.prm

>  <SCORE>
-10.387

>  <SCORE.INTER>
-10.387

>  <SCORE.INTER.CONST>
1

>  <SCORE.INTER.POLAR>
0

>  <SCORE.INTER.ROT>
0

>  <SCORE.INTER.SOLV>
5.96568

>  <SCORE.INTER.VDW>
-12.5132

>  <SCORE.INTER.norm>
-0.944275

>  <SCORE.INTRA>
0

>  <SCORE.INTRA.DIHEDRAL>
0

>  <SCORE.INTRA.DIHEDRAL.0>
0

>  <SCORE.INTRA.POLAR>
0

>  <SCORE.INTRA.POLAR.0>
0

>  <SCORE.INTRA.REPUL>
0

>  <SCORE.INTRA.REPUL.0>
0

>  <SCORE.INTRA.SOLV>
0

>  <SCORE.INTRA.SOLV.lig_0>
-49.4056

>  <SCORE.INTRA.VDW>
0

>  <SCORE.INTRA.VDW.0>
0

>  <SCORE.INTRA.norm>
0

>  <SCORE.RESTR>
0

>  <SCORE.RESTR.CAVITY>
0

>  <SCORE.RESTR.norm>
0

>  <SCORE.SYSTEM>
0

>  <SCORE.SYSTEM.CONST>
0

>  <SCORE.SYSTEM.DIHEDRAL>
0

>  <SCORE.SYSTEM.SOLV>
0

>  <SCORE.SYSTEM.norm>
0

>  <SCORE.heavy>
11

>  <SCORE.norm>
-0.944275

>  <RMSD>
13.436

$$$$
ligand
 OpenBabel11021811503D
libRbt.so/2013.1/901 2013/11/27
 11 12  0  0  0  0  0  0  0  0999 V2000
   -8.2275  -26.8712   30.2933 N   0  0  0  0  0  0  0  0  0  0  0  0
   -9.0290  -27.6712   29.5476 C   0  0  0  0  0  0  0  0  0  0  0  0
  -10.3497  -27.2520   29.1843 N   0  0  0  0  0  0  0  0  0  0  0  0
   -8.6047  -28.8795   29.1368 N   0  0  0  0  0  0  0  0  0  0  0  0
   -7.3460  -29.3397   29.4525 C   0  0  0  0  0  0  0  0  0  0  0  0
   -6.5083  -28.5458   30.2142 C   0  0  0  0  0  0  0  0  0  0  0  0
   -6.9850  -27.2708   30.6420 C   0  0  0  0  0  0  0  0  0  0  0  0
   -6.1450  -26.4245   31.4333 N   0  0  0  0  0  0  0  0  0  0  0  0
   -5.3315  -29.2521   30.3762 N   0  0  0  0  0  0  0  0  0  0  0  0
   -5.4446  -30.4373   29.7436 C   0  0  0  0  0  0  0  0  0  0  0  0
   -6.6638  -30.5159   29.1740 N   0  0  0  0  0  0  0  0  0  0  0  0
  1  7  2  0  0  0  0
  1  2  1  0  0  0  0
  2  3  1  0  0  0  0
  2  4  2  0  0  0  0
  4  5  1  0  0  0  0
  5  6  2  0  0  0  0
  5 11  1  0  0  0  0
  6  7  1  0  0  0  0
  6  9  1  0  0  0  0
  7  8  1  0  0  0  0
  9 10  1  0  0  0  0
 10 11  2  0  0  0  0
M  END
>  <CHROM.1>
-7.34901521,-28.38832658,29.92757130,-2.61192087,0.37281517,-2.68068774

>  <Name>
ligand

>  <RI>
0

>  <Rbt.Current_Directory>
/home/itssahil/PROJECTS/Mol_Feturizer/New_Systems/rnas/4LVZ

>  <Rbt.Executable>
rbdock ($Id: //depot/dev/client3/rdock/2013.1/src/exe/rbdock.cxx#4 $)

>  <Rbt.Library>
libRbt.so (2013.1, Build901 2013/11/27)

>  <Rbt.Parameter_File>
/export/apps/rDock/src/rDock_2013.1_src/data/scripts/dock_solv.prm

>  <Rbt.Receptor>
prm/blind_docking_80.prm

>  <SCORE>
-10.4004

>  <SCORE.INTER>
-10.4004

>  <SCORE.INTER.CONST>
1

>  <SCORE.INTER.POLAR>
0

>  <SCORE.INTER.ROT>
0

>  <SCORE.INTER.SOLV>
6.01719

>  <SCORE.INTER.VDW>
-12.5393

>  <SCORE.INTER.norm>
-0.945491

>  <SCORE.INTRA>
0

>  <SCORE.INTRA.DIHEDRAL>
0

>  <SCORE.INTRA.DIHEDRAL.0>
0

>  <SCORE.INTRA.POLAR>
0

>  <SCORE.INTRA.POLAR.0>
0

>  <SCORE.INTRA.REPUL>
0

>  <SCORE.INTRA.REPUL.0>
0

>  <SCORE.INTRA.SOLV>
0

>  <SCORE.INTRA.SOLV.lig_0>
-49.4056

>  <SCORE.INTRA.VDW>
0

>  <SCORE.INTRA.VDW.0>
0

>  <SCORE.INTRA.norm>
0

>  <SCORE.RESTR>
0

>  <SCORE.RESTR.CAVITY>
0

>  <SCORE.RESTR.norm>
0

>  <SCORE.SYSTEM>
0

>  <SCORE.SYSTEM.CONST>
0

>  <SCORE.SYSTEM.DIHEDRAL>
0

>  <SCORE.SYSTEM.SOLV>
0

>  <SCORE.SYSTEM.norm>
0

>  <SCORE.heavy>
11

>  <SCORE.norm>
-0.945491

>  <RMSD>
13.437

$$$$
ligand
 OpenBabel11021811503D
libRbt.so/2013.1/901 2013/11/27
 11 12  0  0  0  0  0  0  0  0999 V2000
   -8.2398  -26.8810   30.2763 N   0  0  0  0  0  0  0  0  0  0  0  0
   -9.0283  -27.6839   29.5197 C   0  0  0  0  0  0  0  0  0  0  0  0
  -10.3473  -27.2714   29.1427 N   0  0  0  0  0  0  0  0  0  0  0  0
   -8.5923  -28.8886   29.1108 N   0  0  0  0  0  0  0  0  0  0  0  0
   -7.3346  -29.3423   29.4395 C   0  0  0  0  0  0  0  0  0  0  0  0
   -6.5100  -28.5454   30.2125 C   0  0  0  0  0  0  0  0  0  0  0  0
   -6.9989  -27.2742   30.6379 C   0  0  0  0  0  0  0  0  0  0  0  0
   -6.1729  -26.4250   31.4406 N   0  0  0  0  0  0  0  0  0  0  0  0
   -5.3311  -29.2452   30.3859 N   0  0  0  0  0  0  0  0  0  0  0  0
   -5.4301  -30.4295   29.7493 C   0  0  0  0  0  0  0  0  0  0  0  0
   -6.6424  -30.5137   29.1659 N   0  0  0  0  0  0  0  0  0  0  0  0
  1  7  2  0  0  0  0
  1  2  1  0  0  0  0
  2  3  1  0  0  0  0
  2  4  2  0  0  0  0
  4  5  1  0  0  0  0
  5  6  2  0  0  0  0
  5 11  1  0  0  0  0
  6  7  1  0  0  0  0
  6  9  1  0  0  0  0
  7  8  1  0  0  0  0
  9 10  1  0  0  0  0
 10 11  2  0  0  0  0
M  END
>  <CHROM.1>
-7.34844176,-28.39207838,29.91678556,-2.62292064,0.38020245,-2.67422348

>  <Name>
ligand

>  <RI>
0

>  <Rbt.Current_Directory>
/home/itssahil/PROJECTS/Mol_Feturizer/New_Systems/rnas/4LVZ

>  <Rbt.Executable>
rbdock ($Id: //depot/dev/client3/rdock/2013.1/src/exe/rbdock.cxx#4 $)

>  <Rbt.Library>
libRbt.so (2013.1, Build901 2013/11/27)

>  <Rbt.Parameter_File>
/export/apps/rDock/src/rDock_2013.1_src/data/scripts/dock_solv.prm

>  <Rbt.Receptor>
prm/blind_docking_100.prm

>  <SCORE>
-10.3865

>  <SCORE.INTER>
-10.3865

>  <SCORE.INTER.CONST>
1

>  <SCORE.INTER.POLAR>
0

>  <SCORE.INTER.ROT>
0

>  <SCORE.INTER.SOLV>
5.95158

>  <SCORE.INTER.VDW>
-12.5082

>  <SCORE.INTER.norm>
-0.944227

>  <SCORE.INTRA>
0

>  <SCORE.INTRA.DIHEDRAL>
0

>  <SCORE.INTRA.DIHEDRAL.0>
0

>  <SCORE.INTRA.POLAR>
0

>  <SCORE.INTRA.POLAR.0>
0

>  <SCORE.INTRA.REPUL>
0

>  <SCORE.INTRA.REPUL.0>
0

>  <SCORE.INTRA.SOLV>
0

>  <SCORE.INTRA.SOLV.lig_0>
-49.4056

>  <SCORE.INTRA.VDW>
0

>  <SCORE.INTRA.VDW.0>
0

>  <SCORE.INTRA.norm>
0

>  <SCORE.RESTR>
0

>  <SCORE.RESTR.CAVITY>
0

>  <SCORE.RESTR.norm>
0

>  <SCORE.SYSTEM>
0

>  <SCORE.SYSTEM.CONST>
0

>  <SCORE.SYSTEM.DIHEDRAL>
0

>  <SCORE.SYSTEM.SOLV>
0

>  <SCORE.SYSTEM.norm>
0

>  <SCORE.heavy>
11

>  <SCORE.norm>
-0.944227

>  <RMSD>
13.438

$$$$
ligand
 OpenBabel11021811503D
libRbt.so/2013.1/901 2013/11/27
 11 12  0  0  0  0  0  0  0  0999 V2000
   -8.2289  -26.8709   30.2917 N   0  0  0  0  0  0  0  0  0  0  0  0
   -9.0304  -27.6713   29.5464 C   0  0  0  0  0  0  0  0  0  0  0  0
  -10.3508  -27.2518   29.1821 N   0  0  0  0  0  0  0  0  0  0  0  0
   -8.6064  -28.8801   29.1368 N   0  0  0  0  0  0  0  0  0  0  0  0
   -7.3481  -29.3405   29.4535 C   0  0  0  0  0  0  0  0  0  0  0  0
   -6.5103  -28.5463   30.2149 C   0  0  0  0  0  0  0  0  0  0  0  0
   -6.9867  -27.2708   30.6414 C   0  0  0  0  0  0  0  0  0  0  0  0
   -6.1468  -26.4241   31.4323 N   0  0  0  0  0  0  0  0  0  0  0  0
   -5.3340  -29.2530   30.3780 N   0  0  0  0  0  0  0  0  0  0  0  0
   -5.4473  -30.4387   29.7465 C   0  0  0  0  0  0  0  0  0  0  0  0
   -6.6662  -30.5172   29.1764 N   0  0  0  0  0  0  0  0  0  0  0  0
  1  7  2  0  0  0  0
  1  2  1  0  0  0  0
  2  3  1  0  0  0  0
  2  4  2  0  0  0  0
  4  5  1  0  0  0  0
  5  6  2  0  0  0  0
  5 11  1  0  0  0  0
  6  7  1  0  0  0  0
  6  9  1  0  0  0  0
  7  8  1  0  0  0  0
  9 10  1  0  0  0  0
 10 11  2  0  0  0  0
M  END
>  <CHROM.1>
-7.35089280,-28.38873126,29.92774178,-2.61173311,0.37341744,-2.68163267

>  <Name>
ligand

>  <RI>
0

>  <Rbt.Current_Directory>
/home/itssahil/PROJECTS/Mol_Feturizer/New_Systems/rnas/4LVZ

>  <Rbt.Executable>
rbdock ($Id: //depot/dev/client3/rdock/2013.1/src/exe/rbdock.cxx#4 $)

>  <Rbt.Library>
libRbt.so (2013.1, Build901 2013/11/27)

>  <Rbt.Parameter_File>
/export/apps/rDock/src/rDock_2013.1_src/data/scripts/dock_solv.prm

>  <Rbt.Receptor>
prm/blind_docking_80.prm

>  <SCORE>
-10.3988

>  <SCORE.INTER>
-10.3988

>  <SCORE.INTER.CONST>
1

>  <SCORE.INTER.POLAR>
0

>  <SCORE.INTER.ROT>
0

>  <SCORE.INTER.SOLV>
6.01942

>  <SCORE.INTER.VDW>
-12.539

>  <SCORE.INTER.norm>
-0.945345

>  <SCORE.INTRA>
0

>  <SCORE.INTRA.DIHEDRAL>
0

>  <SCORE.INTRA.DIHEDRAL.0>
0

>  <SCORE.INTRA.POLAR>
0

>  <SCORE.INTRA.POLAR.0>
0

>  <SCORE.INTRA.REPUL>
0

>  <SCORE.INTRA.REPUL.0>
0

>  <SCORE.INTRA.SOLV>
0

>  <SCORE.INTRA.SOLV.lig_0>
-49.4056

>  <SCORE.INTRA.VDW>
0

>  <SCORE.INTRA.VDW.0>
0

>  <SCORE.INTRA.norm>
0

>  <SCORE.RESTR>
0

>  <SCORE.RESTR.CAVITY>
0

>  <SCORE.RESTR.norm>
0

>  <SCORE.SYSTEM>
0

>  <SCORE.SYSTEM.CONST>
0

>  <SCORE.SYSTEM.DIHEDRAL>
0

>  <SCORE.SYSTEM.SOLV>
0

>  <SCORE.SYSTEM.norm>
0

>  <SCORE.heavy>
11

>  <SCORE.norm>
-0.945345

>  <RMSD>
13.438

$$$$
ligand
 OpenBabel11021811503D
libRbt.so/2013.1/901 2013/11/27
 11 12  0  0  0  0  0  0  0  0999 V2000
   -8.2903  -26.8363   30.3222 N   0  0  0  0  0  0  0  0  0  0  0  0
   -9.0661  -27.6370   29.5505 C   0  0  0  0  0  0  0  0  0  0  0  0
  -10.3866  -27.2324   29.1700 N   0  0  0  0  0  0  0  0  0  0  0  0
   -8.6160  -28.8323   29.1293 N   0  0  0  0  0  0  0  0  0  0  0  0
   -7.3561  -29.2780   29.4604 C   0  0  0  0  0  0  0  0  0  0  0  0
   -6.5442  -28.4831   30.2487 C   0  0  0  0  0  0  0  0  0  0  0  0
   -7.0481  -27.2222   30.6870 C   0  0  0  0  0  0  0  0  0  0  0  0
   -6.2354  -26.3753   31.5057 N   0  0  0  0  0  0  0  0  0  0  0  0
   -5.3597  -29.1738   30.4211 N   0  0  0  0  0  0  0  0  0  0  0  0
   -5.4433  -30.3509   29.7690 C   0  0  0  0  0  0  0  0  0  0  0  0
   -6.6509  -30.4393   29.1766 N   0  0  0  0  0  0  0  0  0  0  0  0
  1  7  2  0  0  0  0
  1  2  1  0  0  0  0
  2  3  1  0  0  0  0
  2  4  2  0  0  0  0
  4  5  1  0  0  0  0
  5  6  2  0  0  0  0
  5 11  1  0  0  0  0
  6  7  1  0  0  0  0
  6  9  1  0  0  0  0
  7  8  1  0  0  0  0
  9 10  1  0  0  0  0
 10 11  2  0  0  0  0
M  END
>  <CHROM.1>
-7.38213653,-28.33409941,29.94954722,-2.63529370,0.38158045,-2.65699761

>  <Name>
ligand

>  <RI>
0

>  <Rbt.Current_Directory>
/home/itssahil/PROJECTS/Mol_Feturizer/New_Systems/rnas/4LVZ

>  <Rbt.Executable>
rbdock ($Id: //depot/dev/client3/rdock/2013.1/src/exe/rbdock.cxx#4 $)

>  <Rbt.Library>
libRbt.so (2013.1, Build901 2013/11/27)

>  <Rbt.Parameter_File>
/export/apps/rDock/src/rDock_2013.1_src/data/scripts/dock_solv.prm

>  <Rbt.Receptor>
prm/blind_docking_100.prm

>  <SCORE>
-10.3349

>  <SCORE.INTER>
-10.3349

>  <SCORE.INTER.CONST>
1

>  <SCORE.INTER.POLAR>
0

>  <SCORE.INTER.ROT>
0

>  <SCORE.INTER.SOLV>
5.72599

>  <SCORE.INTER.VDW>
-12.3986

>  <SCORE.INTER.norm>
-0.939532

>  <SCORE.INTRA>
0

>  <SCORE.INTRA.DIHEDRAL>
0

>  <SCORE.INTRA.DIHEDRAL.0>
0

>  <SCORE.INTRA.POLAR>
0

>  <SCORE.INTRA.POLAR.0>
0

>  <SCORE.INTRA.REPUL>
0

>  <SCORE.INTRA.REPUL.0>
0

>  <SCORE.INTRA.SOLV>
0

>  <SCORE.INTRA.SOLV.lig_0>
-49.4056

>  <SCORE.INTRA.VDW>
0

>  <SCORE.INTRA.VDW.0>
0

>  <SCORE.INTRA.norm>
0

>  <SCORE.RESTR>
0

>  <SCORE.RESTR.CAVITY>
0

>  <SCORE.RESTR.norm>
0

>  <SCORE.SYSTEM>
0

>  <SCORE.SYSTEM.CONST>
0

>  <SCORE.SYSTEM.DIHEDRAL>
0

>  <SCORE.SYSTEM.SOLV>
0

>  <SCORE.SYSTEM.norm>
0

>  <SCORE.heavy>
11

>  <SCORE.norm>
-0.939532

>  <RMSD>
13.439

$$$$
ligand
 OpenBabel11021811503D
libRbt.so/2013.1/901 2013/11/27
 11 12  0  0  0  0  0  0  0  0999 V2000
   -8.2461  -26.8757   30.2534 N   0  0  0  0  0  0  0  0  0  0  0  0
   -9.0330  -27.6819   29.4988 C   0  0  0  0  0  0  0  0  0  0  0  0
  -10.3502  -27.2701   29.1150 N   0  0  0  0  0  0  0  0  0  0  0  0
   -8.5972  -28.8896   29.0984 N   0  0  0  0  0  0  0  0  0  0  0  0
   -7.3412  -29.3428   29.4339 C   0  0  0  0  0  0  0  0  0  0  0  0
   -6.5182  -28.5425   30.2051 C   0  0  0  0  0  0  0  0  0  0  0  0
   -7.0070  -27.2683   30.6215 C   0  0  0  0  0  0  0  0  0  0  0  0
   -6.1826  -26.4154   31.4221 N   0  0  0  0  0  0  0  0  0  0  0  0
   -5.3407  -29.2427   30.3866 N   0  0  0  0  0  0  0  0  0  0  0  0
   -5.4391  -30.4306   29.7565 C   0  0  0  0  0  0  0  0  0  0  0  0
   -6.6494  -30.5167   29.1695 N   0  0  0  0  0  0  0  0  0  0  0  0
  1  7  2  0  0  0  0
  1  2  1  0  0  0  0
  2  3  1  0  0  0  0
  2  4  2  0  0  0  0
  4  5  1  0  0  0  0
  5  6  2  0  0  0  0
  5 11  1  0  0  0  0
  6  7  1  0  0  0  0
  6  9  1  0  0  0  0
  7  8  1  0  0  0  0
  9 10  1  0  0  0  0
 10 11  2  0  0  0  0
M  END
>  <CHROM.1>
-7.35543637,-28.38988310,29.90567854,-2.62337239,0.38378895,-2.67984130

>  <Name>
ligand

>  <RI>
0

>  <Rbt.Current_Directory>
/home/itssahil/PROJECTS/Mol_Feturizer/New_Systems/rnas/4LVZ

>  <Rbt.Executable>
rbdock ($Id: //depot/dev/client3/rdock/2013.1/src/exe/rbdock.cxx#4 $)

>  <Rbt.Library>
libRbt.so (2013.1, Build901 2013/11/27)

>  <Rbt.Parameter_File>
/export/apps/rDock/src/rDock_2013.1_src/data/scripts/dock_solv.prm

>  <Rbt.Receptor>
prm/blind_docking_80.prm

>  <SCORE>
-10.3772

>  <SCORE.INTER>
-10.3772

>  <SCORE.INTER.CONST>
1

>  <SCORE.INTER.POLAR>
0

>  <SCORE.INTER.ROT>
0

>  <SCORE.INTER.SOLV>
6.03707

>  <SCORE.INTER.VDW>
-12.5305

>  <SCORE.INTER.norm>
-0.943379

>  <SCORE.INTRA>
0

>  <SCORE.INTRA.DIHEDRAL>
0

>  <SCORE.INTRA.DIHEDRAL.0>
0

>  <SCORE.INTRA.POLAR>
0

>  <SCORE.INTRA.POLAR.0>
0

>  <SCORE.INTRA.REPUL>
0

>  <SCORE.INTRA.REPUL.0>
0

>  <SCORE.INTRA.SOLV>
0

>  <SCORE.INTRA.SOLV.lig_0>
-49.4056

>  <SCORE.INTRA.VDW>
0

>  <SCORE.INTRA.VDW.0>
0

>  <SCORE.INTRA.norm>
0

>  <SCORE.RESTR>
0

>  <SCORE.RESTR.CAVITY>
0

>  <SCORE.RESTR.norm>
0

>  <SCORE.SYSTEM>
0

>  <SCORE.SYSTEM.CONST>
0

>  <SCORE.SYSTEM.DIHEDRAL>
0

>  <SCORE.SYSTEM.SOLV>
0

>  <SCORE.SYSTEM.norm>
0

>  <SCORE.heavy>
11

>  <SCORE.norm>
-0.943379

>  <RMSD>
13.439

$$$$
ligand
 OpenBabel11021811503D
libRbt.so/2013.1/901 2013/11/27
 11 12  0  0  0  0  0  0  0  0999 V2000
   -8.2383  -26.8798   30.2755 N   0  0  0  0  0  0  0  0  0  0  0  0
   -9.0330  -27.6865   29.5297 C   0  0  0  0  0  0  0  0  0  0  0  0
  -10.3547  -27.2754   29.1606 N   0  0  0  0  0  0  0  0  0  0  0  0
   -8.6009  -28.8938   29.1241 N   0  0  0  0  0  0  0  0  0  0  0  0
   -7.3409  -29.3462   29.4455 C   0  0  0  0  0  0  0  0  0  0  0  0
   -6.5099  -28.5455   30.2075 C   0  0  0  0  0  0  0  0  0  0  0  0
   -6.9948  -27.2717   30.6296 C   0  0  0  0  0  0  0  0  0  0  0  0
   -6.1621  -26.4184   31.4210 N   0  0  0  0  0  0  0  0  0  0  0  0
   -5.3300  -29.2449   30.3756 N   0  0  0  0  0  0  0  0  0  0  0  0
   -5.4346  -30.4328   29.7465 C   0  0  0  0  0  0  0  0  0  0  0  0
   -6.6514  -30.5196   29.1730 N   0  0  0  0  0  0  0  0  0  0  0  0
  1  7  2  0  0  0  0
  1  2  1  0  0  0  0
  2  3  1  0  0  0  0
  2  4  2  0  0  0  0
  4  5  1  0  0  0  0
  5  6  2  0  0  0  0
  5 11  1  0  0  0  0
  6  7  1  0  0  0  0
  6  9  1  0  0  0  0
  7  8  1  0  0  0  0
  9 10  1  0  0  0  0
 10 11  2  0  0  0  0
M  END
>  <CHROM.1>
-7.35051994,-28.39336314,29.91751158,-2.61864612,0.37344044,-2.68141146

>  <Name>
ligand

>  <RI>
0

>  <Rbt.Current_Directory>
/home/itssahil/PROJECTS/Mol_Feturizer/New_Systems/rnas/4LVZ

>  <Rbt.Executable>
rbdock ($Id: //depot/dev/client3/rdock/2013.1/src/exe/rbdock.cxx#4 $)

>  <Rbt.Library>
libRbt.so (2013.1, Build901 2013/11/27)

>  <Rbt.Parameter_File>
/export/apps/rDock/src/rDock_2013.1_src/data/scripts/dock_solv.prm

>  <Rbt.Receptor>
prm/blind_docking_100.prm

>  <SCORE>
-10.3847

>  <SCORE.INTER>
-10.3847

>  <SCORE.INTER.CONST>
1

>  <SCORE.INTER.POLAR>
0

>  <SCORE.INTER.ROT>
0

>  <SCORE.INTER.SOLV>
5.9974

>  <SCORE.INTER.VDW>
-12.5223

>  <SCORE.INTER.norm>
-0.944067

>  <SCORE.INTRA>
0

>  <SCORE.INTRA.DIHEDRAL>
0

>  <SCORE.INTRA.DIHEDRAL.0>
0

>  <SCORE.INTRA.POLAR>
0

>  <SCORE.INTRA.POLAR.0>
0

>  <SCORE.INTRA.REPUL>
0

>  <SCORE.INTRA.REPUL.0>
0

>  <SCORE.INTRA.SOLV>
0

>  <SCORE.INTRA.SOLV.lig_0>
-49.4056

>  <SCORE.INTRA.VDW>
0

>  <SCORE.INTRA.VDW.0>
0

>  <SCORE.INTRA.norm>
0

>  <SCORE.RESTR>
0

>  <SCORE.RESTR.CAVITY>
0

>  <SCORE.RESTR.norm>
0

>  <SCORE.SYSTEM>
0

>  <SCORE.SYSTEM.CONST>
0

>  <SCORE.SYSTEM.DIHEDRAL>
0

>  <SCORE.SYSTEM.SOLV>
0

>  <SCORE.SYSTEM.norm>
0

>  <SCORE.heavy>
11

>  <SCORE.norm>
-0.944067

>  <RMSD>
13.440

$$$$
ligand
 OpenBabel11021811503D
libRbt.so/2013.1/901 2013/11/27
 11 12  0  0  0  0  0  0  0  0999 V2000
   -8.2448  -26.8829   30.2755 N   0  0  0  0  0  0  0  0  0  0  0  0
   -9.0288  -27.6833   29.5118 C   0  0  0  0  0  0  0  0  0  0  0  0
  -10.3457  -27.2699   29.1288 N   0  0  0  0  0  0  0  0  0  0  0  0
   -8.5902  -28.8866   29.1012 N   0  0  0  0  0  0  0  0  0  0  0  0
   -7.3342  -29.3410   29.4354 C   0  0  0  0  0  0  0  0  0  0  0  0
   -6.5142  -28.5466   30.2157 C   0  0  0  0  0  0  0  0  0  0  0  0
   -7.0059  -27.2771   30.6428 C   0  0  0  0  0  0  0  0  0  0  0  0
   -6.1845  -26.4304   31.4530 N   0  0  0  0  0  0  0  0  0  0  0  0
   -5.3361  -29.2467   30.3933 N   0  0  0  0  0  0  0  0  0  0  0  0
   -5.4312  -30.4289   29.7521 C   0  0  0  0  0  0  0  0  0  0  0  0
   -6.6402  -30.5114   29.1616 N   0  0  0  0  0  0  0  0  0  0  0  0
  1  7  2  0  0  0  0
  1  2  1  0  0  0  0
  2  3  1  0  0  0  0
  2  4  2  0  0  0  0
  4  5  1  0  0  0  0
  5  6  2  0  0  0  0
  5 11  1  0  0  0  0
  6  7  1  0  0  0  0
  6  9  1  0  0  0  0
  7  8  1  0  0  0  0
  9 10  1  0  0  0  0
 10 11  2  0  0  0  0
M  END
>  <CHROM.1>
-7.35100798,-28.39249635,29.91585638,-2.62590934,0.38510055,-2.66965382

>  <Name>
ligand

>  <RI>
0

>  <Rbt.Current_Directory>
/home/itssahil/PROJECTS/Mol_Feturizer/New_Systems/rnas/4LVZ

>  <Rbt.Executable>
rbdock ($Id: //depot/dev/client3/rdock/2013.1/src/exe/rbdock.cxx#4 $)

>  <Rbt.Library>
libRbt.so (2013.1, Build901 2013/11/27)

>  <Rbt.Parameter_File>
/export/apps/rDock/src/rDock_2013.1_src/data/scripts/dock_solv.prm

>  <Rbt.Receptor>
prm/blind_docking_100.prm

>  <SCORE>
-10.3843

>  <SCORE.INTER>
-10.3843

>  <SCORE.INTER.CONST>
1

>  <SCORE.INTER.POLAR>
0

>  <SCORE.INTER.ROT>
0

>  <SCORE.INTER.SOLV>
5.91543

>  <SCORE.INTER.VDW>
-12.4947

>  <SCORE.INTER.norm>
-0.944027

>  <SCORE.INTRA>
0

>  <SCORE.INTRA.DIHEDRAL>
0

>  <SCORE.INTRA.DIHEDRAL.0>
0

>  <SCORE.INTRA.POLAR>
0

>  <SCORE.INTRA.POLAR.0>
0

>  <SCORE.INTRA.REPUL>
0

>  <SCORE.INTRA.REPUL.0>
0

>  <SCORE.INTRA.SOLV>
0

>  <SCORE.INTRA.SOLV.lig_0>
-49.4056

>  <SCORE.INTRA.VDW>
0

>  <SCORE.INTRA.VDW.0>
0

>  <SCORE.INTRA.norm>
0

>  <SCORE.RESTR>
0

>  <SCORE.RESTR.CAVITY>
0

>  <SCORE.RESTR.norm>
0

>  <SCORE.SYSTEM>
0

>  <SCORE.SYSTEM.CONST>
0

>  <SCORE.SYSTEM.DIHEDRAL>
0

>  <SCORE.SYSTEM.SOLV>
0

>  <SCORE.SYSTEM.norm>
0

>  <SCORE.heavy>
11

>  <SCORE.norm>
-0.944027

>  <RMSD>
13.441

$$$$
ligand
 OpenBabel11021811503D
libRbt.so/2013.1/901 2013/11/27
 11 12  0  0  0  0  0  0  0  0999 V2000
   -8.2437  -26.8310   30.2605 N   0  0  0  0  0  0  0  0  0  0  0  0
   -9.0308  -27.6220   29.4903 C   0  0  0  0  0  0  0  0  0  0  0  0
  -10.3317  -27.1847   29.0800 N   0  0  0  0  0  0  0  0  0  0  0  0
   -8.6107  -28.8382   29.0987 N   0  0  0  0  0  0  0  0  0  0  0  0
   -7.3708  -29.3157   29.4596 C   0  0  0  0  0  0  0  0  0  0  0  0
   -6.5481  -28.5313   30.2471 C   0  0  0  0  0  0  0  0  0  0  0  0
   -7.0201  -27.2476   30.6535 C   0  0  0  0  0  0  0  0  0  0  0  0
   -6.1955  -26.4107   31.4705 N   0  0  0  0  0  0  0  0  0  0  0  0
   -5.3884  -29.2543   30.4523 N   0  0  0  0  0  0  0  0  0  0  0  0
   -5.4972  -30.4403   29.8204 C   0  0  0  0  0  0  0  0  0  0  0  0
   -6.6970  -30.5030   29.2091 N   0  0  0  0  0  0  0  0  0  0  0  0
  1  7  2  0  0  0  0
  1  2  1  0  0  0  0
  2  3  1  0  0  0  0
  2  4  2  0  0  0  0
  4  5  1  0  0  0  0
  5  6  2  0  0  0  0
  5 11  1  0  0  0  0
  6  7  1  0  0  0  0
  6  9  1  0  0  0  0
  7  8  1  0  0  0  0
  9 10  1  0  0  0  0
 10 11  2  0  0  0  0
M  END
>  <CHROM.1>
-7.37592867,-28.36247314,29.93087156,-2.61406642,0.41050769,-2.68368734

>  <Name>
ligand

>  <RI>
0

>  <Rbt.Current_Directory>
/home/itssahil/PROJECTS/Mol_Feturizer/New_Systems/rnas/4LVZ

>  <Rbt.Executable>
rbdock ($Id: //depot/dev/client3/rdock/2013.1/src/exe/rbdock.cxx#4 $)

>  <Rbt.Library>
libRbt.so (2013.1, Build901 2013/11/27)

>  <Rbt.Parameter_File>
/export/apps/rDock/src/rDock_2013.1_src/data/scripts/dock_solv.prm

>  <Rbt.Receptor>
prm/blind_docking_100.prm

>  <SCORE>
-10.3488

>  <SCORE.INTER>
-10.3488

>  <SCORE.INTER.CONST>
1

>  <SCORE.INTER.POLAR>
0

>  <SCORE.INTER.ROT>
0

>  <SCORE.INTER.SOLV>
6.14928

>  <SCORE.INTER.VDW>
-12.549

>  <SCORE.INTER.norm>
-0.9408

>  <SCORE.INTRA>
0

>  <SCORE.INTRA.DIHEDRAL>
0

>  <SCORE.INTRA.DIHEDRAL.0>
0

>  <SCORE.INTRA.POLAR>
0

>  <SCORE.INTRA.POLAR.0>
0

>  <SCORE.INTRA.REPUL>
0

>  <SCORE.INTRA.REPUL.0>
0

>  <SCORE.INTRA.SOLV>
0

>  <SCORE.INTRA.SOLV.lig_0>
-49.4056

>  <SCORE.INTRA.VDW>
0

>  <SCORE.INTRA.VDW.0>
0

>  <SCORE.INTRA.norm>
0

>  <SCORE.RESTR>
0

>  <SCORE.RESTR.CAVITY>
0

>  <SCORE.RESTR.norm>
0

>  <SCORE.SYSTEM>
0

>  <SCORE.SYSTEM.CONST>
0

>  <SCORE.SYSTEM.DIHEDRAL>
0

>  <SCORE.SYSTEM.SOLV>
0

>  <SCORE.SYSTEM.norm>
0

>  <SCORE.heavy>
11

>  <SCORE.norm>
-0.9408

>  <RMSD>
13.442

$$$$
ligand
 OpenBabel11021811503D
libRbt.so/2013.1/901 2013/11/27
 11 12  0  0  0  0  0  0  0  0999 V2000
   -8.2463  -26.8815   30.2732 N   0  0  0  0  0  0  0  0  0  0  0  0
   -9.0373  -27.6872   29.5223 C   0  0  0  0  0  0  0  0  0  0  0  0
  -10.3574  -27.2761   29.1479 N   0  0  0  0  0  0  0  0  0  0  0  0
   -8.6027  -28.8936   29.1166 N   0  0  0  0  0  0  0  0  0  0  0  0
   -7.3440  -29.3461   29.4430 C   0  0  0  0  0  0  0  0  0  0  0  0
   -6.5169  -28.5463   30.2103 C   0  0  0  0  0  0  0  0  0  0  0  0
   -7.0043  -27.2735   30.6324 C   0  0  0  0  0  0  0  0  0  0  0  0
   -6.1756  -26.4213   31.4292 N   0  0  0  0  0  0  0  0  0  0  0  0
   -5.3375  -29.2456   30.3826 N   0  0  0  0  0  0  0  0  0  0  0  0
   -5.4387  -30.4323   29.7509 C   0  0  0  0  0  0  0  0  0  0  0  0
   -6.6528  -30.5187   29.1717 N   0  0  0  0  0  0  0  0  0  0  0  0
  1  7  2  0  0  0  0
  1  2  1  0  0  0  0
  2  3  1  0  0  0  0
  2  4  2  0  0  0  0
  4  5  1  0  0  0  0
  5  6  2  0  0  0  0
  5 11  1  0  0  0  0
  6  7  1  0  0  0  0
  6  9  1  0  0  0  0
  7  8  1  0  0  0  0
  9 10  1  0  0  0  0
 10 11  2  0  0  0  0
M  END
>  <CHROM.1>
-7.35625194,-28.39406787,29.91668162,-2.62127855,0.37739700,-2.67867476

>  <Name>
ligand

>  <RI>
0

>  <Rbt.Current_Directory>
/home/itssahil/PROJECTS/Mol_Feturizer/New_Systems/rnas/4LVZ

>  <Rbt.Executable>
rbdock ($Id: //depot/dev/client3/rdock/2013.1/src/exe/rbdock.cxx#4 $)

>  <Rbt.Library>
libRbt.so (2013.1, Build901 2013/11/27)

>  <Rbt.Parameter_File>
/export/apps/rDock/src/rDock_2013.1_src/data/scripts/dock_solv.prm

>  <Rbt.Receptor>
prm/blind_docking_60.prm

>  <SCORE>
-10.3844

>  <SCORE.INTER>
-10.3844

>  <SCORE.INTER.CONST>
1

>  <SCORE.INTER.POLAR>
0

>  <SCORE.INTER.ROT>
0

>  <SCORE.INTER.SOLV>
5.96649

>  <SCORE.INTER.VDW>
-12.5117

>  <SCORE.INTER.norm>
-0.944034

>  <SCORE.INTRA>
0

>  <SCORE.INTRA.DIHEDRAL>
0

>  <SCORE.INTRA.DIHEDRAL.0>
0

>  <SCORE.INTRA.POLAR>
0

>  <SCORE.INTRA.POLAR.0>
0

>  <SCORE.INTRA.REPUL>
0

>  <SCORE.INTRA.REPUL.0>
0

>  <SCORE.INTRA.SOLV>
0

>  <SCORE.INTRA.SOLV.lig_0>
-49.4056

>  <SCORE.INTRA.VDW>
0

>  <SCORE.INTRA.VDW.0>
0

>  <SCORE.INTRA.norm>
0

>  <SCORE.RESTR>
0

>  <SCORE.RESTR.CAVITY>
0

>  <SCORE.RESTR.norm>
0

>  <SCORE.SYSTEM>
0

>  <SCORE.SYSTEM.CONST>
0

>  <SCORE.SYSTEM.DIHEDRAL>
0

>  <SCORE.SYSTEM.SOLV>
0

>  <SCORE.SYSTEM.norm>
0

>  <SCORE.heavy>
11

>  <SCORE.norm>
-0.944034

>  <RMSD>
13.444

$$$$
ligand
 OpenBabel11021811503D
libRbt.so/2013.1/901 2013/11/27
 11 12  0  0  0  0  0  0  0  0999 V2000
   -8.3107  -26.7966   30.1656 N   0  0  0  0  0  0  0  0  0  0  0  0
   -9.0949  -27.6216   29.4287 C   0  0  0  0  0  0  0  0  0  0  0  0
  -10.4036  -27.2125   29.0141 N   0  0  0  0  0  0  0  0  0  0  0  0
   -8.6643  -28.8457   29.0750 N   0  0  0  0  0  0  0  0  0  0  0  0
   -7.4165  -29.2974   29.4419 C   0  0  0  0  0  0  0  0  0  0  0  0
   -6.5966  -28.4780   30.1960 C   0  0  0  0  0  0  0  0  0  0  0  0
   -7.0797  -27.1865   30.5628 C   0  0  0  0  0  0  0  0  0  0  0  0
   -6.2583  -26.3136   31.3446 N   0  0  0  0  0  0  0  0  0  0  0  0
   -5.4274  -29.1811   30.4163 N   0  0  0  0  0  0  0  0  0  0  0  0
   -5.5279  -30.3888   29.8255 C   0  0  0  0  0  0  0  0  0  0  0  0
   -6.7315  -30.4851   29.2262 N   0  0  0  0  0  0  0  0  0  0  0  0
  1  7  2  0  0  0  0
  1  2  1  0  0  0  0
  2  3  1  0  0  0  0
  2  4  2  0  0  0  0
  4  5  1  0  0  0  0
  5  6  2  0  0  0  0
  5 11  1  0  0  0  0
  6  7  1  0  0  0  0
  6  9  1  0  0  0  0
  7  8  1  0  0  0  0
  9 10  1  0  0  0  0
 10 11  2  0  0  0  0
M  END
>  <CHROM.1>
-7.42860443,-28.32887847,29.88085536,-2.62122695,0.39886764,-2.71454699

>  <Name>
ligand

>  <RI>
0

>  <Rbt.Current_Directory>
/home/itssahil/PROJECTS/Mol_Feturizer/New_Systems/rnas/4LVZ

>  <Rbt.Executable>
rbdock ($Id: //depot/dev/client3/rdock/2013.1/src/exe/rbdock.cxx#4 $)

>  <Rbt.Library>
libRbt.so (2013.1, Build901 2013/11/27)

>  <Rbt.Parameter_File>
/export/apps/rDock/src/rDock_2013.1_src/data/scripts/dock_solv.prm

>  <Rbt.Receptor>
prm/blind_docking_80.prm

>  <SCORE>
-10.344

>  <SCORE.INTER>
-10.344

>  <SCORE.INTER.CONST>
1

>  <SCORE.INTER.POLAR>
0

>  <SCORE.INTER.ROT>
0

>  <SCORE.INTER.SOLV>
6.39776

>  <SCORE.INTER.VDW>
-12.6286

>  <SCORE.INTER.norm>
-0.940362

>  <SCORE.INTRA>
0

>  <SCORE.INTRA.DIHEDRAL>
0

>  <SCORE.INTRA.DIHEDRAL.0>
0

>  <SCORE.INTRA.POLAR>
0

>  <SCORE.INTRA.POLAR.0>
0

>  <SCORE.INTRA.REPUL>
0

>  <SCORE.INTRA.REPUL.0>
0

>  <SCORE.INTRA.SOLV>
0

>  <SCORE.INTRA.SOLV.lig_0>
-49.4056

>  <SCORE.INTRA.VDW>
0

>  <SCORE.INTRA.VDW.0>
0

>  <SCORE.INTRA.norm>
0

>  <SCORE.RESTR>
0

>  <SCORE.RESTR.CAVITY>
0

>  <SCORE.RESTR.norm>
0

>  <SCORE.SYSTEM>
0

>  <SCORE.SYSTEM.CONST>
0

>  <SCORE.SYSTEM.DIHEDRAL>
0

>  <SCORE.SYSTEM.SOLV>
0

>  <SCORE.SYSTEM.norm>
0

>  <SCORE.heavy>
11

>  <SCORE.norm>
-0.940362

>  <RMSD>
13.446

$$$$
ligand
 OpenBabel11021811503D
libRbt.so/2013.1/901 2013/11/27
 11 12  0  0  0  0  0  0  0  0999 V2000
   -8.2503  -26.8833   30.2744 N   0  0  0  0  0  0  0  0  0  0  0  0
   -9.0364  -27.6870   29.5163 C   0  0  0  0  0  0  0  0  0  0  0  0
  -10.3548  -27.2757   29.1361 N   0  0  0  0  0  0  0  0  0  0  0  0
   -8.5987  -28.8916   29.1088 N   0  0  0  0  0  0  0  0  0  0  0  0
   -7.3414  -29.3442   29.4406 C   0  0  0  0  0  0  0  0  0  0  0  0
   -6.5192  -28.5464   30.2152 C   0  0  0  0  0  0  0  0  0  0  0  0
   -7.0100  -27.2755   30.6390 C   0  0  0  0  0  0  0  0  0  0  0  0
   -6.1864  -26.4253   31.4433 N   0  0  0  0  0  0  0  0  0  0  0  0
   -5.3401  -29.2453   30.3916 N   0  0  0  0  0  0  0  0  0  0  0  0
   -5.4368  -30.4300   29.7552 C   0  0  0  0  0  0  0  0  0  0  0  0
   -6.6477  -30.5153   29.1690 N   0  0  0  0  0  0  0  0  0  0  0  0
  1  7  2  0  0  0  0
  1  2  1  0  0  0  0
  2  3  1  0  0  0  0
  2  4  2  0  0  0  0
  4  5  1  0  0  0  0
  5  6  2  0  0  0  0
  5 11  1  0  0  0  0
  6  7  1  0  0  0  0
  6  9  1  0  0  0  0
  7  8  1  0  0  0  0
  9 10  1  0  0  0  0
 10 11  2  0  0  0  0
M  END
>  <CHROM.1>
-7.35700651,-28.39385905,29.91749681,-2.62473178,0.38193806,-2.67393259

>  <Name>
ligand

>  <RI>
0

>  <Rbt.Current_Directory>
/home/itssahil/PROJECTS/Mol_Feturizer/New_Systems/rnas/4LVZ

>  <Rbt.Executable>
rbdock ($Id: //depot/dev/client3/rdock/2013.1/src/exe/rbdock.cxx#4 $)

>  <Rbt.Library>
libRbt.so (2013.1, Build901 2013/11/27)

>  <Rbt.Parameter_File>
/export/apps/rDock/src/rDock_2013.1_src/data/scripts/dock_solv.prm

>  <Rbt.Receptor>
prm/blind_docking_80.prm

>  <SCORE>
-10.3863

>  <SCORE.INTER>
-10.3863

>  <SCORE.INTER.CONST>
1

>  <SCORE.INTER.POLAR>
0

>  <SCORE.INTER.ROT>
0

>  <SCORE.INTER.SOLV>
5.92176

>  <SCORE.INTER.VDW>
-12.4981

>  <SCORE.INTER.norm>
-0.944207

>  <SCORE.INTRA>
0

>  <SCORE.INTRA.DIHEDRAL>
0

>  <SCORE.INTRA.DIHEDRAL.0>
0

>  <SCORE.INTRA.POLAR>
0

>  <SCORE.INTRA.POLAR.0>
0

>  <SCORE.INTRA.REPUL>
0

>  <SCORE.INTRA.REPUL.0>
0

>  <SCORE.INTRA.SOLV>
0

>  <SCORE.INTRA.SOLV.lig_0>
-49.4056

>  <SCORE.INTRA.VDW>
0

>  <SCORE.INTRA.VDW.0>
0

>  <SCORE.INTRA.norm>
0

>  <SCORE.RESTR>
0

>  <SCORE.RESTR.CAVITY>
0

>  <SCORE.RESTR.norm>
0

>  <SCORE.SYSTEM>
0

>  <SCORE.SYSTEM.CONST>
0

>  <SCORE.SYSTEM.DIHEDRAL>
0

>  <SCORE.SYSTEM.SOLV>
0

>  <SCORE.SYSTEM.norm>
0

>  <SCORE.heavy>
11

>  <SCORE.norm>
-0.944207

>  <RMSD>
13.446

$$$$
ligand
 OpenBabel11021811503D
libRbt.so/2013.1/901 2013/11/27
 11 12  0  0  0  0  0  0  0  0999 V2000
   -8.2529  -26.8810   30.2743 N   0  0  0  0  0  0  0  0  0  0  0  0
   -9.0341  -27.6788   29.5049 C   0  0  0  0  0  0  0  0  0  0  0  0
  -10.3480  -27.2623   29.1150 N   0  0  0  0  0  0  0  0  0  0  0  0
   -8.5954  -28.8822   29.0949 N   0  0  0  0  0  0  0  0  0  0  0  0
   -7.3422  -29.3395   29.4356 C   0  0  0  0  0  0  0  0  0  0  0  0
   -6.5252  -28.5478   30.2218 C   0  0  0  0  0  0  0  0  0  0  0  0
   -7.0169  -27.2780   30.6480 C   0  0  0  0  0  0  0  0  0  0  0  0
   -6.1986  -26.4341   31.4642 N   0  0  0  0  0  0  0  0  0  0  0  0
   -5.3494  -29.2504   30.4051 N   0  0  0  0  0  0  0  0  0  0  0  0
   -5.4431  -30.4314   29.7615 C   0  0  0  0  0  0  0  0  0  0  0  0
   -6.6488  -30.5108   29.1640 N   0  0  0  0  0  0  0  0  0  0  0  0
  1  7  2  0  0  0  0
  1  2  1  0  0  0  0
  2  3  1  0  0  0  0
  2  4  2  0  0  0  0
  4  5  1  0  0  0  0
  5  6  2  0  0  0  0
  5 11  1  0  0  0  0
  6  7  1  0  0  0  0
  6  9  1  0  0  0  0
  7  8  1  0  0  0  0
  9 10  1  0  0  0  0
 10 11  2  0  0  0  0
M  END
>  <CHROM.1>
-7.35997027,-28.39170545,29.91741586,-2.62691484,0.39104189,-2.66775413

>  <Name>
ligand

>  <RI>
0

>  <Rbt.Current_Directory>
/home/itssahil/PROJECTS/Mol_Feturizer/New_Systems/rnas/4LVZ

>  <Rbt.Executable>
rbdock ($Id: //depot/dev/client3/rdock/2013.1/src/exe/rbdock.cxx#4 $)

>  <Rbt.Library>
libRbt.so (2013.1, Build901 2013/11/27)

>  <Rbt.Parameter_File>
/export/apps/rDock/src/rDock_2013.1_src/data/scripts/dock_solv.prm

>  <Rbt.Receptor>
prm/blind_docking_80.prm

>  <SCORE>
-10.3832

>  <SCORE.INTER>
-10.3832

>  <SCORE.INTER.CONST>
1

>  <SCORE.INTER.POLAR>
0

>  <SCORE.INTER.ROT>
0

>  <SCORE.INTER.SOLV>
5.88615

>  <SCORE.INTER.VDW>
-12.4842

>  <SCORE.INTER.norm>
-0.943927

>  <SCORE.INTRA>
0

>  <SCORE.INTRA.DIHEDRAL>
0

>  <SCORE.INTRA.DIHEDRAL.0>
0

>  <SCORE.INTRA.POLAR>
0

>  <SCORE.INTRA.POLAR.0>
0

>  <SCORE.INTRA.REPUL>
0

>  <SCORE.INTRA.REPUL.0>
0

>  <SCORE.INTRA.SOLV>
0

>  <SCORE.INTRA.SOLV.lig_0>
-49.4056

>  <SCORE.INTRA.VDW>
0

>  <SCORE.INTRA.VDW.0>
0

>  <SCORE.INTRA.norm>
0

>  <SCORE.RESTR>
0

>  <SCORE.RESTR.CAVITY>
0

>  <SCORE.RESTR.norm>
0

>  <SCORE.SYSTEM>
0

>  <SCORE.SYSTEM.CONST>
0

>  <SCORE.SYSTEM.DIHEDRAL>
0

>  <SCORE.SYSTEM.SOLV>
0

>  <SCORE.SYSTEM.norm>
0

>  <SCORE.heavy>
11

>  <SCORE.norm>
-0.943927

>  <RMSD>
13.447

$$$$
ligand
 OpenBabel11021811503D
libRbt.so/2013.1/901 2013/11/27
 11 12  0  0  0  0  0  0  0  0999 V2000
   -8.2587  -26.8849   30.2688 N   0  0  0  0  0  0  0  0  0  0  0  0
   -9.0369  -27.6853   29.4991 C   0  0  0  0  0  0  0  0  0  0  0  0
  -10.3514  -27.2725   29.1072 N   0  0  0  0  0  0  0  0  0  0  0  0
   -8.5947  -28.8881   29.0908 N   0  0  0  0  0  0  0  0  0  0  0  0
   -7.3409  -29.3420   29.4334 C   0  0  0  0  0  0  0  0  0  0  0  0
   -6.5268  -28.5476   30.2199 C   0  0  0  0  0  0  0  0  0  0  0  0
   -7.0221  -27.2786   30.6444 C   0  0  0  0  0  0  0  0  0  0  0  0
   -6.2070  -26.4319   31.4609 N   0  0  0  0  0  0  0  0  0  0  0  0
   -5.3495  -29.2471   30.4054 N   0  0  0  0  0  0  0  0  0  0  0  0
   -5.4395  -30.4289   29.7627 C   0  0  0  0  0  0  0  0  0  0  0  0
   -6.6442  -30.5118   29.1638 N   0  0  0  0  0  0  0  0  0  0  0  0
  1  7  2  0  0  0  0
  1  2  1  0  0  0  0
  2  3  1  0  0  0  0
  2  4  2  0  0  0  0
  4  5  1  0  0  0  0
  5  6  2  0  0  0  0
  5 11  1  0  0  0  0
  6  7  1  0  0  0  0
  6  9  1  0  0  0  0
  7  8  1  0  0  0  0
  9 10  1  0  0  0  0
 10 11  2  0  0  0  0
M  END
>  <CHROM.1>
-7.36154629,-28.39376864,29.91436850,-2.62991250,0.39103472,-2.66751154

>  <Name>
ligand

>  <RI>
0

>  <Rbt.Current_Directory>
/home/itssahil/PROJECTS/Mol_Feturizer/New_Systems/rnas/4LVZ

>  <Rbt.Executable>
rbdock ($Id: //depot/dev/client3/rdock/2013.1/src/exe/rbdock.cxx#4 $)

>  <Rbt.Library>
libRbt.so (2013.1, Build901 2013/11/27)

>  <Rbt.Parameter_File>
/export/apps/rDock/src/rDock_2013.1_src/data/scripts/dock_solv.prm

>  <Rbt.Receptor>
prm/blind_docking_100.prm

>  <SCORE>
-10.381

>  <SCORE.INTER>
-10.381

>  <SCORE.INTER.CONST>
1

>  <SCORE.INTER.POLAR>
0

>  <SCORE.INTER.ROT>
0

>  <SCORE.INTER.SOLV>
5.87759

>  <SCORE.INTER.VDW>
-12.4799

>  <SCORE.INTER.norm>
-0.943731

>  <SCORE.INTRA>
0

>  <SCORE.INTRA.DIHEDRAL>
0

>  <SCORE.INTRA.DIHEDRAL.0>
0

>  <SCORE.INTRA.POLAR>
0

>  <SCORE.INTRA.POLAR.0>
0

>  <SCORE.INTRA.REPUL>
0

>  <SCORE.INTRA.REPUL.0>
0

>  <SCORE.INTRA.SOLV>
0

>  <SCORE.INTRA.SOLV.lig_0>
-49.4056

>  <SCORE.INTRA.VDW>
0

>  <SCORE.INTRA.VDW.0>
0

>  <SCORE.INTRA.norm>
0

>  <SCORE.RESTR>
0

>  <SCORE.RESTR.CAVITY>
0

>  <SCORE.RESTR.norm>
0

>  <SCORE.SYSTEM>
0

>  <SCORE.SYSTEM.CONST>
0

>  <SCORE.SYSTEM.DIHEDRAL>
0

>  <SCORE.SYSTEM.SOLV>
0

>  <SCORE.SYSTEM.norm>
0

>  <SCORE.heavy>
11

>  <SCORE.norm>
-0.943731

>  <RMSD>
13.449

$$$$
ligand
 OpenBabel11021811503D
libRbt.so/2013.1/901 2013/11/27
 11 12  0  0  0  0  0  0  0  0999 V2000
   -8.2637  -26.8501   30.1833 N   0  0  0  0  0  0  0  0  0  0  0  0
   -9.0529  -27.6569   29.4318 C   0  0  0  0  0  0  0  0  0  0  0  0
  -10.3581  -27.2313   29.0226 N   0  0  0  0  0  0  0  0  0  0  0  0
   -8.6308  -28.8780   29.0581 N   0  0  0  0  0  0  0  0  0  0  0  0
   -7.3868  -29.3449   29.4189 C   0  0  0  0  0  0  0  0  0  0  0  0
   -6.5619  -28.5442   30.1876 C   0  0  0  0  0  0  0  0  0  0  0  0
   -7.0361  -27.2555   30.5753 C   0  0  0  0  0  0  0  0  0  0  0  0
   -6.2094  -26.4018   31.3726 N   0  0  0  0  0  0  0  0  0  0  0  0
   -5.3982  -29.2594   30.3974 N   0  0  0  0  0  0  0  0  0  0  0  0
   -5.5067  -30.4563   29.7864 C   0  0  0  0  0  0  0  0  0  0  0  0
   -6.7101  -30.5338   29.1842 N   0  0  0  0  0  0  0  0  0  0  0  0
  1  7  2  0  0  0  0
  1  2  1  0  0  0  0
  2  3  1  0  0  0  0
  2  4  2  0  0  0  0
  4  5  1  0  0  0  0
  5  6  2  0  0  0  0
  5 11  1  0  0  0  0
  6  7  1  0  0  0  0
  6  9  1  0  0  0  0
  7  8  1  0  0  0  0
  9 10  1  0  0  0  0
 10 11  2  0  0  0  0
M  END
>  <CHROM.1>
-7.39243335,-28.38376982,29.87398172,-2.61460815,0.40304434,-2.70041578

>  <Name>
ligand

>  <RI>
0

>  <Rbt.Current_Directory>
/home/itssahil/PROJECTS/Mol_Feturizer/New_Systems/rnas/4LVZ

>  <Rbt.Executable>
rbdock ($Id: //depot/dev/client3/rdock/2013.1/src/exe/rbdock.cxx#4 $)

>  <Rbt.Library>
libRbt.so (2013.1, Build901 2013/11/27)

>  <Rbt.Parameter_File>
/export/apps/rDock/src/rDock_2013.1_src/data/scripts/dock_solv.prm

>  <Rbt.Receptor>
prm/blind_docking_100.prm

>  <SCORE>
-10.3756

>  <SCORE.INTER>
-10.3756

>  <SCORE.INTER.CONST>
1

>  <SCORE.INTER.POLAR>
0

>  <SCORE.INTER.ROT>
0

>  <SCORE.INTER.SOLV>
6.33635

>  <SCORE.INTER.VDW>
-12.6291

>  <SCORE.INTER.norm>
-0.943232

>  <SCORE.INTRA>
0

>  <SCORE.INTRA.DIHEDRAL>
0

>  <SCORE.INTRA.DIHEDRAL.0>
0

>  <SCORE.INTRA.POLAR>
0

>  <SCORE.INTRA.POLAR.0>
0

>  <SCORE.INTRA.REPUL>
0

>  <SCORE.INTRA.REPUL.0>
0

>  <SCORE.INTRA.SOLV>
0

>  <SCORE.INTRA.SOLV.lig_0>
-49.4056

>  <SCORE.INTRA.VDW>
0

>  <SCORE.INTRA.VDW.0>
0

>  <SCORE.INTRA.norm>
0

>  <SCORE.RESTR>
0

>  <SCORE.RESTR.CAVITY>
0

>  <SCORE.RESTR.norm>
0

>  <SCORE.SYSTEM>
0

>  <SCORE.SYSTEM.CONST>
0

>  <SCORE.SYSTEM.DIHEDRAL>
0

>  <SCORE.SYSTEM.SOLV>
0

>  <SCORE.SYSTEM.norm>
0

>  <SCORE.heavy>
11

>  <SCORE.norm>
-0.943232

>  <RMSD>
13.450

$$$$
ligand
 OpenBabel11021811503D
libRbt.so/2013.1/901 2013/11/27
 11 12  0  0  0  0  0  0  0  0999 V2000
   -8.2926  -26.8566   30.2667 N   0  0  0  0  0  0  0  0  0  0  0  0
   -9.0792  -27.6678   29.5170 C   0  0  0  0  0  0  0  0  0  0  0  0
  -10.4030  -27.2662   29.1452 N   0  0  0  0  0  0  0  0  0  0  0  0
   -8.6366  -28.8709   29.1101 N   0  0  0  0  0  0  0  0  0  0  0  0
   -7.3740  -29.3143   29.4341 C   0  0  0  0  0  0  0  0  0  0  0  0
   -6.5513  -28.5087   30.2000 C   0  0  0  0  0  0  0  0  0  0  0  0
   -7.0472  -27.2396   30.6234 C   0  0  0  0  0  0  0  0  0  0  0  0
   -6.2232  -26.3815   31.4188 N   0  0  0  0  0  0  0  0  0  0  0  0
   -5.3665  -29.1994   30.3699 N   0  0  0  0  0  0  0  0  0  0  0  0
   -5.4602  -30.3867   29.7380 C   0  0  0  0  0  0  0  0  0  0  0  0
   -6.6748  -30.4817   29.1611 N   0  0  0  0  0  0  0  0  0  0  0  0
  1  7  2  0  0  0  0
  1  2  1  0  0  0  0
  2  3  1  0  0  0  0
  2  4  2  0  0  0  0
  4  5  1  0  0  0  0
  5  6  2  0  0  0  0
  5 11  1  0  0  0  0
  6  7  1  0  0  0  0
  6  9  1  0  0  0  0
  7  8  1  0  0  0  0
  9 10  1  0  0  0  0
 10 11  2  0  0  0  0
M  END
>  <CHROM.1>
-7.39228049,-28.36248642,29.90802074,-2.62737206,0.37244538,-2.67616627

>  <Name>
ligand

>  <RI>
0

>  <Rbt.Current_Directory>
/home/itssahil/PROJECTS/Mol_Feturizer/New_Systems/rnas/4LVZ

>  <Rbt.Executable>
rbdock ($Id: //depot/dev/client3/rdock/2013.1/src/exe/rbdock.cxx#4 $)

>  <Rbt.Library>
libRbt.so (2013.1, Build901 2013/11/27)

>  <Rbt.Parameter_File>
/export/apps/rDock/src/rDock_2013.1_src/data/scripts/dock_solv.prm

>  <Rbt.Receptor>
prm/blind_docking_80.prm

>  <SCORE>
-10.3392

>  <SCORE.INTER>
-10.3392

>  <SCORE.INTER.CONST>
1

>  <SCORE.INTER.POLAR>
0

>  <SCORE.INTER.ROT>
0

>  <SCORE.INTER.SOLV>
5.96402

>  <SCORE.INTER.VDW>
-12.4808

>  <SCORE.INTER.norm>
-0.939924

>  <SCORE.INTRA>
0

>  <SCORE.INTRA.DIHEDRAL>
0

>  <SCORE.INTRA.DIHEDRAL.0>
0

>  <SCORE.INTRA.POLAR>
0

>  <SCORE.INTRA.POLAR.0>
0

>  <SCORE.INTRA.REPUL>
0

>  <SCORE.INTRA.REPUL.0>
0

>  <SCORE.INTRA.SOLV>
0

>  <SCORE.INTRA.SOLV.lig_0>
-49.4056

>  <SCORE.INTRA.VDW>
0

>  <SCORE.INTRA.VDW.0>
0

>  <SCORE.INTRA.norm>
0

>  <SCORE.RESTR>
0

>  <SCORE.RESTR.CAVITY>
0

>  <SCORE.RESTR.norm>
0

>  <SCORE.SYSTEM>
0

>  <SCORE.SYSTEM.CONST>
0

>  <SCORE.SYSTEM.DIHEDRAL>
0

>  <SCORE.SYSTEM.SOLV>
0

>  <SCORE.SYSTEM.norm>
0

>  <SCORE.heavy>
11

>  <SCORE.norm>
-0.939924

>  <RMSD>
13.450

$$$$
ligand
 OpenBabel11021811503D
libRbt.so/2013.1/901 2013/11/27
 11 12  0  0  0  0  0  0  0  0999 V2000
   -0.3768  -25.7475   12.9660 N   0  0  0  0  0  0  0  0  0  0  0  0
   -1.1769  -25.7056   14.0600 C   0  0  0  0  0  0  0  0  0  0  0  0
   -2.6010  -25.7898   13.9304 N   0  0  0  0  0  0  0  0  0  0  0  0
   -0.6521  -25.5780   15.2917 N   0  0  0  0  0  0  0  0  0  0  0  0
    0.7088  -25.4926   15.4827 C   0  0  0  0  0  0  0  0  0  0  0  0
    1.5484  -25.5299   14.3846 C   0  0  0  0  0  0  0  0  0  0  0  0
    0.9657  -25.6600   13.0887 C   0  0  0  0  0  0  0  0  0  0  0  0
    1.8051  -25.6998   11.9303 N   0  0  0  0  0  0  0  0  0  0  0  0
    2.8386  -25.4222   14.8679 N   0  0  0  0  0  0  0  0  0  0  0  0
    2.7928  -25.3162   16.2112 C   0  0  0  0  0  0  0  0  0  0  0  0
    1.5060  -25.3548   16.6105 N   0  0  0  0  0  0  0  0  0  0  0  0
  1  7  2  0  0  0  0
  1  2  1  0  0  0  0
  2  3  1  0  0  0  0
  2  4  2  0  0  0  0
  4  5  1  0  0  0  0
  5  6  2  0  0  0  0
  5 11  1  0  0  0  0
  6  7  1  0  0  0  0
  6  9  1  0  0  0  0
  7  8  1  0  0  0  0
  9 10  1  0  0  0  0
 10 11  2  0  0  0  0
M  END
>  <CHROM.1>
0.64826157,-25.57458842,14.42422329,-2.66696653,0.05497936,1.49350860

>  <Name>
ligand

>  <RI>
0

>  <Rbt.Current_Directory>
/home/itssahil/PROJECTS/Mol_Feturizer/New_Systems/rnas/4LVZ

>  <Rbt.Executable>
rbdock ($Id: //depot/dev/client3/rdock/2013.1/src/exe/rbdock.cxx#4 $)

>  <Rbt.Library>
libRbt.so (2013.1, Build901 2013/11/27)

>  <Rbt.Parameter_File>
/export/apps/rDock/src/rDock_2013.1_src/data/scripts/dock_solv.prm

>  <Rbt.Receptor>
prm/blind_docking_40.prm

>  <SCORE>
-8.67

>  <SCORE.INTER>
-8.67

>  <SCORE.INTER.CONST>
1

>  <SCORE.INTER.POLAR>
0

>  <SCORE.INTER.ROT>
0

>  <SCORE.INTER.SOLV>
11.1869

>  <SCORE.INTER.VDW>
-13.109

>  <SCORE.INTER.norm>
-0.788182

>  <SCORE.INTRA>
0

>  <SCORE.INTRA.DIHEDRAL>
0

>  <SCORE.INTRA.DIHEDRAL.0>
0

>  <SCORE.INTRA.POLAR>
0

>  <SCORE.INTRA.POLAR.0>
0

>  <SCORE.INTRA.REPUL>
0

>  <SCORE.INTRA.REPUL.0>
0

>  <SCORE.INTRA.SOLV>
0

>  <SCORE.INTRA.SOLV.lig_0>
-49.4056

>  <SCORE.INTRA.VDW>
0

>  <SCORE.INTRA.VDW.0>
0

>  <SCORE.INTRA.norm>
0

>  <SCORE.RESTR>
0

>  <SCORE.RESTR.CAVITY>
0

>  <SCORE.RESTR.norm>
0

>  <SCORE.SYSTEM>
0

>  <SCORE.SYSTEM.CONST>
0

>  <SCORE.SYSTEM.DIHEDRAL>
0

>  <SCORE.SYSTEM.SOLV>
0

>  <SCORE.SYSTEM.norm>
0

>  <SCORE.heavy>
11

>  <SCORE.norm>
-0.788182

>  <RMSD>
13.451

$$$$
ligand
 OpenBabel11021811503D
libRbt.so/2013.1/901 2013/11/27
 11 12  0  0  0  0  0  0  0  0999 V2000
   -8.2693  -26.8463   30.2325 N   0  0  0  0  0  0  0  0  0  0  0  0
   -9.0477  -27.6401   29.4562 C   0  0  0  0  0  0  0  0  0  0  0  0
  -10.3476  -27.2081   29.0372 N   0  0  0  0  0  0  0  0  0  0  0  0
   -8.6196  -28.8541   29.0667 N   0  0  0  0  0  0  0  0  0  0  0  0
   -7.3801  -29.3265   29.4357 C   0  0  0  0  0  0  0  0  0  0  0  0
   -6.5663  -28.5392   30.2295 C   0  0  0  0  0  0  0  0  0  0  0  0
   -7.0467  -27.2579   30.6337 C   0  0  0  0  0  0  0  0  0  0  0  0
   -6.2314  -26.4180   31.4570 N   0  0  0  0  0  0  0  0  0  0  0  0
   -5.4049  -29.2573   30.4422 N   0  0  0  0  0  0  0  0  0  0  0  0
   -5.5043  -30.4433   29.8087 C   0  0  0  0  0  0  0  0  0  0  0  0
   -6.6995  -30.5107   29.1891 N   0  0  0  0  0  0  0  0  0  0  0  0
  1  7  2  0  0  0  0
  1  2  1  0  0  0  0
  2  3  1  0  0  0  0
  2  4  2  0  0  0  0
  4  5  1  0  0  0  0
  5  6  2  0  0  0  0
  5 11  1  0  0  0  0
  6  7  1  0  0  0  0
  6  9  1  0  0  0  0
  7  8  1  0  0  0  0
  9 10  1  0  0  0  0
 10 11  2  0  0  0  0
M  END
>  <CHROM.1>
-7.39267777,-28.37369821,29.90770769,-2.62166563,0.41479374,-2.67986132

>  <Name>
ligand

>  <RI>
0

>  <Rbt.Current_Directory>
/home/itssahil/PROJECTS/Mol_Feturizer/New_Systems/rnas/4LVZ

>  <Rbt.Executable>
rbdock ($Id: //depot/dev/client3/rdock/2013.1/src/exe/rbdock.cxx#4 $)

>  <Rbt.Library>
libRbt.so (2013.1, Build901 2013/11/27)

>  <Rbt.Parameter_File>
/export/apps/rDock/src/rDock_2013.1_src/data/scripts/dock_solv.prm

>  <Rbt.Receptor>
prm/blind_docking_100.prm

>  <SCORE>
-10.3631

>  <SCORE.INTER>
-10.3631

>  <SCORE.INTER.CONST>
1

>  <SCORE.INTER.POLAR>
0

>  <SCORE.INTER.ROT>
0

>  <SCORE.INTER.SOLV>
6.10104

>  <SCORE.INTER.VDW>
-12.5424

>  <SCORE.INTER.norm>
-0.942103

>  <SCORE.INTRA>
0

>  <SCORE.INTRA.DIHEDRAL>
0

>  <SCORE.INTRA.DIHEDRAL.0>
0

>  <SCORE.INTRA.POLAR>
0

>  <SCORE.INTRA.POLAR.0>
0

>  <SCORE.INTRA.REPUL>
0

>  <SCORE.INTRA.REPUL.0>
0

>  <SCORE.INTRA.SOLV>
0

>  <SCORE.INTRA.SOLV.lig_0>
-49.4056

>  <SCORE.INTRA.VDW>
0

>  <SCORE.INTRA.VDW.0>
0

>  <SCORE.INTRA.norm>
0

>  <SCORE.RESTR>
0

>  <SCORE.RESTR.CAVITY>
0

>  <SCORE.RESTR.norm>
0

>  <SCORE.SYSTEM>
0

>  <SCORE.SYSTEM.CONST>
0

>  <SCORE.SYSTEM.DIHEDRAL>
0

>  <SCORE.SYSTEM.SOLV>
0

>  <SCORE.SYSTEM.norm>
0

>  <SCORE.heavy>
11

>  <SCORE.norm>
-0.942103

>  <RMSD>
13.455

$$$$
ligand
 OpenBabel11021811503D
libRbt.so/2013.1/901 2013/11/27
 11 12  0  0  0  0  0  0  0  0999 V2000
   -8.2620  -26.8368   30.2787 N   0  0  0  0  0  0  0  0  0  0  0  0
   -9.0397  -27.6165   29.4875 C   0  0  0  0  0  0  0  0  0  0  0  0
  -10.3348  -27.1723   29.0663 N   0  0  0  0  0  0  0  0  0  0  0  0
   -8.6154  -28.8275   29.0848 N   0  0  0  0  0  0  0  0  0  0  0  0
   -7.3807  -29.3111   29.4551 C   0  0  0  0  0  0  0  0  0  0  0  0
   -6.5677  -28.5383   30.2639 C   0  0  0  0  0  0  0  0  0  0  0  0
   -7.0440  -27.2599   30.6818 C   0  0  0  0  0  0  0  0  0  0  0  0
   -6.2295  -26.4350   31.5208 N   0  0  0  0  0  0  0  0  0  0  0  0
   -5.4113  -29.2652   30.4742 N   0  0  0  0  0  0  0  0  0  0  0  0
   -5.5128  -30.4423   29.8247 C   0  0  0  0  0  0  0  0  0  0  0  0
   -6.7046  -30.4955   29.1971 N   0  0  0  0  0  0  0  0  0  0  0  0
  1  7  2  0  0  0  0
  1  2  1  0  0  0  0
  2  3  1  0  0  0  0
  2  4  2  0  0  0  0
  4  5  1  0  0  0  0
  5  6  2  0  0  0  0
  5 11  1  0  0  0  0
  6  7  1  0  0  0  0
  6  9  1  0  0  0  0
  7  8  1  0  0  0  0
  9 10  1  0  0  0  0
 10 11  2  0  0  0  0
M  END
>  <CHROM.1>
-7.39125291,-28.36441641,29.93933300,-2.61963504,0.42250656,-2.66769723

>  <Name>
ligand

>  <RI>
0

>  <Rbt.Current_Directory>
/home/itssahil/PROJECTS/Mol_Feturizer/New_Systems/rnas/4LVZ

>  <Rbt.Executable>
rbdock ($Id: //depot/dev/client3/rdock/2013.1/src/exe/rbdock.cxx#4 $)

>  <Rbt.Library>
libRbt.so (2013.1, Build901 2013/11/27)

>  <Rbt.Parameter_File>
/export/apps/rDock/src/rDock_2013.1_src/data/scripts/dock_solv.prm

>  <Rbt.Receptor>
prm/blind_docking_80.prm

>  <SCORE>
-10.3051

>  <SCORE.INTER>
-10.3051

>  <SCORE.INTER.CONST>
1

>  <SCORE.INTER.POLAR>
0

>  <SCORE.INTER.ROT>
0

>  <SCORE.INTER.SOLV>
5.9979

>  <SCORE.INTER.VDW>
-12.4694

>  <SCORE.INTER.norm>
-0.93683

>  <SCORE.INTRA>
0

>  <SCORE.INTRA.DIHEDRAL>
0

>  <SCORE.INTRA.DIHEDRAL.0>
0

>  <SCORE.INTRA.POLAR>
0

>  <SCORE.INTRA.POLAR.0>
0

>  <SCORE.INTRA.REPUL>
0

>  <SCORE.INTRA.REPUL.0>
0

>  <SCORE.INTRA.SOLV>
0

>  <SCORE.INTRA.SOLV.lig_0>
-49.4056

>  <SCORE.INTRA.VDW>
0

>  <SCORE.INTRA.VDW.0>
0

>  <SCORE.INTRA.norm>
0

>  <SCORE.RESTR>
0

>  <SCORE.RESTR.CAVITY>
0

>  <SCORE.RESTR.norm>
0

>  <SCORE.SYSTEM>
0

>  <SCORE.SYSTEM.CONST>
0

>  <SCORE.SYSTEM.DIHEDRAL>
0

>  <SCORE.SYSTEM.SOLV>
0

>  <SCORE.SYSTEM.norm>
0

>  <SCORE.heavy>
11

>  <SCORE.norm>
-0.93683

>  <RMSD>
13.457

$$$$
ligand
 OpenBabel11021811503D
libRbt.so/2013.1/901 2013/11/27
 11 12  0  0  0  0  0  0  0  0999 V2000
   -8.3000  -26.8306   30.1956 N   0  0  0  0  0  0  0  0  0  0  0  0
   -9.0770  -27.6367   29.4307 C   0  0  0  0  0  0  0  0  0  0  0  0
  -10.3796  -27.2149   29.0096 N   0  0  0  0  0  0  0  0  0  0  0  0
   -8.6449  -28.8536   29.0547 N   0  0  0  0  0  0  0  0  0  0  0  0
   -7.4027  -29.3166   29.4265 C   0  0  0  0  0  0  0  0  0  0  0  0
   -6.5903  -28.5166   30.2089 C   0  0  0  0  0  0  0  0  0  0  0  0
   -7.0749  -27.2325   30.5988 C   0  0  0  0  0  0  0  0  0  0  0  0
   -6.2611  -26.3796   31.4101 N   0  0  0  0  0  0  0  0  0  0  0  0
   -5.4255  -29.2275   30.4275 N   0  0  0  0  0  0  0  0  0  0  0  0
   -5.5216  -30.4213   29.8084 C   0  0  0  0  0  0  0  0  0  0  0  0
   -6.7179  -30.5010   29.1924 N   0  0  0  0  0  0  0  0  0  0  0  0
  1  7  2  0  0  0  0
  1  2  1  0  0  0  0
  2  3  1  0  0  0  0
  2  4  2  0  0  0  0
  4  5  1  0  0  0  0
  5  6  2  0  0  0  0
  5 11  1  0  0  0  0
  6  7  1  0  0  0  0
  6  9  1  0  0  0  0
  7  8  1  0  0  0  0
  9 10  1  0  0  0  0
 10 11  2  0  0  0  0
M  END
>  <CHROM.1>
-7.41803775,-28.35826388,29.88709214,-2.62447782,0.41096033,-2.69069552

>  <Name>
ligand

>  <RI>
0

>  <Rbt.Current_Directory>
/home/itssahil/PROJECTS/Mol_Feturizer/New_Systems/rnas/4LVZ

>  <Rbt.Executable>
rbdock ($Id: //depot/dev/client3/rdock/2013.1/src/exe/rbdock.cxx#4 $)

>  <Rbt.Library>
libRbt.so (2013.1, Build901 2013/11/27)

>  <Rbt.Parameter_File>
/export/apps/rDock/src/rDock_2013.1_src/data/scripts/dock_solv.prm

>  <Rbt.Receptor>
prm/blind_docking_100.prm

>  <SCORE>
-10.3585

>  <SCORE.INTER>
-10.3585

>  <SCORE.INTER.CONST>
1

>  <SCORE.INTER.POLAR>
0

>  <SCORE.INTER.ROT>
0

>  <SCORE.INTER.SOLV>
6.19883

>  <SCORE.INTER.VDW>
-12.5719

>  <SCORE.INTER.norm>
-0.941679

>  <SCORE.INTRA>
0

>  <SCORE.INTRA.DIHEDRAL>
0

>  <SCORE.INTRA.DIHEDRAL.0>
0

>  <SCORE.INTRA.POLAR>
0

>  <SCORE.INTRA.POLAR.0>
0

>  <SCORE.INTRA.REPUL>
0

>  <SCORE.INTRA.REPUL.0>
0

>  <SCORE.INTRA.SOLV>
0

>  <SCORE.INTRA.SOLV.lig_0>
-49.4056

>  <SCORE.INTRA.VDW>
0

>  <SCORE.INTRA.VDW.0>
0

>  <SCORE.INTRA.norm>
0

>  <SCORE.RESTR>
0

>  <SCORE.RESTR.CAVITY>
0

>  <SCORE.RESTR.norm>
0

>  <SCORE.SYSTEM>
0

>  <SCORE.SYSTEM.CONST>
0

>  <SCORE.SYSTEM.DIHEDRAL>
0

>  <SCORE.SYSTEM.SOLV>
0

>  <SCORE.SYSTEM.norm>
0

>  <SCORE.heavy>
11

>  <SCORE.norm>
-0.941679

>  <RMSD>
13.459

$$$$
ligand
 OpenBabel11021811503D
libRbt.so/2013.1/901 2013/11/27
 11 12  0  0  0  0  0  0  0  0999 V2000
   -8.3344  -26.8519   30.3110 N   0  0  0  0  0  0  0  0  0  0  0  0
   -9.0938  -27.6581   29.5287 C   0  0  0  0  0  0  0  0  0  0  0  0
  -10.4145  -27.2663   29.1360 N   0  0  0  0  0  0  0  0  0  0  0  0
   -8.6267  -28.8472   29.1083 N   0  0  0  0  0  0  0  0  0  0  0  0
   -7.3656  -29.2807   29.4509 C   0  0  0  0  0  0  0  0  0  0  0  0
   -6.5704  -28.4799   30.2501 C   0  0  0  0  0  0  0  0  0  0  0  0
   -7.0920  -27.2259   30.6873 C   0  0  0  0  0  0  0  0  0  0  0  0
   -6.2968  -26.3732   31.5170 N   0  0  0  0  0  0  0  0  0  0  0  0
   -5.3804  -29.1586   30.4324 N   0  0  0  0  0  0  0  0  0  0  0  0
   -5.4448  -30.3343   29.7756 C   0  0  0  0  0  0  0  0  0  0  0  0
   -6.6453  -30.4335   29.1706 N   0  0  0  0  0  0  0  0  0  0  0  0
  1  7  2  0  0  0  0
  1  2  1  0  0  0  0
  2  3  1  0  0  0  0
  2  4  2  0  0  0  0
  4  5  1  0  0  0  0
  5  6  2  0  0  0  0
  5 11  1  0  0  0  0
  6  7  1  0  0  0  0
  6  9  1  0  0  0  0
  7  8  1  0  0  0  0
  9 10  1  0  0  0  0
 10 11  2  0  0  0  0
M  END
>  <CHROM.1>
-7.40670970,-28.33877149,29.94281817,-2.65057282,0.38567556,-2.64797298

>  <Name>
ligand

>  <RI>
0

>  <Rbt.Current_Directory>
/home/itssahil/PROJECTS/Mol_Feturizer/New_Systems/rnas/4LVZ

>  <Rbt.Executable>
rbdock ($Id: //depot/dev/client3/rdock/2013.1/src/exe/rbdock.cxx#4 $)

>  <Rbt.Library>
libRbt.so (2013.1, Build901 2013/11/27)

>  <Rbt.Parameter_File>
/export/apps/rDock/src/rDock_2013.1_src/data/scripts/dock_solv.prm

>  <Rbt.Receptor>
prm/blind_docking_80.prm

>  <SCORE>
-10.3376

>  <SCORE.INTER>
-10.3376

>  <SCORE.INTER.CONST>
1

>  <SCORE.INTER.POLAR>
0

>  <SCORE.INTER.ROT>
0

>  <SCORE.INTER.SOLV>
5.54396

>  <SCORE.INTER.VDW>
-12.3397

>  <SCORE.INTER.norm>
-0.939779

>  <SCORE.INTRA>
0

>  <SCORE.INTRA.DIHEDRAL>
0

>  <SCORE.INTRA.DIHEDRAL.0>
0

>  <SCORE.INTRA.POLAR>
0

>  <SCORE.INTRA.POLAR.0>
0

>  <SCORE.INTRA.REPUL>
0

>  <SCORE.INTRA.REPUL.0>
0

>  <SCORE.INTRA.SOLV>
0

>  <SCORE.INTRA.SOLV.lig_0>
-49.4056

>  <SCORE.INTRA.VDW>
0

>  <SCORE.INTRA.VDW.0>
0

>  <SCORE.INTRA.norm>
0

>  <SCORE.RESTR>
0

>  <SCORE.RESTR.CAVITY>
0

>  <SCORE.RESTR.norm>
0

>  <SCORE.SYSTEM>
0

>  <SCORE.SYSTEM.CONST>
0

>  <SCORE.SYSTEM.DIHEDRAL>
0

>  <SCORE.SYSTEM.SOLV>
0

>  <SCORE.SYSTEM.norm>
0

>  <SCORE.heavy>
11

>  <SCORE.norm>
-0.939779

>  <RMSD>
13.460

$$$$
ligand
 OpenBabel11021811503D
libRbt.so/2013.1/901 2013/11/27
 11 12  0  0  0  0  0  0  0  0999 V2000
   -8.3248  -26.8152   30.1736 N   0  0  0  0  0  0  0  0  0  0  0  0
   -9.1013  -27.6279   29.4153 C   0  0  0  0  0  0  0  0  0  0  0  0
  -10.4050  -27.2112   28.9927 N   0  0  0  0  0  0  0  0  0  0  0  0
   -8.6677  -28.8467   29.0474 N   0  0  0  0  0  0  0  0  0  0  0  0
   -7.4244  -29.3052   29.4210 C   0  0  0  0  0  0  0  0  0  0  0  0
   -6.6123  -28.4983   30.1968 C   0  0  0  0  0  0  0  0  0  0  0  0
   -7.0986  -27.2123   30.5782 C   0  0  0  0  0  0  0  0  0  0  0  0
   -6.2852  -26.3524   31.3826 N   0  0  0  0  0  0  0  0  0  0  0  0
   -5.4462  -29.2059   30.4190 N   0  0  0  0  0  0  0  0  0  0  0  0
   -5.5410  -30.4042   29.8085 C   0  0  0  0  0  0  0  0  0  0  0  0
   -6.7379  -30.4900   29.1945 N   0  0  0  0  0  0  0  0  0  0  0  0
  1  7  2  0  0  0  0
  1  2  1  0  0  0  0
  2  3  1  0  0  0  0
  2  4  2  0  0  0  0
  4  5  1  0  0  0  0
  5  6  2  0  0  0  0
  5 11  1  0  0  0  0
  6  7  1  0  0  0  0
  6  9  1  0  0  0  0
  7  8  1  0  0  0  0
  9 10  1  0  0  0  0
 10 11  2  0  0  0  0
M  END
>  <CHROM.1>
-7.44069915,-28.34361197,29.87481834,-2.62550591,0.40925516,-2.69733776

>  <Name>
ligand

>  <RI>
0

>  <Rbt.Current_Directory>
/home/itssahil/PROJECTS/Mol_Feturizer/New_Systems/rnas/4LVZ

>  <Rbt.Executable>
rbdock ($Id: //depot/dev/client3/rdock/2013.1/src/exe/rbdock.cxx#4 $)

>  <Rbt.Library>
libRbt.so (2013.1, Build901 2013/11/27)

>  <Rbt.Parameter_File>
/export/apps/rDock/src/rDock_2013.1_src/data/scripts/dock_solv.prm

>  <Rbt.Receptor>
prm/blind_docking_60.prm

>  <SCORE>
-10.3764

>  <SCORE.INTER>
-10.3764

>  <SCORE.INTER.CONST>
1

>  <SCORE.INTER.POLAR>
0

>  <SCORE.INTER.ROT>
0

>  <SCORE.INTER.SOLV>
6.26737

>  <SCORE.INTER.VDW>
-12.6067

>  <SCORE.INTER.norm>
-0.943309

>  <SCORE.INTRA>
0

>  <SCORE.INTRA.DIHEDRAL>
0

>  <SCORE.INTRA.DIHEDRAL.0>
0

>  <SCORE.INTRA.POLAR>
0

>  <SCORE.INTRA.POLAR.0>
0

>  <SCORE.INTRA.REPUL>
0

>  <SCORE.INTRA.REPUL.0>
0

>  <SCORE.INTRA.SOLV>
0

>  <SCORE.INTRA.SOLV.lig_0>
-49.4056

>  <SCORE.INTRA.VDW>
0

>  <SCORE.INTRA.VDW.0>
0

>  <SCORE.INTRA.norm>
0

>  <SCORE.RESTR>
0

>  <SCORE.RESTR.CAVITY>
0

>  <SCORE.RESTR.norm>
0

>  <SCORE.SYSTEM>
0

>  <SCORE.SYSTEM.CONST>
0

>  <SCORE.SYSTEM.DIHEDRAL>
0

>  <SCORE.SYSTEM.SOLV>
0

>  <SCORE.SYSTEM.norm>
0

>  <SCORE.heavy>
11

>  <SCORE.norm>
-0.943309

>  <RMSD>
13.463

$$$$
ligand
 OpenBabel11021811503D
libRbt.so/2013.1/901 2013/11/27
 11 12  0  0  0  0  0  0  0  0999 V2000
   -8.3252  -26.8124   30.1846 N   0  0  0  0  0  0  0  0  0  0  0  0
   -9.1020  -27.6214   29.4225 C   0  0  0  0  0  0  0  0  0  0  0  0
  -10.4047  -27.2013   28.9999 N   0  0  0  0  0  0  0  0  0  0  0  0
   -8.6696  -28.8394   29.0508 N   0  0  0  0  0  0  0  0  0  0  0  0
   -7.4274  -29.3010   29.4242 C   0  0  0  0  0  0  0  0  0  0  0  0
   -6.6151  -28.4980   30.2038 C   0  0  0  0  0  0  0  0  0  0  0  0
   -7.1000  -27.2126   30.5892 C   0  0  0  0  0  0  0  0  0  0  0  0
   -6.2864  -26.3567   31.3975 N   0  0  0  0  0  0  0  0  0  0  0  0
   -5.4502  -29.2079   30.4248 N   0  0  0  0  0  0  0  0  0  0  0  0
   -5.5460  -30.4039   29.8100 C   0  0  0  0  0  0  0  0  0  0  0  0
   -6.7423  -30.4860   29.1943 N   0  0  0  0  0  0  0  0  0  0  0  0
  1  7  2  0  0  0  0
  1  2  1  0  0  0  0
  2  3  1  0  0  0  0
  2  4  2  0  0  0  0
  4  5  1  0  0  0  0
  5  6  2  0  0  0  0
  5 11  1  0  0  0  0
  6  7  1  0  0  0  0
  6  9  1  0  0  0  0
  7  8  1  0  0  0  0
  9 10  1  0  0  0  0
 10 11  2  0  0  0  0
M  END
>  <CHROM.1>
-7.44289070,-28.34099728,29.88140469,-2.62468693,0.41089123,-2.69410791

>  <Name>
ligand

>  <RI>
0

>  <Rbt.Current_Directory>
/home/itssahil/PROJECTS/Mol_Feturizer/New_Systems/rnas/4LVZ

>  <Rbt.Executable>
rbdock ($Id: //depot/dev/client3/rdock/2013.1/src/exe/rbdock.cxx#4 $)

>  <Rbt.Library>
libRbt.so (2013.1, Build901 2013/11/27)

>  <Rbt.Parameter_File>
/export/apps/rDock/src/rDock_2013.1_src/data/scripts/dock_solv.prm

>  <Rbt.Receptor>
prm/blind_docking_80.prm

>  <SCORE>
-10.3736

>  <SCORE.INTER>
-10.3736

>  <SCORE.INTER.CONST>
1

>  <SCORE.INTER.POLAR>
0

>  <SCORE.INTER.ROT>
0

>  <SCORE.INTER.SOLV>
6.24547

>  <SCORE.INTER.VDW>
-12.5975

>  <SCORE.INTER.norm>
-0.94305

>  <SCORE.INTRA>
0

>  <SCORE.INTRA.DIHEDRAL>
0

>  <SCORE.INTRA.DIHEDRAL.0>
0

>  <SCORE.INTRA.POLAR>
0

>  <SCORE.INTRA.POLAR.0>
0

>  <SCORE.INTRA.REPUL>
0

>  <SCORE.INTRA.REPUL.0>
0

>  <SCORE.INTRA.SOLV>
0

>  <SCORE.INTRA.SOLV.lig_0>
-49.4056

>  <SCORE.INTRA.VDW>
0

>  <SCORE.INTRA.VDW.0>
0

>  <SCORE.INTRA.norm>
0

>  <SCORE.RESTR>
0

>  <SCORE.RESTR.CAVITY>
0

>  <SCORE.RESTR.norm>
0

>  <SCORE.SYSTEM>
0

>  <SCORE.SYSTEM.CONST>
0

>  <SCORE.SYSTEM.DIHEDRAL>
0

>  <SCORE.SYSTEM.SOLV>
0

>  <SCORE.SYSTEM.norm>
0

>  <SCORE.heavy>
11

>  <SCORE.norm>
-0.94305

>  <RMSD>
13.464

$$$$
ligand
 OpenBabel11021811503D
libRbt.so/2013.1/901 2013/11/27
 11 12  0  0  0  0  0  0  0  0999 V2000
   -8.3582  -26.8123   30.1819 N   0  0  0  0  0  0  0  0  0  0  0  0
   -9.1128  -27.6262   29.4029 C   0  0  0  0  0  0  0  0  0  0  0  0
  -10.4119  -27.2178   28.9585 N   0  0  0  0  0  0  0  0  0  0  0  0
   -8.6614  -28.8384   29.0346 N   0  0  0  0  0  0  0  0  0  0  0  0
   -7.4214  -29.2887   29.4286 C   0  0  0  0  0  0  0  0  0  0  0  0
   -6.6315  -28.4805   30.2257 C   0  0  0  0  0  0  0  0  0  0  0  0
   -7.1365  -27.2016   30.6070 C   0  0  0  0  0  0  0  0  0  0  0  0
   -6.3463  -26.3406   31.4330 N   0  0  0  0  0  0  0  0  0  0  0  0
   -5.4636  -29.1793   30.4651 N   0  0  0  0  0  0  0  0  0  0  0  0
   -5.5360  -30.3739   29.8442 C   0  0  0  0  0  0  0  0  0  0  0  0
   -6.7202  -30.4657   29.2067 N   0  0  0  0  0  0  0  0  0  0  0  0
  1  7  2  0  0  0  0
  1  2  1  0  0  0  0
  2  3  1  0  0  0  0
  2  4  2  0  0  0  0
  4  5  1  0  0  0  0
  5  6  2  0  0  0  0
  5 11  1  0  0  0  0
  6  7  1  0  0  0  0
  6  9  1  0  0  0  0
  7  8  1  0  0  0  0
  9 10  1  0  0  0  0
 10 11  2  0  0  0  0
M  END
>  <CHROM.1>
-7.45496519,-28.33066535,29.88901631,-2.64335662,0.42260161,-2.68277452

>  <Name>
ligand

>  <RI>
0

>  <Rbt.Current_Directory>
/home/itssahil/PROJECTS/Mol_Feturizer/New_Systems/rnas/4LVZ

>  <Rbt.Executable>
rbdock ($Id: //depot/dev/client3/rdock/2013.1/src/exe/rbdock.cxx#4 $)

>  <Rbt.Library>
libRbt.so (2013.1, Build901 2013/11/27)

>  <Rbt.Parameter_File>
/export/apps/rDock/src/rDock_2013.1_src/data/scripts/dock_solv.prm

>  <Rbt.Receptor>
prm/blind_docking_60.prm

>  <SCORE>
-10.3537

>  <SCORE.INTER>
-10.3537

>  <SCORE.INTER.CONST>
1

>  <SCORE.INTER.POLAR>
0

>  <SCORE.INTER.ROT>
0

>  <SCORE.INTER.SOLV>
6.02667

>  <SCORE.INTER.VDW>
-12.5114

>  <SCORE.INTER.norm>
-0.94125

>  <SCORE.INTRA>
0

>  <SCORE.INTRA.DIHEDRAL>
0

>  <SCORE.INTRA.DIHEDRAL.0>
0

>  <SCORE.INTRA.POLAR>
0

>  <SCORE.INTRA.POLAR.0>
0

>  <SCORE.INTRA.REPUL>
0

>  <SCORE.INTRA.REPUL.0>
0

>  <SCORE.INTRA.SOLV>
0

>  <SCORE.INTRA.SOLV.lig_0>
-49.4056

>  <SCORE.INTRA.VDW>
0

>  <SCORE.INTRA.VDW.0>
0

>  <SCORE.INTRA.norm>
0

>  <SCORE.RESTR>
0

>  <SCORE.RESTR.CAVITY>
0

>  <SCORE.RESTR.norm>
0

>  <SCORE.SYSTEM>
0

>  <SCORE.SYSTEM.CONST>
0

>  <SCORE.SYSTEM.DIHEDRAL>
0

>  <SCORE.SYSTEM.SOLV>
0

>  <SCORE.SYSTEM.norm>
0

>  <SCORE.heavy>
11

>  <SCORE.norm>
-0.94125

>  <RMSD>
13.473

$$$$
ligand
 OpenBabel11021811503D
libRbt.so/2013.1/901 2013/11/27
 11 12  0  0  0  0  0  0  0  0999 V2000
   -8.3100  -26.8731   30.2803 N   0  0  0  0  0  0  0  0  0  0  0  0
   -9.0865  -27.6746   29.5100 C   0  0  0  0  0  0  0  0  0  0  0  0
  -10.4015  -27.2639   29.1176 N   0  0  0  0  0  0  0  0  0  0  0  0
   -8.6420  -28.8764   29.1015 N   0  0  0  0  0  0  0  0  0  0  0  0
   -7.3875  -29.3282   29.4446 C   0  0  0  0  0  0  0  0  0  0  0  0
   -6.5752  -28.5326   30.2317 C   0  0  0  0  0  0  0  0  0  0  0  0
   -7.0730  -27.2647   30.6564 C   0  0  0  0  0  0  0  0  0  0  0  0
   -6.2597  -26.4169   31.4735 N   0  0  0  0  0  0  0  0  0  0  0  0
   -5.3967  -29.2302   30.4175 N   0  0  0  0  0  0  0  0  0  0  0  0
   -5.4844  -30.4119   29.7744 C   0  0  0  0  0  0  0  0  0  0  0  0
   -6.6887  -30.4967   29.1749 N   0  0  0  0  0  0  0  0  0  0  0  0
  1  7  2  0  0  0  0
  1  2  1  0  0  0  0
  2  3  1  0  0  0  0
  2  4  2  0  0  0  0
  4  5  1  0  0  0  0
  5  6  2  0  0  0  0
  5 11  1  0  0  0  0
  6  7  1  0  0  0  0
  6  9  1  0  0  0  0
  7  8  1  0  0  0  0
  9 10  1  0  0  0  0
 10 11  2  0  0  0  0
M  END
>  <CHROM.1>
-7.41008688,-28.38020227,29.92582537,-2.63183175,0.39064498,-2.66644520

>  <Name>
ligand

>  <RI>
0

>  <Rbt.Current_Directory>
/home/itssahil/PROJECTS/Mol_Feturizer/New_Systems/rnas/4LVZ

>  <Rbt.Executable>
rbdock ($Id: //depot/dev/client3/rdock/2013.1/src/exe/rbdock.cxx#4 $)

>  <Rbt.Library>
libRbt.so (2013.1, Build901 2013/11/27)

>  <Rbt.Parameter_File>
/export/apps/rDock/src/rDock_2013.1_src/data/scripts/dock_solv.prm

>  <Rbt.Receptor>
prm/blind_docking_80.prm

>  <SCORE>
-10.3128

>  <SCORE.INTER>
-10.3128

>  <SCORE.INTER.CONST>
1

>  <SCORE.INTER.POLAR>
0

>  <SCORE.INTER.ROT>
0

>  <SCORE.INTER.SOLV>
5.75183

>  <SCORE.INTER.VDW>
-12.3925

>  <SCORE.INTER.norm>
-0.937524

>  <SCORE.INTRA>
0

>  <SCORE.INTRA.DIHEDRAL>
0

>  <SCORE.INTRA.DIHEDRAL.0>
0

>  <SCORE.INTRA.POLAR>
0

>  <SCORE.INTRA.POLAR.0>
0

>  <SCORE.INTRA.REPUL>
0

>  <SCORE.INTRA.REPUL.0>
0

>  <SCORE.INTRA.SOLV>
0

>  <SCORE.INTRA.SOLV.lig_0>
-49.4056

>  <SCORE.INTRA.VDW>
0

>  <SCORE.INTRA.VDW.0>
0

>  <SCORE.INTRA.norm>
0

>  <SCORE.RESTR>
0

>  <SCORE.RESTR.CAVITY>
0

>  <SCORE.RESTR.norm>
0

>  <SCORE.SYSTEM>
0

>  <SCORE.SYSTEM.CONST>
0

>  <SCORE.SYSTEM.DIHEDRAL>
0

>  <SCORE.SYSTEM.SOLV>
0

>  <SCORE.SYSTEM.norm>
0

>  <SCORE.heavy>
11

>  <SCORE.norm>
-0.937524

>  <RMSD>
13.479

$$$$
ligand
 OpenBabel11021811503D
libRbt.so/2013.1/901 2013/11/27
 11 12  0  0  0  0  0  0  0  0999 V2000
    2.6828  -25.2224   13.7617 N   0  0  0  0  0  0  0  0  0  0  0  0
    2.1319  -24.8974   12.5661 C   0  0  0  0  0  0  0  0  0  0  0  0
    2.9516  -24.4606   11.4755 N   0  0  0  0  0  0  0  0  0  0  0  0
    0.8022  -24.9721   12.3783 N   0  0  0  0  0  0  0  0  0  0  0  0
   -0.0393  -25.3851   13.3867 C   0  0  0  0  0  0  0  0  0  0  0  0
    0.4951  -25.7201   14.6173 C   0  0  0  0  0  0  0  0  0  0  0  0
    1.9081  -25.6267   14.7919 C   0  0  0  0  0  0  0  0  0  0  0  0
    2.4945  -25.9638   16.0531 N   0  0  0  0  0  0  0  0  0  0  0  0
   -0.5654  -26.0878   15.4235 N   0  0  0  0  0  0  0  0  0  0  0  0
   -1.7083  -25.9766   14.7170 C   0  0  0  0  0  0  0  0  0  0  0  0
   -1.4149  -25.5485   13.4730 N   0  0  0  0  0  0  0  0  0  0  0  0
  1  7  2  0  0  0  0
  1  2  1  0  0  0  0
  2  3  1  0  0  0  0
  2  4  2  0  0  0  0
  4  5  1  0  0  0  0
  5  6  2  0  0  0  0
  5 11  1  0  0  0  0
  6  7  1  0  0  0  0
  6  9  1  0  0  0  0
  7  8  1  0  0  0  0
  9 10  1  0  0  0  0
 10 11  2  0  0  0  0
M  END
>  <CHROM.1>
0.90799867,-25.43643052,13.86710750,-0.57803226,0.09846309,1.87905953

>  <Name>
ligand

>  <RI>
0

>  <Rbt.Current_Directory>
/home/itssahil/PROJECTS/Mol_Feturizer/New_Systems/rnas/4LVZ

>  <Rbt.Executable>
rbdock ($Id: //depot/dev/client3/rdock/2013.1/src/exe/rbdock.cxx#4 $)

>  <Rbt.Library>
libRbt.so (2013.1, Build901 2013/11/27)

>  <Rbt.Parameter_File>
/export/apps/rDock/src/rDock_2013.1_src/data/scripts/dock_solv.prm

>  <Rbt.Receptor>
prm/blind_docking_40.prm

>  <SCORE>
-6.9122

>  <SCORE.INTER>
-6.9122

>  <SCORE.INTER.CONST>
1

>  <SCORE.INTER.POLAR>
0

>  <SCORE.INTER.ROT>
0

>  <SCORE.INTER.SOLV>
10.5705

>  <SCORE.INTER.VDW>
-11.7317

>  <SCORE.INTER.norm>
-0.628382

>  <SCORE.INTRA>
0

>  <SCORE.INTRA.DIHEDRAL>
0

>  <SCORE.INTRA.DIHEDRAL.0>
0

>  <SCORE.INTRA.POLAR>
0

>  <SCORE.INTRA.POLAR.0>
0

>  <SCORE.INTRA.REPUL>
0

>  <SCORE.INTRA.REPUL.0>
0

>  <SCORE.INTRA.SOLV>
0

>  <SCORE.INTRA.SOLV.lig_0>
-49.4056

>  <SCORE.INTRA.VDW>
0

>  <SCORE.INTRA.VDW.0>
0

>  <SCORE.INTRA.norm>
0

>  <SCORE.RESTR>
0

>  <SCORE.RESTR.CAVITY>
0

>  <SCORE.RESTR.norm>
0

>  <SCORE.SYSTEM>
0

>  <SCORE.SYSTEM.CONST>
0

>  <SCORE.SYSTEM.DIHEDRAL>
0

>  <SCORE.SYSTEM.SOLV>
0

>  <SCORE.SYSTEM.norm>
0

>  <SCORE.heavy>
11

>  <SCORE.norm>
-0.628382

>  <RMSD>
13.696

$$$$
ligand
 OpenBabel11021811503D
libRbt.so/2013.1/901 2013/11/27
 11 12  0  0  0  0  0  0  0  0999 V2000
    1.0092  -25.5354   13.9900 N   0  0  0  0  0  0  0  0  0  0  0  0
    0.6476  -26.0305   15.1995 C   0  0  0  0  0  0  0  0  0  0  0  0
    1.6337  -26.3229   16.1966 N   0  0  0  0  0  0  0  0  0  0  0  0
   -0.6449  -26.2642   15.4887 N   0  0  0  0  0  0  0  0  0  0  0  0
   -1.6399  -26.0036   14.5734 C   0  0  0  0  0  0  0  0  0  0  0  0
   -1.2996  -25.5008   13.3310 C   0  0  0  0  0  0  0  0  0  0  0  0
    0.0792  -25.2674   13.0475 C   0  0  0  0  0  0  0  0  0  0  0  0
    0.4668  -24.7495   11.7710 N   0  0  0  0  0  0  0  0  0  0  0  0
   -2.4801  -25.3428   12.6301 N   0  0  0  0  0  0  0  0  0  0  0  0
   -3.5058  -25.7397   13.4099 C   0  0  0  0  0  0  0  0  0  0  0  0
   -3.0200  -26.1485   14.5990 N   0  0  0  0  0  0  0  0  0  0  0  0
  1  7  2  0  0  0  0
  1  2  1  0  0  0  0
  2  3  1  0  0  0  0
  2  4  2  0  0  0  0
  4  5  1  0  0  0  0
  5  6  2  0  0  0  0
  5 11  1  0  0  0  0
  6  7  1  0  0  0  0
  6  9  1  0  0  0  0
  7  8  1  0  0  0  0
  9 10  1  0  0  0  0
 10 11  2  0  0  0  0
M  END
>  <CHROM.1>
-0.77171140,-25.71938141,14.02908298,-0.42859196,-0.08665738,-1.20726512

>  <Name>
ligand

>  <RI>
0

>  <Rbt.Current_Directory>
/home/itssahil/PROJECTS/Mol_Feturizer/New_Systems/rnas/4LVZ

>  <Rbt.Executable>
rbdock ($Id: //depot/dev/client3/rdock/2013.1/src/exe/rbdock.cxx#4 $)

>  <Rbt.Library>
libRbt.so (2013.1, Build901 2013/11/27)

>  <Rbt.Parameter_File>
/export/apps/rDock/src/rDock_2013.1_src/data/scripts/dock_solv.prm

>  <Rbt.Receptor>
prm/blind_docking_40.prm

>  <SCORE>
-9.26739

>  <SCORE.INTER>
-9.26739

>  <SCORE.INTER.CONST>
1

>  <SCORE.INTER.POLAR>
0

>  <SCORE.INTER.ROT>
0

>  <SCORE.INTER.SOLV>
8.39878

>  <SCORE.INTER.VDW>
-12.5779

>  <SCORE.INTER.norm>
-0.84249

>  <SCORE.INTRA>
0

>  <SCORE.INTRA.DIHEDRAL>
0

>  <SCORE.INTRA.DIHEDRAL.0>
0

>  <SCORE.INTRA.POLAR>
0

>  <SCORE.INTRA.POLAR.0>
0

>  <SCORE.INTRA.REPUL>
0

>  <SCORE.INTRA.REPUL.0>
0

>  <SCORE.INTRA.SOLV>
0

>  <SCORE.INTRA.SOLV.lig_0>
-49.4056

>  <SCORE.INTRA.VDW>
0

>  <SCORE.INTRA.VDW.0>
0

>  <SCORE.INTRA.norm>
0

>  <SCORE.RESTR>
0

>  <SCORE.RESTR.CAVITY>
0

>  <SCORE.RESTR.norm>
0

>  <SCORE.SYSTEM>
0

>  <SCORE.SYSTEM.CONST>
0

>  <SCORE.SYSTEM.DIHEDRAL>
0

>  <SCORE.SYSTEM.SOLV>
0

>  <SCORE.SYSTEM.norm>
0

>  <SCORE.heavy>
11

>  <SCORE.norm>
-0.84249

>  <RMSD>
13.737

$$$$
ligand
 OpenBabel11021811503D
libRbt.so/2013.1/901 2013/11/27
 11 12  0  0  0  0  0  0  0  0999 V2000
    0.9853  -25.4869   13.9700 N   0  0  0  0  0  0  0  0  0  0  0  0
    0.6424  -25.9783   15.1864 C   0  0  0  0  0  0  0  0  0  0  0  0
    1.6411  -26.2403   16.1794 N   0  0  0  0  0  0  0  0  0  0  0  0
   -0.6428  -26.2367   15.4866 N   0  0  0  0  0  0  0  0  0  0  0  0
   -1.6492  -26.0060   14.5758 C   0  0  0  0  0  0  0  0  0  0  0  0
   -1.3280  -25.5077   13.3265 C   0  0  0  0  0  0  0  0  0  0  0  0
    0.0435  -25.2476   13.0315 C   0  0  0  0  0  0  0  0  0  0  0  0
    0.4116  -24.7335   11.7476 N   0  0  0  0  0  0  0  0  0  0  0  0
   -2.5163  -25.3815   12.6323 N   0  0  0  0  0  0  0  0  0  0  0  0
   -3.5281  -25.7928   13.4227 C   0  0  0  0  0  0  0  0  0  0  0  0
   -3.0258  -26.1800   14.6121 N   0  0  0  0  0  0  0  0  0  0  0  0
  1  7  2  0  0  0  0
  1  2  1  0  0  0  0
  2  3  1  0  0  0  0
  2  4  2  0  0  0  0
  4  5  1  0  0  0  0
  5  6  2  0  0  0  0
  5 11  1  0  0  0  0
  6  7  1  0  0  0  0
  6  9  1  0  0  0  0
  7  8  1  0  0  0  0
  9 10  1  0  0  0  0
 10 11  2  0  0  0  0
M  END
>  <CHROM.1>
-0.79094889,-25.70843044,14.02294202,-0.41470527,-0.10425000,-1.21521231

>  <Name>
ligand

>  <RI>
0

>  <Rbt.Current_Directory>
/home/itssahil/PROJECTS/Mol_Feturizer/New_Systems/rnas/4LVZ

>  <Rbt.Executable>
rbdock ($Id: //depot/dev/client3/rdock/2013.1/src/exe/rbdock.cxx#4 $)

>  <Rbt.Library>
libRbt.so (2013.1, Build901 2013/11/27)

>  <Rbt.Parameter_File>
/export/apps/rDock/src/rDock_2013.1_src/data/scripts/dock_solv.prm

>  <Rbt.Receptor>
prm/blind_docking_40.prm

>  <SCORE>
-9.28341

>  <SCORE.INTER>
-9.28341

>  <SCORE.INTER.CONST>
1

>  <SCORE.INTER.POLAR>
0

>  <SCORE.INTER.ROT>
0

>  <SCORE.INTER.SOLV>
8.58025

>  <SCORE.INTER.VDW>
-12.649

>  <SCORE.INTER.norm>
-0.843946

>  <SCORE.INTRA>
0

>  <SCORE.INTRA.DIHEDRAL>
0

>  <SCORE.INTRA.DIHEDRAL.0>
0

>  <SCORE.INTRA.POLAR>
0

>  <SCORE.INTRA.POLAR.0>
0

>  <SCORE.INTRA.REPUL>
0

>  <SCORE.INTRA.REPUL.0>
0

>  <SCORE.INTRA.SOLV>
0

>  <SCORE.INTRA.SOLV.lig_0>
-49.4056

>  <SCORE.INTRA.VDW>
0

>  <SCORE.INTRA.VDW.0>
0

>  <SCORE.INTRA.norm>
0

>  <SCORE.RESTR>
0

>  <SCORE.RESTR.CAVITY>
0

>  <SCORE.RESTR.norm>
0

>  <SCORE.SYSTEM>
0

>  <SCORE.SYSTEM.CONST>
0

>  <SCORE.SYSTEM.DIHEDRAL>
0

>  <SCORE.SYSTEM.SOLV>
0

>  <SCORE.SYSTEM.norm>
0

>  <SCORE.heavy>
11

>  <SCORE.norm>
-0.843946

>  <RMSD>
13.740

$$$$
ligand
 OpenBabel11021811503D
libRbt.so/2013.1/901 2013/11/27
 11 12  0  0  0  0  0  0  0  0999 V2000
    0.9873  -25.4964   13.9871 N   0  0  0  0  0  0  0  0  0  0  0  0
    0.6480  -25.9947   15.2016 C   0  0  0  0  0  0  0  0  0  0  0  0
    1.6475  -26.2457   16.1965 N   0  0  0  0  0  0  0  0  0  0  0  0
   -0.6345  -26.2706   15.4982 N   0  0  0  0  0  0  0  0  0  0  0  0
   -1.6417  -26.0512   14.5853 C   0  0  0  0  0  0  0  0  0  0  0  0
   -1.3240  -25.5462   13.3378 C   0  0  0  0  0  0  0  0  0  0  0  0
    0.0448  -25.2675   13.0467 C   0  0  0  0  0  0  0  0  0  0  0  0
    0.4092  -24.7462   11.7648 N   0  0  0  0  0  0  0  0  0  0  0  0
   -2.5121  -25.4341   12.6409 N   0  0  0  0  0  0  0  0  0  0  0  0
   -3.5203  -25.8602   13.4281 C   0  0  0  0  0  0  0  0  0  0  0  0
   -3.0159  -26.2432   14.6179 N   0  0  0  0  0  0  0  0  0  0  0  0
  1  7  2  0  0  0  0
  1  2  1  0  0  0  0
  2  3  1  0  0  0  0
  2  4  2  0  0  0  0
  4  5  1  0  0  0  0
  5  6  2  0  0  0  0
  5 11  1  0  0  0  0
  6  7  1  0  0  0  0
  6  9  1  0  0  0  0
  7  8  1  0  0  0  0
  9 10  1  0  0  0  0
 10 11  2  0  0  0  0
M  END
>  <CHROM.1>
-0.78600421,-25.74127348,14.03519306,-0.41242414,-0.11736121,-1.21296003

>  <Name>
ligand

>  <RI>
0

>  <Rbt.Current_Directory>
/home/itssahil/PROJECTS/Mol_Feturizer/New_Systems/rnas/4LVZ

>  <Rbt.Executable>
rbdock ($Id: //depot/dev/client3/rdock/2013.1/src/exe/rbdock.cxx#4 $)

>  <Rbt.Library>
libRbt.so (2013.1, Build901 2013/11/27)

>  <Rbt.Parameter_File>
/export/apps/rDock/src/rDock_2013.1_src/data/scripts/dock_solv.prm

>  <Rbt.Receptor>
prm/blind_docking_40.prm

>  <SCORE>
-9.28548

>  <SCORE.INTER>
-9.28548

>  <SCORE.INTER.CONST>
1

>  <SCORE.INTER.POLAR>
0

>  <SCORE.INTER.ROT>
0

>  <SCORE.INTER.SOLV>
8.7015

>  <SCORE.INTER.VDW>
-12.6908

>  <SCORE.INTER.norm>
-0.844134

>  <SCORE.INTRA>
0

>  <SCORE.INTRA.DIHEDRAL>
0

>  <SCORE.INTRA.DIHEDRAL.0>
0

>  <SCORE.INTRA.POLAR>
0

>  <SCORE.INTRA.POLAR.0>
0

>  <SCORE.INTRA.REPUL>
0

>  <SCORE.INTRA.REPUL.0>
0

>  <SCORE.INTRA.SOLV>
0

>  <SCORE.INTRA.SOLV.lig_0>
-49.4056

>  <SCORE.INTRA.VDW>
0

>  <SCORE.INTRA.VDW.0>
0

>  <SCORE.INTRA.norm>
0

>  <SCORE.RESTR>
0

>  <SCORE.RESTR.CAVITY>
0

>  <SCORE.RESTR.norm>
0

>  <SCORE.SYSTEM>
0

>  <SCORE.SYSTEM.CONST>
0

>  <SCORE.SYSTEM.DIHEDRAL>
0

>  <SCORE.SYSTEM.SOLV>
0

>  <SCORE.SYSTEM.norm>
0

>  <SCORE.heavy>
11

>  <SCORE.norm>
-0.844134

>  <RMSD>
13.740

$$$$
ligand
 OpenBabel11021811503D
libRbt.so/2013.1/901 2013/11/27
 11 12  0  0  0  0  0  0  0  0999 V2000
    1.0025  -25.5323   13.9892 N   0  0  0  0  0  0  0  0  0  0  0  0
    0.6384  -26.0276   15.1978 C   0  0  0  0  0  0  0  0  0  0  0  0
    1.6224  -26.3207   16.1967 N   0  0  0  0  0  0  0  0  0  0  0  0
   -0.6548  -26.2607   15.4845 N   0  0  0  0  0  0  0  0  0  0  0  0
   -1.6479  -25.9994   14.5674 C   0  0  0  0  0  0  0  0  0  0  0  0
   -1.3050  -25.4964   13.3257 C   0  0  0  0  0  0  0  0  0  0  0  0
    0.0745  -25.2635   13.0450 C   0  0  0  0  0  0  0  0  0  0  0  0
    0.4648  -24.7455   11.7694 N   0  0  0  0  0  0  0  0  0  0  0  0
   -2.4841  -25.3377   12.6227 N   0  0  0  0  0  0  0  0  0  0  0  0
   -3.5115  -25.7343   13.4004 C   0  0  0  0  0  0  0  0  0  0  0  0
   -3.0281  -26.1436   14.5903 N   0  0  0  0  0  0  0  0  0  0  0  0
  1  7  2  0  0  0  0
  1  2  1  0  0  0  0
  2  3  1  0  0  0  0
  2  4  2  0  0  0  0
  4  5  1  0  0  0  0
  5  6  2  0  0  0  0
  5 11  1  0  0  0  0
  6  7  1  0  0  0  0
  6  9  1  0  0  0  0
  7  8  1  0  0  0  0
  9 10  1  0  0  0  0
 10 11  2  0  0  0  0
M  END
>  <CHROM.1>
-0.77852870,-25.71544095,14.02481967,-0.43055648,-0.08688672,-1.20715336

>  <Name>
ligand

>  <RI>
0

>  <Rbt.Current_Directory>
/home/itssahil/PROJECTS/Mol_Feturizer/New_Systems/rnas/4LVZ

>  <Rbt.Executable>
rbdock ($Id: //depot/dev/client3/rdock/2013.1/src/exe/rbdock.cxx#4 $)

>  <Rbt.Library>
libRbt.so (2013.1, Build901 2013/11/27)

>  <Rbt.Parameter_File>
/export/apps/rDock/src/rDock_2013.1_src/data/scripts/dock_solv.prm

>  <Rbt.Receptor>
prm/blind_docking_100.prm

>  <SCORE>
-9.26252

>  <SCORE.INTER>
-9.26252

>  <SCORE.INTER.CONST>
1

>  <SCORE.INTER.POLAR>
0

>  <SCORE.INTER.ROT>
0

>  <SCORE.INTER.SOLV>
8.41446

>  <SCORE.INTER.VDW>
-12.5798

>  <SCORE.INTER.norm>
-0.842047

>  <SCORE.INTRA>
0

>  <SCORE.INTRA.DIHEDRAL>
0

>  <SCORE.INTRA.DIHEDRAL.0>
0

>  <SCORE.INTRA.POLAR>
0

>  <SCORE.INTRA.POLAR.0>
0

>  <SCORE.INTRA.REPUL>
0

>  <SCORE.INTRA.REPUL.0>
0

>  <SCORE.INTRA.SOLV>
0

>  <SCORE.INTRA.SOLV.lig_0>
-49.4056

>  <SCORE.INTRA.VDW>
0

>  <SCORE.INTRA.VDW.0>
0

>  <SCORE.INTRA.norm>
0

>  <SCORE.RESTR>
0

>  <SCORE.RESTR.CAVITY>
0

>  <SCORE.RESTR.norm>
0

>  <SCORE.SYSTEM>
0

>  <SCORE.SYSTEM.CONST>
0

>  <SCORE.SYSTEM.DIHEDRAL>
0

>  <SCORE.SYSTEM.SOLV>
0

>  <SCORE.SYSTEM.norm>
0

>  <SCORE.heavy>
11

>  <SCORE.norm>
-0.842047

>  <RMSD>
13.741

$$$$
ligand
 OpenBabel11021811503D
libRbt.so/2013.1/901 2013/11/27
 11 12  0  0  0  0  0  0  0  0999 V2000
    0.9583  -25.5334   13.9862 N   0  0  0  0  0  0  0  0  0  0  0  0
    0.6064  -26.0416   15.1931 C   0  0  0  0  0  0  0  0  0  0  0  0
    1.5993  -26.3328   16.1837 N   0  0  0  0  0  0  0  0  0  0  0  0
   -0.6826  -26.2896   15.4857 N   0  0  0  0  0  0  0  0  0  0  0  0
   -1.6839  -26.0311   14.5767 C   0  0  0  0  0  0  0  0  0  0  0  0
   -1.3535  -25.5151   13.3369 C   0  0  0  0  0  0  0  0  0  0  0  0
    0.0219  -25.2665   13.0497 C   0  0  0  0  0  0  0  0  0  0  0  0
    0.3994  -24.7349   11.7759 N   0  0  0  0  0  0  0  0  0  0  0  0
   -2.5383  -25.3626   12.6422 N   0  0  0  0  0  0  0  0  0  0  0  0
   -3.5570  -25.7752   13.4231 C   0  0  0  0  0  0  0  0  0  0  0  0
   -3.0625  -26.1890   14.6068 N   0  0  0  0  0  0  0  0  0  0  0  0
  1  7  2  0  0  0  0
  1  2  1  0  0  0  0
  2  3  1  0  0  0  0
  2  4  2  0  0  0  0
  4  5  1  0  0  0  0
  5  6  2  0  0  0  0
  5 11  1  0  0  0  0
  6  7  1  0  0  0  0
  6  9  1  0  0  0  0
  7  8  1  0  0  0  0
  9 10  1  0  0  0  0
 10 11  2  0  0  0  0
M  END
>  <CHROM.1>
-0.82064345,-25.73436071,14.03110206,-0.42133346,-0.09385868,-1.19856372

>  <Name>
ligand

>  <RI>
0

>  <Rbt.Current_Directory>
/home/itssahil/PROJECTS/Mol_Feturizer/New_Systems/rnas/4LVZ

>  <Rbt.Executable>
rbdock ($Id: //depot/dev/client3/rdock/2013.1/src/exe/rbdock.cxx#4 $)

>  <Rbt.Library>
libRbt.so (2013.1, Build901 2013/11/27)

>  <Rbt.Parameter_File>
/export/apps/rDock/src/rDock_2013.1_src/data/scripts/dock_solv.prm

>  <Rbt.Receptor>
prm/blind_docking_40.prm

>  <SCORE>
-9.27701

>  <SCORE.INTER>
-9.27701

>  <SCORE.INTER.CONST>
1

>  <SCORE.INTER.POLAR>
0

>  <SCORE.INTER.ROT>
0

>  <SCORE.INTER.SOLV>
8.49349

>  <SCORE.INTER.VDW>
-12.6158

>  <SCORE.INTER.norm>
-0.843365

>  <SCORE.INTRA>
0

>  <SCORE.INTRA.DIHEDRAL>
0

>  <SCORE.INTRA.DIHEDRAL.0>
0

>  <SCORE.INTRA.POLAR>
0

>  <SCORE.INTRA.POLAR.0>
0

>  <SCORE.INTRA.REPUL>
0

>  <SCORE.INTRA.REPUL.0>
0

>  <SCORE.INTRA.SOLV>
0

>  <SCORE.INTRA.SOLV.lig_0>
-49.4056

>  <SCORE.INTRA.VDW>
0

>  <SCORE.INTRA.VDW.0>
0

>  <SCORE.INTRA.norm>
0

>  <SCORE.RESTR>
0

>  <SCORE.RESTR.CAVITY>
0

>  <SCORE.RESTR.norm>
0

>  <SCORE.SYSTEM>
0

>  <SCORE.SYSTEM.CONST>
0

>  <SCORE.SYSTEM.DIHEDRAL>
0

>  <SCORE.SYSTEM.SOLV>
0

>  <SCORE.SYSTEM.norm>
0

>  <SCORE.heavy>
11

>  <SCORE.norm>
-0.843365

>  <RMSD>
13.751

$$$$
ligand
 OpenBabel11021811503D
libRbt.so/2013.1/901 2013/11/27
 11 12  0  0  0  0  0  0  0  0999 V2000
    1.0135  -25.5809   13.9679 N   0  0  0  0  0  0  0  0  0  0  0  0
    0.6500  -26.0070   15.2027 C   0  0  0  0  0  0  0  0  0  0  0  0
    1.6340  -26.2380   16.2178 N   0  0  0  0  0  0  0  0  0  0  0  0
   -0.6425  -26.2284   15.5012 N   0  0  0  0  0  0  0  0  0  0  0  0
   -1.6356  -26.0246   14.5697 C   0  0  0  0  0  0  0  0  0  0  0  0
   -1.2933  -25.5928   13.3013 C   0  0  0  0  0  0  0  0  0  0  0  0
    0.0855  -25.3709   13.0089 C   0  0  0  0  0  0  0  0  0  0  0  0
    0.4752  -24.9258   11.7058 N   0  0  0  0  0  0  0  0  0  0  0  0
   -2.4723  -25.4797   12.5892 N   0  0  0  0  0  0  0  0  0  0  0  0
   -3.4989  -25.8348   13.3876 C   0  0  0  0  0  0  0  0  0  0  0  0
   -3.0153  -26.1728   14.5996 N   0  0  0  0  0  0  0  0  0  0  0  0
  1  7  2  0  0  0  0
  1  2  1  0  0  0  0
  2  3  1  0  0  0  0
  2  4  2  0  0  0  0
  4  5  1  0  0  0  0
  5  6  2  0  0  0  0
  5 11  1  0  0  0  0
  6  7  1  0  0  0  0
  6  9  1  0  0  0  0
  7  8  1  0  0  0  0
  9 10  1  0  0  0  0
 10 11  2  0  0  0  0
M  END
>  <CHROM.1>
-0.76681043,-25.76888322,14.01235563,-0.43019898,-0.09102798,-1.26491530

>  <Name>
ligand

>  <RI>
0

>  <Rbt.Current_Directory>
/home/itssahil/PROJECTS/Mol_Feturizer/New_Systems/rnas/4LVZ

>  <Rbt.Executable>
rbdock ($Id: //depot/dev/client3/rdock/2013.1/src/exe/rbdock.cxx#4 $)

>  <Rbt.Library>
libRbt.so (2013.1, Build901 2013/11/27)

>  <Rbt.Parameter_File>
/export/apps/rDock/src/rDock_2013.1_src/data/scripts/dock_solv.prm

>  <Rbt.Receptor>
prm/blind_docking_40.prm

>  <SCORE>
-9.22235

>  <SCORE.INTER>
-9.22235

>  <SCORE.INTER.CONST>
1

>  <SCORE.INTER.POLAR>
0

>  <SCORE.INTER.ROT>
0

>  <SCORE.INTER.SOLV>
8.47357

>  <SCORE.INTER.VDW>
-12.5728

>  <SCORE.INTER.norm>
-0.838395

>  <SCORE.INTRA>
0

>  <SCORE.INTRA.DIHEDRAL>
0

>  <SCORE.INTRA.DIHEDRAL.0>
0

>  <SCORE.INTRA.POLAR>
0

>  <SCORE.INTRA.POLAR.0>
0

>  <SCORE.INTRA.REPUL>
0

>  <SCORE.INTRA.REPUL.0>
0

>  <SCORE.INTRA.SOLV>
0

>  <SCORE.INTRA.SOLV.lig_0>
-49.4056

>  <SCORE.INTRA.VDW>
0

>  <SCORE.INTRA.VDW.0>
0

>  <SCORE.INTRA.norm>
0

>  <SCORE.RESTR>
0

>  <SCORE.RESTR.CAVITY>
0

>  <SCORE.RESTR.norm>
0

>  <SCORE.SYSTEM>
0

>  <SCORE.SYSTEM.CONST>
0

>  <SCORE.SYSTEM.DIHEDRAL>
0

>  <SCORE.SYSTEM.SOLV>
0

>  <SCORE.SYSTEM.norm>
0

>  <SCORE.heavy>
11

>  <SCORE.norm>
-0.838395

>  <RMSD>
13.765

$$$$
ligand
 OpenBabel11021811503D
libRbt.so/2013.1/901 2013/11/27
 11 12  0  0  0  0  0  0  0  0999 V2000
    0.3080  -25.8051   12.2640 N   0  0  0  0  0  0  0  0  0  0  0  0
   -0.9324  -25.7124   12.8039 C   0  0  0  0  0  0  0  0  0  0  0  0
   -2.0994  -25.7809   11.9760 N   0  0  0  0  0  0  0  0  0  0  0  0
   -1.0956  -25.5479   14.1287 N   0  0  0  0  0  0  0  0  0  0  0  0
   -0.0142  -25.4751   14.9778 C   0  0  0  0  0  0  0  0  0  0  0  0
    1.2626  -25.5639   14.4541 C   0  0  0  0  0  0  0  0  0  0  0  0
    1.4081  -25.7324   13.0447 C   0  0  0  0  0  0  0  0  0  0  0  0
    2.7149  -25.8259   12.4691 N   0  0  0  0  0  0  0  0  0  0  0  0
    2.1366  -25.4573   15.5193 N   0  0  0  0  0  0  0  0  0  0  0  0
    1.4239  -25.3023   16.6533 C   0  0  0  0  0  0  0  0  0  0  0  0
    0.1105  -25.3082   16.3500 N   0  0  0  0  0  0  0  0  0  0  0  0
  1  7  2  0  0  0  0
  1  2  1  0  0  0  0
  2  3  1  0  0  0  0
  2  4  2  0  0  0  0
  4  5  1  0  0  0  0
  5  6  2  0  0  0  0
  5 11  1  0  0  0  0
  6  7  1  0  0  0  0
  6  9  1  0  0  0  0
  7  8  1  0  0  0  0
  9 10  1  0  0  0  0
 10 11  2  0  0  0  0
M  END
>  <CHROM.1>
0.46409850,-25.59436648,14.03551058,-2.14360672,-0.02172609,1.45239429

>  <Name>
ligand

>  <RI>
0

>  <Rbt.Current_Directory>
/home/itssahil/PROJECTS/Mol_Feturizer/New_Systems/rnas/4LVZ

>  <Rbt.Executable>
rbdock ($Id: //depot/dev/client3/rdock/2013.1/src/exe/rbdock.cxx#4 $)

>  <Rbt.Library>
libRbt.so (2013.1, Build901 2013/11/27)

>  <Rbt.Parameter_File>
/export/apps/rDock/src/rDock_2013.1_src/data/scripts/dock_solv.prm

>  <Rbt.Receptor>
prm/blind_docking_60.prm

>  <SCORE>
-8.07454

>  <SCORE.INTER>
-8.07454

>  <SCORE.INTER.CONST>
1

>  <SCORE.INTER.POLAR>
0

>  <SCORE.INTER.ROT>
0

>  <SCORE.INTER.SOLV>
6.04986

>  <SCORE.INTER.VDW>
-10.9996

>  <SCORE.INTER.norm>
-0.734049

>  <SCORE.INTRA>
0

>  <SCORE.INTRA.DIHEDRAL>
0

>  <SCORE.INTRA.DIHEDRAL.0>
0

>  <SCORE.INTRA.POLAR>
0

>  <SCORE.INTRA.POLAR.0>
0

>  <SCORE.INTRA.REPUL>
0

>  <SCORE.INTRA.REPUL.0>
0

>  <SCORE.INTRA.SOLV>
0

>  <SCORE.INTRA.SOLV.lig_0>
-49.4056

>  <SCORE.INTRA.VDW>
0

>  <SCORE.INTRA.VDW.0>
0

>  <SCORE.INTRA.norm>
0

>  <SCORE.RESTR>
0

>  <SCORE.RESTR.CAVITY>
0

>  <SCORE.RESTR.norm>
0

>  <SCORE.SYSTEM>
0

>  <SCORE.SYSTEM.CONST>
0

>  <SCORE.SYSTEM.DIHEDRAL>
0

>  <SCORE.SYSTEM.SOLV>
0

>  <SCORE.SYSTEM.norm>
0

>  <SCORE.heavy>
11

>  <SCORE.norm>
-0.734049

>  <RMSD>
13.788

$$$$
ligand
 OpenBabel11021811503D
libRbt.so/2013.1/901 2013/11/27
 11 12  0  0  0  0  0  0  0  0999 V2000
    0.9152  -25.4382   13.8581 N   0  0  0  0  0  0  0  0  0  0  0  0
    0.6017  -25.8519   15.1108 C   0  0  0  0  0  0  0  0  0  0  0  0
    1.6205  -26.0213   16.1034 N   0  0  0  0  0  0  0  0  0  0  0  0
   -0.6725  -26.1184   15.4486 N   0  0  0  0  0  0  0  0  0  0  0  0
   -1.6971  -25.9747   14.5402 C   0  0  0  0  0  0  0  0  0  0  0  0
   -1.4059  -25.5569   13.2545 C   0  0  0  0  0  0  0  0  0  0  0  0
   -0.0454  -25.2863   12.9204 C   0  0  0  0  0  0  0  0  0  0  0  0
    0.2918  -24.8543   11.5985 N   0  0  0  0  0  0  0  0  0  0  0  0
   -2.6067  -25.5066   12.5722 N   0  0  0  0  0  0  0  0  0  0  0  0
   -3.5968  -25.8853   13.4052 C   0  0  0  0  0  0  0  0  0  0  0  0
   -3.0684  -26.1774   14.6103 N   0  0  0  0  0  0  0  0  0  0  0  0
  1  7  2  0  0  0  0
  1  2  1  0  0  0  0
  2  3  1  0  0  0  0
  2  4  2  0  0  0  0
  4  5  1  0  0  0  0
  5  6  2  0  0  0  0
  5 11  1  0  0  0  0
  6  7  1  0  0  0  0
  6  9  1  0  0  0  0
  7  8  1  0  0  0  0
  9 10  1  0  0  0  0
 10 11  2  0  0  0  0
M  END
>  <CHROM.1>
-0.85424586,-25.69644107,13.95448765,-0.39274968,-0.12184217,-1.28198749

>  <Name>
ligand

>  <RI>
0

>  <Rbt.Current_Directory>
/home/itssahil/PROJECTS/Mol_Feturizer/New_Systems/rnas/4LVZ

>  <Rbt.Executable>
rbdock ($Id: //depot/dev/client3/rdock/2013.1/src/exe/rbdock.cxx#4 $)

>  <Rbt.Library>
libRbt.so (2013.1, Build901 2013/11/27)

>  <Rbt.Parameter_File>
/export/apps/rDock/src/rDock_2013.1_src/data/scripts/dock_solv.prm

>  <Rbt.Receptor>
prm/blind_docking_40.prm

>  <SCORE>
-9.26981

>  <SCORE.INTER>
-9.26981

>  <SCORE.INTER.CONST>
1

>  <SCORE.INTER.POLAR>
0

>  <SCORE.INTER.ROT>
0

>  <SCORE.INTER.SOLV>
8.73221

>  <SCORE.INTER.VDW>
-12.6906

>  <SCORE.INTER.norm>
-0.84271

>  <SCORE.INTRA>
0

>  <SCORE.INTRA.DIHEDRAL>
0

>  <SCORE.INTRA.DIHEDRAL.0>
0

>  <SCORE.INTRA.POLAR>
0

>  <SCORE.INTRA.POLAR.0>
0

>  <SCORE.INTRA.REPUL>
0

>  <SCORE.INTRA.REPUL.0>
0

>  <SCORE.INTRA.SOLV>
0

>  <SCORE.INTRA.SOLV.lig_0>
-49.4056

>  <SCORE.INTRA.VDW>
0

>  <SCORE.INTRA.VDW.0>
0

>  <SCORE.INTRA.norm>
0

>  <SCORE.RESTR>
0

>  <SCORE.RESTR.CAVITY>
0

>  <SCORE.RESTR.norm>
0

>  <SCORE.SYSTEM>
0

>  <SCORE.SYSTEM.CONST>
0

>  <SCORE.SYSTEM.DIHEDRAL>
0

>  <SCORE.SYSTEM.SOLV>
0

>  <SCORE.SYSTEM.norm>
0

>  <SCORE.heavy>
11

>  <SCORE.norm>
-0.84271

>  <RMSD>
13.801

$$$$
ligand
 OpenBabel11021811503D
libRbt.so/2013.1/901 2013/11/27
 11 12  0  0  0  0  0  0  0  0999 V2000
    2.4293  -25.3580   13.6968 N   0  0  0  0  0  0  0  0  0  0  0  0
    1.9357  -24.9548   12.5000 C   0  0  0  0  0  0  0  0  0  0  0  0
    2.8130  -24.5266   11.4517 N   0  0  0  0  0  0  0  0  0  0  0  0
    0.6104  -24.9420   12.2715 N   0  0  0  0  0  0  0  0  0  0  0  0
   -0.2848  -25.3420   13.2380 C   0  0  0  0  0  0  0  0  0  0  0  0
    0.1906  -25.7555   14.4690 C   0  0  0  0  0  0  0  0  0  0  0  0
    1.6006  -25.7542   14.6874 C   0  0  0  0  0  0  0  0  0  0  0  0
    2.1268  -26.1740   15.9503 N   0  0  0  0  0  0  0  0  0  0  0  0
   -0.9142  -26.0893   15.2291 N   0  0  0  0  0  0  0  0  0  0  0  0
   -2.0261  -25.8825   14.4953 C   0  0  0  0  0  0  0  0  0  0  0  0
   -1.6697  -25.4254   13.2784 N   0  0  0  0  0  0  0  0  0  0  0  0
  1  7  2  0  0  0  0
  1  2  1  0  0  0  0
  2  3  1  0  0  0  0
  2  4  2  0  0  0  0
  4  5  1  0  0  0  0
  5  6  2  0  0  0  0
  5 11  1  0  0  0  0
  6  7  1  0  0  0  0
  6  9  1  0  0  0  0
  7  8  1  0  0  0  0
  9 10  1  0  0  0  0
 10 11  2  0  0  0  0
M  END
>  <CHROM.1>
0.64249920,-25.46863639,13.74284439,-0.53059496,0.05145349,1.91481401

>  <Name>
ligand

>  <RI>
0

>  <Rbt.Current_Directory>
/home/itssahil/PROJECTS/Mol_Feturizer/New_Systems/rnas/4LVZ

>  <Rbt.Executable>
rbdock ($Id: //depot/dev/client3/rdock/2013.1/src/exe/rbdock.cxx#4 $)

>  <Rbt.Library>
libRbt.so (2013.1, Build901 2013/11/27)

>  <Rbt.Parameter_File>
/export/apps/rDock/src/rDock_2013.1_src/data/scripts/dock_solv.prm

>  <Rbt.Receptor>
prm/blind_docking_60.prm

>  <SCORE>
-6.87672

>  <SCORE.INTER>
-6.87672

>  <SCORE.INTER.CONST>
1

>  <SCORE.INTER.POLAR>
0

>  <SCORE.INTER.ROT>
0

>  <SCORE.INTER.SOLV>
9.15436

>  <SCORE.INTER.VDW>
-11.2359

>  <SCORE.INTER.norm>
-0.625157

>  <SCORE.INTRA>
0

>  <SCORE.INTRA.DIHEDRAL>
0

>  <SCORE.INTRA.DIHEDRAL.0>
0

>  <SCORE.INTRA.POLAR>
0

>  <SCORE.INTRA.POLAR.0>
0

>  <SCORE.INTRA.REPUL>
0

>  <SCORE.INTRA.REPUL.0>
0

>  <SCORE.INTRA.SOLV>
0

>  <SCORE.INTRA.SOLV.lig_0>
-49.4056

>  <SCORE.INTRA.VDW>
0

>  <SCORE.INTRA.VDW.0>
0

>  <SCORE.INTRA.norm>
0

>  <SCORE.RESTR>
0

>  <SCORE.RESTR.CAVITY>
0

>  <SCORE.RESTR.norm>
0

>  <SCORE.SYSTEM>
0

>  <SCORE.SYSTEM.CONST>
0

>  <SCORE.SYSTEM.DIHEDRAL>
0

>  <SCORE.SYSTEM.SOLV>
0

>  <SCORE.SYSTEM.norm>
0

>  <SCORE.heavy>
11

>  <SCORE.norm>
-0.625157

>  <RMSD>
13.842

$$$$
ligand
 OpenBabel11021811503D
libRbt.so/2013.1/901 2013/11/27
 11 12  0  0  0  0  0  0  0  0999 V2000
    2.2163  -25.3015   13.7245 N   0  0  0  0  0  0  0  0  0  0  0  0
    1.7302  -24.8402   12.5457 C   0  0  0  0  0  0  0  0  0  0  0  0
    2.6127  -24.3425   11.5331 N   0  0  0  0  0  0  0  0  0  0  0  0
    0.4075  -24.8338   12.3023 N   0  0  0  0  0  0  0  0  0  0  0  0
   -0.4925  -25.2990   13.2347 C   0  0  0  0  0  0  0  0  0  0  0  0
   -0.0247  -25.7728   14.4468 C   0  0  0  0  0  0  0  0  0  0  0  0
    1.3826  -25.7633   14.6819 C   0  0  0  0  0  0  0  0  0  0  0  0
    1.9007  -26.2444   15.9261 N   0  0  0  0  0  0  0  0  0  0  0  0
   -1.1329  -26.1636   15.1742 N   0  0  0  0  0  0  0  0  0  0  0  0
   -2.2395  -25.9326   14.4395 C   0  0  0  0  0  0  0  0  0  0  0  0
   -1.8763  -25.4043   13.2538 N   0  0  0  0  0  0  0  0  0  0  0  0
  1  7  2  0  0  0  0
  1  2  1  0  0  0  0
  2  3  1  0  0  0  0
  2  4  2  0  0  0  0
  4  5  1  0  0  0  0
  5  6  2  0  0  0  0
  5 11  1  0  0  0  0
  6  7  1  0  0  0  0
  6  9  1  0  0  0  0
  7  8  1  0  0  0  0
  9 10  1  0  0  0  0
 10 11  2  0  0  0  0
M  END
>  <CHROM.1>
0.43095029,-25.43999876,13.74292266,-0.52506926,0.06927138,1.96940797

>  <Name>
ligand

>  <RI>
0

>  <Rbt.Current_Directory>
/home/itssahil/PROJECTS/Mol_Feturizer/New_Systems/rnas/4LVZ

>  <Rbt.Executable>
rbdock ($Id: //depot/dev/client3/rdock/2013.1/src/exe/rbdock.cxx#4 $)

>  <Rbt.Library>
libRbt.so (2013.1, Build901 2013/11/27)

>  <Rbt.Parameter_File>
/export/apps/rDock/src/rDock_2013.1_src/data/scripts/dock_solv.prm

>  <Rbt.Receptor>
prm/blind_docking_60.prm

>  <SCORE>
-6.85886

>  <SCORE.INTER>
-6.85886

>  <SCORE.INTER.CONST>
1

>  <SCORE.INTER.POLAR>
0

>  <SCORE.INTER.ROT>
0

>  <SCORE.INTER.SOLV>
9.86274

>  <SCORE.INTER.VDW>
-11.4601

>  <SCORE.INTER.norm>
-0.623532

>  <SCORE.INTRA>
0

>  <SCORE.INTRA.DIHEDRAL>
0

>  <SCORE.INTRA.DIHEDRAL.0>
0

>  <SCORE.INTRA.POLAR>
0

>  <SCORE.INTRA.POLAR.0>
0

>  <SCORE.INTRA.REPUL>
0

>  <SCORE.INTRA.REPUL.0>
0

>  <SCORE.INTRA.SOLV>
0

>  <SCORE.INTRA.SOLV.lig_0>
-49.4056

>  <SCORE.INTRA.VDW>
0

>  <SCORE.INTRA.VDW.0>
0

>  <SCORE.INTRA.norm>
0

>  <SCORE.RESTR>
0

>  <SCORE.RESTR.CAVITY>
0

>  <SCORE.RESTR.norm>
0

>  <SCORE.SYSTEM>
0

>  <SCORE.SYSTEM.CONST>
0

>  <SCORE.SYSTEM.DIHEDRAL>
0

>  <SCORE.SYSTEM.SOLV>
0

>  <SCORE.SYSTEM.norm>
0

>  <SCORE.heavy>
11

>  <SCORE.norm>
-0.623532

>  <RMSD>
13.850

$$$$
ligand
 OpenBabel11021811503D
libRbt.so/2013.1/901 2013/11/27
 11 12  0  0  0  0  0  0  0  0999 V2000
   -0.9755  -25.7345   12.3725 N   0  0  0  0  0  0  0  0  0  0  0  0
   -1.9387  -25.7493   13.3267 C   0  0  0  0  0  0  0  0  0  0  0  0
   -3.3231  -25.8388   12.9698 N   0  0  0  0  0  0  0  0  0  0  0  0
   -1.6168  -25.6744   14.6304 N   0  0  0  0  0  0  0  0  0  0  0  0
   -0.3046  -25.5872   15.0381 C   0  0  0  0  0  0  0  0  0  0  0  0
    0.6983  -25.5672   14.0861 C   0  0  0  0  0  0  0  0  0  0  0  0
    0.3294  -25.6422   12.7098 C   0  0  0  0  0  0  0  0  0  0  0  0
    1.3416  -25.6220   11.6984 N   0  0  0  0  0  0  0  0  0  0  0  0
    1.8943  -25.4717   14.7719 N   0  0  0  0  0  0  0  0  0  0  0  0
    1.6355  -25.4280   16.0943 C   0  0  0  0  0  0  0  0  0  0  0  0
    0.3025  -25.4952   16.2828 N   0  0  0  0  0  0  0  0  0  0  0  0
  1  7  2  0  0  0  0
  1  2  1  0  0  0  0
  2  3  1  0  0  0  0
  2  4  2  0  0  0  0
  4  5  1  0  0  0  0
  5  6  2  0  0  0  0
  5 11  1  0  0  0  0
  6  7  1  0  0  0  0
  6  9  1  0  0  0  0
  7  8  1  0  0  0  0
  9 10  1  0  0  0  0
 10 11  2  0  0  0  0
M  END
>  <CHROM.1>
-0.19603982,-25.62082546,13.98075971,-2.50754872,0.05713411,1.52998175

>  <Name>
ligand

>  <RI>
0

>  <Rbt.Current_Directory>
/home/itssahil/PROJECTS/Mol_Feturizer/New_Systems/rnas/4LVZ

>  <Rbt.Executable>
rbdock ($Id: //depot/dev/client3/rdock/2013.1/src/exe/rbdock.cxx#4 $)

>  <Rbt.Library>
libRbt.so (2013.1, Build901 2013/11/27)

>  <Rbt.Parameter_File>
/export/apps/rDock/src/rDock_2013.1_src/data/scripts/dock_solv.prm

>  <Rbt.Receptor>
prm/blind_docking_40.prm

>  <SCORE>
-9.1861

>  <SCORE.INTER>
-9.1861

>  <SCORE.INTER.CONST>
1

>  <SCORE.INTER.POLAR>
0

>  <SCORE.INTER.ROT>
0

>  <SCORE.INTER.SOLV>
6.56611

>  <SCORE.INTER.VDW>
-11.9128

>  <SCORE.INTER.norm>
-0.8351

>  <SCORE.INTRA>
0

>  <SCORE.INTRA.DIHEDRAL>
0

>  <SCORE.INTRA.DIHEDRAL.0>
0

>  <SCORE.INTRA.POLAR>
0

>  <SCORE.INTRA.POLAR.0>
0

>  <SCORE.INTRA.REPUL>
0

>  <SCORE.INTRA.REPUL.0>
0

>  <SCORE.INTRA.SOLV>
0

>  <SCORE.INTRA.SOLV.lig_0>
-49.4056

>  <SCORE.INTRA.VDW>
0

>  <SCORE.INTRA.VDW.0>
0

>  <SCORE.INTRA.norm>
0

>  <SCORE.RESTR>
0

>  <SCORE.RESTR.CAVITY>
0

>  <SCORE.RESTR.norm>
0

>  <SCORE.SYSTEM>
0

>  <SCORE.SYSTEM.CONST>
0

>  <SCORE.SYSTEM.DIHEDRAL>
0

>  <SCORE.SYSTEM.SOLV>
0

>  <SCORE.SYSTEM.norm>
0

>  <SCORE.heavy>
11

>  <SCORE.norm>
-0.8351

>  <RMSD>
13.964

$$$$
ligand
 OpenBabel11021811503D
libRbt.so/2013.1/901 2013/11/27
 11 12  0  0  0  0  0  0  0  0999 V2000
   -1.0142  -25.6962   12.2880 N   0  0  0  0  0  0  0  0  0  0  0  0
   -2.0150  -25.7012   13.2028 C   0  0  0  0  0  0  0  0  0  0  0  0
   -3.3854  -25.7601   12.7900 N   0  0  0  0  0  0  0  0  0  0  0  0
   -1.7442  -25.6451   14.5190 N   0  0  0  0  0  0  0  0  0  0  0  0
   -0.4480  -25.5874   14.9796 C   0  0  0  0  0  0  0  0  0  0  0  0
    0.5924  -25.5781   14.0687 C   0  0  0  0  0  0  0  0  0  0  0  0
    0.2777  -25.6327   12.6781 C   0  0  0  0  0  0  0  0  0  0  0  0
    1.3298  -25.6227   11.7081 N   0  0  0  0  0  0  0  0  0  0  0  0
    1.7616  -25.5126   14.8026 N   0  0  0  0  0  0  0  0  0  0  0  0
    1.4509  -25.4764   16.1140 C   0  0  0  0  0  0  0  0  0  0  0  0
    0.1103  -25.5192   16.2485 N   0  0  0  0  0  0  0  0  0  0  0  0
  1  7  2  0  0  0  0
  1  2  1  0  0  0  0
  2  3  1  0  0  0  0
  2  4  2  0  0  0  0
  4  5  1  0  0  0  0
  5  6  2  0  0  0  0
  5 11  1  0  0  0  0
  6  7  1  0  0  0  0
  6  9  1  0  0  0  0
  7  8  1  0  0  0  0
  9 10  1  0  0  0  0
 10 11  2  0  0  0  0
M  END
>  <CHROM.1>
-0.29782214,-25.61314469,13.92715275,-2.46821717,0.03626430,1.53805797

>  <Name>
ligand

>  <RI>
0

>  <Rbt.Current_Directory>
/home/itssahil/PROJECTS/Mol_Feturizer/New_Systems/rnas/4LVZ

>  <Rbt.Executable>
rbdock ($Id: //depot/dev/client3/rdock/2013.1/src/exe/rbdock.cxx#4 $)

>  <Rbt.Library>
libRbt.so (2013.1, Build901 2013/11/27)

>  <Rbt.Parameter_File>
/export/apps/rDock/src/rDock_2013.1_src/data/scripts/dock_solv.prm

>  <Rbt.Receptor>
prm/blind_docking_40.prm

>  <SCORE>
-9.28138

>  <SCORE.INTER>
-9.28138

>  <SCORE.INTER.CONST>
1

>  <SCORE.INTER.POLAR>
0

>  <SCORE.INTER.ROT>
0

>  <SCORE.INTER.SOLV>
5.87597

>  <SCORE.INTER.VDW>
-11.7462

>  <SCORE.INTER.norm>
-0.843762

>  <SCORE.INTRA>
0

>  <SCORE.INTRA.DIHEDRAL>
0

>  <SCORE.INTRA.DIHEDRAL.0>
0

>  <SCORE.INTRA.POLAR>
0

>  <SCORE.INTRA.POLAR.0>
0

>  <SCORE.INTRA.REPUL>
0

>  <SCORE.INTRA.REPUL.0>
0

>  <SCORE.INTRA.SOLV>
0

>  <SCORE.INTRA.SOLV.lig_0>
-49.4056

>  <SCORE.INTRA.VDW>
0

>  <SCORE.INTRA.VDW.0>
0

>  <SCORE.INTRA.norm>
0

>  <SCORE.RESTR>
0

>  <SCORE.RESTR.CAVITY>
0

>  <SCORE.RESTR.norm>
0

>  <SCORE.SYSTEM>
0

>  <SCORE.SYSTEM.CONST>
0

>  <SCORE.SYSTEM.DIHEDRAL>
0

>  <SCORE.SYSTEM.SOLV>
0

>  <SCORE.SYSTEM.norm>
0

>  <SCORE.heavy>
11

>  <SCORE.norm>
-0.843762

>  <RMSD>
14.021

$$$$
ligand
 OpenBabel11021811503D
libRbt.so/2013.1/901 2013/11/27
 11 12  0  0  0  0  0  0  0  0999 V2000
   -0.9963  -25.7065   12.2938 N   0  0  0  0  0  0  0  0  0  0  0  0
   -1.9921  -25.7193   13.2140 C   0  0  0  0  0  0  0  0  0  0  0  0
   -3.3645  -25.7821   12.8083 N   0  0  0  0  0  0  0  0  0  0  0  0
   -1.7145  -25.6674   14.5289 N   0  0  0  0  0  0  0  0  0  0  0  0
   -0.4161  -25.6064   14.9828 C   0  0  0  0  0  0  0  0  0  0  0  0
    0.6194  -25.5891   14.0664 C   0  0  0  0  0  0  0  0  0  0  0  0
    0.2974  -25.6393   12.6773 C   0  0  0  0  0  0  0  0  0  0  0  0
    1.3442  -25.6210   11.7017 N   0  0  0  0  0  0  0  0  0  0  0  0
    1.7922  -25.5218   14.7943 N   0  0  0  0  0  0  0  0  0  0  0  0
    1.4884  -25.4922   16.1075 C   0  0  0  0  0  0  0  0  0  0  0  0
    0.1488  -25.5410   16.2489 N   0  0  0  0  0  0  0  0  0  0  0  0
  1  7  2  0  0  0  0
  1  2  1  0  0  0  0
  2  3  1  0  0  0  0
  2  4  2  0  0  0  0
  4  5  1  0  0  0  0
  5  6  2  0  0  0  0
  5 11  1  0  0  0  0
  6  7  1  0  0  0  0
  6  9  1  0  0  0  0
  7  8  1  0  0  0  0
  9 10  1  0  0  0  0
 10 11  2  0  0  0  0
M  END
>  <CHROM.1>
-0.27145790,-25.62718362,13.92948952,-2.47346430,0.04050528,1.54235443

>  <Name>
ligand

>  <RI>
0

>  <Rbt.Current_Directory>
/home/itssahil/PROJECTS/Mol_Feturizer/New_Systems/rnas/4LVZ

>  <Rbt.Executable>
rbdock ($Id: //depot/dev/client3/rdock/2013.1/src/exe/rbdock.cxx#4 $)

>  <Rbt.Library>
libRbt.so (2013.1, Build901 2013/11/27)

>  <Rbt.Parameter_File>
/export/apps/rDock/src/rDock_2013.1_src/data/scripts/dock_solv.prm

>  <Rbt.Receptor>
prm/blind_docking_40.prm

>  <SCORE>
-9.26959

>  <SCORE.INTER>
-9.26959

>  <SCORE.INTER.CONST>
1

>  <SCORE.INTER.POLAR>
0

>  <SCORE.INTER.ROT>
0

>  <SCORE.INTER.SOLV>
5.99656

>  <SCORE.INTER.VDW>
-11.7786

>  <SCORE.INTER.norm>
-0.84269

>  <SCORE.INTRA>
0

>  <SCORE.INTRA.DIHEDRAL>
0

>  <SCORE.INTRA.DIHEDRAL.0>
0

>  <SCORE.INTRA.POLAR>
0

>  <SCORE.INTRA.POLAR.0>
0

>  <SCORE.INTRA.REPUL>
0

>  <SCORE.INTRA.REPUL.0>
0

>  <SCORE.INTRA.SOLV>
0

>  <SCORE.INTRA.SOLV.lig_0>
-49.4056

>  <SCORE.INTRA.VDW>
0

>  <SCORE.INTRA.VDW.0>
0

>  <SCORE.INTRA.norm>
0

>  <SCORE.RESTR>
0

>  <SCORE.RESTR.CAVITY>
0

>  <SCORE.RESTR.norm>
0

>  <SCORE.SYSTEM>
0

>  <SCORE.SYSTEM.CONST>
0

>  <SCORE.SYSTEM.DIHEDRAL>
0

>  <SCORE.SYSTEM.SOLV>
0

>  <SCORE.SYSTEM.norm>
0

>  <SCORE.heavy>
11

>  <SCORE.norm>
-0.84269

>  <RMSD>
14.021

$$$$
ligand
 OpenBabel11021811503D
libRbt.so/2013.1/901 2013/11/27
 11 12  0  0  0  0  0  0  0  0999 V2000
   -1.0116  -25.6940   12.2859 N   0  0  0  0  0  0  0  0  0  0  0  0
   -2.0122  -25.6981   13.2010 C   0  0  0  0  0  0  0  0  0  0  0  0
   -3.3828  -25.7553   12.7885 N   0  0  0  0  0  0  0  0  0  0  0  0
   -1.7411  -25.6424   14.5172 N   0  0  0  0  0  0  0  0  0  0  0  0
   -0.4447  -25.5863   14.9774 C   0  0  0  0  0  0  0  0  0  0  0  0
    0.5955  -25.5779   14.0663 C   0  0  0  0  0  0  0  0  0  0  0  0
    0.2804  -25.6320   12.6757 C   0  0  0  0  0  0  0  0  0  0  0  0
    1.3323  -25.6230   11.7055 N   0  0  0  0  0  0  0  0  0  0  0  0
    1.7649  -25.5139   14.7999 N   0  0  0  0  0  0  0  0  0  0  0  0
    1.4546  -25.4776   16.1114 C   0  0  0  0  0  0  0  0  0  0  0  0
    0.1140  -25.5189   16.2462 N   0  0  0  0  0  0  0  0  0  0  0  0
  1  7  2  0  0  0  0
  1  2  1  0  0  0  0
  2  3  1  0  0  0  0
  2  4  2  0  0  0  0
  4  5  1  0  0  0  0
  5  6  2  0  0  0  0
  5 11  1  0  0  0  0
  6  7  1  0  0  0  0
  6  9  1  0  0  0  0
  7  8  1  0  0  0  0
  9 10  1  0  0  0  0
 10 11  2  0  0  0  0
M  END
>  <CHROM.1>
-0.29479420,-25.61198104,13.92497103,-2.46850126,0.03516624,1.53824661

>  <Name>
ligand

>  <RI>
0

>  <Rbt.Current_Directory>
/home/itssahil/PROJECTS/Mol_Feturizer/New_Systems/rnas/4LVZ

>  <Rbt.Executable>
rbdock ($Id: //depot/dev/client3/rdock/2013.1/src/exe/rbdock.cxx#4 $)

>  <Rbt.Library>
libRbt.so (2013.1, Build901 2013/11/27)

>  <Rbt.Parameter_File>
/export/apps/rDock/src/rDock_2013.1_src/data/scripts/dock_solv.prm

>  <Rbt.Receptor>
prm/blind_docking_40.prm

>  <SCORE>
-9.28305

>  <SCORE.INTER>
-9.28305

>  <SCORE.INTER.CONST>
1

>  <SCORE.INTER.POLAR>
0

>  <SCORE.INTER.ROT>
0

>  <SCORE.INTER.SOLV>
5.85212

>  <SCORE.INTER.VDW>
-11.7394

>  <SCORE.INTER.norm>
-0.843914

>  <SCORE.INTRA>
0

>  <SCORE.INTRA.DIHEDRAL>
0

>  <SCORE.INTRA.DIHEDRAL.0>
0

>  <SCORE.INTRA.POLAR>
0

>  <SCORE.INTRA.POLAR.0>
0

>  <SCORE.INTRA.REPUL>
0

>  <SCORE.INTRA.REPUL.0>
0

>  <SCORE.INTRA.SOLV>
0

>  <SCORE.INTRA.SOLV.lig_0>
-49.4056

>  <SCORE.INTRA.VDW>
0

>  <SCORE.INTRA.VDW.0>
0

>  <SCORE.INTRA.norm>
0

>  <SCORE.RESTR>
0

>  <SCORE.RESTR.CAVITY>
0

>  <SCORE.RESTR.norm>
0

>  <SCORE.SYSTEM>
0

>  <SCORE.SYSTEM.CONST>
0

>  <SCORE.SYSTEM.DIHEDRAL>
0

>  <SCORE.SYSTEM.SOLV>
0

>  <SCORE.SYSTEM.norm>
0

>  <SCORE.heavy>
11

>  <SCORE.norm>
-0.843914

>  <RMSD>
14.022

$$$$
ligand
 OpenBabel11021811503D
libRbt.so/2013.1/901 2013/11/27
 11 12  0  0  0  0  0  0  0  0999 V2000
   -1.0171  -25.6939   12.2852 N   0  0  0  0  0  0  0  0  0  0  0  0
   -2.0199  -25.6985   13.1978 C   0  0  0  0  0  0  0  0  0  0  0  0
   -3.3894  -25.7586   12.7820 N   0  0  0  0  0  0  0  0  0  0  0  0
   -1.7522  -25.6407   14.5146 N   0  0  0  0  0  0  0  0  0  0  0  0
   -0.4571  -25.5818   14.9780 C   0  0  0  0  0  0  0  0  0  0  0  0
    0.5854  -25.5729   14.0695 C   0  0  0  0  0  0  0  0  0  0  0  0
    0.2738  -25.6293   12.6782 C   0  0  0  0  0  0  0  0  0  0  0  0
    1.3281  -25.6198   11.7106 N   0  0  0  0  0  0  0  0  0  0  0  0
    1.7529  -25.5060   14.8059 N   0  0  0  0  0  0  0  0  0  0  0  0
    1.4392  -25.4685   16.1166 C   0  0  0  0  0  0  0  0  0  0  0  0
    0.0984  -25.5119   16.2481 N   0  0  0  0  0  0  0  0  0  0  0  0
  1  7  2  0  0  0  0
  1  2  1  0  0  0  0
  2  3  1  0  0  0  0
  2  4  2  0  0  0  0
  4  5  1  0  0  0  0
  5  6  2  0  0  0  0
  5 11  1  0  0  0  0
  6  7  1  0  0  0  0
  6  9  1  0  0  0  0
  7  8  1  0  0  0  0
  9 10  1  0  0  0  0
 10 11  2  0  0  0  0
M  END
>  <CHROM.1>
-0.30447603,-25.60864671,13.92596236,-2.46594547,0.03673968,1.53687180

>  <Name>
ligand

>  <RI>
0

>  <Rbt.Current_Directory>
/home/itssahil/PROJECTS/Mol_Feturizer/New_Systems/rnas/4LVZ

>  <Rbt.Executable>
rbdock ($Id: //depot/dev/client3/rdock/2013.1/src/exe/rbdock.cxx#4 $)

>  <Rbt.Library>
libRbt.so (2013.1, Build901 2013/11/27)

>  <Rbt.Parameter_File>
/export/apps/rDock/src/rDock_2013.1_src/data/scripts/dock_solv.prm

>  <Rbt.Receptor>
prm/blind_docking_40.prm

>  <SCORE>
-9.27747

>  <SCORE.INTER>
-9.27747

>  <SCORE.INTER.CONST>
1

>  <SCORE.INTER.POLAR>
0

>  <SCORE.INTER.ROT>
0

>  <SCORE.INTER.SOLV>
5.85498

>  <SCORE.INTER.VDW>
-11.7366

>  <SCORE.INTER.norm>
-0.843407

>  <SCORE.INTRA>
0

>  <SCORE.INTRA.DIHEDRAL>
0

>  <SCORE.INTRA.DIHEDRAL.0>
0

>  <SCORE.INTRA.POLAR>
0

>  <SCORE.INTRA.POLAR.0>
0

>  <SCORE.INTRA.REPUL>
0

>  <SCORE.INTRA.REPUL.0>
0

>  <SCORE.INTRA.SOLV>
0

>  <SCORE.INTRA.SOLV.lig_0>
-49.4056

>  <SCORE.INTRA.VDW>
0

>  <SCORE.INTRA.VDW.0>
0

>  <SCORE.INTRA.norm>
0

>  <SCORE.RESTR>
0

>  <SCORE.RESTR.CAVITY>
0

>  <SCORE.RESTR.norm>
0

>  <SCORE.SYSTEM>
0

>  <SCORE.SYSTEM.CONST>
0

>  <SCORE.SYSTEM.DIHEDRAL>
0

>  <SCORE.SYSTEM.SOLV>
0

>  <SCORE.SYSTEM.norm>
0

>  <SCORE.heavy>
11

>  <SCORE.norm>
-0.843407

>  <RMSD>
14.022

$$$$
ligand
 OpenBabel11021811503D
libRbt.so/2013.1/901 2013/11/27
 11 12  0  0  0  0  0  0  0  0999 V2000
   -1.0035  -25.6987   12.2851 N   0  0  0  0  0  0  0  0  0  0  0  0
   -2.0000  -25.7070   13.2046 C   0  0  0  0  0  0  0  0  0  0  0  0
   -3.3723  -25.7651   12.7981 N   0  0  0  0  0  0  0  0  0  0  0  0
   -1.7230  -25.6547   14.5197 N   0  0  0  0  0  0  0  0  0  0  0  0
   -0.4247  -25.5979   14.9743 C   0  0  0  0  0  0  0  0  0  0  0  0
    0.6114  -25.5853   14.0585 C   0  0  0  0  0  0  0  0  0  0  0  0
    0.2901  -25.6358   12.6693 C   0  0  0  0  0  0  0  0  0  0  0  0
    1.3376  -25.6224   11.6944 N   0  0  0  0  0  0  0  0  0  0  0  0
    1.7840  -25.5216   14.7871 N   0  0  0  0  0  0  0  0  0  0  0  0
    1.4795  -25.4896   16.1001 C   0  0  0  0  0  0  0  0  0  0  0  0
    0.1396  -25.5333   16.2407 N   0  0  0  0  0  0  0  0  0  0  0  0
  1  7  2  0  0  0  0
  1  2  1  0  0  0  0
  2  3  1  0  0  0  0
  2  4  2  0  0  0  0
  4  5  1  0  0  0  0
  5  6  2  0  0  0  0
  5 11  1  0  0  0  0
  6  7  1  0  0  0  0
  6  9  1  0  0  0  0
  7  8  1  0  0  0  0
  9 10  1  0  0  0  0
 10 11  2  0  0  0  0
M  END
>  <CHROM.1>
-0.27947101,-25.62034195,13.92111192,-2.47293454,0.03682670,1.54128968

>  <Name>
ligand

>  <RI>
0

>  <Rbt.Current_Directory>
/home/itssahil/PROJECTS/Mol_Feturizer/New_Systems/rnas/4LVZ

>  <Rbt.Executable>
rbdock ($Id: //depot/dev/client3/rdock/2013.1/src/exe/rbdock.cxx#4 $)

>  <Rbt.Library>
libRbt.so (2013.1, Build901 2013/11/27)

>  <Rbt.Parameter_File>
/export/apps/rDock/src/rDock_2013.1_src/data/scripts/dock_solv.prm

>  <Rbt.Receptor>
prm/blind_docking_40.prm

>  <SCORE>
-9.28849

>  <SCORE.INTER>
-9.28849

>  <SCORE.INTER.CONST>
1

>  <SCORE.INTER.POLAR>
0

>  <SCORE.INTER.ROT>
0

>  <SCORE.INTER.SOLV>
5.89523

>  <SCORE.INTER.VDW>
-11.7574

>  <SCORE.INTER.norm>
-0.844408

>  <SCORE.INTRA>
0

>  <SCORE.INTRA.DIHEDRAL>
0

>  <SCORE.INTRA.DIHEDRAL.0>
0

>  <SCORE.INTRA.POLAR>
0

>  <SCORE.INTRA.POLAR.0>
0

>  <SCORE.INTRA.REPUL>
0

>  <SCORE.INTRA.REPUL.0>
0

>  <SCORE.INTRA.SOLV>
0

>  <SCORE.INTRA.SOLV.lig_0>
-49.4056

>  <SCORE.INTRA.VDW>
0

>  <SCORE.INTRA.VDW.0>
0

>  <SCORE.INTRA.norm>
0

>  <SCORE.RESTR>
0

>  <SCORE.RESTR.CAVITY>
0

>  <SCORE.RESTR.norm>
0

>  <SCORE.SYSTEM>
0

>  <SCORE.SYSTEM.CONST>
0

>  <SCORE.SYSTEM.DIHEDRAL>
0

>  <SCORE.SYSTEM.SOLV>
0

>  <SCORE.SYSTEM.norm>
0

>  <SCORE.heavy>
11

>  <SCORE.norm>
-0.844408

>  <RMSD>
14.026

$$$$
ligand
 OpenBabel11021811503D
libRbt.so/2013.1/901 2013/11/27
 11 12  0  0  0  0  0  0  0  0999 V2000
   -1.0052  -25.6984   12.2812 N   0  0  0  0  0  0  0  0  0  0  0  0
   -2.0033  -25.7056   13.1990 C   0  0  0  0  0  0  0  0  0  0  0  0
   -3.3749  -25.7648   12.7901 N   0  0  0  0  0  0  0  0  0  0  0  0
   -1.7287  -25.6515   14.5145 N   0  0  0  0  0  0  0  0  0  0  0  0
   -0.4312  -25.5937   14.9713 C   0  0  0  0  0  0  0  0  0  0  0  0
    0.6066  -25.5821   14.0574 C   0  0  0  0  0  0  0  0  0  0  0  0
    0.2878  -25.6346   12.6676 C   0  0  0  0  0  0  0  0  0  0  0  0
    1.3370  -25.6223   11.6946 N   0  0  0  0  0  0  0  0  0  0  0  0
    1.7778  -25.5170   14.7880 N   0  0  0  0  0  0  0  0  0  0  0  0
    1.4709  -25.4832   16.1004 C   0  0  0  0  0  0  0  0  0  0  0  0
    0.1308  -25.5272   16.2387 N   0  0  0  0  0  0  0  0  0  0  0  0
  1  7  2  0  0  0  0
  1  2  1  0  0  0  0
  2  3  1  0  0  0  0
  2  4  2  0  0  0  0
  4  5  1  0  0  0  0
  5  6  2  0  0  0  0
  5 11  1  0  0  0  0
  6  7  1  0  0  0  0
  6  9  1  0  0  0  0
  7  8  1  0  0  0  0
  9 10  1  0  0  0  0
 10 11  2  0  0  0  0
M  END
>  <CHROM.1>
-0.28406575,-25.61753816,13.91843469,-2.47112950,0.03704812,1.53983072

>  <Name>
ligand

>  <RI>
0

>  <Rbt.Current_Directory>
/home/itssahil/PROJECTS/Mol_Feturizer/New_Systems/rnas/4LVZ

>  <Rbt.Executable>
rbdock ($Id: //depot/dev/client3/rdock/2013.1/src/exe/rbdock.cxx#4 $)

>  <Rbt.Library>
libRbt.so (2013.1, Build901 2013/11/27)

>  <Rbt.Parameter_File>
/export/apps/rDock/src/rDock_2013.1_src/data/scripts/dock_solv.prm

>  <Rbt.Receptor>
prm/blind_docking_40.prm

>  <SCORE>
-9.29139

>  <SCORE.INTER>
-9.29139

>  <SCORE.INTER.CONST>
1

>  <SCORE.INTER.POLAR>
0

>  <SCORE.INTER.ROT>
0

>  <SCORE.INTER.SOLV>
5.87551

>  <SCORE.INTER.VDW>
-11.7528

>  <SCORE.INTER.norm>
-0.844672

>  <SCORE.INTRA>
0

>  <SCORE.INTRA.DIHEDRAL>
0

>  <SCORE.INTRA.DIHEDRAL.0>
0

>  <SCORE.INTRA.POLAR>
0

>  <SCORE.INTRA.POLAR.0>
0

>  <SCORE.INTRA.REPUL>
0

>  <SCORE.INTRA.REPUL.0>
0

>  <SCORE.INTRA.SOLV>
0

>  <SCORE.INTRA.SOLV.lig_0>
-49.4056

>  <SCORE.INTRA.VDW>
0

>  <SCORE.INTRA.VDW.0>
0

>  <SCORE.INTRA.norm>
0

>  <SCORE.RESTR>
0

>  <SCORE.RESTR.CAVITY>
0

>  <SCORE.RESTR.norm>
0

>  <SCORE.SYSTEM>
0

>  <SCORE.SYSTEM.CONST>
0

>  <SCORE.SYSTEM.DIHEDRAL>
0

>  <SCORE.SYSTEM.SOLV>
0

>  <SCORE.SYSTEM.norm>
0

>  <SCORE.heavy>
11

>  <SCORE.norm>
-0.844672

>  <RMSD>
14.029

$$$$
ligand
 OpenBabel11021811503D
libRbt.so/2013.1/901 2013/11/27
 11 12  0  0  0  0  0  0  0  0999 V2000
   -1.0077  -25.7008   12.2791 N   0  0  0  0  0  0  0  0  0  0  0  0
   -2.0075  -25.7077   13.1952 C   0  0  0  0  0  0  0  0  0  0  0  0
   -3.3783  -25.7693   12.7839 N   0  0  0  0  0  0  0  0  0  0  0  0
   -1.7353  -25.6508   14.5110 N   0  0  0  0  0  0  0  0  0  0  0  0
   -0.4387  -25.5905   14.9701 C   0  0  0  0  0  0  0  0  0  0  0  0
    0.6007  -25.5793   14.0580 C   0  0  0  0  0  0  0  0  0  0  0  0
    0.2844  -25.6347   12.6677 C   0  0  0  0  0  0  0  0  0  0  0  0
    1.3354  -25.6228   11.6965 N   0  0  0  0  0  0  0  0  0  0  0  0
    1.7706  -25.5114   14.7905 N   0  0  0  0  0  0  0  0  0  0  0  0
    1.4613  -25.4756   16.1023 C   0  0  0  0  0  0  0  0  0  0  0  0
    0.1210  -25.5210   16.2383 N   0  0  0  0  0  0  0  0  0  0  0  0
  1  7  2  0  0  0  0
  1  2  1  0  0  0  0
  2  3  1  0  0  0  0
  2  4  2  0  0  0  0
  4  5  1  0  0  0  0
  5  6  2  0  0  0  0
  5 11  1  0  0  0  0
  6  7  1  0  0  0  0
  6  9  1  0  0  0  0
  7  8  1  0  0  0  0
  9 10  1  0  0  0  0
 10 11  2  0  0  0  0
M  END
>  <CHROM.1>
-0.28965075,-25.61608291,13.91749381,-2.46932140,0.03826710,1.53795585

>  <Name>
ligand

>  <RI>
0

>  <Rbt.Current_Directory>
/home/itssahil/PROJECTS/Mol_Feturizer/New_Systems/rnas/4LVZ

>  <Rbt.Executable>
rbdock ($Id: //depot/dev/client3/rdock/2013.1/src/exe/rbdock.cxx#4 $)

>  <Rbt.Library>
libRbt.so (2013.1, Build901 2013/11/27)

>  <Rbt.Parameter_File>
/export/apps/rDock/src/rDock_2013.1_src/data/scripts/dock_solv.prm

>  <Rbt.Receptor>
prm/blind_docking_40.prm

>  <SCORE>
-9.29146

>  <SCORE.INTER>
-9.29146

>  <SCORE.INTER.CONST>
1

>  <SCORE.INTER.POLAR>
0

>  <SCORE.INTER.ROT>
0

>  <SCORE.INTER.SOLV>
5.881

>  <SCORE.INTER.VDW>
-11.7546

>  <SCORE.INTER.norm>
-0.844678

>  <SCORE.INTRA>
0

>  <SCORE.INTRA.DIHEDRAL>
0

>  <SCORE.INTRA.DIHEDRAL.0>
0

>  <SCORE.INTRA.POLAR>
0

>  <SCORE.INTRA.POLAR.0>
0

>  <SCORE.INTRA.REPUL>
0

>  <SCORE.INTRA.REPUL.0>
0

>  <SCORE.INTRA.SOLV>
0

>  <SCORE.INTRA.SOLV.lig_0>
-49.4056

>  <SCORE.INTRA.VDW>
0

>  <SCORE.INTRA.VDW.0>
0

>  <SCORE.INTRA.norm>
0

>  <SCORE.RESTR>
0

>  <SCORE.RESTR.CAVITY>
0

>  <SCORE.RESTR.norm>
0

>  <SCORE.SYSTEM>
0

>  <SCORE.SYSTEM.CONST>
0

>  <SCORE.SYSTEM.DIHEDRAL>
0

>  <SCORE.SYSTEM.SOLV>
0

>  <SCORE.SYSTEM.norm>
0

>  <SCORE.heavy>
11

>  <SCORE.norm>
-0.844678

>  <RMSD>
14.030

$$$$
ligand
 OpenBabel11021811503D
libRbt.so/2013.1/901 2013/11/27
 11 12  0  0  0  0  0  0  0  0999 V2000
    0.6580  -24.6895   11.5807 N   0  0  0  0  0  0  0  0  0  0  0  0
    1.9103  -24.8719   12.0676 C   0  0  0  0  0  0  0  0  0  0  0  0
    3.0593  -24.5913   11.2595 N   0  0  0  0  0  0  0  0  0  0  0  0
    2.1025  -25.3262   13.3188 N   0  0  0  0  0  0  0  0  0  0  0  0
    1.0396  -25.6137   14.1453 C   0  0  0  0  0  0  0  0  0  0  0  0
   -0.2487  -25.4396   13.6738 C   0  0  0  0  0  0  0  0  0  0  0  0
   -0.4250  -24.9619   12.3409 C   0  0  0  0  0  0  0  0  0  0  0  0
   -1.7444  -24.7723   11.8202 N   0  0  0  0  0  0  0  0  0  0  0  0
   -1.0994  -25.8038   14.7003 N   0  0  0  0  0  0  0  0  0  0  0  0
   -0.3617  -26.1930   15.7596 C   0  0  0  0  0  0  0  0  0  0  0  0
    0.9451  -26.0880   15.4463 N   0  0  0  0  0  0  0  0  0  0  0  0
  1  7  2  0  0  0  0
  1  2  1  0  0  0  0
  2  3  1  0  0  0  0
  2  4  2  0  0  0  0
  4  5  1  0  0  0  0
  5  6  2  0  0  0  0
  5 11  1  0  0  0  0
  6  7  1  0  0  0  0
  6  9  1  0  0  0  0
  7  8  1  0  0  0  0
  9 10  1  0  0  0  0
 10 11  2  0  0  0  0
M  END
>  <CHROM.1>
0.54073287,-25.29694731,13.26122451,1.01973585,0.00439363,-1.22556617

>  <Name>
ligand

>  <RI>
0

>  <Rbt.Current_Directory>
/home/itssahil/PROJECTS/Mol_Feturizer/New_Systems/rnas/4LVZ

>  <Rbt.Executable>
rbdock ($Id: //depot/dev/client3/rdock/2013.1/src/exe/rbdock.cxx#4 $)

>  <Rbt.Library>
libRbt.so (2013.1, Build901 2013/11/27)

>  <Rbt.Parameter_File>
/export/apps/rDock/src/rDock_2013.1_src/data/scripts/dock_solv.prm

>  <Rbt.Receptor>
prm/blind_docking_40.prm

>  <SCORE>
-6.41972

>  <SCORE.INTER>
-6.41972

>  <SCORE.INTER.CONST>
1

>  <SCORE.INTER.POLAR>
0

>  <SCORE.INTER.ROT>
0

>  <SCORE.INTER.SOLV>
6.69803

>  <SCORE.INTER.VDW>
-10.1125

>  <SCORE.INTER.norm>
-0.583611

>  <SCORE.INTRA>
0

>  <SCORE.INTRA.DIHEDRAL>
0

>  <SCORE.INTRA.DIHEDRAL.0>
0

>  <SCORE.INTRA.POLAR>
0

>  <SCORE.INTRA.POLAR.0>
0

>  <SCORE.INTRA.REPUL>
0

>  <SCORE.INTRA.REPUL.0>
0

>  <SCORE.INTRA.SOLV>
0

>  <SCORE.INTRA.SOLV.lig_0>
-49.4056

>  <SCORE.INTRA.VDW>
0

>  <SCORE.INTRA.VDW.0>
0

>  <SCORE.INTRA.norm>
0

>  <SCORE.RESTR>
0

>  <SCORE.RESTR.CAVITY>
0

>  <SCORE.RESTR.norm>
0

>  <SCORE.SYSTEM>
0

>  <SCORE.SYSTEM.CONST>
0

>  <SCORE.SYSTEM.DIHEDRAL>
0

>  <SCORE.SYSTEM.SOLV>
0

>  <SCORE.SYSTEM.norm>
0

>  <SCORE.heavy>
11

>  <SCORE.norm>
-0.583611

>  <RMSD>
14.214

$$$$
ligand
 OpenBabel11021811503D
libRbt.so/2013.1/901 2013/11/27
 11 12  0  0  0  0  0  0  0  0999 V2000
    0.6172  -24.7091   11.5792 N   0  0  0  0  0  0  0  0  0  0  0  0
    1.8786  -24.8656   12.0514 C   0  0  0  0  0  0  0  0  0  0  0  0
    3.0121  -24.5753   11.2251 N   0  0  0  0  0  0  0  0  0  0  0  0
    2.0947  -25.3028   13.3048 N   0  0  0  0  0  0  0  0  0  0  0  0
    1.0476  -25.5984   14.1485 C   0  0  0  0  0  0  0  0  0  0  0  0
   -0.2495  -25.4506   13.6924 C   0  0  0  0  0  0  0  0  0  0  0  0
   -0.4511  -24.9907   12.3568 C   0  0  0  0  0  0  0  0  0  0  0  0
   -1.7802  -24.8284   11.8517 N   0  0  0  0  0  0  0  0  0  0  0  0
   -1.0805  -25.8171   14.7340 N   0  0  0  0  0  0  0  0  0  0  0  0
   -0.3227  -26.1824   15.7875 C   0  0  0  0  0  0  0  0  0  0  0  0
    0.9780  -26.0596   15.4558 N   0  0  0  0  0  0  0  0  0  0  0  0
  1  7  2  0  0  0  0
  1  2  1  0  0  0  0
  2  3  1  0  0  0  0
  2  4  2  0  0  0  0
  4  5  1  0  0  0  0
  5  6  2  0  0  0  0
  5 11  1  0  0  0  0
  6  7  1  0  0  0  0
  6  9  1  0  0  0  0
  7  8  1  0  0  0  0
  9 10  1  0  0  0  0
 10 11  2  0  0  0  0
M  END
>  <CHROM.1>
0.53202247,-25.29965061,13.26774986,1.03766840,-0.00665133,-1.23656499

>  <Name>
ligand

>  <RI>
0

>  <Rbt.Current_Directory>
/home/itssahil/PROJECTS/Mol_Feturizer/New_Systems/rnas/4LVZ

>  <Rbt.Executable>
rbdock ($Id: //depot/dev/client3/rdock/2013.1/src/exe/rbdock.cxx#4 $)

>  <Rbt.Library>
libRbt.so (2013.1, Build901 2013/11/27)

>  <Rbt.Parameter_File>
/export/apps/rDock/src/rDock_2013.1_src/data/scripts/dock_solv.prm

>  <Rbt.Receptor>
prm/blind_docking_40.prm

>  <SCORE>
-6.47767

>  <SCORE.INTER>
-6.47767

>  <SCORE.INTER.CONST>
1

>  <SCORE.INTER.POLAR>
0

>  <SCORE.INTER.ROT>
0

>  <SCORE.INTER.SOLV>
6.68661

>  <SCORE.INTER.VDW>
-10.1473

>  <SCORE.INTER.norm>
-0.588879

>  <SCORE.INTRA>
0

>  <SCORE.INTRA.DIHEDRAL>
0

>  <SCORE.INTRA.DIHEDRAL.0>
0

>  <SCORE.INTRA.POLAR>
0

>  <SCORE.INTRA.POLAR.0>
0

>  <SCORE.INTRA.REPUL>
0

>  <SCORE.INTRA.REPUL.0>
0

>  <SCORE.INTRA.SOLV>
0

>  <SCORE.INTRA.SOLV.lig_0>
-49.4056

>  <SCORE.INTRA.VDW>
0

>  <SCORE.INTRA.VDW.0>
0

>  <SCORE.INTRA.norm>
0

>  <SCORE.RESTR>
0

>  <SCORE.RESTR.CAVITY>
0

>  <SCORE.RESTR.norm>
0

>  <SCORE.SYSTEM>
0

>  <SCORE.SYSTEM.CONST>
0

>  <SCORE.SYSTEM.DIHEDRAL>
0

>  <SCORE.SYSTEM.SOLV>
0

>  <SCORE.SYSTEM.norm>
0

>  <SCORE.heavy>
11

>  <SCORE.norm>
-0.588879

>  <RMSD>
14.214

$$$$
ligand
 OpenBabel11021811503D
libRbt.so/2013.1/901 2013/11/27
 11 12  0  0  0  0  0  0  0  0999 V2000
   -1.8672  -25.4662   12.2494 N   0  0  0  0  0  0  0  0  0  0  0  0
   -2.7391  -25.6662   13.2684 C   0  0  0  0  0  0  0  0  0  0  0  0
   -4.1499  -25.7205   13.0262 N   0  0  0  0  0  0  0  0  0  0  0  0
   -2.2997  -25.8122   14.5311 N   0  0  0  0  0  0  0  0  0  0  0  0
   -0.9562  -25.7702   14.8291 C   0  0  0  0  0  0  0  0  0  0  0  0
   -0.0446  -25.5648   13.8097 C   0  0  0  0  0  0  0  0  0  0  0  0
   -0.5374  -25.4072   12.4800 C   0  0  0  0  0  0  0  0  0  0  0  0
    0.3780  -25.1910   11.4014 N   0  0  0  0  0  0  0  0  0  0  0  0
    1.2086  -25.5655   14.3922 N   0  0  0  0  0  0  0  0  0  0  0  0
    1.0716  -25.7574   15.7196 C   0  0  0  0  0  0  0  0  0  0  0  0
   -0.2383  -25.8834   16.0116 N   0  0  0  0  0  0  0  0  0  0  0  0
  1  7  2  0  0  0  0
  1  2  1  0  0  0  0
  2  3  1  0  0  0  0
  2  4  2  0  0  0  0
  4  5  1  0  0  0  0
  5  6  2  0  0  0  0
  5 11  1  0  0  0  0
  6  7  1  0  0  0  0
  6  9  1  0  0  0  0
  7  8  1  0  0  0  0
  9 10  1  0  0  0  0
 10 11  2  0  0  0  0
M  END
>  <CHROM.1>
-0.94458837,-25.61759295,13.77677130,-2.59899299,0.06516757,1.71104672

>  <Name>
ligand

>  <RI>
0

>  <Rbt.Current_Directory>
/home/itssahil/PROJECTS/Mol_Feturizer/New_Systems/rnas/4LVZ

>  <Rbt.Executable>
rbdock ($Id: //depot/dev/client3/rdock/2013.1/src/exe/rbdock.cxx#4 $)

>  <Rbt.Library>
libRbt.so (2013.1, Build901 2013/11/27)

>  <Rbt.Parameter_File>
/export/apps/rDock/src/rDock_2013.1_src/data/scripts/dock_solv.prm

>  <Rbt.Receptor>
prm/blind_docking_40.prm

>  <SCORE>
-9.78559

>  <SCORE.INTER>
-9.78559

>  <SCORE.INTER.CONST>
1

>  <SCORE.INTER.POLAR>
0

>  <SCORE.INTER.ROT>
0

>  <SCORE.INTER.SOLV>
4.84304

>  <SCORE.INTER.VDW>
-11.7381

>  <SCORE.INTER.norm>
-0.889599

>  <SCORE.INTRA>
0

>  <SCORE.INTRA.DIHEDRAL>
0

>  <SCORE.INTRA.DIHEDRAL.0>
0

>  <SCORE.INTRA.POLAR>
0

>  <SCORE.INTRA.POLAR.0>
0

>  <SCORE.INTRA.REPUL>
0

>  <SCORE.INTRA.REPUL.0>
0

>  <SCORE.INTRA.SOLV>
0

>  <SCORE.INTRA.SOLV.lig_0>
-49.4056

>  <SCORE.INTRA.VDW>
0

>  <SCORE.INTRA.VDW.0>
0

>  <SCORE.INTRA.norm>
0

>  <SCORE.RESTR>
0

>  <SCORE.RESTR.CAVITY>
0

>  <SCORE.RESTR.norm>
0

>  <SCORE.SYSTEM>
0

>  <SCORE.SYSTEM.CONST>
0

>  <SCORE.SYSTEM.DIHEDRAL>
0

>  <SCORE.SYSTEM.SOLV>
0

>  <SCORE.SYSTEM.norm>
0

>  <SCORE.heavy>
11

>  <SCORE.norm>
-0.889599

>  <RMSD>
14.286

$$$$
ligand
 OpenBabel11021811503D
libRbt.so/2013.1/901 2013/11/27
 11 12  0  0  0  0  0  0  0  0999 V2000
   -2.1705  -25.3070   12.3152 N   0  0  0  0  0  0  0  0  0  0  0  0
   -3.0147  -25.6892   13.3051 C   0  0  0  0  0  0  0  0  0  0  0  0
   -4.4270  -25.7623   13.0767 N   0  0  0  0  0  0  0  0  0  0  0  0
   -2.5461  -26.0029   14.5261 N   0  0  0  0  0  0  0  0  0  0  0  0
   -1.1995  -25.9529   14.8086 C   0  0  0  0  0  0  0  0  0  0  0  0
   -0.3158  -25.5638   13.8187 C   0  0  0  0  0  0  0  0  0  0  0  0
   -0.8395  -25.2308   12.5339 C   0  0  0  0  0  0  0  0  0  0  0  0
    0.0464  -24.8221   11.4870 N   0  0  0  0  0  0  0  0  0  0  0  0
    0.9476  -25.6014   14.3775 N   0  0  0  0  0  0  0  0  0  0  0  0
    0.8432  -25.9925   15.6635 C   0  0  0  0  0  0  0  0  0  0  0  0
   -0.4553  -26.2113   15.9514 N   0  0  0  0  0  0  0  0  0  0  0  0
  1  7  2  0  0  0  0
  1  2  1  0  0  0  0
  2  3  1  0  0  0  0
  2  4  2  0  0  0  0
  4  5  1  0  0  0  0
  5  6  2  0  0  0  0
  5 11  1  0  0  0  0
  6  7  1  0  0  0  0
  6  9  1  0  0  0  0
  7  8  1  0  0  0  0
  9 10  1  0  0  0  0
 10 11  2  0  0  0  0
M  END
>  <CHROM.1>
-1.21372685,-25.64619038,13.79053510,-2.62329307,0.09873744,1.86165135

>  <Name>
ligand

>  <RI>
0

>  <Rbt.Current_Directory>
/home/itssahil/PROJECTS/Mol_Feturizer/New_Systems/rnas/4LVZ

>  <Rbt.Executable>
rbdock ($Id: //depot/dev/client3/rdock/2013.1/src/exe/rbdock.cxx#4 $)

>  <Rbt.Library>
libRbt.so (2013.1, Build901 2013/11/27)

>  <Rbt.Parameter_File>
/export/apps/rDock/src/rDock_2013.1_src/data/scripts/dock_solv.prm

>  <Rbt.Receptor>
prm/blind_docking_40.prm

>  <SCORE>
-9.78223

>  <SCORE.INTER>
-9.78223

>  <SCORE.INTER.CONST>
1

>  <SCORE.INTER.POLAR>
0

>  <SCORE.INTER.ROT>
0

>  <SCORE.INTER.SOLV>
5.26977

>  <SCORE.INTER.VDW>
-11.8781

>  <SCORE.INTER.norm>
-0.889293

>  <SCORE.INTRA>
0

>  <SCORE.INTRA.DIHEDRAL>
0

>  <SCORE.INTRA.DIHEDRAL.0>
0

>  <SCORE.INTRA.POLAR>
0

>  <SCORE.INTRA.POLAR.0>
0

>  <SCORE.INTRA.REPUL>
0

>  <SCORE.INTRA.REPUL.0>
0

>  <SCORE.INTRA.SOLV>
0

>  <SCORE.INTRA.SOLV.lig_0>
-49.4056

>  <SCORE.INTRA.VDW>
0

>  <SCORE.INTRA.VDW.0>
0

>  <SCORE.INTRA.norm>
0

>  <SCORE.RESTR>
0

>  <SCORE.RESTR.CAVITY>
0

>  <SCORE.RESTR.norm>
0

>  <SCORE.SYSTEM>
0

>  <SCORE.SYSTEM.CONST>
0

>  <SCORE.SYSTEM.DIHEDRAL>
0

>  <SCORE.SYSTEM.SOLV>
0

>  <SCORE.SYSTEM.norm>
0

>  <SCORE.heavy>
11

>  <SCORE.norm>
-0.889293

>  <RMSD>
14.350

$$$$
ligand
 OpenBabel11021811503D
libRbt.so/2013.1/901 2013/11/27
 11 12  0  0  0  0  0  0  0  0999 V2000
   -2.4260  -25.3817   12.3183 N   0  0  0  0  0  0  0  0  0  0  0  0
   -3.1994  -25.8016   13.3499 C   0  0  0  0  0  0  0  0  0  0  0  0
   -4.6164  -25.9422   13.1941 N   0  0  0  0  0  0  0  0  0  0  0  0
   -2.6546  -26.0901   14.5452 N   0  0  0  0  0  0  0  0  0  0  0  0
   -1.2992  -25.9757   14.7586 C   0  0  0  0  0  0  0  0  0  0  0  0
   -0.4868  -25.5470   13.7248 C   0  0  0  0  0  0  0  0  0  0  0  0
   -1.0907  -25.2419   12.4686 C   0  0  0  0  0  0  0  0  0  0  0  0
   -0.2799  -24.7937   11.3780 N   0  0  0  0  0  0  0  0  0  0  0  0
    0.8039  -25.5234   14.2183 N   0  0  0  0  0  0  0  0  0  0  0  0
    0.7841  -25.9164   15.5078 C   0  0  0  0  0  0  0  0  0  0  0  0
   -0.4861  -26.1961   15.8616 N   0  0  0  0  0  0  0  0  0  0  0  0
  1  7  2  0  0  0  0
  1  2  1  0  0  0  0
  2  3  1  0  0  0  0
  2  4  2  0  0  0  0
  4  5  1  0  0  0  0
  5  6  2  0  0  0  0
  5 11  1  0  0  0  0
  6  7  1  0  0  0  0
  6  9  1  0  0  0  0
  7  8  1  0  0  0  0
  9 10  1  0  0  0  0
 10 11  2  0  0  0  0
M  END
>  <CHROM.1>
-1.38002479,-25.67204318,13.74263518,-2.68646010,0.12945370,1.86803348

>  <Name>
ligand

>  <RI>
0

>  <Rbt.Current_Directory>
/home/itssahil/PROJECTS/Mol_Feturizer/New_Systems/rnas/4LVZ

>  <Rbt.Executable>
rbdock ($Id: //depot/dev/client3/rdock/2013.1/src/exe/rbdock.cxx#4 $)

>  <Rbt.Library>
libRbt.so (2013.1, Build901 2013/11/27)

>  <Rbt.Parameter_File>
/export/apps/rDock/src/rDock_2013.1_src/data/scripts/dock_solv.prm

>  <Rbt.Receptor>
prm/blind_docking_40.prm

>  <SCORE>
-9.96779

>  <SCORE.INTER>
-9.96779

>  <SCORE.INTER.CONST>
1

>  <SCORE.INTER.POLAR>
0

>  <SCORE.INTER.ROT>
0

>  <SCORE.INTER.SOLV>
5.46192

>  <SCORE.INTER.VDW>
-12.0658

>  <SCORE.INTER.norm>
-0.906163

>  <SCORE.INTRA>
0

>  <SCORE.INTRA.DIHEDRAL>
0

>  <SCORE.INTRA.DIHEDRAL.0>
0

>  <SCORE.INTRA.POLAR>
0

>  <SCORE.INTRA.POLAR.0>
0

>  <SCORE.INTRA.REPUL>
0

>  <SCORE.INTRA.REPUL.0>
0

>  <SCORE.INTRA.SOLV>
0

>  <SCORE.INTRA.SOLV.lig_0>
-49.4056

>  <SCORE.INTRA.VDW>
0

>  <SCORE.INTRA.VDW.0>
0

>  <SCORE.INTRA.norm>
0

>  <SCORE.RESTR>
0

>  <SCORE.RESTR.CAVITY>
0

>  <SCORE.RESTR.norm>
0

>  <SCORE.SYSTEM>
0

>  <SCORE.SYSTEM.CONST>
0

>  <SCORE.SYSTEM.DIHEDRAL>
0

>  <SCORE.SYSTEM.SOLV>
0

>  <SCORE.SYSTEM.norm>
0

>  <SCORE.heavy>
11

>  <SCORE.norm>
-0.906163

>  <RMSD>
14.446

$$$$
ligand
 OpenBabel11021811503D
libRbt.so/2013.1/901 2013/11/27
 11 12  0  0  0  0  0  0  0  0999 V2000
   -2.4343  -25.3834   12.3109 N   0  0  0  0  0  0  0  0  0  0  0  0
   -3.2093  -25.8121   13.3377 C   0  0  0  0  0  0  0  0  0  0  0  0
   -4.6263  -25.9492   13.1791 N   0  0  0  0  0  0  0  0  0  0  0  0
   -2.6660  -26.1128   14.5306 N   0  0  0  0  0  0  0  0  0  0  0  0
   -1.3107  -26.0023   14.7463 C   0  0  0  0  0  0  0  0  0  0  0  0
   -0.4967  -25.5648   13.7175 C   0  0  0  0  0  0  0  0  0  0  0  0
   -1.0990  -25.2469   12.4637 C   0  0  0  0  0  0  0  0  0  0  0  0
   -0.2866  -24.7893   11.3782 N   0  0  0  0  0  0  0  0  0  0  0  0
    0.7935  -25.5477   14.2124 N   0  0  0  0  0  0  0  0  0  0  0  0
    0.7720  -25.9530   15.4981 C   0  0  0  0  0  0  0  0  0  0  0  0
   -0.4989  -26.2344   15.8480 N   0  0  0  0  0  0  0  0  0  0  0  0
  1  7  2  0  0  0  0
  1  2  1  0  0  0  0
  2  3  1  0  0  0  0
  2  4  2  0  0  0  0
  4  5  1  0  0  0  0
  5  6  2  0  0  0  0
  5 11  1  0  0  0  0
  6  7  1  0  0  0  0
  6  9  1  0  0  0  0
  7  8  1  0  0  0  0
  9 10  1  0  0  0  0
 10 11  2  0  0  0  0
M  END
>  <CHROM.1>
-1.39011682,-25.68877657,13.73329959,-2.68514740,0.12843220,1.87745682

>  <Name>
ligand

>  <RI>
0

>  <Rbt.Current_Directory>
/home/itssahil/PROJECTS/Mol_Feturizer/New_Systems/rnas/4LVZ

>  <Rbt.Executable>
rbdock ($Id: //depot/dev/client3/rdock/2013.1/src/exe/rbdock.cxx#4 $)

>  <Rbt.Library>
libRbt.so (2013.1, Build901 2013/11/27)

>  <Rbt.Parameter_File>
/export/apps/rDock/src/rDock_2013.1_src/data/scripts/dock_solv.prm

>  <Rbt.Receptor>
prm/blind_docking_40.prm

>  <SCORE>
-9.99911

>  <SCORE.INTER>
-9.99911

>  <SCORE.INTER.CONST>
1

>  <SCORE.INTER.POLAR>
0

>  <SCORE.INTER.ROT>
0

>  <SCORE.INTER.SOLV>
5.42693

>  <SCORE.INTER.VDW>
-12.0751

>  <SCORE.INTER.norm>
-0.90901

>  <SCORE.INTRA>
0

>  <SCORE.INTRA.DIHEDRAL>
0

>  <SCORE.INTRA.DIHEDRAL.0>
0

>  <SCORE.INTRA.POLAR>
0

>  <SCORE.INTRA.POLAR.0>
0

>  <SCORE.INTRA.REPUL>
0

>  <SCORE.INTRA.REPUL.0>
0

>  <SCORE.INTRA.SOLV>
0

>  <SCORE.INTRA.SOLV.lig_0>
-49.4056

>  <SCORE.INTRA.VDW>
0

>  <SCORE.INTRA.VDW.0>
0

>  <SCORE.INTRA.norm>
0

>  <SCORE.RESTR>
0

>  <SCORE.RESTR.CAVITY>
0

>  <SCORE.RESTR.norm>
0

>  <SCORE.SYSTEM>
0

>  <SCORE.SYSTEM.CONST>
0

>  <SCORE.SYSTEM.DIHEDRAL>
0

>  <SCORE.SYSTEM.SOLV>
0

>  <SCORE.SYSTEM.norm>
0

>  <SCORE.heavy>
11

>  <SCORE.norm>
-0.90901

>  <RMSD>
14.463

$$$$
ligand
 OpenBabel11021811503D
libRbt.so/2013.1/901 2013/11/27
 11 12  0  0  0  0  0  0  0  0999 V2000
   -2.4348  -25.3820   12.3104 N   0  0  0  0  0  0  0  0  0  0  0  0
   -3.2090  -25.8121   13.3372 C   0  0  0  0  0  0  0  0  0  0  0  0
   -4.6259  -25.9508   13.1789 N   0  0  0  0  0  0  0  0  0  0  0  0
   -2.6650  -26.1129   14.5298 N   0  0  0  0  0  0  0  0  0  0  0  0
   -1.3098  -26.0009   14.7453 C   0  0  0  0  0  0  0  0  0  0  0  0
   -0.4966  -25.5619   13.7165 C   0  0  0  0  0  0  0  0  0  0  0  0
   -1.0996  -25.2440   12.4630 C   0  0  0  0  0  0  0  0  0  0  0  0
   -0.2879  -24.7850   11.3775 N   0  0  0  0  0  0  0  0  0  0  0  0
    0.7937  -25.5437   14.2111 N   0  0  0  0  0  0  0  0  0  0  0  0
    0.7730  -25.9496   15.4965 C   0  0  0  0  0  0  0  0  0  0  0  0
   -0.4975  -26.2327   15.8466 N   0  0  0  0  0  0  0  0  0  0  0  0
  1  7  2  0  0  0  0
  1  2  1  0  0  0  0
  2  3  1  0  0  0  0
  2  4  2  0  0  0  0
  4  5  1  0  0  0  0
  5  6  2  0  0  0  0
  5 11  1  0  0  0  0
  6  7  1  0  0  0  0
  6  9  1  0  0  0  0
  7  8  1  0  0  0  0
  9 10  1  0  0  0  0
 10 11  2  0  0  0  0
M  END
>  <CHROM.1>
-1.38984982,-25.68695451,13.73242426,-2.68573449,0.12944655,1.87806699

>  <Name>
ligand

>  <RI>
0

>  <Rbt.Current_Directory>
/home/itssahil/PROJECTS/Mol_Feturizer/New_Systems/rnas/4LVZ

>  <Rbt.Executable>
rbdock ($Id: //depot/dev/client3/rdock/2013.1/src/exe/rbdock.cxx#4 $)

>  <Rbt.Library>
libRbt.so (2013.1, Build901 2013/11/27)

>  <Rbt.Parameter_File>
/export/apps/rDock/src/rDock_2013.1_src/data/scripts/dock_solv.prm

>  <Rbt.Receptor>
prm/blind_docking_40.prm

>  <SCORE>
-10.0021

>  <SCORE.INTER>
-10.0022

>  <SCORE.INTER.CONST>
1

>  <SCORE.INTER.POLAR>
0

>  <SCORE.INTER.ROT>
0

>  <SCORE.INTER.SOLV>
5.43316

>  <SCORE.INTER.VDW>
-12.0792

>  <SCORE.INTER.norm>
-0.909295

>  <SCORE.INTRA>
0

>  <SCORE.INTRA.DIHEDRAL>
0

>  <SCORE.INTRA.DIHEDRAL.0>
0

>  <SCORE.INTRA.POLAR>
0

>  <SCORE.INTRA.POLAR.0>
0

>  <SCORE.INTRA.REPUL>
0

>  <SCORE.INTRA.REPUL.0>
0

>  <SCORE.INTRA.SOLV>
0

>  <SCORE.INTRA.SOLV.lig_0>
-49.4056

>  <SCORE.INTRA.VDW>
0

>  <SCORE.INTRA.VDW.0>
0

>  <SCORE.INTRA.norm>
0

>  <SCORE.RESTR>
0.000142014

>  <SCORE.RESTR.CAVITY>
0.000142014

>  <SCORE.RESTR.norm>
1.29104e-05

>  <SCORE.SYSTEM>
0

>  <SCORE.SYSTEM.CONST>
0

>  <SCORE.SYSTEM.DIHEDRAL>
0

>  <SCORE.SYSTEM.SOLV>
0

>  <SCORE.SYSTEM.norm>
0

>  <SCORE.heavy>
11

>  <SCORE.norm>
-0.909282

>  <RMSD>
14.463

$$$$
ligand
 OpenBabel11021811503D
libRbt.so/2013.1/901 2013/11/27
 11 12  0  0  0  0  0  0  0  0999 V2000
   -2.4199  -25.3935   12.2987 N   0  0  0  0  0  0  0  0  0  0  0  0
   -3.2030  -25.8132   13.3230 C   0  0  0  0  0  0  0  0  0  0  0  0
   -4.6191  -25.9492   13.1552 N   0  0  0  0  0  0  0  0  0  0  0  0
   -2.6689  -26.1059   14.5221 N   0  0  0  0  0  0  0  0  0  0  0  0
   -1.3150  -25.9959   14.7468 C   0  0  0  0  0  0  0  0  0  0  0  0
   -0.4929  -25.5675   13.7207 C   0  0  0  0  0  0  0  0  0  0  0  0
   -1.0855  -25.2580   12.4602 C   0  0  0  0  0  0  0  0  0  0  0  0
   -0.2645  -24.8100   11.3772 N   0  0  0  0  0  0  0  0  0  0  0  0
    0.7938  -25.5489   14.2248 N   0  0  0  0  0  0  0  0  0  0  0  0
    0.7623  -25.9444   15.5133 C   0  0  0  0  0  0  0  0  0  0  0  0
   -0.5117  -26.2211   15.8560 N   0  0  0  0  0  0  0  0  0  0  0  0
  1  7  2  0  0  0  0
  1  2  1  0  0  0  0
  2  3  1  0  0  0  0
  2  4  2  0  0  0  0
  4  5  1  0  0  0  0
  5  6  2  0  0  0  0
  5 11  1  0  0  0  0
  6  7  1  0  0  0  0
  6  9  1  0  0  0  0
  7  8  1  0  0  0  0
  9 10  1  0  0  0  0
 10 11  2  0  0  0  0
M  END
>  <CHROM.1>
-1.38657661,-25.68992375,13.73088899,-2.67766228,0.12899528,1.86899321

>  <Name>
ligand

>  <RI>
0

>  <Rbt.Current_Directory>
/home/itssahil/PROJECTS/Mol_Feturizer/New_Systems/rnas/4LVZ

>  <Rbt.Executable>
rbdock ($Id: //depot/dev/client3/rdock/2013.1/src/exe/rbdock.cxx#4 $)

>  <Rbt.Library>
libRbt.so (2013.1, Build901 2013/11/27)

>  <Rbt.Parameter_File>
/export/apps/rDock/src/rDock_2013.1_src/data/scripts/dock_solv.prm

>  <Rbt.Receptor>
prm/blind_docking_40.prm

>  <SCORE>
-9.99929

>  <SCORE.INTER>
-10.0001

>  <SCORE.INTER.CONST>
1

>  <SCORE.INTER.POLAR>
0

>  <SCORE.INTER.ROT>
0

>  <SCORE.INTER.SOLV>
5.32434

>  <SCORE.INTER.VDW>
-12.0415

>  <SCORE.INTER.norm>
-0.909103

>  <SCORE.INTRA>
0

>  <SCORE.INTRA.DIHEDRAL>
0

>  <SCORE.INTRA.DIHEDRAL.0>
0

>  <SCORE.INTRA.POLAR>
0

>  <SCORE.INTRA.POLAR.0>
0

>  <SCORE.INTRA.REPUL>
0

>  <SCORE.INTRA.REPUL.0>
0

>  <SCORE.INTRA.SOLV>
0

>  <SCORE.INTRA.SOLV.lig_0>
-49.4056

>  <SCORE.INTRA.VDW>
0

>  <SCORE.INTRA.VDW.0>
0

>  <SCORE.INTRA.norm>
0

>  <SCORE.RESTR>
0.000841314

>  <SCORE.RESTR.CAVITY>
0.000841314

>  <SCORE.RESTR.norm>
7.64831e-05

>  <SCORE.SYSTEM>
0

>  <SCORE.SYSTEM.CONST>
0

>  <SCORE.SYSTEM.DIHEDRAL>
0

>  <SCORE.SYSTEM.SOLV>
0

>  <SCORE.SYSTEM.norm>
0

>  <SCORE.heavy>
11

>  <SCORE.norm>
-0.909027

>  <RMSD>
14.464

$$$$
ligand
 OpenBabel11021811503D
libRbt.so/2013.1/901 2013/11/27
 11 12  0  0  0  0  0  0  0  0999 V2000
   -2.4265  -25.3890   12.2975 N   0  0  0  0  0  0  0  0  0  0  0  0
   -3.2064  -25.8197   13.3196 C   0  0  0  0  0  0  0  0  0  0  0  0
   -4.6221  -25.9608   13.1525 N   0  0  0  0  0  0  0  0  0  0  0  0
   -2.6696  -26.1188   14.5159 N   0  0  0  0  0  0  0  0  0  0  0  0
   -1.3159  -26.0045   14.7398 C   0  0  0  0  0  0  0  0  0  0  0  0
   -0.4969  -25.5648   13.7160 C   0  0  0  0  0  0  0  0  0  0  0  0
   -1.0925  -25.2488   12.4585 C   0  0  0  0  0  0  0  0  0  0  0  0
   -0.2747  -24.7891   11.3778 N   0  0  0  0  0  0  0  0  0  0  0  0
    0.7902  -25.5441   14.2187 N   0  0  0  0  0  0  0  0  0  0  0  0
    0.7620  -25.9493   15.5043 C   0  0  0  0  0  0  0  0  0  0  0  0
   -0.5103  -26.2342   15.8465 N   0  0  0  0  0  0  0  0  0  0  0  0
  1  7  2  0  0  0  0
  1  2  1  0  0  0  0
  2  3  1  0  0  0  0
  2  4  2  0  0  0  0
  4  5  1  0  0  0  0
  5  6  2  0  0  0  0
  5 11  1  0  0  0  0
  6  7  1  0  0  0  0
  6  9  1  0  0  0  0
  7  8  1  0  0  0  0
  9 10  1  0  0  0  0
 10 11  2  0  0  0  0
M  END
>  <CHROM.1>
-1.39008293,-25.69130779,13.72629787,-2.68012934,0.13291301,1.87667261

>  <Name>
ligand

>  <RI>
0

>  <Rbt.Current_Directory>
/home/itssahil/PROJECTS/Mol_Feturizer/New_Systems/rnas/4LVZ

>  <Rbt.Executable>
rbdock ($Id: //depot/dev/client3/rdock/2013.1/src/exe/rbdock.cxx#4 $)

>  <Rbt.Library>
libRbt.so (2013.1, Build901 2013/11/27)

>  <Rbt.Parameter_File>
/export/apps/rDock/src/rDock_2013.1_src/data/scripts/dock_solv.prm

>  <Rbt.Receptor>
prm/blind_docking_40.prm

>  <SCORE>
-10.0023

>  <SCORE.INTER>
-10.0023

>  <SCORE.INTER.CONST>
1

>  <SCORE.INTER.POLAR>
0

>  <SCORE.INTER.ROT>
0

>  <SCORE.INTER.SOLV>
5.3666

>  <SCORE.INTER.VDW>
-12.0571

>  <SCORE.INTER.norm>
-0.909304

>  <SCORE.INTRA>
0

>  <SCORE.INTRA.DIHEDRAL>
0

>  <SCORE.INTRA.DIHEDRAL.0>
0

>  <SCORE.INTRA.POLAR>
0

>  <SCORE.INTRA.POLAR.0>
0

>  <SCORE.INTRA.REPUL>
0

>  <SCORE.INTRA.REPUL.0>
0

>  <SCORE.INTRA.SOLV>
0

>  <SCORE.INTRA.SOLV.lig_0>
-49.4056

>  <SCORE.INTRA.VDW>
0

>  <SCORE.INTRA.VDW.0>
0

>  <SCORE.INTRA.norm>
0

>  <SCORE.RESTR>
0

>  <SCORE.RESTR.CAVITY>
0

>  <SCORE.RESTR.norm>
0

>  <SCORE.SYSTEM>
0

>  <SCORE.SYSTEM.CONST>
0

>  <SCORE.SYSTEM.DIHEDRAL>
0

>  <SCORE.SYSTEM.SOLV>
0

>  <SCORE.SYSTEM.norm>
0

>  <SCORE.heavy>
11

>  <SCORE.norm>
-0.909304

>  <RMSD>
14.470

$$$$
ligand
 OpenBabel11021811503D
libRbt.so/2013.1/901 2013/11/27
 11 12  0  0  0  0  0  0  0  0999 V2000
   -2.5773  -25.4588   12.2820 N   0  0  0  0  0  0  0  0  0  0  0  0
   -3.3111  -25.8553   13.3511 C   0  0  0  0  0  0  0  0  0  0  0  0
   -4.7298  -26.0227   13.2452 N   0  0  0  0  0  0  0  0  0  0  0  0
   -2.7245  -26.0949   14.5374 N   0  0  0  0  0  0  0  0  0  0  0  0
   -1.3652  -25.9527   14.7036 C   0  0  0  0  0  0  0  0  0  0  0  0
   -0.5926  -25.5468   13.6308 C   0  0  0  0  0  0  0  0  0  0  0  0
   -1.2405  -25.2937   12.3850 C   0  0  0  0  0  0  0  0  0  0  0  0
   -0.4716  -24.8703   11.2548 N   0  0  0  0  0  0  0  0  0  0  0  0
    0.7123  -25.4869   14.0819 N   0  0  0  0  0  0  0  0  0  0  0  0
    0.7393  -25.8363   15.3838 C   0  0  0  0  0  0  0  0  0  0  0  0
   -0.5145  -26.1232   15.7870 N   0  0  0  0  0  0  0  0  0  0  0  0
  1  7  2  0  0  0  0
  1  2  1  0  0  0  0
  2  3  1  0  0  0  0
  2  4  2  0  0  0  0
  4  5  1  0  0  0  0
  5  6  2  0  0  0  0
  5 11  1  0  0  0  0
  6  7  1  0  0  0  0
  6  9  1  0  0  0  0
  7  8  1  0  0  0  0
  9 10  1  0  0  0  0
 10 11  2  0  0  0  0
M  END
>  <CHROM.1>
-1.48270992,-25.68481376,13.68120352,-2.72149273,0.13580651,1.83907874

>  <Name>
ligand

>  <RI>
0

>  <Rbt.Current_Directory>
/home/itssahil/PROJECTS/Mol_Feturizer/New_Systems/rnas/4LVZ

>  <Rbt.Executable>
rbdock ($Id: //depot/dev/client3/rdock/2013.1/src/exe/rbdock.cxx#4 $)

>  <Rbt.Library>
libRbt.so (2013.1, Build901 2013/11/27)

>  <Rbt.Parameter_File>
/export/apps/rDock/src/rDock_2013.1_src/data/scripts/dock_solv.prm

>  <Rbt.Receptor>
prm/blind_docking_100.prm

>  <SCORE>
-10.1813

>  <SCORE.INTER>
-10.1813

>  <SCORE.INTER.CONST>
1

>  <SCORE.INTER.POLAR>
0

>  <SCORE.INTER.ROT>
0

>  <SCORE.INTER.SOLV>
5.08159

>  <SCORE.INTER.VDW>
-12.0814

>  <SCORE.INTER.norm>
-0.925574

>  <SCORE.INTRA>
0

>  <SCORE.INTRA.DIHEDRAL>
0

>  <SCORE.INTRA.DIHEDRAL.0>
0

>  <SCORE.INTRA.POLAR>
0

>  <SCORE.INTRA.POLAR.0>
0

>  <SCORE.INTRA.REPUL>
0

>  <SCORE.INTRA.REPUL.0>
0

>  <SCORE.INTRA.SOLV>
0

>  <SCORE.INTRA.SOLV.lig_0>
-49.4056

>  <SCORE.INTRA.VDW>
0

>  <SCORE.INTRA.VDW.0>
0

>  <SCORE.INTRA.norm>
0

>  <SCORE.RESTR>
0

>  <SCORE.RESTR.CAVITY>
0

>  <SCORE.RESTR.norm>
0

>  <SCORE.SYSTEM>
0

>  <SCORE.SYSTEM.CONST>
0

>  <SCORE.SYSTEM.DIHEDRAL>
0

>  <SCORE.SYSTEM.SOLV>
0

>  <SCORE.SYSTEM.norm>
0

>  <SCORE.heavy>
11

>  <SCORE.norm>
-0.925574

>  <RMSD>
14.531

$$$$
ligand
 OpenBabel11021811503D
libRbt.so/2013.1/901 2013/11/27
 11 12  0  0  0  0  0  0  0  0999 V2000
   -2.5757  -25.4666   12.2711 N   0  0  0  0  0  0  0  0  0  0  0  0
   -3.3166  -25.8746   13.3309 C   0  0  0  0  0  0  0  0  0  0  0  0
   -4.7332  -26.0503   13.2110 N   0  0  0  0  0  0  0  0  0  0  0  0
   -2.7393  -26.1181   14.5210 N   0  0  0  0  0  0  0  0  0  0  0  0
   -1.3825  -25.9683   14.7005 C   0  0  0  0  0  0  0  0  0  0  0  0
   -0.6029  -25.5506   13.6374 C   0  0  0  0  0  0  0  0  0  0  0  0
   -1.2410  -25.2936   12.3874 C   0  0  0  0  0  0  0  0  0  0  0  0
   -0.4646  -24.8581   11.2669 N   0  0  0  0  0  0  0  0  0  0  0  0
    0.6975  -25.4853   14.1007 N   0  0  0  0  0  0  0  0  0  0  0  0
    0.7149  -25.8429   15.4006 C   0  0  0  0  0  0  0  0  0  0  0  0
   -0.5407  -26.1404   15.7905 N   0  0  0  0  0  0  0  0  0  0  0  0
  1  7  2  0  0  0  0
  1  2  1  0  0  0  0
  2  3  1  0  0  0  0
  2  4  2  0  0  0  0
  4  5  1  0  0  0  0
  5  6  2  0  0  0  0
  5 11  1  0  0  0  0
  6  7  1  0  0  0  0
  6  9  1  0  0  0  0
  7  8  1  0  0  0  0
  9 10  1  0  0  0  0
 10 11  2  0  0  0  0
M  END
>  <CHROM.1>
-1.49245546,-25.69460494,13.67876155,-2.71434461,0.14439133,1.84446917

>  <Name>
ligand

>  <RI>
0

>  <Rbt.Current_Directory>
/home/itssahil/PROJECTS/Mol_Feturizer/New_Systems/rnas/4LVZ

>  <Rbt.Executable>
rbdock ($Id: //depot/dev/client3/rdock/2013.1/src/exe/rbdock.cxx#4 $)

>  <Rbt.Library>
libRbt.so (2013.1, Build901 2013/11/27)

>  <Rbt.Parameter_File>
/export/apps/rDock/src/rDock_2013.1_src/data/scripts/dock_solv.prm

>  <Rbt.Receptor>
prm/blind_docking_100.prm

>  <SCORE>
-10.1815

>  <SCORE.INTER>
-10.1815

>  <SCORE.INTER.CONST>
1

>  <SCORE.INTER.POLAR>
0

>  <SCORE.INTER.ROT>
0

>  <SCORE.INTER.SOLV>
5.0648

>  <SCORE.INTER.VDW>
-12.0759

>  <SCORE.INTER.norm>
-0.925586

>  <SCORE.INTRA>
0

>  <SCORE.INTRA.DIHEDRAL>
0

>  <SCORE.INTRA.DIHEDRAL.0>
0

>  <SCORE.INTRA.POLAR>
0

>  <SCORE.INTRA.POLAR.0>
0

>  <SCORE.INTRA.REPUL>
0

>  <SCORE.INTRA.REPUL.0>
0

>  <SCORE.INTRA.SOLV>
0

>  <SCORE.INTRA.SOLV.lig_0>
-49.4056

>  <SCORE.INTRA.VDW>
0

>  <SCORE.INTRA.VDW.0>
0

>  <SCORE.INTRA.norm>
0

>  <SCORE.RESTR>
0

>  <SCORE.RESTR.CAVITY>
0

>  <SCORE.RESTR.norm>
0

>  <SCORE.SYSTEM>
0

>  <SCORE.SYSTEM.CONST>
0

>  <SCORE.SYSTEM.DIHEDRAL>
0

>  <SCORE.SYSTEM.SOLV>
0

>  <SCORE.SYSTEM.norm>
0

>  <SCORE.heavy>
11

>  <SCORE.norm>
-0.925586

>  <RMSD>
14.539

$$$$
ligand
 OpenBabel11021811503D
libRbt.so/2013.1/901 2013/11/27
 11 12  0  0  0  0  0  0  0  0999 V2000
   -6.7907   -9.7591   18.7130 N   0  0  0  0  0  0  0  0  0  0  0  0
   -5.8963   -8.8318   19.1358 C   0  0  0  0  0  0  0  0  0  0  0  0
   -5.6193   -7.6677   18.3482 N   0  0  0  0  0  0  0  0  0  0  0  0
   -5.2441   -8.9865   20.3018 N   0  0  0  0  0  0  0  0  0  0  0  0
   -5.4663  -10.0829   21.1043 C   0  0  0  0  0  0  0  0  0  0  0  0
   -6.3712  -11.0458   20.6965 C   0  0  0  0  0  0  0  0  0  0  0  0
   -7.0454  -10.8604   19.4528 C   0  0  0  0  0  0  0  0  0  0  0  0
   -7.9867  -11.8383   18.9994 N   0  0  0  0  0  0  0  0  0  0  0  0
   -6.3879  -12.0164   21.6802 N   0  0  0  0  0  0  0  0  0  0  0  0
   -5.5214  -11.6662   22.6519 C   0  0  0  0  0  0  0  0  0  0  0  0
   -4.9456  -10.4924   22.3240 N   0  0  0  0  0  0  0  0  0  0  0  0
  1  7  2  0  0  0  0
  1  2  1  0  0  0  0
  2  3  1  0  0  0  0
  2  4  2  0  0  0  0
  4  5  1  0  0  0  0
  5  6  2  0  0  0  0
  5 11  1  0  0  0  0
  6  7  1  0  0  0  0
  6  9  1  0  0  0  0
  7  8  1  0  0  0  0
  9 10  1  0  0  0  0
 10 11  2  0  0  0  0
M  END
>  <CHROM.1>
-6.11975901,-10.28122795,20.28914307,1.66587552,-0.82236862,-0.80402494

>  <Name>
ligand

>  <RI>
0

>  <Rbt.Current_Directory>
/home/itssahil/PROJECTS/Mol_Feturizer/New_Systems/rnas/4LVZ

>  <Rbt.Executable>
rbdock ($Id: //depot/dev/client3/rdock/2013.1/src/exe/rbdock.cxx#4 $)

>  <Rbt.Library>
libRbt.so (2013.1, Build901 2013/11/27)

>  <Rbt.Parameter_File>
/export/apps/rDock/src/rDock_2013.1_src/data/scripts/dock_solv.prm

>  <Rbt.Receptor>
prm/blind_docking_40.prm

>  <SCORE>
-5.29468

>  <SCORE.INTER>
-5.29468

>  <SCORE.INTER.CONST>
1

>  <SCORE.INTER.POLAR>
0

>  <SCORE.INTER.ROT>
0

>  <SCORE.INTER.SOLV>
2.71113

>  <SCORE.INTER.VDW>
-8.0335

>  <SCORE.INTER.norm>
-0.481335

>  <SCORE.INTRA>
0

>  <SCORE.INTRA.DIHEDRAL>
0

>  <SCORE.INTRA.DIHEDRAL.0>
0

>  <SCORE.INTRA.POLAR>
0

>  <SCORE.INTRA.POLAR.0>
0

>  <SCORE.INTRA.REPUL>
0

>  <SCORE.INTRA.REPUL.0>
0

>  <SCORE.INTRA.SOLV>
0

>  <SCORE.INTRA.SOLV.lig_0>
-49.4056

>  <SCORE.INTRA.VDW>
0

>  <SCORE.INTRA.VDW.0>
0

>  <SCORE.INTRA.norm>
0

>  <SCORE.RESTR>
0

>  <SCORE.RESTR.CAVITY>
0

>  <SCORE.RESTR.norm>
0

>  <SCORE.SYSTEM>
0

>  <SCORE.SYSTEM.CONST>
0

>  <SCORE.SYSTEM.DIHEDRAL>
0

>  <SCORE.SYSTEM.SOLV>
0

>  <SCORE.SYSTEM.norm>
0

>  <SCORE.heavy>
11

>  <SCORE.norm>
-0.481335

>  <RMSD>
14.563

$$$$
ligand
 OpenBabel11021811503D
libRbt.so/2013.1/901 2013/11/27
 11 12  0  0  0  0  0  0  0  0999 V2000
   -2.5177  -25.4734   12.2053 N   0  0  0  0  0  0  0  0  0  0  0  0
   -3.2705  -25.8671   13.2622 C   0  0  0  0  0  0  0  0  0  0  0  0
   -4.6856  -26.0451   13.1286 N   0  0  0  0  0  0  0  0  0  0  0  0
   -2.7067  -26.0938   14.4620 N   0  0  0  0  0  0  0  0  0  0  0  0
   -1.3520  -25.9409   14.6548 C   0  0  0  0  0  0  0  0  0  0  0  0
   -0.5605  -25.5376   13.5950 C   0  0  0  0  0  0  0  0  0  0  0  0
   -1.1844  -25.2982   12.3343 C   0  0  0  0  0  0  0  0  0  0  0  0
   -0.3955  -24.8779   11.2168 N   0  0  0  0  0  0  0  0  0  0  0  0
    0.7345  -25.4653   14.0721 N   0  0  0  0  0  0  0  0  0  0  0  0
    0.7373  -25.8048   15.3769 C   0  0  0  0  0  0  0  0  0  0  0  0
   -0.5225  -26.0975   15.7566 N   0  0  0  0  0  0  0  0  0  0  0  0
  1  7  2  0  0  0  0
  1  2  1  0  0  0  0
  2  3  1  0  0  0  0
  2  4  2  0  0  0  0
  4  5  1  0  0  0  0
  5  6  2  0  0  0  0
  5 11  1  0  0  0  0
  6  7  1  0  0  0  0
  6  9  1  0  0  0  0
  7  8  1  0  0  0  0
  9 10  1  0  0  0  0
 10 11  2  0  0  0  0
M  END
>  <CHROM.1>
-1.45044064,-25.68144987,13.62823035,-2.70337613,0.14777175,1.82904340

>  <Name>
ligand

>  <RI>
0

>  <Rbt.Current_Directory>
/home/itssahil/PROJECTS/Mol_Feturizer/New_Systems/rnas/4LVZ

>  <Rbt.Executable>
rbdock ($Id: //depot/dev/client3/rdock/2013.1/src/exe/rbdock.cxx#4 $)

>  <Rbt.Library>
libRbt.so (2013.1, Build901 2013/11/27)

>  <Rbt.Parameter_File>
/export/apps/rDock/src/rDock_2013.1_src/data/scripts/dock_solv.prm

>  <Rbt.Receptor>
prm/blind_docking_100.prm

>  <SCORE>
-10.1119

>  <SCORE.INTER>
-10.1119

>  <SCORE.INTER.CONST>
1

>  <SCORE.INTER.POLAR>
0

>  <SCORE.INTER.ROT>
0

>  <SCORE.INTER.SOLV>
4.73455

>  <SCORE.INTER.VDW>
-11.9194

>  <SCORE.INTER.norm>
-0.919263

>  <SCORE.INTRA>
0

>  <SCORE.INTRA.DIHEDRAL>
0

>  <SCORE.INTRA.DIHEDRAL.0>
0

>  <SCORE.INTRA.POLAR>
0

>  <SCORE.INTRA.POLAR.0>
0

>  <SCORE.INTRA.REPUL>
0

>  <SCORE.INTRA.REPUL.0>
0

>  <SCORE.INTRA.SOLV>
0

>  <SCORE.INTRA.SOLV.lig_0>
-49.4056

>  <SCORE.INTRA.VDW>
0

>  <SCORE.INTRA.VDW.0>
0

>  <SCORE.INTRA.norm>
0

>  <SCORE.RESTR>
0

>  <SCORE.RESTR.CAVITY>
0

>  <SCORE.RESTR.norm>
0

>  <SCORE.SYSTEM>
0

>  <SCORE.SYSTEM.CONST>
0

>  <SCORE.SYSTEM.DIHEDRAL>
0

>  <SCORE.SYSTEM.SOLV>
0

>  <SCORE.SYSTEM.norm>
0

>  <SCORE.heavy>
11

>  <SCORE.norm>
-0.919263

>  <RMSD>
14.567

$$$$
ligand
 OpenBabel11021811503D
libRbt.so/2013.1/901 2013/11/27
 11 12  0  0  0  0  0  0  0  0999 V2000
   -8.9127   -8.9669   23.0704 N   0  0  0  0  0  0  0  0  0  0  0  0
   -9.3466  -10.1926   23.4552 C   0  0  0  0  0  0  0  0  0  0  0  0
  -10.6792  -10.3776   23.9469 N   0  0  0  0  0  0  0  0  0  0  0  0
   -8.5336  -11.2620   23.3897 N   0  0  0  0  0  0  0  0  0  0  0  0
   -7.2421  -11.1499   22.9259 C   0  0  0  0  0  0  0  0  0  0  0  0
   -6.7722   -9.9113   22.5293 C   0  0  0  0  0  0  0  0  0  0  0  0
   -7.6532   -8.7921   22.6142 C   0  0  0  0  0  0  0  0  0  0  0  0
   -7.1989   -7.4954   22.2140 N   0  0  0  0  0  0  0  0  0  0  0  0
   -5.4649  -10.0952   22.1210 N   0  0  0  0  0  0  0  0  0  0  0  0
   -5.1419  -11.3959   22.2674 C   0  0  0  0  0  0  0  0  0  0  0  0
   -6.2075  -12.0598   22.7580 N   0  0  0  0  0  0  0  0  0  0  0  0
  1  7  2  0  0  0  0
  1  2  1  0  0  0  0
  2  3  1  0  0  0  0
  2  4  2  0  0  0  0
  4  5  1  0  0  0  0
  5  6  2  0  0  0  0
  5 11  1  0  0  0  0
  6  7  1  0  0  0  0
  6  9  1  0  0  0  0
  7  8  1  0  0  0  0
  9 10  1  0  0  0  0
 10 11  2  0  0  0  0
M  END
>  <CHROM.1>
-7.58208386,-10.14515105,22.85070346,-2.95484020,-0.32101951,2.95098876

>  <Name>
ligand

>  <RI>
0

>  <Rbt.Current_Directory>
/home/itssahil/PROJECTS/Mol_Feturizer/New_Systems/rnas/4LVZ

>  <Rbt.Executable>
rbdock ($Id: //depot/dev/client3/rdock/2013.1/src/exe/rbdock.cxx#4 $)

>  <Rbt.Library>
libRbt.so (2013.1, Build901 2013/11/27)

>  <Rbt.Parameter_File>
/export/apps/rDock/src/rDock_2013.1_src/data/scripts/dock_solv.prm

>  <Rbt.Receptor>
prm/blind_docking_60.prm

>  <SCORE>
-5.33497

>  <SCORE.INTER>
-5.33497

>  <SCORE.INTER.CONST>
1

>  <SCORE.INTER.POLAR>
0

>  <SCORE.INTER.ROT>
0

>  <SCORE.INTER.SOLV>
1.46494

>  <SCORE.INTER.VDW>
-7.64496

>  <SCORE.INTER.norm>
-0.484998

>  <SCORE.INTRA>
0

>  <SCORE.INTRA.DIHEDRAL>
0

>  <SCORE.INTRA.DIHEDRAL.0>
0

>  <SCORE.INTRA.POLAR>
0

>  <SCORE.INTRA.POLAR.0>
0

>  <SCORE.INTRA.REPUL>
0

>  <SCORE.INTRA.REPUL.0>
0

>  <SCORE.INTRA.SOLV>
0

>  <SCORE.INTRA.SOLV.lig_0>
-49.4056

>  <SCORE.INTRA.VDW>
0

>  <SCORE.INTRA.VDW.0>
0

>  <SCORE.INTRA.norm>
0

>  <SCORE.RESTR>
0

>  <SCORE.RESTR.CAVITY>
0

>  <SCORE.RESTR.norm>
0

>  <SCORE.SYSTEM>
0

>  <SCORE.SYSTEM.CONST>
0

>  <SCORE.SYSTEM.DIHEDRAL>
0

>  <SCORE.SYSTEM.SOLV>
0

>  <SCORE.SYSTEM.norm>
0

>  <SCORE.heavy>
11

>  <SCORE.norm>
-0.484998

>  <RMSD>
14.899

$$$$
ligand
 OpenBabel11021811503D
libRbt.so/2013.1/901 2013/11/27
 11 12  0  0  0  0  0  0  0  0999 V2000
   -8.2427   -7.9841   22.4296 N   0  0  0  0  0  0  0  0  0  0  0  0
   -7.1102   -8.7202   22.5494 C   0  0  0  0  0  0  0  0  0  0  0  0
   -6.9246   -9.9111   21.7754 N   0  0  0  0  0  0  0  0  0  0  0  0
   -6.1375   -8.3523   23.4022 N   0  0  0  0  0  0  0  0  0  0  0  0
   -6.2556   -7.2180   24.1737 C   0  0  0  0  0  0  0  0  0  0  0  0
   -7.4011   -6.4498   24.0740 C   0  0  0  0  0  0  0  0  0  0  0  0
   -8.4202   -6.8654   23.1659 C   0  0  0  0  0  0  0  0  0  0  0  0
   -9.6195   -6.0950   23.0390 N   0  0  0  0  0  0  0  0  0  0  0  0
   -7.2481   -5.3935   24.9518 N   0  0  0  0  0  0  0  0  0  0  0  0
   -6.0568   -5.5120   25.5720 C   0  0  0  0  0  0  0  0  0  0  0  0
   -5.4332   -6.6168   25.1164 N   0  0  0  0  0  0  0  0  0  0  0  0
  1  7  2  0  0  0  0
  1  2  1  0  0  0  0
  2  3  1  0  0  0  0
  2  4  2  0  0  0  0
  4  5  1  0  0  0  0
  5  6  2  0  0  0  0
  5 11  1  0  0  0  0
  6  7  1  0  0  0  0
  6  9  1  0  0  0  0
  7  8  1  0  0  0  0
  9 10  1  0  0  0  0
 10 11  2  0  0  0  0
M  END
>  <CHROM.1>
-7.17640984,-7.20915162,23.64186940,1.80527603,0.44132575,-2.50005120

>  <Name>
ligand

>  <RI>
0

>  <Rbt.Current_Directory>
/home/itssahil/PROJECTS/Mol_Feturizer/New_Systems/rnas/4LVZ

>  <Rbt.Executable>
rbdock ($Id: //depot/dev/client3/rdock/2013.1/src/exe/rbdock.cxx#4 $)

>  <Rbt.Library>
libRbt.so (2013.1, Build901 2013/11/27)

>  <Rbt.Parameter_File>
/export/apps/rDock/src/rDock_2013.1_src/data/scripts/dock_solv.prm

>  <Rbt.Receptor>
prm/blind_docking_40.prm

>  <SCORE>
-4.96193

>  <SCORE.INTER>
-4.96193

>  <SCORE.INTER.CONST>
1

>  <SCORE.INTER.POLAR>
0

>  <SCORE.INTER.ROT>
0

>  <SCORE.INTER.SOLV>
4.3768

>  <SCORE.INTER.VDW>
-8.36689

>  <SCORE.INTER.norm>
-0.451085

>  <SCORE.INTRA>
0

>  <SCORE.INTRA.DIHEDRAL>
0

>  <SCORE.INTRA.DIHEDRAL.0>
0

>  <SCORE.INTRA.POLAR>
0

>  <SCORE.INTRA.POLAR.0>
0

>  <SCORE.INTRA.REPUL>
0

>  <SCORE.INTRA.REPUL.0>
0

>  <SCORE.INTRA.SOLV>
0

>  <SCORE.INTRA.SOLV.lig_0>
-49.4056

>  <SCORE.INTRA.VDW>
0

>  <SCORE.INTRA.VDW.0>
0

>  <SCORE.INTRA.norm>
0

>  <SCORE.RESTR>
0

>  <SCORE.RESTR.CAVITY>
0

>  <SCORE.RESTR.norm>
0

>  <SCORE.SYSTEM>
0

>  <SCORE.SYSTEM.CONST>
0

>  <SCORE.SYSTEM.DIHEDRAL>
0

>  <SCORE.SYSTEM.SOLV>
0

>  <SCORE.SYSTEM.norm>
0

>  <SCORE.heavy>
11

>  <SCORE.norm>
-0.451085

>  <RMSD>
16.704

$$$$
ligand
 OpenBabel11021811503D
libRbt.so/2013.1/901 2013/11/27
 11 12  0  0  0  0  0  0  0  0999 V2000
   -5.0129   -5.5792   23.1771 N   0  0  0  0  0  0  0  0  0  0  0  0
   -5.8271   -5.3413   24.2351 C   0  0  0  0  0  0  0  0  0  0  0  0
   -5.2833   -5.0308   25.5234 N   0  0  0  0  0  0  0  0  0  0  0  0
   -7.1641   -5.3973   24.1005 N   0  0  0  0  0  0  0  0  0  0  0  0
   -7.7482   -5.6901   22.8886 C   0  0  0  0  0  0  0  0  0  0  0  0
   -6.9419   -5.9398   21.7932 C   0  0  0  0  0  0  0  0  0  0  0  0
   -5.5266   -5.8796   21.9643 C   0  0  0  0  0  0  0  0  0  0  0  0
   -4.6627   -6.1346   20.8524 N   0  0  0  0  0  0  0  0  0  0  0  0
   -7.7860   -6.2045   20.7315 N   0  0  0  0  0  0  0  0  0  0  0  0
   -9.0620   -6.1268   21.1599 C   0  0  0  0  0  0  0  0  0  0  0  0
   -9.0660   -5.8163   22.4716 N   0  0  0  0  0  0  0  0  0  0  0  0
  1  7  2  0  0  0  0
  1  2  1  0  0  0  0
  2  3  1  0  0  0  0
  2  4  2  0  0  0  0
  4  5  1  0  0  0  0
  5  6  2  0  0  0  0
  5 11  1  0  0  0  0
  6  7  1  0  0  0  0
  6  9  1  0  0  0  0
  7  8  1  0  0  0  0
  9 10  1  0  0  0  0
 10 11  2  0  0  0  0
M  END
>  <CHROM.1>
-6.71476877,-5.73618775,22.64223369,-0.80165168,-0.01501492,-1.80442765

>  <Name>
ligand

>  <RI>
0

>  <Rbt.Current_Directory>
/home/itssahil/PROJECTS/Mol_Feturizer/New_Systems/rnas/4LVZ

>  <Rbt.Executable>
rbdock ($Id: //depot/dev/client3/rdock/2013.1/src/exe/rbdock.cxx#4 $)

>  <Rbt.Library>
libRbt.so (2013.1, Build901 2013/11/27)

>  <Rbt.Parameter_File>
/export/apps/rDock/src/rDock_2013.1_src/data/scripts/dock_solv.prm

>  <Rbt.Receptor>
prm/blind_docking_40.prm

>  <SCORE>
-4.5922

>  <SCORE.INTER>
-4.5922

>  <SCORE.INTER.CONST>
1

>  <SCORE.INTER.POLAR>
0

>  <SCORE.INTER.ROT>
0

>  <SCORE.INTER.SOLV>
7.58617

>  <SCORE.INTER.VDW>
-9.19019

>  <SCORE.INTER.norm>
-0.417472

>  <SCORE.INTRA>
0

>  <SCORE.INTRA.DIHEDRAL>
0

>  <SCORE.INTRA.DIHEDRAL.0>
0

>  <SCORE.INTRA.POLAR>
0

>  <SCORE.INTRA.POLAR.0>
0

>  <SCORE.INTRA.REPUL>
0

>  <SCORE.INTRA.REPUL.0>
0

>  <SCORE.INTRA.SOLV>
0

>  <SCORE.INTRA.SOLV.lig_0>
-49.4056

>  <SCORE.INTRA.VDW>
0

>  <SCORE.INTRA.VDW.0>
0

>  <SCORE.INTRA.norm>
0

>  <SCORE.RESTR>
0

>  <SCORE.RESTR.CAVITY>
0

>  <SCORE.RESTR.norm>
0

>  <SCORE.SYSTEM>
0

>  <SCORE.SYSTEM.CONST>
0

>  <SCORE.SYSTEM.DIHEDRAL>
0

>  <SCORE.SYSTEM.SOLV>
0

>  <SCORE.SYSTEM.norm>
0

>  <SCORE.heavy>
11

>  <SCORE.norm>
-0.417472

>  <RMSD>
17.498

$$$$
ligand
 OpenBabel11021811503D
libRbt.so/2013.1/901 2013/11/27
 11 12  0  0  0  0  0  0  0  0999 V2000
   -5.5003   -6.9703   21.1258 N   0  0  0  0  0  0  0  0  0  0  0  0
   -5.4016   -6.0008   22.0686 C   0  0  0  0  0  0  0  0  0  0  0  0
   -5.8985   -6.2147   23.3950 N   0  0  0  0  0  0  0  0  0  0  0  0
   -4.8401   -4.8136   21.7784 N   0  0  0  0  0  0  0  0  0  0  0  0
   -4.3433   -4.5465   20.5224 C   0  0  0  0  0  0  0  0  0  0  0  0
   -4.4332   -5.5161   19.5406 C   0  0  0  0  0  0  0  0  0  0  0  0
   -5.0385   -6.7647   19.8729 C   0  0  0  0  0  0  0  0  0  0  0  0
   -5.1498   -7.7897   18.8804 N   0  0  0  0  0  0  0  0  0  0  0  0
   -3.8674   -4.9792   18.3998 N   0  0  0  0  0  0  0  0  0  0  0  0
   -3.4517   -3.7251   18.6689 C   0  0  0  0  0  0  0  0  0  0  0  0
   -3.7318   -3.4370   19.9556 N   0  0  0  0  0  0  0  0  0  0  0  0
  1  7  2  0  0  0  0
  1  2  1  0  0  0  0
  2  3  1  0  0  0  0
  2  4  2  0  0  0  0
  4  5  1  0  0  0  0
  5  6  2  0  0  0  0
  5 11  1  0  0  0  0
  6  7  1  0  0  0  0
  6  9  1  0  0  0  0
  7  8  1  0  0  0  0
  9 10  1  0  0  0  0
 10 11  2  0  0  0  0
M  END
>  <CHROM.1>
-4.70725371,-5.53815879,20.39975669,2.81975412,1.10340230,0.91883834

>  <Name>
ligand

>  <RI>
0

>  <Rbt.Current_Directory>
/home/itssahil/PROJECTS/Mol_Feturizer/New_Systems/rnas/4LVZ

>  <Rbt.Executable>
rbdock ($Id: //depot/dev/client3/rdock/2013.1/src/exe/rbdock.cxx#4 $)

>  <Rbt.Library>
libRbt.so (2013.1, Build901 2013/11/27)

>  <Rbt.Parameter_File>
/export/apps/rDock/src/rDock_2013.1_src/data/scripts/dock_solv.prm

>  <Rbt.Receptor>
prm/blind_docking_40.prm

>  <SCORE>
-5.00974

>  <SCORE.INTER>
-5.00974

>  <SCORE.INTER.CONST>
1

>  <SCORE.INTER.POLAR>
0

>  <SCORE.INTER.ROT>
0

>  <SCORE.INTER.SOLV>
4.31266

>  <SCORE.INTER.VDW>
-8.37738

>  <SCORE.INTER.norm>
-0.455431

>  <SCORE.INTRA>
0

>  <SCORE.INTRA.DIHEDRAL>
0

>  <SCORE.INTRA.DIHEDRAL.0>
0

>  <SCORE.INTRA.POLAR>
0

>  <SCORE.INTRA.POLAR.0>
0

>  <SCORE.INTRA.REPUL>
0

>  <SCORE.INTRA.REPUL.0>
0

>  <SCORE.INTRA.SOLV>
0

>  <SCORE.INTRA.SOLV.lig_0>
-49.4056

>  <SCORE.INTRA.VDW>
0

>  <SCORE.INTRA.VDW.0>
0

>  <SCORE.INTRA.norm>
0

>  <SCORE.RESTR>
0

>  <SCORE.RESTR.CAVITY>
0

>  <SCORE.RESTR.norm>
0

>  <SCORE.SYSTEM>
0

>  <SCORE.SYSTEM.CONST>
0

>  <SCORE.SYSTEM.DIHEDRAL>
0

>  <SCORE.SYSTEM.SOLV>
0

>  <SCORE.SYSTEM.norm>
0

>  <SCORE.heavy>
11

>  <SCORE.norm>
-0.455431

>  <RMSD>
17.613

$$$$
ligand
 OpenBabel11021811503D
libRbt.so/2013.1/901 2013/11/27
 11 12  0  0  0  0  0  0  0  0999 V2000
   -1.0558   -4.7382   17.5346 N   0  0  0  0  0  0  0  0  0  0  0  0
   -1.3459   -5.5080   16.4567 C   0  0  0  0  0  0  0  0  0  0  0  0
   -2.6814   -5.9710   16.2244 N   0  0  0  0  0  0  0  0  0  0  0  0
   -0.3850   -5.8596   15.5838 N   0  0  0  0  0  0  0  0  0  0  0  0
    0.9177   -5.4463   15.7511 C   0  0  0  0  0  0  0  0  0  0  0  0
    1.2425   -4.6627   16.8432 C   0  0  0  0  0  0  0  0  0  0  0  0
    0.2055   -4.3086   17.7571 C   0  0  0  0  0  0  0  0  0  0  0  0
    0.5069   -3.5005   18.8990 N   0  0  0  0  0  0  0  0  0  0  0  0
    2.5977   -4.4059   16.7581 N   0  0  0  0  0  0  0  0  0  0  0  0
    3.0879   -5.0141   15.6593 C   0  0  0  0  0  0  0  0  0  0  0  0
    2.0843   -5.6564   15.0291 N   0  0  0  0  0  0  0  0  0  0  0  0
  1  7  2  0  0  0  0
  1  2  1  0  0  0  0
  2  3  1  0  0  0  0
  2  4  2  0  0  0  0
  4  5  1  0  0  0  0
  5  6  2  0  0  0  0
  5 11  1  0  0  0  0
  6  7  1  0  0  0  0
  6  9  1  0  0  0  0
  7  8  1  0  0  0  0
  9 10  1  0  0  0  0
 10 11  2  0  0  0  0
M  END
>  <CHROM.1>
0.44609094,-5.00775594,16.59730643,-3.07937288,-0.18999415,-2.14779362

>  <Name>
ligand

>  <RI>
0

>  <Rbt.Current_Directory>
/home/itssahil/PROJECTS/Mol_Feturizer/New_Systems/rnas/4LVZ

>  <Rbt.Executable>
rbdock ($Id: //depot/dev/client3/rdock/2013.1/src/exe/rbdock.cxx#4 $)

>  <Rbt.Library>
libRbt.so (2013.1, Build901 2013/11/27)

>  <Rbt.Parameter_File>
/export/apps/rDock/src/rDock_2013.1_src/data/scripts/dock_solv.prm

>  <Rbt.Receptor>
prm/blind_docking_20.prm

>  <SCORE>
-4.08439

>  <SCORE.INTER>
-4.08492

>  <SCORE.INTER.CONST>
1

>  <SCORE.INTER.POLAR>
0

>  <SCORE.INTER.ROT>
0

>  <SCORE.INTER.SOLV>
3.97022

>  <SCORE.INTER.VDW>
-7.64669

>  <SCORE.INTER.norm>
-0.371356

>  <SCORE.INTRA>
0

>  <SCORE.INTRA.DIHEDRAL>
0

>  <SCORE.INTRA.DIHEDRAL.0>
0

>  <SCORE.INTRA.POLAR>
0

>  <SCORE.INTRA.POLAR.0>
0

>  <SCORE.INTRA.REPUL>
0

>  <SCORE.INTRA.REPUL.0>
0

>  <SCORE.INTRA.SOLV>
0

>  <SCORE.INTRA.SOLV.lig_0>
-49.4056

>  <SCORE.INTRA.VDW>
0

>  <SCORE.INTRA.VDW.0>
0

>  <SCORE.INTRA.norm>
0

>  <SCORE.RESTR>
0.000533233

>  <SCORE.RESTR.CAVITY>
0.000533233

>  <SCORE.RESTR.norm>
4.84757e-05

>  <SCORE.SYSTEM>
0

>  <SCORE.SYSTEM.CONST>
0

>  <SCORE.SYSTEM.DIHEDRAL>
0

>  <SCORE.SYSTEM.SOLV>
0

>  <SCORE.SYSTEM.norm>
0

>  <SCORE.heavy>
11

>  <SCORE.norm>
-0.371308

>  <RMSD>
18.690

$$$$
ligand
 OpenBabel11021811503D
libRbt.so/2013.1/901 2013/11/27
 11 12  0  0  0  0  0  0  0  0999 V2000
   -2.5359   -4.7474   17.7775 N   0  0  0  0  0  0  0  0  0  0  0  0
   -2.9653   -4.4217   19.0217 C   0  0  0  0  0  0  0  0  0  0  0  0
   -4.2365   -4.8759   19.5009 N   0  0  0  0  0  0  0  0  0  0  0  0
   -2.2100   -3.6595   19.8325 N   0  0  0  0  0  0  0  0  0  0  0  0
   -0.9788   -3.1921   19.4309 C   0  0  0  0  0  0  0  0  0  0  0  0
   -0.5171   -3.5066   18.1659 C   0  0  0  0  0  0  0  0  0  0  0  0
   -1.3403   -4.3119   17.3236 C   0  0  0  0  0  0  0  0  0  0  0  0
   -0.8942   -4.6547   16.0077 N   0  0  0  0  0  0  0  0  0  0  0  0
    0.7227   -2.9099   18.0365 N   0  0  0  0  0  0  0  0  0  0  0  0
    1.0086   -2.2486   19.1761 C   0  0  0  0  0  0  0  0  0  0  0  0
   -0.0133   -2.4037   20.0413 N   0  0  0  0  0  0  0  0  0  0  0  0
  1  7  2  0  0  0  0
  1  2  1  0  0  0  0
  2  3  1  0  0  0  0
  2  4  2  0  0  0  0
  4  5  1  0  0  0  0
  5  6  2  0  0  0  0
  5 11  1  0  0  0  0
  6  7  1  0  0  0  0
  6  9  1  0  0  0  0
  7  8  1  0  0  0  0
  9 10  1  0  0  0  0
 10 11  2  0  0  0  0
M  END
>  <CHROM.1>
-1.29060824,-3.73389130,18.57061731,-2.94022963,0.45013687,1.15386078

>  <Name>
ligand

>  <RI>
0

>  <Rbt.Current_Directory>
/home/itssahil/PROJECTS/Mol_Feturizer/New_Systems/rnas/4LVZ

>  <Rbt.Executable>
rbdock ($Id: //depot/dev/client3/rdock/2013.1/src/exe/rbdock.cxx#4 $)

>  <Rbt.Library>
libRbt.so (2013.1, Build901 2013/11/27)

>  <Rbt.Parameter_File>
/export/apps/rDock/src/rDock_2013.1_src/data/scripts/dock_solv.prm

>  <Rbt.Receptor>
prm/blind_docking_40.prm

>  <SCORE>
-5.07083

>  <SCORE.INTER>
-5.07083

>  <SCORE.INTER.CONST>
1

>  <SCORE.INTER.POLAR>
0

>  <SCORE.INTER.ROT>
0

>  <SCORE.INTER.SOLV>
7.141

>  <SCORE.INTER.VDW>
-9.36089

>  <SCORE.INTER.norm>
-0.460985

>  <SCORE.INTRA>
0

>  <SCORE.INTRA.DIHEDRAL>
0

>  <SCORE.INTRA.DIHEDRAL.0>
0

>  <SCORE.INTRA.POLAR>
0

>  <SCORE.INTRA.POLAR.0>
0

>  <SCORE.INTRA.REPUL>
0

>  <SCORE.INTRA.REPUL.0>
0

>  <SCORE.INTRA.SOLV>
0

>  <SCORE.INTRA.SOLV.lig_0>
-49.4056

>  <SCORE.INTRA.VDW>
0

>  <SCORE.INTRA.VDW.0>
0

>  <SCORE.INTRA.norm>
0

>  <SCORE.RESTR>
0

>  <SCORE.RESTR.CAVITY>
0

>  <SCORE.RESTR.norm>
0

>  <SCORE.SYSTEM>
0

>  <SCORE.SYSTEM.CONST>
0

>  <SCORE.SYSTEM.DIHEDRAL>
0

>  <SCORE.SYSTEM.SOLV>
0

>  <SCORE.SYSTEM.norm>
0

>  <SCORE.heavy>
11

>  <SCORE.norm>
-0.460985

>  <RMSD>
18.950

$$$$
ligand
 OpenBabel11021811503D
libRbt.so/2013.1/901 2013/11/27
 11 12  0  0  0  0  0  0  0  0999 V2000
    1.1729   -4.5392   16.1351 N   0  0  0  0  0  0  0  0  0  0  0  0
    2.3829   -4.2207   16.6576 C   0  0  0  0  0  0  0  0  0  0  0  0
    3.5916   -4.6801   16.0413 N   0  0  0  0  0  0  0  0  0  0  0  0
    2.4760   -3.4708   17.7702 N   0  0  0  0  0  0  0  0  0  0  0  0
    1.3517   -2.9983   18.4092 C   0  0  0  0  0  0  0  0  0  0  0  0
    0.1044   -3.3102   17.8998 C   0  0  0  0  0  0  0  0  0  0  0  0
    0.0334   -4.1119   16.7217 C   0  0  0  0  0  0  0  0  0  0  0  0
   -1.2412   -4.4552   16.1687 N   0  0  0  0  0  0  0  0  0  0  0  0
   -0.8242   -2.7156   18.7328 N   0  0  0  0  0  0  0  0  0  0  0  0
   -0.1724   -2.0688   19.7200 C   0  0  0  0  0  0  0  0  0  0  0  0
    1.1549   -2.2272   19.5463 N   0  0  0  0  0  0  0  0  0  0  0  0
  1  7  2  0  0  0  0
  1  2  1  0  0  0  0
  2  3  1  0  0  0  0
  2  4  2  0  0  0  0
  4  5  1  0  0  0  0
  5  6  2  0  0  0  0
  5 11  1  0  0  0  0
  6  7  1  0  0  0  0
  6  9  1  0  0  0  0
  7  8  1  0  0  0  0
  9 10  1  0  0  0  0
 10 11  2  0  0  0  0
M  END
>  <CHROM.1>
0.92371936,-3.53991778,17.60019824,0.94567681,0.02400506,-2.16791692

>  <Name>
ligand

>  <RI>
0

>  <Rbt.Current_Directory>
/home/itssahil/PROJECTS/Mol_Feturizer/New_Systems/rnas/4LVZ

>  <Rbt.Executable>
rbdock ($Id: //depot/dev/client3/rdock/2013.1/src/exe/rbdock.cxx#4 $)

>  <Rbt.Library>
libRbt.so (2013.1, Build901 2013/11/27)

>  <Rbt.Parameter_File>
/export/apps/rDock/src/rDock_2013.1_src/data/scripts/dock_solv.prm

>  <Rbt.Receptor>
prm/blind_docking_40.prm

>  <SCORE>
-7.11771

>  <SCORE.INTER>
-7.11771

>  <SCORE.INTER.CONST>
1

>  <SCORE.INTER.POLAR>
0

>  <SCORE.INTER.ROT>
0

>  <SCORE.INTER.SOLV>
5.04774

>  <SCORE.INTER.VDW>
-10.0277

>  <SCORE.INTER.norm>
-0.647065

>  <SCORE.INTRA>
0

>  <SCORE.INTRA.DIHEDRAL>
0

>  <SCORE.INTRA.DIHEDRAL.0>
0

>  <SCORE.INTRA.POLAR>
0

>  <SCORE.INTRA.POLAR.0>
0

>  <SCORE.INTRA.REPUL>
0

>  <SCORE.INTRA.REPUL.0>
0

>  <SCORE.INTRA.SOLV>
0

>  <SCORE.INTRA.SOLV.lig_0>
-49.4056

>  <SCORE.INTRA.VDW>
0

>  <SCORE.INTRA.VDW.0>
0

>  <SCORE.INTRA.norm>
0

>  <SCORE.RESTR>
0

>  <SCORE.RESTR.CAVITY>
0

>  <SCORE.RESTR.norm>
0

>  <SCORE.SYSTEM>
0

>  <SCORE.SYSTEM.CONST>
0

>  <SCORE.SYSTEM.DIHEDRAL>
0

>  <SCORE.SYSTEM.SOLV>
0

>  <SCORE.SYSTEM.norm>
0

>  <SCORE.heavy>
11

>  <SCORE.norm>
-0.647065

>  <RMSD>
19.146

$$$$
ligand
 OpenBabel11021811503D
libRbt.so/2013.1/901 2013/11/27
 11 12  0  0  0  0  0  0  0  0999 V2000
    0.6889   -5.1360   15.4169 N   0  0  0  0  0  0  0  0  0  0  0  0
   -0.6081   -4.8958   15.7311 C   0  0  0  0  0  0  0  0  0  0  0  0
   -1.6681   -5.4472   14.9411 N   0  0  0  0  0  0  0  0  0  0  0  0
   -0.9292   -4.1293   16.7886 N   0  0  0  0  0  0  0  0  0  0  0  0
    0.0433   -3.5709   17.5874 C   0  0  0  0  0  0  0  0  0  0  0  0
    1.3744   -3.7970   17.2886 C   0  0  0  0  0  0  0  0  0  0  0  0
    1.6879   -4.6090   16.1580 C   0  0  0  0  0  0  0  0  0  0  0  0
    3.0551   -4.8617   15.8189 N   0  0  0  0  0  0  0  0  0  0  0  0
    2.1148   -3.1220   18.2405 N   0  0  0  0  0  0  0  0  0  0  0  0
    1.2707   -2.4997   19.0877 C   0  0  0  0  0  0  0  0  0  0  0  0
    0.0023   -2.7563   18.7104 N   0  0  0  0  0  0  0  0  0  0  0  0
  1  7  2  0  0  0  0
  1  2  1  0  0  0  0
  2  3  1  0  0  0  0
  2  4  2  0  0  0  0
  4  5  1  0  0  0  0
  5  6  2  0  0  0  0
  5 11  1  0  0  0  0
  6  7  1  0  0  0  0
  6  9  1  0  0  0  0
  7  8  1  0  0  0  0
  9 10  1  0  0  0  0
 10 11  2  0  0  0  0
M  END
>  <CHROM.1>
0.63134906,-4.08887129,16.86854134,-2.02417621,-0.00805188,0.94805330

>  <Name>
ligand

>  <RI>
0

>  <Rbt.Current_Directory>
/home/itssahil/PROJECTS/Mol_Feturizer/New_Systems/rnas/4LVZ

>  <Rbt.Executable>
rbdock ($Id: //depot/dev/client3/rdock/2013.1/src/exe/rbdock.cxx#4 $)

>  <Rbt.Library>
libRbt.so (2013.1, Build901 2013/11/27)

>  <Rbt.Parameter_File>
/export/apps/rDock/src/rDock_2013.1_src/data/scripts/dock_solv.prm

>  <Rbt.Receptor>
prm/blind_docking_20.prm

>  <SCORE>
-5.67399

>  <SCORE.INTER>
-5.67606

>  <SCORE.INTER.CONST>
1

>  <SCORE.INTER.POLAR>
0

>  <SCORE.INTER.ROT>
0

>  <SCORE.INTER.SOLV>
4.82778

>  <SCORE.INTER.VDW>
-8.9933

>  <SCORE.INTER.norm>
-0.516006

>  <SCORE.INTRA>
0

>  <SCORE.INTRA.DIHEDRAL>
0

>  <SCORE.INTRA.DIHEDRAL.0>
0

>  <SCORE.INTRA.POLAR>
0

>  <SCORE.INTRA.POLAR.0>
0

>  <SCORE.INTRA.REPUL>
0

>  <SCORE.INTRA.REPUL.0>
0

>  <SCORE.INTRA.SOLV>
0

>  <SCORE.INTRA.SOLV.lig_0>
-49.4056

>  <SCORE.INTRA.VDW>
0

>  <SCORE.INTRA.VDW.0>
0

>  <SCORE.INTRA.norm>
0

>  <SCORE.RESTR>
0.0020781

>  <SCORE.RESTR.CAVITY>
0.0020781

>  <SCORE.RESTR.norm>
0.000188918

>  <SCORE.SYSTEM>
0

>  <SCORE.SYSTEM.CONST>
0

>  <SCORE.SYSTEM.DIHEDRAL>
0

>  <SCORE.SYSTEM.SOLV>
0

>  <SCORE.SYSTEM.norm>
0

>  <SCORE.heavy>
11

>  <SCORE.norm>
-0.515817

>  <RMSD>
19.150

$$$$
ligand
 OpenBabel11021811503D
libRbt.so/2013.1/901 2013/11/27
 11 12  0  0  0  0  0  0  0  0999 V2000
    0.6945   -5.1243   15.4110 N   0  0  0  0  0  0  0  0  0  0  0  0
   -0.6026   -4.8771   15.7189 C   0  0  0  0  0  0  0  0  0  0  0  0
   -1.6616   -5.4170   14.9195 N   0  0  0  0  0  0  0  0  0  0  0  0
   -0.9249   -4.1143   16.7787 N   0  0  0  0  0  0  0  0  0  0  0  0
    0.0465   -3.5669   17.5863 C   0  0  0  0  0  0  0  0  0  0  0  0
    1.3779   -3.8002   17.2941 C   0  0  0  0  0  0  0  0  0  0  0  0
    1.6927   -4.6081   16.1609 C   0  0  0  0  0  0  0  0  0  0  0  0
    3.0601   -4.8681   15.8285 N   0  0  0  0  0  0  0  0  0  0  0  0
    2.1171   -3.1355   18.2541 N   0  0  0  0  0  0  0  0  0  0  0  0
    1.2721   -2.5122   19.0998 C   0  0  0  0  0  0  0  0  0  0  0  0
    0.0043   -2.7582   18.7135 N   0  0  0  0  0  0  0  0  0  0  0  0
  1  7  2  0  0  0  0
  1  2  1  0  0  0  0
  2  3  1  0  0  0  0
  2  4  2  0  0  0  0
  4  5  1  0  0  0  0
  5  6  2  0  0  0  0
  5 11  1  0  0  0  0
  6  7  1  0  0  0  0
  6  9  1  0  0  0  0
  7  8  1  0  0  0  0
  9 10  1  0  0  0  0
 10 11  2  0  0  0  0
M  END
>  <CHROM.1>
0.63538093,-4.08480638,16.86806480,-2.02324796,-0.01695965,0.95358884

>  <Name>
ligand

>  <RI>
0

>  <Rbt.Current_Directory>
/home/itssahil/PROJECTS/Mol_Feturizer/New_Systems/rnas/4LVZ

>  <Rbt.Executable>
rbdock ($Id: //depot/dev/client3/rdock/2013.1/src/exe/rbdock.cxx#4 $)

>  <Rbt.Library>
libRbt.so (2013.1, Build901 2013/11/27)

>  <Rbt.Parameter_File>
/export/apps/rDock/src/rDock_2013.1_src/data/scripts/dock_solv.prm

>  <Rbt.Receptor>
prm/blind_docking_20.prm

>  <SCORE>
-5.68057

>  <SCORE.INTER>
-5.68294

>  <SCORE.INTER.CONST>
1

>  <SCORE.INTER.POLAR>
0

>  <SCORE.INTER.ROT>
0

>  <SCORE.INTER.SOLV>
4.79611

>  <SCORE.INTER.VDW>
-8.98733

>  <SCORE.INTER.norm>
-0.516631

>  <SCORE.INTRA>
0

>  <SCORE.INTRA.DIHEDRAL>
0

>  <SCORE.INTRA.DIHEDRAL.0>
0

>  <SCORE.INTRA.POLAR>
0

>  <SCORE.INTRA.POLAR.0>
0

>  <SCORE.INTRA.REPUL>
0

>  <SCORE.INTRA.REPUL.0>
0

>  <SCORE.INTRA.SOLV>
0

>  <SCORE.INTRA.SOLV.lig_0>
-49.4056

>  <SCORE.INTRA.VDW>
0

>  <SCORE.INTRA.VDW.0>
0

>  <SCORE.INTRA.norm>
0

>  <SCORE.RESTR>
0.00237648

>  <SCORE.RESTR.CAVITY>
0.00237648

>  <SCORE.RESTR.norm>
0.000216043

>  <SCORE.SYSTEM>
0

>  <SCORE.SYSTEM.CONST>
0

>  <SCORE.SYSTEM.DIHEDRAL>
0

>  <SCORE.SYSTEM.SOLV>
0

>  <SCORE.SYSTEM.norm>
0

>  <SCORE.heavy>
11

>  <SCORE.norm>
-0.516415

>  <RMSD>
19.153

$$$$
ligand
 OpenBabel11021811503D
libRbt.so/2013.1/901 2013/11/27
 11 12  0  0  0  0  0  0  0  0999 V2000
   -0.2530   -4.7342   16.1224 N   0  0  0  0  0  0  0  0  0  0  0  0
   -1.4726   -4.7286   16.7150 C   0  0  0  0  0  0  0  0  0  0  0  0
   -2.5751   -5.4318   16.1303 N   0  0  0  0  0  0  0  0  0  0  0  0
   -1.6768   -4.0577   17.8626 N   0  0  0  0  0  0  0  0  0  0  0  0
   -0.6578   -3.3629   18.4746 C   0  0  0  0  0  0  0  0  0  0  0  0
    0.5958   -3.3492   17.8908 C   0  0  0  0  0  0  0  0  0  0  0  0
    0.7842   -4.0642   16.6706 C   0  0  0  0  0  0  0  0  0  0  0  0
    2.0679   -4.0694   16.0382 N   0  0  0  0  0  0  0  0  0  0  0  0
    1.4056   -2.5836   18.7081 N   0  0  0  0  0  0  0  0  0  0  0  0
    0.6756   -2.1386   19.7506 C   0  0  0  0  0  0  0  0  0  0  0  0
   -0.5858   -2.5984   19.6308 N   0  0  0  0  0  0  0  0  0  0  0  0
  1  7  2  0  0  0  0
  1  2  1  0  0  0  0
  2  3  1  0  0  0  0
  2  4  2  0  0  0  0
  4  5  1  0  0  0  0
  5  6  2  0  0  0  0
  5 11  1  0  0  0  0
  6  7  1  0  0  0  0
  6  9  1  0  0  0  0
  7  8  1  0  0  0  0
  9 10  1  0  0  0  0
 10 11  2  0  0  0  0
M  END
>  <CHROM.1>
-0.16342808,-3.75254311,17.61750886,-2.10850169,0.25239785,1.00468638

>  <Name>
ligand

>  <RI>
0

>  <Rbt.Current_Directory>
/home/itssahil/PROJECTS/Mol_Feturizer/New_Systems/rnas/4LVZ

>  <Rbt.Executable>
rbdock ($Id: //depot/dev/client3/rdock/2013.1/src/exe/rbdock.cxx#4 $)

>  <Rbt.Library>
libRbt.so (2013.1, Build901 2013/11/27)

>  <Rbt.Parameter_File>
/export/apps/rDock/src/rDock_2013.1_src/data/scripts/dock_solv.prm

>  <Rbt.Receptor>
prm/blind_docking_40.prm

>  <SCORE>
-6.4174

>  <SCORE.INTER>
-6.4174

>  <SCORE.INTER.CONST>
1

>  <SCORE.INTER.POLAR>
0

>  <SCORE.INTER.ROT>
0

>  <SCORE.INTER.SOLV>
2.57722

>  <SCORE.INTER.VDW>
-8.73734

>  <SCORE.INTER.norm>
-0.5834

>  <SCORE.INTRA>
0

>  <SCORE.INTRA.DIHEDRAL>
0

>  <SCORE.INTRA.DIHEDRAL.0>
0

>  <SCORE.INTRA.POLAR>
0

>  <SCORE.INTRA.POLAR.0>
0

>  <SCORE.INTRA.REPUL>
0

>  <SCORE.INTRA.REPUL.0>
0

>  <SCORE.INTRA.SOLV>
0

>  <SCORE.INTRA.SOLV.lig_0>
-49.4056

>  <SCORE.INTRA.VDW>
0

>  <SCORE.INTRA.VDW.0>
0

>  <SCORE.INTRA.norm>
0

>  <SCORE.RESTR>
0

>  <SCORE.RESTR.CAVITY>
0

>  <SCORE.RESTR.norm>
0

>  <SCORE.SYSTEM>
0

>  <SCORE.SYSTEM.CONST>
0

>  <SCORE.SYSTEM.DIHEDRAL>
0

>  <SCORE.SYSTEM.SOLV>
0

>  <SCORE.SYSTEM.norm>
0

>  <SCORE.heavy>
11

>  <SCORE.norm>
-0.5834

>  <RMSD>
19.162

$$$$
ligand
 OpenBabel11021811503D
libRbt.so/2013.1/901 2013/11/27
 11 12  0  0  0  0  0  0  0  0999 V2000
    1.1109   -4.5179   16.0962 N   0  0  0  0  0  0  0  0  0  0  0  0
    2.3325   -4.2043   16.5940 C   0  0  0  0  0  0  0  0  0  0  0  0
    3.5267   -4.6645   15.9506 N   0  0  0  0  0  0  0  0  0  0  0  0
    2.4511   -3.4587   17.7071 N   0  0  0  0  0  0  0  0  0  0  0  0
    1.3417   -2.9857   18.3713 C   0  0  0  0  0  0  0  0  0  0  0  0
    0.0832   -3.2925   17.8874 C   0  0  0  0  0  0  0  0  0  0  0  0
   -0.0149   -4.0899   16.7082 C   0  0  0  0  0  0  0  0  0  0  0  0
   -1.3017   -4.4280   16.1812 N   0  0  0  0  0  0  0  0  0  0  0  0
   -0.8261   -2.6987   18.7420 N   0  0  0  0  0  0  0  0  0  0  0  0
   -0.1518   -2.0571   19.7174 C   0  0  0  0  0  0  0  0  0  0  0  0
    1.1711   -2.2182   19.5151 N   0  0  0  0  0  0  0  0  0  0  0  0
  1  7  2  0  0  0  0
  1  2  1  0  0  0  0
  2  3  1  0  0  0  0
  2  4  2  0  0  0  0
  4  5  1  0  0  0  0
  5  6  2  0  0  0  0
  5 11  1  0  0  0  0
  6  7  1  0  0  0  0
  6  9  1  0  0  0  0
  7  8  1  0  0  0  0
  9 10  1  0  0  0  0
 10 11  2  0  0  0  0
M  END
>  <CHROM.1>
0.89535469,-3.52327806,17.56970683,0.96464178,0.01421787,-2.16470283

>  <Name>
ligand

>  <RI>
0

>  <Rbt.Current_Directory>
/home/itssahil/PROJECTS/Mol_Feturizer/New_Systems/rnas/4LVZ

>  <Rbt.Executable>
rbdock ($Id: //depot/dev/client3/rdock/2013.1/src/exe/rbdock.cxx#4 $)

>  <Rbt.Library>
libRbt.so (2013.1, Build901 2013/11/27)

>  <Rbt.Parameter_File>
/export/apps/rDock/src/rDock_2013.1_src/data/scripts/dock_solv.prm

>  <Rbt.Receptor>
prm/blind_docking_40.prm

>  <SCORE>
-7.15631

>  <SCORE.INTER>
-7.15631

>  <SCORE.INTER.CONST>
1

>  <SCORE.INTER.POLAR>
0

>  <SCORE.INTER.ROT>
0

>  <SCORE.INTER.SOLV>
5.1507

>  <SCORE.INTER.VDW>
-10.0878

>  <SCORE.INTER.norm>
-0.650573

>  <SCORE.INTRA>
0

>  <SCORE.INTRA.DIHEDRAL>
0

>  <SCORE.INTRA.DIHEDRAL.0>
0

>  <SCORE.INTRA.POLAR>
0

>  <SCORE.INTRA.POLAR.0>
0

>  <SCORE.INTRA.REPUL>
0

>  <SCORE.INTRA.REPUL.0>
0

>  <SCORE.INTRA.SOLV>
0

>  <SCORE.INTRA.SOLV.lig_0>
-49.4056

>  <SCORE.INTRA.VDW>
0

>  <SCORE.INTRA.VDW.0>
0

>  <SCORE.INTRA.norm>
0

>  <SCORE.RESTR>
0

>  <SCORE.RESTR.CAVITY>
0

>  <SCORE.RESTR.norm>
0

>  <SCORE.SYSTEM>
0

>  <SCORE.SYSTEM.CONST>
0

>  <SCORE.SYSTEM.DIHEDRAL>
0

>  <SCORE.SYSTEM.SOLV>
0

>  <SCORE.SYSTEM.norm>
0

>  <SCORE.heavy>
11

>  <SCORE.norm>
-0.650573

>  <RMSD>
19.180

$$$$
ligand
 OpenBabel11021811503D
libRbt.so/2013.1/901 2013/11/27
 11 12  0  0  0  0  0  0  0  0999 V2000
   -0.1994   -4.6614   16.0553 N   0  0  0  0  0  0  0  0  0  0  0  0
   -1.4159   -4.7009   16.6530 C   0  0  0  0  0  0  0  0  0  0  0  0
   -2.5045   -5.4133   16.0535 N   0  0  0  0  0  0  0  0  0  0  0  0
   -1.6301   -4.0671   17.8197 N   0  0  0  0  0  0  0  0  0  0  0  0
   -0.6247   -3.3658   18.4465 C   0  0  0  0  0  0  0  0  0  0  0  0
    0.6254   -3.3065   17.8581 C   0  0  0  0  0  0  0  0  0  0  0  0
    0.8245   -3.9828   16.6176 C   0  0  0  0  0  0  0  0  0  0  0  0
    2.1049   -3.9403   15.9800 N   0  0  0  0  0  0  0  0  0  0  0  0
    1.4210   -2.5450   18.6930 N   0  0  0  0  0  0  0  0  0  0  0  0
    0.6860   -2.1464   19.7505 C   0  0  0  0  0  0  0  0  0  0  0  0
   -0.5650   -2.6322   19.6233 N   0  0  0  0  0  0  0  0  0  0  0  0
  1  7  2  0  0  0  0
  1  2  1  0  0  0  0
  2  3  1  0  0  0  0
  2  4  2  0  0  0  0
  4  5  1  0  0  0  0
  5  6  2  0  0  0  0
  5 11  1  0  0  0  0
  6  7  1  0  0  0  0
  6  9  1  0  0  0  0
  7  8  1  0  0  0  0
  9 10  1  0  0  0  0
 10 11  2  0  0  0  0
M  END
>  <CHROM.1>
-0.12553027,-3.71981526,17.57683113,-2.09973939,0.27469510,1.03021525

>  <Name>
ligand

>  <RI>
0

>  <Rbt.Current_Directory>
/home/itssahil/PROJECTS/Mol_Feturizer/New_Systems/rnas/4LVZ

>  <Rbt.Executable>
rbdock ($Id: //depot/dev/client3/rdock/2013.1/src/exe/rbdock.cxx#4 $)

>  <Rbt.Library>
libRbt.so (2013.1, Build901 2013/11/27)

>  <Rbt.Parameter_File>
/export/apps/rDock/src/rDock_2013.1_src/data/scripts/dock_solv.prm

>  <Rbt.Receptor>
prm/blind_docking_40.prm

>  <SCORE>
-6.37708

>  <SCORE.INTER>
-6.37708

>  <SCORE.INTER.CONST>
1

>  <SCORE.INTER.POLAR>
0

>  <SCORE.INTER.ROT>
0

>  <SCORE.INTER.SOLV>
2.85601

>  <SCORE.INTER.VDW>
-8.80339

>  <SCORE.INTER.norm>
-0.579734

>  <SCORE.INTRA>
0

>  <SCORE.INTRA.DIHEDRAL>
0

>  <SCORE.INTRA.DIHEDRAL.0>
0

>  <SCORE.INTRA.POLAR>
0

>  <SCORE.INTRA.POLAR.0>
0

>  <SCORE.INTRA.REPUL>
0

>  <SCORE.INTRA.REPUL.0>
0

>  <SCORE.INTRA.SOLV>
0

>  <SCORE.INTRA.SOLV.lig_0>
-49.4056

>  <SCORE.INTRA.VDW>
0

>  <SCORE.INTRA.VDW.0>
0

>  <SCORE.INTRA.norm>
0

>  <SCORE.RESTR>
0

>  <SCORE.RESTR.CAVITY>
0

>  <SCORE.RESTR.norm>
0

>  <SCORE.SYSTEM>
0

>  <SCORE.SYSTEM.CONST>
0

>  <SCORE.SYSTEM.DIHEDRAL>
0

>  <SCORE.SYSTEM.SOLV>
0

>  <SCORE.SYSTEM.norm>
0

>  <SCORE.heavy>
11

>  <SCORE.norm>
-0.579734

>  <RMSD>
19.203

$$$$
ligand
 OpenBabel11021811503D
libRbt.so/2013.1/901 2013/11/27
 11 12  0  0  0  0  0  0  0  0999 V2000
    0.6861   -4.7503   15.1774 N   0  0  0  0  0  0  0  0  0  0  0  0
   -0.5886   -4.7744   15.6389 C   0  0  0  0  0  0  0  0  0  0  0  0
   -1.6301   -5.4042   14.8834 N   0  0  0  0  0  0  0  0  0  0  0  0
   -0.9058   -4.2022   16.8140 N   0  0  0  0  0  0  0  0  0  0  0  0
    0.0496   -3.5816   17.5870 C   0  0  0  0  0  0  0  0  0  0  0  0
    1.3574   -3.5396   17.1395 C   0  0  0  0  0  0  0  0  0  0  0  0
    1.6661   -4.1492   15.8869 C   0  0  0  0  0  0  0  0  0  0  0  0
    3.0089   -4.1224   15.3927 N   0  0  0  0  0  0  0  0  0  0  0  0
    2.0840   -2.8626   18.1005 N   0  0  0  0  0  0  0  0  0  0  0  0
    1.2529   -2.4969   19.0971 C   0  0  0  0  0  0  0  0  0  0  0  0
    0.0070   -2.9218   18.8074 N   0  0  0  0  0  0  0  0  0  0  0  0
  1  7  2  0  0  0  0
  1  2  1  0  0  0  0
  2  3  1  0  0  0  0
  2  4  2  0  0  0  0
  4  5  1  0  0  0  0
  5  6  2  0  0  0  0
  5 11  1  0  0  0  0
  6  7  1  0  0  0  0
  6  9  1  0  0  0  0
  7  8  1  0  0  0  0
  9 10  1  0  0  0  0
 10 11  2  0  0  0  0
M  END
>  <CHROM.1>
0.62743841,-3.90407923,16.75454747,-2.02332498,0.18797212,1.07400775

>  <Name>
ligand

>  <RI>
0

>  <Rbt.Current_Directory>
/home/itssahil/PROJECTS/Mol_Feturizer/New_Systems/rnas/4LVZ

>  <Rbt.Executable>
rbdock ($Id: //depot/dev/client3/rdock/2013.1/src/exe/rbdock.cxx#4 $)

>  <Rbt.Library>
libRbt.so (2013.1, Build901 2013/11/27)

>  <Rbt.Parameter_File>
/export/apps/rDock/src/rDock_2013.1_src/data/scripts/dock_solv.prm

>  <Rbt.Receptor>
prm/blind_docking_20.prm

>  <SCORE>
-5.55553

>  <SCORE.INTER>
-5.55557

>  <SCORE.INTER.CONST>
1

>  <SCORE.INTER.POLAR>
0

>  <SCORE.INTER.ROT>
0

>  <SCORE.INTER.SOLV>
3.86777

>  <SCORE.INTER.VDW>
-8.59297

>  <SCORE.INTER.norm>
-0.505052

>  <SCORE.INTRA>
0

>  <SCORE.INTRA.DIHEDRAL>
0

>  <SCORE.INTRA.DIHEDRAL.0>
0

>  <SCORE.INTRA.POLAR>
0

>  <SCORE.INTRA.POLAR.0>
0

>  <SCORE.INTRA.REPUL>
0

>  <SCORE.INTRA.REPUL.0>
0

>  <SCORE.INTRA.SOLV>
0

>  <SCORE.INTRA.SOLV.lig_0>
-49.4056

>  <SCORE.INTRA.VDW>
0

>  <SCORE.INTRA.VDW.0>
0

>  <SCORE.INTRA.norm>
0

>  <SCORE.RESTR>
4.14008e-05

>  <SCORE.RESTR.CAVITY>
4.14008e-05

>  <SCORE.RESTR.norm>
3.76371e-06

>  <SCORE.SYSTEM>
0

>  <SCORE.SYSTEM.CONST>
0

>  <SCORE.SYSTEM.DIHEDRAL>
0

>  <SCORE.SYSTEM.SOLV>
0

>  <SCORE.SYSTEM.norm>
0

>  <SCORE.heavy>
11

>  <SCORE.norm>
-0.505048

>  <RMSD>
19.356

$$$$
ligand
 OpenBabel11021811503D
libRbt.so/2013.1/901 2013/11/27
 11 12  0  0  0  0  0  0  0  0999 V2000
    0.7057   -4.7719   15.1729 N   0  0  0  0  0  0  0  0  0  0  0  0
   -0.5651   -4.8216   15.6431 C   0  0  0  0  0  0  0  0  0  0  0  0
   -1.5958   -5.4847   14.9015 N   0  0  0  0  0  0  0  0  0  0  0  0
   -0.8885   -4.2443   16.8140 N   0  0  0  0  0  0  0  0  0  0  0  0
    0.0566   -3.5923   17.5738 C   0  0  0  0  0  0  0  0  0  0  0  0
    1.3601   -3.5238   17.1171 C   0  0  0  0  0  0  0  0  0  0  0  0
    1.6754   -4.1396   15.8692 C   0  0  0  0  0  0  0  0  0  0  0  0
    3.0140   -4.0859   15.3659 N   0  0  0  0  0  0  0  0  0  0  0  0
    2.0762   -2.8188   18.0658 N   0  0  0  0  0  0  0  0  0  0  0  0
    1.2430   -2.4622   19.0639 C   0  0  0  0  0  0  0  0  0  0  0  0
    0.0058   -2.9203   18.7871 N   0  0  0  0  0  0  0  0  0  0  0  0
  1  7  2  0  0  0  0
  1  2  1  0  0  0  0
  2  3  1  0  0  0  0
  2  4  2  0  0  0  0
  4  5  1  0  0  0  0
  5  6  2  0  0  0  0
  5 11  1  0  0  0  0
  6  7  1  0  0  0  0
  6  9  1  0  0  0  0
  7  8  1  0  0  0  0
  9 10  1  0  0  0  0
 10 11  2  0  0  0  0
M  END
>  <CHROM.1>
0.63673051,-3.90994772,16.74106842,-2.01729864,0.21227178,1.06181779

>  <Name>
ligand

>  <RI>
0

>  <Rbt.Current_Directory>
/home/itssahil/PROJECTS/Mol_Feturizer/New_Systems/rnas/4LVZ

>  <Rbt.Executable>
rbdock ($Id: //depot/dev/client3/rdock/2013.1/src/exe/rbdock.cxx#4 $)

>  <Rbt.Library>
libRbt.so (2013.1, Build901 2013/11/27)

>  <Rbt.Parameter_File>
/export/apps/rDock/src/rDock_2013.1_src/data/scripts/dock_solv.prm

>  <Rbt.Receptor>
prm/blind_docking_20.prm

>  <SCORE>
-5.53679

>  <SCORE.INTER>
-5.53679

>  <SCORE.INTER.CONST>
1

>  <SCORE.INTER.POLAR>
0

>  <SCORE.INTER.ROT>
0

>  <SCORE.INTER.SOLV>
4.02853

>  <SCORE.INTER.VDW>
-8.63404

>  <SCORE.INTER.norm>
-0.503345

>  <SCORE.INTRA>
0

>  <SCORE.INTRA.DIHEDRAL>
0

>  <SCORE.INTRA.DIHEDRAL.0>
0

>  <SCORE.INTRA.POLAR>
0

>  <SCORE.INTRA.POLAR.0>
0

>  <SCORE.INTRA.REPUL>
0

>  <SCORE.INTRA.REPUL.0>
0

>  <SCORE.INTRA.SOLV>
0

>  <SCORE.INTRA.SOLV.lig_0>
-49.4056

>  <SCORE.INTRA.VDW>
0

>  <SCORE.INTRA.VDW.0>
0

>  <SCORE.INTRA.norm>
0

>  <SCORE.RESTR>
0

>  <SCORE.RESTR.CAVITY>
0

>  <SCORE.RESTR.norm>
0

>  <SCORE.SYSTEM>
0

>  <SCORE.SYSTEM.CONST>
0

>  <SCORE.SYSTEM.DIHEDRAL>
0

>  <SCORE.SYSTEM.SOLV>
0

>  <SCORE.SYSTEM.norm>
0

>  <SCORE.heavy>
11

>  <SCORE.norm>
-0.503345

>  <RMSD>
19.357

$$$$
ligand
 OpenBabel11021811503D
libRbt.so/2013.1/901 2013/11/27
 11 12  0  0  0  0  0  0  0  0999 V2000
    0.6839   -4.6969   15.1340 N   0  0  0  0  0  0  0  0  0  0  0  0
   -0.5765   -4.6950   15.6338 C   0  0  0  0  0  0  0  0  0  0  0  0
   -1.6596   -5.2707   14.8938 N   0  0  0  0  0  0  0  0  0  0  0  0
   -0.8401   -4.1473   16.8335 N   0  0  0  0  0  0  0  0  0  0  0  0
    0.1573   -3.5787   17.5935 C   0  0  0  0  0  0  0  0  0  0  0  0
    1.4517   -3.5641   17.1071 C   0  0  0  0  0  0  0  0  0  0  0  0
    1.7033   -4.1468   15.8292 C   0  0  0  0  0  0  0  0  0  0  0  0
    3.0308   -4.1472   15.2947 N   0  0  0  0  0  0  0  0  0  0  0  0
    2.2279   -2.9375   18.0636 N   0  0  0  0  0  0  0  0  0  0  0  0
    1.4391   -2.5751   19.0952 C   0  0  0  0  0  0  0  0  0  0  0  0
    0.1722   -2.9531   18.8324 N   0  0  0  0  0  0  0  0  0  0  0  0
  1  7  2  0  0  0  0
  1  2  1  0  0  0  0
  2  3  1  0  0  0  0
  2  4  2  0  0  0  0
  4  5  1  0  0  0  0
  5  6  2  0  0  0  0
  5 11  1  0  0  0  0
  6  7  1  0  0  0  0
  6  9  1  0  0  0  0
  7  8  1  0  0  0  0
  9 10  1  0  0  0  0
 10 11  2  0  0  0  0
M  END
>  <CHROM.1>
0.69939581,-3.89478178,16.73501912,-2.06543992,0.17435268,1.10976824

>  <Name>
ligand

>  <RI>
0

>  <Rbt.Current_Directory>
/home/itssahil/PROJECTS/Mol_Feturizer/New_Systems/rnas/4LVZ

>  <Rbt.Executable>
rbdock ($Id: //depot/dev/client3/rdock/2013.1/src/exe/rbdock.cxx#4 $)

>  <Rbt.Library>
libRbt.so (2013.1, Build901 2013/11/27)

>  <Rbt.Parameter_File>
/export/apps/rDock/src/rDock_2013.1_src/data/scripts/dock_solv.prm

>  <Rbt.Receptor>
prm/blind_docking_20.prm

>  <SCORE>
-5.53829

>  <SCORE.INTER>
-5.53829

>  <SCORE.INTER.CONST>
1

>  <SCORE.INTER.POLAR>
0

>  <SCORE.INTER.ROT>
0

>  <SCORE.INTER.SOLV>
3.98062

>  <SCORE.INTER.VDW>
-8.61907

>  <SCORE.INTER.norm>
-0.503481

>  <SCORE.INTRA>
0

>  <SCORE.INTRA.DIHEDRAL>
0

>  <SCORE.INTRA.DIHEDRAL.0>
0

>  <SCORE.INTRA.POLAR>
0

>  <SCORE.INTRA.POLAR.0>
0

>  <SCORE.INTRA.REPUL>
0

>  <SCORE.INTRA.REPUL.0>
0

>  <SCORE.INTRA.SOLV>
0

>  <SCORE.INTRA.SOLV.lig_0>
-49.4056

>  <SCORE.INTRA.VDW>
0

>  <SCORE.INTRA.VDW.0>
0

>  <SCORE.INTRA.norm>
0

>  <SCORE.RESTR>
0

>  <SCORE.RESTR.CAVITY>
0

>  <SCORE.RESTR.norm>
0

>  <SCORE.SYSTEM>
0

>  <SCORE.SYSTEM.CONST>
0

>  <SCORE.SYSTEM.DIHEDRAL>
0

>  <SCORE.SYSTEM.SOLV>
0

>  <SCORE.SYSTEM.norm>
0

>  <SCORE.heavy>
11

>  <SCORE.norm>
-0.503481

>  <RMSD>
19.368

$$$$
ligand
 OpenBabel11021811503D
libRbt.so/2013.1/901 2013/11/27
 11 12  0  0  0  0  0  0  0  0999 V2000
    0.7371   -4.7193   15.1652 N   0  0  0  0  0  0  0  0  0  0  0  0
   -0.5362   -4.7371   15.6312 C   0  0  0  0  0  0  0  0  0  0  0  0
   -1.5851   -5.3532   14.8748 N   0  0  0  0  0  0  0  0  0  0  0  0
   -0.8447   -4.1714   16.8117 N   0  0  0  0  0  0  0  0  0  0  0  0
    0.1182   -3.5640   17.5859 C   0  0  0  0  0  0  0  0  0  0  0  0
    1.4247   -3.5287   17.1339 C   0  0  0  0  0  0  0  0  0  0  0  0
    1.7242   -4.1312   15.8757 C   0  0  0  0  0  0  0  0  0  0  0  0
    3.0654   -4.1110   15.3769 N   0  0  0  0  0  0  0  0  0  0  0  0
    2.1599   -2.8646   18.0974 N   0  0  0  0  0  0  0  0  0  0  0  0
    1.3353   -2.5000   19.0998 C   0  0  0  0  0  0  0  0  0  0  0  0
    0.0850   -2.9132   18.8113 N   0  0  0  0  0  0  0  0  0  0  0  0
  1  7  2  0  0  0  0
  1  2  1  0  0  0  0
  2  3  1  0  0  0  0
  2  4  2  0  0  0  0
  4  5  1  0  0  0  0
  5  6  2  0  0  0  0
  5 11  1  0  0  0  0
  6  7  1  0  0  0  0
  6  9  1  0  0  0  0
  7  8  1  0  0  0  0
  9 10  1  0  0  0  0
 10 11  2  0  0  0  0
M  END
>  <CHROM.1>
0.69057450,-3.88462470,16.74893168,-2.03025892,0.18288455,1.08284056

>  <Name>
ligand

>  <RI>
0

>  <Rbt.Current_Directory>
/home/itssahil/PROJECTS/Mol_Feturizer/New_Systems/rnas/4LVZ

>  <Rbt.Executable>
rbdock ($Id: //depot/dev/client3/rdock/2013.1/src/exe/rbdock.cxx#4 $)

>  <Rbt.Library>
libRbt.so (2013.1, Build901 2013/11/27)

>  <Rbt.Parameter_File>
/export/apps/rDock/src/rDock_2013.1_src/data/scripts/dock_solv.prm

>  <Rbt.Receptor>
prm/blind_docking_20.prm

>  <SCORE>
-5.57126

>  <SCORE.INTER>
-5.57126

>  <SCORE.INTER.CONST>
1

>  <SCORE.INTER.POLAR>
0

>  <SCORE.INTER.ROT>
0

>  <SCORE.INTER.SOLV>
3.92611

>  <SCORE.INTER.VDW>
-8.62288

>  <SCORE.INTER.norm>
-0.506478

>  <SCORE.INTRA>
0

>  <SCORE.INTRA.DIHEDRAL>
0

>  <SCORE.INTRA.DIHEDRAL.0>
0

>  <SCORE.INTRA.POLAR>
0

>  <SCORE.INTRA.POLAR.0>
0

>  <SCORE.INTRA.REPUL>
0

>  <SCORE.INTRA.REPUL.0>
0

>  <SCORE.INTRA.SOLV>
0

>  <SCORE.INTRA.SOLV.lig_0>
-49.4056

>  <SCORE.INTRA.VDW>
0

>  <SCORE.INTRA.VDW.0>
0

>  <SCORE.INTRA.norm>
0

>  <SCORE.RESTR>
0

>  <SCORE.RESTR.CAVITY>
0

>  <SCORE.RESTR.norm>
0

>  <SCORE.SYSTEM>
0

>  <SCORE.SYSTEM.CONST>
0

>  <SCORE.SYSTEM.DIHEDRAL>
0

>  <SCORE.SYSTEM.SOLV>
0

>  <SCORE.SYSTEM.norm>
0

>  <SCORE.heavy>
11

>  <SCORE.norm>
-0.506478

>  <RMSD>
19.370

$$$$
ligand
 OpenBabel11021811503D
libRbt.so/2013.1/901 2013/11/27
 11 12  0  0  0  0  0  0  0  0999 V2000
    0.5766   -4.7234   15.1745 N   0  0  0  0  0  0  0  0  0  0  0  0
   -0.6887   -4.7505   15.6613 C   0  0  0  0  0  0  0  0  0  0  0  0
   -1.7453   -5.3749   14.9226 N   0  0  0  0  0  0  0  0  0  0  0  0
   -0.9820   -4.1865   16.8465 N   0  0  0  0  0  0  0  0  0  0  0  0
   -0.0111   -3.5714   17.6045 C   0  0  0  0  0  0  0  0  0  0  0  0
    1.2875   -3.5266   17.1311 C   0  0  0  0  0  0  0  0  0  0  0  0
    1.5708   -4.1275   15.8684 C   0  0  0  0  0  0  0  0  0  0  0  0
    2.9034   -4.0975   15.3476 N   0  0  0  0  0  0  0  0  0  0  0  0
    2.0334   -2.8564   18.0820 N   0  0  0  0  0  0  0  0  0  0  0  0
    1.2226   -2.4975   19.0977 C   0  0  0  0  0  0  0  0  0  0  0  0
   -0.0290   -2.9202   18.8301 N   0  0  0  0  0  0  0  0  0  0  0  0
  1  7  2  0  0  0  0
  1  2  1  0  0  0  0
  2  3  1  0  0  0  0
  2  4  2  0  0  0  0
  4  5  1  0  0  0  0
  5  6  2  0  0  0  0
  5 11  1  0  0  0  0
  6  7  1  0  0  0  0
  6  9  1  0  0  0  0
  7  8  1  0  0  0  0
  9 10  1  0  0  0  0
 10 11  2  0  0  0  0
M  END
>  <CHROM.1>
0.54984372,-3.88820755,16.75840903,-2.04147220,0.19722706,1.08445211

>  <Name>
ligand

>  <RI>
0

>  <Rbt.Current_Directory>
/home/itssahil/PROJECTS/Mol_Feturizer/New_Systems/rnas/4LVZ

>  <Rbt.Executable>
rbdock ($Id: //depot/dev/client3/rdock/2013.1/src/exe/rbdock.cxx#4 $)

>  <Rbt.Library>
libRbt.so (2013.1, Build901 2013/11/27)

>  <Rbt.Parameter_File>
/export/apps/rDock/src/rDock_2013.1_src/data/scripts/dock_solv.prm

>  <Rbt.Receptor>
prm/blind_docking_20.prm

>  <SCORE>
-5.61769

>  <SCORE.INTER>
-5.61769

>  <SCORE.INTER.CONST>
1

>  <SCORE.INTER.POLAR>
0

>  <SCORE.INTER.ROT>
0

>  <SCORE.INTER.SOLV>
3.68191

>  <SCORE.INTER.VDW>
-8.57243

>  <SCORE.INTER.norm>
-0.510699

>  <SCORE.INTRA>
0

>  <SCORE.INTRA.DIHEDRAL>
0

>  <SCORE.INTRA.DIHEDRAL.0>
0

>  <SCORE.INTRA.POLAR>
0

>  <SCORE.INTRA.POLAR.0>
0

>  <SCORE.INTRA.REPUL>
0

>  <SCORE.INTRA.REPUL.0>
0

>  <SCORE.INTRA.SOLV>
0

>  <SCORE.INTRA.SOLV.lig_0>
-49.4056

>  <SCORE.INTRA.VDW>
0

>  <SCORE.INTRA.VDW.0>
0

>  <SCORE.INTRA.norm>
0

>  <SCORE.RESTR>
0

>  <SCORE.RESTR.CAVITY>
0

>  <SCORE.RESTR.norm>
0

>  <SCORE.SYSTEM>
0

>  <SCORE.SYSTEM.CONST>
0

>  <SCORE.SYSTEM.DIHEDRAL>
0

>  <SCORE.SYSTEM.SOLV>
0

>  <SCORE.SYSTEM.norm>
0

>  <SCORE.heavy>
11

>  <SCORE.norm>
-0.510699

>  <RMSD>
19.374

$$$$
ligand
 OpenBabel11021811503D
libRbt.so/2013.1/901 2013/11/27
 11 12  0  0  0  0  0  0  0  0999 V2000
    0.6230   -4.7071   15.1485 N   0  0  0  0  0  0  0  0  0  0  0  0
   -0.6445   -4.6994   15.6301 C   0  0  0  0  0  0  0  0  0  0  0  0
   -1.7167   -5.2845   14.8818 N   0  0  0  0  0  0  0  0  0  0  0  0
   -0.9253   -4.1368   16.8190 N   0  0  0  0  0  0  0  0  0  0  0  0
    0.0610   -3.5586   17.5862 C   0  0  0  0  0  0  0  0  0  0  0  0
    1.3623   -3.5497   17.1182 C   0  0  0  0  0  0  0  0  0  0  0  0
    1.6322   -4.1481   15.8514 C   0  0  0  0  0  0  0  0  0  0  0  0
    2.9673   -4.1548   15.3360 N   0  0  0  0  0  0  0  0  0  0  0  0
    2.1246   -2.9111   18.0779 N   0  0  0  0  0  0  0  0  0  0  0  0
    1.3210   -2.5361   19.0935 C   0  0  0  0  0  0  0  0  0  0  0  0
    0.0581   -2.9177   18.8173 N   0  0  0  0  0  0  0  0  0  0  0  0
  1  7  2  0  0  0  0
  1  2  1  0  0  0  0
  2  3  1  0  0  0  0
  2  4  2  0  0  0  0
  4  5  1  0  0  0  0
  5  6  2  0  0  0  0
  5 11  1  0  0  0  0
  6  7  1  0  0  0  0
  6  9  1  0  0  0  0
  7  8  1  0  0  0  0
  9 10  1  0  0  0  0
 10 11  2  0  0  0  0
M  END
>  <CHROM.1>
0.61543483,-3.88516883,16.73950991,-2.05235412,0.16803834,1.09512860

>  <Name>
ligand

>  <RI>
0

>  <Rbt.Current_Directory>
/home/itssahil/PROJECTS/Mol_Feturizer/New_Systems/rnas/4LVZ

>  <Rbt.Executable>
rbdock ($Id: //depot/dev/client3/rdock/2013.1/src/exe/rbdock.cxx#4 $)

>  <Rbt.Library>
libRbt.so (2013.1, Build901 2013/11/27)

>  <Rbt.Parameter_File>
/export/apps/rDock/src/rDock_2013.1_src/data/scripts/dock_solv.prm

>  <Rbt.Receptor>
prm/blind_docking_20.prm

>  <SCORE>
-5.58681

>  <SCORE.INTER>
-5.58681

>  <SCORE.INTER.CONST>
1

>  <SCORE.INTER.POLAR>
0

>  <SCORE.INTER.ROT>
0

>  <SCORE.INTER.SOLV>
3.87236

>  <SCORE.INTER.VDW>
-8.61533

>  <SCORE.INTER.norm>
-0.507892

>  <SCORE.INTRA>
0

>  <SCORE.INTRA.DIHEDRAL>
0

>  <SCORE.INTRA.DIHEDRAL.0>
0

>  <SCORE.INTRA.POLAR>
0

>  <SCORE.INTRA.POLAR.0>
0

>  <SCORE.INTRA.REPUL>
0

>  <SCORE.INTRA.REPUL.0>
0

>  <SCORE.INTRA.SOLV>
0

>  <SCORE.INTRA.SOLV.lig_0>
-49.4056

>  <SCORE.INTRA.VDW>
0

>  <SCORE.INTRA.VDW.0>
0

>  <SCORE.INTRA.norm>
0

>  <SCORE.RESTR>
0

>  <SCORE.RESTR.CAVITY>
0

>  <SCORE.RESTR.norm>
0

>  <SCORE.SYSTEM>
0

>  <SCORE.SYSTEM.CONST>
0

>  <SCORE.SYSTEM.DIHEDRAL>
0

>  <SCORE.SYSTEM.SOLV>
0

>  <SCORE.SYSTEM.norm>
0

>  <SCORE.heavy>
11

>  <SCORE.norm>
-0.507892

>  <RMSD>
19.380

$$$$
ligand
 OpenBabel11021811503D
libRbt.so/2013.1/901 2013/11/27
 11 12  0  0  0  0  0  0  0  0999 V2000
    0.6561   -4.6921   15.1451 N   0  0  0  0  0  0  0  0  0  0  0  0
   -0.6151   -4.6848   15.6168 C   0  0  0  0  0  0  0  0  0  0  0  0
   -1.6817   -5.2679   14.8589 N   0  0  0  0  0  0  0  0  0  0  0  0
   -0.9050   -4.1246   16.8046 N   0  0  0  0  0  0  0  0  0  0  0  0
    0.0755   -3.5483   17.5806 C   0  0  0  0  0  0  0  0  0  0  0  0
    1.3804   -3.5390   17.1230 C   0  0  0  0  0  0  0  0  0  0  0  0
    1.6600   -4.1350   15.8570 C   0  0  0  0  0  0  0  0  0  0  0  0
    2.9991   -4.1411   15.3522 N   0  0  0  0  0  0  0  0  0  0  0  0
    2.1353   -2.9026   18.0899 N   0  0  0  0  0  0  0  0  0  0  0  0
    1.3240   -2.5294   19.0999 C   0  0  0  0  0  0  0  0  0  0  0  0
    0.0631   -2.9099   18.8130 N   0  0  0  0  0  0  0  0  0  0  0  0
  1  7  2  0  0  0  0
  1  2  1  0  0  0  0
  2  3  1  0  0  0  0
  2  4  2  0  0  0  0
  4  5  1  0  0  0  0
  5  6  2  0  0  0  0
  5 11  1  0  0  0  0
  6  7  1  0  0  0  0
  6  9  1  0  0  0  0
  7  8  1  0  0  0  0
  9 10  1  0  0  0  0
 10 11  2  0  0  0  0
M  END
>  <CHROM.1>
0.63637085,-3.87338224,16.73767137,-2.04545215,0.16406902,1.09602742

>  <Name>
ligand

>  <RI>
0

>  <Rbt.Current_Directory>
/home/itssahil/PROJECTS/Mol_Feturizer/New_Systems/rnas/4LVZ

>  <Rbt.Executable>
rbdock ($Id: //depot/dev/client3/rdock/2013.1/src/exe/rbdock.cxx#4 $)

>  <Rbt.Library>
libRbt.so (2013.1, Build901 2013/11/27)

>  <Rbt.Parameter_File>
/export/apps/rDock/src/rDock_2013.1_src/data/scripts/dock_solv.prm

>  <Rbt.Receptor>
prm/blind_docking_20.prm

>  <SCORE>
-5.64306

>  <SCORE.INTER>
-5.64306

>  <SCORE.INTER.CONST>
1

>  <SCORE.INTER.POLAR>
0

>  <SCORE.INTER.ROT>
0

>  <SCORE.INTER.SOLV>
3.86766

>  <SCORE.INTER.VDW>
-8.65126

>  <SCORE.INTER.norm>
-0.513006

>  <SCORE.INTRA>
0

>  <SCORE.INTRA.DIHEDRAL>
0

>  <SCORE.INTRA.DIHEDRAL.0>
0

>  <SCORE.INTRA.POLAR>
0

>  <SCORE.INTRA.POLAR.0>
0

>  <SCORE.INTRA.REPUL>
0

>  <SCORE.INTRA.REPUL.0>
0

>  <SCORE.INTRA.SOLV>
0

>  <SCORE.INTRA.SOLV.lig_0>
-49.4056

>  <SCORE.INTRA.VDW>
0

>  <SCORE.INTRA.VDW.0>
0

>  <SCORE.INTRA.norm>
0

>  <SCORE.RESTR>
0

>  <SCORE.RESTR.CAVITY>
0

>  <SCORE.RESTR.norm>
0

>  <SCORE.SYSTEM>
0

>  <SCORE.SYSTEM.CONST>
0

>  <SCORE.SYSTEM.DIHEDRAL>
0

>  <SCORE.SYSTEM.SOLV>
0

>  <SCORE.SYSTEM.norm>
0

>  <SCORE.heavy>
11

>  <SCORE.norm>
-0.513006

>  <RMSD>
19.389

$$$$
ligand
 OpenBabel11021811503D
libRbt.so/2013.1/901 2013/11/27
 11 12  0  0  0  0  0  0  0  0999 V2000
    0.6721   -4.6876   15.1435 N   0  0  0  0  0  0  0  0  0  0  0  0
   -0.5986   -4.6811   15.6166 C   0  0  0  0  0  0  0  0  0  0  0  0
   -1.6659   -5.2639   14.8594 N   0  0  0  0  0  0  0  0  0  0  0  0
   -0.8874   -4.1220   16.8052 N   0  0  0  0  0  0  0  0  0  0  0  0
    0.0938   -3.5461   17.5807 C   0  0  0  0  0  0  0  0  0  0  0  0
    1.3982   -3.5360   17.1216 C   0  0  0  0  0  0  0  0  0  0  0  0
    1.6766   -4.1307   15.8548 C   0  0  0  0  0  0  0  0  0  0  0  0
    3.0151   -4.1360   15.3485 N   0  0  0  0  0  0  0  0  0  0  0  0
    2.1540   -2.9003   18.0882 N   0  0  0  0  0  0  0  0  0  0  0  0
    1.3437   -2.5282   19.0995 C   0  0  0  0  0  0  0  0  0  0  0  0
    0.0826   -2.9089   18.8137 N   0  0  0  0  0  0  0  0  0  0  0  0
  1  7  2  0  0  0  0
  1  2  1  0  0  0  0
  2  3  1  0  0  0  0
  2  4  2  0  0  0  0
  4  5  1  0  0  0  0
  5  6  2  0  0  0  0
  5 11  1  0  0  0  0
  6  7  1  0  0  0  0
  6  9  1  0  0  0  0
  7  8  1  0  0  0  0
  9 10  1  0  0  0  0
 10 11  2  0  0  0  0
M  END
>  <CHROM.1>
0.65384966,-3.87029584,16.73684025,-2.04631551,0.16487170,1.09707321

>  <Name>
ligand

>  <RI>
0

>  <Rbt.Current_Directory>
/home/itssahil/PROJECTS/Mol_Feturizer/New_Systems/rnas/4LVZ

>  <Rbt.Executable>
rbdock ($Id: //depot/dev/client3/rdock/2013.1/src/exe/rbdock.cxx#4 $)

>  <Rbt.Library>
libRbt.so (2013.1, Build901 2013/11/27)

>  <Rbt.Parameter_File>
/export/apps/rDock/src/rDock_2013.1_src/data/scripts/dock_solv.prm

>  <Rbt.Receptor>
prm/blind_docking_20.prm

>  <SCORE>
-5.62918

>  <SCORE.INTER>
-5.62918

>  <SCORE.INTER.CONST>
1

>  <SCORE.INTER.POLAR>
0

>  <SCORE.INTER.ROT>
0

>  <SCORE.INTER.SOLV>
3.89209

>  <SCORE.INTER.VDW>
-8.65015

>  <SCORE.INTER.norm>
-0.511744

>  <SCORE.INTRA>
0

>  <SCORE.INTRA.DIHEDRAL>
0

>  <SCORE.INTRA.DIHEDRAL.0>
0

>  <SCORE.INTRA.POLAR>
0

>  <SCORE.INTRA.POLAR.0>
0

>  <SCORE.INTRA.REPUL>
0

>  <SCORE.INTRA.REPUL.0>
0

>  <SCORE.INTRA.SOLV>
0

>  <SCORE.INTRA.SOLV.lig_0>
-49.4056

>  <SCORE.INTRA.VDW>
0

>  <SCORE.INTRA.VDW.0>
0

>  <SCORE.INTRA.norm>
0

>  <SCORE.RESTR>
0

>  <SCORE.RESTR.CAVITY>
0

>  <SCORE.RESTR.norm>
0

>  <SCORE.SYSTEM>
0

>  <SCORE.SYSTEM.CONST>
0

>  <SCORE.SYSTEM.DIHEDRAL>
0

>  <SCORE.SYSTEM.SOLV>
0

>  <SCORE.SYSTEM.norm>
0

>  <SCORE.heavy>
11

>  <SCORE.norm>
-0.511744

>  <RMSD>
19.391

$$$$
ligand
 OpenBabel11021811503D
libRbt.so/2013.1/901 2013/11/27
 11 12  0  0  0  0  0  0  0  0999 V2000
    0.6887   -4.6871   15.1178 N   0  0  0  0  0  0  0  0  0  0  0  0
   -0.5756   -4.6790   15.6077 C   0  0  0  0  0  0  0  0  0  0  0  0
   -1.6546   -5.2547   14.8619 N   0  0  0  0  0  0  0  0  0  0  0  0
   -0.8468   -4.1249   16.8028 N   0  0  0  0  0  0  0  0  0  0  0  0
    0.1463   -3.5559   17.5680 C   0  0  0  0  0  0  0  0  0  0  0  0
    1.4446   -3.5476   17.0918 C   0  0  0  0  0  0  0  0  0  0  0  0
    1.7043   -4.1369   15.8185 C   0  0  0  0  0  0  0  0  0  0  0  0
    3.0360   -4.1439   15.2945 N   0  0  0  0  0  0  0  0  0  0  0  0
    2.2152   -2.9190   18.0514 N   0  0  0  0  0  0  0  0  0  0  0  0
    1.4194   -2.5494   19.0751 C   0  0  0  0  0  0  0  0  0  0  0  0
    0.1535   -2.9246   18.8041 N   0  0  0  0  0  0  0  0  0  0  0  0
  1  7  2  0  0  0  0
  1  2  1  0  0  0  0
  2  3  1  0  0  0  0
  2  4  2  0  0  0  0
  4  5  1  0  0  0  0
  5  6  2  0  0  0  0
  5 11  1  0  0  0  0
  6  7  1  0  0  0  0
  6  9  1  0  0  0  0
  7  8  1  0  0  0  0
  9 10  1  0  0  0  0
 10 11  2  0  0  0  0
M  END
>  <CHROM.1>
0.69416372,-3.87762174,16.71525529,-2.05972369,0.16804793,1.10419309

>  <Name>
ligand

>  <RI>
0

>  <Rbt.Current_Directory>
/home/itssahil/PROJECTS/Mol_Feturizer/New_Systems/rnas/4LVZ

>  <Rbt.Executable>
rbdock ($Id: //depot/dev/client3/rdock/2013.1/src/exe/rbdock.cxx#4 $)

>  <Rbt.Library>
libRbt.so (2013.1, Build901 2013/11/27)

>  <Rbt.Parameter_File>
/export/apps/rDock/src/rDock_2013.1_src/data/scripts/dock_solv.prm

>  <Rbt.Receptor>
prm/blind_docking_20.prm

>  <SCORE>
-5.62512

>  <SCORE.INTER>
-5.62512

>  <SCORE.INTER.CONST>
1

>  <SCORE.INTER.POLAR>
0

>  <SCORE.INTER.ROT>
0

>  <SCORE.INTER.SOLV>
4.01932

>  <SCORE.INTER.VDW>
-8.68985

>  <SCORE.INTER.norm>
-0.511374

>  <SCORE.INTRA>
0

>  <SCORE.INTRA.DIHEDRAL>
0

>  <SCORE.INTRA.DIHEDRAL.0>
0

>  <SCORE.INTRA.POLAR>
0

>  <SCORE.INTRA.POLAR.0>
0

>  <SCORE.INTRA.REPUL>
0

>  <SCORE.INTRA.REPUL.0>
0

>  <SCORE.INTRA.SOLV>
0

>  <SCORE.INTRA.SOLV.lig_0>
-49.4056

>  <SCORE.INTRA.VDW>
0

>  <SCORE.INTRA.VDW.0>
0

>  <SCORE.INTRA.norm>
0

>  <SCORE.RESTR>
0

>  <SCORE.RESTR.CAVITY>
0

>  <SCORE.RESTR.norm>
0

>  <SCORE.SYSTEM>
0

>  <SCORE.SYSTEM.CONST>
0

>  <SCORE.SYSTEM.DIHEDRAL>
0

>  <SCORE.SYSTEM.SOLV>
0

>  <SCORE.SYSTEM.norm>
0

>  <SCORE.heavy>
11

>  <SCORE.norm>
-0.511374

>  <RMSD>
19.393

$$$$
ligand
 OpenBabel11021811503D
libRbt.so/2013.1/901 2013/11/27
 11 12  0  0  0  0  0  0  0  0999 V2000
    0.6952   -4.6752   15.1296 N   0  0  0  0  0  0  0  0  0  0  0  0
   -0.5753   -4.6707   15.6034 C   0  0  0  0  0  0  0  0  0  0  0  0
   -1.6434   -5.2474   14.8428 N   0  0  0  0  0  0  0  0  0  0  0  0
   -0.8629   -4.1191   16.7958 N   0  0  0  0  0  0  0  0  0  0  0  0
    0.1192   -3.5493   17.5746 C   0  0  0  0  0  0  0  0  0  0  0  0
    1.4234   -3.5374   17.1149 C   0  0  0  0  0  0  0  0  0  0  0  0
    1.7006   -4.1240   15.8441 C   0  0  0  0  0  0  0  0  0  0  0  0
    3.0388   -4.1272   15.3371 N   0  0  0  0  0  0  0  0  0  0  0  0
    2.1802   -2.9087   18.0853 N   0  0  0  0  0  0  0  0  0  0  0  0
    1.3707   -2.5426   19.0994 C   0  0  0  0  0  0  0  0  0  0  0  0
    0.1091   -2.9201   18.8117 N   0  0  0  0  0  0  0  0  0  0  0  0
  1  7  2  0  0  0  0
  1  2  1  0  0  0  0
  2  3  1  0  0  0  0
  2  4  2  0  0  0  0
  4  5  1  0  0  0  0
  5  6  2  0  0  0  0
  5 11  1  0  0  0  0
  6  7  1  0  0  0  0
  6  9  1  0  0  0  0
  7  8  1  0  0  0  0
  9 10  1  0  0  0  0
 10 11  2  0  0  0  0
M  END
>  <CHROM.1>
0.67851077,-3.86841517,16.72832863,-2.04717508,0.16424382,1.10379061

>  <Name>
ligand

>  <RI>
0

>  <Rbt.Current_Directory>
/home/itssahil/PROJECTS/Mol_Feturizer/New_Systems/rnas/4LVZ

>  <Rbt.Executable>
rbdock ($Id: //depot/dev/client3/rdock/2013.1/src/exe/rbdock.cxx#4 $)

>  <Rbt.Library>
libRbt.so (2013.1, Build901 2013/11/27)

>  <Rbt.Parameter_File>
/export/apps/rDock/src/rDock_2013.1_src/data/scripts/dock_solv.prm

>  <Rbt.Receptor>
prm/blind_docking_20.prm

>  <SCORE>
-5.64093

>  <SCORE.INTER>
-5.64147

>  <SCORE.INTER.CONST>
1

>  <SCORE.INTER.POLAR>
0

>  <SCORE.INTER.ROT>
0

>  <SCORE.INTER.SOLV>
3.93297

>  <SCORE.INTER.VDW>
-8.67197

>  <SCORE.INTER.norm>
-0.512861

>  <SCORE.INTRA>
0

>  <SCORE.INTRA.DIHEDRAL>
0

>  <SCORE.INTRA.DIHEDRAL.0>
0

>  <SCORE.INTRA.POLAR>
0

>  <SCORE.INTRA.POLAR.0>
0

>  <SCORE.INTRA.REPUL>
0

>  <SCORE.INTRA.REPUL.0>
0

>  <SCORE.INTRA.SOLV>
0

>  <SCORE.INTRA.SOLV.lig_0>
-49.4056

>  <SCORE.INTRA.VDW>
0

>  <SCORE.INTRA.VDW.0>
0

>  <SCORE.INTRA.norm>
0

>  <SCORE.RESTR>
0.000539968

>  <SCORE.RESTR.CAVITY>
0.000539968

>  <SCORE.RESTR.norm>
4.9088e-05

>  <SCORE.SYSTEM>
0

>  <SCORE.SYSTEM.CONST>
0

>  <SCORE.SYSTEM.DIHEDRAL>
0

>  <SCORE.SYSTEM.SOLV>
0

>  <SCORE.SYSTEM.norm>
0

>  <SCORE.heavy>
11

>  <SCORE.norm>
-0.512812

>  <RMSD>
19.395

$$$$
ligand
 OpenBabel11021811503D
libRbt.so/2013.1/901 2013/11/27
 11 12  0  0  0  0  0  0  0  0999 V2000
    0.6637   -4.6983   15.1113 N   0  0  0  0  0  0  0  0  0  0  0  0
   -0.6000   -4.6821   15.6025 C   0  0  0  0  0  0  0  0  0  0  0  0
   -1.6825   -5.2560   14.8603 N   0  0  0  0  0  0  0  0  0  0  0  0
   -0.8673   -4.1215   16.7954 N   0  0  0  0  0  0  0  0  0  0  0  0
    0.1293   -3.5537   17.5571 C   0  0  0  0  0  0  0  0  0  0  0  0
    1.4270   -3.5536   17.0794 C   0  0  0  0  0  0  0  0  0  0  0  0
    1.6826   -4.1497   15.8085 C   0  0  0  0  0  0  0  0  0  0  0  0
    3.0137   -4.1652   15.2831 N   0  0  0  0  0  0  0  0  0  0  0  0
    2.2015   -2.9244   18.0354 N   0  0  0  0  0  0  0  0  0  0  0  0
    1.4087   -2.5465   19.0583 C   0  0  0  0  0  0  0  0  0  0  0  0
    0.1407   -2.9171   18.7904 N   0  0  0  0  0  0  0  0  0  0  0  0
  1  7  2  0  0  0  0
  1  2  1  0  0  0  0
  2  3  1  0  0  0  0
  2  4  2  0  0  0  0
  4  5  1  0  0  0  0
  5  6  2  0  0  0  0
  5 11  1  0  0  0  0
  6  7  1  0  0  0  0
  6  9  1  0  0  0  0
  7  8  1  0  0  0  0
  9 10  1  0  0  0  0
 10 11  2  0  0  0  0
M  END
>  <CHROM.1>
0.67466214,-3.88178752,16.70515284,-2.06281860,0.16436894,1.10029928

>  <Name>
ligand

>  <RI>
0

>  <Rbt.Current_Directory>
/home/itssahil/PROJECTS/Mol_Feturizer/New_Systems/rnas/4LVZ

>  <Rbt.Executable>
rbdock ($Id: //depot/dev/client3/rdock/2013.1/src/exe/rbdock.cxx#4 $)

>  <Rbt.Library>
libRbt.so (2013.1, Build901 2013/11/27)

>  <Rbt.Parameter_File>
/export/apps/rDock/src/rDock_2013.1_src/data/scripts/dock_solv.prm

>  <Rbt.Receptor>
prm/blind_docking_20.prm

>  <SCORE>
-5.57334

>  <SCORE.INTER>
-5.57334

>  <SCORE.INTER.CONST>
1

>  <SCORE.INTER.POLAR>
0

>  <SCORE.INTER.ROT>
0

>  <SCORE.INTER.SOLV>
4.06815

>  <SCORE.INTER.VDW>
-8.67161

>  <SCORE.INTER.norm>
-0.506667

>  <SCORE.INTRA>
0

>  <SCORE.INTRA.DIHEDRAL>
0

>  <SCORE.INTRA.DIHEDRAL.0>
0

>  <SCORE.INTRA.POLAR>
0

>  <SCORE.INTRA.POLAR.0>
0

>  <SCORE.INTRA.REPUL>
0

>  <SCORE.INTRA.REPUL.0>
0

>  <SCORE.INTRA.SOLV>
0

>  <SCORE.INTRA.SOLV.lig_0>
-49.4056

>  <SCORE.INTRA.VDW>
0

>  <SCORE.INTRA.VDW.0>
0

>  <SCORE.INTRA.norm>
0

>  <SCORE.RESTR>
0

>  <SCORE.RESTR.CAVITY>
0

>  <SCORE.RESTR.norm>
0

>  <SCORE.SYSTEM>
0

>  <SCORE.SYSTEM.CONST>
0

>  <SCORE.SYSTEM.DIHEDRAL>
0

>  <SCORE.SYSTEM.SOLV>
0

>  <SCORE.SYSTEM.norm>
0

>  <SCORE.heavy>
11

>  <SCORE.norm>
-0.506667

>  <RMSD>
19.396

$$$$
ligand
 OpenBabel11021811503D
libRbt.so/2013.1/901 2013/11/27
 11 12  0  0  0  0  0  0  0  0999 V2000
    0.7083   -4.6675   15.1027 N   0  0  0  0  0  0  0  0  0  0  0  0
   -0.5567   -4.6681   15.5910 C   0  0  0  0  0  0  0  0  0  0  0  0
   -1.6328   -5.2408   14.8386 N   0  0  0  0  0  0  0  0  0  0  0  0
   -0.8314   -4.1257   16.7907 N   0  0  0  0  0  0  0  0  0  0  0  0
    0.1588   -3.5602   17.5623 C   0  0  0  0  0  0  0  0  0  0  0  0
    1.4577   -3.5432   17.0878 C   0  0  0  0  0  0  0  0  0  0  0  0
    1.7210   -4.1202   15.8097 C   0  0  0  0  0  0  0  0  0  0  0  0
    3.0534   -4.1179   15.2874 N   0  0  0  0  0  0  0  0  0  0  0  0
    2.2248   -2.9206   18.0540 N   0  0  0  0  0  0  0  0  0  0  0  0
    1.4265   -2.5629   19.0800 C   0  0  0  0  0  0  0  0  0  0  0  0
    0.1622   -2.9400   18.8040 N   0  0  0  0  0  0  0  0  0  0  0  0
  1  7  2  0  0  0  0
  1  2  1  0  0  0  0
  2  3  1  0  0  0  0
  2  4  2  0  0  0  0
  4  5  1  0  0  0  0
  5  6  2  0  0  0  0
  5 11  1  0  0  0  0
  6  7  1  0  0  0  0
  6  9  1  0  0  0  0
  7  8  1  0  0  0  0
  9 10  1  0  0  0  0
 10 11  2  0  0  0  0
M  END
>  <CHROM.1>
0.70884754,-3.87239471,16.70735863,-2.05698513,0.17052616,1.11270371

>  <Name>
ligand

>  <RI>
0

>  <Rbt.Current_Directory>
/home/itssahil/PROJECTS/Mol_Feturizer/New_Systems/rnas/4LVZ

>  <Rbt.Executable>
rbdock ($Id: //depot/dev/client3/rdock/2013.1/src/exe/rbdock.cxx#4 $)

>  <Rbt.Library>
libRbt.so (2013.1, Build901 2013/11/27)

>  <Rbt.Parameter_File>
/export/apps/rDock/src/rDock_2013.1_src/data/scripts/dock_solv.prm

>  <Rbt.Receptor>
prm/blind_docking_20.prm

>  <SCORE>
-5.62551

>  <SCORE.INTER>
-5.62551

>  <SCORE.INTER.CONST>
1

>  <SCORE.INTER.POLAR>
0

>  <SCORE.INTER.ROT>
0

>  <SCORE.INTER.SOLV>
4.01757

>  <SCORE.INTER.VDW>
-8.68953

>  <SCORE.INTER.norm>
-0.51141

>  <SCORE.INTRA>
0

>  <SCORE.INTRA.DIHEDRAL>
0

>  <SCORE.INTRA.DIHEDRAL.0>
0

>  <SCORE.INTRA.POLAR>
0

>  <SCORE.INTRA.POLAR.0>
0

>  <SCORE.INTRA.REPUL>
0

>  <SCORE.INTRA.REPUL.0>
0

>  <SCORE.INTRA.SOLV>
0

>  <SCORE.INTRA.SOLV.lig_0>
-49.4056

>  <SCORE.INTRA.VDW>
0

>  <SCORE.INTRA.VDW.0>
0

>  <SCORE.INTRA.norm>
0

>  <SCORE.RESTR>
0

>  <SCORE.RESTR.CAVITY>
0

>  <SCORE.RESTR.norm>
0

>  <SCORE.SYSTEM>
0

>  <SCORE.SYSTEM.CONST>
0

>  <SCORE.SYSTEM.DIHEDRAL>
0

>  <SCORE.SYSTEM.SOLV>
0

>  <SCORE.SYSTEM.norm>
0

>  <SCORE.heavy>
11

>  <SCORE.norm>
-0.51141

>  <RMSD>
19.400

$$$$
ligand
 OpenBabel11021811503D
libRbt.so/2013.1/901 2013/11/27
 11 12  0  0  0  0  0  0  0  0999 V2000
    0.6883   -4.6705   15.1043 N   0  0  0  0  0  0  0  0  0  0  0  0
   -0.5773   -4.6576   15.5907 C   0  0  0  0  0  0  0  0  0  0  0  0
   -1.6573   -5.2240   14.8392 N   0  0  0  0  0  0  0  0  0  0  0  0
   -0.8489   -4.1072   16.7874 N   0  0  0  0  0  0  0  0  0  0  0  0
    0.1452   -3.5471   17.5579 C   0  0  0  0  0  0  0  0  0  0  0  0
    1.4448   -3.5439   17.0853 C   0  0  0  0  0  0  0  0  0  0  0  0
    1.7049   -4.1290   15.8102 C   0  0  0  0  0  0  0  0  0  0  0  0
    3.0380   -4.1410   15.2899 N   0  0  0  0  0  0  0  0  0  0  0  0
    2.2161   -2.9237   18.0499 N   0  0  0  0  0  0  0  0  0  0  0  0
    1.4196   -2.5542   19.0729 C   0  0  0  0  0  0  0  0  0  0  0  0
    0.1523   -2.9213   18.7968 N   0  0  0  0  0  0  0  0  0  0  0  0
  1  7  2  0  0  0  0
  1  2  1  0  0  0  0
  2  3  1  0  0  0  0
  2  4  2  0  0  0  0
  4  5  1  0  0  0  0
  5  6  2  0  0  0  0
  5 11  1  0  0  0  0
  6  7  1  0  0  0  0
  6  9  1  0  0  0  0
  7  8  1  0  0  0  0
  9 10  1  0  0  0  0
 10 11  2  0  0  0  0
M  END
>  <CHROM.1>
0.69368184,-3.86810023,16.70525480,-2.05965913,0.16186477,1.10857920

>  <Name>
ligand

>  <RI>
0

>  <Rbt.Current_Directory>
/home/itssahil/PROJECTS/Mol_Feturizer/New_Systems/rnas/4LVZ

>  <Rbt.Executable>
rbdock ($Id: //depot/dev/client3/rdock/2013.1/src/exe/rbdock.cxx#4 $)

>  <Rbt.Library>
libRbt.so (2013.1, Build901 2013/11/27)

>  <Rbt.Parameter_File>
/export/apps/rDock/src/rDock_2013.1_src/data/scripts/dock_solv.prm

>  <Rbt.Receptor>
prm/blind_docking_20.prm

>  <SCORE>
-5.62391

>  <SCORE.INTER>
-5.62391

>  <SCORE.INTER.CONST>
1

>  <SCORE.INTER.POLAR>
0

>  <SCORE.INTER.ROT>
0

>  <SCORE.INTER.SOLV>
4.04367

>  <SCORE.INTER.VDW>
-8.69716

>  <SCORE.INTER.norm>
-0.511264

>  <SCORE.INTRA>
0

>  <SCORE.INTRA.DIHEDRAL>
0

>  <SCORE.INTRA.DIHEDRAL.0>
0

>  <SCORE.INTRA.POLAR>
0

>  <SCORE.INTRA.POLAR.0>
0

>  <SCORE.INTRA.REPUL>
0

>  <SCORE.INTRA.REPUL.0>
0

>  <SCORE.INTRA.SOLV>
0

>  <SCORE.INTRA.SOLV.lig_0>
-49.4056

>  <SCORE.INTRA.VDW>
0

>  <SCORE.INTRA.VDW.0>
0

>  <SCORE.INTRA.norm>
0

>  <SCORE.RESTR>
0

>  <SCORE.RESTR.CAVITY>
0

>  <SCORE.RESTR.norm>
0

>  <SCORE.SYSTEM>
0

>  <SCORE.SYSTEM.CONST>
0

>  <SCORE.SYSTEM.DIHEDRAL>
0

>  <SCORE.SYSTEM.SOLV>
0

>  <SCORE.SYSTEM.norm>
0

>  <SCORE.heavy>
11

>  <SCORE.norm>
-0.511264

>  <RMSD>
19.406

$$$$
ligand
 OpenBabel11021811503D
libRbt.so/2013.1/901 2013/11/27
 11 12  0  0  0  0  0  0  0  0999 V2000
    0.6869   -4.6783   15.1069 N   0  0  0  0  0  0  0  0  0  0  0  0
   -0.5787   -4.6673   15.5934 C   0  0  0  0  0  0  0  0  0  0  0  0
   -1.6568   -5.2415   14.8452 N   0  0  0  0  0  0  0  0  0  0  0  0
   -0.8520   -4.1115   16.7873 N   0  0  0  0  0  0  0  0  0  0  0  0
    0.1403   -3.5437   17.5546 C   0  0  0  0  0  0  0  0  0  0  0  0
    1.4398   -3.5385   17.0818 C   0  0  0  0  0  0  0  0  0  0  0  0
    1.7017   -4.1295   15.8098 C   0  0  0  0  0  0  0  0  0  0  0  0
    3.0348   -4.1396   15.2894 N   0  0  0  0  0  0  0  0  0  0  0  0
    2.2090   -2.9105   18.0429 N   0  0  0  0  0  0  0  0  0  0  0  0
    1.4113   -2.5383   19.0641 C   0  0  0  0  0  0  0  0  0  0  0  0
    0.1453   -2.9113   18.7901 N   0  0  0  0  0  0  0  0  0  0  0  0
  1  7  2  0  0  0  0
  1  2  1  0  0  0  0
  2  3  1  0  0  0  0
  2  4  2  0  0  0  0
  4  5  1  0  0  0  0
  5  6  2  0  0  0  0
  5 11  1  0  0  0  0
  6  7  1  0  0  0  0
  6  9  1  0  0  0  0
  7  8  1  0  0  0  0
  9 10  1  0  0  0  0
 10 11  2  0  0  0  0
M  END
>  <CHROM.1>
0.68970529,-3.86736267,16.70358799,-2.05820753,0.16506254,1.10299596

>  <Name>
ligand

>  <RI>
0

>  <Rbt.Current_Directory>
/home/itssahil/PROJECTS/Mol_Feturizer/New_Systems/rnas/4LVZ

>  <Rbt.Executable>
rbdock ($Id: //depot/dev/client3/rdock/2013.1/src/exe/rbdock.cxx#4 $)

>  <Rbt.Library>
libRbt.so (2013.1, Build901 2013/11/27)

>  <Rbt.Parameter_File>
/export/apps/rDock/src/rDock_2013.1_src/data/scripts/dock_solv.prm

>  <Rbt.Receptor>
prm/blind_docking_20.prm

>  <SCORE>
-5.62866

>  <SCORE.INTER>
-5.62866

>  <SCORE.INTER.CONST>
1

>  <SCORE.INTER.POLAR>
0

>  <SCORE.INTER.ROT>
0

>  <SCORE.INTER.SOLV>
4.04352

>  <SCORE.INTER.VDW>
-8.70028

>  <SCORE.INTER.norm>
-0.511696

>  <SCORE.INTRA>
0

>  <SCORE.INTRA.DIHEDRAL>
0

>  <SCORE.INTRA.DIHEDRAL.0>
0

>  <SCORE.INTRA.POLAR>
0

>  <SCORE.INTRA.POLAR.0>
0

>  <SCORE.INTRA.REPUL>
0

>  <SCORE.INTRA.REPUL.0>
0

>  <SCORE.INTRA.SOLV>
0

>  <SCORE.INTRA.SOLV.lig_0>
-49.4056

>  <SCORE.INTRA.VDW>
0

>  <SCORE.INTRA.VDW.0>
0

>  <SCORE.INTRA.norm>
0

>  <SCORE.RESTR>
0

>  <SCORE.RESTR.CAVITY>
0

>  <SCORE.RESTR.norm>
0

>  <SCORE.SYSTEM>
0

>  <SCORE.SYSTEM.CONST>
0

>  <SCORE.SYSTEM.DIHEDRAL>
0

>  <SCORE.SYSTEM.SOLV>
0

>  <SCORE.SYSTEM.norm>
0

>  <SCORE.heavy>
11

>  <SCORE.norm>
-0.511696

>  <RMSD>
19.408

$$$$
ligand
 OpenBabel11021811503D
libRbt.so/2013.1/901 2013/11/27
 11 12  0  0  0  0  0  0  0  0999 V2000
    0.7474   -4.6524   15.0966 N   0  0  0  0  0  0  0  0  0  0  0  0
   -0.5201   -4.6541   15.5783 C   0  0  0  0  0  0  0  0  0  0  0  0
   -1.5924   -5.2244   14.8187 N   0  0  0  0  0  0  0  0  0  0  0  0
   -0.8009   -4.1150   16.7780 N   0  0  0  0  0  0  0  0  0  0  0  0
    0.1854   -3.5519   17.5564 C   0  0  0  0  0  0  0  0  0  0  0  0
    1.4867   -3.5338   17.0887 C   0  0  0  0  0  0  0  0  0  0  0  0
    1.7566   -4.1073   15.8103 C   0  0  0  0  0  0  0  0  0  0  0  0
    3.0916   -4.1038   15.2950 N   0  0  0  0  0  0  0  0  0  0  0  0
    2.2489   -2.9141   18.0607 N   0  0  0  0  0  0  0  0  0  0  0  0
    1.4454   -2.5592   19.0834 C   0  0  0  0  0  0  0  0  0  0  0  0
    0.1825   -2.9353   18.7998 N   0  0  0  0  0  0  0  0  0  0  0  0
  1  7  2  0  0  0  0
  1  2  1  0  0  0  0
  2  3  1  0  0  0  0
  2  4  2  0  0  0  0
  4  5  1  0  0  0  0
  5  6  2  0  0  0  0
  5 11  1  0  0  0  0
  6  7  1  0  0  0  0
  6  9  1  0  0  0  0
  7  8  1  0  0  0  0
  9 10  1  0  0  0  0
 10 11  2  0  0  0  0
M  END
>  <CHROM.1>
0.73980149,-3.86180993,16.70344873,-2.05235310,0.16805028,1.11474496

>  <Name>
ligand

>  <RI>
0

>  <Rbt.Current_Directory>
/home/itssahil/PROJECTS/Mol_Feturizer/New_Systems/rnas/4LVZ

>  <Rbt.Executable>
rbdock ($Id: //depot/dev/client3/rdock/2013.1/src/exe/rbdock.cxx#4 $)

>  <Rbt.Library>
libRbt.so (2013.1, Build901 2013/11/27)

>  <Rbt.Parameter_File>
/export/apps/rDock/src/rDock_2013.1_src/data/scripts/dock_solv.prm

>  <Rbt.Receptor>
prm/blind_docking_20.prm

>  <SCORE>
-5.6192

>  <SCORE.INTER>
-5.6192

>  <SCORE.INTER.CONST>
1

>  <SCORE.INTER.POLAR>
0

>  <SCORE.INTER.ROT>
0

>  <SCORE.INTER.SOLV>
4.04807

>  <SCORE.INTER.VDW>
-8.69549

>  <SCORE.INTER.norm>
-0.510837

>  <SCORE.INTRA>
0

>  <SCORE.INTRA.DIHEDRAL>
0

>  <SCORE.INTRA.DIHEDRAL.0>
0

>  <SCORE.INTRA.POLAR>
0

>  <SCORE.INTRA.POLAR.0>
0

>  <SCORE.INTRA.REPUL>
0

>  <SCORE.INTRA.REPUL.0>
0

>  <SCORE.INTRA.SOLV>
0

>  <SCORE.INTRA.SOLV.lig_0>
-49.4056

>  <SCORE.INTRA.VDW>
0

>  <SCORE.INTRA.VDW.0>
0

>  <SCORE.INTRA.norm>
0

>  <SCORE.RESTR>
0

>  <SCORE.RESTR.CAVITY>
0

>  <SCORE.RESTR.norm>
0

>  <SCORE.SYSTEM>
0

>  <SCORE.SYSTEM.CONST>
0

>  <SCORE.SYSTEM.DIHEDRAL>
0

>  <SCORE.SYSTEM.SOLV>
0

>  <SCORE.SYSTEM.norm>
0

>  <SCORE.heavy>
11

>  <SCORE.norm>
-0.510837

>  <RMSD>
19.408

$$$$
ligand
 OpenBabel11021811503D
libRbt.so/2013.1/901 2013/11/27
 11 12  0  0  0  0  0  0  0  0999 V2000
    0.6850   -4.6422   15.0925 N   0  0  0  0  0  0  0  0  0  0  0  0
   -0.5805   -4.6204   15.5790 C   0  0  0  0  0  0  0  0  0  0  0  0
   -1.6673   -5.1632   14.8200 N   0  0  0  0  0  0  0  0  0  0  0  0
   -0.8454   -4.0832   16.7832 N   0  0  0  0  0  0  0  0  0  0  0  0
    0.1554   -3.5459   17.5612 C   0  0  0  0  0  0  0  0  0  0  0  0
    1.4551   -3.5522   17.0887 C   0  0  0  0  0  0  0  0  0  0  0  0
    1.7081   -4.1230   15.8057 C   0  0  0  0  0  0  0  0  0  0  0  0
    3.0410   -4.1443   15.2852 N   0  0  0  0  0  0  0  0  0  0  0  0
    2.2338   -2.9548   18.0616 N   0  0  0  0  0  0  0  0  0  0  0  0
    1.4417   -2.5896   19.0897 C   0  0  0  0  0  0  0  0  0  0  0  0
    0.1701   -2.9372   18.8085 N   0  0  0  0  0  0  0  0  0  0  0  0
  1  7  2  0  0  0  0
  1  2  1  0  0  0  0
  2  3  1  0  0  0  0
  2  4  2  0  0  0  0
  4  5  1  0  0  0  0
  5  6  2  0  0  0  0
  5 11  1  0  0  0  0
  6  7  1  0  0  0  0
  6  9  1  0  0  0  0
  7  8  1  0  0  0  0
  9 10  1  0  0  0  0
 10 11  2  0  0  0  0
M  END
>  <CHROM.1>
0.70001920,-3.86191320,16.70425682,-2.06509784,0.15079361,1.12310444

>  <Name>
ligand

>  <RI>
0

>  <Rbt.Current_Directory>
/home/itssahil/PROJECTS/Mol_Feturizer/New_Systems/rnas/4LVZ

>  <Rbt.Executable>
rbdock ($Id: //depot/dev/client3/rdock/2013.1/src/exe/rbdock.cxx#4 $)

>  <Rbt.Library>
libRbt.so (2013.1, Build901 2013/11/27)

>  <Rbt.Parameter_File>
/export/apps/rDock/src/rDock_2013.1_src/data/scripts/dock_solv.prm

>  <Rbt.Receptor>
prm/blind_docking_20.prm

>  <SCORE>
-5.62369

>  <SCORE.INTER>
-5.62369

>  <SCORE.INTER.CONST>
1

>  <SCORE.INTER.POLAR>
0

>  <SCORE.INTER.ROT>
0

>  <SCORE.INTER.SOLV>
4.0652

>  <SCORE.INTER.VDW>
-8.70419

>  <SCORE.INTER.norm>
-0.511244

>  <SCORE.INTRA>
0

>  <SCORE.INTRA.DIHEDRAL>
0

>  <SCORE.INTRA.DIHEDRAL.0>
0

>  <SCORE.INTRA.POLAR>
0

>  <SCORE.INTRA.POLAR.0>
0

>  <SCORE.INTRA.REPUL>
0

>  <SCORE.INTRA.REPUL.0>
0

>  <SCORE.INTRA.SOLV>
0

>  <SCORE.INTRA.SOLV.lig_0>
-49.4056

>  <SCORE.INTRA.VDW>
0

>  <SCORE.INTRA.VDW.0>
0

>  <SCORE.INTRA.norm>
0

>  <SCORE.RESTR>
0

>  <SCORE.RESTR.CAVITY>
0

>  <SCORE.RESTR.norm>
0

>  <SCORE.SYSTEM>
0

>  <SCORE.SYSTEM.CONST>
0

>  <SCORE.SYSTEM.DIHEDRAL>
0

>  <SCORE.SYSTEM.SOLV>
0

>  <SCORE.SYSTEM.norm>
0

>  <SCORE.heavy>
11

>  <SCORE.norm>
-0.511244

>  <RMSD>
19.411

$$$$
ligand
 OpenBabel11021811503D
libRbt.so/2013.1/901 2013/11/27
 11 12  0  0  0  0  0  0  0  0999 V2000
    0.6756   -4.6490   15.0967 N   0  0  0  0  0  0  0  0  0  0  0  0
   -0.5898   -4.6235   15.5833 C   0  0  0  0  0  0  0  0  0  0  0  0
   -1.6770   -5.1706   14.8278 N   0  0  0  0  0  0  0  0  0  0  0  0
   -0.8544   -4.0784   16.7840 N   0  0  0  0  0  0  0  0  0  0  0  0
    0.1467   -3.5366   17.5585 C   0  0  0  0  0  0  0  0  0  0  0  0
    1.4463   -3.5466   17.0859 C   0  0  0  0  0  0  0  0  0  0  0  0
    1.6990   -4.1257   15.8066 C   0  0  0  0  0  0  0  0  0  0  0  0
    3.0318   -4.1509   15.2861 N   0  0  0  0  0  0  0  0  0  0  0  0
    2.2254   -2.9434   18.0549 N   0  0  0  0  0  0  0  0  0  0  0  0
    1.4336   -2.5712   19.0807 C   0  0  0  0  0  0  0  0  0  0  0  0
    0.1618   -2.9200   18.8019 N   0  0  0  0  0  0  0  0  0  0  0  0
  1  7  2  0  0  0  0
  1  2  1  0  0  0  0
  2  3  1  0  0  0  0
  2  4  2  0  0  0  0
  4  5  1  0  0  0  0
  5  6  2  0  0  0  0
  5 11  1  0  0  0  0
  6  7  1  0  0  0  0
  6  9  1  0  0  0  0
  7  8  1  0  0  0  0
  9 10  1  0  0  0  0
 10 11  2  0  0  0  0
M  END
>  <CHROM.1>
0.69109029,-3.85840027,16.70350805,-2.06538795,0.15040959,1.11675376

>  <Name>
ligand

>  <RI>
0

>  <Rbt.Current_Directory>
/home/itssahil/PROJECTS/Mol_Feturizer/New_Systems/rnas/4LVZ

>  <Rbt.Executable>
rbdock ($Id: //depot/dev/client3/rdock/2013.1/src/exe/rbdock.cxx#4 $)

>  <Rbt.Library>
libRbt.so (2013.1, Build901 2013/11/27)

>  <Rbt.Parameter_File>
/export/apps/rDock/src/rDock_2013.1_src/data/scripts/dock_solv.prm

>  <Rbt.Receptor>
prm/blind_docking_20.prm

>  <SCORE>
-5.62856

>  <SCORE.INTER>
-5.62856

>  <SCORE.INTER.CONST>
1

>  <SCORE.INTER.POLAR>
0

>  <SCORE.INTER.ROT>
0

>  <SCORE.INTER.SOLV>
4.07819

>  <SCORE.INTER.VDW>
-8.71177

>  <SCORE.INTER.norm>
-0.511687

>  <SCORE.INTRA>
0

>  <SCORE.INTRA.DIHEDRAL>
0

>  <SCORE.INTRA.DIHEDRAL.0>
0

>  <SCORE.INTRA.POLAR>
0

>  <SCORE.INTRA.POLAR.0>
0

>  <SCORE.INTRA.REPUL>
0

>  <SCORE.INTRA.REPUL.0>
0

>  <SCORE.INTRA.SOLV>
0

>  <SCORE.INTRA.SOLV.lig_0>
-49.4056

>  <SCORE.INTRA.VDW>
0

>  <SCORE.INTRA.VDW.0>
0

>  <SCORE.INTRA.norm>
0

>  <SCORE.RESTR>
0

>  <SCORE.RESTR.CAVITY>
0

>  <SCORE.RESTR.norm>
0

>  <SCORE.SYSTEM>
0

>  <SCORE.SYSTEM.CONST>
0

>  <SCORE.SYSTEM.DIHEDRAL>
0

>  <SCORE.SYSTEM.SOLV>
0

>  <SCORE.SYSTEM.norm>
0

>  <SCORE.heavy>
11

>  <SCORE.norm>
-0.511687

>  <RMSD>
19.415

$$$$
ligand
 OpenBabel11021811503D
libRbt.so/2013.1/901 2013/11/27
 11 12  0  0  0  0  0  0  0  0999 V2000
    0.7462   -4.6421   15.1014 N   0  0  0  0  0  0  0  0  0  0  0  0
   -0.5241   -4.6379   15.5758 C   0  0  0  0  0  0  0  0  0  0  0  0
   -1.5946   -5.2031   14.8099 N   0  0  0  0  0  0  0  0  0  0  0  0
   -0.8093   -4.0974   16.7738 N   0  0  0  0  0  0  0  0  0  0  0  0
    0.1751   -3.5389   17.5579 C   0  0  0  0  0  0  0  0  0  0  0  0
    1.4791   -3.5270   17.0978 C   0  0  0  0  0  0  0  0  0  0  0  0
    1.7538   -4.1017   15.8210 C   0  0  0  0  0  0  0  0  0  0  0  0
    3.0918   -4.1045   15.3134 N   0  0  0  0  0  0  0  0  0  0  0  0
    2.2386   -2.9109   18.0742 N   0  0  0  0  0  0  0  0  0  0  0  0
    1.4308   -2.5521   19.0923 C   0  0  0  0  0  0  0  0  0  0  0  0
    0.1678   -2.9223   18.8013 N   0  0  0  0  0  0  0  0  0  0  0  0
  1  7  2  0  0  0  0
  1  2  1  0  0  0  0
  2  3  1  0  0  0  0
  2  4  2  0  0  0  0
  4  5  1  0  0  0  0
  5  6  2  0  0  0  0
  5 11  1  0  0  0  0
  6  7  1  0  0  0  0
  6  9  1  0  0  0  0
  7  8  1  0  0  0  0
  9 10  1  0  0  0  0
 10 11  2  0  0  0  0
M  END
>  <CHROM.1>
0.73295200,-3.85146703,16.70820796,-2.04916431,0.16127374,1.11422076

>  <Name>
ligand

>  <RI>
0

>  <Rbt.Current_Directory>
/home/itssahil/PROJECTS/Mol_Feturizer/New_Systems/rnas/4LVZ

>  <Rbt.Executable>
rbdock ($Id: //depot/dev/client3/rdock/2013.1/src/exe/rbdock.cxx#4 $)

>  <Rbt.Library>
libRbt.so (2013.1, Build901 2013/11/27)

>  <Rbt.Parameter_File>
/export/apps/rDock/src/rDock_2013.1_src/data/scripts/dock_solv.prm

>  <Rbt.Receptor>
prm/blind_docking_20.prm

>  <SCORE>
-5.61485

>  <SCORE.INTER>
-5.61485

>  <SCORE.INTER.CONST>
1

>  <SCORE.INTER.POLAR>
0

>  <SCORE.INTER.ROT>
0

>  <SCORE.INTER.SOLV>
4.03975

>  <SCORE.INTER.VDW>
-8.68982

>  <SCORE.INTER.norm>
-0.510441

>  <SCORE.INTRA>
0

>  <SCORE.INTRA.DIHEDRAL>
0

>  <SCORE.INTRA.DIHEDRAL.0>
0

>  <SCORE.INTRA.POLAR>
0

>  <SCORE.INTRA.POLAR.0>
0

>  <SCORE.INTRA.REPUL>
0

>  <SCORE.INTRA.REPUL.0>
0

>  <SCORE.INTRA.SOLV>
0

>  <SCORE.INTRA.SOLV.lig_0>
-49.4056

>  <SCORE.INTRA.VDW>
0

>  <SCORE.INTRA.VDW.0>
0

>  <SCORE.INTRA.norm>
0

>  <SCORE.RESTR>
0

>  <SCORE.RESTR.CAVITY>
0

>  <SCORE.RESTR.norm>
0

>  <SCORE.SYSTEM>
0

>  <SCORE.SYSTEM.CONST>
0

>  <SCORE.SYSTEM.DIHEDRAL>
0

>  <SCORE.SYSTEM.SOLV>
0

>  <SCORE.SYSTEM.norm>
0

>  <SCORE.heavy>
11

>  <SCORE.norm>
-0.510441

>  <RMSD>
19.415

$$$$
ligand
 OpenBabel11021811503D
libRbt.so/2013.1/901 2013/11/27
 11 12  0  0  0  0  0  0  0  0999 V2000
    0.7475   -4.6327   15.0945 N   0  0  0  0  0  0  0  0  0  0  0  0
   -0.5231   -4.6266   15.5679 C   0  0  0  0  0  0  0  0  0  0  0  0
   -1.5948   -5.1848   14.7986 N   0  0  0  0  0  0  0  0  0  0  0  0
   -0.8075   -4.0908   16.7682 N   0  0  0  0  0  0  0  0  0  0  0  0
    0.1781   -3.5391   17.5556 C   0  0  0  0  0  0  0  0  0  0  0  0
    1.4825   -3.5292   17.0966 C   0  0  0  0  0  0  0  0  0  0  0  0
    1.7563   -4.0989   15.8173 C   0  0  0  0  0  0  0  0  0  0  0  0
    3.0947   -4.1036   15.3107 N   0  0  0  0  0  0  0  0  0  0  0  0
    2.2432   -2.9201   18.0764 N   0  0  0  0  0  0  0  0  0  0  0  0
    1.4358   -2.5635   19.0955 C   0  0  0  0  0  0  0  0  0  0  0  0
    0.1718   -2.9283   18.8019 N   0  0  0  0  0  0  0  0  0  0  0  0
  1  7  2  0  0  0  0
  1  2  1  0  0  0  0
  2  3  1  0  0  0  0
  2  4  2  0  0  0  0
  4  5  1  0  0  0  0
  5  6  2  0  0  0  0
  5 11  1  0  0  0  0
  6  7  1  0  0  0  0
  6  9  1  0  0  0  0
  7  8  1  0  0  0  0
  9 10  1  0  0  0  0
 10 11  2  0  0  0  0
M  END
>  <CHROM.1>
0.73559432,-3.84949260,16.70490113,-2.04989197,0.15805864,1.11900119

>  <Name>
ligand

>  <RI>
0

>  <Rbt.Current_Directory>
/home/itssahil/PROJECTS/Mol_Feturizer/New_Systems/rnas/4LVZ

>  <Rbt.Executable>
rbdock ($Id: //depot/dev/client3/rdock/2013.1/src/exe/rbdock.cxx#4 $)

>  <Rbt.Library>
libRbt.so (2013.1, Build901 2013/11/27)

>  <Rbt.Parameter_File>
/export/apps/rDock/src/rDock_2013.1_src/data/scripts/dock_solv.prm

>  <Rbt.Receptor>
prm/blind_docking_20.prm

>  <SCORE>
-5.61241

>  <SCORE.INTER>
-5.61262

>  <SCORE.INTER.CONST>
1

>  <SCORE.INTER.POLAR>
0

>  <SCORE.INTER.ROT>
0

>  <SCORE.INTER.SOLV>
4.04647

>  <SCORE.INTER.VDW>
-8.69057

>  <SCORE.INTER.norm>
-0.510238

>  <SCORE.INTRA>
0

>  <SCORE.INTRA.DIHEDRAL>
0

>  <SCORE.INTRA.DIHEDRAL.0>
0

>  <SCORE.INTRA.POLAR>
0

>  <SCORE.INTRA.POLAR.0>
0

>  <SCORE.INTRA.REPUL>
0

>  <SCORE.INTRA.REPUL.0>
0

>  <SCORE.INTRA.SOLV>
0

>  <SCORE.INTRA.SOLV.lig_0>
-49.4056

>  <SCORE.INTRA.VDW>
0

>  <SCORE.INTRA.VDW.0>
0

>  <SCORE.INTRA.norm>
0

>  <SCORE.RESTR>
0.000206946

>  <SCORE.RESTR.CAVITY>
0.000206946

>  <SCORE.RESTR.norm>
1.88133e-05

>  <SCORE.SYSTEM>
0

>  <SCORE.SYSTEM.CONST>
0

>  <SCORE.SYSTEM.DIHEDRAL>
0

>  <SCORE.SYSTEM.SOLV>
0

>  <SCORE.SYSTEM.norm>
0

>  <SCORE.heavy>
11

>  <SCORE.norm>
-0.510219

>  <RMSD>
19.418

$$$$
ligand
 OpenBabel11021811503D
libRbt.so/2013.1/901 2013/11/27
 11 12  0  0  0  0  0  0  0  0999 V2000
    0.5499   -4.6610   15.1417 N   0  0  0  0  0  0  0  0  0  0  0  0
   -0.7166   -4.6798   15.6257 C   0  0  0  0  0  0  0  0  0  0  0  0
   -1.7788   -5.2821   14.8767 N   0  0  0  0  0  0  0  0  0  0  0  0
   -1.0058   -4.1281   16.8176 N   0  0  0  0  0  0  0  0  0  0  0  0
   -0.0293   -3.5344   17.5855 C   0  0  0  0  0  0  0  0  0  0  0  0
    1.2706   -3.4984   17.1153 C   0  0  0  0  0  0  0  0  0  0  0  0
    1.5496   -4.0859   15.8452 C   0  0  0  0  0  0  0  0  0  0  0  0
    2.8835   -4.0645   15.3274 N   0  0  0  0  0  0  0  0  0  0  0  0
    2.0223   -2.8495   18.0763 N   0  0  0  0  0  0  0  0  0  0  0  0
    1.2137   -2.4946   19.0951 C   0  0  0  0  0  0  0  0  0  0  0  0
   -0.0422   -2.8991   18.8195 N   0  0  0  0  0  0  0  0  0  0  0  0
  1  7  2  0  0  0  0
  1  2  1  0  0  0  0
  2  3  1  0  0  0  0
  2  4  2  0  0  0  0
  4  5  1  0  0  0  0
  5  6  2  0  0  0  0
  5 11  1  0  0  0  0
  6  7  1  0  0  0  0
  6  9  1  0  0  0  0
  7  8  1  0  0  0  0
  9 10  1  0  0  0  0
 10 11  2  0  0  0  0
M  END
>  <CHROM.1>
0.52960754,-3.84647575,16.73638745,-2.04513668,0.18600327,1.09833098

>  <Name>
ligand

>  <RI>
0

>  <Rbt.Current_Directory>
/home/itssahil/PROJECTS/Mol_Feturizer/New_Systems/rnas/4LVZ

>  <Rbt.Executable>
rbdock ($Id: //depot/dev/client3/rdock/2013.1/src/exe/rbdock.cxx#4 $)

>  <Rbt.Library>
libRbt.so (2013.1, Build901 2013/11/27)

>  <Rbt.Parameter_File>
/export/apps/rDock/src/rDock_2013.1_src/data/scripts/dock_solv.prm

>  <Rbt.Receptor>
prm/blind_docking_20.prm

>  <SCORE>
-5.59792

>  <SCORE.INTER>
-5.59792

>  <SCORE.INTER.CONST>
1

>  <SCORE.INTER.POLAR>
0

>  <SCORE.INTER.ROT>
0

>  <SCORE.INTER.SOLV>
3.74955

>  <SCORE.INTER.VDW>
-8.58179

>  <SCORE.INTER.norm>
-0.508902

>  <SCORE.INTRA>
0

>  <SCORE.INTRA.DIHEDRAL>
0

>  <SCORE.INTRA.DIHEDRAL.0>
0

>  <SCORE.INTRA.POLAR>
0

>  <SCORE.INTRA.POLAR.0>
0

>  <SCORE.INTRA.REPUL>
0

>  <SCORE.INTRA.REPUL.0>
0

>  <SCORE.INTRA.SOLV>
0

>  <SCORE.INTRA.SOLV.lig_0>
-49.4056

>  <SCORE.INTRA.VDW>
0

>  <SCORE.INTRA.VDW.0>
0

>  <SCORE.INTRA.norm>
0

>  <SCORE.RESTR>
0

>  <SCORE.RESTR.CAVITY>
0

>  <SCORE.RESTR.norm>
0

>  <SCORE.SYSTEM>
0

>  <SCORE.SYSTEM.CONST>
0

>  <SCORE.SYSTEM.DIHEDRAL>
0

>  <SCORE.SYSTEM.SOLV>
0

>  <SCORE.SYSTEM.norm>
0

>  <SCORE.heavy>
11

>  <SCORE.norm>
-0.508902

>  <RMSD>
19.421

$$$$
ligand
 OpenBabel11021811503D
libRbt.so/2013.1/901 2013/11/27
 11 12  0  0  0  0  0  0  0  0999 V2000
    0.6905   -4.6380   15.0872 N   0  0  0  0  0  0  0  0  0  0  0  0
   -0.5751   -4.6168   15.5735 C   0  0  0  0  0  0  0  0  0  0  0  0
   -1.6608   -5.1642   14.8161 N   0  0  0  0  0  0  0  0  0  0  0  0
   -0.8412   -4.0759   16.7757 N   0  0  0  0  0  0  0  0  0  0  0  0
    0.1585   -3.5341   17.5521 C   0  0  0  0  0  0  0  0  0  0  0  0
    1.4582   -3.5396   17.0798 C   0  0  0  0  0  0  0  0  0  0  0  0
    1.7125   -4.1144   15.7988 C   0  0  0  0  0  0  0  0  0  0  0  0
    3.0455   -4.1351   15.2786 N   0  0  0  0  0  0  0  0  0  0  0  0
    2.2357   -2.9375   18.0507 N   0  0  0  0  0  0  0  0  0  0  0  0
    1.4428   -2.5702   19.0774 C   0  0  0  0  0  0  0  0  0  0  0  0
    0.1718   -2.9211   18.7973 N   0  0  0  0  0  0  0  0  0  0  0  0
  1  7  2  0  0  0  0
  1  2  1  0  0  0  0
  2  3  1  0  0  0  0
  2  4  2  0  0  0  0
  4  5  1  0  0  0  0
  5  6  2  0  0  0  0
  5 11  1  0  0  0  0
  6  7  1  0  0  0  0
  6  9  1  0  0  0  0
  7  8  1  0  0  0  0
  9 10  1  0  0  0  0
 10 11  2  0  0  0  0
M  END
>  <CHROM.1>
0.70380704,-3.85209710,16.69629478,-2.06413720,0.15236193,1.11950047

>  <Name>
ligand

>  <RI>
0

>  <Rbt.Current_Directory>
/home/itssahil/PROJECTS/Mol_Feturizer/New_Systems/rnas/4LVZ

>  <Rbt.Executable>
rbdock ($Id: //depot/dev/client3/rdock/2013.1/src/exe/rbdock.cxx#4 $)

>  <Rbt.Library>
libRbt.so (2013.1, Build901 2013/11/27)

>  <Rbt.Parameter_File>
/export/apps/rDock/src/rDock_2013.1_src/data/scripts/dock_solv.prm

>  <Rbt.Receptor>
prm/blind_docking_20.prm

>  <SCORE>
-5.62446

>  <SCORE.INTER>
-5.62456

>  <SCORE.INTER.CONST>
1

>  <SCORE.INTER.POLAR>
0

>  <SCORE.INTER.ROT>
0

>  <SCORE.INTER.SOLV>
4.09055

>  <SCORE.INTER.VDW>
-8.71322

>  <SCORE.INTER.norm>
-0.511324

>  <SCORE.INTRA>
0

>  <SCORE.INTRA.DIHEDRAL>
0

>  <SCORE.INTRA.DIHEDRAL.0>
0

>  <SCORE.INTRA.POLAR>
0

>  <SCORE.INTRA.POLAR.0>
0

>  <SCORE.INTRA.REPUL>
0

>  <SCORE.INTRA.REPUL.0>
0

>  <SCORE.INTRA.SOLV>
0

>  <SCORE.INTRA.SOLV.lig_0>
-49.4056

>  <SCORE.INTRA.VDW>
0

>  <SCORE.INTRA.VDW.0>
0

>  <SCORE.INTRA.norm>
0

>  <SCORE.RESTR>
0.000102387

>  <SCORE.RESTR.CAVITY>
0.000102387

>  <SCORE.RESTR.norm>
9.30794e-06

>  <SCORE.SYSTEM>
0

>  <SCORE.SYSTEM.CONST>
0

>  <SCORE.SYSTEM.DIHEDRAL>
0

>  <SCORE.SYSTEM.SOLV>
0

>  <SCORE.SYSTEM.norm>
0

>  <SCORE.heavy>
11

>  <SCORE.norm>
-0.511314

>  <RMSD>
19.423

$$$$
ligand
 OpenBabel11021811503D
libRbt.so/2013.1/901 2013/11/27
 11 12  0  0  0  0  0  0  0  0999 V2000
    0.5599   -4.6641   15.1377 N   0  0  0  0  0  0  0  0  0  0  0  0
   -0.7050   -4.6871   15.6256 C   0  0  0  0  0  0  0  0  0  0  0  0
   -1.7669   -5.2961   14.8816 N   0  0  0  0  0  0  0  0  0  0  0  0
   -0.9930   -4.1333   16.8169 N   0  0  0  0  0  0  0  0  0  0  0  0
   -0.0168   -3.5331   17.5801 C   0  0  0  0  0  0  0  0  0  0  0  0
    1.2815   -3.4928   17.1058 C   0  0  0  0  0  0  0  0  0  0  0  0
    1.5591   -4.0826   15.8365 C   0  0  0  0  0  0  0  0  0  0  0  0
    2.8914   -4.0569   15.3146 N   0  0  0  0  0  0  0  0  0  0  0  0
    2.0333   -2.8378   18.0627 N   0  0  0  0  0  0  0  0  0  0  0  0
    1.2262   -2.4836   19.0829 C   0  0  0  0  0  0  0  0  0  0  0  0
   -0.0288   -2.8944   18.8123 N   0  0  0  0  0  0  0  0  0  0  0  0
  1  7  2  0  0  0  0
  1  2  1  0  0  0  0
  2  3  1  0  0  0  0
  2  4  2  0  0  0  0
  4  5  1  0  0  0  0
  5  6  2  0  0  0  0
  5 11  1  0  0  0  0
  6  7  1  0  0  0  0
  6  9  1  0  0  0  0
  7  8  1  0  0  0  0
  9 10  1  0  0  0  0
 10 11  2  0  0  0  0
M  END
>  <CHROM.1>
0.54087262,-3.84515586,16.73013551,-2.04586381,0.19130475,1.09563745

>  <Name>
ligand

>  <RI>
0

>  <Rbt.Current_Directory>
/home/itssahil/PROJECTS/Mol_Feturizer/New_Systems/rnas/4LVZ

>  <Rbt.Executable>
rbdock ($Id: //depot/dev/client3/rdock/2013.1/src/exe/rbdock.cxx#4 $)

>  <Rbt.Library>
libRbt.so (2013.1, Build901 2013/11/27)

>  <Rbt.Parameter_File>
/export/apps/rDock/src/rDock_2013.1_src/data/scripts/dock_solv.prm

>  <Rbt.Receptor>
prm/blind_docking_20.prm

>  <SCORE>
-5.59065

>  <SCORE.INTER>
-5.59065

>  <SCORE.INTER.CONST>
1

>  <SCORE.INTER.POLAR>
0

>  <SCORE.INTER.ROT>
0

>  <SCORE.INTER.SOLV>
3.77682

>  <SCORE.INTER.VDW>
-8.58604

>  <SCORE.INTER.norm>
-0.508241

>  <SCORE.INTRA>
0

>  <SCORE.INTRA.DIHEDRAL>
0

>  <SCORE.INTRA.DIHEDRAL.0>
0

>  <SCORE.INTRA.POLAR>
0

>  <SCORE.INTRA.POLAR.0>
0

>  <SCORE.INTRA.REPUL>
0

>  <SCORE.INTRA.REPUL.0>
0

>  <SCORE.INTRA.SOLV>
0

>  <SCORE.INTRA.SOLV.lig_0>
-49.4056

>  <SCORE.INTRA.VDW>
0

>  <SCORE.INTRA.VDW.0>
0

>  <SCORE.INTRA.norm>
0

>  <SCORE.RESTR>
0

>  <SCORE.RESTR.CAVITY>
0

>  <SCORE.RESTR.norm>
0

>  <SCORE.SYSTEM>
0

>  <SCORE.SYSTEM.CONST>
0

>  <SCORE.SYSTEM.DIHEDRAL>
0

>  <SCORE.SYSTEM.SOLV>
0

>  <SCORE.SYSTEM.norm>
0

>  <SCORE.heavy>
11

>  <SCORE.norm>
-0.508241

>  <RMSD>
19.425

$$$$
ligand
 OpenBabel11021811503D
libRbt.so/2013.1/901 2013/11/27
 11 12  0  0  0  0  0  0  0  0999 V2000
    0.6975   -4.6392   15.0865 N   0  0  0  0  0  0  0  0  0  0  0  0
   -0.5681   -4.6167   15.5725 C   0  0  0  0  0  0  0  0  0  0  0  0
   -1.6539   -5.1652   14.8159 N   0  0  0  0  0  0  0  0  0  0  0  0
   -0.8343   -4.0734   16.7736 N   0  0  0  0  0  0  0  0  0  0  0  0
    0.1654   -3.5305   17.5492 C   0  0  0  0  0  0  0  0  0  0  0  0
    1.4652   -3.5373   17.0771 C   0  0  0  0  0  0  0  0  0  0  0  0
    1.7196   -4.1146   15.7973 C   0  0  0  0  0  0  0  0  0  0  0  0
    3.0527   -4.1367   15.2774 N   0  0  0  0  0  0  0  0  0  0  0  0
    2.2427   -2.9336   18.0471 N   0  0  0  0  0  0  0  0  0  0  0  0
    1.4497   -2.5641   19.0729 C   0  0  0  0  0  0  0  0  0  0  0  0
    0.1787   -2.9152   18.7932 N   0  0  0  0  0  0  0  0  0  0  0  0
  1  7  2  0  0  0  0
  1  2  1  0  0  0  0
  2  3  1  0  0  0  0
  2  4  2  0  0  0  0
  4  5  1  0  0  0  0
  5  6  2  0  0  0  0
  5 11  1  0  0  0  0
  6  7  1  0  0  0  0
  6  9  1  0  0  0  0
  7  8  1  0  0  0  0
  9 10  1  0  0  0  0
 10 11  2  0  0  0  0
M  END
>  <CHROM.1>
0.71078716,-3.85027679,16.69408101,-2.06410718,0.15199440,1.11760614

>  <Name>
ligand

>  <RI>
0

>  <Rbt.Current_Directory>
/home/itssahil/PROJECTS/Mol_Feturizer/New_Systems/rnas/4LVZ

>  <Rbt.Executable>
rbdock ($Id: //depot/dev/client3/rdock/2013.1/src/exe/rbdock.cxx#4 $)

>  <Rbt.Library>
libRbt.so (2013.1, Build901 2013/11/27)

>  <Rbt.Parameter_File>
/export/apps/rDock/src/rDock_2013.1_src/data/scripts/dock_solv.prm

>  <Rbt.Receptor>
prm/blind_docking_20.prm

>  <SCORE>
-5.61717

>  <SCORE.INTER>
-5.61717

>  <SCORE.INTER.CONST>
1

>  <SCORE.INTER.POLAR>
0

>  <SCORE.INTER.ROT>
0

>  <SCORE.INTER.SOLV>
4.10889

>  <SCORE.INTER.VDW>
-8.71441

>  <SCORE.INTER.norm>
-0.510652

>  <SCORE.INTRA>
0

>  <SCORE.INTRA.DIHEDRAL>
0

>  <SCORE.INTRA.DIHEDRAL.0>
0

>  <SCORE.INTRA.POLAR>
0

>  <SCORE.INTRA.POLAR.0>
0

>  <SCORE.INTRA.REPUL>
0

>  <SCORE.INTRA.REPUL.0>
0

>  <SCORE.INTRA.SOLV>
0

>  <SCORE.INTRA.SOLV.lig_0>
-49.4056

>  <SCORE.INTRA.VDW>
0

>  <SCORE.INTRA.VDW.0>
0

>  <SCORE.INTRA.norm>
0

>  <SCORE.RESTR>
0

>  <SCORE.RESTR.CAVITY>
0

>  <SCORE.RESTR.norm>
0

>  <SCORE.SYSTEM>
0

>  <SCORE.SYSTEM.CONST>
0

>  <SCORE.SYSTEM.DIHEDRAL>
0

>  <SCORE.SYSTEM.SOLV>
0

>  <SCORE.SYSTEM.norm>
0

>  <SCORE.heavy>
11

>  <SCORE.norm>
-0.510652

>  <RMSD>
19.425

$$$$
ligand
 OpenBabel11021811503D
libRbt.so/2013.1/901 2013/11/27
 11 12  0  0  0  0  0  0  0  0999 V2000
    0.5384   -4.6775   15.1433 N   0  0  0  0  0  0  0  0  0  0  0  0
   -0.7251   -4.6954   15.6351 C   0  0  0  0  0  0  0  0  0  0  0  0
   -1.7897   -5.3094   14.8991 N   0  0  0  0  0  0  0  0  0  0  0  0
   -1.0092   -4.1318   16.8227 N   0  0  0  0  0  0  0  0  0  0  0  0
   -0.0302   -3.5264   17.5782 C   0  0  0  0  0  0  0  0  0  0  0  0
    1.2668   -3.4910   17.0998 C   0  0  0  0  0  0  0  0  0  0  0  0
    1.5402   -4.0913   15.8345 C   0  0  0  0  0  0  0  0  0  0  0  0
    2.8709   -4.0709   15.3085 N   0  0  0  0  0  0  0  0  0  0  0  0
    2.0219   -2.8291   18.0493 N   0  0  0  0  0  0  0  0  0  0  0  0
    1.2181   -2.4660   19.0690 C   0  0  0  0  0  0  0  0  0  0  0  0
   -0.0380   -2.8779   18.8053 N   0  0  0  0  0  0  0  0  0  0  0  0
  1  7  2  0  0  0  0
  1  2  1  0  0  0  0
  2  3  1  0  0  0  0
  2  4  2  0  0  0  0
  4  5  1  0  0  0  0
  5  6  2  0  0  0  0
  5 11  1  0  0  0  0
  6  7  1  0  0  0  0
  6  9  1  0  0  0  0
  7  8  1  0  0  0  0
  9 10  1  0  0  0  0
 10 11  2  0  0  0  0
M  END
>  <CHROM.1>
0.52472839,-3.84577040,16.72917290,-2.04892507,0.19187444,1.08821241

>  <Name>
ligand

>  <RI>
0

>  <Rbt.Current_Directory>
/home/itssahil/PROJECTS/Mol_Feturizer/New_Systems/rnas/4LVZ

>  <Rbt.Executable>
rbdock ($Id: //depot/dev/client3/rdock/2013.1/src/exe/rbdock.cxx#4 $)

>  <Rbt.Library>
libRbt.so (2013.1, Build901 2013/11/27)

>  <Rbt.Parameter_File>
/export/apps/rDock/src/rDock_2013.1_src/data/scripts/dock_solv.prm

>  <Rbt.Receptor>
prm/blind_docking_20.prm

>  <SCORE>
-5.58707

>  <SCORE.INTER>
-5.58726

>  <SCORE.INTER.CONST>
1

>  <SCORE.INTER.POLAR>
0

>  <SCORE.INTER.ROT>
0

>  <SCORE.INTER.SOLV>
3.77946

>  <SCORE.INTER.VDW>
-8.58466

>  <SCORE.INTER.norm>
-0.507933

>  <SCORE.INTRA>
0

>  <SCORE.INTRA.DIHEDRAL>
0

>  <SCORE.INTRA.DIHEDRAL.0>
0

>  <SCORE.INTRA.POLAR>
0

>  <SCORE.INTRA.POLAR.0>
0

>  <SCORE.INTRA.REPUL>
0

>  <SCORE.INTRA.REPUL.0>
0

>  <SCORE.INTRA.SOLV>
0

>  <SCORE.INTRA.SOLV.lig_0>
-49.4056

>  <SCORE.INTRA.VDW>
0

>  <SCORE.INTRA.VDW.0>
0

>  <SCORE.INTRA.norm>
0

>  <SCORE.RESTR>
0.000193975

>  <SCORE.RESTR.CAVITY>
0.000193975

>  <SCORE.RESTR.norm>
1.76341e-05

>  <SCORE.SYSTEM>
0

>  <SCORE.SYSTEM.CONST>
0

>  <SCORE.SYSTEM.DIHEDRAL>
0

>  <SCORE.SYSTEM.SOLV>
0

>  <SCORE.SYSTEM.norm>
0

>  <SCORE.heavy>
11

>  <SCORE.norm>
-0.507915

>  <RMSD>
19.426

$$$$
ligand
 OpenBabel11021811503D
libRbt.so/2013.1/901 2013/11/27
 11 12  0  0  0  0  0  0  0  0999 V2000
    0.5493   -4.6657   15.1391 N   0  0  0  0  0  0  0  0  0  0  0  0
   -0.7161   -4.6842   15.6257 C   0  0  0  0  0  0  0  0  0  0  0  0
   -1.7789   -5.2917   14.8818 N   0  0  0  0  0  0  0  0  0  0  0  0
   -1.0039   -4.1272   16.8156 N   0  0  0  0  0  0  0  0  0  0  0  0
   -0.0268   -3.5283   17.5786 C   0  0  0  0  0  0  0  0  0  0  0  0
    1.2722   -3.4925   17.1056 C   0  0  0  0  0  0  0  0  0  0  0  0
    1.5495   -4.0855   15.8378 C   0  0  0  0  0  0  0  0  0  0  0  0
    2.8823   -4.0646   15.3172 N   0  0  0  0  0  0  0  0  0  0  0  0
    2.0247   -2.8377   18.0620 N   0  0  0  0  0  0  0  0  0  0  0  0
    1.2176   -2.4793   19.0807 C   0  0  0  0  0  0  0  0  0  0  0  0
   -0.0382   -2.8871   18.8096 N   0  0  0  0  0  0  0  0  0  0  0  0
  1  7  2  0  0  0  0
  1  2  1  0  0  0  0
  2  3  1  0  0  0  0
  2  4  2  0  0  0  0
  4  5  1  0  0  0  0
  5  6  2  0  0  0  0
  5 11  1  0  0  0  0
  6  7  1  0  0  0  0
  6  9  1  0  0  0  0
  7  8  1  0  0  0  0
  9 10  1  0  0  0  0
 10 11  2  0  0  0  0
M  END
>  <CHROM.1>
0.53092342,-3.84352853,16.72988559,-2.04621982,0.18835813,1.09374289

>  <Name>
ligand

>  <RI>
0

>  <Rbt.Current_Directory>
/home/itssahil/PROJECTS/Mol_Feturizer/New_Systems/rnas/4LVZ

>  <Rbt.Executable>
rbdock ($Id: //depot/dev/client3/rdock/2013.1/src/exe/rbdock.cxx#4 $)

>  <Rbt.Library>
libRbt.so (2013.1, Build901 2013/11/27)

>  <Rbt.Parameter_File>
/export/apps/rDock/src/rDock_2013.1_src/data/scripts/dock_solv.prm

>  <Rbt.Receptor>
prm/blind_docking_20.prm

>  <SCORE>
-5.59452

>  <SCORE.INTER>
-5.59452

>  <SCORE.INTER.CONST>
1

>  <SCORE.INTER.POLAR>
0

>  <SCORE.INTER.ROT>
0

>  <SCORE.INTER.SOLV>
3.77522

>  <SCORE.INTER.VDW>
-8.58809

>  <SCORE.INTER.norm>
-0.508593

>  <SCORE.INTRA>
0

>  <SCORE.INTRA.DIHEDRAL>
0

>  <SCORE.INTRA.DIHEDRAL.0>
0

>  <SCORE.INTRA.POLAR>
0

>  <SCORE.INTRA.POLAR.0>
0

>  <SCORE.INTRA.REPUL>
0

>  <SCORE.INTRA.REPUL.0>
0

>  <SCORE.INTRA.SOLV>
0

>  <SCORE.INTRA.SOLV.lig_0>
-49.4056

>  <SCORE.INTRA.VDW>
0

>  <SCORE.INTRA.VDW.0>
0

>  <SCORE.INTRA.norm>
0

>  <SCORE.RESTR>
0

>  <SCORE.RESTR.CAVITY>
0

>  <SCORE.RESTR.norm>
0

>  <SCORE.SYSTEM>
0

>  <SCORE.SYSTEM.CONST>
0

>  <SCORE.SYSTEM.DIHEDRAL>
0

>  <SCORE.SYSTEM.SOLV>
0

>  <SCORE.SYSTEM.norm>
0

>  <SCORE.heavy>
11

>  <SCORE.norm>
-0.508593

>  <RMSD>
19.427

$$$$
ligand
 OpenBabel11021811503D
libRbt.so/2013.1/901 2013/11/27
 11 12  0  0  0  0  0  0  0  0999 V2000
    0.7862   -4.6131   15.0750 N   0  0  0  0  0  0  0  0  0  0  0  0
   -0.4888   -4.6113   15.5365 C   0  0  0  0  0  0  0  0  0  0  0  0
   -1.5524   -5.1673   14.7545 N   0  0  0  0  0  0  0  0  0  0  0  0
   -0.7852   -4.0820   16.7369 N   0  0  0  0  0  0  0  0  0  0  0  0
    0.1921   -3.5328   17.5362 C   0  0  0  0  0  0  0  0  0  0  0  0
    1.5008   -3.5186   17.0894 C   0  0  0  0  0  0  0  0  0  0  0  0
    1.7873   -4.0814   15.8099 C   0  0  0  0  0  0  0  0  0  0  0  0
    3.1304   -4.0815   15.3158 N   0  0  0  0  0  0  0  0  0  0  0  0
    2.2514   -2.9132   18.0793 N   0  0  0  0  0  0  0  0  0  0  0  0
    1.4339   -2.5630   19.0926 C   0  0  0  0  0  0  0  0  0  0  0  0
    0.1733   -2.9283   18.7854 N   0  0  0  0  0  0  0  0  0  0  0  0
  1  7  2  0  0  0  0
  1  2  1  0  0  0  0
  2  3  1  0  0  0  0
  2  4  2  0  0  0  0
  4  5  1  0  0  0  0
  5  6  2  0  0  0  0
  5 11  1  0  0  0  0
  6  7  1  0  0  0  0
  6  9  1  0  0  0  0
  7  8  1  0  0  0  0
  9 10  1  0  0  0  0
 10 11  2  0  0  0  0
M  END
>  <CHROM.1>
0.75804683,-3.83802789,16.68915145,-2.04071215,0.15540562,1.12260348

>  <Name>
ligand

>  <RI>
0

>  <Rbt.Current_Directory>
/home/itssahil/PROJECTS/Mol_Feturizer/New_Systems/rnas/4LVZ

>  <Rbt.Executable>
rbdock ($Id: //depot/dev/client3/rdock/2013.1/src/exe/rbdock.cxx#4 $)

>  <Rbt.Library>
libRbt.so (2013.1, Build901 2013/11/27)

>  <Rbt.Parameter_File>
/export/apps/rDock/src/rDock_2013.1_src/data/scripts/dock_solv.prm

>  <Rbt.Receptor>
prm/blind_docking_20.prm

>  <SCORE>
-5.62792

>  <SCORE.INTER>
-5.62792

>  <SCORE.INTER.CONST>
1

>  <SCORE.INTER.POLAR>
0

>  <SCORE.INTER.ROT>
0

>  <SCORE.INTER.SOLV>
4.08226

>  <SCORE.INTER.VDW>
-8.7127

>  <SCORE.INTER.norm>
-0.511629

>  <SCORE.INTRA>
0

>  <SCORE.INTRA.DIHEDRAL>
0

>  <SCORE.INTRA.DIHEDRAL.0>
0

>  <SCORE.INTRA.POLAR>
0

>  <SCORE.INTRA.POLAR.0>
0

>  <SCORE.INTRA.REPUL>
0

>  <SCORE.INTRA.REPUL.0>
0

>  <SCORE.INTRA.SOLV>
0

>  <SCORE.INTRA.SOLV.lig_0>
-49.4056

>  <SCORE.INTRA.VDW>
0

>  <SCORE.INTRA.VDW.0>
0

>  <SCORE.INTRA.norm>
0

>  <SCORE.RESTR>
0

>  <SCORE.RESTR.CAVITY>
0

>  <SCORE.RESTR.norm>
0

>  <SCORE.SYSTEM>
0

>  <SCORE.SYSTEM.CONST>
0

>  <SCORE.SYSTEM.DIHEDRAL>
0

>  <SCORE.SYSTEM.SOLV>
0

>  <SCORE.SYSTEM.norm>
0

>  <SCORE.heavy>
11

>  <SCORE.norm>
-0.511629

>  <RMSD>
19.433

$$$$
ligand
 OpenBabel11021811503D
libRbt.so/2013.1/901 2013/11/27
 11 12  0  0  0  0  0  0  0  0999 V2000
    0.7601   -4.5978   15.0551 N   0  0  0  0  0  0  0  0  0  0  0  0
   -0.5128   -4.5881   15.5222 C   0  0  0  0  0  0  0  0  0  0  0  0
   -1.5854   -5.1244   14.7385 N   0  0  0  0  0  0  0  0  0  0  0  0
   -0.7987   -4.0694   16.7297 N   0  0  0  0  0  0  0  0  0  0  0  0
    0.1876   -3.5393   17.5308 C   0  0  0  0  0  0  0  0  0  0  0  0
    1.4944   -3.5335   17.0786 C   0  0  0  0  0  0  0  0  0  0  0  0
    1.7698   -4.0847   15.7916 C   0  0  0  0  0  0  0  0  0  0  0  0
    3.1107   -4.0930   15.2917 N   0  0  0  0  0  0  0  0  0  0  0  0
    2.2553   -2.9470   18.0720 N   0  0  0  0  0  0  0  0  0  0  0  0
    1.4458   -2.5999   19.0927 C   0  0  0  0  0  0  0  0  0  0  0  0
    0.1802   -2.9487   18.7869 N   0  0  0  0  0  0  0  0  0  0  0  0
  1  7  2  0  0  0  0
  1  2  1  0  0  0  0
  2  3  1  0  0  0  0
  2  4  2  0  0  0  0
  4  5  1  0  0  0  0
  5  6  2  0  0  0  0
  5 11  1  0  0  0  0
  6  7  1  0  0  0  0
  6  9  1  0  0  0  0
  7  8  1  0  0  0  0
  9 10  1  0  0  0  0
 10 11  2  0  0  0  0
M  END
>  <CHROM.1>
0.74674426,-3.84074076,16.67801648,-2.04905436,0.14795346,1.13512374

>  <Name>
ligand

>  <RI>
0

>  <Rbt.Current_Directory>
/home/itssahil/PROJECTS/Mol_Feturizer/New_Systems/rnas/4LVZ

>  <Rbt.Executable>
rbdock ($Id: //depot/dev/client3/rdock/2013.1/src/exe/rbdock.cxx#4 $)

>  <Rbt.Library>
libRbt.so (2013.1, Build901 2013/11/27)

>  <Rbt.Parameter_File>
/export/apps/rDock/src/rDock_2013.1_src/data/scripts/dock_solv.prm

>  <Rbt.Receptor>
prm/blind_docking_20.prm

>  <SCORE>
-5.65916

>  <SCORE.INTER>
-5.65949

>  <SCORE.INTER.CONST>
1

>  <SCORE.INTER.POLAR>
0

>  <SCORE.INTER.ROT>
0

>  <SCORE.INTER.SOLV>
4.09083

>  <SCORE.INTER.VDW>
-8.7366

>  <SCORE.INTER.norm>
-0.514499

>  <SCORE.INTRA>
0

>  <SCORE.INTRA.DIHEDRAL>
0

>  <SCORE.INTRA.DIHEDRAL.0>
0

>  <SCORE.INTRA.POLAR>
0

>  <SCORE.INTRA.POLAR.0>
0

>  <SCORE.INTRA.REPUL>
0

>  <SCORE.INTRA.REPUL.0>
0

>  <SCORE.INTRA.SOLV>
0

>  <SCORE.INTRA.SOLV.lig_0>
-49.4056

>  <SCORE.INTRA.VDW>
0

>  <SCORE.INTRA.VDW.0>
0

>  <SCORE.INTRA.norm>
0

>  <SCORE.RESTR>
0.000330166

>  <SCORE.RESTR.CAVITY>
0.000330166

>  <SCORE.RESTR.norm>
3.00151e-05

>  <SCORE.SYSTEM>
0

>  <SCORE.SYSTEM.CONST>
0

>  <SCORE.SYSTEM.DIHEDRAL>
0

>  <SCORE.SYSTEM.SOLV>
0

>  <SCORE.SYSTEM.norm>
0

>  <SCORE.heavy>
11

>  <SCORE.norm>
-0.514469

>  <RMSD>
19.437

$$$$
ligand
 OpenBabel11021811503D
libRbt.so/2013.1/901 2013/11/27
 11 12  0  0  0  0  0  0  0  0999 V2000
    0.7845   -4.5948   15.0684 N   0  0  0  0  0  0  0  0  0  0  0  0
   -0.4909   -4.5873   15.5288 C   0  0  0  0  0  0  0  0  0  0  0  0
   -1.5575   -5.1311   14.7424 N   0  0  0  0  0  0  0  0  0  0  0  0
   -0.7848   -4.0636   16.7322 N   0  0  0  0  0  0  0  0  0  0  0  0
    0.1955   -3.5261   17.5358 C   0  0  0  0  0  0  0  0  0  0  0  0
    1.5046   -3.5179   17.0903 C   0  0  0  0  0  0  0  0  0  0  0  0
    1.7885   -4.0746   15.8075 C   0  0  0  0  0  0  0  0  0  0  0  0
    3.1320   -4.0807   15.3146 N   0  0  0  0  0  0  0  0  0  0  0  0
    2.2584   -2.9239   18.0846 N   0  0  0  0  0  0  0  0  0  0  0  0
    1.4424   -2.5746   19.0995 C   0  0  0  0  0  0  0  0  0  0  0  0
    0.1796   -2.9293   18.7888 N   0  0  0  0  0  0  0  0  0  0  0  0
  1  7  2  0  0  0  0
  1  2  1  0  0  0  0
  2  3  1  0  0  0  0
  2  4  2  0  0  0  0
  4  5  1  0  0  0  0
  5  6  2  0  0  0  0
  5 11  1  0  0  0  0
  6  7  1  0  0  0  0
  6  9  1  0  0  0  0
  7  8  1  0  0  0  0
  9 10  1  0  0  0  0
 10 11  2  0  0  0  0
M  END
>  <CHROM.1>
0.76010640,-3.82978942,16.68739646,-2.04285090,0.14889770,1.12922344

>  <Name>
ligand

>  <RI>
0

>  <Rbt.Current_Directory>
/home/itssahil/PROJECTS/Mol_Feturizer/New_Systems/rnas/4LVZ

>  <Rbt.Executable>
rbdock ($Id: //depot/dev/client3/rdock/2013.1/src/exe/rbdock.cxx#4 $)

>  <Rbt.Library>
libRbt.so (2013.1, Build901 2013/11/27)

>  <Rbt.Parameter_File>
/export/apps/rDock/src/rDock_2013.1_src/data/scripts/dock_solv.prm

>  <Rbt.Receptor>
prm/blind_docking_20.prm

>  <SCORE>
-5.65056

>  <SCORE.INTER>
-5.65056

>  <SCORE.INTER.CONST>
1

>  <SCORE.INTER.POLAR>
0

>  <SCORE.INTER.ROT>
0

>  <SCORE.INTER.SOLV>
4.09316

>  <SCORE.INTER.VDW>
-8.73143

>  <SCORE.INTER.norm>
-0.513688

>  <SCORE.INTRA>
0

>  <SCORE.INTRA.DIHEDRAL>
0

>  <SCORE.INTRA.DIHEDRAL.0>
0

>  <SCORE.INTRA.POLAR>
0

>  <SCORE.INTRA.POLAR.0>
0

>  <SCORE.INTRA.REPUL>
0

>  <SCORE.INTRA.REPUL.0>
0

>  <SCORE.INTRA.SOLV>
0

>  <SCORE.INTRA.SOLV.lig_0>
-49.4056

>  <SCORE.INTRA.VDW>
0

>  <SCORE.INTRA.VDW.0>
0

>  <SCORE.INTRA.norm>
0

>  <SCORE.RESTR>
0

>  <SCORE.RESTR.CAVITY>
0

>  <SCORE.RESTR.norm>
0

>  <SCORE.SYSTEM>
0

>  <SCORE.SYSTEM.CONST>
0

>  <SCORE.SYSTEM.DIHEDRAL>
0

>  <SCORE.SYSTEM.SOLV>
0

>  <SCORE.SYSTEM.norm>
0

>  <SCORE.heavy>
11

>  <SCORE.norm>
-0.513688

>  <RMSD>
19.441

$$$$
ligand
 OpenBabel11021811503D
libRbt.so/2013.1/901 2013/11/27
 11 12  0  0  0  0  0  0  0  0999 V2000
    0.7796   -4.5958   15.0485 N   0  0  0  0  0  0  0  0  0  0  0  0
   -0.4948   -4.5925   15.5119 C   0  0  0  0  0  0  0  0  0  0  0  0
   -1.5624   -5.1340   14.7251 N   0  0  0  0  0  0  0  0  0  0  0  0
   -0.7867   -4.0753   16.7186 N   0  0  0  0  0  0  0  0  0  0  0  0
    0.1946   -3.5404   17.5227 C   0  0  0  0  0  0  0  0  0  0  0  0
    1.5027   -3.5280   17.0742 C   0  0  0  0  0  0  0  0  0  0  0  0
    1.7845   -4.0777   15.7880 C   0  0  0  0  0  0  0  0  0  0  0  0
    3.1269   -4.0793   15.2920 N   0  0  0  0  0  0  0  0  0  0  0  0
    2.2578   -2.9379   18.0698 N   0  0  0  0  0  0  0  0  0  0  0  0
    1.4436   -2.5949   19.0882 C   0  0  0  0  0  0  0  0  0  0  0  0
    0.1807   -2.9499   18.7787 N   0  0  0  0  0  0  0  0  0  0  0  0
  1  7  2  0  0  0  0
  1  2  1  0  0  0  0
  2  3  1  0  0  0  0
  2  4  2  0  0  0  0
  4  5  1  0  0  0  0
  5  6  2  0  0  0  0
  5 11  1  0  0  0  0
  6  7  1  0  0  0  0
  6  9  1  0  0  0  0
  7  8  1  0  0  0  0
  9 10  1  0  0  0  0
 10 11  2  0  0  0  0
M  END
>  <CHROM.1>
0.75772519,-3.83895477,16.67142701,-2.04428259,0.15122096,1.13448606

>  <Name>
ligand

>  <RI>
0

>  <Rbt.Current_Directory>
/home/itssahil/PROJECTS/Mol_Feturizer/New_Systems/rnas/4LVZ

>  <Rbt.Executable>
rbdock ($Id: //depot/dev/client3/rdock/2013.1/src/exe/rbdock.cxx#4 $)

>  <Rbt.Library>
libRbt.so (2013.1, Build901 2013/11/27)

>  <Rbt.Parameter_File>
/export/apps/rDock/src/rDock_2013.1_src/data/scripts/dock_solv.prm

>  <Rbt.Receptor>
prm/blind_docking_20.prm

>  <SCORE>
-5.66755

>  <SCORE.INTER>
-5.66755

>  <SCORE.INTER.CONST>
1

>  <SCORE.INTER.POLAR>
0

>  <SCORE.INTER.ROT>
0

>  <SCORE.INTER.SOLV>
4.10158

>  <SCORE.INTER.VDW>
-8.74556

>  <SCORE.INTER.norm>
-0.515232

>  <SCORE.INTRA>
0

>  <SCORE.INTRA.DIHEDRAL>
0

>  <SCORE.INTRA.DIHEDRAL.0>
0

>  <SCORE.INTRA.POLAR>
0

>  <SCORE.INTRA.POLAR.0>
0

>  <SCORE.INTRA.REPUL>
0

>  <SCORE.INTRA.REPUL.0>
0

>  <SCORE.INTRA.SOLV>
0

>  <SCORE.INTRA.SOLV.lig_0>
-49.4056

>  <SCORE.INTRA.VDW>
0

>  <SCORE.INTRA.VDW.0>
0

>  <SCORE.INTRA.norm>
0

>  <SCORE.RESTR>
0

>  <SCORE.RESTR.CAVITY>
0

>  <SCORE.RESTR.norm>
0

>  <SCORE.SYSTEM>
0

>  <SCORE.SYSTEM.CONST>
0

>  <SCORE.SYSTEM.DIHEDRAL>
0

>  <SCORE.SYSTEM.SOLV>
0

>  <SCORE.SYSTEM.norm>
0

>  <SCORE.heavy>
11

>  <SCORE.norm>
-0.515232

>  <RMSD>
19.441

$$$$
ligand
 OpenBabel11021811503D
libRbt.so/2013.1/901 2013/11/27
 11 12  0  0  0  0  0  0  0  0999 V2000
    0.7779   -4.5963   15.0644 N   0  0  0  0  0  0  0  0  0  0  0  0
   -0.4973   -4.5875   15.5252 C   0  0  0  0  0  0  0  0  0  0  0  0
   -1.5646   -5.1306   14.7392 N   0  0  0  0  0  0  0  0  0  0  0  0
   -0.7903   -4.0632   16.7286 N   0  0  0  0  0  0  0  0  0  0  0  0
    0.1907   -3.5264   17.5317 C   0  0  0  0  0  0  0  0  0  0  0  0
    1.4997   -3.5196   17.0858 C   0  0  0  0  0  0  0  0  0  0  0  0
    1.7827   -4.0768   15.8031 C   0  0  0  0  0  0  0  0  0  0  0  0
    3.1260   -4.0842   15.3097 N   0  0  0  0  0  0  0  0  0  0  0  0
    2.2543   -2.9260   18.0798 N   0  0  0  0  0  0  0  0  0  0  0  0
    1.4389   -2.5756   19.0947 C   0  0  0  0  0  0  0  0  0  0  0  0
    0.1757   -2.9293   18.7846 N   0  0  0  0  0  0  0  0  0  0  0  0
  1  7  2  0  0  0  0
  1  2  1  0  0  0  0
  2  3  1  0  0  0  0
  2  4  2  0  0  0  0
  4  5  1  0  0  0  0
  5  6  2  0  0  0  0
  5 11  1  0  0  0  0
  6  7  1  0  0  0  0
  6  9  1  0  0  0  0
  7  8  1  0  0  0  0
  9 10  1  0  0  0  0
 10 11  2  0  0  0  0
M  END
>  <CHROM.1>
0.75475494,-3.83083736,16.68320846,-2.04351413,0.14820645,1.12906013

>  <Name>
ligand

>  <RI>
0

>  <Rbt.Current_Directory>
/home/itssahil/PROJECTS/Mol_Feturizer/New_Systems/rnas/4LVZ

>  <Rbt.Executable>
rbdock ($Id: //depot/dev/client3/rdock/2013.1/src/exe/rbdock.cxx#4 $)

>  <Rbt.Library>
libRbt.so (2013.1, Build901 2013/11/27)

>  <Rbt.Parameter_File>
/export/apps/rDock/src/rDock_2013.1_src/data/scripts/dock_solv.prm

>  <Rbt.Receptor>
prm/blind_docking_20.prm

>  <SCORE>
-5.6526

>  <SCORE.INTER>
-5.65274

>  <SCORE.INTER.CONST>
1

>  <SCORE.INTER.POLAR>
0

>  <SCORE.INTER.ROT>
0

>  <SCORE.INTER.SOLV>
4.095

>  <SCORE.INTER.VDW>
-8.73349

>  <SCORE.INTER.norm>
-0.513885

>  <SCORE.INTRA>
0

>  <SCORE.INTRA.DIHEDRAL>
0

>  <SCORE.INTRA.DIHEDRAL.0>
0

>  <SCORE.INTRA.POLAR>
0

>  <SCORE.INTRA.POLAR.0>
0

>  <SCORE.INTRA.REPUL>
0

>  <SCORE.INTRA.REPUL.0>
0

>  <SCORE.INTRA.SOLV>
0

>  <SCORE.INTRA.SOLV.lig_0>
-49.4056

>  <SCORE.INTRA.VDW>
0

>  <SCORE.INTRA.VDW.0>
0

>  <SCORE.INTRA.norm>
0

>  <SCORE.RESTR>
0.000135407

>  <SCORE.RESTR.CAVITY>
0.000135407

>  <SCORE.RESTR.norm>
1.23097e-05

>  <SCORE.SYSTEM>
0

>  <SCORE.SYSTEM.CONST>
0

>  <SCORE.SYSTEM.DIHEDRAL>
0

>  <SCORE.SYSTEM.SOLV>
0

>  <SCORE.SYSTEM.norm>
0

>  <SCORE.heavy>
11

>  <SCORE.norm>
-0.513873

>  <RMSD>
19.442

$$$$
ligand
 OpenBabel11021811503D
libRbt.so/2013.1/901 2013/11/27
 11 12  0  0  0  0  0  0  0  0999 V2000
    0.7884   -4.5920   15.0464 N   0  0  0  0  0  0  0  0  0  0  0  0
   -0.4872   -4.5894   15.5061 C   0  0  0  0  0  0  0  0  0  0  0  0
   -1.5523   -5.1313   14.7162 N   0  0  0  0  0  0  0  0  0  0  0  0
   -0.7828   -4.0725   16.7120 N   0  0  0  0  0  0  0  0  0  0  0  0
    0.1959   -3.5373   17.5190 C   0  0  0  0  0  0  0  0  0  0  0  0
    1.5053   -3.5242   17.0742 C   0  0  0  0  0  0  0  0  0  0  0  0
    1.7910   -4.0736   15.7888 C   0  0  0  0  0  0  0  0  0  0  0  0
    3.1348   -4.0745   15.2966 N   0  0  0  0  0  0  0  0  0  0  0  0
    2.2573   -2.9339   18.0721 N   0  0  0  0  0  0  0  0  0  0  0  0
    1.4400   -2.5914   19.0883 C   0  0  0  0  0  0  0  0  0  0  0  0
    0.1781   -2.9470   18.7750 N   0  0  0  0  0  0  0  0  0  0  0  0
  1  7  2  0  0  0  0
  1  2  1  0  0  0  0
  2  3  1  0  0  0  0
  2  4  2  0  0  0  0
  4  5  1  0  0  0  0
  5  6  2  0  0  0  0
  5 11  1  0  0  0  0
  6  7  1  0  0  0  0
  6  9  1  0  0  0  0
  7  8  1  0  0  0  0
  9 10  1  0  0  0  0
 10 11  2  0  0  0  0
M  END
>  <CHROM.1>
0.76161051,-3.83543823,16.66932940,-2.04145827,0.15043323,1.13419357

>  <Name>
ligand

>  <RI>
0

>  <Rbt.Current_Directory>
/home/itssahil/PROJECTS/Mol_Feturizer/New_Systems/rnas/4LVZ

>  <Rbt.Executable>
rbdock ($Id: //depot/dev/client3/rdock/2013.1/src/exe/rbdock.cxx#4 $)

>  <Rbt.Library>
libRbt.so (2013.1, Build901 2013/11/27)

>  <Rbt.Parameter_File>
/export/apps/rDock/src/rDock_2013.1_src/data/scripts/dock_solv.prm

>  <Rbt.Receptor>
prm/blind_docking_20.prm

>  <SCORE>
-5.67165

>  <SCORE.INTER>
-5.67165

>  <SCORE.INTER.CONST>
1

>  <SCORE.INTER.POLAR>
0

>  <SCORE.INTER.ROT>
0

>  <SCORE.INTER.SOLV>
4.11578

>  <SCORE.INTER.VDW>
-8.75303

>  <SCORE.INTER.norm>
-0.515604

>  <SCORE.INTRA>
0

>  <SCORE.INTRA.DIHEDRAL>
0

>  <SCORE.INTRA.DIHEDRAL.0>
0

>  <SCORE.INTRA.POLAR>
0

>  <SCORE.INTRA.POLAR.0>
0

>  <SCORE.INTRA.REPUL>
0

>  <SCORE.INTRA.REPUL.0>
0

>  <SCORE.INTRA.SOLV>
0

>  <SCORE.INTRA.SOLV.lig_0>
-49.4056

>  <SCORE.INTRA.VDW>
0

>  <SCORE.INTRA.VDW.0>
0

>  <SCORE.INTRA.norm>
0

>  <SCORE.RESTR>
0

>  <SCORE.RESTR.CAVITY>
0

>  <SCORE.RESTR.norm>
0

>  <SCORE.SYSTEM>
0

>  <SCORE.SYSTEM.CONST>
0

>  <SCORE.SYSTEM.DIHEDRAL>
0

>  <SCORE.SYSTEM.SOLV>
0

>  <SCORE.SYSTEM.norm>
0

>  <SCORE.heavy>
11

>  <SCORE.norm>
-0.515604

>  <RMSD>
19.444

$$$$
ligand
 OpenBabel11021811503D
libRbt.so/2013.1/901 2013/11/27
 11 12  0  0  0  0  0  0  0  0999 V2000
    0.7840   -4.5944   15.0487 N   0  0  0  0  0  0  0  0  0  0  0  0
   -0.4912   -4.5905   15.5096 C   0  0  0  0  0  0  0  0  0  0  0  0
   -1.5573   -5.1329   14.7215 N   0  0  0  0  0  0  0  0  0  0  0  0
   -0.7854   -4.0719   16.7151 N   0  0  0  0  0  0  0  0  0  0  0  0
    0.1944   -3.5360   17.5204 C   0  0  0  0  0  0  0  0  0  0  0  0
    1.5033   -3.5242   17.0744 C   0  0  0  0  0  0  0  0  0  0  0  0
    1.7876   -4.0755   15.7895 C   0  0  0  0  0  0  0  0  0  0  0  0
    3.1309   -4.0777   15.2960 N   0  0  0  0  0  0  0  0  0  0  0  0
    2.2565   -2.9329   18.0708 N   0  0  0  0  0  0  0  0  0  0  0  0
    1.4404   -2.5886   19.0872 C   0  0  0  0  0  0  0  0  0  0  0  0
    0.1780   -2.9440   18.7757 N   0  0  0  0  0  0  0  0  0  0  0  0
  1  7  2  0  0  0  0
  1  2  1  0  0  0  0
  2  3  1  0  0  0  0
  2  4  2  0  0  0  0
  4  5  1  0  0  0  0
  5  6  2  0  0  0  0
  5 11  1  0  0  0  0
  6  7  1  0  0  0  0
  6  9  1  0  0  0  0
  7  8  1  0  0  0  0
  9 10  1  0  0  0  0
 10 11  2  0  0  0  0
M  END
>  <CHROM.1>
0.75911226,-3.83559737,16.67064082,-2.04254004,0.15038720,1.13299870

>  <Name>
ligand

>  <RI>
0

>  <Rbt.Current_Directory>
/home/itssahil/PROJECTS/Mol_Feturizer/New_Systems/rnas/4LVZ

>  <Rbt.Executable>
rbdock ($Id: //depot/dev/client3/rdock/2013.1/src/exe/rbdock.cxx#4 $)

>  <Rbt.Library>
libRbt.so (2013.1, Build901 2013/11/27)

>  <Rbt.Parameter_File>
/export/apps/rDock/src/rDock_2013.1_src/data/scripts/dock_solv.prm

>  <Rbt.Receptor>
prm/blind_docking_20.prm

>  <SCORE>
-5.67499

>  <SCORE.INTER>
-5.67499

>  <SCORE.INTER.CONST>
1

>  <SCORE.INTER.POLAR>
0

>  <SCORE.INTER.ROT>
0

>  <SCORE.INTER.SOLV>
4.10574

>  <SCORE.INTER.VDW>
-8.75191

>  <SCORE.INTER.norm>
-0.515908

>  <SCORE.INTRA>
0

>  <SCORE.INTRA.DIHEDRAL>
0

>  <SCORE.INTRA.DIHEDRAL.0>
0

>  <SCORE.INTRA.POLAR>
0

>  <SCORE.INTRA.POLAR.0>
0

>  <SCORE.INTRA.REPUL>
0

>  <SCORE.INTRA.REPUL.0>
0

>  <SCORE.INTRA.SOLV>
0

>  <SCORE.INTRA.SOLV.lig_0>
-49.4056

>  <SCORE.INTRA.VDW>
0

>  <SCORE.INTRA.VDW.0>
0

>  <SCORE.INTRA.norm>
0

>  <SCORE.RESTR>
0

>  <SCORE.RESTR.CAVITY>
0

>  <SCORE.RESTR.norm>
0

>  <SCORE.SYSTEM>
0

>  <SCORE.SYSTEM.CONST>
0

>  <SCORE.SYSTEM.DIHEDRAL>
0

>  <SCORE.SYSTEM.SOLV>
0

>  <SCORE.SYSTEM.norm>
0

>  <SCORE.heavy>
11

>  <SCORE.norm>
-0.515908

>  <RMSD>
19.444

$$$$
ligand
 OpenBabel11021811503D
libRbt.so/2013.1/901 2013/11/27
 11 12  0  0  0  0  0  0  0  0999 V2000
    0.7798   -4.5908   15.0422 N   0  0  0  0  0  0  0  0  0  0  0  0
   -0.4970   -4.5855   15.4986 C   0  0  0  0  0  0  0  0  0  0  0  0
   -1.5616   -5.1225   14.7046 N   0  0  0  0  0  0  0  0  0  0  0  0
   -0.7944   -4.0705   16.7048 N   0  0  0  0  0  0  0  0  0  0  0  0
    0.1838   -3.5399   17.5156 C   0  0  0  0  0  0  0  0  0  0  0  0
    1.4943   -3.5297   17.0744 C   0  0  0  0  0  0  0  0  0  0  0  0
    1.7819   -4.0771   15.7885 C   0  0  0  0  0  0  0  0  0  0  0  0
    3.1270   -4.0808   15.2999 N   0  0  0  0  0  0  0  0  0  0  0  0
    2.2454   -2.9438   18.0756 N   0  0  0  0  0  0  0  0  0  0  0  0
    1.4265   -2.6012   19.0903 C   0  0  0  0  0  0  0  0  0  0  0  0
    0.1644   -2.9524   18.7730 N   0  0  0  0  0  0  0  0  0  0  0  0
  1  7  2  0  0  0  0
  1  2  1  0  0  0  0
  2  3  1  0  0  0  0
  2  4  2  0  0  0  0
  4  5  1  0  0  0  0
  5  6  2  0  0  0  0
  5 11  1  0  0  0  0
  6  7  1  0  0  0  0
  6  9  1  0  0  0  0
  7  8  1  0  0  0  0
  9 10  1  0  0  0  0
 10 11  2  0  0  0  0
M  END
>  <CHROM.1>
0.75086719,-3.83783734,16.66679106,-2.04026978,0.14665105,1.13627579

>  <Name>
ligand

>  <RI>
0

>  <Rbt.Current_Directory>
/home/itssahil/PROJECTS/Mol_Feturizer/New_Systems/rnas/4LVZ

>  <Rbt.Executable>
rbdock ($Id: //depot/dev/client3/rdock/2013.1/src/exe/rbdock.cxx#4 $)

>  <Rbt.Library>
libRbt.so (2013.1, Build901 2013/11/27)

>  <Rbt.Parameter_File>
/export/apps/rDock/src/rDock_2013.1_src/data/scripts/dock_solv.prm

>  <Rbt.Receptor>
prm/blind_docking_20.prm

>  <SCORE>
-5.64938

>  <SCORE.INTER>
-5.64938

>  <SCORE.INTER.CONST>
1

>  <SCORE.INTER.POLAR>
0

>  <SCORE.INTER.ROT>
0

>  <SCORE.INTER.SOLV>
4.09817

>  <SCORE.INTER.VDW>
-8.73231

>  <SCORE.INTER.norm>
-0.51358

>  <SCORE.INTRA>
0

>  <SCORE.INTRA.DIHEDRAL>
0

>  <SCORE.INTRA.DIHEDRAL.0>
0

>  <SCORE.INTRA.POLAR>
0

>  <SCORE.INTRA.POLAR.0>
0

>  <SCORE.INTRA.REPUL>
0

>  <SCORE.INTRA.REPUL.0>
0

>  <SCORE.INTRA.SOLV>
0

>  <SCORE.INTRA.SOLV.lig_0>
-49.4056

>  <SCORE.INTRA.VDW>
0

>  <SCORE.INTRA.VDW.0>
0

>  <SCORE.INTRA.norm>
0

>  <SCORE.RESTR>
0

>  <SCORE.RESTR.CAVITY>
0

>  <SCORE.RESTR.norm>
0

>  <SCORE.SYSTEM>
0

>  <SCORE.SYSTEM.CONST>
0

>  <SCORE.SYSTEM.DIHEDRAL>
0

>  <SCORE.SYSTEM.SOLV>
0

>  <SCORE.SYSTEM.norm>
0

>  <SCORE.heavy>
11

>  <SCORE.norm>
-0.51358

>  <RMSD>
19.444

$$$$
ligand
 OpenBabel11021811503D
libRbt.so/2013.1/901 2013/11/27
 11 12  0  0  0  0  0  0  0  0999 V2000
    0.7842   -4.5863   15.0436 N   0  0  0  0  0  0  0  0  0  0  0  0
   -0.4910   -4.5818   15.5044 C   0  0  0  0  0  0  0  0  0  0  0  0
   -1.5582   -5.1181   14.7137 N   0  0  0  0  0  0  0  0  0  0  0  0
   -0.7842   -4.0681   16.7123 N   0  0  0  0  0  0  0  0  0  0  0  0
    0.1967   -3.5382   17.5202 C   0  0  0  0  0  0  0  0  0  0  0  0
    1.5057   -3.5272   17.0744 C   0  0  0  0  0  0  0  0  0  0  0  0
    1.7889   -4.0731   15.7869 C   0  0  0  0  0  0  0  0  0  0  0  0
    3.1322   -4.0760   15.2936 N   0  0  0  0  0  0  0  0  0  0  0  0
    2.2601   -2.9423   18.0736 N   0  0  0  0  0  0  0  0  0  0  0  0
    1.4447   -2.6010   19.0916 C   0  0  0  0  0  0  0  0  0  0  0  0
    0.1815   -2.9521   18.7783 N   0  0  0  0  0  0  0  0  0  0  0  0
  1  7  2  0  0  0  0
  1  2  1  0  0  0  0
  2  3  1  0  0  0  0
  2  4  2  0  0  0  0
  4  5  1  0  0  0  0
  5  6  2  0  0  0  0
  5 11  1  0  0  0  0
  6  7  1  0  0  0  0
  6  9  1  0  0  0  0
  7  8  1  0  0  0  0
  9 10  1  0  0  0  0
 10 11  2  0  0  0  0
M  END
>  <CHROM.1>
0.76084136,-3.83508988,16.66910018,-2.04339830,0.14833767,1.13783083

>  <Name>
ligand

>  <RI>
0

>  <Rbt.Current_Directory>
/home/itssahil/PROJECTS/Mol_Feturizer/New_Systems/rnas/4LVZ

>  <Rbt.Executable>
rbdock ($Id: //depot/dev/client3/rdock/2013.1/src/exe/rbdock.cxx#4 $)

>  <Rbt.Library>
libRbt.so (2013.1, Build901 2013/11/27)

>  <Rbt.Parameter_File>
/export/apps/rDock/src/rDock_2013.1_src/data/scripts/dock_solv.prm

>  <Rbt.Receptor>
prm/blind_docking_20.prm

>  <SCORE>
-5.66848

>  <SCORE.INTER>
-5.66848

>  <SCORE.INTER.CONST>
1

>  <SCORE.INTER.POLAR>
0

>  <SCORE.INTER.ROT>
0

>  <SCORE.INTER.SOLV>
4.1068

>  <SCORE.INTER.VDW>
-8.74792

>  <SCORE.INTER.norm>
-0.515316

>  <SCORE.INTRA>
0

>  <SCORE.INTRA.DIHEDRAL>
0

>  <SCORE.INTRA.DIHEDRAL.0>
0

>  <SCORE.INTRA.POLAR>
0

>  <SCORE.INTRA.POLAR.0>
0

>  <SCORE.INTRA.REPUL>
0

>  <SCORE.INTRA.REPUL.0>
0

>  <SCORE.INTRA.SOLV>
0

>  <SCORE.INTRA.SOLV.lig_0>
-49.4056

>  <SCORE.INTRA.VDW>
0

>  <SCORE.INTRA.VDW.0>
0

>  <SCORE.INTRA.norm>
0

>  <SCORE.RESTR>
0

>  <SCORE.RESTR.CAVITY>
0

>  <SCORE.RESTR.norm>
0

>  <SCORE.SYSTEM>
0

>  <SCORE.SYSTEM.CONST>
0

>  <SCORE.SYSTEM.DIHEDRAL>
0

>  <SCORE.SYSTEM.SOLV>
0

>  <SCORE.SYSTEM.norm>
0

>  <SCORE.heavy>
11

>  <SCORE.norm>
-0.515316

>  <RMSD>
19.445

$$$$
ligand
 OpenBabel11021811503D
libRbt.so/2013.1/901 2013/11/27
 11 12  0  0  0  0  0  0  0  0999 V2000
    0.7841   -4.5898   15.0494 N   0  0  0  0  0  0  0  0  0  0  0  0
   -0.4898   -4.5843   15.5137 C   0  0  0  0  0  0  0  0  0  0  0  0
   -1.5589   -5.1246   14.7281 N   0  0  0  0  0  0  0  0  0  0  0  0
   -0.7801   -4.0659   16.7203 N   0  0  0  0  0  0  0  0  0  0  0  0
    0.2026   -3.5321   17.5233 C   0  0  0  0  0  0  0  0  0  0  0  0
    1.5104   -3.5220   17.0739 C   0  0  0  0  0  0  0  0  0  0  0  0
    1.7904   -4.0729   15.7878 C   0  0  0  0  0  0  0  0  0  0  0  0
    3.1324   -4.0769   15.2908 N   0  0  0  0  0  0  0  0  0  0  0  0
    2.2672   -2.9324   18.0686 N   0  0  0  0  0  0  0  0  0  0  0  0
    1.4543   -2.5875   19.0874 C   0  0  0  0  0  0  0  0  0  0  0  0
    0.1906   -2.9408   18.7790 N   0  0  0  0  0  0  0  0  0  0  0  0
  1  7  2  0  0  0  0
  1  2  1  0  0  0  0
  2  3  1  0  0  0  0
  2  4  2  0  0  0  0
  4  5  1  0  0  0  0
  5  6  2  0  0  0  0
  5 11  1  0  0  0  0
  6  7  1  0  0  0  0
  6  9  1  0  0  0  0
  7  8  1  0  0  0  0
  9 10  1  0  0  0  0
 10 11  2  0  0  0  0
M  END
>  <CHROM.1>
0.76467221,-3.83199438,16.67186233,-2.04562986,0.15014105,1.13408658

>  <Name>
ligand

>  <RI>
0

>  <Rbt.Current_Directory>
/home/itssahil/PROJECTS/Mol_Feturizer/New_Systems/rnas/4LVZ

>  <Rbt.Executable>
rbdock ($Id: //depot/dev/client3/rdock/2013.1/src/exe/rbdock.cxx#4 $)

>  <Rbt.Library>
libRbt.so (2013.1, Build901 2013/11/27)

>  <Rbt.Parameter_File>
/export/apps/rDock/src/rDock_2013.1_src/data/scripts/dock_solv.prm

>  <Rbt.Receptor>
prm/blind_docking_20.prm

>  <SCORE>
-5.65806

>  <SCORE.INTER>
-5.65816

>  <SCORE.INTER.CONST>
1

>  <SCORE.INTER.POLAR>
0

>  <SCORE.INTER.ROT>
0

>  <SCORE.INTER.SOLV>
4.11926

>  <SCORE.INTER.VDW>
-8.7452

>  <SCORE.INTER.norm>
-0.514379

>  <SCORE.INTRA>
0

>  <SCORE.INTRA.DIHEDRAL>
0

>  <SCORE.INTRA.DIHEDRAL.0>
0

>  <SCORE.INTRA.POLAR>
0

>  <SCORE.INTRA.POLAR.0>
0

>  <SCORE.INTRA.REPUL>
0

>  <SCORE.INTRA.REPUL.0>
0

>  <SCORE.INTRA.SOLV>
0

>  <SCORE.INTRA.SOLV.lig_0>
-49.4056

>  <SCORE.INTRA.VDW>
0

>  <SCORE.INTRA.VDW.0>
0

>  <SCORE.INTRA.norm>
0

>  <SCORE.RESTR>
0.000104808

>  <SCORE.RESTR.CAVITY>
0.000104808

>  <SCORE.RESTR.norm>
9.52799e-06

>  <SCORE.SYSTEM>
0

>  <SCORE.SYSTEM.CONST>
0

>  <SCORE.SYSTEM.DIHEDRAL>
0

>  <SCORE.SYSTEM.SOLV>
0

>  <SCORE.SYSTEM.norm>
0

>  <SCORE.heavy>
11

>  <SCORE.norm>
-0.514369

>  <RMSD>
19.446

$$$$
ligand
 OpenBabel11021811503D
libRbt.so/2013.1/901 2013/11/27
 11 12  0  0  0  0  0  0  0  0999 V2000
    0.7754   -4.5949   15.0480 N   0  0  0  0  0  0  0  0  0  0  0  0
   -0.4997   -4.5883   15.5091 C   0  0  0  0  0  0  0  0  0  0  0  0
   -1.5669   -5.1297   14.7216 N   0  0  0  0  0  0  0  0  0  0  0  0
   -0.7929   -4.0679   16.7141 N   0  0  0  0  0  0  0  0  0  0  0  0
    0.1879   -3.5329   17.5187 C   0  0  0  0  0  0  0  0  0  0  0  0
    1.4968   -3.5239   17.0725 C   0  0  0  0  0  0  0  0  0  0  0  0
    1.7799   -4.0770   15.7881 C   0  0  0  0  0  0  0  0  0  0  0  0
    3.1232   -4.0820   15.2945 N   0  0  0  0  0  0  0  0  0  0  0  0
    2.2512   -2.9328   18.0682 N   0  0  0  0  0  0  0  0  0  0  0  0
    1.4358   -2.5861   19.0844 C   0  0  0  0  0  0  0  0  0  0  0  0
    0.1727   -2.9396   18.7734 N   0  0  0  0  0  0  0  0  0  0  0  0
  1  7  2  0  0  0  0
  1  2  1  0  0  0  0
  2  3  1  0  0  0  0
  2  4  2  0  0  0  0
  4  5  1  0  0  0  0
  5  6  2  0  0  0  0
  5 11  1  0  0  0  0
  6  7  1  0  0  0  0
  6  9  1  0  0  0  0
  7  8  1  0  0  0  0
  9 10  1  0  0  0  0
 10 11  2  0  0  0  0
M  END
>  <CHROM.1>
0.75200114,-3.83438579,16.66916242,-2.04339946,0.14886677,1.13210901

>  <Name>
ligand

>  <RI>
0

>  <Rbt.Current_Directory>
/home/itssahil/PROJECTS/Mol_Feturizer/New_Systems/rnas/4LVZ

>  <Rbt.Executable>
rbdock ($Id: //depot/dev/client3/rdock/2013.1/src/exe/rbdock.cxx#4 $)

>  <Rbt.Library>
libRbt.so (2013.1, Build901 2013/11/27)

>  <Rbt.Parameter_File>
/export/apps/rDock/src/rDock_2013.1_src/data/scripts/dock_solv.prm

>  <Rbt.Receptor>
prm/blind_docking_20.prm

>  <SCORE>
-5.67854

>  <SCORE.INTER>
-5.67854

>  <SCORE.INTER.CONST>
1

>  <SCORE.INTER.POLAR>
0

>  <SCORE.INTER.ROT>
0

>  <SCORE.INTER.SOLV>
4.10535

>  <SCORE.INTER.VDW>
-8.75414

>  <SCORE.INTER.norm>
-0.516231

>  <SCORE.INTRA>
0

>  <SCORE.INTRA.DIHEDRAL>
0

>  <SCORE.INTRA.DIHEDRAL.0>
0

>  <SCORE.INTRA.POLAR>
0

>  <SCORE.INTRA.POLAR.0>
0

>  <SCORE.INTRA.REPUL>
0

>  <SCORE.INTRA.REPUL.0>
0

>  <SCORE.INTRA.SOLV>
0

>  <SCORE.INTRA.SOLV.lig_0>
-49.4056

>  <SCORE.INTRA.VDW>
0

>  <SCORE.INTRA.VDW.0>
0

>  <SCORE.INTRA.norm>
0

>  <SCORE.RESTR>
0

>  <SCORE.RESTR.CAVITY>
0

>  <SCORE.RESTR.norm>
0

>  <SCORE.SYSTEM>
0

>  <SCORE.SYSTEM.CONST>
0

>  <SCORE.SYSTEM.DIHEDRAL>
0

>  <SCORE.SYSTEM.SOLV>
0

>  <SCORE.SYSTEM.norm>
0

>  <SCORE.heavy>
11

>  <SCORE.norm>
-0.516231

>  <RMSD>
19.446

$$$$
ligand
 OpenBabel11021811503D
libRbt.so/2013.1/901 2013/11/27
 11 12  0  0  0  0  0  0  0  0999 V2000
    0.7586   -4.5977   15.0533 N   0  0  0  0  0  0  0  0  0  0  0  0
   -0.5147   -4.5846   15.5195 C   0  0  0  0  0  0  0  0  0  0  0  0
   -1.5871   -5.1246   14.7383 N   0  0  0  0  0  0  0  0  0  0  0  0
   -0.8009   -4.0588   16.7238 N   0  0  0  0  0  0  0  0  0  0  0  0
    0.1852   -3.5248   17.5226 C   0  0  0  0  0  0  0  0  0  0  0  0
    1.4923   -3.5224   17.0711 C   0  0  0  0  0  0  0  0  0  0  0  0
    1.7681   -4.0811   15.7875 C   0  0  0  0  0  0  0  0  0  0  0  0
    3.1093   -4.0931   15.2884 N   0  0  0  0  0  0  0  0  0  0  0  0
    2.2530   -2.9308   18.0616 N   0  0  0  0  0  0  0  0  0  0  0  0
    1.4431   -2.5774   19.0799 C   0  0  0  0  0  0  0  0  0  0  0  0
    0.1774   -2.9271   18.7752 N   0  0  0  0  0  0  0  0  0  0  0  0
  1  7  2  0  0  0  0
  1  2  1  0  0  0  0
  2  3  1  0  0  0  0
  2  4  2  0  0  0  0
  4  5  1  0  0  0  0
  5  6  2  0  0  0  0
  5 11  1  0  0  0  0
  6  7  1  0  0  0  0
  6  9  1  0  0  0  0
  7  8  1  0  0  0  0
  9 10  1  0  0  0  0
 10 11  2  0  0  0  0
M  END
>  <CHROM.1>
0.74467805,-3.83143984,16.67181803,-2.04877383,0.14709800,1.12938329

>  <Name>
ligand

>  <RI>
0

>  <Rbt.Current_Directory>
/home/itssahil/PROJECTS/Mol_Feturizer/New_Systems/rnas/4LVZ

>  <Rbt.Executable>
rbdock ($Id: //depot/dev/client3/rdock/2013.1/src/exe/rbdock.cxx#4 $)

>  <Rbt.Library>
libRbt.so (2013.1, Build901 2013/11/27)

>  <Rbt.Parameter_File>
/export/apps/rDock/src/rDock_2013.1_src/data/scripts/dock_solv.prm

>  <Rbt.Receptor>
prm/blind_docking_20.prm

>  <SCORE>
-5.66492

>  <SCORE.INTER>
-5.66492

>  <SCORE.INTER.CONST>
1

>  <SCORE.INTER.POLAR>
0

>  <SCORE.INTER.ROT>
0

>  <SCORE.INTER.SOLV>
4.11543

>  <SCORE.INTER.VDW>
-8.74842

>  <SCORE.INTER.norm>
-0.514992

>  <SCORE.INTRA>
0

>  <SCORE.INTRA.DIHEDRAL>
0

>  <SCORE.INTRA.DIHEDRAL.0>
0

>  <SCORE.INTRA.POLAR>
0

>  <SCORE.INTRA.POLAR.0>
0

>  <SCORE.INTRA.REPUL>
0

>  <SCORE.INTRA.REPUL.0>
0

>  <SCORE.INTRA.SOLV>
0

>  <SCORE.INTRA.SOLV.lig_0>
-49.4056

>  <SCORE.INTRA.VDW>
0

>  <SCORE.INTRA.VDW.0>
0

>  <SCORE.INTRA.norm>
0

>  <SCORE.RESTR>
0

>  <SCORE.RESTR.CAVITY>
0

>  <SCORE.RESTR.norm>
0

>  <SCORE.SYSTEM>
0

>  <SCORE.SYSTEM.CONST>
0

>  <SCORE.SYSTEM.DIHEDRAL>
0

>  <SCORE.SYSTEM.SOLV>
0

>  <SCORE.SYSTEM.norm>
0

>  <SCORE.heavy>
11

>  <SCORE.norm>
-0.514992

>  <RMSD>
19.448

$$$$
ligand
 OpenBabel11021811503D
libRbt.so/2013.1/901 2013/11/27
 11 12  0  0  0  0  0  0  0  0999 V2000
    0.7713   -4.5936   15.0453 N   0  0  0  0  0  0  0  0  0  0  0  0
   -0.5040   -4.5846   15.5059 C   0  0  0  0  0  0  0  0  0  0  0  0
   -1.5719   -5.1243   14.7183 N   0  0  0  0  0  0  0  0  0  0  0  0
   -0.7967   -4.0633   16.7106 N   0  0  0  0  0  0  0  0  0  0  0  0
    0.1848   -3.5298   17.5154 C   0  0  0  0  0  0  0  0  0  0  0  0
    1.4939   -3.5233   17.0697 C   0  0  0  0  0  0  0  0  0  0  0  0
    1.7765   -4.0773   15.7855 C   0  0  0  0  0  0  0  0  0  0  0  0
    3.1199   -4.0849   15.2923 N   0  0  0  0  0  0  0  0  0  0  0  0
    2.2490   -2.9333   18.0654 N   0  0  0  0  0  0  0  0  0  0  0  0
    1.4339   -2.5848   19.0812 C   0  0  0  0  0  0  0  0  0  0  0  0
    0.1704   -2.9361   18.7699 N   0  0  0  0  0  0  0  0  0  0  0  0
  1  7  2  0  0  0  0
  1  2  1  0  0  0  0
  2  3  1  0  0  0  0
  2  4  2  0  0  0  0
  4  5  1  0  0  0  0
  5  6  2  0  0  0  0
  5 11  1  0  0  0  0
  6  7  1  0  0  0  0
  6  9  1  0  0  0  0
  7  8  1  0  0  0  0
  9 10  1  0  0  0  0
 10 11  2  0  0  0  0
M  END
>  <CHROM.1>
0.74869467,-3.83256583,16.66615245,-2.04387262,0.14709547,1.13185788

>  <Name>
ligand

>  <RI>
0

>  <Rbt.Current_Directory>
/home/itssahil/PROJECTS/Mol_Feturizer/New_Systems/rnas/4LVZ

>  <Rbt.Executable>
rbdock ($Id: //depot/dev/client3/rdock/2013.1/src/exe/rbdock.cxx#4 $)

>  <Rbt.Library>
libRbt.so (2013.1, Build901 2013/11/27)

>  <Rbt.Parameter_File>
/export/apps/rDock/src/rDock_2013.1_src/data/scripts/dock_solv.prm

>  <Rbt.Receptor>
prm/blind_docking_20.prm

>  <SCORE>
-5.68008

>  <SCORE.INTER>
-5.68056

>  <SCORE.INTER.CONST>
1

>  <SCORE.INTER.POLAR>
0

>  <SCORE.INTER.ROT>
0

>  <SCORE.INTER.SOLV>
4.11046

>  <SCORE.INTER.VDW>
-8.75719

>  <SCORE.INTER.norm>
-0.516415

>  <SCORE.INTRA>
0

>  <SCORE.INTRA.DIHEDRAL>
0

>  <SCORE.INTRA.DIHEDRAL.0>
0

>  <SCORE.INTRA.POLAR>
0

>  <SCORE.INTRA.POLAR.0>
0

>  <SCORE.INTRA.REPUL>
0

>  <SCORE.INTRA.REPUL.0>
0

>  <SCORE.INTRA.SOLV>
0

>  <SCORE.INTRA.SOLV.lig_0>
-49.4056

>  <SCORE.INTRA.VDW>
0

>  <SCORE.INTRA.VDW.0>
0

>  <SCORE.INTRA.norm>
0

>  <SCORE.RESTR>
0.000477808

>  <SCORE.RESTR.CAVITY>
0.000477808

>  <SCORE.RESTR.norm>
4.34371e-05

>  <SCORE.SYSTEM>
0

>  <SCORE.SYSTEM.CONST>
0

>  <SCORE.SYSTEM.DIHEDRAL>
0

>  <SCORE.SYSTEM.SOLV>
0

>  <SCORE.SYSTEM.norm>
0

>  <SCORE.heavy>
11

>  <SCORE.norm>
-0.516371

>  <RMSD>
19.449

$$$$
ligand
 OpenBabel11021811503D
libRbt.so/2013.1/901 2013/11/27
 11 12  0  0  0  0  0  0  0  0999 V2000
    0.7667   -4.5937   15.0484 N   0  0  0  0  0  0  0  0  0  0  0  0
   -0.5073   -4.5825   15.5127 C   0  0  0  0  0  0  0  0  0  0  0  0
   -1.5782   -5.1209   14.7284 N   0  0  0  0  0  0  0  0  0  0  0  0
   -0.7957   -4.0600   16.7179 N   0  0  0  0  0  0  0  0  0  0  0  0
    0.1890   -3.5277   17.5196 C   0  0  0  0  0  0  0  0  0  0  0  0
    1.4968   -3.5234   17.0702 C   0  0  0  0  0  0  0  0  0  0  0  0
    1.7748   -4.0785   15.7855 C   0  0  0  0  0  0  0  0  0  0  0  0
    3.1168   -4.0886   15.2885 N   0  0  0  0  0  0  0  0  0  0  0  0
    2.2557   -2.9340   18.0634 N   0  0  0  0  0  0  0  0  0  0  0  0
    1.4440   -2.5837   19.0814 C   0  0  0  0  0  0  0  0  0  0  0  0
    0.1790   -2.9332   18.7738 N   0  0  0  0  0  0  0  0  0  0  0  0
  1  7  2  0  0  0  0
  1  2  1  0  0  0  0
  2  3  1  0  0  0  0
  2  4  2  0  0  0  0
  4  5  1  0  0  0  0
  5  6  2  0  0  0  0
  5 11  1  0  0  0  0
  6  7  1  0  0  0  0
  6  9  1  0  0  0  0
  7  8  1  0  0  0  0
  9 10  1  0  0  0  0
 10 11  2  0  0  0  0
M  END
>  <CHROM.1>
0.74993939,-3.83174846,16.66893350,-2.04715173,0.14689673,1.13180092

>  <Name>
ligand

>  <RI>
0

>  <Rbt.Current_Directory>
/home/itssahil/PROJECTS/Mol_Feturizer/New_Systems/rnas/4LVZ

>  <Rbt.Executable>
rbdock ($Id: //depot/dev/client3/rdock/2013.1/src/exe/rbdock.cxx#4 $)

>  <Rbt.Library>
libRbt.so (2013.1, Build901 2013/11/27)

>  <Rbt.Parameter_File>
/export/apps/rDock/src/rDock_2013.1_src/data/scripts/dock_solv.prm

>  <Rbt.Receptor>
prm/blind_docking_20.prm

>  <SCORE>
-5.66683

>  <SCORE.INTER>
-5.66733

>  <SCORE.INTER.CONST>
1

>  <SCORE.INTER.POLAR>
0

>  <SCORE.INTER.ROT>
0

>  <SCORE.INTER.SOLV>
4.11683

>  <SCORE.INTER.VDW>
-8.7505

>  <SCORE.INTER.norm>
-0.515212

>  <SCORE.INTRA>
0

>  <SCORE.INTRA.DIHEDRAL>
0

>  <SCORE.INTRA.DIHEDRAL.0>
0

>  <SCORE.INTRA.POLAR>
0

>  <SCORE.INTRA.POLAR.0>
0

>  <SCORE.INTRA.REPUL>
0

>  <SCORE.INTRA.REPUL.0>
0

>  <SCORE.INTRA.SOLV>
0

>  <SCORE.INTRA.SOLV.lig_0>
-49.4056

>  <SCORE.INTRA.VDW>
0

>  <SCORE.INTRA.VDW.0>
0

>  <SCORE.INTRA.norm>
0

>  <SCORE.RESTR>
0.000496881

>  <SCORE.RESTR.CAVITY>
0.000496881

>  <SCORE.RESTR.norm>
4.5171e-05

>  <SCORE.SYSTEM>
0

>  <SCORE.SYSTEM.CONST>
0

>  <SCORE.SYSTEM.DIHEDRAL>
0

>  <SCORE.SYSTEM.SOLV>
0

>  <SCORE.SYSTEM.norm>
0

>  <SCORE.heavy>
11

>  <SCORE.norm>
-0.515167

>  <RMSD>
19.449

$$$$
ligand
 OpenBabel11021811503D
libRbt.so/2013.1/901 2013/11/27
 11 12  0  0  0  0  0  0  0  0999 V2000
    0.7812   -4.5932   15.0434 N   0  0  0  0  0  0  0  0  0  0  0  0
   -0.4949   -4.5872   15.5018 C   0  0  0  0  0  0  0  0  0  0  0  0
   -1.5601   -5.1296   14.7124 N   0  0  0  0  0  0  0  0  0  0  0  0
   -0.7908   -4.0665   16.7060 N   0  0  0  0  0  0  0  0  0  0  0  0
    0.1880   -3.5305   17.5124 C   0  0  0  0  0  0  0  0  0  0  0  0
    1.4978   -3.5208   17.0689 C   0  0  0  0  0  0  0  0  0  0  0  0
    1.7839   -4.0743   15.7852 C   0  0  0  0  0  0  0  0  0  0  0  0
    3.1281   -4.0787   15.2944 N   0  0  0  0  0  0  0  0  0  0  0  0
    2.2498   -2.9289   18.0658 N   0  0  0  0  0  0  0  0  0  0  0  0
    1.4321   -2.5822   19.0802 C   0  0  0  0  0  0  0  0  0  0  0  0
    0.1700   -2.9367   18.7668 N   0  0  0  0  0  0  0  0  0  0  0  0
  1  7  2  0  0  0  0
  1  2  1  0  0  0  0
  2  3  1  0  0  0  0
  2  4  2  0  0  0  0
  4  5  1  0  0  0  0
  5  6  2  0  0  0  0
  5 11  1  0  0  0  0
  6  7  1  0  0  0  0
  6  9  1  0  0  0  0
  7  8  1  0  0  0  0
  9 10  1  0  0  0  0
 10 11  2  0  0  0  0
M  END
>  <CHROM.1>
0.75404431,-3.83198881,16.66412254,-2.04127641,0.14857972,1.13136435

>  <Name>
ligand

>  <RI>
0

>  <Rbt.Current_Directory>
/home/itssahil/PROJECTS/Mol_Feturizer/New_Systems/rnas/4LVZ

>  <Rbt.Executable>
rbdock ($Id: //depot/dev/client3/rdock/2013.1/src/exe/rbdock.cxx#4 $)

>  <Rbt.Library>
libRbt.so (2013.1, Build901 2013/11/27)

>  <Rbt.Parameter_File>
/export/apps/rDock/src/rDock_2013.1_src/data/scripts/dock_solv.prm

>  <Rbt.Receptor>
prm/blind_docking_20.prm

>  <SCORE>
-5.68332

>  <SCORE.INTER>
-5.68344

>  <SCORE.INTER.CONST>
1

>  <SCORE.INTER.POLAR>
0

>  <SCORE.INTER.ROT>
0

>  <SCORE.INTER.SOLV>
4.11722

>  <SCORE.INTER.VDW>
-8.76137

>  <SCORE.INTER.norm>
-0.516677

>  <SCORE.INTRA>
0

>  <SCORE.INTRA.DIHEDRAL>
0

>  <SCORE.INTRA.DIHEDRAL.0>
0

>  <SCORE.INTRA.POLAR>
0

>  <SCORE.INTRA.POLAR.0>
0

>  <SCORE.INTRA.REPUL>
0

>  <SCORE.INTRA.REPUL.0>
0

>  <SCORE.INTRA.SOLV>
0

>  <SCORE.INTRA.SOLV.lig_0>
-49.4056

>  <SCORE.INTRA.VDW>
0

>  <SCORE.INTRA.VDW.0>
0

>  <SCORE.INTRA.norm>
0

>  <SCORE.RESTR>
0.000122083

>  <SCORE.RESTR.CAVITY>
0.000122083

>  <SCORE.RESTR.norm>
1.10985e-05

>  <SCORE.SYSTEM>
0

>  <SCORE.SYSTEM.CONST>
0

>  <SCORE.SYSTEM.DIHEDRAL>
0

>  <SCORE.SYSTEM.SOLV>
0

>  <SCORE.SYSTEM.norm>
0

>  <SCORE.heavy>
11

>  <SCORE.norm>
-0.516666

>  <RMSD>
19.450

$$$$
ligand
 OpenBabel11021811503D
libRbt.so/2013.1/901 2013/11/27
 11 12  0  0  0  0  0  0  0  0999 V2000
    0.7690   -4.5923   15.0453 N   0  0  0  0  0  0  0  0  0  0  0  0
   -0.5067   -4.5804   15.5047 C   0  0  0  0  0  0  0  0  0  0  0  0
   -1.5748   -5.1189   14.7167 N   0  0  0  0  0  0  0  0  0  0  0  0
   -0.7995   -4.0572   16.7086 N   0  0  0  0  0  0  0  0  0  0  0  0
    0.1823   -3.5247   17.5137 C   0  0  0  0  0  0  0  0  0  0  0  0
    1.4917   -3.5211   17.0692 C   0  0  0  0  0  0  0  0  0  0  0  0
    1.7745   -4.0771   15.7859 C   0  0  0  0  0  0  0  0  0  0  0  0
    3.1183   -4.0878   15.2940 N   0  0  0  0  0  0  0  0  0  0  0  0
    2.2470   -2.9314   18.0650 N   0  0  0  0  0  0  0  0  0  0  0  0
    1.4317   -2.5802   19.0797 C   0  0  0  0  0  0  0  0  0  0  0  0
    0.1677   -2.9295   18.7675 N   0  0  0  0  0  0  0  0  0  0  0  0
  1  7  2  0  0  0  0
  1  2  1  0  0  0  0
  2  3  1  0  0  0  0
  2  4  2  0  0  0  0
  4  5  1  0  0  0  0
  5  6  2  0  0  0  0
  5 11  1  0  0  0  0
  6  7  1  0  0  0  0
  6  9  1  0  0  0  0
  7  8  1  0  0  0  0
  9 10  1  0  0  0  0
 10 11  2  0  0  0  0
M  END
>  <CHROM.1>
0.74633515,-3.82943722,16.66533302,-2.04382416,0.14498704,1.13074270

>  <Name>
ligand

>  <RI>
0

>  <Rbt.Current_Directory>
/home/itssahil/PROJECTS/Mol_Feturizer/New_Systems/rnas/4LVZ

>  <Rbt.Executable>
rbdock ($Id: //depot/dev/client3/rdock/2013.1/src/exe/rbdock.cxx#4 $)

>  <Rbt.Library>
libRbt.so (2013.1, Build901 2013/11/27)

>  <Rbt.Parameter_File>
/export/apps/rDock/src/rDock_2013.1_src/data/scripts/dock_solv.prm

>  <Rbt.Receptor>
prm/blind_docking_20.prm

>  <SCORE>
-5.68338

>  <SCORE.INTER>
-5.68375

>  <SCORE.INTER.CONST>
1

>  <SCORE.INTER.POLAR>
0

>  <SCORE.INTER.ROT>
0

>  <SCORE.INTER.SOLV>
4.11681

>  <SCORE.INTER.VDW>
-8.76144

>  <SCORE.INTER.norm>
-0.516705

>  <SCORE.INTRA>
0

>  <SCORE.INTRA.DIHEDRAL>
0

>  <SCORE.INTRA.DIHEDRAL.0>
0

>  <SCORE.INTRA.POLAR>
0

>  <SCORE.INTRA.POLAR.0>
0

>  <SCORE.INTRA.REPUL>
0

>  <SCORE.INTRA.REPUL.0>
0

>  <SCORE.INTRA.SOLV>
0

>  <SCORE.INTRA.SOLV.lig_0>
-49.4056

>  <SCORE.INTRA.VDW>
0

>  <SCORE.INTRA.VDW.0>
0

>  <SCORE.INTRA.norm>
0

>  <SCORE.RESTR>
0.000375755

>  <SCORE.RESTR.CAVITY>
0.000375755

>  <SCORE.RESTR.norm>
3.41596e-05

>  <SCORE.SYSTEM>
0

>  <SCORE.SYSTEM.CONST>
0

>  <SCORE.SYSTEM.DIHEDRAL>
0

>  <SCORE.SYSTEM.SOLV>
0

>  <SCORE.SYSTEM.norm>
0

>  <SCORE.heavy>
11

>  <SCORE.norm>
-0.51667

>  <RMSD>
19.453

$$$$
ligand
 OpenBabel11021811503D
libRbt.so/2013.1/901 2013/11/27
 11 12  0  0  0  0  0  0  0  0999 V2000
    0.7879   -4.5956   15.0867 N   0  0  0  0  0  0  0  0  0  0  0  0
   -0.5020   -4.5746   15.5040 C   0  0  0  0  0  0  0  0  0  0  0  0
   -1.5443   -5.1287   14.6924 N   0  0  0  0  0  0  0  0  0  0  0  0
   -0.8336   -4.0276   16.6870 N   0  0  0  0  0  0  0  0  0  0  0  0
    0.1217   -3.4791   17.5130 C   0  0  0  0  0  0  0  0  0  0  0  0
    1.4450   -3.4844   17.1114 C   0  0  0  0  0  0  0  0  0  0  0  0
    1.7691   -4.0657   15.8494 C   0  0  0  0  0  0  0  0  0  0  0  0
    3.1282   -4.0862   15.4019 N   0  0  0  0  0  0  0  0  0  0  0  0
    2.1678   -2.8750   18.1194 N   0  0  0  0  0  0  0  0  0  0  0  0
    1.3200   -2.5037   19.0998 C   0  0  0  0  0  0  0  0  0  0  0  0
    0.0667   -2.8592   18.7536 N   0  0  0  0  0  0  0  0  0  0  0  0
  1  7  2  0  0  0  0
  1  2  1  0  0  0  0
  2  3  1  0  0  0  0
  2  4  2  0  0  0  0
  4  5  1  0  0  0  0
  5  6  2  0  0  0  0
  5 11  1  0  0  0  0
  6  7  1  0  0  0  0
  6  9  1  0  0  0  0
  7  8  1  0  0  0  0
  9 10  1  0  0  0  0
 10 11  2  0  0  0  0
M  END
>  <CHROM.1>
0.71297030,-3.80067987,16.68967885,-2.01433832,0.13046277,1.10681759

>  <Name>
ligand

>  <RI>
0

>  <Rbt.Current_Directory>
/home/itssahil/PROJECTS/Mol_Feturizer/New_Systems/rnas/4LVZ

>  <Rbt.Executable>
rbdock ($Id: //depot/dev/client3/rdock/2013.1/src/exe/rbdock.cxx#4 $)

>  <Rbt.Library>
libRbt.so (2013.1, Build901 2013/11/27)

>  <Rbt.Parameter_File>
/export/apps/rDock/src/rDock_2013.1_src/data/scripts/dock_solv.prm

>  <Rbt.Receptor>
prm/blind_docking_20.prm

>  <SCORE>
-5.60974

>  <SCORE.INTER>
-5.60974

>  <SCORE.INTER.CONST>
1

>  <SCORE.INTER.POLAR>
0

>  <SCORE.INTER.ROT>
0

>  <SCORE.INTER.SOLV>
4.12894

>  <SCORE.INTER.VDW>
-8.71614

>  <SCORE.INTER.norm>
-0.509977

>  <SCORE.INTRA>
0

>  <SCORE.INTRA.DIHEDRAL>
0

>  <SCORE.INTRA.DIHEDRAL.0>
0

>  <SCORE.INTRA.POLAR>
0

>  <SCORE.INTRA.POLAR.0>
0

>  <SCORE.INTRA.REPUL>
0

>  <SCORE.INTRA.REPUL.0>
0

>  <SCORE.INTRA.SOLV>
0

>  <SCORE.INTRA.SOLV.lig_0>
-49.4056

>  <SCORE.INTRA.VDW>
0

>  <SCORE.INTRA.VDW.0>
0

>  <SCORE.INTRA.norm>
0

>  <SCORE.RESTR>
0

>  <SCORE.RESTR.CAVITY>
0

>  <SCORE.RESTR.norm>
0

>  <SCORE.SYSTEM>
0

>  <SCORE.SYSTEM.CONST>
0

>  <SCORE.SYSTEM.DIHEDRAL>
0

>  <SCORE.SYSTEM.SOLV>
0

>  <SCORE.SYSTEM.norm>
0

>  <SCORE.heavy>
11

>  <SCORE.norm>
-0.509977

>  <RMSD>
19.467

$$$$
ligand
 OpenBabel11021811503D
libRbt.so/2013.1/901 2013/11/27
 11 12  0  0  0  0  0  0  0  0999 V2000
    0.0293   -4.2986   15.0722 N   0  0  0  0  0  0  0  0  0  0  0  0
   -1.1429   -4.4370   15.7397 C   0  0  0  0  0  0  0  0  0  0  0  0
   -2.2839   -5.0246   15.1036 N   0  0  0  0  0  0  0  0  0  0  0  0
   -1.2629   -4.0202   17.0128 N   0  0  0  0  0  0  0  0  0  0  0  0
   -0.2031   -3.4479   17.6798 C   0  0  0  0  0  0  0  0  0  0  0  0
    1.0035   -3.2918   17.0224 C   0  0  0  0  0  0  0  0  0  0  0  0
    1.1025   -3.7371   15.6705 C   0  0  0  0  0  0  0  0  0  0  0  0
    2.3357   -3.5890   14.9597 N   0  0  0  0  0  0  0  0  0  0  0  0
    1.8698   -2.6962   17.9194 N   0  0  0  0  0  0  0  0  0  0  0  0
    1.2182   -2.4883   19.0813 C   0  0  0  0  0  0  0  0  0  0  0  0
   -0.0474   -2.9362   18.9606 N   0  0  0  0  0  0  0  0  0  0  0  0
  1  7  2  0  0  0  0
  1  2  1  0  0  0  0
  2  3  1  0  0  0  0
  2  4  2  0  0  0  0
  4  5  1  0  0  0  0
  5  6  2  0  0  0  0
  5 11  1  0  0  0  0
  6  7  1  0  0  0  0
  6  9  1  0  0  0  0
  7  8  1  0  0  0  0
  9 10  1  0  0  0  0
 10 11  2  0  0  0  0
M  END
>  <CHROM.1>
0.22715710,-3.64393141,16.72729444,-2.17262606,0.29411436,1.22981080

>  <Name>
ligand

>  <RI>
0

>  <Rbt.Current_Directory>
/home/itssahil/PROJECTS/Mol_Feturizer/New_Systems/rnas/4LVZ

>  <Rbt.Executable>
rbdock ($Id: //depot/dev/client3/rdock/2013.1/src/exe/rbdock.cxx#4 $)

>  <Rbt.Library>
libRbt.so (2013.1, Build901 2013/11/27)

>  <Rbt.Parameter_File>
/export/apps/rDock/src/rDock_2013.1_src/data/scripts/dock_solv.prm

>  <Rbt.Receptor>
prm/blind_docking_20.prm

>  <SCORE>
-5.03225

>  <SCORE.INTER>
-5.03225

>  <SCORE.INTER.CONST>
1

>  <SCORE.INTER.POLAR>
0

>  <SCORE.INTER.ROT>
0

>  <SCORE.INTER.SOLV>
4.10085

>  <SCORE.INTER.VDW>
-8.32179

>  <SCORE.INTER.norm>
-0.457477

>  <SCORE.INTRA>
0

>  <SCORE.INTRA.DIHEDRAL>
0

>  <SCORE.INTRA.DIHEDRAL.0>
0

>  <SCORE.INTRA.POLAR>
0

>  <SCORE.INTRA.POLAR.0>
0

>  <SCORE.INTRA.REPUL>
0

>  <SCORE.INTRA.REPUL.0>
0

>  <SCORE.INTRA.SOLV>
0

>  <SCORE.INTRA.SOLV.lig_0>
-49.4056

>  <SCORE.INTRA.VDW>
0

>  <SCORE.INTRA.VDW.0>
0

>  <SCORE.INTRA.norm>
0

>  <SCORE.RESTR>
0

>  <SCORE.RESTR.CAVITY>
0

>  <SCORE.RESTR.norm>
0

>  <SCORE.SYSTEM>
0

>  <SCORE.SYSTEM.CONST>
0

>  <SCORE.SYSTEM.DIHEDRAL>
0

>  <SCORE.SYSTEM.SOLV>
0

>  <SCORE.SYSTEM.norm>
0

>  <SCORE.heavy>
11

>  <SCORE.norm>
-0.457477

>  <RMSD>
19.626

$$$$
ligand
 OpenBabel11021811503D
libRbt.so/2013.1/901 2013/11/27
 11 12  0  0  0  0  0  0  0  0999 V2000
    0.9659   -3.8134   14.6532 N   0  0  0  0  0  0  0  0  0  0  0  0
    2.1190   -3.1426   14.8957 C   0  0  0  0  0  0  0  0  0  0  0  0
    3.0751   -2.9266   13.8511 N   0  0  0  0  0  0  0  0  0  0  0  0
    2.3945   -2.6697   16.1242 N   0  0  0  0  0  0  0  0  0  0  0  0
    1.5163   -2.8442   17.1701 C   0  0  0  0  0  0  0  0  0  0  0  0
    0.3337   -3.5271   16.9520 C   0  0  0  0  0  0  0  0  0  0  0  0
    0.0684   -4.0235   15.6409 C   0  0  0  0  0  0  0  0  0  0  0  0
   -1.1448   -4.7364   15.3805 N   0  0  0  0  0  0  0  0  0  0  0  0
   -0.3377   -3.5533   18.1596 N   0  0  0  0  0  0  0  0  0  0  0  0
    0.4070   -2.9165   19.0857 C   0  0  0  0  0  0  0  0  0  0  0  0
    1.5427   -2.4765   18.5082 N   0  0  0  0  0  0  0  0  0  0  0  0
  1  7  2  0  0  0  0
  1  2  1  0  0  0  0
  2  3  1  0  0  0  0
  2  4  2  0  0  0  0
  4  5  1  0  0  0  0
  5  6  2  0  0  0  0
  5 11  1  0  0  0  0
  6  7  1  0  0  0  0
  6  9  1  0  0  0  0
  7  8  1  0  0  0  0
  9 10  1  0  0  0  0
 10 11  2  0  0  0  0
M  END
>  <CHROM.1>
1.00186829,-3.33268798,16.37788636,1.10686817,-0.47008336,-1.83451292

>  <Name>
ligand

>  <RI>
0

>  <Rbt.Current_Directory>
/home/itssahil/PROJECTS/Mol_Feturizer/New_Systems/rnas/4LVZ

>  <Rbt.Executable>
rbdock ($Id: //depot/dev/client3/rdock/2013.1/src/exe/rbdock.cxx#4 $)

>  <Rbt.Library>
libRbt.so (2013.1, Build901 2013/11/27)

>  <Rbt.Parameter_File>
/export/apps/rDock/src/rDock_2013.1_src/data/scripts/dock_solv.prm

>  <Rbt.Receptor>
prm/blind_docking_20.prm

>  <SCORE>
-5.00234

>  <SCORE.INTER>
-5.00234

>  <SCORE.INTER.CONST>
1

>  <SCORE.INTER.POLAR>
0

>  <SCORE.INTER.ROT>
0

>  <SCORE.INTER.SOLV>
5.05135

>  <SCORE.INTER.VDW>
-8.61868

>  <SCORE.INTER.norm>
-0.454758

>  <SCORE.INTRA>
0

>  <SCORE.INTRA.DIHEDRAL>
0

>  <SCORE.INTRA.DIHEDRAL.0>
0

>  <SCORE.INTRA.POLAR>
0

>  <SCORE.INTRA.POLAR.0>
0

>  <SCORE.INTRA.REPUL>
0

>  <SCORE.INTRA.REPUL.0>
0

>  <SCORE.INTRA.SOLV>
0

>  <SCORE.INTRA.SOLV.lig_0>
-49.4056

>  <SCORE.INTRA.VDW>
0

>  <SCORE.INTRA.VDW.0>
0

>  <SCORE.INTRA.norm>
0

>  <SCORE.RESTR>
0

>  <SCORE.RESTR.CAVITY>
0

>  <SCORE.RESTR.norm>
0

>  <SCORE.SYSTEM>
0

>  <SCORE.SYSTEM.CONST>
0

>  <SCORE.SYSTEM.DIHEDRAL>
0

>  <SCORE.SYSTEM.SOLV>
0

>  <SCORE.SYSTEM.norm>
0

>  <SCORE.heavy>
11

>  <SCORE.norm>
-0.454758

>  <RMSD>
19.907

$$$$
ligand
 OpenBabel11021811503D
libRbt.so/2013.1/901 2013/11/27
 11 12  0  0  0  0  0  0  0  0999 V2000
    0.9663   -3.7618   14.6526 N   0  0  0  0  0  0  0  0  0  0  0  0
    2.0983   -3.0694   14.9318 C   0  0  0  0  0  0  0  0  0  0  0  0
    3.0678   -2.8068   13.9105 N   0  0  0  0  0  0  0  0  0  0  0  0
    2.3397   -2.6183   16.1756 N   0  0  0  0  0  0  0  0  0  0  0  0
    1.4469   -2.8376   17.2005 C   0  0  0  0  0  0  0  0  0  0  0  0
    0.2855   -3.5432   16.9449 C   0  0  0  0  0  0  0  0  0  0  0  0
    0.0563   -4.0157   15.6182 C   0  0  0  0  0  0  0  0  0  0  0  0
   -1.1343   -4.7511   15.3190 N   0  0  0  0  0  0  0  0  0  0  0  0
   -0.4072   -3.6130   18.1387 N   0  0  0  0  0  0  0  0  0  0  0  0
    0.3048   -2.9801   19.0927 C   0  0  0  0  0  0  0  0  0  0  0  0
    1.4399   -2.5000   18.5468 N   0  0  0  0  0  0  0  0  0  0  0  0
  1  7  2  0  0  0  0
  1  2  1  0  0  0  0
  2  3  1  0  0  0  0
  2  4  2  0  0  0  0
  4  5  1  0  0  0  0
  5  6  2  0  0  0  0
  5 11  1  0  0  0  0
  6  7  1  0  0  0  0
  6  9  1  0  0  0  0
  7  8  1  0  0  0  0
  9 10  1  0  0  0  0
 10 11  2  0  0  0  0
M  END
>  <CHROM.1>
0.95910158,-3.31989508,16.38799659,1.07969465,-0.48855368,-1.82438196

>  <Name>
ligand

>  <RI>
0

>  <Rbt.Current_Directory>
/home/itssahil/PROJECTS/Mol_Feturizer/New_Systems/rnas/4LVZ

>  <Rbt.Executable>
rbdock ($Id: //depot/dev/client3/rdock/2013.1/src/exe/rbdock.cxx#4 $)

>  <Rbt.Library>
libRbt.so (2013.1, Build901 2013/11/27)

>  <Rbt.Parameter_File>
/export/apps/rDock/src/rDock_2013.1_src/data/scripts/dock_solv.prm

>  <Rbt.Receptor>
prm/blind_docking_20.prm

>  <SCORE>
-4.97878

>  <SCORE.INTER>
-4.97878

>  <SCORE.INTER.CONST>
1

>  <SCORE.INTER.POLAR>
0

>  <SCORE.INTER.ROT>
0

>  <SCORE.INTER.SOLV>
4.89525

>  <SCORE.INTER.VDW>
-8.55093

>  <SCORE.INTER.norm>
-0.452616

>  <SCORE.INTRA>
0

>  <SCORE.INTRA.DIHEDRAL>
0

>  <SCORE.INTRA.DIHEDRAL.0>
0

>  <SCORE.INTRA.POLAR>
0

>  <SCORE.INTRA.POLAR.0>
0

>  <SCORE.INTRA.REPUL>
0

>  <SCORE.INTRA.REPUL.0>
0

>  <SCORE.INTRA.SOLV>
0

>  <SCORE.INTRA.SOLV.lig_0>
-49.4056

>  <SCORE.INTRA.VDW>
0

>  <SCORE.INTRA.VDW.0>
0

>  <SCORE.INTRA.norm>
0

>  <SCORE.RESTR>
0

>  <SCORE.RESTR.CAVITY>
0

>  <SCORE.RESTR.norm>
0

>  <SCORE.SYSTEM>
0

>  <SCORE.SYSTEM.CONST>
0

>  <SCORE.SYSTEM.DIHEDRAL>
0

>  <SCORE.SYSTEM.SOLV>
0

>  <SCORE.SYSTEM.norm>
0

>  <SCORE.heavy>
11

>  <SCORE.norm>
-0.452616

>  <RMSD>
19.908

$$$$
ligand
 OpenBabel11021811503D
libRbt.so/2013.1/901 2013/11/27
 11 12  0  0  0  0  0  0  0  0999 V2000
    0.9622   -3.7709   14.6439 N   0  0  0  0  0  0  0  0  0  0  0  0
    2.1072   -3.0855   14.8844 C   0  0  0  0  0  0  0  0  0  0  0  0
    3.0535   -2.8479   13.8356 N   0  0  0  0  0  0  0  0  0  0  0  0
    2.3836   -2.6180   16.1148 N   0  0  0  0  0  0  0  0  0  0  0  0
    1.5146   -2.8131   17.1648 C   0  0  0  0  0  0  0  0  0  0  0  0
    0.3406   -3.5111   16.9488 C   0  0  0  0  0  0  0  0  0  0  0  0
    0.0741   -4.0012   15.6355 C   0  0  0  0  0  0  0  0  0  0  0  0
   -1.1305   -4.7295   15.3772 N   0  0  0  0  0  0  0  0  0  0  0  0
   -0.3228   -3.5560   18.1603 N   0  0  0  0  0  0  0  0  0  0  0  0
    0.4186   -2.9157   19.0866 C   0  0  0  0  0  0  0  0  0  0  0  0
    1.5443   -2.4551   18.5055 N   0  0  0  0  0  0  0  0  0  0  0  0
  1  7  2  0  0  0  0
  1  2  1  0  0  0  0
  2  3  1  0  0  0  0
  2  4  2  0  0  0  0
  4  5  1  0  0  0  0
  5  6  2  0  0  0  0
  5 11  1  0  0  0  0
  6  7  1  0  0  0  0
  6  9  1  0  0  0  0
  7  8  1  0  0  0  0
  9 10  1  0  0  0  0
 10 11  2  0  0  0  0
M  END
>  <CHROM.1>
1.00222384,-3.30279696,16.37202121,1.10956424,-0.48549484,-1.82564311

>  <Name>
ligand

>  <RI>
0

>  <Rbt.Current_Directory>
/home/itssahil/PROJECTS/Mol_Feturizer/New_Systems/rnas/4LVZ

>  <Rbt.Executable>
rbdock ($Id: //depot/dev/client3/rdock/2013.1/src/exe/rbdock.cxx#4 $)

>  <Rbt.Library>
libRbt.so (2013.1, Build901 2013/11/27)

>  <Rbt.Parameter_File>
/export/apps/rDock/src/rDock_2013.1_src/data/scripts/dock_solv.prm

>  <Rbt.Receptor>
prm/blind_docking_20.prm

>  <SCORE>
-4.99486

>  <SCORE.INTER>
-4.99521

>  <SCORE.INTER.CONST>
1

>  <SCORE.INTER.POLAR>
0

>  <SCORE.INTER.ROT>
0

>  <SCORE.INTER.SOLV>
4.97792

>  <SCORE.INTER.VDW>
-8.58944

>  <SCORE.INTER.norm>
-0.45411

>  <SCORE.INTRA>
0

>  <SCORE.INTRA.DIHEDRAL>
0

>  <SCORE.INTRA.DIHEDRAL.0>
0

>  <SCORE.INTRA.POLAR>
0

>  <SCORE.INTRA.POLAR.0>
0

>  <SCORE.INTRA.REPUL>
0

>  <SCORE.INTRA.REPUL.0>
0

>  <SCORE.INTRA.SOLV>
0

>  <SCORE.INTRA.SOLV.lig_0>
-49.4056

>  <SCORE.INTRA.VDW>
0

>  <SCORE.INTRA.VDW.0>
0

>  <SCORE.INTRA.norm>
0

>  <SCORE.RESTR>
0.000348035

>  <SCORE.RESTR.CAVITY>
0.000348035

>  <SCORE.RESTR.norm>
3.16395e-05

>  <SCORE.SYSTEM>
0

>  <SCORE.SYSTEM.CONST>
0

>  <SCORE.SYSTEM.DIHEDRAL>
0

>  <SCORE.SYSTEM.SOLV>
0

>  <SCORE.SYSTEM.norm>
0

>  <SCORE.heavy>
11

>  <SCORE.norm>
-0.454078

>  <RMSD>
19.935

$$$$
ligand
 OpenBabel11021811503D
libRbt.so/2013.1/901 2013/11/27
 11 12  0  0  0  0  0  0  0  0999 V2000
   -1.0573   -4.3189   17.1392 N   0  0  0  0  0  0  0  0  0  0  0  0
   -1.3218   -4.5247   15.8253 C   0  0  0  0  0  0  0  0  0  0  0  0
   -2.5233   -5.1876   15.4144 N   0  0  0  0  0  0  0  0  0  0  0  0
   -0.4593   -4.1162   14.8777 N   0  0  0  0  0  0  0  0  0  0  0  0
    0.7124   -3.4729   15.2079 C   0  0  0  0  0  0  0  0  0  0  0  0
    1.0091   -3.2522   16.5405 C   0  0  0  0  0  0  0  0  0  0  0  0
    0.0798   -3.7006   17.5261 C   0  0  0  0  0  0  0  0  0  0  0  0
    0.3563   -3.4904   18.9144 N   0  0  0  0  0  0  0  0  0  0  0  0
    2.2281   -2.6021   16.5731 N   0  0  0  0  0  0  0  0  0  0  0  0
    2.6666   -2.4357   15.3090 C   0  0  0  0  0  0  0  0  0  0  0  0
    1.7615   -2.9593   14.4584 N   0  0  0  0  0  0  0  0  0  0  0  0
  1  7  2  0  0  0  0
  1  2  1  0  0  0  0
  2  3  1  0  0  0  0
  2  4  2  0  0  0  0
  4  5  1  0  0  0  0
  5  6  2  0  0  0  0
  5 11  1  0  0  0  0
  6  7  1  0  0  0  0
  6  9  1  0  0  0  0
  7  8  1  0  0  0  0
  9 10  1  0  0  0  0
 10 11  2  0  0  0  0
M  END
>  <CHROM.1>
0.29197708,-3.65327531,16.16793070,-3.07592374,-0.48772151,-1.61926932

>  <Name>
ligand

>  <RI>
0

>  <Rbt.Current_Directory>
/home/itssahil/PROJECTS/Mol_Feturizer/New_Systems/rnas/4LVZ

>  <Rbt.Executable>
rbdock ($Id: //depot/dev/client3/rdock/2013.1/src/exe/rbdock.cxx#4 $)

>  <Rbt.Library>
libRbt.so (2013.1, Build901 2013/11/27)

>  <Rbt.Parameter_File>
/export/apps/rDock/src/rDock_2013.1_src/data/scripts/dock_solv.prm

>  <Rbt.Receptor>
prm/blind_docking_20.prm

>  <SCORE>
-3.17449

>  <SCORE.INTER>
-3.17449

>  <SCORE.INTER.CONST>
1

>  <SCORE.INTER.POLAR>
0

>  <SCORE.INTER.ROT>
0

>  <SCORE.INTER.SOLV>
3.21594

>  <SCORE.INTER.VDW>
-6.78831

>  <SCORE.INTER.norm>
-0.28859

>  <SCORE.INTRA>
0

>  <SCORE.INTRA.DIHEDRAL>
0

>  <SCORE.INTRA.DIHEDRAL.0>
0

>  <SCORE.INTRA.POLAR>
0

>  <SCORE.INTRA.POLAR.0>
0

>  <SCORE.INTRA.REPUL>
0

>  <SCORE.INTRA.REPUL.0>
0

>  <SCORE.INTRA.SOLV>
0

>  <SCORE.INTRA.SOLV.lig_0>
-49.4056

>  <SCORE.INTRA.VDW>
0

>  <SCORE.INTRA.VDW.0>
0

>  <SCORE.INTRA.norm>
0

>  <SCORE.RESTR>
0

>  <SCORE.RESTR.CAVITY>
0

>  <SCORE.RESTR.norm>
0

>  <SCORE.SYSTEM>
0

>  <SCORE.SYSTEM.CONST>
0

>  <SCORE.SYSTEM.DIHEDRAL>
0

>  <SCORE.SYSTEM.SOLV>
0

>  <SCORE.SYSTEM.norm>
0

>  <SCORE.heavy>
11

>  <SCORE.norm>
-0.28859

>  <RMSD>
20.063

$$$$
ligand
 OpenBabel11021811503D
libRbt.so/2013.1/901 2013/11/27
 11 12  0  0  0  0  0  0  0  0999 V2000
   -7.6763   -0.4961   28.5546 N   0  0  0  0  0  0  0  0  0  0  0  0
   -8.2382    0.6763   28.1694 C   0  0  0  0  0  0  0  0  0  0  0  0
   -7.5837    1.9235   28.4298 N   0  0  0  0  0  0  0  0  0  0  0  0
   -9.4261    0.6955   27.5390 N   0  0  0  0  0  0  0  0  0  0  0  0
  -10.1050   -0.4692   27.2592 C   0  0  0  0  0  0  0  0  0  0  0  0
   -9.5567   -1.6792   27.6432 C   0  0  0  0  0  0  0  0  0  0  0  0
   -8.2982   -1.6714   28.3155 C   0  0  0  0  0  0  0  0  0  0  0  0
   -7.7029   -2.9054   28.7287 N   0  0  0  0  0  0  0  0  0  0  0  0
  -10.4431   -2.6611   27.2433 N   0  0  0  0  0  0  0  0  0  0  0  0
  -11.4988   -2.0761   26.6425 C   0  0  0  0  0  0  0  0  0  0  0  0
  -11.3177   -0.7404   26.6409 N   0  0  0  0  0  0  0  0  0  0  0  0
  1  7  2  0  0  0  0
  1  2  1  0  0  0  0
  2  3  1  0  0  0  0
  2  4  2  0  0  0  0
  4  5  1  0  0  0  0
  5  6  2  0  0  0  0
  5 11  1  0  0  0  0
  6  7  1  0  0  0  0
  6  9  1  0  0  0  0
  7  8  1  0  0  0  0
  9 10  1  0  0  0  0
 10 11  2  0  0  0  0
M  END
>  <CHROM.1>
-9.23935091,-0.84178037,27.75181053,-0.64533170,0.48820950,3.06709315

>  <Name>
ligand

>  <RI>
0

>  <Rbt.Current_Directory>
/home/itssahil/PROJECTS/Mol_Feturizer/New_Systems/rnas/4LVZ

>  <Rbt.Executable>
rbdock ($Id: //depot/dev/client3/rdock/2013.1/src/exe/rbdock.cxx#4 $)

>  <Rbt.Library>
libRbt.so (2013.1, Build901 2013/11/27)

>  <Rbt.Parameter_File>
/export/apps/rDock/src/rDock_2013.1_src/data/scripts/dock_solv.prm

>  <Rbt.Receptor>
prm/blind_docking_40.prm

>  <SCORE>
-4.39789

>  <SCORE.INTER>
-4.39789

>  <SCORE.INTER.CONST>
1

>  <SCORE.INTER.POLAR>
0

>  <SCORE.INTER.ROT>
0

>  <SCORE.INTER.SOLV>
2.97367

>  <SCORE.INTER.VDW>
-7.52315

>  <SCORE.INTER.norm>
-0.399808

>  <SCORE.INTRA>
0

>  <SCORE.INTRA.DIHEDRAL>
0

>  <SCORE.INTRA.DIHEDRAL.0>
0

>  <SCORE.INTRA.POLAR>
0

>  <SCORE.INTRA.POLAR.0>
0

>  <SCORE.INTRA.REPUL>
0

>  <SCORE.INTRA.REPUL.0>
0

>  <SCORE.INTRA.SOLV>
0

>  <SCORE.INTRA.SOLV.lig_0>
-49.4056

>  <SCORE.INTRA.VDW>
0

>  <SCORE.INTRA.VDW.0>
0

>  <SCORE.INTRA.norm>
0

>  <SCORE.RESTR>
0

>  <SCORE.RESTR.CAVITY>
0

>  <SCORE.RESTR.norm>
0

>  <SCORE.SYSTEM>
0

>  <SCORE.SYSTEM.CONST>
0

>  <SCORE.SYSTEM.DIHEDRAL>
0

>  <SCORE.SYSTEM.SOLV>
0

>  <SCORE.SYSTEM.norm>
0

>  <SCORE.heavy>
11

>  <SCORE.norm>
-0.399808

>  <RMSD>
22.686

$$$$
ligand
 OpenBabel11021811503D
libRbt.so/2013.1/901 2013/11/27
 11 12  0  0  0  0  0  0  0  0999 V2000
   -8.0876    1.4252   28.7830 N   0  0  0  0  0  0  0  0  0  0  0  0
   -8.2651    0.1367   29.1661 C   0  0  0  0  0  0  0  0  0  0  0  0
   -9.2784   -0.2127   30.1164 N   0  0  0  0  0  0  0  0  0  0  0  0
   -7.4899   -0.8424   28.6669 N   0  0  0  0  0  0  0  0  0  0  0  0
   -6.4993   -0.5715   27.7500 C   0  0  0  0  0  0  0  0  0  0  0  0
   -6.2942    0.7342   27.3435 C   0  0  0  0  0  0  0  0  0  0  0  0
   -7.1265    1.7548   27.8926 C   0  0  0  0  0  0  0  0  0  0  0  0
   -6.9403    3.1170   27.4956 N   0  0  0  0  0  0  0  0  0  0  0  0
   -5.2509    0.7085   26.4375 N   0  0  0  0  0  0  0  0  0  0  0  0
   -4.8270   -0.5637   26.2978 C   0  0  0  0  0  0  0  0  0  0  0  0
   -5.5707   -1.3631   27.0884 N   0  0  0  0  0  0  0  0  0  0  0  0
  1  7  2  0  0  0  0
  1  2  1  0  0  0  0
  2  3  1  0  0  0  0
  2  4  2  0  0  0  0
  4  5  1  0  0  0  0
  5  6  2  0  0  0  0
  5 11  1  0  0  0  0
  6  7  1  0  0  0  0
  6  9  1  0  0  0  0
  7  8  1  0  0  0  0
  9 10  1  0  0  0  0
 10 11  2  0  0  0  0
M  END
>  <CHROM.1>
-6.89436054,0.39956996,27.92794148,-3.12486266,-0.70930779,2.96754691

>  <Name>
ligand

>  <RI>
0

>  <Rbt.Current_Directory>
/home/itssahil/PROJECTS/Mol_Feturizer/New_Systems/rnas/4LVZ

>  <Rbt.Executable>
rbdock ($Id: //depot/dev/client3/rdock/2013.1/src/exe/rbdock.cxx#4 $)

>  <Rbt.Library>
libRbt.so (2013.1, Build901 2013/11/27)

>  <Rbt.Parameter_File>
/export/apps/rDock/src/rDock_2013.1_src/data/scripts/dock_solv.prm

>  <Rbt.Receptor>
prm/blind_docking_40.prm

>  <SCORE>
-2.92463

>  <SCORE.INTER>
-2.92463

>  <SCORE.INTER.CONST>
1

>  <SCORE.INTER.POLAR>
0

>  <SCORE.INTER.ROT>
0

>  <SCORE.INTER.SOLV>
3.75789

>  <SCORE.INTER.VDW>
-6.80239

>  <SCORE.INTER.norm>
-0.265876

>  <SCORE.INTRA>
0

>  <SCORE.INTRA.DIHEDRAL>
0

>  <SCORE.INTRA.DIHEDRAL.0>
0

>  <SCORE.INTRA.POLAR>
0

>  <SCORE.INTRA.POLAR.0>
0

>  <SCORE.INTRA.REPUL>
0

>  <SCORE.INTRA.REPUL.0>
0

>  <SCORE.INTRA.SOLV>
0

>  <SCORE.INTRA.SOLV.lig_0>
-49.4056

>  <SCORE.INTRA.VDW>
0

>  <SCORE.INTRA.VDW.0>
0

>  <SCORE.INTRA.norm>
0

>  <SCORE.RESTR>
0

>  <SCORE.RESTR.CAVITY>
0

>  <SCORE.RESTR.norm>
0

>  <SCORE.SYSTEM>
0

>  <SCORE.SYSTEM.CONST>
0

>  <SCORE.SYSTEM.DIHEDRAL>
0

>  <SCORE.SYSTEM.SOLV>
0

>  <SCORE.SYSTEM.norm>
0

>  <SCORE.heavy>
11

>  <SCORE.norm>
-0.265876

>  <RMSD>
22.930

$$$$
ligand
 OpenBabel11021811503D
libRbt.so/2013.1/901 2013/11/27
 11 12  0  0  0  0  0  0  0  0999 V2000
  -12.4171   -0.7989   29.3254 N   0  0  0  0  0  0  0  0  0  0  0  0
  -13.2207   -1.1375   30.3637 C   0  0  0  0  0  0  0  0  0  0  0  0
  -14.6340   -0.9122   30.3008 N   0  0  0  0  0  0  0  0  0  0  0  0
  -12.7086   -1.6873   31.4792 N   0  0  0  0  0  0  0  0  0  0  0  0
  -11.3587   -1.9296   31.6011 C   0  0  0  0  0  0  0  0  0  0  0  0
  -10.5153   -1.5917   30.5586 C   0  0  0  0  0  0  0  0  0  0  0  0
  -11.0834   -1.0046   29.3888 C   0  0  0  0  0  0  0  0  0  0  0  0
  -10.2393   -0.6408   28.2919 N   0  0  0  0  0  0  0  0  0  0  0  0
   -9.2374   -1.9387   30.9539 N   0  0  0  0  0  0  0  0  0  0  0  0
   -9.2929   -2.4637   32.1944 C   0  0  0  0  0  0  0  0  0  0  0  0
  -10.5746   -2.4678   32.6119 N   0  0  0  0  0  0  0  0  0  0  0  0
  1  7  2  0  0  0  0
  1  2  1  0  0  0  0
  2  3  1  0  0  0  0
  2  4  2  0  0  0  0
  4  5  1  0  0  0  0
  5  6  2  0  0  0  0
  5 11  1  0  0  0  0
  6  7  1  0  0  0  0
  6  9  1  0  0  0  0
  7  8  1  0  0  0  0
  9 10  1  0  0  0  0
 10 11  2  0  0  0  0
M  END
>  <CHROM.1>
-11.40969524,-1.49839279,30.63032565,-2.65883685,-0.12479719,1.97966683

>  <Name>
ligand

>  <RI>
0

>  <Rbt.Current_Directory>
/home/itssahil/PROJECTS/Mol_Feturizer/New_Systems/rnas/4LVZ

>  <Rbt.Executable>
rbdock ($Id: //depot/dev/client3/rdock/2013.1/src/exe/rbdock.cxx#4 $)

>  <Rbt.Library>
libRbt.so (2013.1, Build901 2013/11/27)

>  <Rbt.Parameter_File>
/export/apps/rDock/src/rDock_2013.1_src/data/scripts/dock_solv.prm

>  <Rbt.Receptor>
prm/blind_docking_60.prm

>  <SCORE>
-5.97566

>  <SCORE.INTER>
-5.97566

>  <SCORE.INTER.CONST>
1

>  <SCORE.INTER.POLAR>
0

>  <SCORE.INTER.ROT>
0

>  <SCORE.INTER.SOLV>
4.48866

>  <SCORE.INTER.VDW>
-9.07999

>  <SCORE.INTER.norm>
-0.543242

>  <SCORE.INTRA>
0

>  <SCORE.INTRA.DIHEDRAL>
0

>  <SCORE.INTRA.DIHEDRAL.0>
0

>  <SCORE.INTRA.POLAR>
0

>  <SCORE.INTRA.POLAR.0>
0

>  <SCORE.INTRA.REPUL>
0

>  <SCORE.INTRA.REPUL.0>
0

>  <SCORE.INTRA.SOLV>
0

>  <SCORE.INTRA.SOLV.lig_0>
-49.4056

>  <SCORE.INTRA.VDW>
0

>  <SCORE.INTRA.VDW.0>
0

>  <SCORE.INTRA.norm>
0

>  <SCORE.RESTR>
0

>  <SCORE.RESTR.CAVITY>
0

>  <SCORE.RESTR.norm>
0

>  <SCORE.SYSTEM>
0

>  <SCORE.SYSTEM.CONST>
0

>  <SCORE.SYSTEM.DIHEDRAL>
0

>  <SCORE.SYSTEM.SOLV>
0

>  <SCORE.SYSTEM.norm>
0

>  <SCORE.heavy>
11

>  <SCORE.norm>
-0.543242

>  <RMSD>
23.809

$$$$
ligand
 OpenBabel11021811503D
libRbt.so/2013.1/901 2013/11/27
 11 12  0  0  0  0  0  0  0  0999 V2000
  -13.6196   15.3866   10.6028 N   0  0  0  0  0  0  0  0  0  0  0  0
  -13.6070   14.2590   11.3556 C   0  0  0  0  0  0  0  0  0  0  0  0
  -14.3298   13.0934   10.9423 N   0  0  0  0  0  0  0  0  0  0  0  0
  -12.9203   14.2108   12.5110 N   0  0  0  0  0  0  0  0  0  0  0  0
  -12.2053   15.2973   12.9626 C   0  0  0  0  0  0  0  0  0  0  0  0
  -12.2027   16.4614   12.2163 C   0  0  0  0  0  0  0  0  0  0  0  0
  -12.9440   16.4879   10.9974 C   0  0  0  0  0  0  0  0  0  0  0  0
  -12.9647   17.6770   10.2014 N   0  0  0  0  0  0  0  0  0  0  0  0
  -11.4190   17.3703   12.9016 N   0  0  0  0  0  0  0  0  0  0  0  0
  -10.9630   16.7887   14.0292 C   0  0  0  0  0  0  0  0  0  0  0  0
  -11.4294   15.5255   14.0906 N   0  0  0  0  0  0  0  0  0  0  0  0
  1  7  2  0  0  0  0
  1  2  1  0  0  0  0
  2  3  1  0  0  0  0
  2  4  2  0  0  0  0
  4  5  1  0  0  0  0
  5  6  2  0  0  0  0
  5 11  1  0  0  0  0
  6  7  1  0  0  0  0
  6  9  1  0  0  0  0
  7  8  1  0  0  0  0
  9 10  1  0  0  0  0
 10 11  2  0  0  0  0
M  END
>  <CHROM.1>
-12.61540310,15.67516894,12.05719594,2.96701642,0.93901252,2.56724758

>  <Name>
ligand

>  <RI>
0

>  <Rbt.Current_Directory>
/home/itssahil/PROJECTS/Mol_Feturizer/New_Systems/rnas/4LVZ

>  <Rbt.Executable>
rbdock ($Id: //depot/dev/client3/rdock/2013.1/src/exe/rbdock.cxx#4 $)

>  <Rbt.Library>
libRbt.so (2013.1, Build901 2013/11/27)

>  <Rbt.Parameter_File>
/export/apps/rDock/src/rDock_2013.1_src/data/scripts/dock_solv.prm

>  <Rbt.Receptor>
prm/blind_docking_40.prm

>  <SCORE>
-6.67786

>  <SCORE.INTER>
-6.67786

>  <SCORE.INTER.CONST>
1

>  <SCORE.INTER.POLAR>
0

>  <SCORE.INTER.ROT>
0

>  <SCORE.INTER.SOLV>
7.46795

>  <SCORE.INTER.VDW>
-10.5412

>  <SCORE.INTER.norm>
-0.607078

>  <SCORE.INTRA>
0

>  <SCORE.INTRA.DIHEDRAL>
0

>  <SCORE.INTRA.DIHEDRAL.0>
0

>  <SCORE.INTRA.POLAR>
0

>  <SCORE.INTRA.POLAR.0>
0

>  <SCORE.INTRA.REPUL>
0

>  <SCORE.INTRA.REPUL.0>
0

>  <SCORE.INTRA.SOLV>
0

>  <SCORE.INTRA.SOLV.lig_0>
-49.4056

>  <SCORE.INTRA.VDW>
0

>  <SCORE.INTRA.VDW.0>
0

>  <SCORE.INTRA.norm>
0

>  <SCORE.RESTR>
0

>  <SCORE.RESTR.CAVITY>
0

>  <SCORE.RESTR.norm>
0

>  <SCORE.SYSTEM>
0

>  <SCORE.SYSTEM.CONST>
0

>  <SCORE.SYSTEM.DIHEDRAL>
0

>  <SCORE.SYSTEM.SOLV>
0

>  <SCORE.SYSTEM.norm>
0

>  <SCORE.heavy>
11

>  <SCORE.norm>
-0.607078

>  <RMSD>
41.589

$$$$
