@<TRIPOS>MOLECULE
4LVZ_rdock.pdb
 1913 2142 0 0 0
SMALL
GASTEIGER

@<TRIPOS>ATOM
      1  P         11.4490  -44.7340   26.5370 P.3     1  G1          0.1280
      2  C5'       13.2080  -44.0150   24.7280 C.3     1  G1          0.1795
      3  O5'       12.5690  -45.0590   25.4500 O.3     1  G1         -0.3259
      4  C4'       13.9500  -44.5410   23.5220 C.3     1  G1          0.1772
      5  O4'       13.4540  -45.8610   23.1780 O.3     1  G1         -0.3307
      6  C3'       13.7870  -43.7190   22.2500 C.3     1  G1          0.1860
      7  O3'       14.7240  -42.6580   22.1740 O.3     1  G1         -0.3112
      8  C2'       13.9470  -44.7500   21.1430 C.3     1  G1          0.2309
      9  O2'       15.3210  -45.0150   20.9080 O.3     1  G1         -0.2156
     10  C1'       13.3130  -45.9830   21.7820 C.3     1  G1          0.2408
     11  N1         9.5630  -45.9280   18.3270 N.ar    1  G1         -0.1709
     12  C2        10.9190  -45.8090   18.1290 C.ar    1  G1          0.2606
     13  N2        11.3220  -45.6550   16.8590 N.pl3   1  G1         -0.0859
     14  N3        11.8200  -45.8420   19.1010 N.ar    1  G1         -0.1918
     15  C4        11.2290  -45.9970   20.3020 C.ar    1  G1          0.1723
     16  C5         9.8870  -46.1200   20.5990 C.ar    1  G1          0.1748
     17  C6         8.9350  -46.0810   19.5550 C.ar    1  G1          0.3023
     18  O6         7.7000  -46.1770   19.6260 O.2     1  G1         -0.2633
     19  N7         9.6960  -46.2620   21.9640 N.ar    1  G1         -0.2173
     20  C8        10.8980  -46.2240   22.4620 C.ar    1  G1          0.1817
     21  N9        11.8710  -46.0620   21.5100 N.ar    1  G1         -0.2693
     22  OP1       10.9030  -43.3890   26.2190 O.3     1  G1         -0.1955
     23  OP2       10.5340  -45.9030   26.6510 O.co2   1  G1         -0.7863
     24  P         14.2230  -41.1580   21.9010 P.3     2  G2          0.2141
     25  C5'       14.7850  -41.5410   19.3730 C.3     2  G2          0.1812
     26  O5'       13.8360  -41.1640   20.3590 O.3     2  G2         -0.3114
     27  C4'       14.1840  -41.4560   17.9990 C.3     2  G2          0.1773
     28  O4'       13.2970  -42.5840   17.7880 O.3     2  G2         -0.3307
     29  C3'       13.2990  -40.2460   17.7520 C.3     2  G2          0.1860
     30  O3'       14.0280  -39.0670   17.4630 O.3     2  G2         -0.3112
     31  C2'       12.3990  -40.7210   16.6190 C.3     2  G2          0.2309
     32  O2'       13.0810  -40.6790   15.3740 O.3     2  G2         -0.2156
     33  C1'       12.1930  -42.1860   17.0030 C.3     2  G2          0.2408
     34  N1         7.1920  -42.6830   16.6770 N.ar    2  G2         -0.1709
     35  C2         8.1360  -42.4980   15.6950 C.ar    2  G2          0.2606
     36  N2         7.6950  -42.4340   14.4310 N.pl3   2  G2         -0.0859
     37  N3         9.4290  -42.3820   15.9320 N.ar    2  G2         -0.1918
     38  C4         9.7040  -42.4660   17.2500 C.ar    2  G2          0.1723
     39  C5         8.8460  -42.6450   18.3100 C.ar    2  G2          0.1748
     40  C6         7.4540  -42.7690   18.0450 C.ar    2  G2          0.3023
     41  O6         6.5110  -42.9370   18.8310 O.2     2  G2         -0.2633
     42  N7         9.5660  -42.6660   19.4980 N.ar    2  G2         -0.2173
     43  C8        10.8150  -42.5070   19.1420 C.ar    2  G2          0.1817
     44  N9        10.9600  -42.3810   17.7860 N.ar    2  G2         -0.2693
     45  OP1       15.3860  -40.2450   22.0560 O.2     2  G2         -0.5172
     46  OP2       12.9700  -40.9580   22.6770 O.co2   2  G2         -0.4373
     47  P         13.3620  -37.6280   17.7360 P.3     3  A3          0.2141
     48  C5'       12.3930  -37.3790   15.3210 C.3     3  A3          0.1812
     49  O5'       12.1490  -37.5680   16.7050 O.3     3  A3         -0.3114
     50  C4'       11.1410  -37.5350   14.4920 C.3     3  A3          0.1773
     51  O4'       10.5380  -38.8410   14.7250 O.3     3  A3         -0.3307
     52  C3'        9.9940  -36.5740   14.7700 C.3     3  A3          0.1860
     53  O3'       10.1810  -35.2510   14.2830 O.3     3  A3         -0.3112
     54  C2'        8.8240  -37.3170   14.1420 C.3     3  A3          0.2309
     55  O2'        8.9190  -37.2950   12.7260 O.3     3  A3         -0.2156
     56  C1'        9.1300  -38.7390   14.5950 C.3     3  A3          0.2408
     57  N1         4.7590  -39.9000   16.9800 N.ar    3  A3         -0.2040
     58  C2         5.0610  -39.7390   15.6840 C.ar    3  A3          0.2016
     59  N3         6.2330  -39.4360   15.1380 N.ar    3  A3         -0.2048
     60  C4         7.1800  -39.2920   16.0860 C.ar    3  A3          0.1692
     61  C5         7.0230  -39.4260   17.4500 C.ar    3  A3          0.1518
     62  C6         5.7350  -39.7510   17.9050 C.ar    3  A3          0.1919
     63  N6         5.4330  -39.9190   19.1920 N.pl3   3  A3         -0.1054
     64  N7         8.2250  -39.2030   18.1070 N.ar    3  A3         -0.2193
     65  C8         9.0730  -38.9430   17.1440 C.ar    3  A3          0.1816
     66  N9         8.5060  -38.9980   15.9000 N.ar    3  A3         -0.2693
     67  OP1       14.3730  -36.6150   17.3270 O.2     3  A3         -0.5172
     68  OP2       12.7790  -37.5970   19.1070 O.co2   3  A3         -0.4373
     69  P          9.4360  -34.0140   15.0120 P.3     4  G4          0.2141
     70  C5'        7.4110  -34.2700   13.3690 C.3     4  G4          0.1812
     71  O5'        7.8880  -34.2440   14.7050 O.3     4  G4         -0.3114
     72  C4'        5.9680  -34.7030   13.2900 C.3     4  G4          0.1773
     73  O4'        5.7850  -35.9610   13.9870 O.3     4  G4         -0.3307
     74  C3'        4.9450  -33.7810   13.9310 C.3     4  G4          0.1860
     75  O3'        4.6330  -32.6680   13.1140 O.3     4  G4         -0.3112
     76  C2'        3.7660  -34.7170   14.1700 C.3     4  G4          0.2309
     77  O2'        3.0370  -34.9300   12.9710 O.3     4  G4         -0.2156
     78  C1'        4.4830  -36.0230   14.5300 C.3     4  G4          0.2408
     79  N1         2.0300  -37.4210   18.7640 N.ar    4  G4         -0.1709
     80  C2         1.5770  -37.3350   17.4650 C.ar    4  G4          0.2606
     81  N2         0.2930  -37.6740   17.2660 N.pl3   4  G4         -0.0859
     82  N3         2.3210  -36.9520   16.4380 N.ar    4  G4         -0.1918
     83  C4         3.5780  -36.6520   16.8180 C.ar    4  G4          0.1723
     84  C5         4.1280  -36.6990   18.0820 C.ar    4  G4          0.1748
     85  C6         3.3210  -37.1130   19.1760 C.ar    4  G4          0.3023
     86  O6         3.6320  -37.2170   20.3760 O.2     4  G4         -0.2633
     87  N7         5.4580  -36.3070   18.0450 N.ar    4  G4         -0.2173
     88  C8         5.6880  -36.0330   16.7850 C.ar    4  G4          0.1817
     89  N9         4.5860  -36.2260   15.9890 N.ar    4  G4         -0.2693
     90  OP1        9.8670  -32.7680   14.3330 O.2     4  G4         -0.5172
     91  OP2        9.5640  -34.1520   16.4850 O.co2   4  G4         -0.4373
     92  P          3.9310  -31.3590   13.7370 P.3     5  A5          0.2141
     93  C5'        1.5810  -32.1610   12.8640 C.3     5  A5          0.1812
     94  O5'        2.4090  -31.7830   13.9530 O.3     5  A5         -0.3114
     95  C4'        0.2190  -32.5930   13.3440 C.3     5  A5          0.1773
     96  O4'        0.3430  -33.7530   14.2040 O.3     5  A5         -0.3307
     97  C3'       -0.5300  -31.5690   14.1850 C.3     5  A5          0.1860
     98  O3'       -1.2660  -30.6860   13.3600 O.3     5  A5         -0.3112
     99  C2'       -1.4330  -32.4220   15.0600 C.3     5  A5          0.2309
    100  O2'       -2.6080  -32.7760   14.3450 O.3     5  A5         -0.2156
    101  C1'       -0.5970  -33.6900   15.2490 C.3     5  A5          0.2408
    102  N1        -0.6880  -35.2020   20.1840 N.ar    5  A5         -0.2040
    103  C2        -1.6200  -35.2300   19.2230 C.ar    5  A5          0.2016
    104  N3        -1.5350  -34.8050   17.9650 N.ar    5  A5         -0.2048
    105  C4        -0.3180  -34.3020   17.7110 C.ar    5  A5          0.1692
    106  C5         0.7370  -34.2100   18.5990 C.ar    5  A5          0.1518
    107  C6         0.5230  -34.6870   19.9030 C.ar    5  A5          0.1919
    108  N6         1.4550  -34.6480   20.8580 N.pl3   5  A5         -0.1054
    109  N7         1.8420  -33.6240   18.0010 N.ar    5  A5         -0.2193
    110  C8         1.4380  -33.3930   16.7690 C.ar    5  A5          0.1816
    111  N9         0.1370  -33.7620   16.5280 N.ar    5  A5         -0.2693
    112  OP1        4.0100  -30.3160   12.6790 O.2     5  A5         -0.5172
    113  OP2        4.5040  -31.0860   15.0790 O.co2   5  A5         -0.4373
    114  P         -1.3360  -29.1360   13.6600 P.3     6  G6          0.2141
    115  C5'       -3.5520  -29.4830   15.0370 C.3     6  G6          0.1812
    116  O5'       -2.1900  -29.0560   14.9890 O.3     6  G6         -0.3114
    117  C4'       -3.9920  -29.6030   16.4790 C.3     6  G6          0.1773
    118  O4'       -3.3300  -30.7480   17.0800 O.3     6  G6         -0.3307
    119  C3'       -3.6030  -28.4390   17.3850 C.3     6  G6          0.1860
    120  O3'       -4.5160  -27.3440   17.3620 O.3     6  G6         -0.3112
    121  C2'       -3.6150  -29.0970   18.7550 C.3     6  G6          0.2309
    122  O2'       -4.9280  -29.2510   19.2110 O.3     6  G6         -0.2156
    123  C1'       -3.0340  -30.4740   18.4390 C.3     6  G6          0.2408
    124  N1         0.7270  -31.9330   21.5140 N.ar    6  G6         -0.1709
    125  C2        -0.6270  -32.0490   21.6820 C.ar    6  G6          0.2606
    126  N2        -1.0360  -32.6250   22.8180 N.pl3   6  G6         -0.0859
    127  N3        -1.5190  -31.6330   20.8010 N.ar    6  G6         -0.1918
    128  C4        -0.9380  -31.0670   19.7250 C.ar    6  G6          0.1723
    129  C5         0.4020  -30.8950   19.4640 C.ar    6  G6          0.1748
    130  C6         1.3490  -31.3570   20.4140 C.ar    6  G6          0.3023
    131  O6         2.5800  -31.2990   20.3660 O.2     6  G6         -0.2633
    132  N7         0.5870  -30.2650   18.2420 N.ar    6  G6         -0.2173
    133  C8        -0.6200  -30.0860   17.7850 C.ar    6  G6          0.1817
    134  N9        -1.5920  -30.5500   18.6320 N.ar    6  G6         -0.2693
    135  OP1       -2.2030  -28.6430   12.5970 O.2     6  G6         -0.5172
    136  OP2       -0.0170  -28.5510   13.8870 O.co2   6  G6         -0.4373
    137  P         -4.0190  -25.8470   17.5970 P.3     7  U7          0.2141
    138  C5'       -5.4550  -25.6820   19.7760 C.3     7  U7          0.1812
    139  O5'       -4.1810  -25.5990   19.1550 O.3     7  U7         -0.3114
    140  C4'       -5.4200  -25.1230   21.1770 C.3     7  U7          0.1773
    141  O4'       -4.2510  -25.5970   21.8890 O.3     7  U7         -0.3307
    142  C3'       -5.3230  -23.6140   21.3370 C.3     7  U7          0.1860
    143  O3'       -6.5540  -22.9730   21.0770 O.3     7  U7         -0.3112
    144  C2'       -4.9300  -23.5290   22.8010 C.3     7  U7          0.2309
    145  O2'       -6.0180  -23.8850   23.6130 O.3     7  U7         -0.2156
    146  C1'       -3.8900  -24.6470   22.8700 C.3     7  U7          0.2420
    147  N1        -2.5530  -24.1470   22.5570 N.ar    7  U7         -0.2534
    148  C2        -1.9590  -23.3460   23.5010 C.ar    7  U7          0.3546
    149  O2        -2.4880  -23.0760   24.5600 O.2     7  U7         -0.2443
    150  N3        -0.7210  -22.8740   23.1570 N.ar    7  U7         -0.1530
    151  C4        -0.0300  -23.1220   21.9960 C.ar    7  U7          0.2846
    152  O4         1.0840  -22.6380   21.8450 O.2     7  U7         -0.2650
    153  C5        -0.7170  -23.9540   21.0640 C.ar    7  U7          0.0814
    154  C6        -1.9250  -24.4300   21.3710 C.ar    7  U7          0.0870
    155  OP1       -5.0020  -25.0150   16.9210 O.2     7  U7         -0.5172
    156  OP2       -2.6200  -25.6950   17.2870 O.co2   7  U7         -0.4373
    157  P         -6.5550  -21.5100   20.5060 P.3     8  A8          0.2141
    158  C5'       -6.6700  -20.5790   22.9580 C.3     8  A8          0.1812
    159  O5'       -5.9830  -20.6460   21.7220 O.3     8  A8         -0.3114
    160  C4'       -5.9060  -19.7610   23.9670 C.3     8  A8          0.1773
    161  O4'       -4.6130  -20.3660   24.2240 O.3     8  A8         -0.3307
    162  C3'       -5.5650  -18.3400   23.5510 C.3     8  A8          0.1860
    163  O3'       -6.6530  -17.4580   23.7340 O.3     8  A8         -0.3112
    164  C2'       -4.3640  -18.0170   24.4230 C.3     8  A8          0.2309
    165  O2'       -4.7740  -17.7390   25.7540 O.3     8  A8         -0.2156
    166  C1'       -3.6470  -19.3650   24.4460 C.3     8  A8          0.2408
    167  N1         1.1660  -18.2080   23.0190 N.ar    8  A8         -0.2040
    168  C2         0.4740  -17.9270   24.1280 C.ar    8  A8          0.2016
    169  N3        -0.7780  -18.2520   24.4290 N.ar    8  A8         -0.2048
    170  C4        -1.3490  -18.9590   23.4420 C.ar    8  A8          0.1692
    171  C5        -0.7610  -19.3330   22.2470 C.ar    8  A8          0.1518
    172  C6         0.5680  -18.9330   22.0460 C.ar    8  A8          0.1919
    173  N6         1.2620  -19.2210   20.9340 N.pl3   8  A8         -0.1054
    174  N7        -1.6540  -20.0600   21.4700 N.ar    8  A8         -0.2193
    175  C8        -2.7420  -20.1280   22.1980 C.ar    8  A8          0.1816
    176  N9        -2.6250  -19.4720   23.3970 N.ar    8  A8         -0.2693
    177  OP1       -7.9930  -21.1870   20.2960 O.3     8  A8         -0.4373
    178  OP2       -5.5300  -21.3550   19.4420 O.co2   8  A8         -0.5172
    179  P         -6.9490  -16.3050   22.6610 P.3     9  G9          0.2141
    180  C5'       -5.0470  -14.7270   21.7760 C.3     9  G9          0.1812
    181  O5'       -5.7380  -15.2990   22.8690 O.3     9  G9         -0.3114
    182  C4'       -3.5600  -14.7340   22.0070 C.3     9  G9          0.1773
    183  O4'       -3.0620  -16.1030   21.9670 O.3     9  G9         -0.3307
    184  C3'       -2.7430  -14.0080   20.9520 C.3     9  G9          0.1860
    185  O3'       -2.6750  -12.6180   21.1800 O.3     9  G9         -0.3112
    186  C2'       -1.3940  -14.7010   21.0340 C.3     9  G9          0.2309
    187  O2'       -0.6550  -14.2290   22.1510 O.3     9  G9         -0.2156
    188  C1'       -1.8220  -16.1420   21.2900 C.3     9  G9          0.2408
    189  N1         0.3280  -17.9190   17.0320 N.ar    9  G9         -0.1709
    190  C2         0.8970  -17.2170   18.0650 C.ar    9  G9          0.2606
    191  N2         2.2070  -16.9630   17.9420 N.pl3   9  G9         -0.0859
    192  N3         0.2310  -16.7940   19.1370 N.ar    9  G9         -0.1918
    193  C4        -1.0700  -17.1550   19.0820 C.ar    9  G9          0.1723
    194  C5        -1.7330  -17.8450   18.0960 C.ar    9  G9          0.1748
    195  C6        -1.0090  -18.2860   16.9580 C.ar    9  G9          0.3023
    196  O6        -1.4330  -18.9220   15.9850 O.2     9  G9         -0.2633
    197  N7        -3.0730  -18.0070   18.4120 N.ar    9  G9         -0.2173
    198  C8        -3.2000  -17.4090   19.5660 C.ar    9  G9          0.1817
    199  N9        -2.0250  -16.8730   20.0270 N.ar    9  G9         -0.2693
    200  OP1       -8.2050  -15.6540   23.1260 O.3     9  G9         -0.4373
    201  OP2       -6.8660  -16.8640   21.2880 O.co2   9  G9         -0.5172
    202  P         -2.6560  -11.6150   19.9360 P.3    10  A10         0.2141
    203  C5'       -0.0340  -11.5740   20.0530 C.3    10  A10         0.1812
    204  O5'       -1.2150  -11.8280   19.3040 O.3    10  A10        -0.3114
    205  C4'        1.1910  -11.8660   19.2260 C.3    10  A10         0.1773
    206  O4'        1.2310  -13.2790   18.9060 O.3    10  A10        -0.3307
    207  C3'        1.2140  -11.1800   17.8700 C.3    10  A10         0.1860
    208  O3'        1.6860   -9.8520   17.9490 O.3    10  A10        -0.3112
    209  C2'        2.0920  -12.1030   17.0380 C.3    10  A10         0.2309
    210  O2'        3.4600  -11.8940   17.3540 O.3    10  A10        -0.2156
    211  C1'        1.6870  -13.4650   17.5830 C.3    10  A10         0.2408
    212  N1         0.4310  -16.0530   13.3090 N.ar   10  A10        -0.2040
    213  C2         1.5890  -15.5440   13.7440 C.ar   10  A10         0.2016
    214  N3         1.8420  -14.8780   14.8610 N.ar   10  A10        -0.2048
    215  C4         0.7270  -14.7440   15.5950 C.ar   10  A10         0.1692
    216  C5        -0.5380  -15.2110   15.2800 C.ar   10  A10         0.1518
    217  C6        -0.6770  -15.9080   14.0620 C.ar   10  A10         0.1919
    218  N6        -1.8230  -16.4240   13.6060 N.pl3  10  A10        -0.1054
    219  N7        -1.4390  -14.8800   16.2860 N.ar   10  A10        -0.2193
    220  C8        -0.7080  -14.2260   17.1590 C.ar   10  A10         0.1816
    221  N9         0.6080  -14.1030   16.8070 N.ar   10  A10        -0.2693
    222  OP1       -2.7020  -10.2310   20.4760 O.3    10  A10        -0.4373
    223  OP2       -3.6850  -12.0880   18.9870 O.co2  10  A10        -0.5172
    224  P          0.9860   -8.6940   17.0790 P.3    11  U11         0.2141
    225  C5'        3.0400   -8.7680   15.4570 C.3    11  U11         0.1812
    226  O5'        1.6390   -8.8490   15.6380 O.3    11  U11        -0.3114
    227  C4'        3.4210   -9.2790   14.0940 C.3    11  U11         0.1773
    228  O4'        3.1860  -10.7100   14.0240 O.3    11  U11        -0.3307
    229  C3'        2.6030   -8.7290   12.9390 C.3    11  U11         0.1860
    230  O3'        3.0030   -7.4330   12.5370 O.3    11  U11        -0.3112
    231  C2'        2.8000   -9.7880   11.8700 C.3    11  U11         0.2309
    232  O2'        4.0830   -9.6530   11.2860 O.3    11  U11        -0.2156
    233  C1'        2.7920  -11.0650   12.7130 C.3    11  U11         0.2420
    234  N1         1.4390  -11.6550   12.7590 N.ar   11  U11        -0.2534
    235  C2         1.0980  -12.4800   11.7170 C.ar   11  U11         0.3546
    236  O2         1.8790  -12.7360   10.8240 O.2    11  U11        -0.2443
    237  N3        -0.1700  -12.9970   11.7550 N.ar   11  U11        -0.1530
    238  C4        -1.1150  -12.7570   12.7330 C.ar   11  U11         0.2846
    239  O4        -2.2210  -13.2930   12.6510 O.2    11  U11        -0.2650
    240  C5        -0.6870  -11.8770   13.7770 C.ar   11  U11         0.0814
    241  C6         0.5450  -11.3590   13.7580 C.ar   11  U11         0.0870
    242  OP1        1.4250   -7.4210   17.6770 O.3    11  U11        -0.4373
    243  OP2       -0.4480   -9.0340   16.8630 O.co2  11  U11        -0.5172
    244  P          1.9030   -6.4110   11.9730 P.3    12  G12         0.2141
    245  C5'        2.7310   -6.9790    9.5550 C.3    12  G12         0.1812
    246  O5'        1.6560   -6.9000   10.4800 O.3    12  G12        -0.3114
    247  C4'        2.3500   -7.7710    8.3310 C.3    12  G12         0.1773
    248  O4'        2.0800   -9.1490    8.6990 O.3    12  G12        -0.3307
    249  C3'        1.0850   -7.3310    7.6130 C.3    12  G12         0.1860
    250  O3'        1.2860   -6.2120    6.7670 O.3    12  G12        -0.3112
    251  C2'        0.6780   -8.5930    6.8650 C.3    12  G12         0.2309
    252  O2'        1.4730   -8.7610    5.7030 O.3    12  G12        -0.2156
    253  C1'        1.0630   -9.6760    7.8740 C.3    12  G12         0.2408
    254  N1        -3.1830  -12.4190    8.1310 N.ar   12  G12        -0.1709
    255  C2        -2.2740  -12.3070    7.1140 C.ar   12  G12         0.2606
    256  N2        -2.5500  -13.0290    6.0180 N.pl3  12  G12        -0.0859
    257  N3        -1.1910  -11.5500    7.1720 N.ar   12  G12        -0.1918
    258  C4        -1.0940  -10.9080    8.3530 C.ar   12  G12         0.1723
    259  C5        -1.9430  -10.9510    9.4350 C.ar   12  G12         0.1748
    260  C6        -3.1030  -11.7660    9.3570 C.ar   12  G12         0.3023
    261  O6        -3.9930  -11.9570   10.1950 O.2    12  G12        -0.2633
    262  N7        -1.4710  -10.1360   10.4550 N.ar   12  G12        -0.2173
    263  C8        -0.3670   -9.6190    9.9880 C.ar   12  G12         0.1817
    264  N9        -0.0840  -10.0540    8.7180 N.ar   12  G12        -0.2693
    265  OP1        2.5050   -5.0530   11.9530 O.2    12  G12        -0.5172
    266  OP2        0.6440   -6.6690   12.7180 O.co2  12  G12        -0.4373
    267  P          0.0420   -5.2910    6.3270 P.3    13  A13         0.2141
    268  C5'       -0.3670   -6.5670    4.0800 C.3    13  A13         0.1812
    269  O5'       -0.8310   -6.2240    5.3770 O.3    13  A13        -0.3114
    270  C4'       -1.3320   -7.4820    3.3650 C.3    13  A13         0.1773
    271  O4'       -1.4870   -8.7180    4.1120 O.3    13  A13        -0.3307
    272  C3'       -2.7510   -6.9570    3.2070 C.3    13  A13         0.1860
    273  O3'       -2.8770   -6.0660    2.1070 O.3    13  A13        -0.3112
    274  C2'       -3.5710   -8.2390    3.0710 C.3    13  A13         0.2309
    275  O2'       -3.4960   -8.7600    1.7520 O.3    13  A13        -0.2156
    276  C1'       -2.8150   -9.1860    4.0060 C.3    13  A13         0.2408
    277  N1        -6.5720  -11.0540    7.0010 N.ar   13  A13        -0.2040
    278  C2        -6.2920  -11.2280    5.7050 C.ar   13  A13         0.2016
    279  N3        -5.2970  -10.7110    4.9920 N.ar   13  A13        -0.2048
    280  C4        -4.5190   -9.9220    5.7530 C.ar   13  A13         0.1692
    281  C5        -4.6810   -9.6470    7.0980 C.ar   13  A13         0.1518
    282  C6        -5.7720  -10.2550    7.7420 C.ar   13  A13         0.1919
    283  N6        -6.0560  -10.0840    9.0350 N.pl3  13  A13        -0.1054
    284  N7        -3.6880   -8.7880    7.5480 N.ar   13  A13        -0.2193
    285  C8        -2.9550   -8.5650    6.4820 C.ar   13  A13         0.1816
    286  N9        -3.4030   -9.2220    5.3600 N.ar   13  A13        -0.2693
    287  OP1        0.5830   -4.1850    5.4950 O.2    13  A13        -0.5172
    288  OP2       -0.7570   -4.9750    7.5380 O.co2  13  A13        -0.4373
    289  P         -3.9590   -4.8710    2.1230 P.3    14  U14         0.2141
    290  C5'       -5.5820   -6.4490    0.8160 C.3    14  U14         0.1812
    291  O5'       -5.3510   -5.6250    1.9490 O.3    14  U14        -0.3114
    292  C4'       -6.8290   -7.2830    0.9690 C.3    14  U14         0.1773
    293  O4'       -6.6470   -8.2680    2.0180 O.3    14  U14        -0.3307
    294  C3'       -8.0870   -6.5430    1.3850 C.3    14  U14         0.1860
    295  O3'       -8.7070   -5.8630    0.3110 O.3    14  U14        -0.3112
    296  C2'       -8.9430   -7.6560    1.9690 C.3    14  U14         0.2309
    297  O2'       -9.5430   -8.4180    0.9320 O.3    14  U14        -0.2156
    298  C1'       -7.8830   -8.5190    2.6560 C.3    14  U14         0.2420
    299  N1        -7.7550   -8.1960    4.0960 N.ar   14  U14        -0.2534
    300  C2        -8.6880   -8.7680    4.9290 C.ar   14  U14         0.3546
    301  O2        -9.5610   -9.5040    4.5040 O.2    14  U14        -0.2443
    302  N3        -8.5560   -8.4510    6.2610 N.ar   14  U14        -0.1530
    303  C4        -7.6030   -7.6320    6.8300 C.ar   14  U14         0.2846
    304  O4        -7.6180   -7.4470    8.0490 O.2    14  U14        -0.2650
    305  C5        -6.6690   -7.0690    5.9000 C.ar   14  U14         0.0814
    306  C6        -6.7760   -7.3630    4.5940 C.ar   14  U14         0.0870
    307  OP1       -3.7360   -4.0600    0.8970 O.2    14  U14        -0.5172
    308  OP2       -3.9350   -4.1910    3.4440 O.co2  14  U14        -0.4373
    309  P         -9.4620   -4.4660    0.5670 P.3    15  U15         0.2141
    310  C5'      -11.7770   -5.6700    0.6900 C.3    15  U15         0.1812
    311  O5'      -10.7930   -4.8800    1.3380 O.3    15  U15        -0.3114
    312  C4'      -12.7430   -6.3050    1.6610 C.3    15  U15         0.1773
    313  O4'      -12.0250   -7.0980    2.6420 O.3    15  U15        -0.3307
    314  C3'      -13.5790   -5.3580    2.5070 C.3    15  U15         0.1860
    315  O3'      -14.6820   -4.8040    1.8110 O.3    15  U15        -0.3112
    316  C2'      -13.9840   -6.2390    3.6810 C.3    15  U15         0.2309
    317  O2'      -15.0410   -7.1110    3.3090 O.3    15  U15        -0.2156
    318  C1'      -12.7200   -7.0740    3.8760 C.3    15  U15         0.2420
    319  N1       -11.8370   -6.5080    4.9220 N.ar   15  U15        -0.2534
    320  C2       -12.2450   -6.6360    6.2360 C.ar   15  U15         0.3546
    321  O2       -13.2870   -7.1810    6.5560 O.2    15  U15        -0.2443
    322  N3       -11.3890   -6.0960    7.1610 N.ar   15  U15        -0.1530
    323  C4       -10.1900   -5.4610    6.9080 C.ar   15  U15         0.2846
    324  O4        -9.5180   -5.0290    7.8420 O.2    15  U15        -0.2650
    325  C5        -9.8370   -5.3700    5.5260 C.ar   15  U15         0.0814
    326  C6       -10.6540   -5.8860    4.6050 C.ar   15  U15         0.0870
    327  OP1       -9.8650   -3.9600   -0.7760 O.2    15  U15        -0.5172
    328  OP2       -8.6110   -3.6160    1.4450 O.co2  15  U15        -0.4373
    329  P        -15.1680   -3.3090    2.1500 P.3    16  C16         0.2141
    330  C5'      -17.1700   -4.3080    3.5140 C.3    16  C16         0.1812
    331  O5'      -16.0240   -3.4710    3.4830 O.3    16  C16        -0.3114
    332  C4'      -17.6780   -4.4970    4.9210 C.3    16  C16         0.1773
    333  O4'      -16.7250   -5.2800    5.6890 O.3    16  C16        -0.3307
    334  C3'      -17.8520   -3.2300    5.7430 C.3    16  C16         0.1860
    335  O3'      -19.0530   -2.5390    5.4560 O.3    16  C16        -0.3112
    336  C2'      -17.7720   -3.7550    7.1650 C.3    16  C16         0.2309
    337  O2'      -18.9760   -4.4220    7.5110 O.3    16  C16        -0.2156
    338  C1'      -16.6810   -4.8100    7.0200 C.3    16  C16         0.2420
    339  N1       -15.3330   -4.2490    7.2690 N.ar   16  C16        -0.2535
    340  C2       -14.8400   -4.2580    8.5740 C.ar   16  C16         0.3532
    341  O2       -15.5540   -4.7350    9.4690 O.2    16  C16        -0.2443
    342  N3       -13.6100   -3.7510    8.8240 N.ar   16  C16        -0.1739
    343  C4       -12.8720   -3.2540    7.8310 C.ar   16  C16         0.1759
    344  N4       -11.6650   -2.7640    8.1340 N.pl3  16  C16        -0.1070
    345  C5       -13.3470   -3.2250    6.4860 C.ar   16  C16         0.0566
    346  C6       -14.5700   -3.7290    6.2560 C.ar   16  C16         0.0850
    347  OP1      -16.0890   -2.8690    1.0710 O.2    16  C16        -0.5172
    348  OP2      -13.9560   -2.5100    2.4730 O.co2  16  C16        -0.4373
    349  P        -19.2860   -1.0660    6.0470 P.3    17  G17         0.2141
    350  C5'      -18.6860   -0.0990    8.4100 C.3    17  G17         0.1812
    351  O5'      -18.4620   -1.0750    7.4060 O.3    17  G17        -0.3114
    352  C4'      -18.4860   -0.6830    9.7830 C.3    17  G17         0.1773
    353  O4'      -17.3480   -1.5820    9.7700 O.3    17  G17        -0.3307
    354  C3'      -18.1670    0.3130   10.8820 C.3    17  G17         0.1860
    355  O3'      -19.3340    0.9260   11.3970 O.3    17  G17        -0.3112
    356  C2'      -17.4250   -0.5400   11.9020 C.3    17  G17         0.2309
    357  O2'      -18.3470   -1.2870   12.6790 O.3    17  G17        -0.2156
    358  C1'      -16.6540   -1.5020   10.9920 C.3    17  G17         0.2408
    359  N1       -12.1590   -0.2750   13.0020 N.ar   17  G17        -0.1709
    360  C2       -13.2900   -0.7470   13.6190 C.ar   17  G17         0.2606
    361  N2       -13.2270   -0.9110   14.9510 N.pl3  17  G17        -0.0859
    362  N3       -14.4090   -1.0370   12.9740 N.ar   17  G17        -0.1918
    363  C4       -14.2950   -0.8210   11.6420 C.ar   17  G17         0.1723
    364  C5       -13.2110   -0.3550   10.9300 C.ar   17  G17         0.1748
    365  C6       -12.0190   -0.0470   11.6310 C.ar   17  G17         0.3023
    366  O6       -10.9520    0.3770   11.1690 O.2    17  G17        -0.2633
    367  N7       -13.5140   -0.2650    9.5750 N.ar   17  G17        -0.2173
    368  C8       -14.7550   -0.6730    9.4950 C.ar   17  G17         0.1817
    369  N9       -15.2880   -1.0180   10.7120 N.ar   17  G17        -0.2693
    370  OP1      -20.7250   -0.9430    6.3980 O.3    17  G17        -0.4373
    371  OP2      -18.6390   -0.0900    5.1350 O.co2  17  G17        -0.5172
    372  P        -19.3190    2.4710   11.8200 P.3    18  C18         0.2141
    373  C5'      -18.8310    1.8450   14.3290 C.3    18  C18         0.1812
    374  O5'      -18.4250    2.5050   13.1390 O.3    18  C18        -0.3114
    375  C4'      -17.7660    1.9440   15.3900 C.3    18  C18         0.1773
    376  O4'      -16.5880    1.2070   14.9710 O.3    18  C18        -0.3307
    377  C3'      -17.2370    3.3410   15.6610 C.3    18  C18         0.1860
    378  O3'      -18.0760    4.0920   16.5120 O.3    18  C18        -0.3112
    379  C2'      -15.8620    3.0660   16.2480 C.3    18  C18         0.2309
    380  O2'      -15.9780    2.6280   17.5970 O.3    18  C18        -0.2156
    381  C1'      -15.4220    1.8770   15.3990 C.3    18  C18         0.2420
    382  N1       -14.6720    2.2940   14.1890 N.ar   18  C18        -0.2535
    383  C2       -13.3220    2.6190   14.2820 C.ar   18  C18         0.3532
    384  O2       -12.7690    2.5910   15.3810 O.2    18  C18        -0.2443
    385  N3       -12.6440    2.9850   13.1740 N.ar   18  C18        -0.1739
    386  C4       -13.2610    3.0380   11.9970 C.ar   18  C18         0.1759
    387  N4       -12.5300    3.3880   10.9400 N.pl3  18  C18        -0.1070
    388  C5       -14.6400    2.7010   11.8550 C.ar   18  C18         0.0566
    389  C6       -15.2930    2.3370   12.9700 C.ar   18  C18         0.0850
    390  OP1      -20.7050    2.8490   12.1940 O.3    18  C18        -0.4373
    391  OP2      -18.5830    3.2230   10.7710 O.co2  18  C18        -0.5172
    392  P        -18.2050    5.6760   16.2990 P.3    19  G19         0.2141
    393  C5'      -16.3490    6.0430   18.1150 C.3    19  G19         0.1812
    394  O5'      -16.8080    6.2560   16.7910 O.3    19  G19        -0.3114
    395  C4'      -14.9180    6.4810   18.2710 C.3    19  G19         0.1773
    396  O4'      -14.0520    5.6560   17.4410 O.3    19  G19        -0.3307
    397  C3'      -14.6170    7.8990   17.8120 C.3    19  G19         0.1860
    398  O3'      -14.9670    8.8650   18.7830 O.3    19  G19        -0.3112
    399  C2'      -13.1250    7.8460   17.5260 C.3    19  G19         0.2309
    400  O2'      -12.3850    7.8930   18.7430 O.3    19  G19        -0.2156
    401  C1'      -12.9850    6.4410   16.9410 C.3    19  G19         0.2408
    402  N1       -10.4240    7.2440   12.6060 N.ar   19  G19        -0.1709
    403  C2       -10.0390    7.4800   13.9020 C.ar   19  G19         0.2606
    404  N2        -8.8080    7.9810   14.0860 N.pl3  19  G19        -0.0859
    405  N3       -10.8090    7.2450   14.9560 N.ar   19  G19        -0.1918
    406  C4       -12.0040    6.7420   14.6060 C.ar   19  G19         0.1723
    407  C5       -12.4870    6.4870   13.3480 C.ar   19  G19         0.1748
    408  C6       -11.6610    6.7430   12.2250 C.ar   19  G19         0.3023
    409  O6       -11.9410    6.5630   11.0380 O.2    19  G19        -0.2633
    410  N7       -13.7730    5.9820   13.4070 N.ar   19  G19        -0.2173
    411  C8       -14.0400    5.9380   14.6810 C.ar   19  G19         0.1817
    412  N9       -13.0220    6.4000   15.4650 N.ar   19  G19        -0.2693
    413  OP1      -19.2310    6.1390   17.2690 O.3    19  G19        -0.4373
    414  OP2      -18.3290    5.9710   14.8500 O.co2  19  G19        -0.5172
    415  P        -15.5310   10.3010   18.3320 P.3    20  U20         0.2141
    416  C5'      -13.1510   11.4040   18.2870 C.3    20  U20         0.1812
    417  O5'      -14.3050   10.9860   17.5770 O.3    20  U20        -0.3114
    418  C4'      -12.0500   11.8390   17.3480 C.3    20  U20         0.1773
    419  O4'      -11.6680   10.7310   16.4900 O.3    20  U20        -0.3307
    420  C3'      -12.3980   12.9530   16.3700 C.3    20  U20         0.1860
    421  O3'      -12.3200   14.2350   16.9630 O.3    20  U20        -0.3112
    422  C2'      -11.3720   12.7460   15.2650 C.3    20  U20         0.2309
    423  O2'      -10.1170   13.2380   15.6980 O.3    20  U20        -0.2156
    424  C1'      -11.2690   11.2220   15.2240 C.3    20  U20         0.2420
    425  N1       -12.1260   10.6030   14.1900 N.ar   20  U20        -0.2534
    426  C2       -11.6020   10.4740   12.9170 C.ar   20  U20         0.3546
    427  O2       -10.4830   10.8630   12.6330 O.2    20  U20        -0.2443
    428  N3       -12.4180    9.8720   11.9970 N.ar   20  U20        -0.1530
    429  C4       -13.6900    9.4050   12.2350 C.ar   20  U20         0.2846
    430  O4       -14.3100    8.8870   11.3220 O.2    20  U20        -0.2650
    431  C5       -14.1660    9.5670   13.5770 C.ar   20  U20         0.0814
    432  C6       -13.3860   10.1590   14.4850 C.ar   20  U20         0.0870
    433  OP1      -15.7480   11.0660   19.5900 O.3    20  U20        -0.4373
    434  OP2      -16.6150   10.0920   17.3520 O.co2  20  U20        -0.5172
    435  P        -13.4200   15.3460   16.6240 P.3    21  U21         0.2141
    436  C5'      -13.8260   16.2510   19.0630 C.3    21  U21         0.1812
    437  O5'      -14.2770   15.4830   17.9580 O.3    21  U21        -0.3114
    438  C4'      -14.7150   16.0110   20.2530 C.3    21  U21         0.1773
    439  O4'      -16.0590   16.4810   19.9330 O.3    21  U21        -0.3307
    440  C3'      -14.8600   14.5370   20.6310 C.3    21  U21         0.1860
    441  O3'      -15.0290   14.4230   22.0400 O.3    21  U21        -0.3112
    442  C2'      -16.1510   14.1430   19.9220 C.3    21  U21         0.2309
    443  O2'      -16.8120   13.0160   20.4580 O.3    21  U21        -0.2156
    444  C1'      -16.9790   15.4170   20.0730 C.3    21  U21         0.2420
    445  N1       -18.0310   15.5600   19.0550 N.ar   21  U21        -0.2534
    446  C2       -19.3390   15.5270   19.4970 C.ar   21  U21         0.3546
    447  O2       -19.6310   15.4120   20.6740 O.2    21  U21        -0.2443
    448  N3       -20.2960   15.6420   18.5200 N.ar   21  U21        -0.1530
    449  C4       -20.0800   15.7800   17.1650 C.ar   21  U21         0.2846
    450  O4       -21.0550   15.8690   16.4080 O.2    21  U21        -0.2650
    451  C5       -18.6980   15.8000   16.7780 C.ar   21  U21         0.0814
    452  C6       -17.7440   15.6870   17.7130 C.ar   21  U21         0.0870
    453  OP1      -14.3720   14.8130   15.6210 O.2    21  U21        -0.5172
    454  OP2      -12.6680   16.6020   16.4320 O.co2  21  U21        -0.4373
    455  P        -13.7480   14.3920   23.0040 P.3    22  A22         0.2141
    456  C5'      -13.5680   11.8420   22.4580 C.3    22  A22         0.1812
    457  O5'      -12.9380   13.1120   22.5140 O.3    22  A22        -0.3114
    458  C4'      -12.5660   10.7130   22.4650 C.3    22  A22         0.1773
    459  O4'      -11.8380   10.6750   21.1990 O.3    22  A22        -0.3307
    460  C3'      -11.5020   10.7440   23.5740 C.3    22  A22         0.1860
    461  O3'      -11.3140    9.4120   24.0630 O.3    22  A22        -0.3112
    462  C2'      -10.2450   11.1650   22.8160 C.3    22  A22         0.2309
    463  O2'       -9.0350   10.7410   23.4020 O.3    22  A22        -0.2156
    464  C1'      -10.4720   10.4840   21.4750 C.3    22  A22         0.2408
    465  N1        -8.5850    9.3450   16.8180 N.ar   22  A22        -0.2040
    466  C2        -9.4400    8.7160   17.6240 C.ar   22  A22         0.2016
    467  N3        -9.8840    9.0830   18.8190 N.ar   22  A22        -0.2048
    468  C4        -9.3620   10.2560   19.2010 C.ar   22  A22         0.1692
    469  C5        -8.4700   11.0240   18.4790 C.ar   22  A22         0.1518
    470  C6        -8.0740   10.5240   17.2170 C.ar   22  A22         0.1919
    471  N6        -7.2170   11.1480   16.3990 N.pl3  22  A22        -0.1054
    472  N7        -8.1440   12.1790   19.1840 N.ar   22  A22        -0.2193
    473  C8        -8.8400   12.0800   20.2980 C.ar   22  A22         0.1816
    474  N9        -9.6210   10.9480   20.3660 N.ar   22  A22        -0.2693
    475  OP1      -14.2510   14.1100   24.3700 O.3    22  A22        -0.4373
    476  OP2      -12.8850   15.5680   22.7820 O.co2  22  A22        -0.5172
    477  P        -10.9180    9.1030   25.5980 P.3    23  A23         0.2141
    478  C5'      -12.5130    7.0620   26.0130 C.3    23  A23         0.1812
    479  O5'      -11.2110    7.5380   25.7210 O.3    23  A23        -0.3114
    480  C4'      -13.0460    6.1420   24.9470 C.3    23  A23         0.1773
    481  O4'      -12.9930    6.7830   23.6440 O.3    23  A23        -0.3307
    482  C3'      -12.3130    4.8240   24.7210 C.3    23  A23         0.1860
    483  O3'      -12.5700    3.8540   25.7230 O.3    23  A23        -0.3112
    484  C2'      -12.8050    4.4280   23.3410 C.3    23  A23         0.2309
    485  O2'      -14.1280    3.9090   23.4070 O.3    23  A23        -0.2156
    486  C1'      -12.8480    5.7950   22.6400 C.3    23  A23         0.2408
    487  N1       -10.1400    4.5770   18.4670 N.ar   23  A23        -0.2040
    488  C2       -11.3360    4.1620   18.9250 C.ar   23  A23         0.2016
    489  N3       -11.9800    4.5280   20.0330 N.ar   23  A23        -0.2048
    490  C4       -11.2610    5.4390   20.7120 C.ar   23  A23         0.1692
    491  C5       -10.0180    5.9480   20.3760 C.ar   23  A23         0.1518
    492  C6        -9.4330    5.4800   19.1820 C.ar   23  A23         0.1919
    493  N6        -8.2410    5.9060   18.7290 N.pl3  23  A23        -0.1054
    494  N7        -9.5900    6.8530   21.3250 N.ar   23  A23        -0.2193
    495  C8       -10.5620    6.8790   22.2050 C.ar   23  A23         0.1816
    496  N9       -11.6030    6.0520   21.8870 N.ar   23  A23        -0.2693
    497  OP1      -11.8410    9.8530   26.4760 O.3    23  A23        -0.4373
    498  OP2       -9.4530    9.2420   25.7980 O.co2  23  A23        -0.5172
    499  P        -11.3540    3.0230   26.3140 P.3    24  G24         0.2141
    500  C5'      -11.4930    1.3420   24.2930 C.3    24  G24         0.1812
    501  O5'      -10.7110    2.2250   25.0990 O.3    24  G24        -0.3114
    502  C4'      -10.7990    1.0020   22.9910 C.3    24  G24         0.1773
    503  O4'      -10.6640    2.1930   22.1690 O.3    24  G24        -0.3307
    504  C3'       -9.3900    0.4460   23.0640 C.3    24  G24         0.1860
    505  O3'       -9.3240   -0.9470   23.3690 O.3    24  G24        -0.3112
    506  C2'       -8.8940    0.7300   21.6560 C.3    24  G24         0.2309
    507  O2'       -9.4850   -0.1250   20.7140 O.3    24  G24        -0.2156
    508  C1'       -9.4640    2.1290   21.4300 C.3    24  G24         0.2408
    509  N1        -5.3950    4.9770   20.4280 N.ar   24  G24        -0.1709
    510  C2        -6.0090    4.0370   19.6460 C.ar   24  G24         0.2606
    511  N2        -5.4630    3.8230   18.4450 N.pl3  24  G24        -0.0859
    512  N3        -7.0820    3.3600   20.0120 N.ar   24  G24        -0.1918
    513  C4        -7.4960    3.7020   21.2480 C.ar   24  G24         0.1723
    514  C5        -6.9550    4.6300   22.1070 C.ar   24  G24         0.1748
    515  C6        -5.8130    5.3590   21.6960 C.ar   24  G24         0.3023
    516  O6        -5.1840    6.2170   22.3150 O.2    24  G24        -0.2633
    517  N7        -7.6800    4.6880   23.2880 N.ar   24  G24        -0.2173
    518  C8        -8.6250    3.8040   23.1290 C.ar   24  G24         0.1817
    519  N9        -8.5710    3.1710   21.9150 N.ar   24  G24        -0.2693
    520  OP1      -12.0170    2.0740   27.2060 O.3    24  G24        -0.4373
    521  OP2      -10.2720    3.8320   26.8340 O.co2  24  G24        -0.5172
    522  P         -8.0620   -1.4540   24.1690 P.3    25  U25         0.2141
    523  C5'       -6.4300   -1.7410   22.1330 C.3    25  U25         0.1812
    524  O5'       -6.7280   -1.1160   23.3800 O.3    25  U25        -0.3114
    525  C4'       -5.1820   -1.1530   21.5220 C.3    25  U25         0.1773
    526  O4'       -5.3840    0.2500   21.2360 O.3    25  U25        -0.3307
    527  C3'       -3.9190   -1.1620   22.3640 C.3    25  U25         0.1860
    528  O3'       -3.2590   -2.4120   22.3460 O.3    25  U25        -0.3112
    529  C2'       -3.0850   -0.1070   21.6560 C.3    25  U25         0.2309
    530  O2'       -2.4760   -0.5820   20.4810 O.3    25  U25        -0.2156
    531  C1'       -4.1520    0.9310   21.3390 C.3    25  U25         0.2420
    532  N1        -4.2710    1.9050   22.4240 N.ar   25  U25        -0.2534
    533  C2        -3.2920    2.8670   22.5300 C.ar   25  U25         0.3546
    534  O2        -2.3500    2.9350   21.7680 O.2    25  U25        -0.2443
    535  N3        -3.4620    3.7470   23.5650 N.ar   25  U25        -0.1530
    536  C4        -4.4800    3.7620   24.4870 C.ar   25  U25         0.2846
    537  O4        -4.4840    4.6160   25.3690 O.2    25  U25        -0.2650
    538  C5        -5.4540    2.7320   24.3110 C.ar   25  U25         0.0814
    539  C6        -5.3170    1.8570   23.3120 C.ar   25  U25         0.0870
    540  OP1       -8.2850   -2.9060   24.1640 O.2    25  U25        -0.5172
    541  OP2       -7.9260   -0.7460   25.4270 O.co2  25  U25        -0.4373
    542  P         -2.6590   -3.0050   23.6680 P.3    26  G26         0.2141
    543  C5'       -0.2990   -2.0890   23.0270 C.3    26  G26         0.1812
    544  O5'       -1.3610   -2.1440   23.9630 O.3    26  G26        -0.3114
    545  C4'        0.6560   -0.9830   23.3660 C.3    26  G26         0.1773
    546  O4'        0.0150    0.3050   23.1530 O.3    26  G26        -0.3307
    547  C3'        1.1090   -0.9190   24.8150 C.3    26  G26         0.1860
    548  O3'        2.1160   -1.8620   25.1350 O.3    26  G26        -0.3112
    549  C2'        1.5510    0.5270   24.9380 C.3    26  G26         0.2309
    550  O2'        2.7840    0.7170   24.2630 O.3    26  G26        -0.2156
    551  C1'        0.4590    1.2230   24.1300 C.3    26  G26         0.2408
    552  N1        -1.0730    4.4600   27.6510 N.ar   26  G26        -0.1709
    553  C2         0.1040    4.3880   26.9500 C.ar   26  G26         0.2606
    554  N2         1.0170    5.3260   27.2370 N.pl3  26  G26        -0.0859
    555  N3         0.3670    3.4700   26.0350 N.ar   26  G26        -0.1918
    556  C4        -0.6620    2.6290   25.8820 C.ar   26  G26         0.1723
    557  C5        -1.8770    2.6100   26.5290 C.ar   26  G26         0.1748
    558  C6        -2.1470    3.5940   27.5100 C.ar   26  G26         0.3023
    559  O6        -3.1610    3.7610   28.1980 O.2    26  G26        -0.2633
    560  N7        -2.6460    1.5530   26.0760 N.ar   26  G26        -0.2173
    561  C8        -1.8910    0.9680   25.1730 C.ar   26  G26         0.1817
    562  N9        -0.6760    1.5850   25.0010 N.ar   26  G26        -0.2693
    563  OP1       -2.2380   -4.3780   23.3350 O.2    26  G26        -0.5172
    564  OP2       -3.6140   -2.7360   24.7740 O.co2  26  G26        -0.4373
    565  P          2.1660   -2.5270   26.6050 P.3    27  U27         0.2141
    566  C5'        3.7850   -0.6130   27.4300 C.3    27  U27         0.1812
    567  O5'        2.5640   -1.3220   27.5710 O.3    27  U27        -0.3114
    568  C4'        3.9510    0.4420   28.5000 C.3    27  U27         0.1773
    569  O4'        2.9810    1.5150   28.3260 O.3    27  U27        -0.3307
    570  C3'        3.7200   -0.0070   29.9310 C.3    27  U27         0.1860
    571  O3'        4.7940   -0.7510   30.4770 O.3    27  U27        -0.3112
    572  C2'        3.4510    1.3120   30.6390 C.3    27  U27         0.2309
    573  O2'        4.6550    2.0460   30.8090 O.3    27  U27        -0.2156
    574  C1'        2.6260    2.0450   29.5880 C.3    27  U27         0.2420
    575  N1         1.1710    1.8790   29.8150 N.ar   27  U27        -0.2534
    576  C2         0.6250    2.5760   30.8800 C.ar   27  U27         0.3546
    577  O2         1.2810    3.3000   31.6100 O.2    27  U27        -0.2443
    578  N3        -0.7220    2.4090   31.0760 N.ar   27  U27        -0.1530
    579  C4        -1.5660    1.6300   30.3210 C.ar   27  U27         0.2846
    580  O4        -2.7540    1.5940   30.6220 O.2    27  U27        -0.2650
    581  C5        -0.9360    0.9300   29.2420 C.ar   27  U27         0.0814
    582  C6         0.3790    1.0720   29.0400 C.ar   27  U27         0.0870
    583  OP1        3.2220   -3.5720   26.5730 O.2    27  U27        -0.5172
    584  OP2        0.7960   -2.9380   27.0020 O.co2  27  U27        -0.4373
    585  P          4.5050   -1.9130   31.5540 P.3    28  G28         0.2141
    586  C5'        5.1690   -0.1800   33.4220 C.3    28  G28         0.1812
    587  O5'        4.2420   -1.1240   32.9100 O.3    28  G28        -0.3114
    588  C4'        4.6280    0.4770   34.6640 C.3    28  G28         0.1773
    589  O4'        3.5410    1.3720   34.3120 O.3    28  G28        -0.3307
    590  C3'        4.0030   -0.4570   35.6910 C.3    28  G28         0.1860
    591  O3'        4.9590   -1.0990   36.5110 O.3    28  G28        -0.3112
    592  C2'        3.0780    0.4720   36.4570 C.3    28  G28         0.2309
    593  O2'        3.8210    1.2860   37.3540 O.3    28  G28        -0.2156
    594  C1'        2.5660    1.3640   35.3350 C.3    28  G28         0.2408
    595  N1        -2.4490    1.1080   36.0440 N.ar   28  G28        -0.1709
    596  C2        -1.4730    1.6320   36.8450 C.ar   28  G28         0.2606
    597  N2        -1.8830    2.1750   38.0040 N.pl3  28  G28        -0.0859
    598  N3        -0.1840    1.6260   36.5420 N.ar   28  G28        -0.1918
    599  C4         0.0550    1.0470   35.3540 C.ar   28  G28         0.1723
    600  C5        -0.8490    0.4890   34.4790 C.ar   28  G28         0.1748
    601  C6        -2.2310    0.5060   34.8080 C.ar   28  G28         0.3023
    602  O6        -3.1920    0.0730   34.1490 O.2    28  G28        -0.2633
    603  N7        -0.1910   -0.0080   33.3670 N.ar   28  G28        -0.2173
    604  C8         1.0720    0.2610   33.5820 C.ar   28  G28         0.1817
    605  N9         1.2890    0.8840   34.7760 N.ar   28  G28        -0.2693
    606  OP1        5.7470   -2.7320   31.6550 O.3    28  G28        -0.4373
    607  OP2        3.2190   -2.5970   31.2700 O.co2  28  G28        -0.5172
    608  P          4.7080   -2.5910   37.0270 P.3    29  U29         0.2141
    609  C5'        4.0630   -1.7410   39.4200 C.3    29  U29         0.1812
    610  O5'        3.6890   -2.4360   38.2370 O.3    29  U29        -0.3114
    611  C4'        2.8710   -1.4800   40.3040 C.3    29  U29         0.1773
    612  O4'        1.9390   -0.5770   39.6420 O.3    29  U29        -0.3307
    613  C3'        2.0100   -2.6800   40.6500 C.3    29  U29         0.1860
    614  O3'        2.5820   -3.5090   41.6490 O.3    29  U29        -0.3112
    615  C2'        0.7050   -2.0180   41.0580 C.3    29  U29         0.2309
    616  O2'        0.8520   -1.3780   42.3190 O.3    29  U29        -0.2156
    617  C1'        0.6130   -0.9140   40.0120 C.3    29  U29         0.2420
    618  N1        -0.1140   -1.3840   38.8140 N.ar   29  U29        -0.2534
    619  C2        -1.4850   -1.3860   38.8900 C.ar   29  U29         0.3546
    620  O2        -2.0790   -1.0260   39.8860 O.2    29  U29        -0.2443
    621  N3        -2.1390   -1.8170   37.7660 N.ar   29  U29        -0.1530
    622  C4        -1.5520   -2.2560   36.5990 C.ar   29  U29         0.2846
    623  O4        -2.2780   -2.6210   35.6680 O.2    29  U29        -0.2650
    624  C5        -0.1200   -2.2260   36.5950 C.ar   29  U29         0.0814
    625  C6         0.5360   -1.8150   37.6870 C.ar   29  U29         0.0870
    626  OP1        6.0020   -3.0680   37.5890 O.3    29  U29        -0.4373
    627  OP2        4.0030   -3.3620   35.9770 O.co2  29  U29        -0.5172
    628  P          2.2630   -5.0800   41.6730 P.3    30  G30         0.2141
    629  C5'        0.2900   -4.6120   43.3020 C.3    30  G30         0.1812
    630  O5'        0.7290   -5.1500   42.0640 O.3    30  G30        -0.3114
    631  C4'       -1.2100   -4.5920   43.3880 C.3    30  G30         0.1773
    632  O4'       -1.7500   -3.6960   42.3840 O.3    30  G30        -0.3307
    633  C3'       -1.9110   -5.9120   43.0990 C.3    30  G30         0.1860
    634  O3'       -1.8670   -6.8160   44.1950 O.3    30  G30        -0.3112
    635  C2'       -3.3070   -5.4530   42.7210 C.3    30  G30         0.2309
    636  O2'       -4.0250   -5.0390   43.8750 O.3    30  G30        -0.2156
    637  C1'       -2.9840   -4.2020   41.9110 C.3    30  G30         0.2408
    638  N1        -5.6460   -5.2450   37.7760 N.ar   30  G30        -0.1709
    639  C2        -6.0660   -4.9570   39.0480 C.ar   30  G30         0.2606
    640  N2        -7.3920   -4.9470   39.2620 N.pl3  30  G30        -0.0859
    641  N3        -5.2290   -4.7090   40.0440 N.ar   30  G30        -0.1918
    642  C4        -3.9380   -4.7470   39.6650 C.ar   30  G30         0.1723
    643  C5        -3.4140   -5.0210   38.4220 C.ar   30  G30         0.1748
    644  C6        -4.3130   -5.3010   37.3550 C.ar   30  G30         0.3023
    645  O6        -4.0530   -5.5520   36.1620 O.2    30  G30        -0.2633
    646  N7        -2.0300   -4.9690   38.4650 N.ar   30  G30        -0.2173
    647  C8        -1.7390   -4.6830   39.7130 C.ar   30  G30         0.1817
    648  N9        -2.8640   -4.5260   40.4800 N.ar   30  G30        -0.2693
    649  OP1        3.0130   -5.6660   42.8220 O.3    30  G30        -0.4373
    650  OP2        2.4010   -5.6430   40.3100 O.co2  30  G30        -0.5172
    651  P         -1.9850   -8.4070   43.9470 P.3    31  U31         0.2141
    652  C5'       -4.5340   -8.2440   44.5210 C.3    31  U31         0.1812
    653  O5'       -3.5170   -8.6390   43.6120 O.3    31  U31        -0.3114
    654  C4'       -5.8990   -8.4090   43.9060 C.3    31  U31         0.1773
    655  O4'       -6.0320   -7.5730   42.7300 O.3    31  U31        -0.3307
    656  C3'       -6.2110   -9.8050   43.4010 C.3    31  U31         0.1860
    657  O3'       -6.6290  -10.6340   44.4610 O.3    31  U31        -0.3112
    658  C2'       -7.2880   -9.5540   42.3620 C.3    31  U31         0.2309
    659  O2'       -8.5300   -9.3140   43.0040 O.3    31  U31        -0.2156
    660  C1'       -6.8260   -8.2280   41.7630 C.3    31  U31         0.2420
    661  N1        -6.0120   -8.3730   40.5350 N.ar   31  U31        -0.2534
    662  C2        -6.6650   -8.4980   39.3250 C.ar   31  U31         0.3546
    663  O2        -7.8780   -8.5490   39.2430 O.2    31  U31        -0.2443
    664  N3        -5.8430   -8.5580   38.2250 N.ar   31  U31        -0.1530
    665  C4        -4.4620   -8.5260   38.2150 C.ar   31  U31         0.2846
    666  O4        -3.8530   -8.6080   37.1490 O.2    31  U31        -0.2650
    667  C5        -3.8510   -8.3900   39.5050 C.ar   31  U31         0.0814
    668  C6        -4.6380   -8.3110   40.5860 C.ar   31  U31         0.0870
    669  OP1       -1.6810   -9.0650   45.2530 O.3    31  U31        -0.4373
    670  OP2       -1.2230   -8.8080   42.7500 O.co2  31  U31        -0.5172
    671  P         -6.5980  -12.2170   44.3020 P.3    32  G32         0.2141
    672  C5'       -7.6510  -13.4180   42.2640 C.3    32  G32         0.1812
    673  O5'       -7.7950  -12.4760   43.3010 O.3    32  G32        -0.3114
    674  C4'       -8.6510  -13.1710   41.1770 C.3    32  G32         0.1773
    675  O4'       -8.3420  -11.9290   40.4950 O.3    32  G32        -0.3307
    676  C3'       -8.6510  -14.2170   40.0780 C.3    32  G32         0.1860
    677  O3'       -9.4180  -15.3500   40.4320 O.3    32  G32        -0.3112
    678  C2'       -9.1910  -13.4470   38.8860 C.3    32  G32         0.2309
    679  O2'      -10.6000  -13.3170   38.9890 O.3    32  G32        -0.2156
    680  C1'       -8.5580  -12.0710   39.1100 C.3    32  G32         0.2408
    681  N1        -6.1050  -11.8140   34.6510 N.ar   32  G32        -0.1709
    682  C2        -7.4490  -11.9440   34.9180 C.ar   32  G32         0.2606
    683  N2        -8.2770  -12.0250   33.8650 N.pl3  32  G32        -0.0859
    684  N3        -7.9630  -11.9870   36.1370 N.ar   32  G32        -0.1918
    685  C4        -7.0140  -11.9090   37.0830 C.ar   32  G32         0.1723
    686  C5        -5.6490  -11.7720   36.9290 C.ar   32  G32         0.1748
    687  C6        -5.1040  -11.7010   35.6180 C.ar   32  G32         0.3023
    688  O6        -3.9220  -11.5790   35.2740 O.2    32  G32        -0.2633
    689  N7        -5.0390  -11.7100   38.1720 N.ar   32  G32        -0.2173
    690  C8        -6.0230  -11.8070   39.0290 C.ar   32  G32         0.1817
    691  N9        -7.2500  -11.9410   38.4410 N.ar   32  G32        -0.2693
    692  OP1       -6.9650  -12.8150   45.6140 O.3    32  G32        -0.4373
    693  OP2       -5.3280  -12.5760   43.6220 O.co2  32  G32        -0.5172
    694  P         -9.0030  -16.8020   39.8730 P.3    33  A33         0.2141
    695  C5'      -10.7490  -16.5610   37.9280 C.3    33  A33         0.1812
    696  O5'       -9.4000  -16.7440   38.3330 O.3    33  A33        -0.3114
    697  C4'      -10.8680  -16.4040   36.4320 C.3    33  A33         0.1773
    698  O4'      -10.1530  -15.2240   35.9960 O.3    33  A33        -0.3307
    699  C3'      -10.2680  -17.5140   35.5910 C.3    33  A33         0.1860
    700  O3'      -11.1150  -18.6350   35.5080 O.3    33  A33        -0.3112
    701  C2'      -10.0470  -16.8220   34.2570 C.3    33  A33         0.2309
    702  O2'      -11.2850  -16.6360   33.5940 O.3    33  A33        -0.2156
    703  C1'       -9.5920  -15.4470   34.7190 C.3    33  A33         0.2408
    704  N1        -5.0880  -14.9070   32.2510 N.ar   33  A33        -0.2040
    705  C2        -6.3500  -15.0020   31.8000 C.ar   33  A33         0.2016
    706  N3        -7.4790  -15.1550   32.4910 N.ar   33  A33        -0.2048
    707  C4        -7.2330  -15.1990   33.8100 C.ar   33  A33         0.1692
    708  C5        -5.9980  -15.1120   34.4170 C.ar   33  A33         0.1518
    709  C6        -4.8790  -14.9570   33.5850 C.ar   33  A33         0.1919
    710  N6        -3.6320  -14.8620   34.0560 N.pl3  33  A33        -0.1054
    711  N7        -6.1220  -15.2090   35.7930 N.ar   33  A33        -0.2193
    712  C8        -7.4080  -15.3400   35.9890 C.ar   33  A33         0.1816
    713  N9        -8.1320  -15.3490   34.8330 N.ar   33  A33        -0.2693
    714  OP1       -9.8400  -17.8150   40.5590 O.3    33  A33        -0.4373
    715  OP2       -7.5310  -16.9490   39.8530 O.co2  33  A33        -0.5172
    716  P        -10.5060  -20.0480   35.1880 P.3    34  A34         0.2141
    717  C5'      -11.3210  -19.9760   32.7020 C.3    34  A34         0.1812
    718  O5'      -10.2460  -20.0470   33.6270 O.3    34  A34        -0.3114
    719  C4'      -10.7760  -19.7230   31.3230 C.3    34  A34         0.1773
    720  O4'       -9.9730  -18.5160   31.3320 O.3    34  A34        -0.3307
    721  C3'       -9.8210  -20.7860   30.7920 C.3    34  A34         0.1860
    722  O3'      -10.5010  -21.9220   30.2840 O.3    34  A34        -0.3112
    723  C2'       -9.0630  -20.0060   29.7340 C.3    34  A34         0.2309
    724  O2'       -9.8630  -19.8280   28.5920 O.3    34  A34        -0.2156
    725  C1'       -8.8930  -18.6570   30.4320 C.3    34  A34         0.2408
    726  N1        -3.8800  -17.6080   30.2010 N.ar   34  A34        -0.2040
    727  C2        -4.8350  -17.6380   29.2680 C.ar   34  A34         0.2016
    728  N3        -6.1240  -17.9160   29.3940 N.ar   34  A34        -0.2048
    729  C4        -6.4230  -18.2040   30.6700 C.ar   34  A34         0.1692
    730  C5        -5.5530  -18.2120   31.7400 C.ar   34  A34         0.1518
    731  C6        -4.2170  -17.8870   31.4760 C.ar   34  A34         0.1919
    732  N6        -3.2680  -17.8550   32.4080 N.pl3  34  A34        -0.1054
    733  N7        -6.2160  -18.5500   32.9080 N.ar   34  A34        -0.2193
    734  C8        -7.4530  -18.7320   32.5240 C.ar   34  A34         0.1816
    735  N9        -7.6510  -18.5340   31.1840 N.ar   34  A34        -0.2693
    736  OP1      -11.5960  -20.9440   35.5420 O.2    34  A34        -0.5172
    737  OP2       -9.2110  -20.2090   35.8020 O.co2  34  A34        -0.4373
    738  P         -9.7390  -23.3290   30.3760 P.3    35  U35         0.2141
    739  C5'       -8.6010  -22.9920   28.0450 C.3    35  U35         0.1812
    740  O5'       -8.4630  -23.1130   29.4600 O.3    35  U35        -0.3114
    741  C4'       -7.2770  -22.6740   27.3940 C.3    35  U35         0.1773
    742  O4'       -6.6970  -21.4940   27.9930 O.3    35  U35        -0.3307
    743  C3'       -6.1700  -23.7010   27.5340 C.3    35  U35         0.1860
    744  O3'       -6.3570  -24.7850   26.6390 O.3    35  U35        -0.3112
    745  C2'       -4.9470  -22.8640   27.1890 C.3    35  U35         0.2309
    746  O2'       -4.8030  -22.6280   25.8150 O.3    35  U35        -0.2156
    747  C1'       -5.3000  -21.5250   27.8330 C.3    35  U35         0.2420
    748  N1        -4.6880  -21.3740   29.1510 N.ar   35  U35        -0.2534
    749  C2        -3.3930  -20.9130   29.2090 C.ar   35  U35         0.3546
    750  O2        -2.7580  -20.6050   28.2230 O.2    35  U35        -0.2443
    751  N3        -2.8760  -20.8130   30.4720 N.ar   35  U35        -0.1530
    752  C4        -3.5000  -21.1330   31.6540 C.ar   35  U35         0.2846
    753  O4        -2.8940  -20.9990   32.7110 O.2    35  U35        -0.2650
    754  C5        -4.8350  -21.6130   31.5070 C.ar   35  U35         0.0814
    755  C6        -5.3670  -21.7200   30.2890 C.ar   35  U35         0.0870
    756  OP1      -10.6670  -24.2800   29.7690 O.2    35  U35        -0.5172
    757  OP2       -9.2310  -23.5700   31.7110 O.co2  35  U35        -0.4373
    758  P         -5.9340  -26.2390   27.1090 P.3    36  G36         0.2141
    759  C5'       -5.1980  -28.1190   25.4080 C.3    36  G36         0.1812
    760  O5'       -5.1320  -26.7610   25.8400 O.3    36  G36        -0.3114
    761  C4'       -4.9670  -28.1630   23.9230 C.3    36  G36         0.1773
    762  O4'       -3.6010  -27.7700   23.6470 O.3    36  G36        -0.3307
    763  C3'       -5.1910  -29.5070   23.2130 C.3    36  G36         0.1860
    764  O3'       -6.0550  -29.3220   22.0870 O.3    36  G36        -0.3112
    765  C2'       -3.7910  -29.9170   22.7390 C.3    36  G36         0.2309
    766  O2'       -3.7840  -30.6130   21.5060 O.3    36  G36        -0.2156
    767  C1'       -3.0850  -28.5750   22.6110 C.3    36  G36         0.2408
    768  N1         1.2440  -27.3070   20.2640 N.ar   36  G36        -0.1709
    769  C2        -0.0620  -27.1120   19.8810 C.ar   36  G36         0.2606
    770  N2        -0.2590  -26.4800   18.7020 N.pl3  36  G36        -0.0859
    771  N3        -1.1060  -27.4950   20.6060 N.ar   36  G36        -0.1918
    772  C4        -0.7490  -28.1170   21.7640 C.ar   36  G36         0.1723
    773  C5         0.5180  -28.3610   22.2400 C.ar   36  G36         0.1748
    774  C6         1.6300  -27.9440   21.4580 C.ar   36  G36         0.3023
    775  O6         2.8350  -28.0700   21.7190 O.2    36  G36        -0.2633
    776  N7         0.4620  -29.0190   23.4760 N.ar   36  G36        -0.2173
    777  C8        -0.8230  -29.1560   23.7160 C.ar   36  G36         0.1817
    778  N9        -1.6170  -28.6200   22.7110 N.ar   36  G36        -0.2693
    779  OP1       -7.1590  -27.0310   27.3570 O.2    36  G36        -0.5172
    780  OP2       -4.8920  -26.1380   28.1620 O.co2  36  G36        -0.4373
    781  P         -7.6260  -29.6500   22.2400 P.3    37  G37         0.2141
    782  C5'       -8.9400  -31.8370   22.8380 C.3    37  G37         0.1812
    783  O5'       -7.6940  -31.1560   22.7620 O.3    37  G37        -0.3114
    784  C4'       -8.8560  -33.0860   23.6780 C.3    37  G37         0.1773
    785  O4'       -7.7970  -33.9360   23.1750 O.3    37  G37        -0.3307
    786  C3'       -8.5040  -32.8820   25.1440 C.3    37  G37         0.1860
    787  O3'       -9.6260  -32.5370   25.9330 O.3    37  G37        -0.3112
    788  C2'       -7.8860  -34.2200   25.5330 C.3    37  G37         0.2309
    789  O2'       -8.8960  -35.1860   25.8020 O.3    37  G37        -0.2156
    790  C1'       -7.1690  -34.6100   24.2450 C.3    37  G37         0.2408
    791  N1        -2.6890  -35.3410   26.4840 N.ar   37  G37        -0.1709
    792  C2        -3.9120  -35.8880   26.7750 C.ar   37  G37         0.2606
    793  N2        -3.9530  -36.7550   27.8020 N.pl3  37  G37        -0.0859
    794  N3        -5.0220  -35.6120   26.1080 N.ar   37  G37        -0.1918
    795  C4        -4.7900  -34.7290   25.1190 C.ar   37  G37         0.1723
    796  C5        -3.6110  -34.1210   24.7510 C.ar   37  G37         0.1748
    797  C6        -2.4260  -34.4270   25.4690 C.ar   37  G37         0.3023
    798  O6        -1.2770  -33.9950   25.2920 O.2    37  G37        -0.2633
    799  N7        -3.8140  -33.2700   23.6730 N.ar   37  G37        -0.2173
    800  C8        -5.0920  -33.3790   23.4170 C.ar   37  G37         0.1817
    801  N9        -5.7420  -34.2410   24.2590 N.ar   37  G37        -0.2693
    802  OP1       -8.2410  -29.6330   20.8870 O.2    37  G37        -0.5172
    803  OP2       -8.1720  -28.7820   23.3170 O.co2  37  G37        -0.4373
    804  P         -9.4160  -31.6980   27.2840 P.3    38  G38         0.2141
    805  C5'       -9.5430  -33.6300   29.0580 C.3    38  G38         0.1812
    806  O5'       -8.7450  -32.7520   28.2790 O.3    38  G38        -0.3114
    807  C4'       -8.7380  -34.2760   30.1530 C.3    38  G38         0.1773
    808  O4'       -7.6120  -34.9900   29.5790 O.3    38  G38        -0.3307
    809  C3'       -8.0910  -33.3290   31.1450 C.3    38  G38         0.1860
    810  O3'       -8.9860  -32.8510   32.1290 O.3    38  G38        -0.3112
    811  C2'       -6.9570  -34.1710   31.7030 C.3    38  G38         0.2309
    812  O2'       -7.4620  -35.1370   32.6110 O.3    38  G38        -0.2156
    813  C1'       -6.4980  -34.9020   30.4460 C.3    38  G38         0.2408
    814  N1        -1.5440  -33.6540   30.3370 N.ar   38  G38        -0.1709
    815  C2        -2.2380  -34.4270   31.2360 C.ar   38  G38         0.2606
    816  N2        -1.5100  -34.9290   32.2440 N.pl3  38  G38        -0.0859
    817  N3        -3.5390  -34.6890   31.1780 N.ar   38  G38        -0.1918
    818  C4        -4.1000  -34.1000   30.1040 C.ar   38  G38         0.1723
    819  C5        -3.4990  -33.3180   29.1400 C.ar   38  G38         0.1748
    820  C6        -2.1090  -33.0500   29.2190 C.ar   38  G38         0.3023
    821  O6        -1.4020  -32.3920   28.4500 O.2    38  G38        -0.2633
    822  N7        -4.4210  -32.9060   28.1900 N.ar   38  G38        -0.2173
    823  C8        -5.5400  -33.4400   28.5920 C.ar   38  G38         0.1817
    824  N9        -5.4220  -34.1740   29.7470 N.ar   38  G38        -0.2693
    825  OP1      -10.7620  -31.3580   27.8170 O.3    38  G38        -0.4373
    826  OP2       -8.4200  -30.6310   27.0020 O.co2  38  G38        -0.5172
    827  P         -8.7280  -31.4160   32.8000 P.3    39  A39         0.2141
    828  C5'       -7.4210  -32.3810   34.8510 C.3    39  A39         0.1812
    829  O5'       -7.4020  -31.6170   33.6600 O.3    39  A39        -0.3114
    830  C4'       -6.0660  -32.4430   35.5100 C.3    39  A39         0.1773
    831  O4'       -5.1070  -33.0960   34.6320 O.3    39  A39        -0.3307
    832  C3'       -5.3850  -31.1270   35.8510 C.3    39  A39         0.1860
    833  O3'       -5.9350  -30.4690   36.9850 O.3    39  A39        -0.3112
    834  C2'       -3.9430  -31.5730   36.0330 C.3    39  A39         0.2309
    835  O2'       -3.7960  -32.2660   37.2640 O.3    39  A39        -0.2156
    836  C1'       -3.8110  -32.5960   34.8990 C.3    39  A39         0.2408
    837  N1         0.4400  -30.8530   32.6460 N.ar   39  A39        -0.2040
    838  C2         0.2150  -31.4190   33.8360 C.ar   39  A39         0.2016
    839  N3        -0.9290  -31.8590   34.3510 N.ar   39  A39        -0.2048
    840  C4        -1.9430  -31.6520   33.4910 C.ar   39  A39         0.1692
    841  C5        -1.8680  -31.0710   32.2400 C.ar   39  A39         0.1518
    842  C6        -0.5980  -30.6540   31.7980 C.ar   39  A39         0.1919
    843  N6        -0.3650  -30.0760   30.6040 N.pl3  39  A39        -0.1054
    844  N7        -3.1250  -31.0280   31.6550 N.ar   39  A39        -0.2193
    845  C8        -3.9170  -31.5640   32.5490 C.ar   39  A39         0.1816
    846  N9        -3.2630  -31.9710   33.6820 N.ar   39  A39        -0.2693
    847  OP1       -9.8760  -31.1590   33.7090 O.3    39  A39        -0.4373
    848  OP2       -8.3530  -30.4520   31.7330 O.co2  39  A39        -0.5172
    849  P         -5.9450  -28.8610   37.0690 P.3    40  U40         0.2141
    850  C5'       -3.6150  -28.7850   38.2520 C.3    40  U40         0.1812
    851  O5'       -4.4040  -28.4540   37.1210 O.3    40  U40        -0.3114
    852  C4'       -2.1520  -28.5030   38.0250 C.3    40  U40         0.1773
    853  O4'       -1.6840  -29.1910   36.8330 O.3    40  U40        -0.3307
    854  C3'       -1.7540  -27.0620   37.7710 C.3    40  U40         0.1860
    855  O3'       -1.7490  -26.2640   38.9430 O.3    40  U40        -0.3112
    856  C2'       -0.3840  -27.2310   37.1300 C.3    40  U40         0.2309
    857  O2'        0.5810  -27.5840   38.1130 O.3    40  U40        -0.2156
    858  C1'       -0.6230  -28.4680   36.2570 C.3    40  U40         0.2420
    859  N1        -1.0110  -28.0910   34.8820 N.ar   40  U40        -0.2534
    860  C2        -0.0040  -27.6760   34.0520 C.ar   40  U40         0.3546
    861  O2         1.1600  -27.5960   34.4150 O.2    40  U40        -0.2443
    862  N3        -0.4100  -27.3100   32.7850 N.ar   40  U40        -0.1530
    863  C4        -1.6960  -27.3620   32.2940 C.ar   40  U40         0.2846
    864  O4        -1.8960  -27.0270   31.1220 O.2    40  U40        -0.2650
    865  C5        -2.6880  -27.8240   33.2170 C.ar   40  U40         0.0814
    866  C6        -2.3160  -28.1750   34.4600 C.ar   40  U40         0.0870
    867  OP1       -6.5630  -28.5480   38.3900 O.3    40  U40        -0.4373
    868  OP2       -6.4840  -28.2740   35.8180 O.co2  40  U40        -0.5172
    869  P         -2.1790  -24.7150   38.8000 P.3    41  G41         0.2141
    870  C5'        0.2310  -23.7410   38.4460 C.3    41  G41         0.1812
    871  O5'       -1.0460  -24.0540   37.9140 O.3    41  G41        -0.3114
    872  C4'        1.1810  -23.3790   37.3380 C.3    41  G41         0.1773
    873  O4'        1.0330  -24.3020   36.2280 O.3    41  G41        -0.3307
    874  C3'        0.9440  -22.0260   36.6970 C.3    41  G41         0.1860
    875  O3'        1.4400  -20.9680   37.5040 O.3    41  G41        -0.3112
    876  C2'        1.6880  -22.1850   35.3800 C.3    41  G41         0.2309
    877  O2'        3.0740  -22.0170   35.5520 O.3    41  G41        -0.2156
    878  C1'        1.3610  -23.6400   35.0200 C.3    41  G41         0.2408
    879  N1        -0.0890  -23.4850   30.1640 N.ar   41  G41        -0.1709
    880  C2         1.1470  -23.2660   30.7140 C.ar   41  G41         0.2606
    881  N2         2.1260  -22.9640   29.8600 N.pl3  41  G41        -0.0859
    882  N3         1.4050  -23.3410   32.0060 N.ar   41  G41        -0.1918
    883  C4         0.3070  -23.6510   32.7220 C.ar   41  G41         0.1723
    884  C5        -0.9720  -23.8880   32.2730 C.ar   41  G41         0.1748
    885  C6        -1.2330  -23.8130   30.8780 C.ar   41  G41         0.3023
    886  O6        -2.2940  -24.0040   30.2840 O.2    41  G41        -0.2633
    887  N7        -1.8220  -24.1610   33.3330 N.ar   41  G41        -0.2173
    888  C8        -1.0570  -24.0900   34.3860 C.ar   41  G41         0.1817
    889  N9         0.2480  -23.7940   34.0860 N.ar   41  G41        -0.2693
    890  OP1       -2.1610  -24.1450   40.1420 O.3    41  G41        -0.4373
    891  OP2       -3.3840  -24.6340   37.9910 O.co2  41  G41        -0.5172
    892  P          0.8880  -19.4750   37.2790 P.3    42  U42         0.2141
    893  C5'        3.4280  -19.0720   36.7720 C.3    42  U42         0.1812
    894  O5'        2.0630  -18.8350   36.4350 O.3    42  U42        -0.3114
    895  C4'        4.3310  -18.4660   35.7240 C.3    42  U42         0.1773
    896  O4'        4.1300  -19.1800   34.4740 O.3    42  U42        -0.3307
    897  C3'        4.0820  -16.9910   35.4170 C.3    42  U42         0.1860
    898  O3'        5.2660  -16.2720   35.0980 O.3    42  U42        -0.3112
    899  C2'        3.1630  -17.0640   34.2080 C.3    42  U42         0.2309
    900  O2'        3.0950  -15.8920   33.4240 O.3    42  U42        -0.2156
    901  C1'        3.7380  -18.2710   33.4690 C.3    42  U42         0.2420
    902  N1         2.7230  -18.8950   32.6130 N.ar   42  U42        -0.2534
    903  C2         3.0100  -19.0380   31.2740 C.ar   42  U42         0.3546
    904  O2         4.0910  -18.7610   30.7980 O.2    42  U42        -0.2443
    905  N3         1.9860  -19.5420   30.5170 N.ar   42  U42        -0.1530
    906  C4         0.7280  -19.8930   30.9450 C.ar   42  U42         0.2846
    907  O4        -0.0850  -20.3350   30.1400 O.2    42  U42        -0.2650
    908  C5         0.5090  -19.7120   32.3430 C.ar   42  U42         0.0814
    909  C6         1.4850  -19.2200   33.1070 C.ar   42  U42         0.0870
    910  OP1        0.8760  -18.8630   38.5970 O.3    42  U42        -0.4373
    911  OP2       -0.2990  -19.4300   36.4540 O.co2  42  U42        -0.5172
    912  P          6.0870  -15.5450   36.2360 P.3    43  C43         0.2141
    913  C5'        6.1050  -13.4420   34.6470 C.3    43  C43         0.1812
    914  O5'        6.8310  -14.3950   35.4190 O.3    43  C43        -0.3114
    915  C4'        6.8030  -13.1460   33.3410 C.3    43  C43         0.1773
    916  O4'        8.2310  -13.3990   33.4940 O.3    43  C43        -0.3307
    917  C3'        6.3510  -13.9910   32.1500 C.3    43  C43         0.1860
    918  O3'        6.4600  -13.2150   30.9550 O.3    43  C43        -0.3112
    919  C2'        7.3960  -15.0980   32.1150 C.3    43  C43         0.2309
    920  O2'        7.5380  -15.7160   30.8570 O.3    43  C43        -0.2156
    921  C1'        8.6520  -14.3280   32.5120 C.3    43  C43         0.2420
    922  N1         9.7320  -15.1610   33.0680 N.ar   43  C43        -0.2535
    923  C2        11.0310  -14.9660   32.5740 C.ar   43  C43         0.3532
    924  O2        11.2220  -14.0980   31.7080 O.2    43  C43        -0.2443
    925  N3        12.0450  -15.7160   33.0590 N.ar   43  C43        -0.1739
    926  C4        11.8000  -16.6410   33.9920 C.ar   43  C43         0.1759
    927  N4        12.8290  -17.3670   34.4440 N.pl3  43  C43        -0.1070
    928  C5        10.4890  -16.8690   34.5070 C.ar   43  C43         0.0566
    929  C6         9.4920  -16.1170   34.0200 C.ar   43  C43         0.0850
    930  OP1        7.1310  -16.4450   36.7850 O.2    43  C43        -0.5172
    931  OP2        5.0960  -14.9240   37.1520 O.co2  43  C43        -0.4373
    932  P          5.2640  -12.2400   30.5100 P.3    44  G44         0.2141
    933  C5'        5.3550  -13.1600   28.0580 C.3    44  G44         0.1812
    934  O5'        4.6210  -12.9920   29.2630 O.3    44  G44        -0.3114
    935  C4'        4.5780  -13.9540   27.0390 C.3    44  G44         0.1773
    936  O4'        4.5020  -15.3460   27.4500 O.3    44  G44        -0.3307
    937  C3'        3.1270  -13.5410   26.8510 C.3    44  G44         0.1860
    938  O3'        2.9820  -12.4320   25.9840 O.3    44  G44        -0.3112
    939  C2'        2.4920  -14.8160   26.3290 C.3    44  G44         0.2309
    940  O2'        2.8340  -15.0160   24.9690 O.3    44  G44        -0.2156
    941  C1'        3.2200  -15.8600   27.1690 C.3    44  G44         0.2408
    942  N1        -1.0880  -17.2570   29.4260 N.ar   44  G44        -0.1709
    943  C2        -0.7760  -17.2330   28.0900 C.ar   44  G44         0.2606
    944  N2        -1.7460  -17.6340   27.2580 N.pl3  44  G44        -0.0859
    945  N3         0.4000  -16.8530   27.6190 N.ar   44  G44        -0.1918
    946  C4         1.2380  -16.4850   28.6130 C.ar   44  G44         0.1723
    947  C5         1.0200  -16.4730   29.9700 C.ar   44  G44         0.1748
    948  C6        -0.2390  -16.8940   30.4590 C.ar   44  G44         0.3023
    949  O6        -0.6320  -16.9560   31.6280 O.2    44  G44        -0.2633
    950  N7         2.1410  -16.0250   30.6520 N.ar   44  G44        -0.2173
    951  C8         3.0080  -15.7870   29.7060 C.ar   44  G44         0.1817
    952  N9         2.5250  -16.0510   28.4540 N.ar   44  G44        -0.2693
    953  OP1        5.8380  -10.9710   29.9930 O.2    44  G44        -0.5172
    954  OP2        4.2980  -12.1760   31.6340 O.co2  44  G44        -0.4373
    955  P          1.9780  -11.2310   26.3460 P.3    45  U45         0.2141
    956  C5'        0.0410  -12.3810   25.0290 C.3    45  U45         0.1812
    957  O5'        0.5340  -11.8870   26.2630 O.3    45  U45        -0.3114
    958  C4'       -1.3580  -12.9220   25.1590 C.3    45  U45         0.1773
    959  O4'       -1.3580  -14.1140   25.9910 O.3    45  U45        -0.3307
    960  C3'       -2.3690  -12.0180   25.8410 C.3    45  U45         0.1860
    961  O3'       -2.8500  -10.9740   25.0170 O.3    45  U45        -0.3112
    962  C2'       -3.4390  -13.0080   26.2620 C.3    45  U45         0.2309
    963  O2'       -4.1880  -13.4220   25.1290 O.3    45  U45        -0.2156
    964  C1'       -2.5740  -14.1840   26.7200 C.3    45  U45         0.2420
    965  N1        -2.2700  -14.0940   28.1680 N.ar   45  U45        -0.2534
    966  C2        -3.2750  -14.4410   29.0410 C.ar   45  U45         0.3546
    967  O2        -4.3730  -14.8230   28.6730 O.2    45  U45        -0.2443
    968  N3        -2.9570  -14.3320   30.3670 N.ar   45  U45        -0.1530
    969  C4        -1.7630  -13.9210   30.9060 C.ar   45  U45         0.2846
    970  O4        -1.6490  -13.8750   32.1360 O.2    45  U45        -0.2650
    971  C5        -0.7650  -13.5670   29.9440 C.ar   45  U45         0.0814
    972  C6        -1.0580  -13.6520   28.6410 C.ar   45  U45         0.0870
    973  OP1        2.1020  -10.2700   25.2170 O.2    45  U45        -0.5172
    974  OP2        2.1980  -10.7420   27.7350 O.co2  45  U45        -0.4373
    975  P         -3.3060   -9.5800   25.6800 P.3    46  C46         0.2141
    976  C5'       -5.7690  -10.4930   25.5750 C.3    46  C46         0.1812
    977  O5'       -4.7150   -9.9210   26.3360 O.3    46  C46        -0.3114
    978  C4'       -6.8980  -10.9630   26.4600 C.3    46  C46         0.1773
    979  O4'       -6.4270  -12.0010   27.3550 O.3    46  C46        -0.3307
    980  C3'       -7.4920   -9.9200   27.3930 C.3    46  C46         0.1860
    981  O3'       -8.4150   -9.0670   26.7380 O.3    46  C46        -0.3112
    982  C2'       -8.1080  -10.7690   28.4910 C.3    46  C46         0.2309
    983  O2'       -9.3240  -11.3610   28.0510 O.3    46  C46        -0.2156
    984  C1'       -7.0750  -11.8900   28.6070 C.3    46  C46         0.2420
    985  N1        -6.0480  -11.6140   29.6420 N.ar   46  C46        -0.2535
    986  C2        -6.3630  -11.7710   30.9950 C.ar   46  C46         0.3532
    987  O2        -7.4970  -12.1180   31.3070 O.2    46  C46        -0.2443
    988  N3        -5.4270  -11.5450   31.9330 N.ar   46  C46        -0.1739
    989  C4        -4.2030  -11.1710   31.5880 C.ar   46  C46         0.1759
    990  N4        -3.3080  -10.9510   32.5640 N.pl3  46  C46        -0.1070
    991  C5        -3.8450  -10.9910   30.2190 C.ar   46  C46         0.0566
    992  C6        -4.7890  -11.2320   29.2920 C.ar   46  C46         0.0850
    993  OP1       -3.4810   -8.6270   24.5390 O.2    46  C46        -0.5172
    994  OP2       -2.4170   -9.1690   26.7970 O.co2  46  C46        -0.4373
    995  P         -8.6740   -7.5810   27.2890 P.3    47  A47         0.2141
    996  C5'      -10.8400   -8.4360   28.4900 C.3    47  A47         0.1812
    997  O5'       -9.5730   -7.8000   28.5800 O.3    47  A47        -0.3114
    998  C4'      -11.4720   -8.5790   29.8510 C.3    47  A47         0.1773
    999  O4'      -10.7270   -9.5470   30.6470 O.3    47  A47        -0.3307
   1000  C3'      -11.4760   -7.3230   30.7160 C.3    47  A47         0.1860
   1001  O3'      -12.5310   -6.4460   30.3860 O.3    47  A47        -0.3112
   1002  C2'      -11.5810   -7.9030   32.1180 C.3    47  A47         0.2309
   1003  O2'      -12.8930   -8.4060   32.3340 O.3    47  A47        -0.2156
   1004  C1'      -10.6670   -9.1110   31.9910 C.3    47  A47         0.2408
   1005  N1        -7.1880   -8.7430   35.7500 N.ar   47  A47        -0.2040
   1006  C2        -8.5020   -8.9930   35.7640 C.ar   47  A47         0.2016
   1007  N3        -9.3480   -9.0440   34.7450 N.ar   47  A47        -0.2048
   1008  C4        -8.7090   -8.8390   33.5780 C.ar   47  A47         0.1692
   1009  C5        -7.3630   -8.5840   33.3970 C.ar   47  A47         0.1518
   1010  C6        -6.5700   -8.5340   34.5610 C.ar   47  A47         0.1919
   1011  N6        -5.2540   -8.3050   34.5470 N.pl3  47  A47        -0.1054
   1012  N7        -7.0670   -8.4080   32.0440 N.ar   47  A47        -0.2193
   1013  C8        -8.2280   -8.5710   31.4520 C.ar   47  A47         0.1816
   1014  N9        -9.2620   -8.8240   32.3180 N.ar   47  A47        -0.2693
   1015  OP1       -9.5160   -6.9000   26.2690 O.2    47  A47        -0.5172
   1016  OP2       -7.3970   -6.9380   27.7090 O.co2  47  A47        -0.4373
   1017  P        -12.3640   -4.8610   30.5440 P.3    48  C48         0.2141
   1018  C5'      -13.5550   -4.9790   32.8690 C.3    48  C48         0.1812
   1019  O5'      -12.4110   -4.6220   32.1130 O.3    48  C48        -0.3114
   1020  C4'      -13.2530   -4.9560   34.3410 C.3    48  C48         0.1773
   1021  O4'      -12.2560   -5.9600   34.6510 O.3    48  C48        -0.3307
   1022  C3'      -12.6420   -3.6700   34.8730 C.3    48  C48         0.1860
   1023  O3'      -13.6030   -2.6520   35.0880 O.3    48  C48        -0.3112
   1024  C2'      -11.9510   -4.1380   36.1400 C.3    48  C48         0.2309
   1025  O2'      -12.9050   -4.3560   37.1660 O.3    48  C48        -0.2156
   1026  C1'      -11.4200   -5.5010   35.6930 C.3    48  C48         0.2420
   1027  N1       -10.0310   -5.4060   35.1900 N.ar   48  C48        -0.2535
   1028  C2        -9.0060   -5.4490   36.1240 C.ar   48  C48         0.3532
   1029  O2        -9.3260   -5.5560   37.3160 O.2    48  C48        -0.2443
   1030  N3        -7.7190   -5.3690   35.7090 N.ar   48  C48        -0.1739
   1031  C4        -7.4270   -5.2350   34.4180 C.ar   48  C48         0.1759
   1032  N4        -6.1370   -5.1550   34.0650 N.pl3  48  C48        -0.1070
   1033  C5        -8.4610   -5.1840   33.4390 C.ar   48  C48         0.0566
   1034  C6        -9.7300   -5.2650   33.8750 C.ar   48  C48         0.0850
   1035  OP1      -13.5980   -4.2850   29.9520 O.2    48  C48        -0.5172
   1036  OP2      -11.0170   -4.4250   30.0950 O.co2  48  C48        -0.4373
   1037  P        -13.1690   -1.1130   35.0630 P.3    49  A49         0.2141
   1038  C5'      -13.0800   -1.0590   37.6830 C.3    49  A49         0.1812
   1039  O5'      -12.4120   -0.9040   36.4430 O.3    49  A49        -0.3114
   1040  C4'      -12.1270   -0.8620   38.8330 C.3    49  A49         0.1773
   1041  O4'      -11.1560   -1.9450   38.8610 O.3    49  A49        -0.3307
   1042  C3'      -11.2710    0.3960   38.7890 C.3    49  A49         0.1860
   1043  O3'      -11.9620    1.5530   39.2450 O.3    49  A49        -0.3112
   1044  C2'      -10.0950    0.0110   39.6700 C.3    49  A49         0.2309
   1045  O2'      -10.4980    0.0310   41.0290 O.3    49  A49        -0.2156
   1046  C1'       -9.9000   -1.4480   39.2740 C.3    49  A49         0.2408
   1047  N1        -4.9670   -1.8990   37.8080 N.ar   49  A49        -0.2040
   1048  C2        -5.5290   -1.7230   39.0100 C.ar   49  A49         0.2016
   1049  N3        -6.8200   -1.6030   39.3310 N.ar   49  A49        -0.2048
   1050  C4        -7.5860   -1.6790   38.2230 C.ar   49  A49         0.1692
   1051  C5        -7.1530   -1.8620   36.9180 C.ar   49  A49         0.1518
   1052  C6        -5.7650   -1.9750   36.7120 C.ar   49  A49         0.1919
   1053  N6        -5.2060   -2.1640   35.5070 N.pl3  49  A49        -0.1054
   1054  N7        -8.2350   -1.8890   36.0400 N.ar   49  A49        -0.2193
   1055  C8        -9.2780   -1.7410   36.8270 C.ar   49  A49         0.1816
   1056  N9        -8.9560   -1.6070   38.1530 N.ar   49  A49        -0.2693
   1057  OP1      -14.4260   -0.3210   35.1080 O.3    49  A49        -0.4373
   1058  OP2      -12.1630   -0.8390   34.0090 O.co2  49  A49        -0.5172
   1059  P        -11.7650    2.9740   38.5160 P.3    50  C50         0.2141
   1060  C5'      -10.0870    3.7570   40.3550 C.3    50  C50         0.1812
   1061  O5'      -10.3270    3.4680   38.9860 O.3    50  C50        -0.3114
   1062  C4'       -8.6180    3.7390   40.6820 C.3    50  C50         0.1773
   1063  O4'       -8.0520    2.4250   40.3930 O.3    50  C50        -0.3307
   1064  C3'       -7.7310    4.6730   39.8840 C.3    50  C50         0.1860
   1065  O3'       -7.8530    6.0500   40.2360 O.3    50  C50        -0.3112
   1066  C2'       -6.3600    4.0640   40.1260 C.3    50  C50         0.2309
   1067  O2'       -5.9440    4.3080   41.4610 O.3    50  C50        -0.2156
   1068  C1'       -6.6970    2.5740   40.0100 C.3    50  C50         0.2420
   1069  N1        -6.5460    2.1230   38.6130 N.ar   50  C50        -0.2535
   1070  C2        -5.2630    1.7940   38.1750 C.ar   50  C50         0.3532
   1071  O2        -4.3240    1.8660   38.9840 O.2    50  C50        -0.2443
   1072  N3        -5.0660    1.3990   36.8950 N.ar   50  C50        -0.1739
   1073  C4        -6.1010    1.3400   36.0620 C.ar   50  C50         0.1759
   1074  N4        -5.8540    0.9440   34.8060 N.pl3  50  C50        -0.1070
   1075  C5        -7.4270    1.6710   36.4830 C.ar   50  C50         0.0566
   1076  C6        -7.6070    2.0630   37.7540 C.ar   50  C50         0.0850
   1077  OP1      -12.7890    3.8550   39.1390 O.3    50  C50        -0.4373
   1078  OP2      -11.7180    2.8130   37.0440 O.co2  50  C50        -0.5172
   1079  P         -7.6300    7.1740   39.1140 P.3    51  A51         0.2141
   1080  C5'       -5.1470    7.3910   39.8840 C.3    51  A51         0.1812
   1081  O5'       -6.0690    7.1240   38.8360 O.3    51  A51        -0.3114
   1082  C4'       -3.7320    7.2460   39.3990 C.3    51  A51         0.1773
   1083  O4'       -3.5040    5.8730   38.9790 O.3    51  A51        -0.3307
   1084  C3'       -3.3720    8.0570   38.1670 C.3    51  A51         0.1860
   1085  O3'       -3.1020    9.4160   38.4550 O.3    51  A51        -0.3112
   1086  C2'       -2.1820    7.2940   37.6100 C.3    51  A51         0.2309
   1087  O2'       -1.0150    7.5570   38.3840 O.3    51  A51        -0.2156
   1088  C1'       -2.6100    5.8530   37.8810 C.3    51  A51         0.2408
   1089  N1        -1.9690    3.5470   33.3090 N.ar   51  A51        -0.2040
   1090  C2        -1.0990    4.0750   34.1870 C.ar   51  A51         0.2016
   1091  N3        -1.3430    4.6640   35.3610 N.ar   51  A51        -0.2048
   1092  C4        -2.6610    4.6980   35.6180 C.ar   51  A51         0.1692
   1093  C5        -3.6710    4.2020   34.8100 C.ar   51  A51         0.1518
   1094  C6        -3.2910    3.5950   33.5930 C.ar   51  A51         0.1919
   1095  N6        -4.1550    3.0730   32.7130 N.pl3  51  A51        -0.1054
   1096  N7        -4.9030    4.4090   35.4050 N.ar   51  A51        -0.2193
   1097  C8        -4.6190    5.0190   36.5360 C.ar   51  A51         0.1816
   1098  N9        -3.2800    5.2270   36.7230 N.ar   51  A51        -0.2693
   1099  OP1       -7.8910    8.5020   39.7470 O.3    51  A51        -0.4373
   1100  OP2       -8.3100    6.8160   37.8470 O.co2  51  A51        -0.5172
   1101  P         -3.2930   10.4860   37.3130 P.3    52  A52         0.2141
   1102  C5'       -0.7300   10.4430   36.8820 C.3    52  A52         0.1812
   1103  O5'       -2.0430   10.3000   36.3630 O.3    52  A52        -0.3114
   1104  C4'        0.3140   10.1560   35.8380 C.3    52  A52         0.1773
   1105  O4'        0.3230    8.7430   35.5140 O.3    52  A52        -0.3307
   1106  C3'        0.1450   10.8340   34.4840 C.3    52  A52         0.1860
   1107  O3'        0.5620   12.1870   34.4810 O.3    52  A52        -0.3112
   1108  C2'        1.0260    9.9560   33.6070 C.3    52  A52         0.2309
   1109  O2'        2.4070   10.1210   33.7940 O.3    52  A52        -0.2156
   1110  C1'        0.6870    8.5690   34.1570 C.3    52  A52         0.2408
   1111  N1        -0.8040    5.6180   30.2350 N.ar   52  A52        -0.2040
   1112  C2         0.4020    6.0250   30.6410 C.ar   52  A52         0.2016
   1113  N3         0.7250    6.7980   31.6700 N.ar   52  A52        -0.2048
   1114  C4        -0.3730    7.1560   32.3540 C.ar   52  A52         0.1692
   1115  C5        -1.6770    6.8060   32.0660 C.ar   52  A52         0.1518
   1116  C6        -1.8830    5.9790   30.9560 C.ar   52  A52         0.1919
   1117  N6        -3.0840    5.5780   30.5520 N.pl3  52  A52        -0.1054
   1118  N7        -2.5500    7.3740   32.9820 N.ar   52  A52        -0.2193
   1119  C8        -1.7660    8.0380   33.7930 C.ar   52  A52         0.1816
   1120  N9        -0.4370    7.9550   33.4670 N.ar   52  A52        -0.2693
   1121  OP1       -3.1510   11.7820   37.9720 O.3    52  A52        -0.4373
   1122  OP2       -4.5030   10.2260   36.5600 O.co2  52  A52        -0.5172
   1123  P         -0.0320   13.1610   33.3780 P.3    53  C53         0.2141
   1124  C5'        1.6050   12.6500   31.3760 C.3    53  C53         0.1812
   1125  O5'        0.3240   12.4800   31.9890 O.3    53  C53        -0.3114
   1126  C4'        1.7680   11.7400   30.1770 C.3    53  C53         0.1773
   1127  O4'        1.1410   10.4580   30.4200 O.3    53  C53        -0.3307
   1128  C3'        1.1170   12.1720   28.8750 C.3    53  C53         0.1860
   1129  O3'        1.8520   13.1840   28.2100 O.3    53  C53        -0.3112
   1130  C2'        1.1430   10.8720   28.0850 C.3    53  C53         0.2309
   1131  O2'        2.4330   10.5910   27.6100 O.3    53  C53        -0.2156
   1132  C1'        0.8470    9.8450   29.1770 C.3    53  C53         0.2420
   1133  N1        -0.5500    9.4240   29.1870 N.ar   53  C53        -0.2535
   1134  C2        -0.9590    8.4540   28.2750 C.ar   53  C53         0.3532
   1135  O2        -0.1220    7.9780   27.5020 O.2    53  C53        -0.2443
   1136  N3        -2.2530    8.0680   28.2550 N.ar   53  C53        -0.1739
   1137  C4        -3.1210    8.6080   29.1130 C.ar   53  C53         0.1759
   1138  N4        -4.3850    8.1960   29.0660 N.pl3  53  C53        -0.1070
   1139  C5        -2.7300    9.6060   30.0510 C.ar   53  C53         0.0566
   1140  C6        -1.4450    9.9730   30.0590 C.ar   53  C53         0.0850
   1141  OP1        0.7880   14.3630   33.4990 O.3    53  C53        -0.4373
   1142  OP2       -1.4790   13.2700   33.4500 O.co2  53  C53        -0.5172
   1143  P          1.0430   14.2820   27.3950 P.3    54  G54         0.2141
   1144  C5'        1.3710   12.6770   25.3290 C.3    54  G54         0.1812
   1145  O5'        0.5150   13.5160   26.0960 O.3    54  G54        -0.3114
   1146  C4'        0.6020   11.8740   24.3050 C.3    54  G54         0.1773
   1147  O4'       -0.0890   10.7640   24.9420 O.3    54  G54        -0.3307
   1148  C3'       -0.4980   12.6170   23.5630 C.3    54  G54         0.1860
   1149  O3'        0.0040   13.4280   22.5130 O.3    54  G54        -0.3112
   1150  C2'       -1.4140   11.4850   23.1050 C.3    54  G54         0.2309
   1151  O2'       -0.8950   10.8270   21.9550 O.3    54  G54        -0.2156
   1152  C1'       -1.3220   10.5230   24.2940 C.3    54  G54         0.2408
   1153  N1        -6.0420    9.3290   25.9190 N.ar   54  G54        -0.1709
   1154  C2        -5.3320    8.8220   24.8550 C.ar   54  G54         0.2606
   1155  N2        -5.9640    7.8880   24.1440 N.pl3  54  G54        -0.0859
   1156  N3        -4.1070    9.1850   24.5080 N.ar   54  G54        -0.1918
   1157  C4        -3.6380   10.1460   25.3330 C.ar   54  G54         0.1723
   1158  C5        -4.2660   10.7210   26.4260 C.ar   54  G54         0.1748
   1159  C6        -5.5790   10.3120   26.7890 C.ar   54  G54         0.3023
   1160  O6        -6.2850   10.7160   27.7280 O.2    54  G54        -0.2633
   1161  N7        -3.4460   11.6640   27.0210 N.ar   54  G54        -0.2173
   1162  C8        -2.3620   11.6470   26.3000 C.ar   54  G54         0.1817
   1163  N9        -2.4030   10.7500   25.2680 N.ar   54  G54        -0.2693
   1164  OP1        2.0540   15.2960   27.0000 O.2    54  G54        -0.5172
   1165  OP2       -0.1610   14.6970   28.1640 O.co2  54  G54        -0.4373
   1166  P         -0.8160   14.7180   22.0070 P.3    55  A55         0.2141
   1167  C5'       -0.4030   13.5300   19.7100 C.3    55  A55         0.1812
   1168  O5'       -1.2510   14.3280   20.5260 O.3    55  A55        -0.3114
   1169  C4'       -1.1520   12.9160   18.5530 C.3    55  A55         0.1773
   1170  O4'       -1.9350   11.7820   19.0300 O.3    55  A55        -0.3307
   1171  C3'       -2.1330   13.8420   17.8260 C.3    55  A55         0.1860
   1172  O3'       -2.0990   13.5610   16.4260 O.3    55  A55        -0.3112
   1173  C2'       -3.4810   13.4130   18.3990 C.3    55  A55         0.2309
   1174  O2'       -4.5950   13.6700   17.5720 O.3    55  A55        -0.2156
   1175  C1'       -3.2650   11.9180   18.5830 C.3    55  A55         0.2408
   1176  N1        -6.5670    8.0920   19.4140 N.ar   55  A55        -0.2040
   1177  C2        -5.7710    8.3700   18.3680 C.ar   55  A55         0.2016
   1178  N3        -4.9190    9.3900   18.2160 N.ar   55  A55        -0.2048
   1179  C4        -4.9370   10.1810   19.3070 C.ar   55  A55         0.1692
   1180  C5        -5.6910   10.0150   20.4480 C.ar   55  A55         0.1518
   1181  C6        -6.5460    8.9140   20.4890 C.ar   55  A55         0.1919
   1182  N6        -7.3280    8.6590   21.5370 N.pl3  55  A55        -0.1054
   1183  N7        -5.4500   11.0330   21.3650 N.ar   55  A55        -0.2193
   1184  C8        -4.5550   11.7760   20.7740 C.ar   55  A55         0.1816
   1185  N9        -4.1910   11.3080   19.5370 N.ar   55  A55        -0.2693
   1186  OP1        0.1180   15.8710   21.9490 O.2    55  A55        -0.5172
   1187  OP2       -2.0700   14.8240   22.7950 O.co2  55  A55        -0.4373
   1188  P         -1.1180   14.3890   15.4520 P.3    56  A56         0.2141
   1189  C5'       -3.0380   15.9230   14.4980 C.3    56  A56         0.1812
   1190  O5'       -2.0690   14.9000   14.2770 O.3    56  A56        -0.3114
   1191  C4'       -4.2980   15.6420   13.7240 C.3    56  A56         0.1773
   1192  O4'       -3.9490   15.4510   12.3220 O.3    56  A56        -0.3307
   1193  C3'       -5.0260   14.3700   14.1440 C.3    56  A56         0.1860
   1194  O3'       -6.4080   14.5150   13.8370 O.3    56  A56        -0.3112
   1195  C2'       -4.4450   13.3410   13.1880 C.3    56  A56         0.2309
   1196  O2'       -5.2390   12.1910   13.0130 O.3    56  A56        -0.2156
   1197  C1'       -4.3640   14.1680   11.9090 C.3    56  A56         0.2408
   1198  N1        -3.8810   12.3590    7.1480 N.ar   56  A56        -0.2040
   1199  C2        -4.9440   12.7690    7.8550 C.ar   56  A56         0.2016
   1200  N3        -5.0020   13.2240    9.1020 N.ar   56  A56        -0.2048
   1201  C4        -3.7630   13.2520    9.6420 C.ar   56  A56         0.1692
   1202  C5        -2.5800   12.8770    9.0410 C.ar   56  A56         0.1518
   1203  C6        -2.6540   12.4070    7.7190 C.ar   56  A56         0.1919
   1204  N6        -1.6010   11.9910    7.0040 N.pl3  56  A56        -0.1054
   1205  N7        -1.5170   13.0420    9.9200 N.ar   56  A56        -0.2193
   1206  C8        -2.0650   13.5200   11.0050 C.ar   56  A56         0.1816
   1207  N9        -3.4230   13.6690   10.9070 N.ar   56  A56        -0.2693
   1208  OP1       -0.1540   13.4290   14.8510 O.2    56  A56        -0.5172
   1209  OP2       -0.6510   15.6040   16.1750 O.co2  56  A56        -0.4373
   1210  P         -7.3810   15.3950   14.7450 P.3    57  G57         0.2141
   1211  C5'       -8.0410   17.3200   13.0950 C.3    57  G57         0.1812
   1212  O5'       -7.2220   16.8720   14.1680 O.3    57  G57        -0.3114
   1213  C4'       -7.3180   17.2380   11.7750 C.3    57  G57         0.1773
   1214  O4'       -7.2400   15.8570   11.3310 O.3    57  G57        -0.3307
   1215  C3'       -7.9930   17.9590   10.6210 C.3    57  G57         0.1860
   1216  O3'       -7.7350   19.3580   10.6270 O.3    57  G57        -0.3112
   1217  C2'       -7.4690   17.2150    9.4010 C.3    57  G57         0.2309
   1218  O2'       -6.1380   17.6090    9.0950 O.3    57  G57        -0.2156
   1219  C1'       -7.4140   15.7840    9.9330 C.3    57  G57         0.2408
   1220  N1       -10.2250   13.0100    6.6840 N.ar   57  G57        -0.1709
   1221  C2        -9.0140   13.6290    6.4630 C.ar   57  G57         0.2606
   1222  N2        -8.4790   13.4940    5.2350 N.pl3  57  G57        -0.0859
   1223  N3        -8.3770   14.3380    7.3740 N.ar   57  G57        -0.1918
   1224  C4        -9.0470   14.3730    8.5460 C.ar   57  G57         0.1723
   1225  C5       -10.2550   13.7880    8.8680 C.ar   57  G57         0.1748
   1226  C6       -10.9380   13.0330    7.8870 C.ar   57  G57         0.3023
   1227  O6       -12.0240   12.4360    7.9810 O.2    57  G57        -0.2633
   1228  N7       -10.6040   14.0740   10.1790 N.ar   57  G57        -0.2173
   1229  C8        -9.6190   14.7900   10.6280 C.ar   57  G57         0.1817
   1230  N9        -8.6520   15.0270    9.6860 N.ar   57  G57        -0.2693
   1231  OP1       -6.9230   15.4170   16.1590 O.3    57  G57        -0.4373
   1232  OP2       -8.7340   14.9180   14.3630 O.co2  57  G57        -0.5172
   1233  P         -8.7370   20.3360    9.8600 P.3    58  C58         0.2141
   1234  C5'       -9.7780   19.8040    7.5340 C.3    58  C58         0.1812
   1235  O5'       -8.6720   19.7420    8.4020 O.3    58  C58        -0.3114
   1236  C4'       -9.4690   19.0340    6.2920 C.3    58  C58         0.1773
   1237  O4'       -9.4880   17.6110    6.5820 O.3    58  C58        -0.3307
   1238  C3'      -10.4540   19.1990    5.1550 C.3    58  C58         0.1860
   1239  O3'      -10.1760   20.3690    4.4170 O.3    58  C58        -0.3112
   1240  C2'      -10.2430   17.9250    4.3600 C.3    58  C58         0.2309
   1241  O2'       -9.0530   18.0340    3.5910 O.3    58  C58        -0.2156
   1242  C1'      -10.0020   16.9080    5.4800 C.3    58  C58         0.2420
   1243  N1       -11.2510   16.2440    5.9100 N.ar   58  C58        -0.2535
   1244  C2       -11.8290   15.3200    5.0580 C.ar   58  C58         0.3532
   1245  O2       -11.2660   15.0900    3.9830 O.2    58  C58        -0.2443
   1246  N3       -12.9710   14.6930    5.4330 N.ar   58  C58        -0.1739
   1247  C4       -13.5240   14.9730    6.6160 C.ar   58  C58         0.1759
   1248  N4       -14.6500   14.3350    6.9280 N.pl3  58  C58        -0.1070
   1249  C5       -12.9520   15.9200    7.5160 C.ar   58  C58         0.0566
   1250  C6       -11.8200   16.5180    7.1210 C.ar   58  C58         0.0850
   1251  OP1       -8.0950   21.6750    9.8180 O.2    58  C58        -0.5172
   1252  OP2      -10.1240   20.1800   10.3570 O.co2  58  C58        -0.4373
   1253  P        -11.3540   21.3100    3.8750 P.3    59  G59         0.2141
   1254  C5'      -11.1940   20.1960    1.5300 C.3    59  G59         0.1812
   1255  O5'      -11.9650   20.4690    2.6880 O.3    59  G59        -0.3114
   1256  C4'      -11.9020   19.2410    0.6170 C.3    59  G59         0.1773
   1257  O4'      -12.0210   17.9470    1.2610 O.3    59  G59        -0.3307
   1258  C3'      -13.3310   19.6000    0.2480 C.3    59  G59         0.1860
   1259  O3'      -13.3900   20.5750   -0.7850 O.3    59  G59        -0.3112
   1260  C2'      -13.9210   18.2490   -0.1420 C.3    59  G59         0.2309
   1261  O2'      -13.6130   17.9030   -1.4890 O.3    59  G59        -0.2156
   1262  C1'      -13.1790   17.2920    0.8080 C.3    59  G59         0.2408
   1263  N1       -17.0100   14.4370    2.2120 N.ar   59  G59        -0.1709
   1264  C2       -16.3140   14.4730    1.0390 C.ar   59  G59         0.2606
   1265  N2       -16.7390   13.6300    0.0940 N.pl3  59  G59        -0.0859
   1266  N3       -15.2930   15.2860    0.8100 N.ar   59  G59        -0.1918
   1267  C4       -15.0350   16.0480    1.8820 C.ar   59  G59         0.1723
   1268  C5       -15.6630   16.0950    3.0990 C.ar   59  G59         0.1748
   1269  C6       -16.7560   15.2190    3.3220 C.ar   59  G59         0.3023
   1270  O6       -17.4690   15.0800    4.3200 O.2    59  G59        -0.2633
   1271  N7       -15.0650   17.0510    3.9100 N.ar   59  G59        -0.2173
   1272  C8       -14.1080   17.5620    3.1850 C.ar   59  G59         0.1817
   1273  N9       -14.0380   16.9720    1.9510 N.ar   59  G59        -0.2693
   1274  OP1      -10.6840   22.5110    3.3180 O.2    59  G59        -0.5172
   1275  OP2      -12.4300   21.4580    4.8900 O.co2  59  G59        -0.4373
   1276  P        -14.3050   21.8850   -0.6270 P.3    60  A60         0.2141
   1277  C5'      -16.8330   22.0770    0.0270 C.3    60  A60         0.1812
   1278  O5'      -15.7570   21.2740   -0.4260 O.3    60  A60        -0.3114
   1279  C4'      -18.1140   21.6660   -0.6470 C.3    60  A60         0.1773
   1280  O4'      -18.0050   21.9110   -2.0680 O.3    60  A60        -0.3307
   1281  C3'      -18.4580   20.1870   -0.5580 C.3    60  A60         0.1860
   1282  O3'      -19.0880   19.8640    0.6630 O.3    60  A60        -0.3112
   1283  C2'      -19.3640   19.9890   -1.7590 C.3    60  A60         0.2309
   1284  O2'      -20.6510   20.5210   -1.4630 O.3    60  A60        -0.2156
   1285  C1'      -18.7190   20.9260   -2.7760 C.3    60  A60         0.2408
   1286  N1       -18.4230   17.8720   -6.8740 N.ar   60  A60        -0.2040
   1287  C2       -19.4660   18.2520   -6.1280 C.ar   60  A60         0.2016
   1288  N3       -19.4560   19.0300   -5.0610 N.ar   60  A60        -0.2048
   1289  C4       -18.2040   19.4570   -4.7670 C.ar   60  A60         0.1692
   1290  C5       -17.0400   19.1420   -5.4390 C.ar   60  A60         0.1518
   1291  C6       -17.1830   18.3140   -6.5580 C.ar   60  A60         0.1919
   1292  N6       -16.1530   17.9160   -7.3160 N.pl3  60  A60        -0.1054
   1293  N7       -15.9450   19.7600   -4.8550 N.ar   60  A60        -0.2193
   1294  C8       -16.4600   20.4260   -3.8520 C.ar   60  A60         0.1816
   1295  N9       -17.8170   20.2680   -3.7350 N.ar   60  A60        -0.2693
   1296  OP1      -14.2940   22.6150   -1.9260 O.2    60  A60        -0.5172
   1297  OP2      -13.9880   22.6550    0.5940 O.co2  60  A60        -0.4373
   1298  P        -18.5960   18.6020    1.5170 P.3    61  G61         0.2141
   1299  C5'      -20.5280   17.2000    0.4320 C.3    61  G61         0.1812
   1300  O5'      -19.1410   17.3530    0.7070 O.3    61  G61        -0.3114
   1301  C4'      -20.7450   16.2580   -0.7290 C.3    61  G61         0.1773
   1302  O4'      -20.1050   16.8140   -1.8980 O.3    61  G61        -0.3307
   1303  C3'      -20.1390   14.8690   -0.5790 C.3    61  G61         0.1860
   1304  O3'      -21.0010   14.0080    0.1370 O.3    61  G61        -0.3112
   1305  C2'      -19.8820   14.4440   -2.0280 C.3    61  G61         0.2309
   1306  O2'      -21.0650   13.9430   -2.6290 O.3    61  G61        -0.2156
   1307  C1'      -19.5610   15.7780   -2.6930 C.3    61  G61         0.2408
   1308  N1       -15.4180   15.4820   -5.6690 N.ar   61  G61        -0.1709
   1309  C2       -16.6990   15.0330   -5.8970 C.ar   61  G61         0.2606
   1310  N2       -16.9270   14.4450   -7.0740 N.pl3  61  G61        -0.0859
   1311  N3       -17.7050   15.1650   -5.0440 N.ar   61  G61        -0.1918
   1312  C4       -17.3220   15.7830   -3.9200 C.ar   61  G61         0.1723
   1313  C5       -16.0760   16.2640   -3.5880 C.ar   61  G61         0.1748
   1314  C6       -15.0010   16.1270   -4.5090 C.ar   61  G61         0.3023
   1315  O6       -13.8290   16.5100   -4.3670 O.2    61  G61        -0.2633
   1316  N7       -16.0890   16.8320   -2.3230 N.ar   61  G61        -0.2173
   1317  C8       -17.3250   16.6910   -1.9210 C.ar   61  G61         0.1817
   1318  N9       -18.1170   16.0450   -2.8390 N.ar   61  G61        -0.2693
   1319  OP1      -19.3450   18.6780    2.8010 O.3    61  G61        -0.4373
   1320  OP2      -17.1200   18.5410    1.5220 O.co2  61  G61        -0.5172
   1321  P        -20.4890   12.6180    0.7670 P.3    62  A62         0.2141
   1322  C5'      -21.5010   11.1880   -1.1860 C.3    62  A62         0.1812
   1323  O5'      -20.3590   11.6350   -0.4690 O.3    62  A62        -0.3114
   1324  C4'      -21.1010   10.2360   -2.2830 C.3    62  A62         0.1773
   1325  O4'      -20.4640   10.9760   -3.3560 O.3    62  A62        -0.3307
   1326  C3'      -20.0680    9.1980   -1.8770 C.3    62  A62         0.1860
   1327  O3'      -20.6590    8.0660   -1.2600 O.3    62  A62        -0.3112
   1328  C2'      -19.3440    8.8900   -3.1810 C.3    62  A62         0.2309
   1329  O2'      -20.0800    7.9600   -3.9650 O.3    62  A62        -0.2156
   1330  C1'      -19.3780   10.2480   -3.8800 C.3    62  A62         0.2408
   1331  N1       -14.8880   11.9140   -5.7840 N.ar   62  A62        -0.2040
   1332  C2       -15.8590   11.1610   -6.3220 C.ar   62  A62         0.2016
   1333  N3       -17.0090   10.7600   -5.7750 N.ar   62  A62        -0.2048
   1334  C4       -17.1190   11.2200   -4.5100 C.ar   62  A62         0.1692
   1335  C5       -16.2080   11.9930   -3.8240 C.ar   62  A62         0.1518
   1336  C6       -15.0340   12.3510   -4.5080 C.ar   62  A62         0.1919
   1337  N6       -14.0760   13.1020   -3.9570 N.pl3  62  A62        -0.1054
   1338  N7       -16.6610   12.2790   -2.5370 N.ar   62  A62        -0.2193
   1339  C8       -17.8230   11.6820   -2.4740 C.ar   62  A62         0.1816
   1340  N9       -18.1530   11.0270   -3.6290 N.ar   62  A62        -0.2693
   1341  OP1      -21.6150   12.1640    1.6140 O.3    62  A62        -0.4373
   1342  OP2      -19.1230   12.7750    1.3160 O.co2  62  A62        -0.5172
   1343  P        -19.8030    7.1800   -0.2380 P.3    63  G63         0.2141
   1344  C5'      -17.2190    6.7960   -0.4110 C.3    63  G63         0.1812
   1345  O5'      -18.4710    6.8950   -1.0630 O.3    63  G63        -0.3114
   1346  C4'      -16.2260    7.7800   -0.9770 C.3    63  G63         0.1773
   1347  O4'      -16.7130    9.1370   -0.7940 O.3    63  G63        -0.3307
   1348  C3'      -14.8570    7.7740   -0.3160 C.3    63  G63         0.1860
   1349  O3'      -14.0140    6.7860   -0.8740 O.3    63  G63        -0.3112
   1350  C2'      -14.3600    9.1900   -0.5490 C.3    63  G63         0.2309
   1351  O2'      -13.9020    9.3320   -1.8840 O.3    63  G63        -0.2156
   1352  C1'      -15.6540    9.9830   -0.4090 C.3    63  G63         0.2408
   1353  N1       -14.0680   12.8070    3.5300 N.ar   63  G63        -0.1709
   1354  C2       -13.5090   12.6510    2.2780 C.ar   63  G63         0.2606
   1355  N2       -12.3760   13.3330    2.0300 N.pl3  63  G63        -0.0859
   1356  N3       -14.0140   11.8840    1.3290 N.ar   63  G63        -0.1918
   1357  C4       -15.1440   11.2670    1.7310 C.ar   63  G63         0.1723
   1358  C5       -15.7830   11.3430    2.9450 C.ar   63  G63         0.1748
   1359  C6       -15.2340   12.1660    3.9580 C.ar   63  G63         0.3023
   1360  O6       -15.6760   12.3670    5.0960 O.2    63  G63        -0.2633
   1361  N7       -16.9220   10.5500    2.9480 N.ar   63  G63        -0.2173
   1362  C8       -16.9520   10.0150    1.7640 C.ar   63  G63         0.1817
   1363  N9       -15.9000   10.4020    0.9790 N.ar   63  G63        -0.2693
   1364  OP1      -20.5330    5.8880   -0.0920 O.2    63  G63        -0.5172
   1365  OP2      -19.5210    7.9580    0.9850 O.co2  63  G63        -0.4373
   1366  P        -12.9290    6.0440    0.0390 P.3    64  C64         0.2141
   1367  C5'      -11.2650    7.8130   -0.9380 C.3    64  C64         0.1812
   1368  O5'      -11.7740    7.1230    0.1940 O.3    64  C64        -0.3114
   1369  C4'      -10.2420    8.8270   -0.5160 C.3    64  C64         0.1773
   1370  O4'      -10.9110    9.9510    0.1040 O.3    64  C64        -0.3307
   1371  C3'       -9.2770    8.3400    0.5530 C.3    64  C64         0.1860
   1372  O3'       -8.2280    7.5430    0.0230 O.3    64  C64        -0.3112
   1373  C2'       -8.8360    9.6380    1.2160 C.3    64  C64         0.2309
   1374  O2'       -7.8790   10.3160    0.4160 O.3    64  C64        -0.2156
   1375  C1'      -10.1310   10.4500    1.1700 C.3    64  C64         0.2420
   1376  N1       -10.9210   10.3630    2.4220 N.ar   64  C64        -0.2535
   1377  C2       -10.6060   11.2630    3.4320 C.ar   64  C64         0.3532
   1378  O2        -9.6870   12.0700    3.2480 O.2    64  C64        -0.2443
   1379  N3       -11.2920   11.2480    4.5960 N.ar   64  C64        -0.1739
   1380  C4       -12.2780   10.3730    4.7670 C.ar   64  C64         0.1759
   1381  N4       -12.9160   10.4330    5.9440 N.pl3  64  C64        -0.1070
   1382  C5       -12.6390    9.4310    3.7540 C.ar   64  C64         0.0566
   1383  C6       -11.9380    9.4630    2.6030 C.ar   64  C64         0.0850
   1384  OP1      -12.4260    4.8900   -0.7570 O.2    64  C64        -0.5172
   1385  OP2      -13.5070    5.8340    1.3860 O.co2  64  C64        -0.4373
   1386  P         -7.3860    6.5520    0.9650 P.3    65  G65         0.2141
   1387  C5'       -6.3120    7.3740    3.1940 C.3    65  G65         0.1812
   1388  O5'       -6.5150    7.5630    1.8100 O.3    65  G65        -0.3114
   1389  C4'       -5.9680    8.6840    3.8410 C.3    65  G65         0.1773
   1390  O4'       -7.1740    9.4720    4.0220 O.3    65  G65        -0.3307
   1391  C3'       -5.3610    8.6030    5.2330 C.3    65  G65         0.1860
   1392  O3'       -3.9680    8.3310    5.1940 O.3    65  G65        -0.3112
   1393  C2'       -5.6980    9.9640    5.8150 C.3    65  G65         0.2309
   1394  O2'       -4.8230   10.9570    5.2860 O.3    65  G65        -0.2156
   1395  C1'       -7.0860   10.2070    5.2220 C.3    65  G65         0.2408
   1396  N1        -9.3810   10.7020    9.7590 N.ar   65  G65        -0.1709
   1397  C2        -8.2430   11.3330    9.2910 C.ar   65  G65         0.2606
   1398  N2        -7.6470   12.1870   10.1330 N.pl3  65  G65        -0.0859
   1399  N3        -7.7330   11.1220    8.0890 N.ar   65  G65        -0.1918
   1400  C4        -8.4560   10.2350    7.3810 C.ar   65  G65         0.1723
   1401  C5        -9.5950    9.5520    7.7670 C.ar   65  G65         0.1748
   1402  C6       -10.1420    9.7820    9.0530 C.ar   65  G65         0.3023
   1403  O6       -11.1590    9.2630    9.5420 O.2    65  G65        -0.2633
   1404  N7       -10.0370    8.7160    6.7660 N.ar   65  G65        -0.2173
   1405  C8        -9.1690    8.8760    5.7950 C.ar   65  G65         0.1817
   1406  N9        -8.1790    9.7690    6.1110 N.ar   65  G65        -0.2693
   1407  OP1       -6.4690    5.7800    0.0890 O.2    65  G65        -0.5172
   1408  OP2       -8.2800    5.7950    1.8730 O.co2  65  G65        -0.4373
   1409  P         -3.3640    7.0800    5.9990 P.3    66  C66         0.2141
   1410  C5'       -2.6430    8.6690    7.9340 C.3    66  C66         0.1812
   1411  O5'       -3.4160    7.5650    7.5060 O.3    66  C66        -0.3114
   1412  C4'       -3.1420    9.2190    9.2410 C.3    66  C66         0.1773
   1413  O4'       -4.5050    9.7080    9.0970 O.3    66  C66        -0.3307
   1414  C3'       -3.2280    8.2230   10.3880 C.3    66  C66         0.1860
   1415  O3'       -1.9780    8.0120   11.0190 O.3    66  C66        -0.3112
   1416  C2'       -4.2510    8.8710   11.3050 C.3    66  C66         0.2309
   1417  O2'       -3.6570    9.9540   11.9910 O.3    66  C66        -0.2156
   1418  C1'       -5.2260    9.4610   10.2930 C.3    66  C66         0.2420
   1419  N1        -6.3550    8.5520    9.9940 N.ar   66  C66        -0.2535
   1420  C2        -7.4330    8.5100   10.8840 C.ar   66  C66         0.3532
   1421  O2        -7.3930    9.2090   11.9040 O.2    66  C66        -0.2443
   1422  N3        -8.4870    7.7170   10.6010 N.ar   66  C66        -0.1739
   1423  C4        -8.5020    6.9790    9.4960 C.ar   66  C66         0.1759
   1424  N4        -9.5690    6.2130    9.2770 N.pl3  66  C66        -0.1070
   1425  C5        -7.4150    6.9880    8.5680 C.ar   66  C66         0.0566
   1426  C6        -6.3760    7.7870    8.8630 C.ar   66  C66         0.0850
   1427  OP1       -1.9340    6.9350    5.6050 O.2    66  C66        -0.5172
   1428  OP2       -4.2770    5.9300    5.8170 O.co2  66  C66        -0.4373
   1429  P         -1.6480    6.5840   11.6930 P.3    67  G67         0.2141
   1430  C5'       -2.6480    7.4880   13.9550 C.3    67  G67         0.1812
   1431  O5'       -2.6580    6.5080   12.9230 O.3    67  G67        -0.3114
   1432  C4'       -3.4520    7.0200   15.1520 C.3    67  G67         0.1773
   1433  O4'       -4.8540    6.9120   14.7650 O.3    67  G67        -0.3307
   1434  C3'       -3.0580    5.6420   15.6910 C.3    67  G67         0.1860
   1435  O3'       -3.3400    5.5930   17.0950 O.3    67  G67        -0.3112
   1436  C2'       -4.0180    4.7200   14.9530 C.3    67  G67         0.2309
   1437  O2'       -4.2480    3.4610   15.5610 O.3    67  G67        -0.2156
   1438  C1'       -5.2860    5.5690   14.9100 C.3    67  G67         0.2408
   1439  N1        -9.8620    3.8460   13.4440 N.ar   67  G67        -0.1709
   1440  C2        -9.3920    4.0810   14.7120 C.ar   67  G67         0.2606
   1441  N2       -10.2430    3.8170   15.7190 N.pl3  67  G67        -0.0859
   1442  N3        -8.1880    4.5430   14.9850 N.ar   67  G67        -0.1918
   1443  C4        -7.4600    4.7430   13.8630 C.ar   67  G67         0.1723
   1444  C5        -7.8420    4.5440   12.5560 C.ar   67  G67         0.1748
   1445  C6        -9.1400    4.0640   12.2740 C.ar   67  G67         0.3023
   1446  O6        -9.6410    3.8170   11.1700 O.2    67  G67        -0.2633
   1447  N7        -6.8160    4.8580   11.6870 N.ar   67  G67        -0.2173
   1448  C8        -5.8440    5.2660   12.4630 C.ar   67  G67         0.1817
   1449  N9        -6.1710    5.2260   13.7980 N.ar   67  G67        -0.2693
   1450  OP1       -0.2540    6.7400   12.1900 O.3    67  G67        -0.4373
   1451  OP2       -2.0120    5.4670   10.8100 O.co2  67  G67        -0.5172
   1452  P         -2.1820    5.8530   18.1790 P.3    68  G68         0.2141
   1453  C5'       -1.7570    3.2680   18.1220 C.3    68  G68         0.1812
   1454  O5'       -1.2420    4.5860   18.0250 O.3    68  G68        -0.3114
   1455  C4'       -0.8400    2.2930   17.4310 C.3    68  G68         0.1773
   1456  O4'        0.4340    2.2480   18.0900 O.3    68  G68        -0.3307
   1457  C3'       -1.2930    0.8430   17.3780 C.3    68  G68         0.1860
   1458  O3'       -2.1290    0.6650   16.2520 O.3    68  G68        -0.3112
   1459  C2'        0.0170    0.0470   17.2750 C.3    68  G68         0.2309
   1460  O2'        0.2880   -0.3090   15.9260 O.3    68  G68        -0.2156
   1461  C1'        1.0790    1.0540   17.7580 C.3    68  G68         0.2408
   1462  N1         5.3460   -1.2990   18.9500 N.ar   68  G68        -0.1709
   1463  C2         4.7960   -1.0130   17.7180 C.ar   68  G68         0.2606
   1464  N2         5.4840   -1.4110   16.6360 N.pl3  68  G68        -0.0859
   1465  N3         3.6460   -0.3790   17.5590 N.ar   68  G68        -0.1918
   1466  C4         3.0880   -0.0500   18.7450 C.ar   68  G68         0.1723
   1467  C5         3.5480   -0.2850   20.0230 C.ar   68  G68         0.1748
   1468  C6         4.7850   -0.9690   20.1850 C.ar   68  G68         0.3023
   1469  O6         5.3680   -1.2790   21.2350 O.2    68  G68        -0.2633
   1470  N7         2.6550    0.2260   20.9560 N.ar   68  G68        -0.2173
   1471  C8         1.6880    0.7500   20.2450 C.ar   68  G68         0.1817
   1472  N9         1.8940    0.6030   18.8950 N.ar   68  G68        -0.2693
   1473  OP1       -2.8380    5.8430   19.5120 O.3    68  G68        -0.4373
   1474  OP2       -1.4020    7.0640   17.8330 O.co2  68  G68        -0.5172
   1475  P         -3.0850   -0.5980   16.0700 P.3    69  U69         0.2141
   1476  C5'       -4.8700    0.3530   17.7740 C.3    69  U69         0.1812
   1477  O5'       -4.5230   -0.0230   16.4510 O.3    69  U69        -0.3114
   1478  C4'       -6.3690    0.4560   17.8950 C.3    69  U69         0.1773
   1479  O4'       -6.8340    1.4830   16.9870 O.3    69  U69        -0.3307
   1480  C3'       -7.1350   -0.7880   17.4780 C.3    69  U69         0.1860
   1481  O3'       -7.2450   -1.7180   18.5430 O.3    69  U69        -0.3112
   1482  C2'       -8.4750   -0.2320   17.0010 C.3    69  U69         0.2309
   1483  O2'       -9.3430    0.0300   18.0970 O.3    69  U69        -0.2156
   1484  C1'       -8.0560    1.1060   16.4000 C.3    69  U69         0.2420
   1485  N1        -7.8750    1.0490   14.9300 N.ar   69  U69        -0.2534
   1486  C2        -8.9790    0.8010   14.1410 C.ar   69  U69         0.3546
   1487  O2       -10.0930    0.6060   14.5950 O.2    69  U69        -0.2443
   1488  N3        -8.7440    0.7800   12.7870 N.ar   69  U69        -0.1530
   1489  C4        -7.5370    0.9920   12.1600 C.ar   69  U69         0.2846
   1490  O4        -7.4910    0.9360   10.9290 O.2    69  U69        -0.2650
   1491  C5        -6.4360    1.2580   13.0440 C.ar   69  U69         0.0814
   1492  C6        -6.6420    1.2800   14.3700 C.ar   69  U69         0.0870
   1493  OP1       -2.7170   -1.7080   16.9930 O.3    69  U69        -0.4373
   1494  OP2       -3.1760   -0.8240   14.6080 O.co2  69  U69        -0.5172
   1495  P         -7.2320   -3.2960   18.2640 P.3    70  G70         0.2141
   1496  C5'       -9.6960   -3.5090   19.1420 C.3    70  G70         0.1812
   1497  O5'       -8.7670   -3.6730   18.0790 O.3    70  G70        -0.3114
   1498  C4'      -11.0630   -3.9740   18.7270 C.3    70  G70         0.1773
   1499  O4'      -11.6200   -3.0590   17.7500 O.3    70  G70        -0.3307
   1500  C3'      -11.0970   -5.3200   18.0240 C.3    70  G70         0.1860
   1501  O3'      -11.0560   -6.4000   18.9350 O.3    70  G70        -0.3112
   1502  C2'      -12.3850   -5.2360   17.2260 C.3    70  G70         0.2309
   1503  O2'      -13.4910   -5.3680   18.1020 O.3    70  G70        -0.2156
   1504  C1'      -12.3500   -3.7790   16.7810 C.3    70  G70         0.2408
   1505  N1       -12.8540   -3.8780   11.7080 N.ar   70  G70        -0.1709
   1506  C2       -13.7650   -4.2160   12.6850 C.ar   70  G70         0.2606
   1507  N2       -14.9710   -4.6170   12.2630 N.pl3  70  G70        -0.0859
   1508  N3       -13.5270   -4.1570   13.9870 N.ar   70  G70        -0.1918
   1509  C4       -12.2670   -3.7340   14.2350 C.ar   70  G70         0.1723
   1510  C5       -11.2850   -3.3820   13.3350 C.ar   70  G70         0.1748
   1511  C6       -11.5550   -3.4370   11.9440 C.ar   70  G70         0.3023
   1512  O6       -10.7890   -3.1580   11.0060 O.2    70  G70        -0.2633
   1513  N7       -10.1310   -3.0030   13.9910 N.ar   70  G70        -0.2173
   1514  C8       -10.4230   -3.1250   15.2570 C.ar   70  G70         0.1817
   1515  N9       -11.6990   -3.5790   15.4720 N.ar   70  G70        -0.2693
   1516  OP1       -6.7780   -3.8810   19.5430 O.3    70  G70        -0.4373
   1517  OP2       -6.5490   -3.5890   16.9760 O.co2  70  G70        -0.5172
   1518  P        -10.5150   -7.8350   18.4590 P.3    71  A71         0.2141
   1519  C5'      -12.9500   -8.5600   17.8060 C.3    71  A71         0.1812
   1520  O5'      -11.6060   -8.3270   17.4120 O.3    71  A71        -0.3114
   1521  C4'      -13.8370   -8.8180   16.6130 C.3    71  A71         0.1773
   1522  O4'      -13.8510   -7.6560   15.7470 O.3    71  A71        -0.3307
   1523  C3'      -13.4020   -9.9520   15.7000 C.3    71  A71         0.1860
   1524  O3'      -13.7880  -11.2220   16.1970 O.3    71  A71        -0.3112
   1525  C2'      -14.0550   -9.5830   14.3770 C.3    71  A71         0.2309
   1526  O2'      -15.4380   -9.9050   14.4010 O.3    71  A71        -0.2156
   1527  C1'      -13.9250   -8.0590   14.3970 C.3    71  A71         0.2408
   1528  N1       -11.8720   -6.6500    9.9070 N.ar   71  A71        -0.2040
   1529  C2       -13.0980   -7.0760   10.2470 C.ar   71  A71         0.2016
   1530  N3       -13.5660   -7.4350   11.4420 N.ar   71  A71        -0.2048
   1531  C4       -12.6010   -7.3120   12.3700 C.ar   71  A71         0.1692
   1532  C5       -11.2990   -6.8860   12.1760 C.ar   71  A71         0.1518
   1533  C6       -10.9260   -6.5340   10.8650 C.ar   71  A71         0.1919
   1534  N6        -9.7060   -6.1000   10.5240 N.pl3  71  A71        -0.1054
   1535  N7       -10.5990   -6.8920   13.3740 N.ar   71  A71        -0.2193
   1536  C8       -11.4840   -7.3150   14.2470 C.ar   71  A71         0.1816
   1537  N9       -12.7130   -7.5870   13.7060 N.ar   71  A71        -0.2693
   1538  OP1      -10.5690   -8.6910   19.6740 O.3    71  A71        -0.4373
   1539  OP2       -9.2360   -7.6920   17.7280 O.co2  71  A71        -0.5172
   1540  P        -13.0520  -12.5610   15.6950 P.3    72  A72         0.2141
   1541  C5'      -14.8410  -12.8860   13.8160 C.3    72  A72         0.1812
   1542  O5'      -13.4840  -12.7000   14.1740 O.3    72  A72        -0.3114
   1543  C4'      -14.9910  -12.9770   12.3210 C.3    72  A72         0.1773
   1544  O4'      -14.7230  -11.6820   11.7230 O.3    72  A72        -0.3307
   1545  C3'      -14.0210  -13.9180   11.6250 C.3    72  A72         0.1860
   1546  O3'      -14.4450  -15.2730   11.6870 O.3    72  A72        -0.3112
   1547  C2'      -13.9580  -13.3480   10.2130 C.3    72  A72         0.2309
   1548  O2'      -15.0950  -13.7480    9.4640 O.3    72  A72        -0.2156
   1549  C1'      -14.0650  -11.8450   10.4870 C.3    72  A72         0.2408
   1550  N1       -10.3290   -9.2910    8.0020 N.ar   72  A72        -0.2040
   1551  C2       -11.5130   -9.7750    7.5990 C.ar   72  A72         0.2016
   1552  N3       -12.4420  -10.4300    8.2910 N.ar   72  A72        -0.2048
   1553  C4       -12.0510  -10.5800    9.5670 C.ar   72  A72         0.1692
   1554  C5       -10.8650  -10.1360   10.1330 C.ar   72  A72         0.1518
   1555  C6        -9.9620   -9.4590    9.2940 C.ar   72  A72         0.1919
   1556  N6        -8.7820   -8.9790    9.7070 N.pl3  72  A72        -0.1054
   1557  N7       -10.8120  -10.4770   11.4790 N.ar   72  A72        -0.2193
   1558  C8       -11.9450  -11.0990   11.6920 C.ar   72  A72         0.1816
   1559  N9       -12.7420  -11.2010   10.5810 N.ar   72  A72        -0.2693
   1560  OP1      -13.6750  -13.6640   16.4690 O.3    72  A72        -0.4373
   1561  OP2      -11.5770  -12.3800   15.6820 O.co2  72  A72        -0.5172
   1562  P        -13.3820  -16.4800   11.6300 P.3    73  U73         0.2141
   1563  C5'      -13.7320  -16.7660    9.0620 C.3    73  U73         0.1812
   1564  O5'      -12.8560  -16.4550   10.1310 O.3    73  U73        -0.3114
   1565  C4'      -13.1020  -16.4720    7.7270 C.3    73  U73         0.1773
   1566  O4'      -12.9340  -15.0370    7.5640 O.3    73  U73        -0.3307
   1567  C3'      -11.7000  -17.0200    7.5140 C.3    73  U73         0.1860
   1568  O3'      -11.6570  -18.4070    7.2250 O.3    73  U73        -0.3112
   1569  C2'      -11.1810  -16.1300    6.3960 C.3    73  U73         0.2309
   1570  O2'      -11.7580  -16.4990    5.1520 O.3    73  U73        -0.2156
   1571  C1'      -11.7590  -14.7780    6.8180 C.3    73  U73         0.2420
   1572  N1       -10.8010  -14.0430    7.6740 N.ar   73  U73        -0.2534
   1573  C2        -9.7210  -13.4710    7.0330 C.ar   73  U73         0.3546
   1574  O2        -9.5760  -13.5490    5.8290 O.2    73  U73        -0.2443
   1575  N3        -8.8270  -12.8080    7.8400 N.ar   73  U73        -0.1530
   1576  C4        -8.9120  -12.6770    9.2120 C.ar   73  U73         0.2846
   1577  O4        -8.0360  -12.0530    9.8130 O.2    73  U73        -0.2650
   1578  C5       -10.0560  -13.3040    9.8090 C.ar   73  U73         0.0814
   1579  C6       -10.9390  -13.9540    9.0410 C.ar   73  U73         0.0870
   1580  OP1      -14.1520  -17.7380   11.8100 O.2    73  U73        -0.5172
   1581  OP2      -12.2210  -16.1810   12.5020 O.co2  73  U73        -0.4373
   1582  P        -10.3740  -19.2730    7.6640 P.3    74  C74         0.2141
   1583  C5'       -9.3850  -18.5220    5.3520 C.3    74  C74         0.1812
   1584  O5'       -9.2000  -18.6980    6.7500 O.3    74  C74        -0.3114
   1585  C4'       -8.1830  -17.8870    4.6910 C.3    74  C74         0.1773
   1586  O4'       -8.0980  -16.4780    5.0310 O.3    74  C74        -0.3307
   1587  C3'       -6.8150  -18.4350    5.0700 C.3    74  C74         0.1860
   1588  O3'       -6.5020  -19.6500    4.4090 O.3    74  C74        -0.3112
   1589  C2'       -5.8870  -17.2890    4.6830 C.3    74  C74         0.2309
   1590  O2'       -5.6570  -17.2980    3.2820 O.3    74  C74        -0.2156
   1591  C1'       -6.7450  -16.0660    5.0280 C.3    74  C74         0.2420
   1592  N1        -6.4050  -15.5000    6.3560 N.ar   74  C74        -0.2535
   1593  C2        -5.3600  -14.5730    6.4480 C.ar   74  C74         0.3532
   1594  O2        -4.7530  -14.2440    5.4170 O.2    74  C74        -0.2443
   1595  N3        -5.0380  -14.0490    7.6570 N.ar   74  C74        -0.1739
   1596  C4        -5.7130  -14.4300    8.7490 C.ar   74  C74         0.1759
   1597  N4        -5.3600  -13.8880    9.9220 N.pl3  74  C74        -0.1070
   1598  C5        -6.7830  -15.3740    8.6850 C.ar   74  C74         0.0566
   1599  C6        -7.0900  -15.8770    7.4800 C.ar   74  C74         0.0850
   1600  OP1      -10.6160  -20.6960    7.3050 O.2    74  C74        -0.5172
   1601  OP2      -10.0600  -18.9510    9.0780 O.co2  74  C74        -0.4373
   1602  P         -5.5150  -20.7290    5.0870 P.3    75  A75         0.2141
   1603  C5'       -3.4770  -19.8540    3.6880 C.3    75  A75         0.1812
   1604  O5'       -4.0630  -20.0800    4.9600 O.3    75  A75        -0.3114
   1605  C4'       -2.2350  -19.0030    3.7800 C.3    75  A75         0.1773
   1606  O4'       -2.5820  -17.6580    4.2030 O.3    75  A75        -0.3307
   1607  C3'       -1.1910  -19.4450    4.7900 C.3    75  A75         0.1860
   1608  O3'       -0.3770  -20.5030    4.3170 O.3    75  A75        -0.3112
   1609  C2'       -0.4270  -18.1570    5.0530 C.3    75  A75         0.2309
   1610  O2'        0.4450  -17.8740    3.9670 O.3    75  A75        -0.2156
   1611  C1'       -1.5620  -17.1340    5.0290 C.3    75  A75         0.2408
   1612  N1        -1.2240  -14.6750    9.6090 N.ar   75  A75        -0.2040
   1613  C2        -0.4320  -14.6510    8.5270 C.ar   75  A75         0.2016
   1614  N3        -0.5600  -15.3070    7.3700 N.ar   75  A75        -0.2048
   1615  C4        -1.6660  -16.0780    7.3710 C.ar   75  A75         0.1692
   1616  C5        -2.5720  -16.2010    8.4090 C.ar   75  A75         0.1518
   1617  C6        -2.3250  -15.4580    9.5760 C.ar   75  A75         0.1919
   1618  N6        -3.1280  -15.5050   10.6390 N.pl3  75  A75        -0.1054
   1619  N7        -3.5970  -17.0690    8.0760 N.ar   75  A75        -0.2193
   1620  C8        -3.2940  -17.4550    6.8590 C.ar   75  A75         0.1816
   1621  N9        -2.1390  -16.8960    6.3680 N.ar   75  A75        -0.2693
   1622  OP1       -5.5370  -21.9520    4.2390 O.2    75  A75        -0.5172
   1623  OP2       -5.8580  -20.8420    6.5290 O.co2  75  A75        -0.4373
   1624  P          0.1550  -21.6250    5.3370 P.3    76  U76         0.2141
   1625  C5'        2.4840  -20.3970    5.5060 C.3    76  U76         0.1812
   1626  O5'        1.3200  -20.8920    6.1560 O.3    76  U76        -0.3114
   1627  C4'        3.2660  -19.4390    6.3760 C.3    76  U76         0.1773
   1628  O4'        2.4630  -18.2660    6.6690 O.3    76  U76        -0.3307
   1629  C3'        3.6770  -19.9380    7.7540 C.3    76  U76         0.1860
   1630  O3'        4.8000  -20.7980    7.7510 O.3    76  U76        -0.3112
   1631  C2'        3.9130  -18.6410    8.5110 C.3    76  U76         0.2309
   1632  O2'        5.1460  -18.0540    8.1290 O.3    76  U76        -0.2156
   1633  C1'        2.7840  -17.7760    7.9620 C.3    76  U76         0.2420
   1634  N1         1.5840  -17.8610    8.8250 N.ar   76  U76        -0.2534
   1635  C2         1.6040  -17.1730   10.0280 C.ar   76  U76         0.3546
   1636  O2         2.5540  -16.5000   10.3960 O.2    76  U76        -0.2443
   1637  N3         0.4620  -17.3030   10.7830 N.ar   76  U76        -0.1530
   1638  C4        -0.6620  -18.0350   10.4540 C.ar   76  U76         0.2846
   1639  O4        -1.6210  -18.0680   11.2230 O.2    76  U76        -0.2650
   1640  C5        -0.5990  -18.7200    9.1960 C.ar   76  U76         0.0814
   1641  C6         0.4990  -18.6090    8.4490 C.ar   76  U76         0.0870
   1642  OP1        0.7350  -22.7360    4.5400 O.2    76  U76        -0.5172
   1643  OP2       -0.9730  -21.9430    6.2460 O.co2  76  U76        -0.4373
   1644  P          4.8430  -22.0390    8.7740 P.3    77  U77         0.2141
   1645  C5'        5.9830  -20.5890   10.6280 C.3    77  U77         0.1812
   1646  O5'        4.8750  -21.3680   10.2150 O.3    77  U77        -0.3114
   1647  C4'        5.7240  -19.9360   11.9580 C.3    77  U77         0.1773
   1648  O4'        4.6040  -19.0130   11.8540 O.3    77  U77        -0.3307
   1649  C3'        5.3040  -20.8590   13.0870 C.3    77  U77         0.1860
   1650  O3'        6.3710  -21.6100   13.6360 O.3    77  U77        -0.3112
   1651  C2'        4.6640  -19.8800   14.0600 C.3    77  U77         0.2309
   1652  O2'        5.6730  -19.1040   14.6820 O.3    77  U77        -0.2156
   1653  C1'        3.9080  -18.9740   13.0870 C.3    77  U77         0.2420
   1654  N1         2.5240  -19.4550   12.8730 N.ar   77  U77        -0.2534
   1655  C2         1.6290  -19.1450   13.8710 C.ar   77  U77         0.3546
   1656  O2         1.9690  -18.5060   14.8400 O.2    77  U77        -0.2443
   1657  N3         0.3480  -19.5950   13.6900 N.ar   77  U77        -0.1530
   1658  C4        -0.1290  -20.3270   12.6280 C.ar   77  U77         0.2846
   1659  O4        -1.3200  -20.6650   12.6210 O.2    77  U77        -0.2650
   1660  C5         0.8580  -20.6210   11.6280 C.ar   77  U77         0.0814
   1661  C6         2.1200  -20.1830   11.7810 C.ar   77  U77         0.0870
   1662  OP1        6.1470  -22.7340    8.5940 O.2    77  U77        -0.5172
   1663  OP2        3.5460  -22.7510    8.6480 O.co2  77  U77        -0.4373
   1664  P          6.0910  -23.0880   14.2020 P.3    78  G78         0.2141
   1665  C5'        5.8140  -22.0440   16.5900 C.3    78  G78         0.1812
   1666  O5'        5.2740  -22.8370   15.5440 O.3    78  G78        -0.3114
   1667  C4'        4.7850  -21.7910   17.6630 C.3    78  G78         0.1773
   1668  O4'        3.7000  -20.9910   17.1220 O.3    78  G78        -0.3307
   1669  C3'        4.0860  -23.0210   18.2340 C.3    78  G78         0.1860
   1670  O3'        4.8630  -23.6810   19.2200 O.3    78  G78        -0.3112
   1671  C2'        2.7890  -22.4390   18.7770 C.3    78  G78         0.2309
   1672  O2'        3.0280  -21.8130   20.0300 O.3    78  G78        -0.2156
   1673  C1'        2.4840  -21.3480   17.7360 C.3    78  G78         0.2408
   1674  N1        -2.3810  -22.1460   16.6960 N.ar   78  G78        -0.1709
   1675  C2        -1.7840  -21.6320   17.8190 C.ar   78  G78         0.2606
   1676  N2        -2.6050  -21.2910   18.8250 N.pl3  78  G78        -0.0859
   1677  N3        -0.4770  -21.4730   17.9560 N.ar   78  G78        -0.1918
   1678  C4         0.1930  -21.8790   16.8550 C.ar   78  G78         0.1723
   1679  C5        -0.3000  -22.4010   15.6820 C.ar   78  G78         0.1748
   1680  C6        -1.7040  -22.5610   15.5470 C.ar   78  G78         0.3023
   1681  O6        -2.3470  -23.0120   14.5880 O.2    78  G78        -0.2633
   1682  N7         0.7380  -22.6810   14.8060 N.ar   78  G78        -0.2173
   1683  C8         1.8190  -22.3260   15.4500 C.ar   78  G78         0.1817
   1684  N9         1.5500  -21.8240   16.7000 N.ar   78  G78        -0.2693
   1685  OP1        7.3980  -23.6760   14.5760 O.3    78  G78        -0.4373
   1686  OP2        5.1550  -23.7820   13.2830 O.co2  78  G78        -0.5172
   1687  P          4.7110  -25.2650   19.4710 P.3    79  C79         0.2141
   1688  C5'        3.5520  -24.8190   21.7870 C.3    79  C79         0.1812
   1689  O5'        4.6320  -25.3820   21.0550 O.3    79  C79        -0.3114
   1690  C4'        3.8970  -24.7790   23.2500 C.3    79  C79         0.1773
   1691  O4'        2.7490  -24.2970   24.0100 O.3    79  C79        -0.3307
   1692  C3'        4.2700  -26.1440   23.8500 C.3    79  C79         0.1860
   1693  O3'        5.3830  -26.0080   24.7380 O.3    79  C79        -0.3112
   1694  C2'        3.0170  -26.5180   24.6300 C.3    79  C79         0.2309
   1695  O2'        3.2110  -27.4180   25.6970 O.3    79  C79        -0.2156
   1696  C1'        2.5620  -25.1480   25.1160 C.3    79  C79         0.2420
   1697  N1         1.1860  -25.1190   25.6280 N.ar   79  C79        -0.2535
   1698  C2         0.9040  -24.3290   26.7560 C.ar   79  C79         0.3532
   1699  O2         1.7890  -23.5960   27.2080 O.2    79  C79        -0.2443
   1700  N3        -0.3390  -24.3580   27.2930 N.ar   79  C79        -0.1739
   1701  C4        -1.2680  -25.1530   26.7660 C.ar   79  C79         0.1759
   1702  N4        -2.4800  -25.1570   27.3210 N.pl3  79  C79        -0.1070
   1703  C5        -1.0020  -25.9840   25.6370 C.ar   79  C79         0.0566
   1704  C6         0.2340  -25.9470   25.1250 C.ar   79  C79         0.0850
   1705  OP1        5.9940  -25.8940   19.0880 O.3    79  C79        -0.4373
   1706  OP2        3.4200  -25.7710   18.9480 O.co2  79  C79        -0.5172
   1707  P          6.6560  -26.9900   24.5830 P.3    80  A80         0.2141
   1708  C5'        8.2980  -26.0500   26.4360 C.3    80  A80         0.1812
   1709  O5'        7.3110  -26.9930   26.0380 O.3    80  A80        -0.3114
   1710  C4'        8.3250  -25.9090   27.9400 C.3    80  A80         0.1773
   1711  O4'        7.2460  -25.0330   28.3620 O.3    80  A80        -0.3307
   1712  C3'        8.0920  -27.1980   28.7230 C.3    80  A80         0.1860
   1713  O3'        9.2800  -27.9570   28.8850 O.3    80  A80        -0.3112
   1714  C2'        7.4830  -26.7040   30.0300 C.3    80  A80         0.2309
   1715  O2'        8.4870  -26.2050   30.8950 O.3    80  A80        -0.2156
   1716  C1'        6.6520  -25.5180   29.5450 C.3    80  A80         0.2408
   1717  N1         1.9130  -26.5050   31.3090 N.ar   80  A80        -0.2040
   1718  C2         3.0520  -26.1760   31.9240 C.ar   80  A80         0.2016
   1719  N3         4.2580  -25.9410   31.4220 N.ar   80  A80        -0.2048
   1720  C4         4.2280  -26.0640   30.0880 C.ar   80  A80         0.1692
   1721  C5         3.1360  -26.3990   29.3050 C.ar   80  A80         0.1518
   1722  C6         1.9130  -26.6240   29.9610 C.ar   80  A80         0.1919
   1723  N6         0.7720  -26.9580   29.3390 N.pl3  80  A80        -0.1054
   1724  N7         3.4910  -26.4330   27.9570 N.ar   80  A80        -0.2193
   1725  C8         4.7630  -26.1170   27.9670 C.ar   80  A80         0.1816
   1726  N9         5.2690  -25.8970   29.2210 N.ar   80  A80        -0.2693
   1727  OP1        7.6230  -26.3860   23.6330 O.2    80  A80        -0.5172
   1728  OP2        6.1420  -28.3630   24.3270 O.co2  80  A80        -0.4373
   1729  P          9.2260  -29.5620   28.9490 P.3    81  U81         0.2141
   1730  C5'        9.3890  -29.6050   31.5700 C.3    81  U81         0.1812
   1731  O5'        8.6300  -29.8490   30.3960 O.3    81  U81        -0.3114
   1732  C4'        8.7170  -30.2290   32.7630 C.3    81  U81         0.1773
   1733  O4'        7.5150  -29.4840   33.0860 O.3    81  U81        -0.3307
   1734  C3'        8.2350  -31.6520   32.5370 C.3    81  U81         0.1860
   1735  O3'        9.2690  -32.5950   32.7680 O.3    81  U81        -0.3112
   1736  C2'        7.0460  -31.7770   33.4830 C.3    81  U81         0.2309
   1737  O2'        7.4840  -32.0180   34.8120 O.3    81  U81        -0.2156
   1738  C1'        6.4710  -30.3650   33.4390 C.3    81  U81         0.2420
   1739  N1         5.3890  -30.1970   32.4420 N.ar   81  U81        -0.2534
   1740  C2         4.0980  -30.4340   32.8410 C.ar   81  U81         0.3546
   1741  O2         3.8190  -30.8210   33.9780 O.2    81  U81        -0.2443
   1742  N3         3.1550  -30.2280   31.8620 N.ar   81  U81        -0.1530
   1743  C4         3.3700  -29.7940   30.5650 C.ar   81  U81         0.2846
   1744  O4         2.4060  -29.6350   29.8020 O.2    81  U81        -0.2650
   1745  C5         4.7430  -29.5640   30.2400 C.ar   81  U81         0.0814
   1746  C6         5.6800  -29.7660   31.1710 C.ar   81  U81         0.0870
   1747  OP1       10.6250  -30.0610   28.9400 O.3    81  U81        -0.4373
   1748  OP2        8.2380  -30.0840   27.9770 O.co2  81  U81        -0.5172
   1749  P          9.2700  -34.0090   32.0130 P.3    82  C82         0.2141
   1750  C5'        7.1360  -35.4870   31.9980 C.3    82  C82         0.1812
   1751  O5'        8.1080  -34.7950   32.7480 O.3    82  C82        -0.3114
   1752  C4'        5.8870  -35.6980   32.8040 C.3    82  C82         0.1773
   1753  O4'        5.1500  -34.4440   32.9440 O.3    82  C82        -0.3307
   1754  C3'        4.8830  -36.6490   32.1840 C.3    82  C82         0.1860
   1755  O3'        5.2290  -38.0080   32.4150 O.3    82  C82        -0.3112
   1756  C2'        3.5870  -36.2340   32.8570 C.3    82  C82         0.2309
   1757  O2'        3.5480  -36.7710   34.1780 O.3    82  C82        -0.2156
   1758  C1'        3.7640  -34.7100   32.9410 C.3    82  C82         0.2420
   1759  N1         3.1660  -34.0350   31.7620 N.ar   82  C82        -0.2535
   1760  C2         1.7800  -33.9200   31.6820 C.ar   82  C82         0.3532
   1761  O2         1.0920  -34.3790   32.6080 O.2    82  C82        -0.2443
   1762  N3         1.2220  -33.3270   30.5900 N.ar   82  C82        -0.1739
   1763  C4         1.9980  -32.8700   29.6090 C.ar   82  C82         0.1759
   1764  N4         1.3960  -32.3000   28.5460 N.pl3  82  C82        -0.1070
   1765  C5         3.4180  -32.9820   29.6660 C.ar   82  C82         0.0566
   1766  C6         3.9530  -33.5730   30.7490 C.ar   82  C82         0.0850
   1767  OP1       10.5370  -34.6980   32.3690 O.3    82  C82        -0.4373
   1768  OP2        8.8700  -33.8930   30.5900 O.co2  82  C82        -0.5172
   1769  P          5.2740  -39.0710   31.2130 P.3    83  C83         0.2141
   1770  C5'        2.9810  -40.0860   31.9050 C.3    83  C83         0.1812
   1771  O5'        3.7410  -39.3910   30.9260 O.3    83  C83        -0.3114
   1772  C4'        1.4970  -39.9200   31.7170 C.3    83  C83         0.1773
   1773  O4'        1.1150  -38.5190   31.8100 O.3    83  C83        -0.3307
   1774  C3'        0.9180  -40.3360   30.3810 C.3    83  C83         0.1860
   1775  O3'        0.8500  -41.7350   30.1980 O.3    83  C83        -0.3112
   1776  C2'       -0.4310  -39.6440   30.4180 C.3    83  C83         0.2309
   1777  O2'       -1.2870  -40.2710   31.3640 O.3    83  C83        -0.2156
   1778  C1'       -0.0220  -38.2940   30.9970 C.3    83  C83         0.2420
   1779  N1         0.3580  -37.3750   29.9090 N.ar   83  C83        -0.2535
   1780  C2        -0.6820  -36.8040   29.1980 C.ar   83  C83         0.3532
   1781  O2        -1.8300  -37.0910   29.5460 O.2    83  C83        -0.2443
   1782  N3        -0.4060  -35.9790   28.1620 N.ar   83  C83        -0.1739
   1783  C4         0.8630  -35.7160   27.8540 C.ar   83  C83         0.1759
   1784  N4         1.0960  -34.8860   26.8320 N.pl3  83  C83        -0.1070
   1785  C5         1.9570  -36.2940   28.5680 C.ar   83  C83         0.0566
   1786  C6         1.6590  -37.1210   29.5800 C.ar   83  C83         0.0850
   1787  OP1        5.8720  -40.3090   31.8170 O.3    83  C83        -0.4373
   1788  OP2        5.9020  -38.4850   30.0110 O.co2  83  C83        -0.5172
   1789  P          1.0250  -42.3540   28.7250 P.3    84  G84         0.2141
   1790  C5'       -1.5850  -42.1990   28.4130 C.3    84  G84         0.1812
   1791  O5'       -0.2810  -41.8870   27.9390 O.3    84  G84        -0.3114
   1792  C4'       -2.6550  -41.5180   27.5890 C.3    84  G84         0.1773
   1793  O4'       -2.4860  -40.0750   27.6570 O.3    84  G84        -0.3307
   1794  C3'       -2.6510  -41.8200   26.0970 C.3    84  G84         0.1860
   1795  O3'       -3.2910  -43.0450   25.7820 O.3    84  G84        -0.3112
   1796  C2'       -3.3540  -40.6050   25.5140 C.3    84  G84         0.2309
   1797  O2'       -4.7530  -40.7120   25.7240 O.3    84  G84        -0.2156
   1798  C1'       -2.8290  -39.4950   26.4190 C.3    84  G84         0.2408
   1799  N1        -1.2260  -36.3280   22.8740 N.ar   84  G84        -0.1709
   1800  C2        -2.4890  -36.7900   23.1450 C.ar   84  G84         0.2606
   1801  N2        -3.4680  -36.3390   22.3400 N.pl3  84  G84        -0.0859
   1802  N3        -2.7790  -37.6370   24.1200 N.ar   84  G84        -0.1918
   1803  C4        -1.6670  -37.9660   24.8080 C.ar   84  G84         0.1723
   1804  C5        -0.3600  -37.5650   24.6220 C.ar   84  G84         0.1748
   1805  C6        -0.0720  -36.6490   23.5820 C.ar   84  G84         0.3023
   1806  O6         1.0170  -36.1520   23.2610 O.2    84  G84        -0.2633
   1807  N7         0.4770  -38.1550   25.5600 N.ar   84  G84        -0.2173
   1808  C8        -0.3320  -38.8910   26.2740 C.ar   84  G84         0.1817
   1809  N9        -1.6420  -38.8300   25.8640 N.ar   84  G84        -0.2693
   1810  OP1        0.9670  -43.8330   28.9230 O.3    84  G84        -0.4373
   1811  OP2        2.1860  -41.7750   28.0210 O.co2  84  G84        -0.5172
   1812  P         -2.9320  -43.8180   24.4190 P.3    85  C85         0.2141
   1813  C5'       -4.6670  -42.4330   22.9930 C.3    85  C85         0.1812
   1814  O5'       -3.3250  -42.8040   23.2550 O.3    85  C85        -0.3114
   1815  C4'       -4.7260  -41.5210   21.7940 C.3    85  C85         0.1773
   1816  O4'       -4.0520  -40.2700   22.0940 O.3    85  C85        -0.3307
   1817  C3'       -4.0170  -42.0300   20.5500 C.3    85  C85         0.1860
   1818  O3'       -4.8150  -42.9340   19.8120 O.3    85  C85        -0.3112
   1819  C2'       -3.6930  -40.7450   19.7950 C.3    85  C85         0.2309
   1820  O2'       -4.8430  -40.2580   19.1200 O.3    85  C85        -0.2156
   1821  C1'       -3.3940  -39.7870   20.9440 C.3    85  C85         0.2420
   1822  N1        -1.9500  -39.6730   21.2390 N.ar   85  C85        -0.2535
   1823  C2        -1.1510  -38.8760   20.4210 C.ar   85  C85         0.3532
   1824  O2        -1.6610  -38.3010   19.4500 O.2    85  C85        -0.2443
   1825  N3         0.1650  -38.7480   20.6920 N.ar   85  C85        -0.1739
   1826  C4         0.6720  -39.3870   21.7490 C.ar   85  C85         0.1759
   1827  N4         1.9740  -39.2240   21.9830 N.pl3  85  C85        -0.1070
   1828  C5        -0.1170  -40.2050   22.6090 C.ar   85  C85         0.0566
   1829  C6        -1.4180  -40.3190   22.3200 C.ar   85  C85         0.0850
   1830  OP1       -3.8080  -45.0100   24.3500 O.3    85  C85        -0.4373
   1831  OP2       -1.4510  -43.9010   24.3070 O.co2  85  C85        -0.5172
   1832  P         -4.1330  -44.1400   18.9950 P.3    86  U86         0.2141
   1833  C5'       -4.1040  -42.8250   16.7280 C.3    86  U86         0.1812
   1834  O5'       -3.3730  -43.4110   17.7980 O.3    86  U86        -0.3114
   1835  C4'       -3.1930  -42.2090   15.6950 C.3    86  U86         0.1773
   1836  O4'       -2.4940  -41.0750   16.2690 O.3    86  U86        -0.3307
   1837  C3'       -2.0810  -43.1000   15.1680 C.3    86  U86         0.1860
   1838  O3'       -2.5330  -43.9910   14.1590 O.3    86  U86        -0.3112
   1839  C2'       -1.0460  -42.0910   14.6850 C.3    86  U86         0.2309
   1840  O2'       -1.4160  -41.5510   13.4250 O.3    86  U86        -0.2156
   1841  C1'       -1.1970  -40.9800   15.7210 C.3    86  U86         0.2420
   1842  N1        -0.2100  -41.0780   16.8190 N.ar   86  U86        -0.2534
   1843  C2         1.0390  -40.5530   16.5800 C.ar   86  U86         0.3546
   1844  O2         1.3450  -40.0490   15.5120 O.2    86  U86        -0.2443
   1845  N3         1.9250  -40.6390   17.6270 N.ar   86  U86        -0.1530
   1846  C4         1.6790  -41.1900   18.8650 C.ar   86  U86         0.2846
   1847  O4         2.5900  -41.1840   19.6970 O.2    86  U86        -0.2650
   1848  C5         0.3550  -41.7140   19.0430 C.ar   86  U86         0.0814
   1849  C6        -0.5290  -41.6360   18.0360 C.ar   86  U86         0.0870
   1850  OP1       -5.2550  -44.9490   18.4550 O.2    86  U86        -0.5172
   1851  OP2       -3.1060  -44.7730   19.8610 O.co2  86  U86        -0.4373
   1852  P         -1.8480  -45.4350   13.9650 P.3    87  C87         0.2141
   1853  C5'       -0.5310  -44.4020   11.9380 C.3    87  C87         0.1812
   1854  O5'       -0.5040  -45.1100   13.1690 O.3    87  C87        -0.3114
   1855  C4'        0.8440  -43.9190   11.5430 C.3    87  C87         0.1773
   1856  O4'        1.2580  -42.8430   12.4230 O.3    87  C87        -0.3307
   1857  C3'        1.9660  -44.9380   11.6520 C.3    87  C87         0.1860
   1858  O3'        2.0270  -45.8100   10.5360 O.3    87  C87        -0.3112
   1859  C2'        3.1980  -44.0580   11.8140 C.3    87  C87         0.2309
   1860  O2'        3.5850  -43.5050   10.5660 O.3    87  C87        -0.2156
   1861  C1'        2.6430  -42.9270   12.6770 C.3    87  C87         0.2420
   1862  N1         2.8280  -43.1930   14.1250 N.ar   87  C87        -0.2535
   1863  C2         4.0630  -42.9170   14.6910 C.ar   87  C87         0.3532
   1864  O2         4.9460  -42.4600   13.9550 O.2    87  C87        -0.2443
   1865  N3         4.2650  -43.1440   16.0100 N.ar   87  C87        -0.1739
   1866  C4         3.2720  -43.6400   16.7530 C.ar   87  C87         0.1759
   1867  N4         3.5160  -43.8550   18.0500 N.pl3  87  C87        -0.1070
   1868  C5         1.9900  -43.9350   16.2010 C.ar   87  C87         0.0566
   1869  C6         1.8120  -43.6910   14.8930 C.ar   87  C87         0.0850
   1870  OP1       -2.7560  -46.2310   13.1010 O.2    87  C87        -0.5172
   1871  OP2       -1.4590  -45.9860   15.2900 O.co2  87  C87        -0.4373
   1872  P          2.6390  -47.2840   10.7050 P.3    88  C88         0.2141
   1873  C5'        5.0630  -46.5240   10.0430 C.3    88  C88         0.1812
   1874  O5'        4.1800  -47.0270   11.0280 O.3    88  C88        -0.3114
   1875  C4'        6.4650  -46.3310   10.5740 C.3    88  C88         0.1773
   1876  O4'        6.4650  -45.3620   11.6510 O.3    88  C88        -0.3307
   1877  C3'        7.1470  -47.5410   11.1880 C.3    88  C88         0.1860
   1878  O3'        7.6640  -48.4390   10.2250 O.3    88  C88        -0.3112
   1879  C2'        8.2340  -46.9030   12.0370 C.3    88  C88         0.2309
   1880  O2'        9.3250  -46.5030   11.2220 O.3    88  C88        -0.2156
   1881  C1'        7.5230  -45.6470   12.5450 C.3    88  C88         0.2420
   1882  N1         6.9700  -45.8420   13.9020 N.ar   88  C88        -0.2535
   1883  C2         7.8450  -45.6960   14.9700 C.ar   88  C88         0.3532
   1884  O2         9.0260  -45.4140   14.7300 O.2    88  C88        -0.2443
   1885  N3         7.3840  -45.8630   16.2250 N.ar   88  C88        -0.1739
   1886  C4         6.1040  -46.1720   16.4240 C.ar   88  C88         0.1759
   1887  N4         5.7100  -46.3250   17.6900 N.pl3  88  C88        -0.1070
   1888  C5         5.1760  -46.3330   15.3520 C.ar   88  C88         0.0566
   1889  C6         5.6550  -46.1580   14.1140 C.ar   88  C88         0.0850
   1890  OP1        2.5210  -47.9760    9.3970 O.2    88  C88        -0.5172
   1891  OP2        2.0010  -47.9180   11.8890 O.co2  88  C88        -0.4373
   1892  P          7.8640  -49.9920   10.5920 P.3    89  A89         0.2141
   1893  C5'       10.2990  -49.8500   11.5650 C.3    89  A89         0.1813
   1894  O5'        8.9070  -50.0090   11.8040 O.3    89  A89        -0.3114
   1895  C4'       11.1080  -49.7540   12.8360 C.3    89  A89         0.1801
   1896  O4'       10.5870  -48.6930   13.6810 O.3    89  A89        -0.3306
   1897  C3'       11.1130  -50.9680   13.7540 C.3    89  A89         0.2161
   1898  O3'       11.9590  -52.0150   13.3110 O.3    89  A89        -0.2175
   1899  C2'       11.5350  -50.3570   15.0820 C.3    89  A89         0.2337
   1900  O2'       12.9260  -50.0620   15.0900 O.3    89  A89        -0.2155
   1901  C1'       10.7680  -49.0350   15.0410 C.3    89  A89         0.2409
   1902  N1         8.3030  -49.2860   19.5140 N.ar   89  A89        -0.2040
   1903  C2         9.5950  -49.1170   19.1900 C.ar   89  A89         0.2016
   1904  N3        10.1630  -49.0590   17.9840 N.ar   89  A89        -0.2048
   1905  C4         9.2320  -49.2000   17.0250 C.ar   89  A89         0.1692
   1906  C5         7.8710  -49.3800   17.1920 C.ar   89  A89         0.1518
   1907  C6         7.3950  -49.4140   18.5200 C.ar   89  A89         0.1919
   1908  N6         6.1150  -49.5780   18.8540 N.pl3  89  A89        -0.1054
   1909  N7         7.2460  -49.4780   15.9540 N.ar   89  A89        -0.2193
   1910  C8         8.2230  -49.3670   15.0820 C.ar   89  A89         0.1816
   1911  N9         9.4470  -49.1820   15.6700 N.ar   89  A89        -0.2693
   1912  OP1        8.5280  -50.6180    9.4160 O.2    89  A89        -0.5172
   1913  OP2        6.5710  -50.5190   11.0900 O.co2  89  A89        -0.4373
@<TRIPOS>BOND
     1  1292  1291    1
     2  1310  1309    1
     3  1286  1291   ar
     4  1286  1287   ar
     5  1291  1290   ar
     6  1332  1331   ar
     7  1332  1333   ar
     8  1287  1288   ar
     9  1309  1308   ar
    10  1309  1311   ar
    11  1331  1336   ar
    12  1333  1334   ar
    13  1308  1314   ar
    14  1290  1293   ar
    15  1290  1289   ar
    16  1288  1289   ar
    17  1311  1312   ar
    18  1293  1294   ar
    19  1289  1295   ar
    20  1334  1335   ar
    21  1334  1340   ar
    22  1314  1315    2
    23  1314  1313   ar
    24  1336  1337    1
    25  1336  1335   ar
    26  1329  1328    1
    27  1312  1313   ar
    28  1312  1318   ar
    29  1330  1340    1
    30  1330  1325    1
    31  1330  1328    1
    32  1294  1295   ar
    33  1335  1338   ar
    34  1295  1285    1
    35  1340  1339   ar
    36  1313  1316   ar
    37  1325  1324    1
    38  1328  1326    1
    39  1318  1307    1
    40  1318  1317   ar
    41  1285  1280    1
    42  1285  1283    1
    43  1307  1305    1
    44  1307  1302    1
    45  1306  1305    1
    46  1338  1339   ar
    47  1316  1317   ar
    48  1324  1326    1
    49  1324  1322    1
    50  1280  1279    1
    51  1305  1303    1
    52  1296  1276    2
    53  1302  1301    1
    54  1351  1350    1
    55  1326  1327    1
    56  1283  1284    1
    57  1283  1281    1
    58  1261  1260    1
    59  1327  1343    1
    60  1322  1323    1
    61  1345  1344    1
    62  1345  1343    1
    63  1346  1347    1
    64  1346  1344    1
    65  1346  1348    1
    66  1367  1369    1
    67  1367  1368    1
    68  1349  1348    1
    69  1349  1366    1
    70  1347  1352    1
    71  1259  1276    1
    72  1259  1258    1
    73   327   309    2
    74  1384  1366    2
    75  1301  1303    1
    76  1301  1299    1
    77  1279  1281    1
    78  1279  1277    1
    79  1276  1278    1
    80  1276  1297    1
    81  1303  1304    1
    82  1281  1282    1
    83  1350  1352    1
    84  1350  1348    1
    85  1369  1370    1
    86  1369  1371    1
    87  1323  1321    1
    88  1278  1277    1
    89  1352  1363    1
    90  1343  1364    2
    91  1343  1365    1
    92  1260  1258    1
    93  1260  1262    1
    94  1372  1371    1
    95  1372  1386    1
    96  1366  1368    1
    97  1366  1385    1
    98  1407  1386    2
    99  1265  1264    1
   100  1370  1375    1
   101  1304  1321    1
   102  1258  1256    1
   103   295   309    1
   104   295   294    1
   105  1374  1373    1
   106  1299  1300    1
   107  1371  1373    1
   108   309   311    1
   109   309   328    1
   110  1256  1257    1
   111  1256  1254    1
   112  1282  1298    1
   113   310   311    1
   114   310   312    1
   115  1300  1298    1
   116  1321  1342    2
   117  1321  1341    1
   118  1262  1257    1
   119  1262  1273    1
   120  1266  1264   ar
   121  1266  1267   ar
   122   290   292    1
   123   290   291    1
   124   307   289    2
   125   297   296    1
   126  1386  1388    1
   127  1386  1408    1
   128   292   294    1
   129   292   293    1
   130  1363  1357   ar
   131  1363  1362   ar
   132  1264  1263   ar
   133   347   329    2
   134  1375  1373    1
   135  1375  1376    1
   136  1356  1357   ar
   137  1356  1354   ar
   138   294   296    1
   139  1298  1320    2
   140  1298  1319    1
   141  1254  1255    1
   142   312   314    1
   143   312   313    1
   144  1357  1358   ar
   145   275   274    1
   146  1362  1361   ar
   147  1388  1387    1
   148   315   329    1
   149   315   314    1
   150  1267  1273   ar
   151  1267  1268   ar
   152   291   289    1
   153  1273  1272   ar
   154   296   298    1
   155   293   298    1
   156  1355  1354    1
   157   273   289    1
   158   273   272    1
   159   289   308    1
   160   329   348    1
   161   329   331    1
   162  1263  1269   ar
   163  1354  1353   ar
   164  1376  1383   ar
   165  1376  1377   ar
   166   314   316    1
   167  1383  1382   ar
   168   313   318    1
   169   298   299    1
   170  1255  1253    1
   171  1358  1361   ar
   172  1358  1359   ar
   173   274   272    1
   174   274   276    1
   175  1268  1269   ar
   176  1268  1271   ar
   177  1272  1271   ar
   178  1387  1389    1
   179   272   270    1
   180  1378  1377    2
   181  1590  1589    1
   182   317   316    1
   183  1274  1253    2
   184  1269  1270    2
   185   270   268    1
   186   270   271    1
   187  1377  1379   ar
   188   331   330    1
   189   330   332    1
   190  1353  1359   ar
   191  1241  1240    1
   192   316   318    1
   193  1603  1605    1
   194  1603  1604    1
   195  1382  1380   ar
   196  1605  1606    1
   197  1605  1607    1
   198  1389  1390    1
   199  1389  1391    1
   200  1253  1239    1
   201  1253  1275    1
   202   318   319    1
   203  1359  1360    2
   204  1610  1609    1
   205  1245  1244    2
   206   276   271    1
   207   276   286    1
   208  1390  1395    1
   209   268   269    1
   210   299   306   ar
   211   299   300   ar
   212  1606  1611    1
   213  1622  1602    2
   214  1608  1607    1
   215  1608  1624    1
   216  1240  1238    1
   217  1240  1242    1
   218  1588  1587    1
   219  1588  1602    1
   220  1239  1238    1
   221   301   300    2
   222  1642  1624    2
   223   306   305   ar
   224  1379  1380   ar
   225   326   319   ar
   226   326   325   ar
   227  1589  1591    1
   228  1589  1587    1
   229  1585  1586    1
   230  1585  1587    1
   231  1585  1583    1
   232  1380  1381    1
   233  1607  1609    1
   234   332   333    1
   235   332   334    1
   236   319   320   ar
   237   300   302   ar
   238  1604  1602    1
   239   279   278   ar
   240   279   280   ar
   241  1591  1586    1
   242  1591  1592    1
   243  1611  1609    1
   244  1611  1621    1
   245  1244  1246   ar
   246  1244  1243   ar
   247  1602  1623    1
   248   371   349    2
   249  1570  1569    1
   250  1238  1236    1
   251  1392  1391    1
   252  1392  1409    1
   253  1395  1393    1
   254  1395  1406    1
   255  1391  1393    1
   256  1222  1221    1
   257  1394  1393    1
   258  1624  1626    1
   259  1624  1643    1
   260  1583  1584    1
   261   286   280   ar
   262   286   285   ar
   263   269   267    1
   264  1594  1593    2
   265  1246  1247   ar
   266   335   334    1
   267   335   349    1
   268  1242  1243    1
   269  1242  1237    1
   270   287   267    2
   271  1625  1626    1
   272  1625  1627    1
   273   325   323   ar
   274  1427  1409    2
   275   333   338    1
   276   252   251    1
   277   278   277   ar
   278   334   336    1
   279   280   281   ar
   280  1405  1406   ar
   281  1405  1404   ar
   282  1428  1409    1
   283  1574  1573    2
   284   305   303   ar
   285  1243  1250   ar
   286  1409  1411    1
   287   256   255    1
   288   349   370    1
   289   349   351    1
   290  1406  1400   ar
   291   320   321    2
   292   320   322   ar
   293   346   345   ar
   294   346   339   ar
   295   302   303   ar
   296  1236  1237    1
   297  1236  1234    1
   298   267   250    1
   299   267   288    1
   300  1592  1593   ar
   301  1592  1599   ar
   302  1621  1620   ar
   303  1621  1615   ar
   304  1627  1628    1
   305  1627  1629    1
   306  1569  1571    1
   307  1569  1567    1
   308  1593  1595   ar
   309  1221  1220   ar
   310  1221  1223   ar
   311   285   284   ar
   312   345   343   ar
   313  1247  1248    1
   314  1247  1249   ar
   315  1628  1633    1
   316  1220  1226   ar
   317  1584  1582    1
   318  1404  1401   ar
   319   250   249    1
   320  1571  1566    1
   321  1571  1572    1
   322   303   304    2
   323  1620  1619   ar
   324   251   249    1
   325   251   253    1
   326   323   322   ar
   327   323   324    2
   328   277   282   ar
   329  1204  1203    1
   330   338   336    1
   331   338   339    1
   332  1573  1572   ar
   333  1573  1575   ar
   334   281   284   ar
   335   281   282   ar
   336   255   257   ar
   337   255   254   ar
   338  1250  1249   ar
   339  1198  1203   ar
   340  1198  1199   ar
   341   336   337    1
   342   257   258   ar
   343  1568  1567    1
   344  1568  1582    1
   345   339   340   ar
   346  1600  1582    2
   347  1614  1615   ar
   348  1614  1613   ar
   349  1615  1616   ar
   350  1223  1224   ar
   351  1400  1401   ar
   352  1400  1399   ar
   353   351   350    1
   354  1599  1598   ar
   355  1411  1410    1
   356  1567  1565    1
   357  1234  1235    1
   358  1566  1565    1
   359  1551  1550   ar
   360  1551  1552   ar
   361   249   247    1
   362  1595  1596   ar
   363  1582  1601    1
   364  1572  1579   ar
   365  1203  1202   ar
   366  1565  1563    1
   367   282   283    1
   368  1630  1629    1
   369  1630  1644    1
   370  1629  1631    1
   371  1401  1402   ar
   372   343   344    1
   373   343   342   ar
   374  1575  1576   ar
   375  1199  1200   ar
   376   253   248    1
   377   253   264    1
   378  1226  1227    2
   379  1226  1225   ar
   380  1410  1412    1
   381  1633  1631    1
   382  1633  1634    1
   383  1550  1555   ar
   384  1619  1616   ar
   385  1399  1397   ar
   386  1632  1631    1
   387   254   260   ar
   388  1552  1553   ar
   389   247   248    1
   390   247   245    1
   391   258   264   ar
   392   258   259   ar
   393  1235  1233    1
   394  1616  1617   ar
   395   350   352    1
   396  1641  1634   ar
   397  1641  1640   ar
   398  1613  1612   ar
   399  1224  1225   ar
   400  1224  1230   ar
   401  1425  1426   ar
   402  1425  1423   ar
   403   340   342   ar
   404   340   341    2
   405  1662  1644    2
   406  1663  1644    1
   407  1598  1596   ar
   408   264   263   ar
   409  1596  1597    1
   410  1644  1646    1
   411  1634  1635   ar
   412  1426  1419   ar
   413  1225  1228   ar
   414  1202  1201   ar
   415  1202  1205   ar
   416  1579  1578   ar
   417  1402  1403    2
   418  1402  1396   ar
   419  1563  1564    1
   420  1218  1217    1
   421  1413  1412    1
   422  1413  1418    1
   423  1200  1201   ar
   424  1640  1638   ar
   425  1576  1578   ar
   426  1576  1577    2
   427  1412  1414    1
   428  1424  1423    1
   429  1397  1396   ar
   430  1397  1398    1
   431  1555  1556    1
   432  1555  1554   ar
   433   260   259   ar
   434   260   261    2
   435  1890  1872    2
   436  1217  1219    1
   437  1217  1215    1
   438  1912  1892    2
   439   259   262   ar
   440  1548  1547    1
   441   368   367   ar
   442   368   369   ar
   443  1423  1422   ar
   444   245   246    1
   445  1553  1554   ar
   446  1553  1559   ar
   447   367   364   ar
   448  1617  1612   ar
   449  1617  1618    1
   450  1201  1207   ar
   451  1230  1219    1
   452  1230  1229   ar
   453   353   352    1
   454   353   358    1
   455   352   354    1
   456  1251  1233    2
   457  1233  1252    1
   458  1233  1216    1
   459  1528  1529   ar
   460  1528  1533   ar
   461  1205  1206   ar
   462  1219  1214    1
   463   263   262   ar
   464  1419  1418    1
   465  1419  1420   ar
   466  1635  1636    2
   467  1635  1637   ar
   468  1873  1875    1
   469  1873  1874    1
   470  1564  1562    1
   471  1554  1557   ar
   472  1228  1229   ar
   473  1547  1549    1
   474  1547  1545    1
   475  1646  1645    1
   476  1878  1892    1
   477  1878  1877    1
   478  1529  1530   ar
   479  1418  1416    1
   480  1414  1415    1
   481  1414  1416    1
   482  1638  1637   ar
   483  1638  1639    2
   484   246   244    1
   485  1549  1559    1
   486  1549  1544    1
   487  1534  1533    1
   488  1858  1872    1
   489  1858  1857    1
   490  1860  1859    1
   491  1875  1877    1
   492  1875  1876    1
   493  1559  1558   ar
   494  1892  1913    1
   495  1892  1894    1
   496  1422  1420   ar
   497  1215  1216    1
   498  1215  1213    1
   499  1645  1647    1
   500  1872  1874    1
   501  1872  1891    1
   502   369   358    1
   503   369   363   ar
   504   391   372    2
   505  1451  1429    2
   506   236   235    2
   507  1533  1532   ar
   508   354   355    1
   509   354   356    1
   510  1420  1421    2
   511  1207  1206   ar
   512  1207  1197    1
   513  1490  1489    2
   514   364   365   ar
   515   364   363   ar
   516   387   386    1
   517   358   356    1
   518  1512  1511    2
   519  1415  1429    1
   520   409   408    2
   521   366   365    2
   522  1446  1445    2
   523  1877  1879    1
   524  1880  1879    1
   525   232   231    1
   526  1416  1417    1
   527   430   429    2
   528  1214  1213    1
   529   355   372    1
   530  1530  1531   ar
   531  1557  1558   ar
   532  1855  1857    1
   533  1855  1853    1
   534  1855  1856    1
   535  1893  1894    1
   536  1893  1895    1
   537  1545  1546    1
   538  1545  1543    1
   539  1660  1661   ar
   540  1660  1658   ar
   541  1562  1546    1
   542  1562  1580    2
   543  1562  1581    1
   544   365   359   ar
   545   363   362   ar
   546  1876  1881    1
   547  1857  1859    1
   548  1447  1448   ar
   549  1447  1444   ar
   550  1429  1450    1
   551  1429  1431    1
   552  1505  1511   ar
   553  1505  1506   ar
   554   235   237   ar
   555   235   234   ar
   556  1544  1543    1
   557   237   238   ar
   558  1213  1211    1
   559  1661  1654   ar
   560  1859  1861    1
   561   372   390    1
   562   372   374    1
   563  1648  1647    1
   564  1648  1653    1
   565   388   386   ar
   566   388   389   ar
   567   231   233    1
   568   231   229    1
   569   356   357    1
   570  1197  1192    1
   571  1197  1195    1
   572  1853  1854    1
   573  1511  1510   ar
   574   265   244    2
   575  1647  1649    1
   576   244   230    1
   577   244   266    1
   578   428   429   ar
   579   428   426   ar
   580   386   385   ar
   581  1879  1881    1
   582  1489  1488   ar
   583  1489  1491   ar
   584  1532  1531   ar
   585  1532  1535   ar
   586   408   402   ar
   587   408   407   ar
   588   429   431   ar
   589  1507  1506    1
   590  1445  1444   ar
   591  1445  1439   ar
   592  1543  1541    1
   593  1192  1191    1
   594  1531  1537   ar
   595  1856  1861    1
   596  1448  1449   ar
   597   230   229    1
   598  1881  1882    1
   599  1444  1443   ar
   600   135   114    2
   601   402   403   ar
   602  1659  1658    2
   603  1658  1657   ar
   604   427   426    2
   605   239   238    2
   606  1861  1862    1
   607   112    92    2
   608  1506  1508   ar
   609   233   234    1
   610   233   228    1
   611    55    54    1
   612   238   240   ar
   613   234   241   ar
   614  1488  1486   ar
   615  1895  1896    1
   616  1895  1897    1
   617    93    95    1
   618    93    94    1
   619  1654  1653    1
   620  1654  1655   ar
   621   426   425   ar
   622  1431  1430    1
   623   229   227    1
   624   389   382   ar
   625    77    76    1
   626   362   360   ar
   627   359   360   ar
   628  1196  1195    1
   629  1491  1492   ar
   630  1649  1650    1
   631  1649  1651    1
   632  1653  1651    1
   633  1211  1212    1
   634  1870  1852    2
   635    75    92    1
   636    75    74    1
   637   374   373    1
   638  1854  1852    1
   639   385   383   ar
   640  1195  1193    1
   641  1686  1664    2
   642    72    70    1
   643    72    74    1
   644    72    73    1
   645   212   213   ar
   646   212   217   ar
   647  1898  1897    1
   648  1510  1513   ar
   649  1510  1509   ar
   650    95    97    1
   651    95    96    1
   652   407   410   ar
   653   407   406   ar
   654    98   114    1
   655    98    97    1
   656    70    71    1
   657  1535  1536   ar
   658   410   411   ar
   659  1840  1839    1
   660  1439  1440   ar
   661   431   432   ar
   662   218   217    1
   663   360   361    1
   664  1650  1664    1
   665   114   136    1
   666   114   116    1
   667  1896  1901    1
   668  1657  1655   ar
   669  1537  1536   ar
   670  1537  1527    1
   671  1191  1193    1
   672  1191  1189    1
   673    92    94    1
   674    92   113    1
   675   213   214   ar
   676  1897  1899    1
   677   241   240   ar
   678  1449  1443   ar
   679  1449  1438    1
   680  1541  1542    1
   681  1194  1193    1
   682  1194  1210    1
   683  1443  1442   ar
   684  1655  1656    2
   685  1882  1889   ar
   686  1882  1883   ar
   687   403   404    1
   688   403   405   ar
   689    74    76    1
   690  1864  1863    2
   691  1430  1432    1
   692  1852  1838    1
   693  1852  1871    1
   694  1508  1509   ar
   695    73    78    1
   696  1513  1514   ar
   697   228   227    1
   698  1651  1652    1
   699   217   216   ar
   700   227   225    1
   701  1889  1888   ar
   702  1862  1863   ar
   703  1862  1869   ar
   704  1486  1487    2
   705  1486  1485   ar
   706    54    56    1
   707    54    52    1
   708  1838  1837    1
   709  1212  1210    1
   710    76    78    1
   711  1542  1540    1
   712    97    99    1
   713   382   383   ar
   714   382   381    1
   715   425   432   ar
   716   425   424    1
   717  1664  1685    1
   718  1664  1666    1
   719    96   101    1
   720  1509  1515   ar
   721  1190  1189    1
   722  1190  1188    1
   723   383   384    2
   724    53    52    1
   725    53    69    1
   726   373   375    1
   727    90    69    2
   728   100    99    1
   729  1232  1210    2
   730  1492  1485   ar
   731  1525  1527    1
   732  1525  1526    1
   733  1525  1523    1
   734  1527  1522    1
   735    36    35    1
   736    50    51    1
   737    50    52    1
   738    50    48    1
   739    78    89    1
   740  1681  1680    2
   741    56    51    1
   742    56    66    1
   743   406   405   ar
   744   406   412   ar
   745  1494  1475    2
   746   411   412   ar
   747  1839  1837    1
   748  1839  1841    1
   749  1863  1865   ar
   750    71    69    1
   751  1440  1442   ar
   752  1440  1441    1
   753  1884  1883    2
   754  1210  1231    1
   755  1433  1438    1
   756  1433  1432    1
   757  1682  1683   ar
   758  1682  1679   ar
   759   414   392    2
   760  1208  1188    2
   761   214   215   ar
   762  1869  1868   ar
   763  1438  1436    1
   764  1485  1484    1
   765  1436  1437    1
   766  1436  1434    1
   767  1883  1885   ar
   768   376   375    1
   769   376   381    1
   770   116   115    1
   771    69    91    1
   772   115   117    1
   773  1901  1899    1
   774  1901  1911    1
   775    99   101    1
   776  1899  1900    1
   777  1910  1911   ar
   778  1910  1909   ar
   779    59    58   ar
   780    59    60   ar
   781  1432  1434    1
   782  1837  1835    1
   783   424   422    1
   784   424   419    1
   785   101   111    1
   786  1514  1515   ar
   787   422   423    1
   788   422   420    1
   789   216   215   ar
   790   216   219   ar
   791    48    49    1
   792  1888  1886   ar
   793    32    31    1
   794   375   377    1
   795   381   379    1
   796  1683  1684   ar
   797  1188  1209    1
   798  1188  1172    1
   799   225   226    1
   800   412   401    1
   801  1515  1504    1
   802  1844  1843    2
   803  1666  1665    1
   804  1680  1679   ar
   805  1680  1674   ar
   806   215   221   ar
   807   453   435    2
   808   226   224    1
   809   377   379    1
   810   377   378    1
   811  1911  1905   ar
   812  1561  1540    2
   813  1679  1678   ar
   814    58    57   ar
   815  1434  1435    1
   816    35    37   ar
   817    35    34   ar
   818  1540  1524    1
   819  1540  1560    1
   820  1835  1836    1
   821  1835  1833    1
   822  1523  1524    1
   823  1523  1521    1
   824  1841  1836    1
   825  1841  1842    1
   826  1522  1521    1
   827    66    60   ar
   828    66    65   ar
   829  1460  1459    1
   830    37    38   ar
   831  1909  1906   ar
   832   196   195    2
   833    89    88   ar
   834    89    83   ar
   835  1865  1866   ar
   836  1475  1458    1
   837  1475  1477    1
   838  1475  1493    1
   839    60    61   ar
   840  1868  1866   ar
   841  1885  1886   ar
   842   379   380    1
   843  1458  1457    1
   844   219   220   ar
   845   392   378    1
   846   392   394    1
   847   392   413    1
   848   420   421    1
   849   420   418    1
   850   471   470    1
   851  1484  1479    1
   852  1484  1482    1
   853   450   449    2
   854  1886  1887    1
   855  1172  1171    1
   856   454   435    1
   857    82    83   ar
   858    82    80   ar
   859  1477  1476    1
   860   117   118    1
   861   117   119    1
   862   419   418    1
   863   111   110   ar
   864   111   105   ar
   865  1843  1842   ar
   866  1843  1845   ar
   867  1665  1667    1
   868  1521  1519    1
   869    31    33    1
   870    31    29    1
   871   435   421    1
   872   435   437    1
   873  1464  1463    1
   874    34    40   ar
   875  1674  1675   ar
   876  1684  1678   ar
   877  1684  1673    1
   878    49    47    1
   879  1833  1834    1
   880  1866  1867    1
   881   110   109   ar
   882   451   449   ar
   883   451   452   ar
   884  1504  1502    1
   885  1504  1499    1
   886    88    87   ar
   887   394   393    1
   888   221   220   ar
   889   221   211    1
   890    83    84   ar
   891   465   470   ar
   892   465   466   ar
   893  1842  1849   ar
   894  1678  1677   ar
   895    13    12    1
   896   243   224    2
   897   155   137    2
   898   401   396    1
   899   401   399    1
   900   195   189   ar
   901   195   194   ar
   902  1517  1495    2
   903    57    62   ar
   904  1479  1478    1
   905  1482  1480    1
   906  1482  1483    1
   907    33    44    1
   908    33    28    1
   909  1905  1906   ar
   910  1905  1904   ar
   911   189   190   ar
   912   209   210    1
   913   209   211    1
   914   209   207    1
   915   224   242    1
   916   224   208    1
   917   118   123    1
   918  1435  1452    1
   919  1668  1667    1
   920  1668  1673    1
   921    65    64   ar
   922   449   448   ar
   923  1906  1907   ar
   924   470   469   ar
   925  1502  1500    1
   926  1502  1503    1
   927    38    44   ar
   928    38    39   ar
   929    81    80    1
   930  1459  1457    1
   931  1459  1461    1
   932   156   137    1
   933    67    47    2
   934   418   416    1
   935   434   415    2
   936   120   119    1
   937   120   137    1
   938  1457  1455    1
   939   119   121    1
   940  1520  1519    1
   941  1520  1518    1
   942  1455  1456    1
   943  1455  1453    1
   944   396   395    1
   945    61    62   ar
   946    61    64   ar
   947    30    47    1
   948    30    29    1
   949    80    79   ar
   950  1480  1478    1
   951  1480  1481    1
   952   399   397    1
   953   399   400    1
   954  1465  1463   ar
   955  1465  1466   ar
   956  1174  1173    1
   957   417   416    1
   958   417   415    1
   959   211   206    1
   960   137   139    1
   961   466   467   ar
   962  1845  1846   ar
   963  1667  1669    1
   964   105   104   ar
   965   105   106   ar
   966   452   445   ar
   967  1463  1462   ar
   968  1539  1518    2
   969  1673  1671    1
   970    47    68    1
   971  1499  1498    1
   972    29    27    1
   973  1461  1456    1
   974  1461  1472    1
   975  1476  1478    1
   976   133   132   ar
   977   133   134   ar
   978    44    43   ar
   979    28    27    1
   980  1834  1832    1
   981   397   395    1
   982   397   398    1
   983  1675  1677   ar
   984  1675  1676    1
   985  1171  1173    1
   986  1171  1169    1
   987  1474  1452    2
   988   207   208    1
   989   207   205    1
   990    62    63    1
   991   191   190    1
   992   437   436    1
   993   104   103   ar
   994  1904  1903   ar
   995    27    25    1
   996   109   106   ar
   997  1500  1498    1
   998  1500  1501    1
   999  1454  1453    1
  1000  1454  1452    1
  1001  1849  1848   ar
  1002    87    84   ar
  1003    40    39   ar
  1004    40    41    2
  1005   190   192   ar
  1006  1497  1495    1
  1007  1497  1496    1
  1008    84    85   ar
  1009   194   197   ar
  1010   194   193   ar
  1011   393   395    1
  1012    12    11   ar
  1013    12    14   ar
  1014  1452  1473    1
  1015  1178  1177   ar
  1016  1178  1179   ar
  1017  1669  1671    1
  1018  1669  1670    1
  1019   132   129   ar
  1020  1495  1481    1
  1021  1495  1516    1
  1022    39    42   ar
  1023    11    17   ar
  1024   415   398    1
  1025   415   433    1
  1026  1177  1176   ar
  1027  1173  1175    1
  1028   197   198   ar
  1029   123   134    1
  1030   123   121    1
  1031   511   510    1
  1032  1850  1832    2
  1033  1518  1501    1
  1034  1518  1538    1
  1035   487   488   ar
  1036   487   492   ar
  1037   469   472   ar
  1038   469   468   ar
  1039   448   446   ar
  1040  1907  1908    1
  1041  1907  1902   ar
  1042  1169  1170    1
  1043  1169  1167    1
  1044  1175  1170    1
  1045  1175  1185    1
  1046   106   107   ar
  1047   134   128   ar
  1048   770   769    1
  1049  1498  1496    1
  1050   493   492    1
  1051  1466  1472   ar
  1052  1466  1467   ar
  1053   121   122    1
  1054    79    85   ar
  1055  1671  1672    1
  1056   467   468   ar
  1057  1846  1848   ar
  1058  1846  1847    2
  1059  1472  1471   ar
  1060   206   205    1
  1061   488   489   ar
  1062  1706  1687    2
  1063  1462  1468   ar
  1064   223   202    2
  1065  1832  1818    1
  1066  1832  1851    1
  1067   445   446   ar
  1068   445   444    1
  1069   436   438    1
  1070   193   192   ar
  1071   193   199   ar
  1072  1705  1687    1
  1073    14    15   ar
  1074  1820  1819    1
  1075    43    42   ar
  1076   139   138    1
  1077    85    86    2
  1078   492   491   ar
  1079   472   473   ar
  1080  1903  1902   ar
  1081   468   474   ar
  1082  1670  1687    1
  1083   103   102   ar
  1084   205   203    1
  1085   204   202    1
  1086   204   203    1
  1087  1179  1185   ar
  1088  1179  1180   ar
  1089    25    26    1
  1090  1176  1181   ar
  1091   178   157    2
  1092  1824  1823    2
  1093   129   128   ar
  1094   129   130   ar
  1095  1687  1689    1
  1096   446   447    2
  1097  1185  1184   ar
  1098    17    18    2
  1099    17    16   ar
  1100   198   199   ar
  1101   510   512   ar
  1102   510   509   ar
  1103  1167  1168    1
  1104   128   127   ar
  1105   138   140    1
  1106  1819  1817    1
  1107  1819  1821    1
  1108  1818  1817    1
  1109   769   768   ar
  1110   769   771   ar
  1111   107   102   ar
  1112   107   108    1
  1113   442   444    1
  1114   442   443    1
  1115   442   440    1
  1116   439   444    1
  1117   439   438    1
  1118   202   222    1
  1119   202   185    1
  1120   512   513   ar
  1121  1467  1468   ar
  1122  1467  1470   ar
  1123   199   188    1
  1124   489   490   ar
  1125  1468  1469    2
  1126  1471  1470   ar
  1127   438   440    1
  1128   768   774   ar
  1129   177   157    1
  1130   473   474   ar
  1131    15    16   ar
  1132    15    21   ar
  1133    26    24    1
  1134   131   130    2
  1135   474   464    1
  1136   491   490   ar
  1137   491   494   ar
  1138   130   124   ar
  1139  1823  1825   ar
  1140  1823  1822   ar
  1141   509   515   ar
  1142  1180  1181   ar
  1143  1180  1183   ar
  1144   530   529    1
  1145  1181  1182    1
  1146   157   143    1
  1147   157   159    1
  1148  1168  1166    1
  1149  1817  1815    1
  1150    16    19   ar
  1151   771   772   ar
  1152   440   441    1
  1153  1825  1826   ar
  1154   490   496   ar
  1155   507   506    1
  1156  1184  1183   ar
  1157   127   125   ar
  1158   802   781    2
  1159     9     8    1
  1160   173   172    1
  1161  1821  1822    1
  1162  1821  1816    1
  1163   184   186    1
  1164   184   185    1
  1165   184   182    1
  1166   186   188    1
  1167   186   187    1
  1168  1689  1688    1
  1169   153   154   ar
  1170   153   151   ar
  1171   143   142    1
  1172     8    10    1
  1173     8     6    1
  1174   140   142    1
  1175   140   141    1
  1176   459   464    1
  1177   459   458    1
  1178   526   531    1
  1179   526   525    1
  1180  1822  1829   ar
  1181   513   519   ar
  1182   513   514   ar
  1183   201   179    2
  1184   188   183    1
  1185   494   495   ar
  1186   142   144    1
  1187   531   529    1
  1188   531   532    1
  1189   154   147   ar
  1190   508   506    1
  1191   508   519    1
  1192   508   503    1
  1193   774   775    2
  1194   774   773   ar
  1195   174   175   ar
  1196   174   171   ar
  1197   464   462    1
  1198   766   765    1
  1199    21    10    1
  1200    21    20   ar
  1201   124   125   ar
  1202   525   523    1
  1203   525   527    1
  1204   506   504    1
  1205   529   527    1
  1206   125   126    1
  1207   515   514   ar
  1208   515   516    2
  1209   159   158    1
  1210  1826  1827    1
  1211  1826  1828   ar
  1212   772   773   ar
  1213   772   778   ar
  1214   534   533    2
  1215   180   182    1
  1216   180   181    1
  1217    10     5    1
  1218  1688  1690    1
  1219  1815  1816    1
  1220  1815  1813    1
  1221   152   151    2
  1222   496   495   ar
  1223   496   486    1
  1224   141   146    1
  1225    24    45    2
  1226    24     7    1
  1227    24    46    1
  1228   519   518   ar
  1229  1186  1166    2
  1230  1151  1150    1
  1231    19    20   ar
  1232   183   182    1
  1233   151   150   ar
  1234  1166  1149    1
  1235  1166  1187    1
  1236   441   455    1
  1237   172   171   ar
  1238   172   167   ar
  1239   764   781    1
  1240   764   763    1
  1241   514   517   ar
  1242   523   524    1
  1243   503   502    1
  1244     7     6    1
  1245   175   176   ar
  1246   773   776   ar
  1247   781   783    1
  1248   781   803    1
  1249   171   170   ar
  1250     6     4    1
  1251  1829  1828   ar
  1252  1801  1800    1
  1253   528   527    1
  1254   528   542    1
  1255   532   533   ar
  1256   532   539   ar
  1257   456   458    1
  1258   456   457    1
  1259   458   460    1
  1260  1149  1148    1
  1261   457   455    1
  1262   533   535   ar
  1263   147   146    1
  1264   147   148   ar
  1265   767   778    1
  1266   767   765    1
  1267   767   762    1
  1268   486   484    1
  1269   486   481    1
  1270   179   181    1
  1271   179   200    1
  1272   179   163    1
  1273   778   777   ar
  1274   765   763    1
  1275   783   782    1
  1276   476   455    2
  1277   144   146    1
  1278   144   145    1
  1279   462   463    1
  1280   462   460    1
  1281   782   784    1
  1282  1799  1800   ar
  1283  1799  1805   ar
  1284   158   160    1
  1285   502   504    1
  1286   502   500    1
  1287  1813  1814    1
  1288   455   475    1
  1289   167   168   ar
  1290   543   545    1
  1291   543   544    1
  1292   504   505    1
  1293  1150  1148    1
  1294  1150  1152    1
  1295   518   517   ar
  1296  1800  1802   ar
  1297   546   545    1
  1298   546   551    1
  1299   150   148   ar
  1300   785   784    1
  1301   785   790    1
  1302     5     4    1
  1303   763   761    1
  1304  1690  1692    1
  1305  1690  1691    1
  1306  1814  1812    1
  1307  1806  1805    2
  1308   539   538   ar
  1309   563   542    2
  1310   484   485    1
  1311   484   482    1
  1312   545   547    1
  1313   505   522    1
  1314   524   522    1
  1315   176   170   ar
  1316   176   166    1
  1317   800   799   ar
  1318   800   801   ar
  1319   170   169   ar
  1320   776   777   ar
  1321   148   149    2
  1322     4     2    1
  1323   162   163    1
  1324   162   160    1
  1325   162   164    1
  1326  1148  1146    1
  1327   535   536   ar
  1328   460   461    1
  1329  1805  1804   ar
  1330  1727  1707    2
  1331   481   480    1
  1332   762   761    1
  1333   542   544    1
  1334   542   564    1
  1335   799   796   ar
  1336   784   786    1
  1337  1692  1694    1
  1338  1692  1693    1
  1339   761   759    1
  1340   160   161    1
  1341  1691  1696    1
  1342   461   477    1
  1343  1802  1803   ar
  1344   168   169   ar
  1345   551   549    1
  1346   551   562    1
  1347  1155  1154    1
  1348   540   522    2
  1349   522   541    1
  1350   161   166    1
  1351   790   801    1
  1352   790   788    1
  1353   801   795   ar
  1354   550   549    1
  1355   500   501    1
  1356  1152  1147    1
  1357  1152  1163    1
  1358  1146  1147    1
  1359  1146  1144    1
  1360  1831  1812    2
  1361   538   536   ar
  1362  1728  1707    1
  1363  1830  1812    1
  1364  1812  1795    1
  1365   164   166    1
  1366   164   165    1
  1367   536   537    2
  1368  1156  1154   ar
  1369  1156  1157   ar
  1370   993   975    2
  1371  1707  1693    1
  1372  1707  1709    1
  1373  1804  1803   ar
  1374  1804  1807   ar
  1375  1694  1696    1
  1376  1694  1695    1
  1377   482   480    1
  1378   482   483    1
  1379     2     3    1
  1380   796   795   ar
  1381   796   797   ar
  1382  1803  1809   ar
  1383   547   549    1
  1384   547   548    1
  1385  1154  1153   ar
  1386   480   478    1
  1387   940   939    1
  1388   562   561   ar
  1389   562   556   ar
  1390   961   975    1
  1391   961   960    1
  1392   956   958    1
  1393   956   957    1
  1394   501   499    1
  1395  1696  1697    1
  1396   795   794   ar
  1397  1704  1697   ar
  1398  1704  1703   ar
  1399   963   962    1
  1400   548   565    1
  1401   786   788    1
  1402   786   787    1
  1403   958   960    1
  1404   958   959    1
  1405   561   560   ar
  1406   973   955    2
  1407  1163  1157   ar
  1408  1163  1162   ar
  1409   798   797    2
  1410  1144  1145    1
  1411  1157  1158   ar
  1412   759   760    1
  1413     3     1    1
  1414   797   791   ar
  1415  1796  1797    1
  1416  1796  1794    1
  1417  1796  1798    1
  1418   788   789    1
  1419  1807  1808   ar
  1420   976   977    1
  1421   976   978    1
  1422   477   479    1
  1423   477   498    2
  1424   477   497    1
  1425  1697  1698   ar
  1426  1703  1701   ar
  1427   975   977    1
  1428   975   994    1
  1429   479   478    1
  1430   483   499    1
  1431  1795  1794    1
  1432   746   745    1
  1433   760   758    1
  1434   960   962    1
  1435  1809  1808   ar
  1436  1809  1798    1
  1437   556   555   ar
  1438   556   557   ar
  1439  1153  1159   ar
  1440   787   804    1
  1441   938   955    1
  1442   938   937    1
  1443   959   964    1
  1444   555   553   ar
  1445  1709  1708    1
  1446   560   557   ar
  1447  1145  1143    1
  1448  1794  1792    1
  1449   794   792   ar
  1450    22     1    1
  1451   962   964    1
  1452   957   955    1
  1453  1015   995    2
  1454  1162  1161   ar
  1455   499   521    2
  1456   499   520    1
  1457   939   937    1
  1458   939   941    1
  1459   955   974    1
  1460  1798  1793    1
  1461  1158  1159   ar
  1462  1158  1161   ar
  1463  1708  1710    1
  1464   978   979    1
  1465   978   980    1
  1466   791   792   ar
  1467   557   558   ar
  1468     1    23    1
  1469   583   565    2
  1470   565   584    1
  1471   565   567    1
  1472   744   758    1
  1473   744   743    1
  1474   964   965    1
  1475   981   995    1
  1476   981   980    1
  1477  1698  1699    2
  1478  1698  1700   ar
  1479  1701  1700   ar
  1480  1701  1702    1
  1481   792   793    1
  1482  1159  1160    2
  1483  1784  1783    1
  1484   937   935    1
  1485   553   554    1
  1486   553   552   ar
  1487  1164  1143    2
  1488   826   804    2
  1489   935   936    1
  1490   935   933    1
  1491   758   779    2
  1492   758   780    1
  1493   941   936    1
  1494   941   952    1
  1495   745   743    1
  1496   745   747    1
  1497   944   943    1
  1498   804   825    1
  1499   804   806    1
  1500   995  1016    1
  1501   995   997    1
  1502   979   984    1
  1503   980   982    1
  1504   741   743    1
  1505   741   742    1
  1506   741   739    1
  1507  1143  1165    1
  1508  1143  1129    1
  1509   566   567    1
  1510   566   568    1
  1511  1135  1134    2
  1512   558   552   ar
  1513   558   559    2
  1514  1792  1793    1
  1515  1792  1790    1
  1516  1131  1130    1
  1517   945   943   ar
  1518   945   946   ar
  1519   747   742    1
  1520   747   748    1
  1521  1783  1782   ar
  1522  1783  1785   ar
  1523  1791  1790    1
  1524  1791  1789    1
  1525  1710  1711    1
  1526  1710  1712    1
  1527  1724  1725   ar
  1528  1724  1721   ar
  1529  1725  1726   ar
  1530  1748  1729    2
  1531  1811  1789    2
  1532   739   740    1
  1533   983   982    1
  1534   933   934    1
  1535  1130  1128    1
  1536  1130  1132    1
  1537   943   942   ar
  1538  1782  1780   ar
  1539   965   972   ar
  1540   965   966   ar
  1541   822   823   ar
  1542   822   819   ar
  1543  1129  1128    1
  1544   750   749    2
  1545  1136  1134   ar
  1546  1136  1137   ar
  1547  1134  1133   ar
  1548   806   805    1
  1549   569   568    1
  1550   569   574    1
  1551  1711  1716    1
  1552   821   820    2
  1553   952   946   ar
  1554   952   951   ar
  1555   996   997    1
  1556   996   998    1
  1557   982   984    1
  1558   568   570    1
  1559  1764  1763    1
  1560  1785  1786   ar
  1561   823   824   ar
  1562   724   723    1
  1563   984   985    1
  1564   946   947   ar
  1565   972   971   ar
  1566   967   966    2
  1567  1712  1713    1
  1568  1712  1714    1
  1569  1789  1810    1
  1570  1789  1775    1
  1571  1128  1126    1
  1572  1713  1729    1
  1573  1747  1729    1
  1574  1729  1731    1
  1575   582   581   ar
  1576   582   575   ar
  1577   966   968   ar
  1578   805   807    1
  1579  1138  1137    1
  1580  1137  1139   ar
  1581   819   820   ar
  1582   819   818   ar
  1583   748   749   ar
  1584   748   755   ar
  1585  1132  1133    1
  1586  1132  1127    1
  1587  1133  1140   ar
  1588  1780  1781    2
  1589  1780  1779   ar
  1590   749   751   ar
  1591   820   814   ar
  1592  1726  1716    1
  1593  1726  1720   ar
  1594   581   579   ar
  1595   934   932    1
  1596   727   728   ar
  1597   727   726   ar
  1598   992   985   ar
  1599   992   991   ar
  1600  1721  1722   ar
  1601  1721  1720   ar
  1602  1723  1722    1
  1603   728   729   ar
  1604   942   948   ar
  1605   740   738    1
  1606  1716  1714    1
  1607   808   807    1
  1608   808   813    1
  1609  1786  1779   ar
  1610   574   575    1
  1611   574   572    1
  1612  1763  1765   ar
  1613  1763  1762   ar
  1614   985   986   ar
  1615  1765  1766   ar
  1616   951   950   ar
  1617   723   725    1
  1618   723   721    1
  1619   824   818   ar
  1620   824   813    1
  1621   756   738    2
  1622  1744  1743    2
  1623   575   576   ar
  1624   998   999    1
  1625   998  1000    1
  1626   881   880    1
  1627  1779  1778    1
  1628   570   571    1
  1629   570   572    1
  1630   971   969   ar
  1631  1035  1017    2
  1632  1722  1717   ar
  1633   947   948   ar
  1634   947   950   ar
  1635   953   932    2
  1636  1788  1769    2
  1637  1714  1715    1
  1638  1139  1140   ar
  1639  1720  1719   ar
  1640  1036  1017    1
  1641   818   817   ar
  1642   907   906    2
  1643   807   809    1
  1644   879   880   ar
  1645   879   885   ar
  1646  1126  1127    1
  1647  1126  1124    1
  1648  1775  1774    1
  1649   726   731   ar
  1650   991   989   ar
  1651  1111  1112   ar
  1652  1111  1116   ar
  1653  1745  1743   ar
  1654  1745  1746   ar
  1655   886   885    2
  1656   722   738    1
  1657   722   721    1
  1658   755   754   ar
  1659   579   580    2
  1660   579   578   ar
  1661   814   815   ar
  1662   968   969   ar
  1663   738   757    1
  1664  1774  1776    1
  1665  1774  1772    1
  1666  1001  1017    1
  1667  1001  1000    1
  1668  1731  1730    1
  1669  1776  1778    1
  1670  1776  1777    1
  1671   725   735    1
  1672   725   720    1
  1673   813   811    1
  1674   948   949    2
  1675   751   752   ar
  1676   571   585    1
  1677   932   918    1
  1678   932   954    1
  1679   905   906   ar
  1680   905   903   ar
  1681  1017  1019    1
  1682  1117  1116    1
  1683  1743  1742   ar
  1684  1768  1749    2
  1685  1762  1760   ar
  1686   843   842    1
  1687   572   573    1
  1688  1112  1113   ar
  1689   999  1004    1
  1690   729   735   ar
  1691   729   730   ar
  1692   880   882   ar
  1693  1000  1002    1
  1694  1766  1759   ar
  1695   721   719    1
  1696   904   903    2
  1697   920   919    1
  1698   885   884   ar
  1699   576   578   ar
  1700   576   577    2
  1701   969   970    2
  1702  1771  1769    1
  1703  1771  1770    1
  1704   906   908   ar
  1705   918   917    1
  1706  1116  1115   ar
  1707   986   987    2
  1708   986   988   ar
  1709  1778  1773    1
  1710   864   863    2
  1711   809   811    1
  1712   809   810    1
  1713  1746  1739   ar
  1714   817   815   ar
  1715   735   734   ar
  1716  1769  1787    1
  1717  1769  1755    1
  1718   815   816    1
  1719   607   585    2
  1720   903   902   ar
  1721  1717  1718   ar
  1722   719   720    1
  1723   719   717    1
  1724  1124  1125    1
  1725  1719  1718   ar
  1726  1013  1012   ar
  1727  1013  1014   ar
  1728   731   730   ar
  1729   731   732    1
  1730   754   752   ar
  1731   585   606    1
  1732   585   587    1
  1733  1730  1732    1
  1734   989   988   ar
  1735   989   990    1
  1736   752   753    2
  1737   844   841   ar
  1738   844   845   ar
  1739  1113  1114   ar
  1740  1760  1759   ar
  1741  1760  1761    2
  1742   811   812    1
  1743   924   923    2
  1744  1772  1773    1
  1745  1772  1770    1
  1746   848   827    2
  1747   730   733   ar
  1748  1759  1758    1
  1749   842   841   ar
  1750   842   837   ar
  1751   705   704   ar
  1752   705   706   ar
  1753  1742  1740   ar
  1754  1125  1123    1
  1755  1004  1002    1
  1756  1004  1014    1
  1757  1750  1751    1
  1758  1750  1752    1
  1759   882   883   ar
  1760  1749  1767    1
  1761  1749  1751    1
  1762  1749  1735    1
  1763  1012  1009   ar
  1764  1115  1114   ar
  1765  1115  1118   ar
  1766  1019  1018    1
  1767   919   917    1
  1768   919   921    1
  1769  1002  1003    1
  1770   810   827    1
  1771   917   915    1
  1772  1754  1755    1
  1773  1754  1752    1
  1774  1754  1756    1
  1775   841   840   ar
  1776   704   709   ar
  1777   884   883   ar
  1778   884   887   ar
  1779   863   862   ar
  1780   863   865   ar
  1781  1014  1008   ar
  1782   908   909   ar
  1783  1114  1120   ar
  1784  1739  1740   ar
  1785  1739  1738    1
  1786   706   707   ar
  1787   921   922    1
  1788   921   916    1
  1789   734   733   ar
  1790  1734  1732    1
  1791  1734  1735    1
  1792  1734  1736    1
  1793   845   846   ar
  1794   923   925   ar
  1795   923   922   ar
  1796   902   909   ar
  1797   902   901    1
  1798   837   838   ar
  1799   717   718    1
  1800  1095  1094    1
  1801   883   889   ar
  1802  1732  1733    1
  1803   862   860   ar
  1804   827   829    1
  1805   827   847    1
  1806  1752  1753    1
  1807  1740  1741    2
  1808  1756  1758    1
  1809  1756  1757    1
  1810  1018  1020    1
  1811   587   586    1
  1812  1758  1753    1
  1813  1118  1119   ar
  1814   925   926   ar
  1815   922   929   ar
  1816  1733  1738    1
  1817   865   866   ar
  1818  1089  1094   ar
  1819  1089  1090   ar
  1820   887   888   ar
  1821   915   916    1
  1822   915   913    1
  1823   603   604   ar
  1824   603   600   ar
  1825  1123  1142    2
  1826  1123  1141    1
  1827  1123  1107    1
  1828  1009  1008   ar
  1829  1009  1010   ar
  1830   586   588    1
  1831   900   899    1
  1832  1738  1736    1
  1833  1033  1034   ar
  1834  1033  1031   ar
  1835  1120  1119   ar
  1836  1120  1110    1
  1837   901   899    1
  1838   901   896    1
  1839  1736  1737    1
  1840   840   846   ar
  1841   840   839   ar
  1842  1008  1007   ar
  1843   604   605   ar
  1844   709   710    1
  1845   709   708   ar
  1846  1094  1093   ar
  1847   702   701    1
  1848  1108  1109    1
  1849  1108  1110    1
  1850  1108  1106    1
  1851   718   716    1
  1852   829   828    1
  1853   846   836    1
  1854   707   708   ar
  1855   707   713   ar
  1856   838   839   ar
  1857   683   682    1
  1858  1034  1027   ar
  1859   926   927    1
  1860   926   928   ar
  1861  1058  1037    2
  1862   929   928   ar
  1863   860   861    2
  1864   860   859   ar
  1865  1032  1031    1
  1866   889   888   ar
  1867   889   878    1
  1868   602   601    2
  1869  1110  1105    1
  1870  1090  1091   ar
  1871   899   897    1
  1872   701   703    1
  1873   701   699    1
  1874   589   588    1
  1875   589   594    1
  1876  1020  1021    1
  1877  1020  1022    1
  1878   708   711   ar
  1879  1031  1030   ar
  1880   866   859   ar
  1881   896   895    1
  1882   600   601   ar
  1883   600   599   ar
  1884  1107  1106    1
  1885  1106  1104    1
  1886  1011  1010    1
  1887  1010  1005   ar
  1888   831   836    1
  1889   831   830    1
  1890   913   914    1
  1891  1021  1026    1
  1892   681   682   ar
  1893   681   687   ar
  1894   588   590    1
  1895   703   713    1
  1896   703   698    1
  1897  1007  1006   ar
  1898   605   594    1
  1899   605   599   ar
  1900  1074  1073    1
  1901   601   595   ar
  1902  1093  1096   ar
  1903  1093  1092   ar
  1904   713   712   ar
  1905   828   830    1
  1906  1022  1023    1
  1907  1022  1024    1
  1908   859   858    1
  1909   836   834    1
  1910   682   684   ar
  1911   878   876    1
  1912   878   873    1
  1913  1037  1023    1
  1914  1037  1057    1
  1915  1037  1039    1
  1916   898   897    1
  1917   898   912    1
  1918   716   700    1
  1919   716   736    2
  1920   716   737    1
  1921  1027  1026    1
  1922  1027  1028   ar
  1923   688   687    2
  1924   594   592    1
  1925   599   598   ar
  1926  1091  1092   ar
  1927   876   877    1
  1928   876   874    1
  1929  1096  1097   ar
  1930   897   895    1
  1931   914   912    1
  1932  1053  1052    1
  1933   700   699    1
  1934   830   832    1
  1935  1105  1104    1
  1936   699   697    1
  1937  1092  1098   ar
  1938   687   686   ar
  1939   623   622    2
  1940   590   592    1
  1941   590   591    1
  1942  1026  1024    1
  1943  1030  1028   ar
  1944   895   893    1
  1945  1005  1006   ar
  1946   711   712   ar
  1947   868   849    2
  1948  1104  1102    1
  1949   832   834    1
  1950   832   833    1
  1951   627   608    2
  1952   698   697    1
  1953   834   835    1
  1954  1054  1055   ar
  1955  1054  1051   ar
  1956   595   596   ar
  1957  1073  1075   ar
  1958  1073  1072   ar
  1959  1028  1029    2
  1960   684   685   ar
  1961  1024  1025    1
  1962   645   644    2
  1963   873   872    1
  1964   912   930    2
  1965   912   931    1
  1966   858   853    1
  1967   858   856    1
  1968  1103  1102    1
  1969  1103  1101    1
  1970   697   695    1
  1971   894   893    1
  1972   894   892    1
  1973  1039  1038    1
  1974   911   892    2
  1975   592   593    1
  1976  1075  1076   ar
  1977   591   608    1
  1978  1097  1098   ar
  1979   598   596   ar
  1980  1122  1101    2
  1981   624   622   ar
  1982   624   625   ar
  1983   622   621   ar
  1984   874   872    1
  1985   874   875    1
  1986  1052  1051   ar
  1987  1052  1047   ar
  1988  1098  1088    1
  1989  1055  1056   ar
  1990   853   852    1
  1991   596   597    1
  1992  1072  1070   ar
  1993  1051  1050   ar
  1994   686   685   ar
  1995   686   689   ar
  1996   833   849    1
  1997   608   626    1
  1998   608   610    1
  1999  1078  1059    2
  2000   849   851    1
  2001   849   867    1
  2002   685   691   ar
  2003   851   850    1
  2004   856   854    1
  2005   856   857    1
  2006   666   665    2
  2007   892   875    1
  2008   892   910    1
  2009  1101  1121    1
  2010  1101  1085    1
  2011   872   870    1
  2012   644   638   ar
  2013   644   643   ar
  2014  1086  1088    1
  2015  1086  1084    1
  2016  1086  1087    1
  2017  1038  1040    1
  2018   625   618   ar
  2019  1076  1069   ar
  2020   621   619   ar
  2021   854   852    1
  2022   854   855    1
  2023   638   639   ar
  2024  1047  1048   ar
  2025  1100  1079    2
  2026  1088  1083    1
  2027   871   870    1
  2028   871   869    1
  2029   695   696    1
  2030   891   869    2
  2031   852   850    1
  2032  1056  1050   ar
  2033  1056  1046    1
  2034  1084  1085    1
  2035  1084  1082    1
  2036   689   690   ar
  2037  1070  1069   ar
  2038  1070  1071    2
  2039   665   664   ar
  2040   665   667   ar
  2041  1050  1049   ar
  2042   664   662   ar
  2043   610   609    1
  2044   696   694    1
  2045   643   646   ar
  2046   643   642   ar
  2047   691   690   ar
  2048   691   680    1
  2049   646   647   ar
  2050  1059  1061    1
  2051  1059  1077    1
  2052  1059  1043    1
  2053  1069  1068    1
  2054  1042  1040    1
  2055  1042  1043    1
  2056  1042  1044    1
  2057   869   855    1
  2058   869   890    1
  2059   618   619   ar
  2060   618   617    1
  2061  1040  1041    1
  2062  1081  1079    1
  2063  1081  1080    1
  2064  1041  1046    1
  2065   678   679    1
  2066   678   680    1
  2067   678   676    1
  2068   619   620    2
  2069  1083  1082    1
  2070  1061  1060    1
  2071  1048  1049   ar
  2072   639   640    1
  2073   639   641   ar
  2074   680   675    1
  2075  1079  1099    1
  2076  1079  1065    1
  2077   663   662    2
  2078  1046  1044    1
  2079   662   661   ar
  2080  1082  1080    1
  2081   609   611    1
  2082   667   668   ar
  2083   612   617    1
  2084   612   611    1
  2085   642   641   ar
  2086   642   648   ar
  2087  1044  1045    1
  2088   647   648   ar
  2089   715   694    2
  2090   694   677    1
  2091   694   714    1
  2092  1064  1066    1
  2093  1064  1065    1
  2094  1064  1062    1
  2095  1068  1066    1
  2096  1068  1063    1
  2097   617   615    1
  2098   676   677    1
  2099   676   674    1
  2100  1066  1067    1
  2101   611   613    1
  2102   650   628    2
  2103  1060  1062    1
  2104  1063  1062    1
  2105   648   637    1
  2106   675   674    1
  2107   661   668   ar
  2108   661   660    1
  2109   613   615    1
  2110   613   614    1
  2111   615   616    1
  2112   674   672    1
  2113   614   628    1
  2114   628   630    1
  2115   628   649    1
  2116   660   658    1
  2117   660   655    1
  2118   637   632    1
  2119   637   635    1
  2120   630   629    1
  2121   672   673    1
  2122   658   659    1
  2123   658   656    1
  2124   632   631    1
  2125   635   633    1
  2126   635   636    1
  2127   655   654    1
  2128   670   651    2
  2129   633   631    1
  2130   633   634    1
  2131   673   671    1
  2132   629   631    1
  2133   656   654    1
  2134   656   657    1
  2135   653   651    1
  2136   653   652    1
  2137   693   671    2
  2138   654   652    1
  2139   651   634    1
  2140   651   669    1
  2141   671   657    1
  2142   671   692    1
