ligand
 OpenBabel02271912143D
libRbt.so/2013.1/901 2013/11/27
 13 14  0  0  0  0  0  0  0  0999 V2000
   34.3051   33.8578   22.9791 N   0  0  0  0  0  0  0  0  0  0  0  0
   33.4812   32.8208   23.4536 C   0  0  0  0  0  0  0  0  0  0  0  0
   32.4064   32.4646   22.6499 N   0  0  0  0  0  0  0  0  0  0  0  0
   33.6301   32.1693   24.6322 N   0  0  0  0  0  0  0  0  0  0  0  0
   34.7229   32.6393   25.3543 C   0  0  0  0  0  0  0  0  0  0  0  0
   35.6045   33.6517   24.9560 C   0  0  0  0  0  0  0  0  0  0  0  0
   35.4281   34.3169   23.7339 C   0  0  0  0  0  0  0  0  0  0  0  0
   36.1141   35.2227   23.2836 O   0  0  0  0  0  0  0  0  0  0  0  0
   36.5792   33.8342   25.9637 C   0  0  0  0  0  0  0  0  0  0  0  0
   36.2830   32.9218   26.9644 C   0  0  0  0  0  0  0  0  0  0  0  0
   35.1366   32.1763   26.5899 N   0  0  0  0  0  0  0  0  0  0  0  0
   37.6622   34.8522   25.8902 C   0  0  0  0  0  0  0  0  0  0  0  0
   38.8309   34.4327   26.6793 N   0  0  0  0  0  0  0  0  0  0  0  0
  1  2  1  0  0  0  0
  1  7  1  0  0  0  0
  2  3  1  0  0  0  0
  2  4  2  0  0  0  0
  4  5  1  0  0  0  0
  5  6  2  0  0  0  0
  5 11  1  0  0  0  0
  6  7  1  0  0  0  0
  6  9  1  0  0  0  0
  7  8  2  0  0  0  0
  9 10  2  0  0  0  0
  9 12  1  0  0  0  0
 10 11  1  0  0  0  0
 12 13  1  0  0  0  0
M  END
>  <CHROM.1>
-153.44997577,35.41074110,33.51821153,24.82312675,-2.82017840,0.58147090
2.16653552

>  <Name>
ligand

>  <RI>
0

>  <Rbt.Current_Directory>
/home/itssahil/PROJECTS/Mol_Feturizer/Test_systems_manuscript/rnas/3q50

>  <Rbt.Executable>
rbdock ($Id: //depot/dev/client3/rdock/2013.1/src/exe/rbdock.cxx#4 $)

>  <Rbt.Library>
libRbt.so (2013.1, Build901 2013/11/27)

>  <Rbt.Parameter_File>
/export/apps/rDock/src/rDock_2013.1_src/data/scripts/dock_solv.prm

>  <Rbt.Receptor>
prm/pocket_docking_6.prm

>  <SCORE>
-17.0171

>  <SCORE.INTER>
-16.964

>  <SCORE.INTER.CONST>
1

>  <SCORE.INTER.POLAR>
0

>  <SCORE.INTER.ROT>
1

>  <SCORE.INTER.SOLV>
21.1925

>  <SCORE.INTER.VDW>
-22.6402

>  <SCORE.INTER.norm>
-1.30493

>  <SCORE.INTRA>
-0.0530664

>  <SCORE.INTRA.DIHEDRAL>
-0.0290516

>  <SCORE.INTRA.DIHEDRAL.0>
1.65305

>  <SCORE.INTRA.POLAR>
0

>  <SCORE.INTRA.POLAR.0>
0

>  <SCORE.INTRA.REPUL>
0

>  <SCORE.INTRA.REPUL.0>
0

>  <SCORE.INTRA.SOLV>
-0.00475152

>  <SCORE.INTRA.SOLV.lig_0>
-46.9527

>  <SCORE.INTRA.VDW>
-0.0361649

>  <SCORE.INTRA.VDW.0>
-0.177978

>  <SCORE.INTRA.norm>
-0.00408203

>  <SCORE.RESTR>
0

>  <SCORE.RESTR.CAVITY>
0

>  <SCORE.RESTR.norm>
0

>  <SCORE.SYSTEM>
0

>  <SCORE.SYSTEM.CONST>
0

>  <SCORE.SYSTEM.DIHEDRAL>
0

>  <SCORE.SYSTEM.SOLV>
0

>  <SCORE.SYSTEM.norm>
0

>  <SCORE.heavy>
13

>  <SCORE.norm>
-1.30901

>  <RMSD>
0.509

$$$$
ligand
 OpenBabel02271912143D
libRbt.so/2013.1/901 2013/11/27
 13 14  0  0  0  0  0  0  0  0999 V2000
   34.2660   33.8324   22.9262 N   0  0  0  0  0  0  0  0  0  0  0  0
   33.4485   32.7979   23.4168 C   0  0  0  0  0  0  0  0  0  0  0  0
   32.3713   32.4281   22.6225 N   0  0  0  0  0  0  0  0  0  0  0  0
   33.6056   32.1607   24.6022 N   0  0  0  0  0  0  0  0  0  0  0  0
   34.7000   32.6434   25.3134 C   0  0  0  0  0  0  0  0  0  0  0  0
   35.5756   33.6545   24.8991 C   0  0  0  0  0  0  0  0  0  0  0  0
   35.3908   34.3047   23.6702 C   0  0  0  0  0  0  0  0  0  0  0  0
   36.0711   35.2078   23.2061 O   0  0  0  0  0  0  0  0  0  0  0  0
   36.5543   33.8526   25.8999 C   0  0  0  0  0  0  0  0  0  0  0  0
   36.2665   32.9508   26.9126 C   0  0  0  0  0  0  0  0  0  0  0  0
   35.1213   32.1965   26.5524 N   0  0  0  0  0  0  0  0  0  0  0  0
   37.6330   34.8738   25.8094 C   0  0  0  0  0  0  0  0  0  0  0  0
   38.7993   34.4777   26.6140 N   0  0  0  0  0  0  0  0  0  0  0  0
  1  2  1  0  0  0  0
  1  7  1  0  0  0  0
  2  3  1  0  0  0  0
  2  4  2  0  0  0  0
  4  5  1  0  0  0  0
  5  6  2  0  0  0  0
  5 11  1  0  0  0  0
  6  7  1  0  0  0  0
  6  9  1  0  0  0  0
  7  8  2  0  0  0  0
  9 10  2  0  0  0  0
  9 12  1  0  0  0  0
 10 11  1  0  0  0  0
 12 13  1  0  0  0  0
M  END
>  <CHROM.1>
-154.30107671,35.38113319,33.51948514,24.77008647,-2.82675812,0.58339546
2.15882109

>  <Name>
ligand

>  <RI>
0

>  <Rbt.Current_Directory>
/home/itssahil/PROJECTS/Mol_Feturizer/Test_systems_manuscript/rnas/3q50

>  <Rbt.Executable>
rbdock ($Id: //depot/dev/client3/rdock/2013.1/src/exe/rbdock.cxx#4 $)

>  <Rbt.Library>
libRbt.so (2013.1, Build901 2013/11/27)

>  <Rbt.Parameter_File>
/export/apps/rDock/src/rDock_2013.1_src/data/scripts/dock_solv.prm

>  <Rbt.Receptor>
prm/pocket_docking_7.prm

>  <SCORE>
-17.0129

>  <SCORE.INTER>
-16.9624

>  <SCORE.INTER.CONST>
1

>  <SCORE.INTER.POLAR>
0

>  <SCORE.INTER.ROT>
1

>  <SCORE.INTER.SOLV>
21.4404

>  <SCORE.INTER.VDW>
-22.7217

>  <SCORE.INTER.norm>
-1.3048

>  <SCORE.INTRA>
-0.050531

>  <SCORE.INTRA.DIHEDRAL>
-0.0286267

>  <SCORE.INTRA.DIHEDRAL.0>
1.65305

>  <SCORE.INTRA.POLAR>
0

>  <SCORE.INTRA.POLAR.0>
0

>  <SCORE.INTRA.REPUL>
0

>  <SCORE.INTRA.REPUL.0>
0

>  <SCORE.INTRA.SOLV>
-0.00449198

>  <SCORE.INTRA.SOLV.lig_0>
-46.9527

>  <SCORE.INTRA.VDW>
-0.0339717

>  <SCORE.INTRA.VDW.0>
-0.177978

>  <SCORE.INTRA.norm>
-0.003887

>  <SCORE.RESTR>
0

>  <SCORE.RESTR.CAVITY>
0

>  <SCORE.RESTR.norm>
0

>  <SCORE.SYSTEM>
0

>  <SCORE.SYSTEM.CONST>
0

>  <SCORE.SYSTEM.DIHEDRAL>
0

>  <SCORE.SYSTEM.SOLV>
0

>  <SCORE.SYSTEM.norm>
0

>  <SCORE.heavy>
13

>  <SCORE.norm>
-1.30868

>  <RMSD>
0.510

$$$$
ligand
 OpenBabel02271912143D
libRbt.so/2013.1/901 2013/11/27
 13 14  0  0  0  0  0  0  0  0999 V2000
   34.3098   33.8609   22.9801 N   0  0  0  0  0  0  0  0  0  0  0  0
   33.4759   32.8346   23.4602 C   0  0  0  0  0  0  0  0  0  0  0  0
   32.3995   32.4823   22.6569 N   0  0  0  0  0  0  0  0  0  0  0  0
   33.6168   32.1901   24.6436 N   0  0  0  0  0  0  0  0  0  0  0  0
   34.7123   32.6555   25.3646 C   0  0  0  0  0  0  0  0  0  0  0  0
   35.6035   33.6572   24.9610 C   0  0  0  0  0  0  0  0  0  0  0  0
   35.4354   34.3154   23.7339 C   0  0  0  0  0  0  0  0  0  0  0  0
   36.1303   35.2119   23.2786 O   0  0  0  0  0  0  0  0  0  0  0  0
   36.5779   33.8382   25.9693 C   0  0  0  0  0  0  0  0  0  0  0  0
   36.2717   32.9355   26.9758 C   0  0  0  0  0  0  0  0  0  0  0  0
   35.1195   32.1975   26.6042 N   0  0  0  0  0  0  0  0  0  0  0  0
   37.6700   34.8461   25.8909 C   0  0  0  0  0  0  0  0  0  0  0  0
   38.8340   34.4210   26.6839 N   0  0  0  0  0  0  0  0  0  0  0  0
  1  2  1  0  0  0  0
  1  7  1  0  0  0  0
  2  3  1  0  0  0  0
  2  4  2  0  0  0  0
  4  5  1  0  0  0  0
  5  6  2  0  0  0  0
  5 11  1  0  0  0  0
  6  7  1  0  0  0  0
  6  9  1  0  0  0  0
  7  8  2  0  0  0  0
  9 10  2  0  0  0  0
  9 12  1  0  0  0  0
 10 11  1  0  0  0  0
 12 13  1  0  0  0  0
M  END
>  <CHROM.1>
-153.38322068,35.40894089,33.52444954,24.82855381,-2.81242983,0.57512114
2.15526723

>  <Name>
ligand

>  <RI>
0

>  <Rbt.Current_Directory>
/home/itssahil/PROJECTS/Mol_Feturizer/Test_systems_manuscript/rnas/3q50

>  <Rbt.Executable>
rbdock ($Id: //depot/dev/client3/rdock/2013.1/src/exe/rbdock.cxx#4 $)

>  <Rbt.Library>
libRbt.so (2013.1, Build901 2013/11/27)

>  <Rbt.Parameter_File>
/export/apps/rDock/src/rDock_2013.1_src/data/scripts/dock_solv.prm

>  <Rbt.Receptor>
prm/pocket_docking_3.prm

>  <SCORE>
-16.9618

>  <SCORE.INTER>
-16.9085

>  <SCORE.INTER.CONST>
1

>  <SCORE.INTER.POLAR>
0

>  <SCORE.INTER.ROT>
1

>  <SCORE.INTER.SOLV>
21.1899

>  <SCORE.INTER.VDW>
-22.6023

>  <SCORE.INTER.norm>
-1.30066

>  <SCORE.INTRA>
-0.053264

>  <SCORE.INTRA.DIHEDRAL>
-0.0290802

>  <SCORE.INTRA.DIHEDRAL.0>
1.65305

>  <SCORE.INTRA.POLAR>
0

>  <SCORE.INTRA.POLAR.0>
0

>  <SCORE.INTRA.REPUL>
0

>  <SCORE.INTRA.REPUL.0>
0

>  <SCORE.INTRA.SOLV>
-0.00477193

>  <SCORE.INTRA.SOLV.lig_0>
-46.9527

>  <SCORE.INTRA.VDW>
-0.036338

>  <SCORE.INTRA.VDW.0>
-0.177978

>  <SCORE.INTRA.norm>
-0.00409723

>  <SCORE.RESTR>
0

>  <SCORE.RESTR.CAVITY>
0

>  <SCORE.RESTR.norm>
0

>  <SCORE.SYSTEM>
0

>  <SCORE.SYSTEM.CONST>
0

>  <SCORE.SYSTEM.DIHEDRAL>
0

>  <SCORE.SYSTEM.SOLV>
0

>  <SCORE.SYSTEM.norm>
0

>  <SCORE.heavy>
13

>  <SCORE.norm>
-1.30475

>  <RMSD>
0.514

$$$$
ligand
 OpenBabel02271912143D
libRbt.so/2013.1/901 2013/11/27
 13 14  0  0  0  0  0  0  0  0999 V2000
   34.2832   33.8768   23.0142 N   0  0  0  0  0  0  0  0  0  0  0  0
   33.4468   32.8540   23.4974 C   0  0  0  0  0  0  0  0  0  0  0  0
   32.3566   32.5177   22.7059 N   0  0  0  0  0  0  0  0  0  0  0  0
   33.5979   32.1986   24.6735 N   0  0  0  0  0  0  0  0  0  0  0  0
   34.7071   32.6484   25.3832 C   0  0  0  0  0  0  0  0  0  0  0  0
   35.6017   33.6456   24.9757 C   0  0  0  0  0  0  0  0  0  0  0  0
   35.4228   34.3152   23.7564 C   0  0  0  0  0  0  0  0  0  0  0  0
   36.1194   35.2093   23.2989 O   0  0  0  0  0  0  0  0  0  0  0  0
   36.5911   33.8098   25.9721 C   0  0  0  0  0  0  0  0  0  0  0  0
   36.2905   32.9016   26.9753 C   0  0  0  0  0  0  0  0  0  0  0  0
   35.1269   32.1768   26.6135 N   0  0  0  0  0  0  0  0  0  0  0  0
   37.6910   34.8086   25.8870 C   0  0  0  0  0  0  0  0  0  0  0  0
   38.8132   34.4288   26.7593 N   0  0  0  0  0  0  0  0  0  0  0  0
  1  2  1  0  0  0  0
  1  7  1  0  0  0  0
  2  3  1  0  0  0  0
  2  4  2  0  0  0  0
  4  5  1  0  0  0  0
  5  6  2  0  0  0  0
  5 11  1  0  0  0  0
  6  7  1  0  0  0  0
  6  9  1  0  0  0  0
  7  8  2  0  0  0  0
  9 10  2  0  0  0  0
  9 12  1  0  0  0  0
 10 11  1  0  0  0  0
 12 13  1  0  0  0  0
M  END
>  <CHROM.1>
-158.63908759,35.40018903,33.52065995,24.85286991,-2.81531206,0.56864895
2.16665095

>  <Name>
ligand

>  <RI>
0

>  <Rbt.Current_Directory>
/home/itssahil/PROJECTS/Mol_Feturizer/Test_systems_manuscript/rnas/3q50

>  <Rbt.Executable>
rbdock ($Id: //depot/dev/client3/rdock/2013.1/src/exe/rbdock.cxx#4 $)

>  <Rbt.Library>
libRbt.so (2013.1, Build901 2013/11/27)

>  <Rbt.Parameter_File>
/export/apps/rDock/src/rDock_2013.1_src/data/scripts/dock_solv.prm

>  <Rbt.Receptor>
prm/pocket_docking_8.prm

>  <SCORE>
-16.9549

>  <SCORE.INTER>
-16.9176

>  <SCORE.INTER.CONST>
1

>  <SCORE.INTER.POLAR>
0

>  <SCORE.INTER.ROT>
1

>  <SCORE.INTER.SOLV>
21.1397

>  <SCORE.INTER.VDW>
-22.5916

>  <SCORE.INTER.norm>
-1.30135

>  <SCORE.INTRA>
-0.0372665

>  <SCORE.INTRA.DIHEDRAL>
-0.0247727

>  <SCORE.INTRA.DIHEDRAL.0>
1.65305

>  <SCORE.INTRA.POLAR>
0

>  <SCORE.INTRA.POLAR.0>
0

>  <SCORE.INTRA.REPUL>
0

>  <SCORE.INTRA.REPUL.0>
0

>  <SCORE.INTRA.SOLV>
-0.00319734

>  <SCORE.INTRA.SOLV.lig_0>
-46.9527

>  <SCORE.INTRA.VDW>
-0.0232815

>  <SCORE.INTRA.VDW.0>
-0.177978

>  <SCORE.INTRA.norm>
-0.00286665

>  <SCORE.RESTR>
0

>  <SCORE.RESTR.CAVITY>
0

>  <SCORE.RESTR.norm>
0

>  <SCORE.SYSTEM>
0

>  <SCORE.SYSTEM.CONST>
0

>  <SCORE.SYSTEM.DIHEDRAL>
0

>  <SCORE.SYSTEM.SOLV>
0

>  <SCORE.SYSTEM.norm>
0

>  <SCORE.heavy>
13

>  <SCORE.norm>
-1.30422

>  <RMSD>
0.517

$$$$
ligand
 OpenBabel02271912143D
libRbt.so/2013.1/901 2013/11/27
 13 14  0  0  0  0  0  0  0  0999 V2000
   34.2448   33.8601   22.9377 N   0  0  0  0  0  0  0  0  0  0  0  0
   33.4207   32.8297   23.4260 C   0  0  0  0  0  0  0  0  0  0  0  0
   32.3372   32.4734   22.6342 N   0  0  0  0  0  0  0  0  0  0  0  0
   33.5774   32.1847   24.6071 N   0  0  0  0  0  0  0  0  0  0  0  0
   34.6787   32.6543   25.3165 C   0  0  0  0  0  0  0  0  0  0  0  0
   35.5610   33.6603   24.9041 C   0  0  0  0  0  0  0  0  0  0  0  0
   35.3765   34.3189   23.6796 C   0  0  0  0  0  0  0  0  0  0  0  0
   36.0624   35.2189   23.2176 O   0  0  0  0  0  0  0  0  0  0  0  0
   36.5456   33.8447   25.9018 C   0  0  0  0  0  0  0  0  0  0  0  0
   36.2544   32.9397   26.9107 C   0  0  0  0  0  0  0  0  0  0  0  0
   35.1015   32.1970   26.5511 N   0  0  0  0  0  0  0  0  0  0  0  0
   37.6323   34.8574   25.8124 C   0  0  0  0  0  0  0  0  0  0  0  0
   38.8284   34.4092   26.5426 N   0  0  0  0  0  0  0  0  0  0  0  0
  1  2  1  0  0  0  0
  1  7  1  0  0  0  0
  2  3  1  0  0  0  0
  2  4  2  0  0  0  0
  4  5  1  0  0  0  0
  5  6  2  0  0  0  0
  5 11  1  0  0  0  0
  6  7  1  0  0  0  0
  6  9  1  0  0  0  0
  7  8  2  0  0  0  0
  9 10  2  0  0  0  0
  9 12  1  0  0  0  0
 10 11  1  0  0  0  0
 12 13  1  0  0  0  0
M  END
>  <CHROM.1>
-150.84793611,35.36734570,33.52458101,24.76964747,-2.82858484,0.56874364
2.16381997

>  <Name>
ligand

>  <RI>
0

>  <Rbt.Current_Directory>
/home/itssahil/PROJECTS/Mol_Feturizer/Test_systems_manuscript/rnas/3q50

>  <Rbt.Executable>
rbdock ($Id: //depot/dev/client3/rdock/2013.1/src/exe/rbdock.cxx#4 $)

>  <Rbt.Library>
libRbt.so (2013.1, Build901 2013/11/27)

>  <Rbt.Parameter_File>
/export/apps/rDock/src/rDock_2013.1_src/data/scripts/dock_solv.prm

>  <Rbt.Receptor>
prm/pocket_docking_3.prm

>  <SCORE>
-16.9821

>  <SCORE.INTER>
-16.9215

>  <SCORE.INTER.CONST>
1

>  <SCORE.INTER.POLAR>
0

>  <SCORE.INTER.ROT>
1

>  <SCORE.INTER.SOLV>
21.5754

>  <SCORE.INTER.VDW>
-22.7395

>  <SCORE.INTER.norm>
-1.30165

>  <SCORE.INTRA>
-0.0606159

>  <SCORE.INTRA.DIHEDRAL>
-0.0296584

>  <SCORE.INTRA.DIHEDRAL.0>
1.65305

>  <SCORE.INTRA.POLAR>
0

>  <SCORE.INTRA.POLAR.0>
0

>  <SCORE.INTRA.REPUL>
0

>  <SCORE.INTRA.REPUL.0>
0

>  <SCORE.INTRA.SOLV>
-0.00555028

>  <SCORE.INTRA.SOLV.lig_0>
-46.9527

>  <SCORE.INTRA.VDW>
-0.0430116

>  <SCORE.INTRA.VDW.0>
-0.177978

>  <SCORE.INTRA.norm>
-0.00466276

>  <SCORE.RESTR>
0

>  <SCORE.RESTR.CAVITY>
0

>  <SCORE.RESTR.norm>
0

>  <SCORE.SYSTEM>
0

>  <SCORE.SYSTEM.CONST>
0

>  <SCORE.SYSTEM.DIHEDRAL>
0

>  <SCORE.SYSTEM.SOLV>
0

>  <SCORE.SYSTEM.norm>
0

>  <SCORE.heavy>
13

>  <SCORE.norm>
-1.30632

>  <RMSD>
0.528

$$$$
ligand
 OpenBabel02271912143D
libRbt.so/2013.1/901 2013/11/27
 13 14  0  0  0  0  0  0  0  0999 V2000
   34.2464   33.8084   22.9070 N   0  0  0  0  0  0  0  0  0  0  0  0
   33.4351   32.7685   23.3964 C   0  0  0  0  0  0  0  0  0  0  0  0
   32.3615   32.3916   22.6006 N   0  0  0  0  0  0  0  0  0  0  0  0
   33.5948   32.1324   24.5820 N   0  0  0  0  0  0  0  0  0  0  0  0
   34.6849   32.6223   25.2948 C   0  0  0  0  0  0  0  0  0  0  0  0
   35.5543   33.6392   24.8818 C   0  0  0  0  0  0  0  0  0  0  0  0
   35.3669   34.2882   23.6526 C   0  0  0  0  0  0  0  0  0  0  0  0
   36.0419   35.1959   23.1895 O   0  0  0  0  0  0  0  0  0  0  0  0
   36.5303   33.8438   25.8840 C   0  0  0  0  0  0  0  0  0  0  0  0
   36.2470   32.9401   26.8963 C   0  0  0  0  0  0  0  0  0  0  0  0
   35.1075   32.1782   26.5344 N   0  0  0  0  0  0  0  0  0  0  0  0
   37.6023   34.8723   25.7950 C   0  0  0  0  0  0  0  0  0  0  0  0
   38.8025   34.4439   26.5301 N   0  0  0  0  0  0  0  0  0  0  0  0
  1  2  1  0  0  0  0
  1  7  1  0  0  0  0
  2  3  1  0  0  0  0
  2  4  2  0  0  0  0
  4  5  1  0  0  0  0
  5  6  2  0  0  0  0
  5 11  1  0  0  0  0
  6  7  1  0  0  0  0
  6  9  1  0  0  0  0
  7  8  2  0  0  0  0
  9 10  2  0  0  0  0
  9 12  1  0  0  0  0
 10 11  1  0  0  0  0
 12 13  1  0  0  0  0
M  END
>  <CHROM.1>
-150.63815886,35.36360380,33.49967081,24.74668817,-2.83320551,0.58401670
2.16070334

>  <Name>
ligand

>  <RI>
0

>  <Rbt.Current_Directory>
/home/itssahil/PROJECTS/Mol_Feturizer/Test_systems_manuscript/rnas/3q50

>  <Rbt.Executable>
rbdock ($Id: //depot/dev/client3/rdock/2013.1/src/exe/rbdock.cxx#4 $)

>  <Rbt.Library>
libRbt.so (2013.1, Build901 2013/11/27)

>  <Rbt.Parameter_File>
/export/apps/rDock/src/rDock_2013.1_src/data/scripts/dock_solv.prm

>  <Rbt.Receptor>
prm/pocket_docking_3.prm

>  <SCORE>
-17.0089

>  <SCORE.INTER>
-16.9477

>  <SCORE.INTER.CONST>
1

>  <SCORE.INTER.POLAR>
0

>  <SCORE.INTER.ROT>
1

>  <SCORE.INTER.SOLV>
21.6226

>  <SCORE.INTER.VDW>
-22.7727

>  <SCORE.INTER.norm>
-1.30367

>  <SCORE.INTRA>
-0.0612095

>  <SCORE.INTRA.DIHEDRAL>
-0.0296616

>  <SCORE.INTRA.DIHEDRAL.0>
1.65305

>  <SCORE.INTRA.POLAR>
0

>  <SCORE.INTRA.POLAR.0>
0

>  <SCORE.INTRA.REPUL>
0

>  <SCORE.INTRA.REPUL.0>
0

>  <SCORE.INTRA.SOLV>
-0.00561483

>  <SCORE.INTRA.SOLV.lig_0>
-46.9527

>  <SCORE.INTRA.VDW>
-0.0435713

>  <SCORE.INTRA.VDW.0>
-0.177978

>  <SCORE.INTRA.norm>
-0.00470843

>  <SCORE.RESTR>
0

>  <SCORE.RESTR.CAVITY>
0

>  <SCORE.RESTR.norm>
0

>  <SCORE.SYSTEM>
0

>  <SCORE.SYSTEM.CONST>
0

>  <SCORE.SYSTEM.DIHEDRAL>
0

>  <SCORE.SYSTEM.SOLV>
0

>  <SCORE.SYSTEM.norm>
0

>  <SCORE.heavy>
13

>  <SCORE.norm>
-1.30838

>  <RMSD>
0.530

$$$$
ligand
 OpenBabel02271912143D
libRbt.so/2013.1/901 2013/11/27
 13 14  0  0  0  0  0  0  0  0999 V2000
   34.2516   33.8222   22.8911 N   0  0  0  0  0  0  0  0  0  0  0  0
   33.4516   32.7638   23.3592 C   0  0  0  0  0  0  0  0  0  0  0  0
   32.3891   32.3838   22.5501 N   0  0  0  0  0  0  0  0  0  0  0  0
   33.6118   32.1125   24.5364 N   0  0  0  0  0  0  0  0  0  0  0  0
   34.6898   32.6071   25.2643 C   0  0  0  0  0  0  0  0  0  0  0  0
   35.5478   33.6421   24.8726 C   0  0  0  0  0  0  0  0  0  0  0  0
   35.3599   34.3065   23.6518 C   0  0  0  0  0  0  0  0  0  0  0  0
   36.0253   35.2303   23.2070 O   0  0  0  0  0  0  0  0  0  0  0  0
   36.5137   33.8454   25.8848 C   0  0  0  0  0  0  0  0  0  0  0  0
   36.2360   32.9229   26.8815 C   0  0  0  0  0  0  0  0  0  0  0  0
   35.1099   32.1506   26.5002 N   0  0  0  0  0  0  0  0  0  0  0  0
   37.5716   34.8899   25.8188 C   0  0  0  0  0  0  0  0  0  0  0  0
   38.7798   34.4592   26.5394 N   0  0  0  0  0  0  0  0  0  0  0  0
  1  2  1  0  0  0  0
  1  7  1  0  0  0  0
  2  3  1  0  0  0  0
  2  4  2  0  0  0  0
  4  5  1  0  0  0  0
  5  6  2  0  0  0  0
  5 11  1  0  0  0  0
  6  7  1  0  0  0  0
  6  9  1  0  0  0  0
  7  8  2  0  0  0  0
  9 10  2  0  0  0  0
  9 12  1  0  0  0  0
 10 11  1  0  0  0  0
 12 13  1  0  0  0  0
M  END
>  <CHROM.1>
-149.80148980,35.36057416,33.50117043,24.73270748,-2.83638956,0.59837540
2.17680259

>  <Name>
ligand

>  <RI>
0

>  <Rbt.Current_Directory>
/home/itssahil/PROJECTS/Mol_Feturizer/Test_systems_manuscript/rnas/3q50

>  <Rbt.Executable>
rbdock ($Id: //depot/dev/client3/rdock/2013.1/src/exe/rbdock.cxx#4 $)

>  <Rbt.Library>
libRbt.so (2013.1, Build901 2013/11/27)

>  <Rbt.Parameter_File>
/export/apps/rDock/src/rDock_2013.1_src/data/scripts/dock_solv.prm

>  <Rbt.Receptor>
prm/pocket_docking_5.prm

>  <SCORE>
-16.971

>  <SCORE.INTER>
-16.9075

>  <SCORE.INTER.CONST>
1

>  <SCORE.INTER.POLAR>
0

>  <SCORE.INTER.ROT>
1

>  <SCORE.INTER.SOLV>
21.5804

>  <SCORE.INTER.VDW>
-22.7318

>  <SCORE.INTER.norm>
-1.30058

>  <SCORE.INTRA>
-0.0635524

>  <SCORE.INTRA.DIHEDRAL>
-0.0296066

>  <SCORE.INTRA.DIHEDRAL.0>
1.65305

>  <SCORE.INTRA.POLAR>
0

>  <SCORE.INTRA.POLAR.0>
0

>  <SCORE.INTRA.REPUL>
0

>  <SCORE.INTRA.REPUL.0>
0

>  <SCORE.INTRA.SOLV>
-0.00587221

>  <SCORE.INTRA.SOLV.lig_0>
-46.9527

>  <SCORE.INTRA.VDW>
-0.045813

>  <SCORE.INTRA.VDW.0>
-0.177978

>  <SCORE.INTRA.norm>
-0.00488864

>  <SCORE.RESTR>
0

>  <SCORE.RESTR.CAVITY>
0

>  <SCORE.RESTR.norm>
0

>  <SCORE.SYSTEM>
0

>  <SCORE.SYSTEM.CONST>
0

>  <SCORE.SYSTEM.DIHEDRAL>
0

>  <SCORE.SYSTEM.SOLV>
0

>  <SCORE.SYSTEM.norm>
0

>  <SCORE.heavy>
13

>  <SCORE.norm>
-1.30547

>  <RMSD>
0.536

$$$$
ligand
 OpenBabel02271912143D
libRbt.so/2013.1/901 2013/11/27
 13 14  0  0  0  0  0  0  0  0999 V2000
   34.2845   33.8494   23.0331 N   0  0  0  0  0  0  0  0  0  0  0  0
   33.4380   32.8318   23.5100 C   0  0  0  0  0  0  0  0  0  0  0  0
   32.3599   32.4923   22.7036 N   0  0  0  0  0  0  0  0  0  0  0  0
   33.5688   32.1845   24.6930 N   0  0  0  0  0  0  0  0  0  0  0  0
   34.6675   32.6370   25.4172 C   0  0  0  0  0  0  0  0  0  0  0  0
   35.5708   33.6293   25.0170 C   0  0  0  0  0  0  0  0  0  0  0  0
   35.4131   34.2906   23.7903 C   0  0  0  0  0  0  0  0  0  0  0  0
   36.1190   35.1798   23.3377 O   0  0  0  0  0  0  0  0  0  0  0  0
   36.5445   33.7984   26.0280 C   0  0  0  0  0  0  0  0  0  0  0  0
   36.2258   32.8980   27.0327 C   0  0  0  0  0  0  0  0  0  0  0  0
   35.0665   32.1732   26.6574 N   0  0  0  0  0  0  0  0  0  0  0  0
   37.6479   34.7941   25.9535 C   0  0  0  0  0  0  0  0  0  0  0  0
   38.8018   34.3596   26.7561 N   0  0  0  0  0  0  0  0  0  0  0  0
  1  2  1  0  0  0  0
  1  7  1  0  0  0  0
  2  3  1  0  0  0  0
  2  4  2  0  0  0  0
  4  5  1  0  0  0  0
  5  6  2  0  0  0  0
  5 11  1  0  0  0  0
  6  7  1  0  0  0  0
  6  9  1  0  0  0  0
  7  8  2  0  0  0  0
  9 10  2  0  0  0  0
  9 12  1  0  0  0  0
 10 11  1  0  0  0  0
 12 13  1  0  0  0  0
M  END
>  <CHROM.1>
-153.75519745,35.37481692,33.49913132,24.88454713,-2.80231453,0.56785475
2.15103296

>  <Name>
ligand

>  <RI>
0

>  <Rbt.Current_Directory>
/home/itssahil/PROJECTS/Mol_Feturizer/Test_systems_manuscript/rnas/3q50

>  <Rbt.Executable>
rbdock ($Id: //depot/dev/client3/rdock/2013.1/src/exe/rbdock.cxx#4 $)

>  <Rbt.Library>
libRbt.so (2013.1, Build901 2013/11/27)

>  <Rbt.Parameter_File>
/export/apps/rDock/src/rDock_2013.1_src/data/scripts/dock_solv.prm

>  <Rbt.Receptor>
prm/pocket_docking_3.prm

>  <SCORE>
-17.0104

>  <SCORE.INTER>
-16.9583

>  <SCORE.INTER.CONST>
1

>  <SCORE.INTER.POLAR>
0

>  <SCORE.INTER.ROT>
1

>  <SCORE.INTER.SOLV>
21.1579

>  <SCORE.INTER.VDW>
-22.6248

>  <SCORE.INTER.norm>
-1.30448

>  <SCORE.INTRA>
-0.0521605

>  <SCORE.INTRA.DIHEDRAL>
-0.028912

>  <SCORE.INTRA.DIHEDRAL.0>
1.65305

>  <SCORE.INTRA.POLAR>
0

>  <SCORE.INTRA.POLAR.0>
0

>  <SCORE.INTRA.REPUL>
0

>  <SCORE.INTRA.REPUL.0>
0

>  <SCORE.INTRA.SOLV>
-0.00465831

>  <SCORE.INTRA.SOLV.lig_0>
-46.9527

>  <SCORE.INTRA.VDW>
-0.0353754

>  <SCORE.INTRA.VDW.0>
-0.177978

>  <SCORE.INTRA.norm>
-0.00401235

>  <SCORE.RESTR>
0

>  <SCORE.RESTR.CAVITY>
0

>  <SCORE.RESTR.norm>
0

>  <SCORE.SYSTEM>
0

>  <SCORE.SYSTEM.CONST>
0

>  <SCORE.SYSTEM.DIHEDRAL>
0

>  <SCORE.SYSTEM.SOLV>
0

>  <SCORE.SYSTEM.norm>
0

>  <SCORE.heavy>
13

>  <SCORE.norm>
-1.30849

>  <RMSD>
0.552

$$$$
ligand
 OpenBabel02271912143D
libRbt.so/2013.1/901 2013/11/27
 13 14  0  0  0  0  0  0  0  0999 V2000
   34.2970   33.8397   23.0451 N   0  0  0  0  0  0  0  0  0  0  0  0
   33.4454   32.8318   23.5331 C   0  0  0  0  0  0  0  0  0  0  0  0
   32.3634   32.4916   22.7322 N   0  0  0  0  0  0  0  0  0  0  0  0
   33.5749   32.1946   24.7218 N   0  0  0  0  0  0  0  0  0  0  0  0
   34.6781   32.6469   25.4393 C   0  0  0  0  0  0  0  0  0  0  0  0
   35.5865   33.6298   25.0281 C   0  0  0  0  0  0  0  0  0  0  0  0
   35.4300   34.2809   23.7956 C   0  0  0  0  0  0  0  0  0  0  0  0
   36.1404   35.1616   23.3334 O   0  0  0  0  0  0  0  0  0  0  0  0
   36.5635   33.8021   26.0353 C   0  0  0  0  0  0  0  0  0  0  0  0
   36.2415   32.9130   27.0489 C   0  0  0  0  0  0  0  0  0  0  0  0
   35.0770   32.1920   26.6828 N   0  0  0  0  0  0  0  0  0  0  0  0
   37.6729   34.7904   25.9492 C   0  0  0  0  0  0  0  0  0  0  0  0
   38.8703   34.2970   26.6473 N   0  0  0  0  0  0  0  0  0  0  0  0
  1  2  1  0  0  0  0
  1  7  1  0  0  0  0
  2  3  1  0  0  0  0
  2  4  2  0  0  0  0
  4  5  1  0  0  0  0
  5  6  2  0  0  0  0
  5 11  1  0  0  0  0
  6  7  1  0  0  0  0
  6  9  1  0  0  0  0
  7  8  2  0  0  0  0
  9 10  2  0  0  0  0
  9 12  1  0  0  0  0
 10 11  1  0  0  0  0
 12 13  1  0  0  0  0
M  END
>  <CHROM.1>
-148.37014562,35.39301279,33.49489781,24.88859591,-2.80587660,0.55314985
2.14133800

>  <Name>
ligand

>  <RI>
0

>  <Rbt.Current_Directory>
/home/itssahil/PROJECTS/Mol_Feturizer/Test_systems_manuscript/rnas/3q50

>  <Rbt.Executable>
rbdock ($Id: //depot/dev/client3/rdock/2013.1/src/exe/rbdock.cxx#4 $)

>  <Rbt.Library>
libRbt.so (2013.1, Build901 2013/11/27)

>  <Rbt.Parameter_File>
/export/apps/rDock/src/rDock_2013.1_src/data/scripts/dock_solv.prm

>  <Rbt.Receptor>
prm/pocket_docking_8.prm

>  <SCORE>
-16.9513

>  <SCORE.INTER>
-16.8838

>  <SCORE.INTER.CONST>
1

>  <SCORE.INTER.POLAR>
0

>  <SCORE.INTER.ROT>
1

>  <SCORE.INTER.SOLV>
21.2679

>  <SCORE.INTER.VDW>
-22.6119

>  <SCORE.INTER.norm>
-1.29876

>  <SCORE.INTRA>
-0.0674633

>  <SCORE.INTRA.DIHEDRAL>
-0.029261

>  <SCORE.INTRA.DIHEDRAL.0>
1.65305

>  <SCORE.INTRA.POLAR>
0

>  <SCORE.INTRA.POLAR.0>
0

>  <SCORE.INTRA.REPUL>
0

>  <SCORE.INTRA.REPUL.0>
0

>  <SCORE.INTRA.SOLV>
-0.00631153

>  <SCORE.INTRA.SOLV.lig_0>
-46.9527

>  <SCORE.INTRA.VDW>
-0.0496771

>  <SCORE.INTRA.VDW.0>
-0.177978

>  <SCORE.INTRA.norm>
-0.00518949

>  <SCORE.RESTR>
0

>  <SCORE.RESTR.CAVITY>
0

>  <SCORE.RESTR.norm>
0

>  <SCORE.SYSTEM>
0

>  <SCORE.SYSTEM.CONST>
0

>  <SCORE.SYSTEM.DIHEDRAL>
0

>  <SCORE.SYSTEM.SOLV>
0

>  <SCORE.SYSTEM.norm>
0

>  <SCORE.heavy>
13

>  <SCORE.norm>
-1.30395

>  <RMSD>
0.553

$$$$
ligand
 OpenBabel02271912143D
libRbt.so/2013.1/901 2013/11/27
 13 14  0  0  0  0  0  0  0  0999 V2000
   34.2927   33.8332   23.0030 N   0  0  0  0  0  0  0  0  0  0  0  0
   33.4443   32.8137   23.4723 C   0  0  0  0  0  0  0  0  0  0  0  0
   32.3755   32.4703   22.6552 N   0  0  0  0  0  0  0  0  0  0  0  0
   33.5647   32.1680   24.6573 N   0  0  0  0  0  0  0  0  0  0  0  0
   34.6547   32.6244   25.3923 C   0  0  0  0  0  0  0  0  0  0  0  0
   35.5592   33.6188   25.0003 C   0  0  0  0  0  0  0  0  0  0  0  0
   35.4122   34.2784   23.7713 C   0  0  0  0  0  0  0  0  0  0  0  0
   36.1202   35.1692   23.3251 O   0  0  0  0  0  0  0  0  0  0  0  0
   36.5220   33.7917   26.0211 C   0  0  0  0  0  0  0  0  0  0  0  0
   36.1955   32.8915   27.0234 C   0  0  0  0  0  0  0  0  0  0  0  0
   35.0422   32.1630   26.6370 N   0  0  0  0  0  0  0  0  0  0  0  0
   37.6233   34.7906   25.9568 C   0  0  0  0  0  0  0  0  0  0  0  0
   38.7720   34.3578   26.7677 N   0  0  0  0  0  0  0  0  0  0  0  0
  1  2  1  0  0  0  0
  1  7  1  0  0  0  0
  2  3  1  0  0  0  0
  2  4  2  0  0  0  0
  4  5  1  0  0  0  0
  5  6  2  0  0  0  0
  5 11  1  0  0  0  0
  6  7  1  0  0  0  0
  6  9  1  0  0  0  0
  7  8  2  0  0  0  0
  9 10  2  0  0  0  0
  9 12  1  0  0  0  0
 10 11  1  0  0  0  0
 12 13  1  0  0  0  0
M  END
>  <CHROM.1>
-153.54081197,35.36512251,33.48777431,24.86563634,-2.79415123,0.57552850
2.14550220

>  <Name>
ligand

>  <RI>
0

>  <Rbt.Current_Directory>
/home/itssahil/PROJECTS/Mol_Feturizer/Test_systems_manuscript/rnas/3q50

>  <Rbt.Executable>
rbdock ($Id: //depot/dev/client3/rdock/2013.1/src/exe/rbdock.cxx#4 $)

>  <Rbt.Library>
libRbt.so (2013.1, Build901 2013/11/27)

>  <Rbt.Parameter_File>
/export/apps/rDock/src/rDock_2013.1_src/data/scripts/dock_solv.prm

>  <Rbt.Receptor>
prm/pocket_docking_2.prm

>  <SCORE>
-17.0023

>  <SCORE.INTER>
-16.9495

>  <SCORE.INTER.CONST>
1

>  <SCORE.INTER.POLAR>
0

>  <SCORE.INTER.ROT>
1

>  <SCORE.INTER.SOLV>
21.1604

>  <SCORE.INTER.VDW>
-22.6198

>  <SCORE.INTER.norm>
-1.30381

>  <SCORE.INTRA>
-0.0527972

>  <SCORE.INTRA.DIHEDRAL>
-0.0290115

>  <SCORE.INTRA.DIHEDRAL.0>
1.65305

>  <SCORE.INTRA.POLAR>
0

>  <SCORE.INTRA.POLAR.0>
0

>  <SCORE.INTRA.REPUL>
0

>  <SCORE.INTRA.REPUL.0>
0

>  <SCORE.INTRA.SOLV>
-0.00472377

>  <SCORE.INTRA.SOLV.lig_0>
-46.9527

>  <SCORE.INTRA.VDW>
-0.0359296

>  <SCORE.INTRA.VDW.0>
-0.177978

>  <SCORE.INTRA.norm>
-0.00406132

>  <SCORE.RESTR>
0

>  <SCORE.RESTR.CAVITY>
0

>  <SCORE.RESTR.norm>
0

>  <SCORE.SYSTEM>
0

>  <SCORE.SYSTEM.CONST>
0

>  <SCORE.SYSTEM.DIHEDRAL>
0

>  <SCORE.SYSTEM.SOLV>
0

>  <SCORE.SYSTEM.norm>
0

>  <SCORE.heavy>
13

>  <SCORE.norm>
-1.30787

>  <RMSD>
0.567

$$$$
ligand
 OpenBabel02271912143D
libRbt.so/2013.1/901 2013/11/27
 13 14  0  0  0  0  0  0  0  0999 V2000
   34.2818   33.8453   23.0107 N   0  0  0  0  0  0  0  0  0  0  0  0
   33.4380   32.8180   23.4709 C   0  0  0  0  0  0  0  0  0  0  0  0
   32.3706   32.4770   22.6508 N   0  0  0  0  0  0  0  0  0  0  0  0
   33.5613   32.1623   24.6502 N   0  0  0  0  0  0  0  0  0  0  0  0
   34.6493   32.6170   25.3892 C   0  0  0  0  0  0  0  0  0  0  0  0
   35.5493   33.6189   25.0060 C   0  0  0  0  0  0  0  0  0  0  0  0
   35.3993   34.2887   23.7829 C   0  0  0  0  0  0  0  0  0  0  0  0
   36.1033   35.1866   23.3446 O   0  0  0  0  0  0  0  0  0  0  0  0
   36.5113   33.7871   26.0283 C   0  0  0  0  0  0  0  0  0  0  0  0
   36.1889   32.8765   27.0226 C   0  0  0  0  0  0  0  0  0  0  0  0
   35.0389   32.1464   26.6297 N   0  0  0  0  0  0  0  0  0  0  0  0
   37.6081   34.7914   25.9729 C   0  0  0  0  0  0  0  0  0  0  0  0
   38.7611   34.3538   26.7752 N   0  0  0  0  0  0  0  0  0  0  0  0
  1  2  1  0  0  0  0
  1  7  1  0  0  0  0
  2  3  1  0  0  0  0
  2  4  2  0  0  0  0
  4  5  1  0  0  0  0
  5  6  2  0  0  0  0
  5 11  1  0  0  0  0
  6  7  1  0  0  0  0
  6  9  1  0  0  0  0
  7  8  2  0  0  0  0
  9 10  2  0  0  0  0
  9 12  1  0  0  0  0
 10 11  1  0  0  0  0
 12 13  1  0  0  0  0
M  END
>  <CHROM.1>
-153.29801383,35.35597827,33.48799571,24.86981075,-2.79731506,0.57887017
2.15600050

>  <Name>
ligand

>  <RI>
0

>  <Rbt.Current_Directory>
/home/itssahil/PROJECTS/Mol_Feturizer/Test_systems_manuscript/rnas/3q50

>  <Rbt.Executable>
rbdock ($Id: //depot/dev/client3/rdock/2013.1/src/exe/rbdock.cxx#4 $)

>  <Rbt.Library>
libRbt.so (2013.1, Build901 2013/11/27)

>  <Rbt.Parameter_File>
/export/apps/rDock/src/rDock_2013.1_src/data/scripts/dock_solv.prm

>  <Rbt.Receptor>
prm/pocket_docking_5.prm

>  <SCORE>
-16.9489

>  <SCORE.INTER>
-16.8954

>  <SCORE.INTER.CONST>
1

>  <SCORE.INTER.POLAR>
0

>  <SCORE.INTER.ROT>
1

>  <SCORE.INTER.SOLV>
21.151

>  <SCORE.INTER.VDW>
-22.5806

>  <SCORE.INTER.norm>
-1.29964

>  <SCORE.INTRA>
-0.053516

>  <SCORE.INTRA.DIHEDRAL>
-0.0291158

>  <SCORE.INTRA.DIHEDRAL.0>
1.65305

>  <SCORE.INTRA.POLAR>
0

>  <SCORE.INTRA.POLAR.0>
0

>  <SCORE.INTRA.REPUL>
0

>  <SCORE.INTRA.REPUL.0>
0

>  <SCORE.INTRA.SOLV>
-0.00479799

>  <SCORE.INTRA.SOLV.lig_0>
-46.9527

>  <SCORE.INTRA.VDW>
-0.0365591

>  <SCORE.INTRA.VDW.0>
-0.177978

>  <SCORE.INTRA.norm>
-0.00411662

>  <SCORE.RESTR>
0

>  <SCORE.RESTR.CAVITY>
0

>  <SCORE.RESTR.norm>
0

>  <SCORE.SYSTEM>
0

>  <SCORE.SYSTEM.CONST>
0

>  <SCORE.SYSTEM.DIHEDRAL>
0

>  <SCORE.SYSTEM.SOLV>
0

>  <SCORE.SYSTEM.norm>
0

>  <SCORE.heavy>
13

>  <SCORE.norm>
-1.30376

>  <RMSD>
0.572

$$$$
ligand
 OpenBabel02271912143D
libRbt.so/2013.1/901 2013/11/27
 13 14  0  0  0  0  0  0  0  0999 V2000
   34.2649   33.8049   23.0381 N   0  0  0  0  0  0  0  0  0  0  0  0
   33.4102   32.8000   23.5269 C   0  0  0  0  0  0  0  0  0  0  0  0
   32.3316   32.4568   22.7226 N   0  0  0  0  0  0  0  0  0  0  0  0
   33.5336   32.1682   24.7191 N   0  0  0  0  0  0  0  0  0  0  0  0
   34.6338   32.6230   25.4397 C   0  0  0  0  0  0  0  0  0  0  0  0
   35.5449   33.6034   25.0281 C   0  0  0  0  0  0  0  0  0  0  0  0
   35.3947   34.2487   23.7919 C   0  0  0  0  0  0  0  0  0  0  0  0
   36.1079   35.1267   23.3289 O   0  0  0  0  0  0  0  0  0  0  0  0
   36.5174   33.7797   26.0390 C   0  0  0  0  0  0  0  0  0  0  0  0
   36.1900   32.8955   27.0552 C   0  0  0  0  0  0  0  0  0  0  0  0
   35.0266   32.1737   26.6872 N   0  0  0  0  0  0  0  0  0  0  0  0
   37.6279   34.7667   25.9534 C   0  0  0  0  0  0  0  0  0  0  0  0
   38.8096   34.2918   26.6899 N   0  0  0  0  0  0  0  0  0  0  0  0
  1  2  1  0  0  0  0
  1  7  1  0  0  0  0
  2  3  1  0  0  0  0
  2  4  2  0  0  0  0
  4  5  1  0  0  0  0
  5  6  2  0  0  0  0
  5 11  1  0  0  0  0
  6  7  1  0  0  0  0
  6  9  1  0  0  0  0
  7  8  2  0  0  0  0
  9 10  2  0  0  0  0
  9 12  1  0  0  0  0
 10 11  1  0  0  0  0
 12 13  1  0  0  0  0
M  END
>  <CHROM.1>
-149.89235964,35.35101127,33.46923284,24.89080863,-2.79922915,0.55732895
2.13391328

>  <Name>
ligand

>  <RI>
0

>  <Rbt.Current_Directory>
/home/itssahil/PROJECTS/Mol_Feturizer/Test_systems_manuscript/rnas/3q50

>  <Rbt.Executable>
rbdock ($Id: //depot/dev/client3/rdock/2013.1/src/exe/rbdock.cxx#4 $)

>  <Rbt.Library>
libRbt.so (2013.1, Build901 2013/11/27)

>  <Rbt.Parameter_File>
/export/apps/rDock/src/rDock_2013.1_src/data/scripts/dock_solv.prm

>  <Rbt.Receptor>
prm/pocket_docking_3.prm

>  <SCORE>
-16.9376

>  <SCORE.INTER>
-16.8743

>  <SCORE.INTER.CONST>
1

>  <SCORE.INTER.POLAR>
0

>  <SCORE.INTER.ROT>
1

>  <SCORE.INTER.SOLV>
21.3194

>  <SCORE.INTER.VDW>
-22.6227

>  <SCORE.INTER.norm>
-1.29802

>  <SCORE.INTRA>
-0.0632999

>  <SCORE.INTRA.DIHEDRAL>
-0.0296178

>  <SCORE.INTRA.DIHEDRAL.0>
1.65305

>  <SCORE.INTRA.POLAR>
0

>  <SCORE.INTRA.POLAR.0>
0

>  <SCORE.INTRA.REPUL>
0

>  <SCORE.INTRA.REPUL.0>
0

>  <SCORE.INTRA.SOLV>
-0.00584427

>  <SCORE.INTRA.SOLV.lig_0>
-46.9527

>  <SCORE.INTRA.VDW>
-0.0455688

>  <SCORE.INTRA.VDW.0>
-0.177978

>  <SCORE.INTRA.norm>
-0.00486922

>  <SCORE.RESTR>
0

>  <SCORE.RESTR.CAVITY>
0

>  <SCORE.RESTR.norm>
0

>  <SCORE.SYSTEM>
0

>  <SCORE.SYSTEM.CONST>
0

>  <SCORE.SYSTEM.DIHEDRAL>
0

>  <SCORE.SYSTEM.SOLV>
0

>  <SCORE.SYSTEM.norm>
0

>  <SCORE.heavy>
13

>  <SCORE.norm>
-1.30289

>  <RMSD>
0.581

$$$$
ligand
 OpenBabel02271912143D
libRbt.so/2013.1/901 2013/11/27
 13 14  0  0  0  0  0  0  0  0999 V2000
   34.6147   33.9666   23.1314 N   0  0  0  0  0  0  0  0  0  0  0  0
   33.7428   32.9407   23.5396 C   0  0  0  0  0  0  0  0  0  0  0  0
   32.7064   32.6246   22.6713 N   0  0  0  0  0  0  0  0  0  0  0  0
   33.8117   32.2643   24.7115 N   0  0  0  0  0  0  0  0  0  0  0  0
   34.8731   32.6952   25.5016 C   0  0  0  0  0  0  0  0  0  0  0  0
   35.7978   33.6939   25.1723 C   0  0  0  0  0  0  0  0  0  0  0  0
   35.7042   34.3854   23.9556 C   0  0  0  0  0  0  0  0  0  0  0  0
   36.4342   35.2830   23.5616 O   0  0  0  0  0  0  0  0  0  0  0  0
   36.7191   33.8349   26.2353 C   0  0  0  0  0  0  0  0  0  0  0  0
   36.3476   32.9115   27.2001 C   0  0  0  0  0  0  0  0  0  0  0  0
   35.2074   32.2000   26.7487 N   0  0  0  0  0  0  0  0  0  0  0  0
   37.8270   34.8285   26.2415 C   0  0  0  0  0  0  0  0  0  0  0  0
   39.0220   34.2775   26.8994 N   0  0  0  0  0  0  0  0  0  0  0  0
  1  2  1  0  0  0  0
  1  7  1  0  0  0  0
  2  3  1  0  0  0  0
  2  4  2  0  0  0  0
  4  5  1  0  0  0  0
  5  6  2  0  0  0  0
  5 11  1  0  0  0  0
  6  7  1  0  0  0  0
  6  9  1  0  0  0  0
  7  8  2  0  0  0  0
  9 10  2  0  0  0  0
  9 12  1  0  0  0  0
 10 11  1  0  0  0  0
 12 13  1  0  0  0  0
M  END
>  <CHROM.1>
-144.19674936,35.61537332,33.56010082,25.01126382,-2.75963921,0.57885808
2.14752721

>  <Name>
ligand

>  <RI>
0

>  <Rbt.Current_Directory>
/home/itssahil/PROJECTS/Mol_Feturizer/Test_systems_manuscript/rnas/3q50

>  <Rbt.Executable>
rbdock ($Id: //depot/dev/client3/rdock/2013.1/src/exe/rbdock.cxx#4 $)

>  <Rbt.Library>
libRbt.so (2013.1, Build901 2013/11/27)

>  <Rbt.Parameter_File>
/export/apps/rDock/src/rDock_2013.1_src/data/scripts/dock_solv.prm

>  <Rbt.Receptor>
prm/pocket_docking_2.prm

>  <SCORE>
-16.934

>  <SCORE.INTER>
-16.8559

>  <SCORE.INTER.CONST>
1

>  <SCORE.INTER.POLAR>
0

>  <SCORE.INTER.ROT>
1

>  <SCORE.INTER.SOLV>
19.9129

>  <SCORE.INTER.VDW>
-22.1416

>  <SCORE.INTER.norm>
-1.29661

>  <SCORE.INTRA>
-0.0780827

>  <SCORE.INTRA.DIHEDRAL>
-0.0264666

>  <SCORE.INTRA.DIHEDRAL.0>
1.65305

>  <SCORE.INTRA.POLAR>
0

>  <SCORE.INTRA.POLAR.0>
0

>  <SCORE.INTRA.REPUL>
0

>  <SCORE.INTRA.REPUL.0>
0

>  <SCORE.INTRA.SOLV>
-0.00757086

>  <SCORE.INTRA.SOLV.lig_0>
-46.9527

>  <SCORE.INTRA.VDW>
-0.061064

>  <SCORE.INTRA.VDW.0>
-0.177978

>  <SCORE.INTRA.norm>
-0.00600636

>  <SCORE.RESTR>
0

>  <SCORE.RESTR.CAVITY>
0

>  <SCORE.RESTR.norm>
0

>  <SCORE.SYSTEM>
0

>  <SCORE.SYSTEM.CONST>
0

>  <SCORE.SYSTEM.DIHEDRAL>
0

>  <SCORE.SYSTEM.SOLV>
0

>  <SCORE.SYSTEM.norm>
0

>  <SCORE.heavy>
13

>  <SCORE.norm>
-1.30262

>  <RMSD>
0.589

$$$$
ligand
 OpenBabel02271912143D
libRbt.so/2013.1/901 2013/11/27
 13 14  0  0  0  0  0  0  0  0999 V2000
   34.1225   33.7734   22.8917 N   0  0  0  0  0  0  0  0  0  0  0  0
   33.3193   32.7268   23.3803 C   0  0  0  0  0  0  0  0  0  0  0  0
   32.2364   32.3563   22.5941 N   0  0  0  0  0  0  0  0  0  0  0  0
   33.4950   32.0787   24.5570 N   0  0  0  0  0  0  0  0  0  0  0  0
   34.5932   32.5632   25.2612 C   0  0  0  0  0  0  0  0  0  0  0  0
   35.4556   33.5860   24.8479 C   0  0  0  0  0  0  0  0  0  0  0  0
   35.2515   34.2474   23.6281 C   0  0  0  0  0  0  0  0  0  0  0  0
   35.9190   35.1612   23.1660 O   0  0  0  0  0  0  0  0  0  0  0  0
   36.4438   33.7819   25.8398 C   0  0  0  0  0  0  0  0  0  0  0  0
   36.1749   32.8671   26.8460 C   0  0  0  0  0  0  0  0  0  0  0  0
   35.0321   32.1069   26.4906 N   0  0  0  0  0  0  0  0  0  0  0  0
   37.5127   34.8132   25.7481 C   0  0  0  0  0  0  0  0  0  0  0  0
   38.6323   34.4896   26.6461 N   0  0  0  0  0  0  0  0  0  0  0  0
  1  2  1  0  0  0  0
  1  7  1  0  0  0  0
  2  3  1  0  0  0  0
  2  4  2  0  0  0  0
  4  5  1  0  0  0  0
  5  6  2  0  0  0  0
  5 11  1  0  0  0  0
  6  7  1  0  0  0  0
  6  9  1  0  0  0  0
  7  8  2  0  0  0  0
  9 10  2  0  0  0  0
  9 12  1  0  0  0  0
 10 11  1  0  0  0  0
 12 13  1  0  0  0  0
M  END
>  <CHROM.1>
-160.30858735,35.25601779,33.45645462,24.72862733,-2.83852051,0.59379610
2.17782885

>  <Name>
ligand

>  <RI>
0

>  <Rbt.Current_Directory>
/home/itssahil/PROJECTS/Mol_Feturizer/Test_systems_manuscript/rnas/3q50

>  <Rbt.Executable>
rbdock ($Id: //depot/dev/client3/rdock/2013.1/src/exe/rbdock.cxx#4 $)

>  <Rbt.Library>
libRbt.so (2013.1, Build901 2013/11/27)

>  <Rbt.Parameter_File>
/export/apps/rDock/src/rDock_2013.1_src/data/scripts/dock_solv.prm

>  <Rbt.Receptor>
prm/pocket_docking_4.prm

>  <SCORE>
-17.0285

>  <SCORE.INTER>
-16.9965

>  <SCORE.INTER.CONST>
1

>  <SCORE.INTER.POLAR>
0

>  <SCORE.INTER.ROT>
1

>  <SCORE.INTER.SOLV>
21.8236

>  <SCORE.INTER.VDW>
-22.8722

>  <SCORE.INTER.norm>
-1.30742

>  <SCORE.INTRA>
-0.0320816

>  <SCORE.INTRA.DIHEDRAL>
-0.022566

>  <SCORE.INTRA.DIHEDRAL.0>
1.65305

>  <SCORE.INTRA.POLAR>
0

>  <SCORE.INTRA.POLAR.0>
0

>  <SCORE.INTRA.REPUL>
0

>  <SCORE.INTRA.REPUL.0>
0

>  <SCORE.INTRA.SOLV>
-0.00271722

>  <SCORE.INTRA.SOLV.lig_0>
-46.9527

>  <SCORE.INTRA.VDW>
-0.01944

>  <SCORE.INTRA.VDW.0>
-0.177978

>  <SCORE.INTRA.norm>
-0.00246781

>  <SCORE.RESTR>
0

>  <SCORE.RESTR.CAVITY>
0

>  <SCORE.RESTR.norm>
0

>  <SCORE.SYSTEM>
0

>  <SCORE.SYSTEM.CONST>
0

>  <SCORE.SYSTEM.DIHEDRAL>
0

>  <SCORE.SYSTEM.SOLV>
0

>  <SCORE.SYSTEM.norm>
0

>  <SCORE.heavy>
13

>  <SCORE.norm>
-1.30989

>  <RMSD>
0.596

$$$$
ligand
 OpenBabel02271912143D
libRbt.so/2013.1/901 2013/11/27
 13 14  0  0  0  0  0  0  0  0999 V2000
   34.2678   33.7984   22.9963 N   0  0  0  0  0  0  0  0  0  0  0  0
   33.4206   32.7766   23.4628 C   0  0  0  0  0  0  0  0  0  0  0  0
   32.3595   32.4253   22.6390 N   0  0  0  0  0  0  0  0  0  0  0  0
   33.5353   32.1355   24.6509 N   0  0  0  0  0  0  0  0  0  0  0  0
   34.6177   32.5994   25.3923 C   0  0  0  0  0  0  0  0  0  0  0  0
   35.5204   33.5968   25.0036 C   0  0  0  0  0  0  0  0  0  0  0  0
   35.3794   34.2514   23.7713 C   0  0  0  0  0  0  0  0  0  0  0  0
   36.0865   35.1440   23.3273 O   0  0  0  0  0  0  0  0  0  0  0  0
   36.4747   33.7777   26.0308 C   0  0  0  0  0  0  0  0  0  0  0  0
   36.1451   32.8794   27.0338 C   0  0  0  0  0  0  0  0  0  0  0  0
   34.9981   32.1442   26.6414 N   0  0  0  0  0  0  0  0  0  0  0  0
   37.5718   34.7815   25.9713 C   0  0  0  0  0  0  0  0  0  0  0  0
   38.7459   34.3210   26.7289 N   0  0  0  0  0  0  0  0  0  0  0  0
  1  2  1  0  0  0  0
  1  7  1  0  0  0  0
  2  3  1  0  0  0  0
  2  4  2  0  0  0  0
  4  5  1  0  0  0  0
  5  6  2  0  0  0  0
  5 11  1  0  0  0  0
  6  7  1  0  0  0  0
  6  9  1  0  0  0  0
  7  8  2  0  0  0  0
  9 10  2  0  0  0  0
  9 12  1  0  0  0  0
 10 11  1  0  0  0  0
 12 13  1  0  0  0  0
M  END
>  <CHROM.1>
-150.27388942,35.33030478,33.46144787,24.86281030,-2.79293504,0.57839151
2.13999897

>  <Name>
ligand

>  <RI>
0

>  <Rbt.Current_Directory>
/home/itssahil/PROJECTS/Mol_Feturizer/Test_systems_manuscript/rnas/3q50

>  <Rbt.Executable>
rbdock ($Id: //depot/dev/client3/rdock/2013.1/src/exe/rbdock.cxx#4 $)

>  <Rbt.Library>
libRbt.so (2013.1, Build901 2013/11/27)

>  <Rbt.Parameter_File>
/export/apps/rDock/src/rDock_2013.1_src/data/scripts/dock_solv.prm

>  <Rbt.Receptor>
prm/pocket_docking_8.prm

>  <SCORE>
-16.9554

>  <SCORE.INTER>
-16.8931

>  <SCORE.INTER.CONST>
1

>  <SCORE.INTER.POLAR>
0

>  <SCORE.INTER.ROT>
1

>  <SCORE.INTER.SOLV>
21.2721

>  <SCORE.INTER.VDW>
-22.6195

>  <SCORE.INTER.norm>
-1.29947

>  <SCORE.INTRA>
-0.0622345

>  <SCORE.INTRA.DIHEDRAL>
-0.029651

>  <SCORE.INTRA.DIHEDRAL.0>
1.65305

>  <SCORE.INTRA.POLAR>
0

>  <SCORE.INTRA.POLAR.0>
0

>  <SCORE.INTRA.REPUL>
0

>  <SCORE.INTRA.REPUL.0>
0

>  <SCORE.INTRA.SOLV>
-0.00572691

>  <SCORE.INTRA.SOLV.lig_0>
-46.9527

>  <SCORE.INTRA.VDW>
-0.0445455

>  <SCORE.INTRA.VDW.0>
-0.177978

>  <SCORE.INTRA.norm>
-0.00478727

>  <SCORE.RESTR>
0

>  <SCORE.RESTR.CAVITY>
0

>  <SCORE.RESTR.norm>
0

>  <SCORE.SYSTEM>
0

>  <SCORE.SYSTEM.CONST>
0

>  <SCORE.SYSTEM.DIHEDRAL>
0

>  <SCORE.SYSTEM.SOLV>
0

>  <SCORE.SYSTEM.norm>
0

>  <SCORE.heavy>
13

>  <SCORE.norm>
-1.30426

>  <RMSD>
0.596

$$$$
ligand
 OpenBabel02271912143D
libRbt.so/2013.1/901 2013/11/27
 13 14  0  0  0  0  0  0  0  0999 V2000
   34.6046   33.9860   23.1679 N   0  0  0  0  0  0  0  0  0  0  0  0
   33.7434   32.9447   23.5594 C   0  0  0  0  0  0  0  0  0  0  0  0
   32.7095   32.6327   22.6866 N   0  0  0  0  0  0  0  0  0  0  0  0
   33.8200   32.2495   24.7198 N   0  0  0  0  0  0  0  0  0  0  0  0
   34.8777   32.6779   25.5163 C   0  0  0  0  0  0  0  0  0  0  0  0
   35.7920   33.6911   25.2031 C   0  0  0  0  0  0  0  0  0  0  0  0
   35.6905   34.4019   23.9983 C   0  0  0  0  0  0  0  0  0  0  0  0
   36.4111   35.3132   23.6188 O   0  0  0  0  0  0  0  0  0  0  0  0
   36.7127   33.8237   26.2678 C   0  0  0  0  0  0  0  0  0  0  0  0
   36.3513   32.8805   27.2173 C   0  0  0  0  0  0  0  0  0  0  0  0
   35.2179   32.1653   26.7548 N   0  0  0  0  0  0  0  0  0  0  0  0
   37.8106   34.8280   26.2898 C   0  0  0  0  0  0  0  0  0  0  0  0
   38.9906   34.3000   26.9921 N   0  0  0  0  0  0  0  0  0  0  0  0
  1  2  1  0  0  0  0
  1  7  1  0  0  0  0
  2  3  1  0  0  0  0
  2  4  2  0  0  0  0
  4  5  1  0  0  0  0
  5  6  2  0  0  0  0
  5 11  1  0  0  0  0
  6  7  1  0  0  0  0
  6  9  1  0  0  0  0
  7  8  2  0  0  0  0
  9 10  2  0  0  0  0
  9 12  1  0  0  0  0
 10 11  1  0  0  0  0
 12 13  1  0  0  0  0
M  END
>  <CHROM.1>
-146.78976721,35.60912817,33.55998376,25.04443702,-2.76417485,0.59065876
2.16830502

>  <Name>
ligand

>  <RI>
0

>  <Rbt.Current_Directory>
/home/itssahil/PROJECTS/Mol_Feturizer/Test_systems_manuscript/rnas/3q50

>  <Rbt.Executable>
rbdock ($Id: //depot/dev/client3/rdock/2013.1/src/exe/rbdock.cxx#4 $)

>  <Rbt.Library>
libRbt.so (2013.1, Build901 2013/11/27)

>  <Rbt.Parameter_File>
/export/apps/rDock/src/rDock_2013.1_src/data/scripts/dock_solv.prm

>  <Rbt.Receptor>
prm/pocket_docking_2.prm

>  <SCORE>
-17.0078

>  <SCORE.INTER>
-16.9362

>  <SCORE.INTER.CONST>
1

>  <SCORE.INTER.POLAR>
0

>  <SCORE.INTER.ROT>
1

>  <SCORE.INTER.SOLV>
19.7668

>  <SCORE.INTER.VDW>
-22.1464

>  <SCORE.INTER.norm>
-1.30279

>  <SCORE.INTRA>
-0.0716281

>  <SCORE.INTRA.DIHEDRAL>
-0.0285129

>  <SCORE.INTRA.DIHEDRAL.0>
1.65305

>  <SCORE.INTRA.POLAR>
0

>  <SCORE.INTRA.POLAR.0>
0

>  <SCORE.INTRA.REPUL>
0

>  <SCORE.INTRA.REPUL.0>
0

>  <SCORE.INTRA.SOLV>
-0.00679339

>  <SCORE.INTRA.SOLV.lig_0>
-46.9527

>  <SCORE.INTRA.VDW>
-0.0539749

>  <SCORE.INTRA.VDW.0>
-0.177978

>  <SCORE.INTRA.norm>
-0.00550985

>  <SCORE.RESTR>
0

>  <SCORE.RESTR.CAVITY>
0

>  <SCORE.RESTR.norm>
0

>  <SCORE.SYSTEM>
0

>  <SCORE.SYSTEM.CONST>
0

>  <SCORE.SYSTEM.DIHEDRAL>
0

>  <SCORE.SYSTEM.SOLV>
0

>  <SCORE.SYSTEM.norm>
0

>  <SCORE.heavy>
13

>  <SCORE.norm>
-1.3083

>  <RMSD>
0.597

$$$$
ligand
 OpenBabel02271912143D
libRbt.so/2013.1/901 2013/11/27
 13 14  0  0  0  0  0  0  0  0999 V2000
   34.6045   33.9807   23.1661 N   0  0  0  0  0  0  0  0  0  0  0  0
   33.7402   32.9433   23.5612 C   0  0  0  0  0  0  0  0  0  0  0  0
   32.7054   32.6315   22.6894 N   0  0  0  0  0  0  0  0  0  0  0  0
   33.8148   32.2519   24.7240 N   0  0  0  0  0  0  0  0  0  0  0  0
   34.8738   32.6798   25.5189 C   0  0  0  0  0  0  0  0  0  0  0  0
   35.7911   33.6892   25.2023 C   0  0  0  0  0  0  0  0  0  0  0  0
   35.6917   34.3961   23.9950 C   0  0  0  0  0  0  0  0  0  0  0  0
   36.4150   35.3040   23.6124 O   0  0  0  0  0  0  0  0  0  0  0  0
   36.7122   33.8227   26.2665 C   0  0  0  0  0  0  0  0  0  0  0  0
   36.3480   32.8839   27.2192 C   0  0  0  0  0  0  0  0  0  0  0  0
   35.2124   32.1705   26.7592 N   0  0  0  0  0  0  0  0  0  0  0  0
   37.8131   34.8238   26.2851 C   0  0  0  0  0  0  0  0  0  0  0  0
   38.9907   34.2955   26.9912 N   0  0  0  0  0  0  0  0  0  0  0  0
  1  2  1  0  0  0  0
  1  7  1  0  0  0  0
  2  3  1  0  0  0  0
  2  4  2  0  0  0  0
  4  5  1  0  0  0  0
  5  6  2  0  0  0  0
  5 11  1  0  0  0  0
  6  7  1  0  0  0  0
  6  9  1  0  0  0  0
  7  8  2  0  0  0  0
  9 10  2  0  0  0  0
  9 12  1  0  0  0  0
 10 11  1  0  0  0  0
 12 13  1  0  0  0  0
M  END
>  <CHROM.1>
-146.89103820,35.60774696,33.55818111,25.04423418,-2.76204066,0.58831249
2.16373069

>  <Name>
ligand

>  <RI>
0

>  <Rbt.Current_Directory>
/home/itssahil/PROJECTS/Mol_Feturizer/Test_systems_manuscript/rnas/3q50

>  <Rbt.Executable>
rbdock ($Id: //depot/dev/client3/rdock/2013.1/src/exe/rbdock.cxx#4 $)

>  <Rbt.Library>
libRbt.so (2013.1, Build901 2013/11/27)

>  <Rbt.Parameter_File>
/export/apps/rDock/src/rDock_2013.1_src/data/scripts/dock_solv.prm

>  <Rbt.Receptor>
prm/pocket_docking_7.prm

>  <SCORE>
-17.0143

>  <SCORE.INTER>
-16.943

>  <SCORE.INTER.CONST>
1

>  <SCORE.INTER.POLAR>
0

>  <SCORE.INTER.ROT>
1

>  <SCORE.INTER.SOLV>
19.7778

>  <SCORE.INTER.VDW>
-22.1546

>  <SCORE.INTER.norm>
-1.3033

>  <SCORE.INTRA>
-0.0713663

>  <SCORE.INTRA.DIHEDRAL>
-0.0285723

>  <SCORE.INTRA.DIHEDRAL.0>
1.65305

>  <SCORE.INTRA.POLAR>
0

>  <SCORE.INTRA.POLAR.0>
0

>  <SCORE.INTRA.REPUL>
0

>  <SCORE.INTRA.REPUL.0>
0

>  <SCORE.INTRA.SOLV>
-0.00676266

>  <SCORE.INTRA.SOLV.lig_0>
-46.9527

>  <SCORE.INTRA.VDW>
-0.0536988

>  <SCORE.INTRA.VDW.0>
-0.177978

>  <SCORE.INTRA.norm>
-0.00548971

>  <SCORE.RESTR>
0

>  <SCORE.RESTR.CAVITY>
0

>  <SCORE.RESTR.norm>
0

>  <SCORE.SYSTEM>
0

>  <SCORE.SYSTEM.CONST>
0

>  <SCORE.SYSTEM.DIHEDRAL>
0

>  <SCORE.SYSTEM.SOLV>
0

>  <SCORE.SYSTEM.norm>
0

>  <SCORE.heavy>
13

>  <SCORE.norm>
-1.30879

>  <RMSD>
0.598

$$$$
ligand
 OpenBabel02271912143D
libRbt.so/2013.1/901 2013/11/27
 13 14  0  0  0  0  0  0  0  0999 V2000
   34.6096   33.9752   23.1616 N   0  0  0  0  0  0  0  0  0  0  0  0
   33.7436   32.9395   23.5572 C   0  0  0  0  0  0  0  0  0  0  0  0
   32.7101   32.6268   22.6842 N   0  0  0  0  0  0  0  0  0  0  0  0
   33.8153   32.2505   24.7217 N   0  0  0  0  0  0  0  0  0  0  0  0
   34.8732   32.6791   25.5177 C   0  0  0  0  0  0  0  0  0  0  0  0
   35.7921   33.6869   25.2007 C   0  0  0  0  0  0  0  0  0  0  0  0
   35.6956   34.3914   23.9917 C   0  0  0  0  0  0  0  0  0  0  0  0
   36.4205   35.2978   23.6085 O   0  0  0  0  0  0  0  0  0  0  0  0
   36.7113   33.8218   26.2663 C   0  0  0  0  0  0  0  0  0  0  0  0
   36.3444   32.8854   27.2204 C   0  0  0  0  0  0  0  0  0  0  0  0
   35.2090   32.1721   26.7597 N   0  0  0  0  0  0  0  0  0  0  0  0
   37.8131   34.8219   26.2849 C   0  0  0  0  0  0  0  0  0  0  0  0
   38.9914   34.2914   26.9883 N   0  0  0  0  0  0  0  0  0  0  0  0
  1  2  1  0  0  0  0
  1  7  1  0  0  0  0
  2  3  1  0  0  0  0
  2  4  2  0  0  0  0
  4  5  1  0  0  0  0
  5  6  2  0  0  0  0
  5 11  1  0  0  0  0
  6  7  1  0  0  0  0
  6  9  1  0  0  0  0
  7  8  2  0  0  0  0
  9 10  2  0  0  0  0
  9 12  1  0  0  0  0
 10 11  1  0  0  0  0
 12 13  1  0  0  0  0
M  END
>  <CHROM.1>
-146.59590604,35.60909649,33.55553686,25.04205574,-2.75984375,0.58814791
2.16023288

>  <Name>
ligand

>  <RI>
0

>  <Rbt.Current_Directory>
/home/itssahil/PROJECTS/Mol_Feturizer/Test_systems_manuscript/rnas/3q50

>  <Rbt.Executable>
rbdock ($Id: //depot/dev/client3/rdock/2013.1/src/exe/rbdock.cxx#4 $)

>  <Rbt.Library>
libRbt.so (2013.1, Build901 2013/11/27)

>  <Rbt.Parameter_File>
/export/apps/rDock/src/rDock_2013.1_src/data/scripts/dock_solv.prm

>  <Rbt.Receptor>
prm/pocket_docking_6.prm

>  <SCORE>
-17.014

>  <SCORE.INTER>
-16.9419

>  <SCORE.INTER.CONST>
1

>  <SCORE.INTER.POLAR>
0

>  <SCORE.INTER.ROT>
1

>  <SCORE.INTER.SOLV>
19.7758

>  <SCORE.INTER.VDW>
-22.1532

>  <SCORE.INTER.norm>
-1.30322

>  <SCORE.INTRA>
-0.0721273

>  <SCORE.INTRA.DIHEDRAL>
-0.0283948

>  <SCORE.INTRA.DIHEDRAL.0>
1.65305

>  <SCORE.INTRA.POLAR>
0

>  <SCORE.INTRA.POLAR.0>
0

>  <SCORE.INTRA.REPUL>
0

>  <SCORE.INTRA.REPUL.0>
0

>  <SCORE.INTRA.SOLV>
-0.00685216

>  <SCORE.INTRA.SOLV.lig_0>
-46.9527

>  <SCORE.INTRA.VDW>
-0.0545038

>  <SCORE.INTRA.VDW.0>
-0.177978

>  <SCORE.INTRA.norm>
-0.00554825

>  <SCORE.RESTR>
0

>  <SCORE.RESTR.CAVITY>
0

>  <SCORE.RESTR.norm>
0

>  <SCORE.SYSTEM>
0

>  <SCORE.SYSTEM.CONST>
0

>  <SCORE.SYSTEM.DIHEDRAL>
0

>  <SCORE.SYSTEM.SOLV>
0

>  <SCORE.SYSTEM.norm>
0

>  <SCORE.heavy>
13

>  <SCORE.norm>
-1.30877

>  <RMSD>
0.600

$$$$
ligand
 OpenBabel02271912143D
libRbt.so/2013.1/901 2013/11/27
 13 14  0  0  0  0  0  0  0  0999 V2000
   34.6054   33.9771   23.1655 N   0  0  0  0  0  0  0  0  0  0  0  0
   33.7320   32.9503   23.5681 C   0  0  0  0  0  0  0  0  0  0  0  0
   32.6917   32.6445   22.7008 N   0  0  0  0  0  0  0  0  0  0  0  0
   33.8030   32.2639   24.7341 N   0  0  0  0  0  0  0  0  0  0  0  0
   34.8684   32.6851   25.5240 C   0  0  0  0  0  0  0  0  0  0  0  0
   35.7947   33.6839   25.1999 C   0  0  0  0  0  0  0  0  0  0  0  0
   35.6989   34.3858   23.9894 C   0  0  0  0  0  0  0  0  0  0  0  0
   36.4301   35.2847   23.6004 O   0  0  0  0  0  0  0  0  0  0  0  0
   36.7201   33.8134   26.2609 C   0  0  0  0  0  0  0  0  0  0  0  0
   36.3493   32.8829   27.2192 C   0  0  0  0  0  0  0  0  0  0  0  0
   35.2055   32.1785   26.7658 N   0  0  0  0  0  0  0  0  0  0  0  0
   37.8309   34.8037   26.2715 C   0  0  0  0  0  0  0  0  0  0  0  0
   38.9966   34.2766   26.9980 N   0  0  0  0  0  0  0  0  0  0  0  0
  1  2  1  0  0  0  0
  1  7  1  0  0  0  0
  2  3  1  0  0  0  0
  2  4  2  0  0  0  0
  4  5  1  0  0  0  0
  5  6  2  0  0  0  0
  5 11  1  0  0  0  0
  6  7  1  0  0  0  0
  6  9  1  0  0  0  0
  7  8  2  0  0  0  0
  9 10  2  0  0  0  0
  9 12  1  0  0  0  0
 10 11  1  0  0  0  0
 12 13  1  0  0  0  0
M  END
>  <CHROM.1>
-147.91542579,35.60895474,33.55464378,25.04468322,-2.75712451,0.58007613
2.15668432

>  <Name>
ligand

>  <RI>
0

>  <Rbt.Current_Directory>
/home/itssahil/PROJECTS/Mol_Feturizer/Test_systems_manuscript/rnas/3q50

>  <Rbt.Executable>
rbdock ($Id: //depot/dev/client3/rdock/2013.1/src/exe/rbdock.cxx#4 $)

>  <Rbt.Library>
libRbt.so (2013.1, Build901 2013/11/27)

>  <Rbt.Parameter_File>
/export/apps/rDock/src/rDock_2013.1_src/data/scripts/dock_solv.prm

>  <Rbt.Receptor>
prm/pocket_docking_3.prm

>  <SCORE>
-17.0022

>  <SCORE.INTER>
-16.9336

>  <SCORE.INTER.CONST>
1

>  <SCORE.INTER.POLAR>
0

>  <SCORE.INTER.ROT>
1

>  <SCORE.INTER.SOLV>
19.7644

>  <SCORE.INTER.VDW>
-22.1438

>  <SCORE.INTER.norm>
-1.30258

>  <SCORE.INTRA>
-0.0686787

>  <SCORE.INTRA.DIHEDRAL>
-0.029085

>  <SCORE.INTRA.DIHEDRAL.0>
1.65305

>  <SCORE.INTRA.POLAR>
0

>  <SCORE.INTRA.POLAR.0>
0

>  <SCORE.INTRA.REPUL>
0

>  <SCORE.INTRA.REPUL.0>
0

>  <SCORE.INTRA.SOLV>
-0.00645061

>  <SCORE.INTRA.SOLV.lig_0>
-46.9527

>  <SCORE.INTRA.VDW>
-0.0509109

>  <SCORE.INTRA.VDW.0>
-0.177978

>  <SCORE.INTRA.norm>
-0.00528297

>  <SCORE.RESTR>
0

>  <SCORE.RESTR.CAVITY>
0

>  <SCORE.RESTR.norm>
0

>  <SCORE.SYSTEM>
0

>  <SCORE.SYSTEM.CONST>
0

>  <SCORE.SYSTEM.DIHEDRAL>
0

>  <SCORE.SYSTEM.SOLV>
0

>  <SCORE.SYSTEM.norm>
0

>  <SCORE.heavy>
13

>  <SCORE.norm>
-1.30786

>  <RMSD>
0.604

$$$$
ligand
 OpenBabel02271912143D
libRbt.so/2013.1/901 2013/11/27
 13 14  0  0  0  0  0  0  0  0999 V2000
   34.6616   33.9571   23.1674 N   0  0  0  0  0  0  0  0  0  0  0  0
   33.7825   32.9364   23.5729 C   0  0  0  0  0  0  0  0  0  0  0  0
   32.7573   32.6143   22.6935 N   0  0  0  0  0  0  0  0  0  0  0  0
   33.8343   32.2704   24.7516 N   0  0  0  0  0  0  0  0  0  0  0  0
   34.8858   32.7066   25.5521 C   0  0  0  0  0  0  0  0  0  0  0  0
   35.8166   33.7006   25.2264 C   0  0  0  0  0  0  0  0  0  0  0  0
   35.7407   34.3814   24.0024 C   0  0  0  0  0  0  0  0  0  0  0  0
   36.4776   35.2742   23.6102 O   0  0  0  0  0  0  0  0  0  0  0  0
   36.7238   33.8496   26.3004 C   0  0  0  0  0  0  0  0  0  0  0  0
   36.3376   32.9355   27.2683 C   0  0  0  0  0  0  0  0  0  0  0  0
   35.2023   32.2220   26.8080 N   0  0  0  0  0  0  0  0  0  0  0  0
   37.8334   34.8413   26.3126 C   0  0  0  0  0  0  0  0  0  0  0  0
   39.0101   34.3032   27.0127 N   0  0  0  0  0  0  0  0  0  0  0  0
  1  2  1  0  0  0  0
  1  7  1  0  0  0  0
  2  3  1  0  0  0  0
  2  4  2  0  0  0  0
  4  5  1  0  0  0  0
  5  6  2  0  0  0  0
  5 11  1  0  0  0  0
  6  7  1  0  0  0  0
  6  9  1  0  0  0  0
  7  8  2  0  0  0  0
  9 10  2  0  0  0  0
  9 12  1  0  0  0  0
 10 11  1  0  0  0  0
 12 13  1  0  0  0  0
M  END
>  <CHROM.1>
-145.21444523,35.63550105,33.56645052,25.06580524,-2.74373977,0.58611092
2.13045115

>  <Name>
ligand

>  <RI>
0

>  <Rbt.Current_Directory>
/home/itssahil/PROJECTS/Mol_Feturizer/Test_systems_manuscript/rnas/3q50

>  <Rbt.Executable>
rbdock ($Id: //depot/dev/client3/rdock/2013.1/src/exe/rbdock.cxx#4 $)

>  <Rbt.Library>
libRbt.so (2013.1, Build901 2013/11/27)

>  <Rbt.Parameter_File>
/export/apps/rDock/src/rDock_2013.1_src/data/scripts/dock_solv.prm

>  <Rbt.Receptor>
prm/pocket_docking_2.prm

>  <SCORE>
-17.0219

>  <SCORE.INTER>
-16.9463

>  <SCORE.INTER.CONST>
1

>  <SCORE.INTER.POLAR>
0

>  <SCORE.INTER.ROT>
1

>  <SCORE.INTER.SOLV>
19.6782

>  <SCORE.INTER.VDW>
-22.1236

>  <SCORE.INTER.norm>
-1.30356

>  <SCORE.INTRA>
-0.0756076

>  <SCORE.INTRA.DIHEDRAL>
-0.0273894

>  <SCORE.INTRA.DIHEDRAL.0>
1.65305

>  <SCORE.INTRA.POLAR>
0

>  <SCORE.INTRA.POLAR.0>
0

>  <SCORE.INTRA.REPUL>
0

>  <SCORE.INTRA.REPUL.0>
0

>  <SCORE.INTRA.SOLV>
-0.00726817

>  <SCORE.INTRA.SOLV.lig_0>
-46.9527

>  <SCORE.INTRA.VDW>
-0.0582788

>  <SCORE.INTRA.VDW.0>
-0.177978

>  <SCORE.INTRA.norm>
-0.00581597

>  <SCORE.RESTR>
0

>  <SCORE.RESTR.CAVITY>
0

>  <SCORE.RESTR.norm>
0

>  <SCORE.SYSTEM>
0

>  <SCORE.SYSTEM.CONST>
0

>  <SCORE.SYSTEM.DIHEDRAL>
0

>  <SCORE.SYSTEM.SOLV>
0

>  <SCORE.SYSTEM.norm>
0

>  <SCORE.heavy>
13

>  <SCORE.norm>
-1.30938

>  <RMSD>
0.610

$$$$
ligand
 OpenBabel02271912143D
libRbt.so/2013.1/901 2013/11/27
 13 14  0  0  0  0  0  0  0  0999 V2000
   34.6475   33.9560   23.1650 N   0  0  0  0  0  0  0  0  0  0  0  0
   33.7634   32.9414   23.5753 C   0  0  0  0  0  0  0  0  0  0  0  0
   32.7344   32.6228   22.6991 N   0  0  0  0  0  0  0  0  0  0  0  0
   33.8141   32.2783   24.7557 N   0  0  0  0  0  0  0  0  0  0  0  0
   34.8699   32.7107   25.5526 C   0  0  0  0  0  0  0  0  0  0  0  0
   35.8057   33.6985   25.2220 C   0  0  0  0  0  0  0  0  0  0  0  0
   35.7309   34.3763   23.9964 C   0  0  0  0  0  0  0  0  0  0  0  0
   36.4719   35.2638   23.6001 O   0  0  0  0  0  0  0  0  0  0  0  0
   36.7161   33.8453   26.2936 C   0  0  0  0  0  0  0  0  0  0  0  0
   36.3270   32.9360   27.2649 C   0  0  0  0  0  0  0  0  0  0  0  0
   35.1865   32.2277   26.8091 N   0  0  0  0  0  0  0  0  0  0  0  0
   37.8314   34.8306   26.3006 C   0  0  0  0  0  0  0  0  0  0  0  0
   39.0054   34.2891   27.0027 N   0  0  0  0  0  0  0  0  0  0  0  0
  1  2  1  0  0  0  0
  1  7  1  0  0  0  0
  2  3  1  0  0  0  0
  2  4  2  0  0  0  0
  4  5  1  0  0  0  0
  5  6  2  0  0  0  0
  5 11  1  0  0  0  0
  6  7  1  0  0  0  0
  6  9  1  0  0  0  0
  7  8  2  0  0  0  0
  9 10  2  0  0  0  0
  9 12  1  0  0  0  0
 10 11  1  0  0  0  0
 12 13  1  0  0  0  0
M  END
>  <CHROM.1>
-145.36829518,35.62331934,33.56505411,25.06252161,-2.74224841,0.58028559
2.12698727

>  <Name>
ligand

>  <RI>
0

>  <Rbt.Current_Directory>
/home/itssahil/PROJECTS/Mol_Feturizer/Test_systems_manuscript/rnas/3q50

>  <Rbt.Executable>
rbdock ($Id: //depot/dev/client3/rdock/2013.1/src/exe/rbdock.cxx#4 $)

>  <Rbt.Library>
libRbt.so (2013.1, Build901 2013/11/27)

>  <Rbt.Parameter_File>
/export/apps/rDock/src/rDock_2013.1_src/data/scripts/dock_solv.prm

>  <Rbt.Receptor>
prm/pocket_docking_6.prm

>  <SCORE>
-17.0267

>  <SCORE.INTER>
-16.9515

>  <SCORE.INTER.CONST>
1

>  <SCORE.INTER.POLAR>
0

>  <SCORE.INTER.ROT>
1

>  <SCORE.INTER.SOLV>
19.7327

>  <SCORE.INTER.VDW>
-22.1452

>  <SCORE.INTER.norm>
-1.30396

>  <SCORE.INTRA>
-0.0752268

>  <SCORE.INTRA.DIHEDRAL>
-0.0275156

>  <SCORE.INTRA.DIHEDRAL.0>
1.65305

>  <SCORE.INTRA.POLAR>
0

>  <SCORE.INTRA.POLAR.0>
0

>  <SCORE.INTRA.REPUL>
0

>  <SCORE.INTRA.REPUL.0>
0

>  <SCORE.INTRA.SOLV>
-0.00722211

>  <SCORE.INTRA.SOLV.lig_0>
-46.9527

>  <SCORE.INTRA.VDW>
-0.057858

>  <SCORE.INTRA.VDW.0>
-0.177978

>  <SCORE.INTRA.norm>
-0.00578668

>  <SCORE.RESTR>
0

>  <SCORE.RESTR.CAVITY>
0

>  <SCORE.RESTR.norm>
0

>  <SCORE.SYSTEM>
0

>  <SCORE.SYSTEM.CONST>
0

>  <SCORE.SYSTEM.DIHEDRAL>
0

>  <SCORE.SYSTEM.SOLV>
0

>  <SCORE.SYSTEM.norm>
0

>  <SCORE.heavy>
13

>  <SCORE.norm>
-1.30975

>  <RMSD>
0.611

$$$$
ligand
 OpenBabel02271912143D
libRbt.so/2013.1/901 2013/11/27
 13 14  0  0  0  0  0  0  0  0999 V2000
   34.6497   33.9683   23.1786 N   0  0  0  0  0  0  0  0  0  0  0  0
   33.7653   32.9542   23.5896 C   0  0  0  0  0  0  0  0  0  0  0  0
   32.7342   32.6377   22.7151 N   0  0  0  0  0  0  0  0  0  0  0  0
   33.8177   32.2899   24.7692 N   0  0  0  0  0  0  0  0  0  0  0  0
   34.8755   32.7203   25.5644 C   0  0  0  0  0  0  0  0  0  0  0  0
   35.8117   33.7074   25.2331 C   0  0  0  0  0  0  0  0  0  0  0  0
   35.7352   34.3866   24.0083 C   0  0  0  0  0  0  0  0  0  0  0  0
   36.4764   35.2737   23.6114 O   0  0  0  0  0  0  0  0  0  0  0  0
   36.7244   33.8521   26.3030 C   0  0  0  0  0  0  0  0  0  0  0  0
   36.3362   32.9422   27.2741 C   0  0  0  0  0  0  0  0  0  0  0  0
   35.1941   32.2357   26.8198 N   0  0  0  0  0  0  0  0  0  0  0  0
   37.8407   34.8361   26.3088 C   0  0  0  0  0  0  0  0  0  0  0  0
   39.0133   34.2951   27.0136 N   0  0  0  0  0  0  0  0  0  0  0  0
  1  2  1  0  0  0  0
  1  7  1  0  0  0  0
  2  3  1  0  0  0  0
  2  4  2  0  0  0  0
  4  5  1  0  0  0  0
  5  6  2  0  0  0  0
  5 11  1  0  0  0  0
  6  7  1  0  0  0  0
  6  9  1  0  0  0  0
  7  8  2  0  0  0  0
  9 10  2  0  0  0  0
  9 12  1  0  0  0  0
 10 11  1  0  0  0  0
 12 13  1  0  0  0  0
M  END
>  <CHROM.1>
-145.64179566,35.62868176,33.57452558,25.07423279,-2.74326508,0.57871725
2.12874540

>  <Name>
ligand

>  <RI>
0

>  <Rbt.Current_Directory>
/home/itssahil/PROJECTS/Mol_Feturizer/Test_systems_manuscript/rnas/3q50

>  <Rbt.Executable>
rbdock ($Id: //depot/dev/client3/rdock/2013.1/src/exe/rbdock.cxx#4 $)

>  <Rbt.Library>
libRbt.so (2013.1, Build901 2013/11/27)

>  <Rbt.Parameter_File>
/export/apps/rDock/src/rDock_2013.1_src/data/scripts/dock_solv.prm

>  <Rbt.Receptor>
prm/pocket_docking_6.prm

>  <SCORE>
-17.0046

>  <SCORE.INTER>
-16.9301

>  <SCORE.INTER.CONST>
1

>  <SCORE.INTER.POLAR>
0

>  <SCORE.INTER.ROT>
1

>  <SCORE.INTER.SOLV>
19.6885

>  <SCORE.INTER.VDW>
-22.1162

>  <SCORE.INTER.norm>
-1.30231

>  <SCORE.INTRA>
-0.0745456

>  <SCORE.INTRA.DIHEDRAL>
-0.0277311

>  <SCORE.INTRA.DIHEDRAL.0>
1.65305

>  <SCORE.INTRA.POLAR>
0

>  <SCORE.INTRA.POLAR.0>
0

>  <SCORE.INTRA.REPUL>
0

>  <SCORE.INTRA.REPUL.0>
0

>  <SCORE.INTRA.SOLV>
-0.00714005

>  <SCORE.INTRA.SOLV.lig_0>
-46.9527

>  <SCORE.INTRA.VDW>
-0.0571101

>  <SCORE.INTRA.VDW.0>
-0.177978

>  <SCORE.INTRA.norm>
-0.00573428

>  <SCORE.RESTR>
0

>  <SCORE.RESTR.CAVITY>
0

>  <SCORE.RESTR.norm>
0

>  <SCORE.SYSTEM>
0

>  <SCORE.SYSTEM.CONST>
0

>  <SCORE.SYSTEM.DIHEDRAL>
0

>  <SCORE.SYSTEM.SOLV>
0

>  <SCORE.SYSTEM.norm>
0

>  <SCORE.heavy>
13

>  <SCORE.norm>
-1.30805

>  <RMSD>
0.612

$$$$
ligand
 OpenBabel02271912143D
libRbt.so/2013.1/901 2013/11/27
 13 14  0  0  0  0  0  0  0  0999 V2000
   34.6838   33.9770   23.1582 N   0  0  0  0  0  0  0  0  0  0  0  0
   33.8087   32.9468   23.5480 C   0  0  0  0  0  0  0  0  0  0  0  0
   32.7934   32.6244   22.6574 N   0  0  0  0  0  0  0  0  0  0  0  0
   33.8553   32.2718   24.7219 N   0  0  0  0  0  0  0  0  0  0  0  0
   34.8968   32.7091   25.5347 C   0  0  0  0  0  0  0  0  0  0  0  0
   35.8231   33.7124   25.2249 C   0  0  0  0  0  0  0  0  0  0  0  0
   35.7526   34.4023   24.0058 C   0  0  0  0  0  0  0  0  0  0  0  0
   36.4863   35.3035   23.6270 O   0  0  0  0  0  0  0  0  0  0  0  0
   36.7200   33.8593   26.3078 C   0  0  0  0  0  0  0  0  0  0  0  0
   36.3323   32.9347   27.2651 C   0  0  0  0  0  0  0  0  0  0  0  0
   35.2061   32.2168   26.7894 N   0  0  0  0  0  0  0  0  0  0  0  0
   37.8222   34.8588   26.3374 C   0  0  0  0  0  0  0  0  0  0  0  0
   38.9837   34.3372   27.0744 N   0  0  0  0  0  0  0  0  0  0  0  0
  1  2  1  0  0  0  0
  1  7  1  0  0  0  0
  2  3  1  0  0  0  0
  2  4  2  0  0  0  0
  4  5  1  0  0  0  0
  5  6  2  0  0  0  0
  5 11  1  0  0  0  0
  6  7  1  0  0  0  0
  6  9  1  0  0  0  0
  7  8  2  0  0  0  0
  9 10  2  0  0  0  0
  9 12  1  0  0  0  0
 10 11  1  0  0  0  0
 12 13  1  0  0  0  0
M  END
>  <CHROM.1>
-146.73587022,35.64325278,33.57932225,25.06425915,-2.73797796,0.59903325
2.13606698

>  <Name>
ligand

>  <RI>
0

>  <Rbt.Current_Directory>
/home/itssahil/PROJECTS/Mol_Feturizer/Test_systems_manuscript/rnas/3q50

>  <Rbt.Executable>
rbdock ($Id: //depot/dev/client3/rdock/2013.1/src/exe/rbdock.cxx#4 $)

>  <Rbt.Library>
libRbt.so (2013.1, Build901 2013/11/27)

>  <Rbt.Parameter_File>
/export/apps/rDock/src/rDock_2013.1_src/data/scripts/dock_solv.prm

>  <Rbt.Receptor>
prm/pocket_docking_6.prm

>  <SCORE>
-16.9194

>  <SCORE.INTER>
-16.8476

>  <SCORE.INTER.CONST>
1

>  <SCORE.INTER.POLAR>
0

>  <SCORE.INTER.ROT>
1

>  <SCORE.INTER.SOLV>
19.6092

>  <SCORE.INTER.VDW>
-22.0348

>  <SCORE.INTER.norm>
-1.29597

>  <SCORE.INTRA>
-0.0717671

>  <SCORE.INTRA.DIHEDRAL>
-0.0284806

>  <SCORE.INTRA.DIHEDRAL.0>
1.65305

>  <SCORE.INTRA.POLAR>
0

>  <SCORE.INTRA.POLAR.0>
0

>  <SCORE.INTRA.REPUL>
0

>  <SCORE.INTRA.REPUL.0>
0

>  <SCORE.INTRA.SOLV>
-0.00680974

>  <SCORE.INTRA.SOLV.lig_0>
-46.9527

>  <SCORE.INTRA.VDW>
-0.0541219

>  <SCORE.INTRA.VDW.0>
-0.177978

>  <SCORE.INTRA.norm>
-0.00552055

>  <SCORE.RESTR>
0

>  <SCORE.RESTR.CAVITY>
0

>  <SCORE.RESTR.norm>
0

>  <SCORE.SYSTEM>
0

>  <SCORE.SYSTEM.CONST>
0

>  <SCORE.SYSTEM.DIHEDRAL>
0

>  <SCORE.SYSTEM.SOLV>
0

>  <SCORE.SYSTEM.norm>
0

>  <SCORE.heavy>
13

>  <SCORE.norm>
-1.30149

>  <RMSD>
0.615

$$$$
ligand
 OpenBabel02271912143D
libRbt.so/2013.1/901 2013/11/27
 13 14  0  0  0  0  0  0  0  0999 V2000
   34.6559   33.9760   23.1698 N   0  0  0  0  0  0  0  0  0  0  0  0
   33.7815   32.9452   23.5598 C   0  0  0  0  0  0  0  0  0  0  0  0
   32.7648   32.6238   22.6704 N   0  0  0  0  0  0  0  0  0  0  0  0
   33.8301   32.2688   24.7327 N   0  0  0  0  0  0  0  0  0  0  0  0
   34.8727   32.7052   25.5444 C   0  0  0  0  0  0  0  0  0  0  0  0
   35.7984   33.7090   25.2344 C   0  0  0  0  0  0  0  0  0  0  0  0
   35.7260   34.4005   24.0162 C   0  0  0  0  0  0  0  0  0  0  0  0
   36.4590   35.3022   23.6374 O   0  0  0  0  0  0  0  0  0  0  0  0
   36.6970   33.8548   26.3161 C   0  0  0  0  0  0  0  0  0  0  0  0
   36.3109   32.9289   27.2728 C   0  0  0  0  0  0  0  0  0  0  0  0
   35.1841   32.2114   26.7980 N   0  0  0  0  0  0  0  0  0  0  0  0
   37.7992   34.8543   26.3451 C   0  0  0  0  0  0  0  0  0  0  0  0
   38.9954   34.2975   26.9959 N   0  0  0  0  0  0  0  0  0  0  0  0
  1  2  1  0  0  0  0
  1  7  1  0  0  0  0
  2  3  1  0  0  0  0
  2  4  2  0  0  0  0
  4  5  1  0  0  0  0
  5  6  2  0  0  0  0
  5 11  1  0  0  0  0
  6  7  1  0  0  0  0
  6  9  1  0  0  0  0
  7  8  2  0  0  0  0
  9 10  2  0  0  0  0
  9 12  1  0  0  0  0
 10 11  1  0  0  0  0
 12 13  1  0  0  0  0
M  END
>  <CHROM.1>
-142.70746539,35.62109087,33.57332300,25.06705817,-2.74424062,0.59238155
2.13832175

>  <Name>
ligand

>  <RI>
0

>  <Rbt.Current_Directory>
/home/itssahil/PROJECTS/Mol_Feturizer/Test_systems_manuscript/rnas/3q50

>  <Rbt.Executable>
rbdock ($Id: //depot/dev/client3/rdock/2013.1/src/exe/rbdock.cxx#4 $)

>  <Rbt.Library>
libRbt.so (2013.1, Build901 2013/11/27)

>  <Rbt.Parameter_File>
/export/apps/rDock/src/rDock_2013.1_src/data/scripts/dock_solv.prm

>  <Rbt.Receptor>
prm/pocket_docking_4.prm

>  <SCORE>
-17.0006

>  <SCORE.INTER>
-16.919

>  <SCORE.INTER.CONST>
1

>  <SCORE.INTER.POLAR>
0

>  <SCORE.INTER.ROT>
1

>  <SCORE.INTER.SOLV>
19.6866

>  <SCORE.INTER.VDW>
-22.1082

>  <SCORE.INTER.norm>
-1.30147

>  <SCORE.INTRA>
-0.0815644

>  <SCORE.INTRA.DIHEDRAL>
-0.0248437

>  <SCORE.INTRA.DIHEDRAL.0>
1.65305

>  <SCORE.INTRA.POLAR>
0

>  <SCORE.INTRA.POLAR.0>
0

>  <SCORE.INTRA.REPUL>
0

>  <SCORE.INTRA.REPUL.0>
0

>  <SCORE.INTRA.SOLV>
-0.00800661

>  <SCORE.INTRA.SOLV.lig_0>
-46.9527

>  <SCORE.INTRA.VDW>
-0.0651393

>  <SCORE.INTRA.VDW.0>
-0.177978

>  <SCORE.INTRA.norm>
-0.00627419

>  <SCORE.RESTR>
0

>  <SCORE.RESTR.CAVITY>
0

>  <SCORE.RESTR.norm>
0

>  <SCORE.SYSTEM>
0

>  <SCORE.SYSTEM.CONST>
0

>  <SCORE.SYSTEM.DIHEDRAL>
0

>  <SCORE.SYSTEM.SOLV>
0

>  <SCORE.SYSTEM.norm>
0

>  <SCORE.heavy>
13

>  <SCORE.norm>
-1.30774

>  <RMSD>
0.617

$$$$
ligand
 OpenBabel02271912143D
libRbt.so/2013.1/901 2013/11/27
 13 14  0  0  0  0  0  0  0  0999 V2000
   34.6601   33.9998   23.1746 N   0  0  0  0  0  0  0  0  0  0  0  0
   33.7724   32.9844   23.5747 C   0  0  0  0  0  0  0  0  0  0  0  0
   32.7431   32.6773   22.6948 N   0  0  0  0  0  0  0  0  0  0  0  0
   33.8199   32.3102   24.7490 N   0  0  0  0  0  0  0  0  0  0  0  0
   34.8764   32.7317   25.5507 C   0  0  0  0  0  0  0  0  0  0  0  0
   35.8157   33.7195   25.2302 C   0  0  0  0  0  0  0  0  0  0  0  0
   35.7441   34.4089   24.0108 C   0  0  0  0  0  0  0  0  0  0  0  0
   36.4884   35.2976   23.6234 O   0  0  0  0  0  0  0  0  0  0  0  0
   36.7256   33.8533   26.3038 C   0  0  0  0  0  0  0  0  0  0  0  0
   36.3327   32.9363   27.2663 C   0  0  0  0  0  0  0  0  0  0  0  0
   35.1903   32.2361   26.8030 N   0  0  0  0  0  0  0  0  0  0  0  0
   37.8441   34.8349   26.3209 C   0  0  0  0  0  0  0  0  0  0  0  0
   39.0246   34.2733   26.9959 N   0  0  0  0  0  0  0  0  0  0  0  0
  1  2  1  0  0  0  0
  1  7  1  0  0  0  0
  2  3  1  0  0  0  0
  2  4  2  0  0  0  0
  4  5  1  0  0  0  0
  5  6  2  0  0  0  0
  5 11  1  0  0  0  0
  6  7  1  0  0  0  0
  6  9  1  0  0  0  0
  7  8  2  0  0  0  0
  9 10  2  0  0  0  0
  9 12  1  0  0  0  0
 10 11  1  0  0  0  0
 12 13  1  0  0  0  0
M  END
>  <CHROM.1>
-144.26216417,35.63375013,33.58733526,25.06739309,-2.74056633,0.57636023
2.13469942

>  <Name>
ligand

>  <RI>
0

>  <Rbt.Current_Directory>
/home/itssahil/PROJECTS/Mol_Feturizer/Test_systems_manuscript/rnas/3q50

>  <Rbt.Executable>
rbdock ($Id: //depot/dev/client3/rdock/2013.1/src/exe/rbdock.cxx#4 $)

>  <Rbt.Library>
libRbt.so (2013.1, Build901 2013/11/27)

>  <Rbt.Parameter_File>
/export/apps/rDock/src/rDock_2013.1_src/data/scripts/dock_solv.prm

>  <Rbt.Receptor>
prm/pocket_docking_3.prm

>  <SCORE>
-16.9552

>  <SCORE.INTER>
-16.8773

>  <SCORE.INTER.CONST>
1

>  <SCORE.INTER.POLAR>
0

>  <SCORE.INTER.ROT>
1

>  <SCORE.INTER.SOLV>
19.6196

>  <SCORE.INTER.VDW>
-22.0581

>  <SCORE.INTER.norm>
-1.29825

>  <SCORE.INTRA>
-0.077926

>  <SCORE.INTRA.DIHEDRAL>
-0.0265305

>  <SCORE.INTRA.DIHEDRAL.0>
1.65305

>  <SCORE.INTRA.POLAR>
0

>  <SCORE.INTRA.POLAR.0>
0

>  <SCORE.INTRA.REPUL>
0

>  <SCORE.INTRA.REPUL.0>
0

>  <SCORE.INTRA.SOLV>
-0.00755152

>  <SCORE.INTRA.SOLV.lig_0>
-46.9527

>  <SCORE.INTRA.VDW>
-0.0608849

>  <SCORE.INTRA.VDW.0>
-0.177978

>  <SCORE.INTRA.norm>
-0.0059943

>  <SCORE.RESTR>
0

>  <SCORE.RESTR.CAVITY>
0

>  <SCORE.RESTR.norm>
0

>  <SCORE.SYSTEM>
0

>  <SCORE.SYSTEM.CONST>
0

>  <SCORE.SYSTEM.DIHEDRAL>
0

>  <SCORE.SYSTEM.SOLV>
0

>  <SCORE.SYSTEM.norm>
0

>  <SCORE.heavy>
13

>  <SCORE.norm>
-1.30425

>  <RMSD>
0.621

$$$$
ligand
 OpenBabel02271912143D
libRbt.so/2013.1/901 2013/11/27
 13 14  0  0  0  0  0  0  0  0999 V2000
   34.6473   33.9817   23.1637 N   0  0  0  0  0  0  0  0  0  0  0  0
   33.7658   32.9553   23.5495 C   0  0  0  0  0  0  0  0  0  0  0  0
   32.7465   32.6449   22.6592 N   0  0  0  0  0  0  0  0  0  0  0  0
   33.8101   32.2735   24.7195 N   0  0  0  0  0  0  0  0  0  0  0  0
   34.8562   32.6991   25.5326 C   0  0  0  0  0  0  0  0  0  0  0  0
   35.7888   33.6977   25.2266 C   0  0  0  0  0  0  0  0  0  0  0  0
   35.7207   34.3949   24.0115 C   0  0  0  0  0  0  0  0  0  0  0  0
   36.4598   35.2932   23.6362 O   0  0  0  0  0  0  0  0  0  0  0  0
   36.6888   33.8324   26.3085 C   0  0  0  0  0  0  0  0  0  0  0  0
   36.2966   32.9052   27.2614 C   0  0  0  0  0  0  0  0  0  0  0  0
   35.1646   32.1976   26.7839 N   0  0  0  0  0  0  0  0  0  0  0  0
   37.7979   34.8241   26.3414 C   0  0  0  0  0  0  0  0  0  0  0  0
   38.9849   34.2618   27.0042 N   0  0  0  0  0  0  0  0  0  0  0  0
  1  2  1  0  0  0  0
  1  7  1  0  0  0  0
  2  3  1  0  0  0  0
  2  4  2  0  0  0  0
  4  5  1  0  0  0  0
  5  6  2  0  0  0  0
  5 11  1  0  0  0  0
  6  7  1  0  0  0  0
  6  9  1  0  0  0  0
  7  8  2  0  0  0  0
  9 10  2  0  0  0  0
  9 12  1  0  0  0  0
 10 11  1  0  0  0  0
 12 13  1  0  0  0  0
M  END
>  <CHROM.1>
-143.41582313,35.60995518,33.56444461,25.05995221,-2.73931916,0.58727228
2.14041519

>  <Name>
ligand

>  <RI>
0

>  <Rbt.Current_Directory>
/home/itssahil/PROJECTS/Mol_Feturizer/Test_systems_manuscript/rnas/3q50

>  <Rbt.Executable>
rbdock ($Id: //depot/dev/client3/rdock/2013.1/src/exe/rbdock.cxx#4 $)

>  <Rbt.Library>
libRbt.so (2013.1, Build901 2013/11/27)

>  <Rbt.Parameter_File>
/export/apps/rDock/src/rDock_2013.1_src/data/scripts/dock_solv.prm

>  <Rbt.Receptor>
prm/pocket_docking_2.prm

>  <SCORE>
-17.0372

>  <SCORE.INTER>
-16.9573

>  <SCORE.INTER.CONST>
1

>  <SCORE.INTER.POLAR>
0

>  <SCORE.INTER.ROT>
1

>  <SCORE.INTER.SOLV>
19.6839

>  <SCORE.INTER.VDW>
-22.1328

>  <SCORE.INTER.norm>
-1.30441

>  <SCORE.INTRA>
-0.0799295

>  <SCORE.INTRA.DIHEDRAL>
-0.0256555

>  <SCORE.INTRA.DIHEDRAL.0>
1.65305

>  <SCORE.INTRA.POLAR>
0

>  <SCORE.INTRA.POLAR.0>
0

>  <SCORE.INTRA.REPUL>
0

>  <SCORE.INTRA.REPUL.0>
0

>  <SCORE.INTRA.SOLV>
-0.00780052

>  <SCORE.INTRA.SOLV.lig_0>
-46.9527

>  <SCORE.INTRA.VDW>
-0.0632014

>  <SCORE.INTRA.VDW.0>
-0.177978

>  <SCORE.INTRA.norm>
-0.00614842

>  <SCORE.RESTR>
0

>  <SCORE.RESTR.CAVITY>
0

>  <SCORE.RESTR.norm>
0

>  <SCORE.SYSTEM>
0

>  <SCORE.SYSTEM.CONST>
0

>  <SCORE.SYSTEM.DIHEDRAL>
0

>  <SCORE.SYSTEM.SOLV>
0

>  <SCORE.SYSTEM.norm>
0

>  <SCORE.heavy>
13

>  <SCORE.norm>
-1.31055

>  <RMSD>
0.630

$$$$
ligand
 OpenBabel02271912143D
libRbt.so/2013.1/901 2013/11/27
 13 14  0  0  0  0  0  0  0  0999 V2000
   34.6525   33.9803   23.1546 N   0  0  0  0  0  0  0  0  0  0  0  0
   33.7656   32.9598   23.5434 C   0  0  0  0  0  0  0  0  0  0  0  0
   32.7476   32.6489   22.6518 N   0  0  0  0  0  0  0  0  0  0  0  0
   33.8036   32.2841   24.7172 N   0  0  0  0  0  0  0  0  0  0  0  0
   34.8491   32.7097   25.5311 C   0  0  0  0  0  0  0  0  0  0  0  0
   35.7868   33.7026   25.2223 C   0  0  0  0  0  0  0  0  0  0  0  0
   35.7252   34.3936   24.0033 C   0  0  0  0  0  0  0  0  0  0  0  0
   36.4692   35.2866   23.6254 O   0  0  0  0  0  0  0  0  0  0  0  0
   36.6842   33.8394   26.3061 C   0  0  0  0  0  0  0  0  0  0  0  0
   36.2854   32.9190   27.2629 C   0  0  0  0  0  0  0  0  0  0  0  0
   35.1518   32.2137   26.7859 N   0  0  0  0  0  0  0  0  0  0  0  0
   37.7975   34.8265   26.3369 C   0  0  0  0  0  0  0  0  0  0  0  0
   38.9728   34.2704   27.0252 N   0  0  0  0  0  0  0  0  0  0  0  0
  1  2  1  0  0  0  0
  1  7  1  0  0  0  0
  2  3  1  0  0  0  0
  2  4  2  0  0  0  0
  4  5  1  0  0  0  0
  5  6  2  0  0  0  0
  5 11  1  0  0  0  0
  6  7  1  0  0  0  0
  6  9  1  0  0  0  0
  7  8  2  0  0  0  0
  9 10  2  0  0  0  0
  9 12  1  0  0  0  0
 10 11  1  0  0  0  0
 12 13  1  0  0  0  0
M  END
>  <CHROM.1>
-144.32401943,35.60731008,33.56986347,25.05745303,-2.73260200,0.58656258
2.13186099

>  <Name>
ligand

>  <RI>
0

>  <Rbt.Current_Directory>
/home/itssahil/PROJECTS/Mol_Feturizer/Test_systems_manuscript/rnas/3q50

>  <Rbt.Executable>
rbdock ($Id: //depot/dev/client3/rdock/2013.1/src/exe/rbdock.cxx#4 $)

>  <Rbt.Library>
libRbt.so (2013.1, Build901 2013/11/27)

>  <Rbt.Parameter_File>
/export/apps/rDock/src/rDock_2013.1_src/data/scripts/dock_solv.prm

>  <Rbt.Receptor>
prm/pocket_docking_4.prm

>  <SCORE>
-17.0304

>  <SCORE.INTER>
-16.9526

>  <SCORE.INTER.CONST>
1

>  <SCORE.INTER.POLAR>
0

>  <SCORE.INTER.ROT>
1

>  <SCORE.INTER.SOLV>
19.7025

>  <SCORE.INTER.VDW>
-22.1359

>  <SCORE.INTER.norm>
-1.30405

>  <SCORE.INTRA>
-0.0777774

>  <SCORE.INTRA.DIHEDRAL>
-0.0265904

>  <SCORE.INTRA.DIHEDRAL.0>
1.65305

>  <SCORE.INTRA.POLAR>
0

>  <SCORE.INTRA.POLAR.0>
0

>  <SCORE.INTRA.REPUL>
0

>  <SCORE.INTRA.REPUL.0>
0

>  <SCORE.INTRA.SOLV>
-0.00753321

>  <SCORE.INTRA.SOLV.lig_0>
-46.9527

>  <SCORE.INTRA.VDW>
-0.0607156

>  <SCORE.INTRA.VDW.0>
-0.177978

>  <SCORE.INTRA.norm>
-0.00598288

>  <SCORE.RESTR>
0

>  <SCORE.RESTR.CAVITY>
0

>  <SCORE.RESTR.norm>
0

>  <SCORE.SYSTEM>
0

>  <SCORE.SYSTEM.CONST>
0

>  <SCORE.SYSTEM.DIHEDRAL>
0

>  <SCORE.SYSTEM.SOLV>
0

>  <SCORE.SYSTEM.norm>
0

>  <SCORE.heavy>
13

>  <SCORE.norm>
-1.31003

>  <RMSD>
0.630

$$$$
ligand
 OpenBabel02271912143D
libRbt.so/2013.1/901 2013/11/27
 13 14  0  0  0  0  0  0  0  0999 V2000
   34.0856   33.8068   22.8646 N   0  0  0  0  0  0  0  0  0  0  0  0
   33.3078   32.7241   23.3140 C   0  0  0  0  0  0  0  0  0  0  0  0
   32.2303   32.3607   22.5172 N   0  0  0  0  0  0  0  0  0  0  0  0
   33.5026   32.0341   24.4637 N   0  0  0  0  0  0  0  0  0  0  0  0
   34.5926   32.5150   25.1830 C   0  0  0  0  0  0  0  0  0  0  0  0
   35.4303   33.5723   24.8078 C   0  0  0  0  0  0  0  0  0  0  0  0
   35.2067   34.2766   23.6156 C   0  0  0  0  0  0  0  0  0  0  0  0
   35.8518   35.2226   23.1879 O   0  0  0  0  0  0  0  0  0  0  0  0
   36.4179   33.7510   25.8035 C   0  0  0  0  0  0  0  0  0  0  0  0
   36.1734   32.7915   26.7736 C   0  0  0  0  0  0  0  0  0  0  0  0
   35.0465   32.0205   26.3920 N   0  0  0  0  0  0  0  0  0  0  0  0
   37.4633   34.8089   25.7493 C   0  0  0  0  0  0  0  0  0  0  0  0
   38.6045   34.4632   26.6109 N   0  0  0  0  0  0  0  0  0  0  0  0
  1  2  1  0  0  0  0
  1  7  1  0  0  0  0
  2  3  1  0  0  0  0
  2  4  2  0  0  0  0
  4  5  1  0  0  0  0
  5  6  2  0  0  0  0
  5 11  1  0  0  0  0
  6  7  1  0  0  0  0
  6  9  1  0  0  0  0
  7  8  2  0  0  0  0
  9 10  2  0  0  0  0
  9 12  1  0  0  0  0
 10 11  1  0  0  0  0
 12 13  1  0  0  0  0
M  END
>  <CHROM.1>
-159.24927674,35.23412783,33.44217257,24.68246886,-2.85883929,0.60796409
2.22850449

>  <Name>
ligand

>  <RI>
0

>  <Rbt.Current_Directory>
/home/itssahil/PROJECTS/Mol_Feturizer/Test_systems_manuscript/rnas/3q50

>  <Rbt.Executable>
rbdock ($Id: //depot/dev/client3/rdock/2013.1/src/exe/rbdock.cxx#4 $)

>  <Rbt.Library>
libRbt.so (2013.1, Build901 2013/11/27)

>  <Rbt.Parameter_File>
/export/apps/rDock/src/rDock_2013.1_src/data/scripts/dock_solv.prm

>  <Rbt.Receptor>
prm/pocket_docking_3.prm

>  <SCORE>
-16.9867

>  <SCORE.INTER>
-16.9514

>  <SCORE.INTER.CONST>
1

>  <SCORE.INTER.POLAR>
0

>  <SCORE.INTER.ROT>
1

>  <SCORE.INTER.SOLV>
21.8529

>  <SCORE.INTER.VDW>
-22.8519

>  <SCORE.INTER.norm>
-1.30395

>  <SCORE.INTRA>
-0.035373

>  <SCORE.INTRA.DIHEDRAL>
-0.0240111

>  <SCORE.INTRA.DIHEDRAL.0>
1.65305

>  <SCORE.INTRA.POLAR>
0

>  <SCORE.INTRA.POLAR.0>
0

>  <SCORE.INTRA.REPUL>
0

>  <SCORE.INTRA.REPUL.0>
0

>  <SCORE.INTRA.SOLV>
-0.00302044

>  <SCORE.INTRA.SOLV.lig_0>
-46.9527

>  <SCORE.INTRA.VDW>
-0.0218573

>  <SCORE.INTRA.VDW.0>
-0.177978

>  <SCORE.INTRA.norm>
-0.002721

>  <SCORE.RESTR>
0

>  <SCORE.RESTR.CAVITY>
0

>  <SCORE.RESTR.norm>
0

>  <SCORE.SYSTEM>
0

>  <SCORE.SYSTEM.CONST>
0

>  <SCORE.SYSTEM.DIHEDRAL>
0

>  <SCORE.SYSTEM.SOLV>
0

>  <SCORE.SYSTEM.norm>
0

>  <SCORE.heavy>
13

>  <SCORE.norm>
-1.30667

>  <RMSD>
0.633

$$$$
ligand
 OpenBabel02271912143D
libRbt.so/2013.1/901 2013/11/27
 13 14  0  0  0  0  0  0  0  0999 V2000
   34.6680   33.9826   23.1532 N   0  0  0  0  0  0  0  0  0  0  0  0
   33.7808   32.9609   23.5384 C   0  0  0  0  0  0  0  0  0  0  0  0
   32.7653   32.6506   22.6436 N   0  0  0  0  0  0  0  0  0  0  0  0
   33.8162   32.2837   24.7113 N   0  0  0  0  0  0  0  0  0  0  0  0
   34.8593   32.7088   25.5285 C   0  0  0  0  0  0  0  0  0  0  0  0
   35.7971   33.7029   25.2235 C   0  0  0  0  0  0  0  0  0  0  0  0
   35.7382   34.3954   24.0053 C   0  0  0  0  0  0  0  0  0  0  0  0
   36.4826   35.2895   23.6305 O   0  0  0  0  0  0  0  0  0  0  0  0
   36.6916   33.8388   26.3098 C   0  0  0  0  0  0  0  0  0  0  0  0
   36.2909   32.9167   27.2643 C   0  0  0  0  0  0  0  0  0  0  0  0
   35.1590   32.2114   26.7835 N   0  0  0  0  0  0  0  0  0  0  0  0
   37.8041   34.8266   26.3449 C   0  0  0  0  0  0  0  0  0  0  0  0
   38.9817   34.2666   27.0263 N   0  0  0  0  0  0  0  0  0  0  0  0
  1  2  1  0  0  0  0
  1  7  1  0  0  0  0
  2  3  1  0  0  0  0
  2  4  2  0  0  0  0
  4  5  1  0  0  0  0
  5  6  2  0  0  0  0
  5 11  1  0  0  0  0
  6  7  1  0  0  0  0
  6  9  1  0  0  0  0
  7  8  2  0  0  0  0
  9 10  2  0  0  0  0
  9 12  1  0  0  0  0
 10 11  1  0  0  0  0
 12 13  1  0  0  0  0
M  END
>  <CHROM.1>
-143.88169310,35.61845131,33.56989308,25.05726792,-2.73088504,0.58789094
2.13200503

>  <Name>
ligand

>  <RI>
0

>  <Rbt.Current_Directory>
/home/itssahil/PROJECTS/Mol_Feturizer/Test_systems_manuscript/rnas/3q50

>  <Rbt.Executable>
rbdock ($Id: //depot/dev/client3/rdock/2013.1/src/exe/rbdock.cxx#4 $)

>  <Rbt.Library>
libRbt.so (2013.1, Build901 2013/11/27)

>  <Rbt.Parameter_File>
/export/apps/rDock/src/rDock_2013.1_src/data/scripts/dock_solv.prm

>  <Rbt.Receptor>
prm/pocket_docking_2.prm

>  <SCORE>
-17.0239

>  <SCORE.INTER>
-16.9451

>  <SCORE.INTER.CONST>
1

>  <SCORE.INTER.POLAR>
0

>  <SCORE.INTER.ROT>
1

>  <SCORE.INTER.SOLV>
19.6429

>  <SCORE.INTER.VDW>
-22.111

>  <SCORE.INTER.norm>
-1.30347

>  <SCORE.INTRA>
-0.0788333

>  <SCORE.INTRA.DIHEDRAL>
-0.0261501

>  <SCORE.INTRA.DIHEDRAL.0>
1.65305

>  <SCORE.INTRA.POLAR>
0

>  <SCORE.INTRA.POLAR.0>
0

>  <SCORE.INTRA.REPUL>
0

>  <SCORE.INTRA.REPUL.0>
0

>  <SCORE.INTRA.SOLV>
-0.00766381

>  <SCORE.INTRA.SOLV.lig_0>
-46.9527

>  <SCORE.INTRA.VDW>
-0.0619264

>  <SCORE.INTRA.VDW.0>
-0.177978

>  <SCORE.INTRA.norm>
-0.0060641

>  <SCORE.RESTR>
0

>  <SCORE.RESTR.CAVITY>
0

>  <SCORE.RESTR.norm>
0

>  <SCORE.SYSTEM>
0

>  <SCORE.SYSTEM.CONST>
0

>  <SCORE.SYSTEM.DIHEDRAL>
0

>  <SCORE.SYSTEM.SOLV>
0

>  <SCORE.SYSTEM.norm>
0

>  <SCORE.heavy>
13

>  <SCORE.norm>
-1.30953

>  <RMSD>
0.635

$$$$
ligand
 OpenBabel02271912143D
libRbt.so/2013.1/901 2013/11/27
 13 14  0  0  0  0  0  0  0  0999 V2000
   34.6626   33.9686   23.1480 N   0  0  0  0  0  0  0  0  0  0  0  0
   33.7684   32.9564   23.5419 C   0  0  0  0  0  0  0  0  0  0  0  0
   32.7474   32.6492   22.6525 N   0  0  0  0  0  0  0  0  0  0  0  0
   33.8024   32.2856   24.7186 N   0  0  0  0  0  0  0  0  0  0  0  0
   34.8517   32.7069   25.5298 C   0  0  0  0  0  0  0  0  0  0  0  0
   35.7965   33.6916   25.2160 C   0  0  0  0  0  0  0  0  0  0  0  0
   35.7390   34.3776   23.9940 C   0  0  0  0  0  0  0  0  0  0  0  0
   36.4893   35.2634   23.6116 O   0  0  0  0  0  0  0  0  0  0  0  0
   36.6958   33.8264   26.2985 C   0  0  0  0  0  0  0  0  0  0  0  0
   36.2909   32.9132   27.2595 C   0  0  0  0  0  0  0  0  0  0  0  0
   35.1517   32.2142   26.7866 N   0  0  0  0  0  0  0  0  0  0  0  0
   37.8164   34.8054   26.3241 C   0  0  0  0  0  0  0  0  0  0  0  0
   38.9908   34.2407   27.0070 N   0  0  0  0  0  0  0  0  0  0  0  0
  1  2  1  0  0  0  0
  1  7  1  0  0  0  0
  2  3  1  0  0  0  0
  2  4  2  0  0  0  0
  4  5  1  0  0  0  0
  5  6  2  0  0  0  0
  5 11  1  0  0  0  0
  6  7  1  0  0  0  0
  6  9  1  0  0  0  0
  7  8  2  0  0  0  0
  9 10  2  0  0  0  0
  9 12  1  0  0  0  0
 10 11  1  0  0  0  0
 12 13  1  0  0  0  0
M  END
>  <CHROM.1>
-143.99215116,35.61609597,33.55919320,25.05127581,-2.72908648,0.57936935
2.12535092

>  <Name>
ligand

>  <RI>
0

>  <Rbt.Current_Directory>
/home/itssahil/PROJECTS/Mol_Feturizer/Test_systems_manuscript/rnas/3q50

>  <Rbt.Executable>
rbdock ($Id: //depot/dev/client3/rdock/2013.1/src/exe/rbdock.cxx#4 $)

>  <Rbt.Library>
libRbt.so (2013.1, Build901 2013/11/27)

>  <Rbt.Parameter_File>
/export/apps/rDock/src/rDock_2013.1_src/data/scripts/dock_solv.prm

>  <Rbt.Receptor>
prm/pocket_docking_4.prm

>  <SCORE>
-17.0444

>  <SCORE.INTER>
-16.9658

>  <SCORE.INTER.CONST>
1

>  <SCORE.INTER.POLAR>
0

>  <SCORE.INTER.ROT>
1

>  <SCORE.INTER.SOLV>
19.6811

>  <SCORE.INTER.VDW>
-22.1376

>  <SCORE.INTER.norm>
-1.30506

>  <SCORE.INTRA>
-0.078571

>  <SCORE.INTRA.DIHEDRAL>
-0.0262627

>  <SCORE.INTRA.DIHEDRAL.0>
1.65305

>  <SCORE.INTRA.POLAR>
0

>  <SCORE.INTRA.POLAR.0>
0

>  <SCORE.INTRA.REPUL>
0

>  <SCORE.INTRA.REPUL.0>
0

>  <SCORE.INTRA.SOLV>
-0.00763127

>  <SCORE.INTRA.SOLV.lig_0>
-46.9527

>  <SCORE.INTRA.VDW>
-0.061624

>  <SCORE.INTRA.VDW.0>
-0.177978

>  <SCORE.INTRA.norm>
-0.00604392

>  <SCORE.RESTR>
0

>  <SCORE.RESTR.CAVITY>
0

>  <SCORE.RESTR.norm>
0

>  <SCORE.SYSTEM>
0

>  <SCORE.SYSTEM.CONST>
0

>  <SCORE.SYSTEM.DIHEDRAL>
0

>  <SCORE.SYSTEM.SOLV>
0

>  <SCORE.SYSTEM.norm>
0

>  <SCORE.heavy>
13

>  <SCORE.norm>
-1.31111

>  <RMSD>
0.637

$$$$
ligand
 OpenBabel02271912143D
libRbt.so/2013.1/901 2013/11/27
 13 14  0  0  0  0  0  0  0  0999 V2000
   34.6686   33.9460   23.1761 N   0  0  0  0  0  0  0  0  0  0  0  0
   33.7677   32.9494   23.5937 C   0  0  0  0  0  0  0  0  0  0  0  0
   32.7269   32.6498   22.7249 N   0  0  0  0  0  0  0  0  0  0  0  0
   33.8134   32.2870   24.7748 N   0  0  0  0  0  0  0  0  0  0  0  0
   34.8827   32.6997   25.5639 C   0  0  0  0  0  0  0  0  0  0  0  0
   35.8353   33.6687   25.2258 C   0  0  0  0  0  0  0  0  0  0  0  0
   35.7655   34.3463   23.9998 C   0  0  0  0  0  0  0  0  0  0  0  0
   36.5210   35.2187   23.5973 O   0  0  0  0  0  0  0  0  0  0  0  0
   36.7555   33.7991   26.2911 C   0  0  0  0  0  0  0  0  0  0  0  0
   36.3553   32.8988   27.2663 C   0  0  0  0  0  0  0  0  0  0  0  0
   35.1982   32.2123   26.8190 N   0  0  0  0  0  0  0  0  0  0  0  0
   37.8898   34.7625   26.2892 C   0  0  0  0  0  0  0  0  0  0  0  0
   39.0408   34.2191   27.0271 N   0  0  0  0  0  0  0  0  0  0  0  0
  1  2  1  0  0  0  0
  1  7  1  0  0  0  0
  2  3  1  0  0  0  0
  2  4  2  0  0  0  0
  4  5  1  0  0  0  0
  5  6  2  0  0  0  0
  5 11  1  0  0  0  0
  6  7  1  0  0  0  0
  6  9  1  0  0  0  0
  7  8  2  0  0  0  0
  9 10  2  0  0  0  0
  9 12  1  0  0  0  0
 10 11  1  0  0  0  0
 12 13  1  0  0  0  0
M  END
>  <CHROM.1>
-147.46065164,35.64793507,33.54025625,25.07118042,-2.73448274,0.56333025
2.12254781

>  <Name>
ligand

>  <RI>
0

>  <Rbt.Current_Directory>
/home/itssahil/PROJECTS/Mol_Feturizer/Test_systems_manuscript/rnas/3q50

>  <Rbt.Executable>
rbdock ($Id: //depot/dev/client3/rdock/2013.1/src/exe/rbdock.cxx#4 $)

>  <Rbt.Library>
libRbt.so (2013.1, Build901 2013/11/27)

>  <Rbt.Parameter_File>
/export/apps/rDock/src/rDock_2013.1_src/data/scripts/dock_solv.prm

>  <Rbt.Receptor>
prm/pocket_docking_8.prm

>  <SCORE>
-16.9212

>  <SCORE.INTER>
-16.8513

>  <SCORE.INTER.CONST>
1

>  <SCORE.INTER.POLAR>
0

>  <SCORE.INTER.ROT>
1

>  <SCORE.INTER.SOLV>
19.6009

>  <SCORE.INTER.VDW>
-22.0345

>  <SCORE.INTER.norm>
-1.29626

>  <SCORE.INTRA>
-0.0698806

>  <SCORE.INTRA.DIHEDRAL>
-0.0288772

>  <SCORE.INTRA.DIHEDRAL.0>
1.65305

>  <SCORE.INTRA.POLAR>
0

>  <SCORE.INTRA.POLAR.0>
0

>  <SCORE.INTRA.REPUL>
0

>  <SCORE.INTRA.REPUL.0>
0

>  <SCORE.INTRA.SOLV>
-0.00658939

>  <SCORE.INTRA.SOLV.lig_0>
-46.9527

>  <SCORE.INTRA.VDW>
-0.0521473

>  <SCORE.INTRA.VDW.0>
-0.177978

>  <SCORE.INTRA.norm>
-0.00537543

>  <SCORE.RESTR>
0

>  <SCORE.RESTR.CAVITY>
0

>  <SCORE.RESTR.norm>
0

>  <SCORE.SYSTEM>
0

>  <SCORE.SYSTEM.CONST>
0

>  <SCORE.SYSTEM.DIHEDRAL>
0

>  <SCORE.SYSTEM.SOLV>
0

>  <SCORE.SYSTEM.norm>
0

>  <SCORE.heavy>
13

>  <SCORE.norm>
-1.30163

>  <RMSD>
0.639

$$$$
ligand
 OpenBabel02271912143D
libRbt.so/2013.1/901 2013/11/27
 13 14  0  0  0  0  0  0  0  0999 V2000
   34.6672   33.9701   23.1560 N   0  0  0  0  0  0  0  0  0  0  0  0
   33.7793   32.9494   23.5420 C   0  0  0  0  0  0  0  0  0  0  0  0
   32.7622   32.6405   22.6486 N   0  0  0  0  0  0  0  0  0  0  0  0
   33.8155   32.2716   24.7146 N   0  0  0  0  0  0  0  0  0  0  0  0
   34.8602   32.6953   25.5305 C   0  0  0  0  0  0  0  0  0  0  0  0
   35.7988   33.6883   25.2246 C   0  0  0  0  0  0  0  0  0  0  0  0
   35.7390   34.3814   24.0067 C   0  0  0  0  0  0  0  0  0  0  0  0
   36.4839   35.2747   23.6312 O   0  0  0  0  0  0  0  0  0  0  0  0
   36.6950   33.8228   26.3097 C   0  0  0  0  0  0  0  0  0  0  0  0
   36.2945   32.9010   27.2644 C   0  0  0  0  0  0  0  0  0  0  0  0
   35.1611   32.1971   26.7849 N   0  0  0  0  0  0  0  0  0  0  0  0
   37.8087   34.8094   26.3435 C   0  0  0  0  0  0  0  0  0  0  0  0
   38.9919   34.2422   27.0089 N   0  0  0  0  0  0  0  0  0  0  0  0
  1  2  1  0  0  0  0
  1  7  1  0  0  0  0
  2  3  1  0  0  0  0
  2  4  2  0  0  0  0
  4  5  1  0  0  0  0
  5  6  2  0  0  0  0
  5 11  1  0  0  0  0
  6  7  1  0  0  0  0
  6  9  1  0  0  0  0
  7  8  2  0  0  0  0
  9 10  2  0  0  0  0
  9 12  1  0  0  0  0
 10 11  1  0  0  0  0
 12 13  1  0  0  0  0
M  END
>  <CHROM.1>
-143.20608501,35.62017400,33.55518076,25.05738185,-2.73233252,0.58516994
2.13270852

>  <Name>
ligand

>  <RI>
0

>  <Rbt.Current_Directory>
/home/itssahil/PROJECTS/Mol_Feturizer/Test_systems_manuscript/rnas/3q50

>  <Rbt.Executable>
rbdock ($Id: //depot/dev/client3/rdock/2013.1/src/exe/rbdock.cxx#4 $)

>  <Rbt.Library>
libRbt.so (2013.1, Build901 2013/11/27)

>  <Rbt.Parameter_File>
/export/apps/rDock/src/rDock_2013.1_src/data/scripts/dock_solv.prm

>  <Rbt.Receptor>
prm/pocket_docking_4.prm

>  <SCORE>
-17.0617

>  <SCORE.INTER>
-16.9813

>  <SCORE.INTER.CONST>
1

>  <SCORE.INTER.POLAR>
0

>  <SCORE.INTER.ROT>
1

>  <SCORE.INTER.SOLV>
19.6382

>  <SCORE.INTER.VDW>
-22.1336

>  <SCORE.INTER.norm>
-1.30625

>  <SCORE.INTRA>
-0.0804176

>  <SCORE.INTRA.DIHEDRAL>
-0.0254226

>  <SCORE.INTRA.DIHEDRAL.0>
1.65305

>  <SCORE.INTRA.POLAR>
0

>  <SCORE.INTRA.POLAR.0>
0

>  <SCORE.INTRA.REPUL>
0

>  <SCORE.INTRA.REPUL.0>
0

>  <SCORE.INTRA.SOLV>
-0.00786178

>  <SCORE.INTRA.SOLV.lig_0>
-46.9527

>  <SCORE.INTRA.VDW>
-0.0637754

>  <SCORE.INTRA.VDW.0>
-0.177978

>  <SCORE.INTRA.norm>
-0.00618597

>  <SCORE.RESTR>
0

>  <SCORE.RESTR.CAVITY>
0

>  <SCORE.RESTR.norm>
0

>  <SCORE.SYSTEM>
0

>  <SCORE.SYSTEM.CONST>
0

>  <SCORE.SYSTEM.DIHEDRAL>
0

>  <SCORE.SYSTEM.SOLV>
0

>  <SCORE.SYSTEM.norm>
0

>  <SCORE.heavy>
13

>  <SCORE.norm>
-1.31244

>  <RMSD>
0.640

$$$$
ligand
 OpenBabel02271912143D
libRbt.so/2013.1/901 2013/11/27
 13 14  0  0  0  0  0  0  0  0999 V2000
   34.1004   33.7361   22.8492 N   0  0  0  0  0  0  0  0  0  0  0  0
   33.2919   32.6952   23.3414 C   0  0  0  0  0  0  0  0  0  0  0  0
   32.2150   32.3183   22.5501 N   0  0  0  0  0  0  0  0  0  0  0  0
   33.4572   32.0584   24.5258 N   0  0  0  0  0  0  0  0  0  0  0  0
   34.5501   32.5485   25.2342 C   0  0  0  0  0  0  0  0  0  0  0  0
   35.4171   33.5662   24.8181 C   0  0  0  0  0  0  0  0  0  0  0  0
   35.2239   34.2160   23.5902 C   0  0  0  0  0  0  0  0  0  0  0  0
   35.8962   35.1244   23.1248 O   0  0  0  0  0  0  0  0  0  0  0  0
   36.3974   33.7706   25.8161 C   0  0  0  0  0  0  0  0  0  0  0  0
   36.1192   32.8660   26.8289 C   0  0  0  0  0  0  0  0  0  0  0  0
   34.9785   32.1037   26.4715 N   0  0  0  0  0  0  0  0  0  0  0  0
   37.4684   34.7998   25.7231 C   0  0  0  0  0  0  0  0  0  0  0  0
   38.5992   34.4609   26.6011 N   0  0  0  0  0  0  0  0  0  0  0  0
  1  2  1  0  0  0  0
  1  7  1  0  0  0  0
  2  3  1  0  0  0  0
  2  4  2  0  0  0  0
  4  5  1  0  0  0  0
  5  6  2  0  0  0  0
  5 11  1  0  0  0  0
  6  7  1  0  0  0  0
  6  9  1  0  0  0  0
  7  8  2  0  0  0  0
  9 10  2  0  0  0  0
  9 12  1  0  0  0  0
 10 11  1  0  0  0  0
 12 13  1  0  0  0  0
M  END
>  <CHROM.1>
-158.48146385,35.21995588,33.43389156,24.69577208,-2.83102397,0.59446229
2.16341132

>  <Name>
ligand

>  <RI>
0

>  <Rbt.Current_Directory>
/home/itssahil/PROJECTS/Mol_Feturizer/Test_systems_manuscript/rnas/3q50

>  <Rbt.Executable>
rbdock ($Id: //depot/dev/client3/rdock/2013.1/src/exe/rbdock.cxx#4 $)

>  <Rbt.Library>
libRbt.so (2013.1, Build901 2013/11/27)

>  <Rbt.Parameter_File>
/export/apps/rDock/src/rDock_2013.1_src/data/scripts/dock_solv.prm

>  <Rbt.Receptor>
prm/pocket_docking_5.prm

>  <SCORE>
-16.9887

>  <SCORE.INTER>
-16.9509

>  <SCORE.INTER.CONST>
1

>  <SCORE.INTER.POLAR>
0

>  <SCORE.INTER.ROT>
1

>  <SCORE.INTER.SOLV>
21.9802

>  <SCORE.INTER.VDW>
-22.894

>  <SCORE.INTER.norm>
-1.30392

>  <SCORE.INTRA>
-0.037755

>  <SCORE.INTRA.DIHEDRAL>
-0.0249609

>  <SCORE.INTRA.DIHEDRAL.0>
1.65305

>  <SCORE.INTRA.POLAR>
0

>  <SCORE.INTRA.POLAR.0>
0

>  <SCORE.INTRA.REPUL>
0

>  <SCORE.INTRA.REPUL.0>
0

>  <SCORE.INTRA.SOLV>
-0.00324328

>  <SCORE.INTRA.SOLV.lig_0>
-46.9527

>  <SCORE.INTRA.VDW>
-0.023653

>  <SCORE.INTRA.VDW.0>
-0.177978

>  <SCORE.INTRA.norm>
-0.00290423

>  <SCORE.RESTR>
0

>  <SCORE.RESTR.CAVITY>
0

>  <SCORE.RESTR.norm>
0

>  <SCORE.SYSTEM>
0

>  <SCORE.SYSTEM.CONST>
0

>  <SCORE.SYSTEM.DIHEDRAL>
0

>  <SCORE.SYSTEM.SOLV>
0

>  <SCORE.SYSTEM.norm>
0

>  <SCORE.heavy>
13

>  <SCORE.norm>
-1.30682

>  <RMSD>
0.640

$$$$
ligand
 OpenBabel02271912143D
libRbt.so/2013.1/901 2013/11/27
 13 14  0  0  0  0  0  0  0  0999 V2000
   34.6671   33.9816   23.1544 N   0  0  0  0  0  0  0  0  0  0  0  0
   33.7771   32.9619   23.5384 C   0  0  0  0  0  0  0  0  0  0  0  0
   32.7597   32.6566   22.6441 N   0  0  0  0  0  0  0  0  0  0  0  0
   33.8118   32.2820   24.7098 N   0  0  0  0  0  0  0  0  0  0  0  0
   34.8571   32.7021   25.5267 C   0  0  0  0  0  0  0  0  0  0  0  0
   35.7977   33.6938   25.2228 C   0  0  0  0  0  0  0  0  0  0  0  0
   35.7396   34.3892   24.0061 C   0  0  0  0  0  0  0  0  0  0  0  0
   36.4863   35.2817   23.6324 O   0  0  0  0  0  0  0  0  0  0  0  0
   36.6939   33.8246   26.3084 C   0  0  0  0  0  0  0  0  0  0  0  0
   36.2914   32.9018   27.2613 C   0  0  0  0  0  0  0  0  0  0  0  0
   35.1567   32.2010   26.7802 N   0  0  0  0  0  0  0  0  0  0  0  0
   37.8095   34.8089   26.3443 C   0  0  0  0  0  0  0  0  0  0  0  0
   38.9862   34.2436   27.0228 N   0  0  0  0  0  0  0  0  0  0  0  0
  1  2  1  0  0  0  0
  1  7  1  0  0  0  0
  2  3  1  0  0  0  0
  2  4  2  0  0  0  0
  4  5  1  0  0  0  0
  5  6  2  0  0  0  0
  5 11  1  0  0  0  0
  6  7  1  0  0  0  0
  6  9  1  0  0  0  0
  7  8  2  0  0  0  0
  9 10  2  0  0  0  0
  9 12  1  0  0  0  0
 10 11  1  0  0  0  0
 12 13  1  0  0  0  0
M  END
>  <CHROM.1>
-143.86781685,35.61843882,33.56177579,25.05643676,-2.73005799,0.58460630
2.13369693

>  <Name>
ligand

>  <RI>
0

>  <Rbt.Current_Directory>
/home/itssahil/PROJECTS/Mol_Feturizer/Test_systems_manuscript/rnas/3q50

>  <Rbt.Executable>
rbdock ($Id: //depot/dev/client3/rdock/2013.1/src/exe/rbdock.cxx#4 $)

>  <Rbt.Library>
libRbt.so (2013.1, Build901 2013/11/27)

>  <Rbt.Parameter_File>
/export/apps/rDock/src/rDock_2013.1_src/data/scripts/dock_solv.prm

>  <Rbt.Receptor>
prm/pocket_docking_2.prm

>  <SCORE>
-17.067

>  <SCORE.INTER>
-16.9881

>  <SCORE.INTER.CONST>
1

>  <SCORE.INTER.POLAR>
0

>  <SCORE.INTER.ROT>
1

>  <SCORE.INTER.SOLV>
19.6223

>  <SCORE.INTER.VDW>
-22.1328

>  <SCORE.INTER.norm>
-1.30678

>  <SCORE.INTRA>
-0.0788662

>  <SCORE.INTRA.DIHEDRAL>
-0.0261358

>  <SCORE.INTRA.DIHEDRAL.0>
1.65305

>  <SCORE.INTRA.POLAR>
0

>  <SCORE.INTRA.POLAR.0>
0

>  <SCORE.INTRA.REPUL>
0

>  <SCORE.INTRA.REPUL.0>
0

>  <SCORE.INTRA.SOLV>
-0.0076679

>  <SCORE.INTRA.SOLV.lig_0>
-46.9527

>  <SCORE.INTRA.VDW>
-0.0619644

>  <SCORE.INTRA.VDW.0>
-0.177978

>  <SCORE.INTRA.norm>
-0.00606663

>  <SCORE.RESTR>
0

>  <SCORE.RESTR.CAVITY>
0

>  <SCORE.RESTR.norm>
0

>  <SCORE.SYSTEM>
0

>  <SCORE.SYSTEM.CONST>
0

>  <SCORE.SYSTEM.DIHEDRAL>
0

>  <SCORE.SYSTEM.SOLV>
0

>  <SCORE.SYSTEM.norm>
0

>  <SCORE.heavy>
13

>  <SCORE.norm>
-1.31285

>  <RMSD>
0.642

$$$$
ligand
 OpenBabel02271912143D
libRbt.so/2013.1/901 2013/11/27
 13 14  0  0  0  0  0  0  0  0999 V2000
   34.6698   33.9717   23.1555 N   0  0  0  0  0  0  0  0  0  0  0  0
   33.7775   32.9552   23.5424 C   0  0  0  0  0  0  0  0  0  0  0  0
   32.7601   32.6487   22.6484 N   0  0  0  0  0  0  0  0  0  0  0  0
   33.8098   32.2795   24.7163 N   0  0  0  0  0  0  0  0  0  0  0  0
   34.8553   32.7005   25.5325 C   0  0  0  0  0  0  0  0  0  0  0  0
   35.7981   33.6892   25.2258 C   0  0  0  0  0  0  0  0  0  0  0  0
   35.7424   34.3803   24.0066 C   0  0  0  0  0  0  0  0  0  0  0  0
   36.4913   35.2699   23.6302 O   0  0  0  0  0  0  0  0  0  0  0  0
   36.6936   33.8222   26.3117 C   0  0  0  0  0  0  0  0  0  0  0  0
   36.2885   32.9036   27.2676 C   0  0  0  0  0  0  0  0  0  0  0  0
   35.1528   32.2034   26.7882 N   0  0  0  0  0  0  0  0  0  0  0  0
   37.8112   34.8043   26.3449 C   0  0  0  0  0  0  0  0  0  0  0  0
   38.9900   34.2351   27.0164 N   0  0  0  0  0  0  0  0  0  0  0  0
  1  2  1  0  0  0  0
  1  7  1  0  0  0  0
  2  3  1  0  0  0  0
  2  4  2  0  0  0  0
  4  5  1  0  0  0  0
  5  6  2  0  0  0  0
  5 11  1  0  0  0  0
  6  7  1  0  0  0  0
  6  9  1  0  0  0  0
  7  8  2  0  0  0  0
  9 10  2  0  0  0  0
  9 12  1  0  0  0  0
 10 11  1  0  0  0  0
 12 13  1  0  0  0  0
M  END
>  <CHROM.1>
-143.38935121,35.61902035,33.55661244,25.05896378,-2.72848467,0.58264207
2.12887320

>  <Name>
ligand

>  <RI>
0

>  <Rbt.Current_Directory>
/home/itssahil/PROJECTS/Mol_Feturizer/Test_systems_manuscript/rnas/3q50

>  <Rbt.Executable>
rbdock ($Id: //depot/dev/client3/rdock/2013.1/src/exe/rbdock.cxx#4 $)

>  <Rbt.Library>
libRbt.so (2013.1, Build901 2013/11/27)

>  <Rbt.Parameter_File>
/export/apps/rDock/src/rDock_2013.1_src/data/scripts/dock_solv.prm

>  <Rbt.Receptor>
prm/pocket_docking_5.prm

>  <SCORE>
-17.0622

>  <SCORE.INTER>
-16.9822

>  <SCORE.INTER.CONST>
1

>  <SCORE.INTER.POLAR>
0

>  <SCORE.INTER.ROT>
1

>  <SCORE.INTER.SOLV>
19.6309

>  <SCORE.INTER.VDW>
-22.1318

>  <SCORE.INTER.norm>
-1.30633

>  <SCORE.INTRA>
-0.0799912

>  <SCORE.INTRA.DIHEDRAL>
-0.0256265

>  <SCORE.INTRA.DIHEDRAL.0>
1.65305

>  <SCORE.INTRA.POLAR>
0

>  <SCORE.INTRA.POLAR.0>
0

>  <SCORE.INTRA.REPUL>
0

>  <SCORE.INTRA.REPUL.0>
0

>  <SCORE.INTRA.SOLV>
-0.00780826

>  <SCORE.INTRA.SOLV.lig_0>
-46.9527

>  <SCORE.INTRA.VDW>
-0.0632739

>  <SCORE.INTRA.VDW.0>
-0.177978

>  <SCORE.INTRA.norm>
-0.00615317

>  <SCORE.RESTR>
0

>  <SCORE.RESTR.CAVITY>
0

>  <SCORE.RESTR.norm>
0

>  <SCORE.SYSTEM>
0

>  <SCORE.SYSTEM.CONST>
0

>  <SCORE.SYSTEM.DIHEDRAL>
0

>  <SCORE.SYSTEM.SOLV>
0

>  <SCORE.SYSTEM.norm>
0

>  <SCORE.heavy>
13

>  <SCORE.norm>
-1.31248

>  <RMSD>
0.645

$$$$
ligand
 OpenBabel02271912143D
libRbt.so/2013.1/901 2013/11/27
 13 14  0  0  0  0  0  0  0  0999 V2000
   34.6705   33.9720   23.1548 N   0  0  0  0  0  0  0  0  0  0  0  0
   33.7785   32.9549   23.5410 C   0  0  0  0  0  0  0  0  0  0  0  0
   32.7613   32.6486   22.6469 N   0  0  0  0  0  0  0  0  0  0  0  0
   33.8110   32.2785   24.7146 N   0  0  0  0  0  0  0  0  0  0  0  0
   34.8564   32.6994   25.5311 C   0  0  0  0  0  0  0  0  0  0  0  0
   35.7989   33.6886   25.2250 C   0  0  0  0  0  0  0  0  0  0  0  0
   35.7429   34.3804   24.0061 C   0  0  0  0  0  0  0  0  0  0  0  0
   36.4915   35.2705   23.6304 O   0  0  0  0  0  0  0  0  0  0  0  0
   36.6944   33.8212   26.3109 C   0  0  0  0  0  0  0  0  0  0  0  0
   36.2895   32.9019   27.2663 C   0  0  0  0  0  0  0  0  0  0  0  0
   35.1540   32.2016   26.7864 N   0  0  0  0  0  0  0  0  0  0  0  0
   37.8116   34.8037   26.3448 C   0  0  0  0  0  0  0  0  0  0  0  0
   38.9929   34.2321   27.0099 N   0  0  0  0  0  0  0  0  0  0  0  0
  1  2  1  0  0  0  0
  1  7  1  0  0  0  0
  2  3  1  0  0  0  0
  2  4  2  0  0  0  0
  4  5  1  0  0  0  0
  5  6  2  0  0  0  0
  5 11  1  0  0  0  0
  6  7  1  0  0  0  0
  6  9  1  0  0  0  0
  7  8  2  0  0  0  0
  9 10  2  0  0  0  0
  9 12  1  0  0  0  0
 10 11  1  0  0  0  0
 12 13  1  0  0  0  0
M  END
>  <CHROM.1>
-143.09969833,35.62002971,33.55581834,25.05754996,-2.72902143,0.58252026
2.12959593

>  <Name>
ligand

>  <RI>
0

>  <Rbt.Current_Directory>
/home/itssahil/PROJECTS/Mol_Feturizer/Test_systems_manuscript/rnas/3q50

>  <Rbt.Executable>
rbdock ($Id: //depot/dev/client3/rdock/2013.1/src/exe/rbdock.cxx#4 $)

>  <Rbt.Library>
libRbt.so (2013.1, Build901 2013/11/27)

>  <Rbt.Parameter_File>
/export/apps/rDock/src/rDock_2013.1_src/data/scripts/dock_solv.prm

>  <Rbt.Receptor>
prm/pocket_docking_8.prm

>  <SCORE>
-17.0619

>  <SCORE.INTER>
-16.9812

>  <SCORE.INTER.CONST>
1

>  <SCORE.INTER.POLAR>
0

>  <SCORE.INTER.ROT>
1

>  <SCORE.INTER.SOLV>
19.63

>  <SCORE.INTER.VDW>
-22.1308

>  <SCORE.INTER.norm>
-1.30625

>  <SCORE.INTRA>
-0.0806639

>  <SCORE.INTRA.DIHEDRAL>
-0.0253021

>  <SCORE.INTRA.DIHEDRAL.0>
1.65305

>  <SCORE.INTRA.POLAR>
0

>  <SCORE.INTRA.POLAR.0>
0

>  <SCORE.INTRA.REPUL>
0

>  <SCORE.INTRA.REPUL.0>
0

>  <SCORE.INTRA.SOLV>
-0.00789277

>  <SCORE.INTRA.SOLV.lig_0>
-46.9527

>  <SCORE.INTRA.VDW>
-0.0640664

>  <SCORE.INTRA.VDW.0>
-0.177978

>  <SCORE.INTRA.norm>
-0.00620491

>  <SCORE.RESTR>
0

>  <SCORE.RESTR.CAVITY>
0

>  <SCORE.RESTR.norm>
0

>  <SCORE.SYSTEM>
0

>  <SCORE.SYSTEM.CONST>
0

>  <SCORE.SYSTEM.DIHEDRAL>
0

>  <SCORE.SYSTEM.SOLV>
0

>  <SCORE.SYSTEM.norm>
0

>  <SCORE.heavy>
13

>  <SCORE.norm>
-1.31245

>  <RMSD>
0.645

$$$$
ligand
 OpenBabel02271912143D
libRbt.so/2013.1/901 2013/11/27
 13 14  0  0  0  0  0  0  0  0999 V2000
   34.6942   34.0279   23.1771 N   0  0  0  0  0  0  0  0  0  0  0  0
   33.7841   33.0646   23.6493 C   0  0  0  0  0  0  0  0  0  0  0  0
   32.7004   32.7798   22.8293 N   0  0  0  0  0  0  0  0  0  0  0  0
   33.8601   32.4215   24.8394 N   0  0  0  0  0  0  0  0  0  0  0  0
   34.9721   32.8172   25.5767 C   0  0  0  0  0  0  0  0  0  0  0  0
   35.9363   33.7528   25.1823 C   0  0  0  0  0  0  0  0  0  0  0  0
   35.8348   34.4109   23.9479 C   0  0  0  0  0  0  0  0  0  0  0  0
   36.5970   35.2544   23.4990 O   0  0  0  0  0  0  0  0  0  0  0  0
   36.9030   33.8752   26.2066 C   0  0  0  0  0  0  0  0  0  0  0  0
   36.5186   33.0035   27.2136 C   0  0  0  0  0  0  0  0  0  0  0  0
   35.3255   32.3426   26.8265 N   0  0  0  0  0  0  0  0  0  0  0  0
   38.0625   34.8058   26.1409 C   0  0  0  0  0  0  0  0  0  0  0  0
   37.6097   36.2039   26.0716 N   0  0  0  0  0  0  0  0  0  0  0  0
  1  2  1  0  0  0  0
  1  7  1  0  0  0  0
  2  3  1  0  0  0  0
  2  4  2  0  0  0  0
  4  5  1  0  0  0  0
  5  6  2  0  0  0  0
  5 11  1  0  0  0  0
  6  7  1  0  0  0  0
  6  9  1  0  0  0  0
  7  8  2  0  0  0  0
  9 10  2  0  0  0  0
  9 12  1  0  0  0  0
 10 11  1  0  0  0  0
 12 13  1  0  0  0  0
M  END
>  <CHROM.1>
62.40167589,35.60763501,33.78664803,24.97518545,-2.91773141,0.66172703,2.15807470

>  <Name>
ligand

>  <RI>
0

>  <Rbt.Current_Directory>
/home/itssahil/PROJECTS/Mol_Feturizer/Test_systems_manuscript/rnas/3q50

>  <Rbt.Executable>
rbdock ($Id: //depot/dev/client3/rdock/2013.1/src/exe/rbdock.cxx#4 $)

>  <Rbt.Library>
libRbt.so (2013.1, Build901 2013/11/27)

>  <Rbt.Parameter_File>
/export/apps/rDock/src/rDock_2013.1_src/data/scripts/dock_solv.prm

>  <Rbt.Receptor>
prm/blind_docking_80.prm

>  <SCORE>
-15.0637

>  <SCORE.INTER>
-15.671

>  <SCORE.INTER.CONST>
1

>  <SCORE.INTER.POLAR>
0

>  <SCORE.INTER.ROT>
1

>  <SCORE.INTER.SOLV>
21.75

>  <SCORE.INTER.VDW>
-21.964

>  <SCORE.INTER.norm>
-1.20547

>  <SCORE.INTRA>
0.607311

>  <SCORE.INTRA.DIHEDRAL>
0.017963

>  <SCORE.INTRA.DIHEDRAL.0>
1.65305

>  <SCORE.INTRA.POLAR>
0

>  <SCORE.INTRA.POLAR.0>
0

>  <SCORE.INTRA.REPUL>
0

>  <SCORE.INTRA.REPUL.0>
0

>  <SCORE.INTRA.SOLV>
1.70465

>  <SCORE.INTRA.SOLV.lig_0>
-46.9527

>  <SCORE.INTRA.VDW>
-0.253995

>  <SCORE.INTRA.VDW.0>
-0.177978

>  <SCORE.INTRA.norm>
0.0467163

>  <SCORE.RESTR>
0

>  <SCORE.RESTR.CAVITY>
0

>  <SCORE.RESTR.norm>
0

>  <SCORE.SYSTEM>
0

>  <SCORE.SYSTEM.CONST>
0

>  <SCORE.SYSTEM.DIHEDRAL>
0

>  <SCORE.SYSTEM.SOLV>
0

>  <SCORE.SYSTEM.norm>
0

>  <SCORE.heavy>
13

>  <SCORE.norm>
-1.15875

>  <RMSD>
0.668

$$$$
ligand
 OpenBabel02271912143D
libRbt.so/2013.1/901 2013/11/27
 13 14  0  0  0  0  0  0  0  0999 V2000
   34.0844   33.7117   22.7761 N   0  0  0  0  0  0  0  0  0  0  0  0
   33.2627   32.6841   23.2743 C   0  0  0  0  0  0  0  0  0  0  0  0
   32.1940   32.3009   22.4749 N   0  0  0  0  0  0  0  0  0  0  0  0
   33.4081   32.0658   24.4711 N   0  0  0  0  0  0  0  0  0  0  0  0
   34.4947   32.5606   25.1859 C   0  0  0  0  0  0  0  0  0  0  0  0
   35.3737   33.5660   24.7649 C   0  0  0  0  0  0  0  0  0  0  0  0
   35.2010   34.1967   23.5242 C   0  0  0  0  0  0  0  0  0  0  0  0
   35.8853   35.0931   23.0530 O   0  0  0  0  0  0  0  0  0  0  0  0
   36.3419   33.7806   25.7725 C   0  0  0  0  0  0  0  0  0  0  0  0
   36.0444   32.8945   26.7962 C   0  0  0  0  0  0  0  0  0  0  0  0
   34.9036   32.1335   26.4360 N   0  0  0  0  0  0  0  0  0  0  0  0
   37.4206   34.8014   25.6771 C   0  0  0  0  0  0  0  0  0  0  0  0
   38.4946   34.5215   26.6428 N   0  0  0  0  0  0  0  0  0  0  0  0
  1  2  1  0  0  0  0
  1  7  1  0  0  0  0
  2  3  1  0  0  0  0
  2  4  2  0  0  0  0
  4  5  1  0  0  0  0
  5  6  2  0  0  0  0
  5 11  1  0  0  0  0
  6  7  1  0  0  0  0
  6  9  1  0  0  0  0
  7  8  2  0  0  0  0
  9 10  2  0  0  0  0
  9 12  1  0  0  0  0
 10 11  1  0  0  0  0
 12 13  1  0  0  0  0
M  END
>  <CHROM.1>
-162.43876577,35.17382392,33.43707293,24.64765790,-2.81014972,0.60293879
2.13612753

>  <Name>
ligand

>  <RI>
0

>  <Rbt.Current_Directory>
/home/itssahil/PROJECTS/Mol_Feturizer/Test_systems_manuscript/rnas/3q50

>  <Rbt.Executable>
rbdock ($Id: //depot/dev/client3/rdock/2013.1/src/exe/rbdock.cxx#4 $)

>  <Rbt.Library>
libRbt.so (2013.1, Build901 2013/11/27)

>  <Rbt.Parameter_File>
/export/apps/rDock/src/rDock_2013.1_src/data/scripts/dock_solv.prm

>  <Rbt.Receptor>
prm/pocket_docking_4.prm

>  <SCORE>
-17.0017

>  <SCORE.INTER>
-16.9762

>  <SCORE.INTER.CONST>
1

>  <SCORE.INTER.POLAR>
0

>  <SCORE.INTER.ROT>
1

>  <SCORE.INTER.SOLV>
22.1101

>  <SCORE.INTER.VDW>
-22.9542

>  <SCORE.INTER.norm>
-1.30586

>  <SCORE.INTRA>
-0.0254764

>  <SCORE.INTRA.DIHEDRAL>
-0.0192038

>  <SCORE.INTRA.DIHEDRAL.0>
1.65305

>  <SCORE.INTRA.POLAR>
0

>  <SCORE.INTRA.POLAR.0>
0

>  <SCORE.INTRA.REPUL>
0

>  <SCORE.INTRA.REPUL.0>
0

>  <SCORE.INTRA.SOLV>
-0.00212422

>  <SCORE.INTRA.SOLV.lig_0>
-46.9527

>  <SCORE.INTRA.VDW>
-0.0148124

>  <SCORE.INTRA.VDW.0>
-0.177978

>  <SCORE.INTRA.norm>
-0.00195973

>  <SCORE.RESTR>
0

>  <SCORE.RESTR.CAVITY>
0

>  <SCORE.RESTR.norm>
0

>  <SCORE.SYSTEM>
0

>  <SCORE.SYSTEM.CONST>
0

>  <SCORE.SYSTEM.DIHEDRAL>
0

>  <SCORE.SYSTEM.SOLV>
0

>  <SCORE.SYSTEM.norm>
0

>  <SCORE.heavy>
13

>  <SCORE.norm>
-1.30782

>  <RMSD>
0.685

$$$$
ligand
 OpenBabel02271912143D
libRbt.so/2013.1/901 2013/11/27
 13 14  0  0  0  0  0  0  0  0999 V2000
   34.7736   34.1209   23.2483 N   0  0  0  0  0  0  0  0  0  0  0  0
   33.8647   33.1077   23.6038 C   0  0  0  0  0  0  0  0  0  0  0  0
   32.8449   32.8430   22.6994 N   0  0  0  0  0  0  0  0  0  0  0  0
   33.8836   32.3979   24.7578 N   0  0  0  0  0  0  0  0  0  0  0  0
   34.9335   32.7789   25.5880 C   0  0  0  0  0  0  0  0  0  0  0  0
   35.8923   33.7613   25.3119 C   0  0  0  0  0  0  0  0  0  0  0  0
   35.8503   34.4880   24.1130 C   0  0  0  0  0  0  0  0  0  0  0  0
   36.6137   35.3764   23.7641 O   0  0  0  0  0  0  0  0  0  0  0  0
   36.7871   33.8489   26.4029 C   0  0  0  0  0  0  0  0  0  0  0  0
   36.3654   32.9095   27.3311 C   0  0  0  0  0  0  0  0  0  0  0  0
   35.2202   32.2411   26.8293 N   0  0  0  0  0  0  0  0  0  0  0  0
   37.9196   34.8122   26.4668 C   0  0  0  0  0  0  0  0  0  0  0  0
   39.0800   34.2134   27.1447 N   0  0  0  0  0  0  0  0  0  0  0  0
  1  2  1  0  0  0  0
  1  7  1  0  0  0  0
  2  3  1  0  0  0  0
  2  4  2  0  0  0  0
  4  5  1  0  0  0  0
  5  6  2  0  0  0  0
  5 11  1  0  0  0  0
  6  7  1  0  0  0  0
  6  9  1  0  0  0  0
  7  8  2  0  0  0  0
  9 10  2  0  0  0  0
  9 12  1  0  0  0  0
 10 11  1  0  0  0  0
 12 13  1  0  0  0  0
M  END
>  <CHROM.1>
-144.36895637,35.71093149,33.63697837,25.14261404,-2.71510852,0.57221313
2.15106781

>  <Name>
ligand

>  <RI>
0

>  <Rbt.Current_Directory>
/home/itssahil/PROJECTS/Mol_Feturizer/Test_systems_manuscript/rnas/3q50

>  <Rbt.Executable>
rbdock ($Id: //depot/dev/client3/rdock/2013.1/src/exe/rbdock.cxx#4 $)

>  <Rbt.Library>
libRbt.so (2013.1, Build901 2013/11/27)

>  <Rbt.Parameter_File>
/export/apps/rDock/src/rDock_2013.1_src/data/scripts/dock_solv.prm

>  <Rbt.Receptor>
prm/pocket_docking_8.prm

>  <SCORE>
-16.9551

>  <SCORE.INTER>
-16.8774

>  <SCORE.INTER.CONST>
1

>  <SCORE.INTER.POLAR>
0

>  <SCORE.INTER.ROT>
1

>  <SCORE.INTER.SOLV>
19.0012

>  <SCORE.INTER.VDW>
-21.852

>  <SCORE.INTER.norm>
-1.29826

>  <SCORE.INTRA>
-0.0776693

>  <SCORE.INTRA.DIHEDRAL>
-0.0266335

>  <SCORE.INTRA.DIHEDRAL.0>
1.65305

>  <SCORE.INTRA.POLAR>
0

>  <SCORE.INTRA.POLAR.0>
0

>  <SCORE.INTRA.REPUL>
0

>  <SCORE.INTRA.REPUL.0>
0

>  <SCORE.INTRA.SOLV>
-0.0075199

>  <SCORE.INTRA.SOLV.lig_0>
-46.9527

>  <SCORE.INTRA.VDW>
-0.0605926

>  <SCORE.INTRA.VDW.0>
-0.177978

>  <SCORE.INTRA.norm>
-0.00597456

>  <SCORE.RESTR>
0

>  <SCORE.RESTR.CAVITY>
0

>  <SCORE.RESTR.norm>
0

>  <SCORE.SYSTEM>
0

>  <SCORE.SYSTEM.CONST>
0

>  <SCORE.SYSTEM.DIHEDRAL>
0

>  <SCORE.SYSTEM.SOLV>
0

>  <SCORE.SYSTEM.norm>
0

>  <SCORE.heavy>
13

>  <SCORE.norm>
-1.30424

>  <RMSD>
0.712

$$$$
ligand
 OpenBabel02271912143D
libRbt.so/2013.1/901 2013/11/27
 13 14  0  0  0  0  0  0  0  0999 V2000
   34.7913   34.1018   23.2342 N   0  0  0  0  0  0  0  0  0  0  0  0
   33.8796   33.0914   23.5909 C   0  0  0  0  0  0  0  0  0  0  0  0
   32.8631   32.8237   22.6836 N   0  0  0  0  0  0  0  0  0  0  0  0
   33.8929   32.3873   24.7483 N   0  0  0  0  0  0  0  0  0  0  0  0
   34.9399   32.7708   25.5809 C   0  0  0  0  0  0  0  0  0  0  0  0
   35.9011   33.7507   25.3040 C   0  0  0  0  0  0  0  0  0  0  0  0
   35.8649   34.4717   24.1015 C   0  0  0  0  0  0  0  0  0  0  0  0
   36.6309   35.3574   23.7514 O   0  0  0  0  0  0  0  0  0  0  0  0
   36.7916   33.8423   26.3982 C   0  0  0  0  0  0  0  0  0  0  0  0
   36.3649   32.9080   27.3292 C   0  0  0  0  0  0  0  0  0  0  0  0
   35.2208   32.2387   26.8260 N   0  0  0  0  0  0  0  0  0  0  0  0
   37.9251   34.8044   26.4621 C   0  0  0  0  0  0  0  0  0  0  0  0
   39.0831   34.2063   27.1446 N   0  0  0  0  0  0  0  0  0  0  0  0
  1  2  1  0  0  0  0
  1  7  1  0  0  0  0
  2  3  1  0  0  0  0
  2  4  2  0  0  0  0
  4  5  1  0  0  0  0
  5  6  2  0  0  0  0
  5 11  1  0  0  0  0
  6  7  1  0  0  0  0
  6  9  1  0  0  0  0
  7  8  2  0  0  0  0
  9 10  2  0  0  0  0
  9 12  1  0  0  0  0
 10 11  1  0  0  0  0
 12 13  1  0  0  0  0
M  END
>  <CHROM.1>
-144.22742576,35.72035162,33.62566305,25.13433885,-2.71038348,0.57311985
2.14360583

>  <Name>
ligand

>  <RI>
0

>  <Rbt.Current_Directory>
/home/itssahil/PROJECTS/Mol_Feturizer/Test_systems_manuscript/rnas/3q50

>  <Rbt.Executable>
rbdock ($Id: //depot/dev/client3/rdock/2013.1/src/exe/rbdock.cxx#4 $)

>  <Rbt.Library>
libRbt.so (2013.1, Build901 2013/11/27)

>  <Rbt.Parameter_File>
/export/apps/rDock/src/rDock_2013.1_src/data/scripts/dock_solv.prm

>  <Rbt.Receptor>
prm/pocket_docking_3.prm

>  <SCORE>
-16.9665

>  <SCORE.INTER>
-16.8885

>  <SCORE.INTER.CONST>
1

>  <SCORE.INTER.POLAR>
0

>  <SCORE.INTER.ROT>
1

>  <SCORE.INTER.SOLV>
18.9843

>  <SCORE.INTER.VDW>
-21.8538

>  <SCORE.INTER.norm>
-1.29911

>  <SCORE.INTRA>
-0.0780092

>  <SCORE.INTRA.DIHEDRAL>
-0.0264967

>  <SCORE.INTRA.DIHEDRAL.0>
1.65305

>  <SCORE.INTRA.POLAR>
0

>  <SCORE.INTRA.POLAR.0>
0

>  <SCORE.INTRA.REPUL>
0

>  <SCORE.INTRA.REPUL.0>
0

>  <SCORE.INTRA.SOLV>
-0.00756179

>  <SCORE.INTRA.SOLV.lig_0>
-46.9527

>  <SCORE.INTRA.VDW>
-0.06098

>  <SCORE.INTRA.VDW.0>
-0.177978

>  <SCORE.INTRA.norm>
-0.00600071

>  <SCORE.RESTR>
0

>  <SCORE.RESTR.CAVITY>
0

>  <SCORE.RESTR.norm>
0

>  <SCORE.SYSTEM>
0

>  <SCORE.SYSTEM.CONST>
0

>  <SCORE.SYSTEM.DIHEDRAL>
0

>  <SCORE.SYSTEM.SOLV>
0

>  <SCORE.SYSTEM.norm>
0

>  <SCORE.heavy>
13

>  <SCORE.norm>
-1.30511

>  <RMSD>
0.715

$$$$
ligand
 OpenBabel02271912143D
libRbt.so/2013.1/901 2013/11/27
 13 14  0  0  0  0  0  0  0  0999 V2000
   34.8071   34.1101   23.2634 N   0  0  0  0  0  0  0  0  0  0  0  0
   33.9125   33.0817   23.6119 C   0  0  0  0  0  0  0  0  0  0  0  0
   32.8961   32.8094   22.7060 N   0  0  0  0  0  0  0  0  0  0  0  0
   33.9420   32.3638   24.7606 N   0  0  0  0  0  0  0  0  0  0  0  0
   34.9869   32.7533   25.5931 C   0  0  0  0  0  0  0  0  0  0  0  0
   35.9318   33.7510   25.3238 C   0  0  0  0  0  0  0  0  0  0  0  0
   35.8790   34.4858   24.1303 C   0  0  0  0  0  0  0  0  0  0  0  0
   36.6298   35.3873   23.7876 O   0  0  0  0  0  0  0  0  0  0  0  0
   36.8258   33.8430   26.4151 C   0  0  0  0  0  0  0  0  0  0  0  0
   36.4178   32.8911   27.3365 C   0  0  0  0  0  0  0  0  0  0  0  0
   35.2817   32.2105   26.8304 N   0  0  0  0  0  0  0  0  0  0  0  0
   37.9449   34.8215   26.4855 C   0  0  0  0  0  0  0  0  0  0  0  0
   39.1161   34.2319   27.1526 N   0  0  0  0  0  0  0  0  0  0  0  0
  1  2  1  0  0  0  0
  1  7  1  0  0  0  0
  2  3  1  0  0  0  0
  2  4  2  0  0  0  0
  4  5  1  0  0  0  0
  5  6  2  0  0  0  0
  5 11  1  0  0  0  0
  6  7  1  0  0  0  0
  6  9  1  0  0  0  0
  7  8  2  0  0  0  0
  9 10  2  0  0  0  0
  9 12  1  0  0  0  0
 10 11  1  0  0  0  0
 12 13  1  0  0  0  0
M  END
>  <CHROM.1>
-144.08768705,35.75225595,33.62519268,25.15323139,-2.72513250,0.58314354
2.16369829

>  <Name>
ligand

>  <RI>
0

>  <Rbt.Current_Directory>
/home/itssahil/PROJECTS/Mol_Feturizer/Test_systems_manuscript/rnas/3q50

>  <Rbt.Executable>
rbdock ($Id: //depot/dev/client3/rdock/2013.1/src/exe/rbdock.cxx#4 $)

>  <Rbt.Library>
libRbt.so (2013.1, Build901 2013/11/27)

>  <Rbt.Parameter_File>
/export/apps/rDock/src/rDock_2013.1_src/data/scripts/dock_solv.prm

>  <Rbt.Receptor>
prm/pocket_docking_5.prm

>  <SCORE>
-16.9234

>  <SCORE.INTER>
-16.8451

>  <SCORE.INTER.CONST>
1

>  <SCORE.INTER.POLAR>
0

>  <SCORE.INTER.ROT>
1

>  <SCORE.INTER.SOLV>
18.8419

>  <SCORE.INTER.VDW>
-21.7773

>  <SCORE.INTER.norm>
-1.29577

>  <SCORE.INTRA>
-0.0783434

>  <SCORE.INTRA.DIHEDRAL>
-0.0263587

>  <SCORE.INTRA.DIHEDRAL.0>
1.65305

>  <SCORE.INTRA.POLAR>
0

>  <SCORE.INTRA.POLAR.0>
0

>  <SCORE.INTRA.REPUL>
0

>  <SCORE.INTRA.REPUL.0>
0

>  <SCORE.INTRA.SOLV>
-0.00760308

>  <SCORE.INTRA.SOLV.lig_0>
-46.9527

>  <SCORE.INTRA.VDW>
-0.0613625

>  <SCORE.INTRA.VDW.0>
-0.177978

>  <SCORE.INTRA.norm>
-0.00602642

>  <SCORE.RESTR>
0

>  <SCORE.RESTR.CAVITY>
0

>  <SCORE.RESTR.norm>
0

>  <SCORE.SYSTEM>
0

>  <SCORE.SYSTEM.CONST>
0

>  <SCORE.SYSTEM.DIHEDRAL>
0

>  <SCORE.SYSTEM.SOLV>
0

>  <SCORE.SYSTEM.norm>
0

>  <SCORE.heavy>
13

>  <SCORE.norm>
-1.3018

>  <RMSD>
0.716

$$$$
ligand
 OpenBabel02271912143D
libRbt.so/2013.1/901 2013/11/27
 13 14  0  0  0  0  0  0  0  0999 V2000
   34.7996   34.1463   23.2685 N   0  0  0  0  0  0  0  0  0  0  0  0
   33.9003   33.1206   23.6126 C   0  0  0  0  0  0  0  0  0  0  0  0
   32.8804   32.8594   22.7072 N   0  0  0  0  0  0  0  0  0  0  0  0
   33.9283   32.3955   24.7568 N   0  0  0  0  0  0  0  0  0  0  0  0
   34.9771   32.7742   25.5894 C   0  0  0  0  0  0  0  0  0  0  0  0
   35.9268   33.7684   25.3242 C   0  0  0  0  0  0  0  0  0  0  0  0
   35.8754   34.5108   24.1354 C   0  0  0  0  0  0  0  0  0  0  0  0
   36.6303   35.4104   23.7966 O   0  0  0  0  0  0  0  0  0  0  0  0
   36.8237   33.8488   26.4141 C   0  0  0  0  0  0  0  0  0  0  0  0
   36.4125   32.8935   27.3305 C   0  0  0  0  0  0  0  0  0  0  0  0
   35.2717   32.2222   26.8227 N   0  0  0  0  0  0  0  0  0  0  0  0
   37.9482   34.8208   26.4881 C   0  0  0  0  0  0  0  0  0  0  0  0
   39.0431   34.2941   27.3176 N   0  0  0  0  0  0  0  0  0  0  0  0
  1  2  1  0  0  0  0
  1  7  1  0  0  0  0
  2  3  1  0  0  0  0
  2  4  2  0  0  0  0
  4  5  1  0  0  0  0
  5  6  2  0  0  0  0
  5 11  1  0  0  0  0
  6  7  1  0  0  0  0
  6  9  1  0  0  0  0
  7  8  2  0  0  0  0
  9 10  2  0  0  0  0
  9 12  1  0  0  0  0
 10 11  1  0  0  0  0
 12 13  1  0  0  0  0
M  END
>  <CHROM.1>
-152.36580051,35.74015748,33.65058981,25.16696823,-2.71446666,0.58990914
2.16779960

>  <Name>
ligand

>  <RI>
0

>  <Rbt.Current_Directory>
/home/itssahil/PROJECTS/Mol_Feturizer/Test_systems_manuscript/rnas/3q50

>  <Rbt.Executable>
rbdock ($Id: //depot/dev/client3/rdock/2013.1/src/exe/rbdock.cxx#4 $)

>  <Rbt.Library>
libRbt.so (2013.1, Build901 2013/11/27)

>  <Rbt.Parameter_File>
/export/apps/rDock/src/rDock_2013.1_src/data/scripts/dock_solv.prm

>  <Rbt.Receptor>
prm/pocket_docking_7.prm

>  <SCORE>
-16.8991

>  <SCORE.INTER>
-16.8429

>  <SCORE.INTER.CONST>
1

>  <SCORE.INTER.POLAR>
0

>  <SCORE.INTER.ROT>
1

>  <SCORE.INTER.SOLV>
18.9001

>  <SCORE.INTER.VDW>
-21.7953

>  <SCORE.INTER.norm>
-1.29561

>  <SCORE.INTRA>
-0.0562517

>  <SCORE.INTRA.DIHEDRAL>
-0.0294317

>  <SCORE.INTRA.DIHEDRAL.0>
1.65305

>  <SCORE.INTRA.POLAR>
0

>  <SCORE.INTRA.POLAR.0>
0

>  <SCORE.INTRA.REPUL>
0

>  <SCORE.INTRA.REPUL.0>
0

>  <SCORE.INTRA.SOLV>
-0.00508366

>  <SCORE.INTRA.SOLV.lig_0>
-46.9527

>  <SCORE.INTRA.VDW>
-0.038994

>  <SCORE.INTRA.VDW.0>
-0.177978

>  <SCORE.INTRA.norm>
-0.00432705

>  <SCORE.RESTR>
0

>  <SCORE.RESTR.CAVITY>
0

>  <SCORE.RESTR.norm>
0

>  <SCORE.SYSTEM>
0

>  <SCORE.SYSTEM.CONST>
0

>  <SCORE.SYSTEM.DIHEDRAL>
0

>  <SCORE.SYSTEM.SOLV>
0

>  <SCORE.SYSTEM.norm>
0

>  <SCORE.heavy>
13

>  <SCORE.norm>
-1.29993

>  <RMSD>
0.722

$$$$
ligand
 OpenBabel02271912143D
libRbt.so/2013.1/901 2013/11/27
 13 14  0  0  0  0  0  0  0  0999 V2000
   34.7670   34.1322   23.2830 N   0  0  0  0  0  0  0  0  0  0  0  0
   33.8548   33.1211   23.6364 C   0  0  0  0  0  0  0  0  0  0  0  0
   32.8260   32.8713   22.7380 N   0  0  0  0  0  0  0  0  0  0  0  0
   33.8790   32.4003   24.7834 N   0  0  0  0  0  0  0  0  0  0  0  0
   34.9380   32.7669   25.6084 C   0  0  0  0  0  0  0  0  0  0  0  0
   35.9005   33.7461   25.3336 C   0  0  0  0  0  0  0  0  0  0  0  0
   35.8530   34.4845   24.1421 C   0  0  0  0  0  0  0  0  0  0  0  0
   36.6190   35.3715   23.7953 O   0  0  0  0  0  0  0  0  0  0  0  0
   36.8048   33.8177   26.4180 C   0  0  0  0  0  0  0  0  0  0  0  0
   36.3851   32.8722   27.3406 C   0  0  0  0  0  0  0  0  0  0  0  0
   35.2317   32.2155   26.8421 N   0  0  0  0  0  0  0  0  0  0  0  0
   37.9438   34.7735   26.4816 C   0  0  0  0  0  0  0  0  0  0  0  0
   39.0980   34.1694   27.1651 N   0  0  0  0  0  0  0  0  0  0  0  0
  1  2  1  0  0  0  0
  1  7  1  0  0  0  0
  2  3  1  0  0  0  0
  2  4  2  0  0  0  0
  4  5  1  0  0  0  0
  5  6  2  0  0  0  0
  5 11  1  0  0  0  0
  6  7  1  0  0  0  0
  6  9  1  0  0  0  0
  7  8  2  0  0  0  0
  9 10  2  0  0  0  0
  9 12  1  0  0  0  0
 10 11  1  0  0  0  0
 12 13  1  0  0  0  0
M  END
>  <CHROM.1>
-145.36527482,35.71634299,33.62511698,25.16641080,-2.71817519,0.56399552
2.16281353

>  <Name>
ligand

>  <RI>
0

>  <Rbt.Current_Directory>
/home/itssahil/PROJECTS/Mol_Feturizer/Test_systems_manuscript/rnas/3q50

>  <Rbt.Executable>
rbdock ($Id: //depot/dev/client3/rdock/2013.1/src/exe/rbdock.cxx#4 $)

>  <Rbt.Library>
libRbt.so (2013.1, Build901 2013/11/27)

>  <Rbt.Parameter_File>
/export/apps/rDock/src/rDock_2013.1_src/data/scripts/dock_solv.prm

>  <Rbt.Receptor>
prm/pocket_docking_5.prm

>  <SCORE>
-16.8868

>  <SCORE.INTER>
-16.8116

>  <SCORE.INTER.CONST>
1

>  <SCORE.INTER.POLAR>
0

>  <SCORE.INTER.ROT>
1

>  <SCORE.INTER.SOLV>
18.9769

>  <SCORE.INTER.VDW>
-21.8

>  <SCORE.INTER.norm>
-1.2932

>  <SCORE.INTRA>
-0.0752343

>  <SCORE.INTRA.DIHEDRAL>
-0.0275131

>  <SCORE.INTRA.DIHEDRAL.0>
1.65305

>  <SCORE.INTRA.POLAR>
0

>  <SCORE.INTRA.POLAR.0>
0

>  <SCORE.INTRA.REPUL>
0

>  <SCORE.INTRA.REPUL.0>
0

>  <SCORE.INTRA.SOLV>
-0.00722302

>  <SCORE.INTRA.SOLV.lig_0>
-46.9527

>  <SCORE.INTRA.VDW>
-0.0578663

>  <SCORE.INTRA.VDW.0>
-0.177978

>  <SCORE.INTRA.norm>
-0.00578726

>  <SCORE.RESTR>
0

>  <SCORE.RESTR.CAVITY>
0

>  <SCORE.RESTR.norm>
0

>  <SCORE.SYSTEM>
0

>  <SCORE.SYSTEM.CONST>
0

>  <SCORE.SYSTEM.DIHEDRAL>
0

>  <SCORE.SYSTEM.SOLV>
0

>  <SCORE.SYSTEM.norm>
0

>  <SCORE.heavy>
13

>  <SCORE.norm>
-1.29899

>  <RMSD>
0.732

$$$$
ligand
 OpenBabel02271912143D
libRbt.so/2013.1/901 2013/11/27
 13 14  0  0  0  0  0  0  0  0999 V2000
   34.0352   33.6729   22.7261 N   0  0  0  0  0  0  0  0  0  0  0  0
   33.2196   32.6424   23.2282 C   0  0  0  0  0  0  0  0  0  0  0  0
   32.1578   32.2447   22.4268 N   0  0  0  0  0  0  0  0  0  0  0  0
   33.3644   32.0342   24.4302 N   0  0  0  0  0  0  0  0  0  0  0  0
   34.4437   32.5431   25.1463 C   0  0  0  0  0  0  0  0  0  0  0  0
   35.3165   33.5524   24.7218 C   0  0  0  0  0  0  0  0  0  0  0  0
   35.1444   34.1725   23.4756 C   0  0  0  0  0  0  0  0  0  0  0  0
   35.8236   35.0709   23.0009 O   0  0  0  0  0  0  0  0  0  0  0  0
   36.2782   33.7824   25.7322 C   0  0  0  0  0  0  0  0  0  0  0  0
   35.9832   32.9015   26.7610 C   0  0  0  0  0  0  0  0  0  0  0  0
   34.8503   32.1286   26.4013 N   0  0  0  0  0  0  0  0  0  0  0  0
   37.3491   34.8112   25.6341 C   0  0  0  0  0  0  0  0  0  0  0  0
   38.3837   34.5905   26.6565 N   0  0  0  0  0  0  0  0  0  0  0  0
  1  2  1  0  0  0  0
  1  7  1  0  0  0  0
  2  3  1  0  0  0  0
  2  4  2  0  0  0  0
  4  5  1  0  0  0  0
  5  6  2  0  0  0  0
  5 11  1  0  0  0  0
  6  7  1  0  0  0  0
  6  9  1  0  0  0  0
  7  8  2  0  0  0  0
  9 10  2  0  0  0  0
  9 12  1  0  0  0  0
 10 11  1  0  0  0  0
 12 13  1  0  0  0  0
M  END
>  <CHROM.1>
-165.59615063,35.11517173,33.42455356,24.60862767,-2.80836869,0.61747624
2.12802200

>  <Name>
ligand

>  <RI>
0

>  <Rbt.Current_Directory>
/home/itssahil/PROJECTS/Mol_Feturizer/Test_systems_manuscript/rnas/3q50

>  <Rbt.Executable>
rbdock ($Id: //depot/dev/client3/rdock/2013.1/src/exe/rbdock.cxx#4 $)

>  <Rbt.Library>
libRbt.so (2013.1, Build901 2013/11/27)

>  <Rbt.Parameter_File>
/export/apps/rDock/src/rDock_2013.1_src/data/scripts/dock_solv.prm

>  <Rbt.Receptor>
prm/pocket_docking_6.prm

>  <SCORE>
-17.0401

>  <SCORE.INTER>
-17.0243

>  <SCORE.INTER.CONST>
1

>  <SCORE.INTER.POLAR>
0

>  <SCORE.INTER.ROT>
1

>  <SCORE.INTER.SOLV>
22.3042

>  <SCORE.INTER.VDW>
-23.0509

>  <SCORE.INTER.norm>
-1.30956

>  <SCORE.INTRA>
-0.0158495

>  <SCORE.INTRA.DIHEDRAL>
-0.0131794

>  <SCORE.INTRA.DIHEDRAL.0>
1.65305

>  <SCORE.INTRA.POLAR>
0

>  <SCORE.INTRA.POLAR.0>
0

>  <SCORE.INTRA.REPUL>
0

>  <SCORE.INTRA.REPUL.0>
0

>  <SCORE.INTRA.SOLV>
-0.0012936

>  <SCORE.INTRA.SOLV.lig_0>
-46.9527

>  <SCORE.INTRA.VDW>
-0.00861296

>  <SCORE.INTRA.VDW.0>
-0.177978

>  <SCORE.INTRA.norm>
-0.00121919

>  <SCORE.RESTR>
0

>  <SCORE.RESTR.CAVITY>
0

>  <SCORE.RESTR.norm>
0

>  <SCORE.SYSTEM>
0

>  <SCORE.SYSTEM.CONST>
0

>  <SCORE.SYSTEM.DIHEDRAL>
0

>  <SCORE.SYSTEM.SOLV>
0

>  <SCORE.SYSTEM.norm>
0

>  <SCORE.heavy>
13

>  <SCORE.norm>
-1.31078

>  <RMSD>
0.735

$$$$
ligand
 OpenBabel02271912143D
libRbt.so/2013.1/901 2013/11/27
 13 14  0  0  0  0  0  0  0  0999 V2000
   34.8013   34.1037   23.2610 N   0  0  0  0  0  0  0  0  0  0  0  0
   33.8856   33.0951   23.6127 C   0  0  0  0  0  0  0  0  0  0  0  0
   32.8685   32.8355   22.7038 N   0  0  0  0  0  0  0  0  0  0  0  0
   33.8959   32.3855   24.7669 N   0  0  0  0  0  0  0  0  0  0  0  0
   34.9440   32.7613   25.6016 C   0  0  0  0  0  0  0  0  0  0  0  0
   35.9091   33.7387   25.3295 C   0  0  0  0  0  0  0  0  0  0  0  0
   35.8760   34.4654   24.1303 C   0  0  0  0  0  0  0  0  0  0  0  0
   36.6456   35.3498   23.7846 O   0  0  0  0  0  0  0  0  0  0  0  0
   36.7995   33.8219   26.4245 C   0  0  0  0  0  0  0  0  0  0  0  0
   36.3689   32.8849   27.3509 C   0  0  0  0  0  0  0  0  0  0  0  0
   35.2225   32.2223   26.8442 N   0  0  0  0  0  0  0  0  0  0  0  0
   37.9367   34.7794   26.4931 C   0  0  0  0  0  0  0  0  0  0  0  0
   39.0987   34.1671   27.1559 N   0  0  0  0  0  0  0  0  0  0  0  0
  1  2  1  0  0  0  0
  1  7  1  0  0  0  0
  2  3  1  0  0  0  0
  2  4  2  0  0  0  0
  4  5  1  0  0  0  0
  5  6  2  0  0  0  0
  5 11  1  0  0  0  0
  6  7  1  0  0  0  0
  6  9  1  0  0  0  0
  7  8  2  0  0  0  0
  9 10  2  0  0  0  0
  9 12  1  0  0  0  0
 10 11  1  0  0  0  0
 12 13  1  0  0  0  0
M  END
>  <CHROM.1>
-143.40744378,35.72844734,33.61463266,25.15779850,-2.70854306,0.56891430
2.14677328

>  <Name>
ligand

>  <RI>
0

>  <Rbt.Current_Directory>
/home/itssahil/PROJECTS/Mol_Feturizer/Test_systems_manuscript/rnas/3q50

>  <Rbt.Executable>
rbdock ($Id: //depot/dev/client3/rdock/2013.1/src/exe/rbdock.cxx#4 $)

>  <Rbt.Library>
libRbt.so (2013.1, Build901 2013/11/27)

>  <Rbt.Parameter_File>
/export/apps/rDock/src/rDock_2013.1_src/data/scripts/dock_solv.prm

>  <Rbt.Receptor>
prm/pocket_docking_2.prm

>  <SCORE>
-16.9645

>  <SCORE.INTER>
-16.8845

>  <SCORE.INTER.CONST>
1

>  <SCORE.INTER.POLAR>
0

>  <SCORE.INTER.ROT>
1

>  <SCORE.INTER.SOLV>
18.938

>  <SCORE.INTER.VDW>
-21.8357

>  <SCORE.INTER.norm>
-1.29881

>  <SCORE.INTRA>
-0.079949

>  <SCORE.INTRA.DIHEDRAL>
-0.0256463

>  <SCORE.INTRA.DIHEDRAL.0>
1.65305

>  <SCORE.INTRA.POLAR>
0

>  <SCORE.INTRA.POLAR.0>
0

>  <SCORE.INTRA.REPUL>
0

>  <SCORE.INTRA.REPUL.0>
0

>  <SCORE.INTRA.SOLV>
-0.00780297

>  <SCORE.INTRA.SOLV.lig_0>
-46.9527

>  <SCORE.INTRA.VDW>
-0.0632244

>  <SCORE.INTRA.VDW.0>
-0.177978

>  <SCORE.INTRA.norm>
-0.00614992

>  <SCORE.RESTR>
0

>  <SCORE.RESTR.CAVITY>
0

>  <SCORE.RESTR.norm>
0

>  <SCORE.SYSTEM>
0

>  <SCORE.SYSTEM.CONST>
0

>  <SCORE.SYSTEM.DIHEDRAL>
0

>  <SCORE.SYSTEM.SOLV>
0

>  <SCORE.SYSTEM.norm>
0

>  <SCORE.heavy>
13

>  <SCORE.norm>
-1.30496

>  <RMSD>
0.737

$$$$
ligand
 OpenBabel02271912143D
libRbt.so/2013.1/901 2013/11/27
 13 14  0  0  0  0  0  0  0  0999 V2000
   34.8197   34.1534   23.2339 N   0  0  0  0  0  0  0  0  0  0  0  0
   33.9033   33.1390   23.5663 C   0  0  0  0  0  0  0  0  0  0  0  0
   32.8921   32.8904   22.6478 N   0  0  0  0  0  0  0  0  0  0  0  0
   33.9077   32.4138   24.7108 N   0  0  0  0  0  0  0  0  0  0  0  0
   34.9502   32.7795   25.5568 C   0  0  0  0  0  0  0  0  0  0  0  0
   35.9155   33.7619   25.3039 C   0  0  0  0  0  0  0  0  0  0  0  0
   35.8886   34.5048   24.1146 C   0  0  0  0  0  0  0  0  0  0  0  0
   36.6590   35.3948   23.7855 O   0  0  0  0  0  0  0  0  0  0  0  0
   36.7992   33.8314   26.4053 C   0  0  0  0  0  0  0  0  0  0  0  0
   36.3644   32.8813   27.3163 C   0  0  0  0  0  0  0  0  0  0  0  0
   35.2220   32.2241   26.7937 N   0  0  0  0  0  0  0  0  0  0  0  0
   37.9346   34.7894   26.4938 C   0  0  0  0  0  0  0  0  0  0  0  0
   39.0335   34.2279   27.2947 N   0  0  0  0  0  0  0  0  0  0  0  0
  1  2  1  0  0  0  0
  1  7  1  0  0  0  0
  2  3  1  0  0  0  0
  2  4  2  0  0  0  0
  4  5  1  0  0  0  0
  5  6  2  0  0  0  0
  5 11  1  0  0  0  0
  6  7  1  0  0  0  0
  6  9  1  0  0  0  0
  7  8  2  0  0  0  0
  9 10  2  0  0  0  0
  9 12  1  0  0  0  0
 10 11  1  0  0  0  0
 12 13  1  0  0  0  0
M  END
>  <CHROM.1>
-150.18845332,35.73119026,33.64466630,25.14080745,-2.69567475,0.58347629
2.15659946

>  <Name>
ligand

>  <RI>
0

>  <Rbt.Current_Directory>
/home/itssahil/PROJECTS/Mol_Feturizer/Test_systems_manuscript/rnas/3q50

>  <Rbt.Executable>
rbdock ($Id: //depot/dev/client3/rdock/2013.1/src/exe/rbdock.cxx#4 $)

>  <Rbt.Library>
libRbt.so (2013.1, Build901 2013/11/27)

>  <Rbt.Parameter_File>
/export/apps/rDock/src/rDock_2013.1_src/data/scripts/dock_solv.prm

>  <Rbt.Receptor>
prm/pocket_docking_4.prm

>  <SCORE>
-16.8939

>  <SCORE.INTER>
-16.8315

>  <SCORE.INTER.CONST>
1

>  <SCORE.INTER.POLAR>
0

>  <SCORE.INTER.ROT>
1

>  <SCORE.INTER.SOLV>
18.8549

>  <SCORE.INTER.VDW>
-21.7726

>  <SCORE.INTER.norm>
-1.29473

>  <SCORE.INTRA>
-0.0624738

>  <SCORE.INTRA.DIHEDRAL>
-0.0296456

>  <SCORE.INTRA.DIHEDRAL.0>
1.65305

>  <SCORE.INTRA.POLAR>
0

>  <SCORE.INTRA.POLAR.0>
0

>  <SCORE.INTRA.REPUL>
0

>  <SCORE.INTRA.REPUL.0>
0

>  <SCORE.INTRA.SOLV>
-0.0057532

>  <SCORE.INTRA.SOLV.lig_0>
-46.9527

>  <SCORE.INTRA.VDW>
-0.0447744

>  <SCORE.INTRA.VDW.0>
-0.177978

>  <SCORE.INTRA.norm>
-0.00480568

>  <SCORE.RESTR>
0

>  <SCORE.RESTR.CAVITY>
0

>  <SCORE.RESTR.norm>
0

>  <SCORE.SYSTEM>
0

>  <SCORE.SYSTEM.CONST>
0

>  <SCORE.SYSTEM.DIHEDRAL>
0

>  <SCORE.SYSTEM.SOLV>
0

>  <SCORE.SYSTEM.norm>
0

>  <SCORE.heavy>
13

>  <SCORE.norm>
-1.29953

>  <RMSD>
0.744

$$$$
ligand
 OpenBabel02271912143D
libRbt.so/2013.1/901 2013/11/27
 13 14  0  0  0  0  0  0  0  0999 V2000
   34.8073   34.1635   23.2625 N   0  0  0  0  0  0  0  0  0  0  0  0
   33.8839   33.1593   23.6061 C   0  0  0  0  0  0  0  0  0  0  0  0
   32.8633   32.9167   22.6964 N   0  0  0  0  0  0  0  0  0  0  0  0
   33.8900   32.4386   24.7534 N   0  0  0  0  0  0  0  0  0  0  0  0
   34.9426   32.7977   25.5900 C   0  0  0  0  0  0  0  0  0  0  0  0
   35.9152   33.7697   25.3257 C   0  0  0  0  0  0  0  0  0  0  0  0
   35.8863   34.5081   24.1335 C   0  0  0  0  0  0  0  0  0  0  0  0
   36.6626   35.3894   23.7950 O   0  0  0  0  0  0  0  0  0  0  0  0
   36.8080   33.8351   26.4199 C   0  0  0  0  0  0  0  0  0  0  0  0
   36.3711   32.8929   27.3381 C   0  0  0  0  0  0  0  0  0  0  0  0
   35.2185   32.2446   26.8270 N   0  0  0  0  0  0  0  0  0  0  0  0
   37.9532   34.7825   26.4959 C   0  0  0  0  0  0  0  0  0  0  0  0
   39.0642   34.2019   27.2660 N   0  0  0  0  0  0  0  0  0  0  0  0
  1  2  1  0  0  0  0
  1  7  1  0  0  0  0
  2  3  1  0  0  0  0
  2  4  2  0  0  0  0
  4  5  1  0  0  0  0
  5  6  2  0  0  0  0
  5 11  1  0  0  0  0
  6  7  1  0  0  0  0
  6  9  1  0  0  0  0
  7  8  2  0  0  0  0
  9 10  2  0  0  0  0
  9 12  1  0  0  0  0
 10 11  1  0  0  0  0
 12 13  1  0  0  0  0
M  END
>  <CHROM.1>
-148.95541775,35.72948361,33.65265819,25.16245379,-2.69837026,0.56935360
2.15356969

>  <Name>
ligand

>  <RI>
0

>  <Rbt.Current_Directory>
/home/itssahil/PROJECTS/Mol_Feturizer/Test_systems_manuscript/rnas/3q50

>  <Rbt.Executable>
rbdock ($Id: //depot/dev/client3/rdock/2013.1/src/exe/rbdock.cxx#4 $)

>  <Rbt.Library>
libRbt.so (2013.1, Build901 2013/11/27)

>  <Rbt.Parameter_File>
/export/apps/rDock/src/rDock_2013.1_src/data/scripts/dock_solv.prm

>  <Rbt.Receptor>
prm/pocket_docking_3.prm

>  <SCORE>
-16.9416

>  <SCORE.INTER>
-16.8757

>  <SCORE.INTER.CONST>
1

>  <SCORE.INTER.POLAR>
0

>  <SCORE.INTER.ROT>
1

>  <SCORE.INTER.SOLV>
18.8358

>  <SCORE.INTER.VDW>
-21.7957

>  <SCORE.INTER.norm>
-1.29813

>  <SCORE.INTRA>
-0.0658795

>  <SCORE.INTRA.DIHEDRAL>
-0.0294406

>  <SCORE.INTRA.DIHEDRAL.0>
1.65305

>  <SCORE.INTRA.POLAR>
0

>  <SCORE.INTRA.POLAR.0>
0

>  <SCORE.INTRA.REPUL>
0

>  <SCORE.INTRA.REPUL.0>
0

>  <SCORE.INTRA.SOLV>
-0.00613213

>  <SCORE.INTRA.SOLV.lig_0>
-46.9527

>  <SCORE.INTRA.VDW>
-0.0480931

>  <SCORE.INTRA.VDW.0>
-0.177978

>  <SCORE.INTRA.norm>
-0.00506765

>  <SCORE.RESTR>
0

>  <SCORE.RESTR.CAVITY>
0

>  <SCORE.RESTR.norm>
0

>  <SCORE.SYSTEM>
0

>  <SCORE.SYSTEM.CONST>
0

>  <SCORE.SYSTEM.DIHEDRAL>
0

>  <SCORE.SYSTEM.SOLV>
0

>  <SCORE.SYSTEM.norm>
0

>  <SCORE.heavy>
13

>  <SCORE.norm>
-1.3032

>  <RMSD>
0.749

$$$$
ligand
 OpenBabel02271912143D
libRbt.so/2013.1/901 2013/11/27
 13 14  0  0  0  0  0  0  0  0999 V2000
   34.8136   34.1284   23.2588 N   0  0  0  0  0  0  0  0  0  0  0  0
   33.8780   33.1420   23.6207 C   0  0  0  0  0  0  0  0  0  0  0  0
   32.8492   32.9018   22.7197 N   0  0  0  0  0  0  0  0  0  0  0  0
   33.8802   32.4368   24.7776 N   0  0  0  0  0  0  0  0  0  0  0  0
   34.9421   32.7922   25.6038 C   0  0  0  0  0  0  0  0  0  0  0  0
   35.9269   33.7467   25.3214 C   0  0  0  0  0  0  0  0  0  0  0  0
   35.9020   34.4693   24.1195 C   0  0  0  0  0  0  0  0  0  0  0  0
   36.6888   35.3349   23.7651 O   0  0  0  0  0  0  0  0  0  0  0  0
   36.8264   33.8141   26.4100 C   0  0  0  0  0  0  0  0  0  0  0  0
   36.3813   32.8906   27.3431 C   0  0  0  0  0  0  0  0  0  0  0  0
   35.2169   32.2519   26.8467 N   0  0  0  0  0  0  0  0  0  0  0  0
   37.9852   34.7462   26.4672 C   0  0  0  0  0  0  0  0  0  0  0  0
   39.0663   34.1889   27.2950 N   0  0  0  0  0  0  0  0  0  0  0  0
  1  2  1  0  0  0  0
  1  7  1  0  0  0  0
  2  3  1  0  0  0  0
  2  4  2  0  0  0  0
  4  5  1  0  0  0  0
  5  6  2  0  0  0  0
  5 11  1  0  0  0  0
  6  7  1  0  0  0  0
  6  9  1  0  0  0  0
  7  8  2  0  0  0  0
  9 10  2  0  0  0  0
  9 12  1  0  0  0  0
 10 11  1  0  0  0  0
 12 13  1  0  0  0  0
M  END
>  <CHROM.1>
-151.77695569,35.73661476,33.63243722,25.16522628,-2.69143510,0.55893596
2.13735716

>  <Name>
ligand

>  <RI>
0

>  <Rbt.Current_Directory>
/home/itssahil/PROJECTS/Mol_Feturizer/Test_systems_manuscript/rnas/3q50

>  <Rbt.Executable>
rbdock ($Id: //depot/dev/client3/rdock/2013.1/src/exe/rbdock.cxx#4 $)

>  <Rbt.Library>
libRbt.so (2013.1, Build901 2013/11/27)

>  <Rbt.Parameter_File>
/export/apps/rDock/src/rDock_2013.1_src/data/scripts/dock_solv.prm

>  <Rbt.Receptor>
prm/pocket_docking_4.prm

>  <SCORE>
-16.8129

>  <SCORE.INTER>
-16.755

>  <SCORE.INTER.CONST>
1

>  <SCORE.INTER.POLAR>
0

>  <SCORE.INTER.ROT>
1

>  <SCORE.INTER.SOLV>
18.895

>  <SCORE.INTER.VDW>
-21.735

>  <SCORE.INTER.norm>
-1.28884

>  <SCORE.INTRA>
-0.0579587

>  <SCORE.INTRA.DIHEDRAL>
-0.029562

>  <SCORE.INTRA.DIHEDRAL.0>
1.65305

>  <SCORE.INTRA.POLAR>
0

>  <SCORE.INTRA.POLAR.0>
0

>  <SCORE.INTRA.REPUL>
0

>  <SCORE.INTRA.REPUL.0>
0

>  <SCORE.INTRA.SOLV>
-0.00526454

>  <SCORE.INTRA.SOLV.lig_0>
-46.9527

>  <SCORE.INTRA.VDW>
-0.0405454

>  <SCORE.INTRA.VDW.0>
-0.177978

>  <SCORE.INTRA.norm>
-0.00445836

>  <SCORE.RESTR>
0

>  <SCORE.RESTR.CAVITY>
0

>  <SCORE.RESTR.norm>
0

>  <SCORE.SYSTEM>
0

>  <SCORE.SYSTEM.CONST>
0

>  <SCORE.SYSTEM.DIHEDRAL>
0

>  <SCORE.SYSTEM.SOLV>
0

>  <SCORE.SYSTEM.norm>
0

>  <SCORE.heavy>
13

>  <SCORE.norm>
-1.2933

>  <RMSD>
0.752

$$$$
ligand
 OpenBabel02271912143D
libRbt.so/2013.1/901 2013/11/27
 13 14  0  0  0  0  0  0  0  0999 V2000
   33.9716   33.7244   22.7652 N   0  0  0  0  0  0  0  0  0  0  0  0
   33.1497   32.7002   23.2699 C   0  0  0  0  0  0  0  0  0  0  0  0
   32.0685   32.3271   22.4826 N   0  0  0  0  0  0  0  0  0  0  0  0
   33.3063   32.0761   24.4622 N   0  0  0  0  0  0  0  0  0  0  0  0
   34.4052   32.5610   25.1651 C   0  0  0  0  0  0  0  0  0  0  0  0
   35.2852   33.5624   24.7369 C   0  0  0  0  0  0  0  0  0  0  0  0
   35.1008   34.1992   23.5009 C   0  0  0  0  0  0  0  0  0  0  0  0
   35.7849   35.0931   23.0245 O   0  0  0  0  0  0  0  0  0  0  0  0
   36.2676   33.7667   25.7328 C   0  0  0  0  0  0  0  0  0  0  0  0
   35.9774   32.8784   26.7567 C   0  0  0  0  0  0  0  0  0  0  0  0
   34.8272   32.1263   26.4081 N   0  0  0  0  0  0  0  0  0  0  0  0
   37.3516   34.7809   25.6277 C   0  0  0  0  0  0  0  0  0  0  0  0
   38.4732   34.4442   26.5183 N   0  0  0  0  0  0  0  0  0  0  0  0
  1  2  1  0  0  0  0
  1  7  1  0  0  0  0
  2  3  1  0  0  0  0
  2  4  2  0  0  0  0
  4  5  1  0  0  0  0
  5  6  2  0  0  0  0
  5 11  1  0  0  0  0
  6  7  1  0  0  0  0
  6  9  1  0  0  0  0
  7  8  2  0  0  0  0
  9 10  2  0  0  0  0
  9 12  1  0  0  0  0
 10 11  1  0  0  0  0
 12 13  1  0  0  0  0
M  END
>  <CHROM.1>
-158.92068629,35.08608245,33.43151139,24.61672533,-2.82168146,0.58484778
2.14585436

>  <Name>
ligand

>  <RI>
0

>  <Rbt.Current_Directory>
/home/itssahil/PROJECTS/Mol_Feturizer/Test_systems_manuscript/rnas/3q50

>  <Rbt.Executable>
rbdock ($Id: //depot/dev/client3/rdock/2013.1/src/exe/rbdock.cxx#4 $)

>  <Rbt.Library>
libRbt.so (2013.1, Build901 2013/11/27)

>  <Rbt.Parameter_File>
/export/apps/rDock/src/rDock_2013.1_src/data/scripts/dock_solv.prm

>  <Rbt.Receptor>
prm/pocket_docking_7.prm

>  <SCORE>
-17.2278

>  <SCORE.INTER>
-17.1914

>  <SCORE.INTER.CONST>
1

>  <SCORE.INTER.POLAR>
0

>  <SCORE.INTER.ROT>
1

>  <SCORE.INTER.SOLV>
22.4426

>  <SCORE.INTER.VDW>
-23.2085

>  <SCORE.INTER.norm>
-1.32242

>  <SCORE.INTRA>
-0.036393

>  <SCORE.INTRA.DIHEDRAL>
-0.0244277

>  <SCORE.INTRA.DIHEDRAL.0>
1.65305

>  <SCORE.INTRA.POLAR>
0

>  <SCORE.INTRA.POLAR.0>
0

>  <SCORE.INTRA.REPUL>
0

>  <SCORE.INTRA.REPUL.0>
0

>  <SCORE.INTRA.SOLV>
-0.00311551

>  <SCORE.INTRA.SOLV.lig_0>
-46.9527

>  <SCORE.INTRA.VDW>
-0.0226214

>  <SCORE.INTRA.VDW.0>
-0.177978

>  <SCORE.INTRA.norm>
-0.00279946

>  <SCORE.RESTR>
0

>  <SCORE.RESTR.CAVITY>
0

>  <SCORE.RESTR.norm>
0

>  <SCORE.SYSTEM>
0

>  <SCORE.SYSTEM.CONST>
0

>  <SCORE.SYSTEM.DIHEDRAL>
0

>  <SCORE.SYSTEM.SOLV>
0

>  <SCORE.SYSTEM.norm>
0

>  <SCORE.heavy>
13

>  <SCORE.norm>
-1.32522

>  <RMSD>
0.754

$$$$
ligand
 OpenBabel02271912143D
libRbt.so/2013.1/901 2013/11/27
 13 14  0  0  0  0  0  0  0  0999 V2000
   34.8260   34.1950   23.2847 N   0  0  0  0  0  0  0  0  0  0  0  0
   33.9093   33.1822   23.6208 C   0  0  0  0  0  0  0  0  0  0  0  0
   32.8875   32.9429   22.7116 N   0  0  0  0  0  0  0  0  0  0  0  0
   33.9228   32.4502   24.7609 N   0  0  0  0  0  0  0  0  0  0  0  0
   34.9756   32.8069   25.5980 C   0  0  0  0  0  0  0  0  0  0  0  0
   35.9420   33.7870   25.3407 C   0  0  0  0  0  0  0  0  0  0  0  0
   35.9055   34.5370   24.1561 C   0  0  0  0  0  0  0  0  0  0  0  0
   36.6759   35.4261   23.8242 O   0  0  0  0  0  0  0  0  0  0  0  0
   36.8375   33.8466   26.4331 C   0  0  0  0  0  0  0  0  0  0  0  0
   36.4086   32.8929   27.3431 C   0  0  0  0  0  0  0  0  0  0  0  0
   35.2582   32.2432   26.8287 N   0  0  0  0  0  0  0  0  0  0  0  0
   37.9775   34.7997   26.5153 C   0  0  0  0  0  0  0  0  0  0  0  0
   39.1278   34.1843   27.1955 N   0  0  0  0  0  0  0  0  0  0  0  0
  1  2  1  0  0  0  0
  1  7  1  0  0  0  0
  2  3  1  0  0  0  0
  2  4  2  0  0  0  0
  4  5  1  0  0  0  0
  5  6  2  0  0  0  0
  5 11  1  0  0  0  0
  6  7  1  0  0  0  0
  6  9  1  0  0  0  0
  7  8  2  0  0  0  0
  9 10  2  0  0  0  0
  9 12  1  0  0  0  0
 10 11  1  0  0  0  0
 12 13  1  0  0  0  0
M  END
>  <CHROM.1>
-145.03881157,35.75923649,33.66783961,25.17027743,-2.70935459,0.56667052
2.16761028

>  <Name>
ligand

>  <RI>
0

>  <Rbt.Current_Directory>
/home/itssahil/PROJECTS/Mol_Feturizer/Test_systems_manuscript/rnas/3q50

>  <Rbt.Executable>
rbdock ($Id: //depot/dev/client3/rdock/2013.1/src/exe/rbdock.cxx#4 $)

>  <Rbt.Library>
libRbt.so (2013.1, Build901 2013/11/27)

>  <Rbt.Parameter_File>
/export/apps/rDock/src/rDock_2013.1_src/data/scripts/dock_solv.prm

>  <Rbt.Receptor>
prm/pocket_docking_7.prm

>  <SCORE>
-16.9735

>  <SCORE.INTER>
-16.8975

>  <SCORE.INTER.CONST>
1

>  <SCORE.INTER.POLAR>
0

>  <SCORE.INTER.ROT>
1

>  <SCORE.INTER.SOLV>
18.6998

>  <SCORE.INTER.VDW>
-21.7649

>  <SCORE.INTER.norm>
-1.29981

>  <SCORE.INTRA>
-0.0760403

>  <SCORE.INTRA.DIHEDRAL>
-0.0272411

>  <SCORE.INTRA.DIHEDRAL.0>
1.65305

>  <SCORE.INTRA.POLAR>
0

>  <SCORE.INTRA.POLAR.0>
0

>  <SCORE.INTRA.REPUL>
0

>  <SCORE.INTRA.REPUL.0>
0

>  <SCORE.INTRA.SOLV>
-0.00732066

>  <SCORE.INTRA.SOLV.lig_0>
-46.9527

>  <SCORE.INTRA.VDW>
-0.0587594

>  <SCORE.INTRA.VDW.0>
-0.177978

>  <SCORE.INTRA.norm>
-0.00584925

>  <SCORE.RESTR>
0

>  <SCORE.RESTR.CAVITY>
0

>  <SCORE.RESTR.norm>
0

>  <SCORE.SYSTEM>
0

>  <SCORE.SYSTEM.CONST>
0

>  <SCORE.SYSTEM.DIHEDRAL>
0

>  <SCORE.SYSTEM.SOLV>
0

>  <SCORE.SYSTEM.norm>
0

>  <SCORE.heavy>
13

>  <SCORE.norm>
-1.30566

>  <RMSD>
0.757

$$$$
ligand
 OpenBabel02271912143D
libRbt.so/2013.1/901 2013/11/27
 13 14  0  0  0  0  0  0  0  0999 V2000
   33.9707   33.7039   22.7512 N   0  0  0  0  0  0  0  0  0  0  0  0
   33.1521   32.6785   23.2588 C   0  0  0  0  0  0  0  0  0  0  0  0
   32.0734   32.2980   22.4715 N   0  0  0  0  0  0  0  0  0  0  0  0
   33.3095   32.0597   24.4538 N   0  0  0  0  0  0  0  0  0  0  0  0
   34.4055   32.5518   25.1562 C   0  0  0  0  0  0  0  0  0  0  0  0
   35.2822   33.5549   24.7252 C   0  0  0  0  0  0  0  0  0  0  0  0
   35.0970   34.1861   23.4865 C   0  0  0  0  0  0  0  0  0  0  0  0
   35.7781   35.0808   23.0075 O   0  0  0  0  0  0  0  0  0  0  0  0
   36.2623   33.7671   25.7217 C   0  0  0  0  0  0  0  0  0  0  0  0
   35.9742   32.8817   26.7487 C   0  0  0  0  0  0  0  0  0  0  0  0
   34.8275   32.1237   26.4015 N   0  0  0  0  0  0  0  0  0  0  0  0
   37.3425   34.7851   25.6140 C   0  0  0  0  0  0  0  0  0  0  0  0
   38.4704   34.4486   26.4966 N   0  0  0  0  0  0  0  0  0  0  0  0
  1  2  1  0  0  0  0
  1  7  1  0  0  0  0
  2  3  1  0  0  0  0
  2  4  2  0  0  0  0
  4  5  1  0  0  0  0
  5  6  2  0  0  0  0
  5 11  1  0  0  0  0
  6  7  1  0  0  0  0
  6  9  1  0  0  0  0
  7  8  2  0  0  0  0
  9 10  2  0  0  0  0
  9 12  1  0  0  0  0
 10 11  1  0  0  0  0
 12 13  1  0  0  0  0
M  END
>  <CHROM.1>
-158.30621247,35.08419969,33.42215012,24.60445260,-2.82337900,0.58791034
2.14266797

>  <Name>
ligand

>  <RI>
0

>  <Rbt.Current_Directory>
/home/itssahil/PROJECTS/Mol_Feturizer/Test_systems_manuscript/rnas/3q50

>  <Rbt.Executable>
rbdock ($Id: //depot/dev/client3/rdock/2013.1/src/exe/rbdock.cxx#4 $)

>  <Rbt.Library>
libRbt.so (2013.1, Build901 2013/11/27)

>  <Rbt.Parameter_File>
/export/apps/rDock/src/rDock_2013.1_src/data/scripts/dock_solv.prm

>  <Rbt.Receptor>
prm/pocket_docking_2.prm

>  <SCORE>
-17.3098

>  <SCORE.INTER>
-17.2715

>  <SCORE.INTER.CONST>
1

>  <SCORE.INTER.POLAR>
0

>  <SCORE.INTER.ROT>
1

>  <SCORE.INTER.SOLV>
22.4773

>  <SCORE.INTER.VDW>
-23.2734

>  <SCORE.INTER.norm>
-1.32858

>  <SCORE.INTRA>
-0.0382979

>  <SCORE.INTRA.DIHEDRAL>
-0.0251659

>  <SCORE.INTRA.DIHEDRAL.0>
1.65305

>  <SCORE.INTRA.POLAR>
0

>  <SCORE.INTRA.POLAR.0>
0

>  <SCORE.INTRA.REPUL>
0

>  <SCORE.INTRA.REPUL.0>
0

>  <SCORE.INTRA.SOLV>
-0.00329448

>  <SCORE.INTRA.SOLV.lig_0>
-46.9527

>  <SCORE.INTRA.VDW>
-0.0240677

>  <SCORE.INTRA.VDW.0>
-0.177978

>  <SCORE.INTRA.norm>
-0.00294599

>  <SCORE.RESTR>
0

>  <SCORE.RESTR.CAVITY>
0

>  <SCORE.RESTR.norm>
0

>  <SCORE.SYSTEM>
0

>  <SCORE.SYSTEM.CONST>
0

>  <SCORE.SYSTEM.DIHEDRAL>
0

>  <SCORE.SYSTEM.SOLV>
0

>  <SCORE.SYSTEM.norm>
0

>  <SCORE.heavy>
13

>  <SCORE.norm>
-1.33152

>  <RMSD>
0.760

$$$$
ligand
 OpenBabel02271912143D
libRbt.so/2013.1/901 2013/11/27
 13 14  0  0  0  0  0  0  0  0999 V2000
   33.9994   33.6949   22.7291 N   0  0  0  0  0  0  0  0  0  0  0  0
   33.1700   32.6802   23.2408 C   0  0  0  0  0  0  0  0  0  0  0  0
   32.0946   32.2993   22.4494 N   0  0  0  0  0  0  0  0  0  0  0  0
   33.3144   32.0725   24.4431 N   0  0  0  0  0  0  0  0  0  0  0  0
   34.4084   32.5641   25.1487 C   0  0  0  0  0  0  0  0  0  0  0  0
   35.2952   33.5568   24.7142 C   0  0  0  0  0  0  0  0  0  0  0  0
   35.1235   34.1767   23.4679 C   0  0  0  0  0  0  0  0  0  0  0  0
   35.8144   35.0619   22.9851 O   0  0  0  0  0  0  0  0  0  0  0  0
   36.2694   33.7724   25.7158 C   0  0  0  0  0  0  0  0  0  0  0  0
   35.9676   32.8993   26.7495 C   0  0  0  0  0  0  0  0  0  0  0  0
   34.8183   32.1457   26.4014 N   0  0  0  0  0  0  0  0  0  0  0  0
   37.3573   34.7819   25.6060 C   0  0  0  0  0  0  0  0  0  0  0  0
   38.4905   34.4286   26.4753 N   0  0  0  0  0  0  0  0  0  0  0  0
  1  2  1  0  0  0  0
  1  7  1  0  0  0  0
  2  3  1  0  0  0  0
  2  4  2  0  0  0  0
  4  5  1  0  0  0  0
  5  6  2  0  0  0  0
  5 11  1  0  0  0  0
  6  7  1  0  0  0  0
  6  9  1  0  0  0  0
  7  8  2  0  0  0  0
  9 10  2  0  0  0  0
  9 12  1  0  0  0  0
 10 11  1  0  0  0  0
 12 13  1  0  0  0  0
M  END
>  <CHROM.1>
-156.89180405,35.09838282,33.42275997,24.59130216,-2.81263720,0.58379154
2.12626214

>  <Name>
ligand

>  <RI>
0

>  <Rbt.Current_Directory>
/home/itssahil/PROJECTS/Mol_Feturizer/Test_systems_manuscript/rnas/3q50

>  <Rbt.Executable>
rbdock ($Id: //depot/dev/client3/rdock/2013.1/src/exe/rbdock.cxx#4 $)

>  <Rbt.Library>
libRbt.so (2013.1, Build901 2013/11/27)

>  <Rbt.Parameter_File>
/export/apps/rDock/src/rDock_2013.1_src/data/scripts/dock_solv.prm

>  <Rbt.Receptor>
prm/pocket_docking_7.prm

>  <SCORE>
-17.2186

>  <SCORE.INTER>
-17.1759

>  <SCORE.INTER.CONST>
1

>  <SCORE.INTER.POLAR>
0

>  <SCORE.INTER.ROT>
1

>  <SCORE.INTER.SOLV>
22.4716

>  <SCORE.INTER.VDW>
-23.2078

>  <SCORE.INTER.norm>
-1.32122

>  <SCORE.INTRA>
-0.0426622

>  <SCORE.INTRA.DIHEDRAL>
-0.026659

>  <SCORE.INTRA.DIHEDRAL.0>
1.65305

>  <SCORE.INTRA.POLAR>
0

>  <SCORE.INTRA.POLAR.0>
0

>  <SCORE.INTRA.REPUL>
0

>  <SCORE.INTRA.REPUL.0>
0

>  <SCORE.INTRA.SOLV>
-0.00371183

>  <SCORE.INTRA.SOLV.lig_0>
-46.9527

>  <SCORE.INTRA.VDW>
-0.0274768

>  <SCORE.INTRA.VDW.0>
-0.177978

>  <SCORE.INTRA.norm>
-0.00328171

>  <SCORE.RESTR>
0

>  <SCORE.RESTR.CAVITY>
0

>  <SCORE.RESTR.norm>
0

>  <SCORE.SYSTEM>
0

>  <SCORE.SYSTEM.CONST>
0

>  <SCORE.SYSTEM.DIHEDRAL>
0

>  <SCORE.SYSTEM.SOLV>
0

>  <SCORE.SYSTEM.norm>
0

>  <SCORE.heavy>
13

>  <SCORE.norm>
-1.32451

>  <RMSD>
0.762

$$$$
ligand
 OpenBabel02271912143D
libRbt.so/2013.1/901 2013/11/27
 13 14  0  0  0  0  0  0  0  0999 V2000
   34.0019   33.6867   22.7241 N   0  0  0  0  0  0  0  0  0  0  0  0
   33.1733   32.6719   23.2368 C   0  0  0  0  0  0  0  0  0  0  0  0
   32.0999   32.2873   22.4444 N   0  0  0  0  0  0  0  0  0  0  0  0
   33.3165   32.0673   24.4408 N   0  0  0  0  0  0  0  0  0  0  0  0
   34.4085   32.5623   25.1471 C   0  0  0  0  0  0  0  0  0  0  0  0
   35.2944   33.5555   24.7118 C   0  0  0  0  0  0  0  0  0  0  0  0
   35.1239   34.1721   23.4637 C   0  0  0  0  0  0  0  0  0  0  0  0
   35.8141   35.0573   22.9800 O   0  0  0  0  0  0  0  0  0  0  0  0
   36.2665   33.7750   25.7146 C   0  0  0  0  0  0  0  0  0  0  0  0
   35.9643   32.9040   26.7498 C   0  0  0  0  0  0  0  0  0  0  0  0
   34.8169   32.1476   26.4015 N   0  0  0  0  0  0  0  0  0  0  0  0
   37.3529   34.7861   25.6043 C   0  0  0  0  0  0  0  0  0  0  0  0
   38.4856   34.4362   26.4757 N   0  0  0  0  0  0  0  0  0  0  0  0
  1  2  1  0  0  0  0
  1  7  1  0  0  0  0
  2  3  1  0  0  0  0
  2  4  2  0  0  0  0
  4  5  1  0  0  0  0
  5  6  2  0  0  0  0
  5 11  1  0  0  0  0
  6  7  1  0  0  0  0
  6  9  1  0  0  0  0
  7  8  2  0  0  0  0
  9 10  2  0  0  0  0
  9 12  1  0  0  0  0
 10 11  1  0  0  0  0
 12 13  1  0  0  0  0
M  END
>  <CHROM.1>
-156.85293918,35.09805479,33.42076762,24.58882369,-2.81193074,0.58605630
2.12348290

>  <Name>
ligand

>  <RI>
0

>  <Rbt.Current_Directory>
/home/itssahil/PROJECTS/Mol_Feturizer/Test_systems_manuscript/rnas/3q50

>  <Rbt.Executable>
rbdock ($Id: //depot/dev/client3/rdock/2013.1/src/exe/rbdock.cxx#4 $)

>  <Rbt.Library>
libRbt.so (2013.1, Build901 2013/11/27)

>  <Rbt.Parameter_File>
/export/apps/rDock/src/rDock_2013.1_src/data/scripts/dock_solv.prm

>  <Rbt.Receptor>
prm/pocket_docking_5.prm

>  <SCORE>
-17.2148

>  <SCORE.INTER>
-17.172

>  <SCORE.INTER.CONST>
1

>  <SCORE.INTER.POLAR>
0

>  <SCORE.INTER.ROT>
1

>  <SCORE.INTER.SOLV>
22.475

>  <SCORE.INTER.VDW>
-23.2063

>  <SCORE.INTER.norm>
-1.32092

>  <SCORE.INTRA>
-0.0427816

>  <SCORE.INTRA.DIHEDRAL>
-0.0266959

>  <SCORE.INTRA.DIHEDRAL.0>
1.65305

>  <SCORE.INTRA.POLAR>
0

>  <SCORE.INTRA.POLAR.0>
0

>  <SCORE.INTRA.REPUL>
0

>  <SCORE.INTRA.REPUL.0>
0

>  <SCORE.INTRA.SOLV>
-0.0037234

>  <SCORE.INTRA.SOLV.lig_0>
-46.9527

>  <SCORE.INTRA.VDW>
-0.0275719

>  <SCORE.INTRA.VDW.0>
-0.177978

>  <SCORE.INTRA.norm>
-0.00329089

>  <SCORE.RESTR>
0

>  <SCORE.RESTR.CAVITY>
0

>  <SCORE.RESTR.norm>
0

>  <SCORE.SYSTEM>
0

>  <SCORE.SYSTEM.CONST>
0

>  <SCORE.SYSTEM.DIHEDRAL>
0

>  <SCORE.SYSTEM.SOLV>
0

>  <SCORE.SYSTEM.norm>
0

>  <SCORE.heavy>
13

>  <SCORE.norm>
-1.32421

>  <RMSD>
0.763

$$$$
ligand
 OpenBabel02271912143D
libRbt.so/2013.1/901 2013/11/27
 13 14  0  0  0  0  0  0  0  0999 V2000
   33.9697   33.7096   22.7631 N   0  0  0  0  0  0  0  0  0  0  0  0
   33.1459   32.6883   23.2705 C   0  0  0  0  0  0  0  0  0  0  0  0
   32.0633   32.3159   22.4848 N   0  0  0  0  0  0  0  0  0  0  0  0
   33.3019   32.0664   24.4641 N   0  0  0  0  0  0  0  0  0  0  0  0
   34.4022   32.5505   25.1653 C   0  0  0  0  0  0  0  0  0  0  0  0
   35.2842   33.5489   24.7343 C   0  0  0  0  0  0  0  0  0  0  0  0
   35.1004   34.1835   23.4970 C   0  0  0  0  0  0  0  0  0  0  0  0
   35.7861   35.0748   23.0183 O   0  0  0  0  0  0  0  0  0  0  0  0
   36.2676   33.7533   25.7292 C   0  0  0  0  0  0  0  0  0  0  0  0
   35.9761   32.8679   26.7552 C   0  0  0  0  0  0  0  0  0  0  0  0
   34.8241   32.1175   26.4090 N   0  0  0  0  0  0  0  0  0  0  0  0
   37.3538   34.7649   25.6212 C   0  0  0  0  0  0  0  0  0  0  0  0
   38.4821   34.4190   26.4996 N   0  0  0  0  0  0  0  0  0  0  0  0
  1  2  1  0  0  0  0
  1  7  1  0  0  0  0
  2  3  1  0  0  0  0
  2  4  2  0  0  0  0
  4  5  1  0  0  0  0
  5  6  2  0  0  0  0
  5 11  1  0  0  0  0
  6  7  1  0  0  0  0
  6  9  1  0  0  0  0
  7  8  2  0  0  0  0
  9 10  2  0  0  0  0
  9 12  1  0  0  0  0
 10 11  1  0  0  0  0
 12 13  1  0  0  0  0
M  END
>  <CHROM.1>
-158.23334302,35.08523843,33.41755846,24.61358086,-2.82145289,0.58154111
2.14336613

>  <Name>
ligand

>  <RI>
0

>  <Rbt.Current_Directory>
/home/itssahil/PROJECTS/Mol_Feturizer/Test_systems_manuscript/rnas/3q50

>  <Rbt.Executable>
rbdock ($Id: //depot/dev/client3/rdock/2013.1/src/exe/rbdock.cxx#4 $)

>  <Rbt.Library>
libRbt.so (2013.1, Build901 2013/11/27)

>  <Rbt.Parameter_File>
/export/apps/rDock/src/rDock_2013.1_src/data/scripts/dock_solv.prm

>  <Rbt.Receptor>
prm/pocket_docking_6.prm

>  <SCORE>
-17.3482

>  <SCORE.INTER>
-17.3097

>  <SCORE.INTER.CONST>
1

>  <SCORE.INTER.POLAR>
0

>  <SCORE.INTER.ROT>
1

>  <SCORE.INTER.SOLV>
22.4608

>  <SCORE.INTER.VDW>
-23.2934

>  <SCORE.INTER.norm>
-1.33152

>  <SCORE.INTRA>
-0.0385235

>  <SCORE.INTRA.DIHEDRAL>
-0.0252499

>  <SCORE.INTRA.DIHEDRAL.0>
1.65305

>  <SCORE.INTRA.POLAR>
0

>  <SCORE.INTRA.POLAR.0>
0

>  <SCORE.INTRA.REPUL>
0

>  <SCORE.INTRA.REPUL.0>
0

>  <SCORE.INTRA.SOLV>
-0.0033158

>  <SCORE.INTRA.SOLV.lig_0>
-46.9527

>  <SCORE.INTRA.VDW>
-0.0242407

>  <SCORE.INTRA.VDW.0>
-0.177978

>  <SCORE.INTRA.norm>
-0.00296335

>  <SCORE.RESTR>
0

>  <SCORE.RESTR.CAVITY>
0

>  <SCORE.RESTR.norm>
0

>  <SCORE.SYSTEM>
0

>  <SCORE.SYSTEM.CONST>
0

>  <SCORE.SYSTEM.DIHEDRAL>
0

>  <SCORE.SYSTEM.SOLV>
0

>  <SCORE.SYSTEM.norm>
0

>  <SCORE.heavy>
13

>  <SCORE.norm>
-1.33448

>  <RMSD>
0.763

$$$$
ligand
 OpenBabel02271912143D
libRbt.so/2013.1/901 2013/11/27
 13 14  0  0  0  0  0  0  0  0999 V2000
   33.9694   33.7085   22.7577 N   0  0  0  0  0  0  0  0  0  0  0  0
   33.1454   32.6877   23.2658 C   0  0  0  0  0  0  0  0  0  0  0  0
   32.0628   32.3149   22.4802 N   0  0  0  0  0  0  0  0  0  0  0  0
   33.3012   32.0667   24.4599 N   0  0  0  0  0  0  0  0  0  0  0  0
   34.4015   32.5511   25.1607 C   0  0  0  0  0  0  0  0  0  0  0  0
   35.2837   33.5491   24.7291 C   0  0  0  0  0  0  0  0  0  0  0  0
   35.1001   34.1828   23.4914 C   0  0  0  0  0  0  0  0  0  0  0  0
   35.7860   35.0737   23.0120 O   0  0  0  0  0  0  0  0  0  0  0  0
   36.2671   33.7541   25.7239 C   0  0  0  0  0  0  0  0  0  0  0  0
   35.9754   32.8694   26.7505 C   0  0  0  0  0  0  0  0  0  0  0  0
   34.8233   32.1190   26.4048 N   0  0  0  0  0  0  0  0  0  0  0  0
   37.3534   34.7654   25.6152 C   0  0  0  0  0  0  0  0  0  0  0  0
   38.4725   34.4314   26.5100 N   0  0  0  0  0  0  0  0  0  0  0  0
  1  2  1  0  0  0  0
  1  7  1  0  0  0  0
  2  3  1  0  0  0  0
  2  4  2  0  0  0  0
  4  5  1  0  0  0  0
  5  6  2  0  0  0  0
  5 11  1  0  0  0  0
  6  7  1  0  0  0  0
  6  9  1  0  0  0  0
  7  8  2  0  0  0  0
  9 10  2  0  0  0  0
  9 12  1  0  0  0  0
 10 11  1  0  0  0  0
 12 13  1  0  0  0  0
M  END
>  <CHROM.1>
-159.13655690,35.08401951,33.41862987,24.60975875,-2.82053694,0.58291910
2.14237097

>  <Name>
ligand

>  <RI>
0

>  <Rbt.Current_Directory>
/home/itssahil/PROJECTS/Mol_Feturizer/Test_systems_manuscript/rnas/3q50

>  <Rbt.Executable>
rbdock ($Id: //depot/dev/client3/rdock/2013.1/src/exe/rbdock.cxx#4 $)

>  <Rbt.Library>
libRbt.so (2013.1, Build901 2013/11/27)

>  <Rbt.Parameter_File>
/export/apps/rDock/src/rDock_2013.1_src/data/scripts/dock_solv.prm

>  <Rbt.Receptor>
prm/pocket_docking_4.prm

>  <SCORE>
-17.3388

>  <SCORE.INTER>
-17.3031

>  <SCORE.INTER.CONST>
1

>  <SCORE.INTER.POLAR>
0

>  <SCORE.INTER.ROT>
1

>  <SCORE.INTER.SOLV>
22.461

>  <SCORE.INTER.VDW>
-23.2891

>  <SCORE.INTER.norm>
-1.33101

>  <SCORE.INTRA>
-0.035723

>  <SCORE.INTRA.DIHEDRAL>
-0.0241557

>  <SCORE.INTRA.DIHEDRAL.0>
1.65305

>  <SCORE.INTRA.POLAR>
0

>  <SCORE.INTRA.POLAR.0>
0

>  <SCORE.INTRA.REPUL>
0

>  <SCORE.INTRA.REPUL.0>
0

>  <SCORE.INTRA.SOLV>
-0.003053

>  <SCORE.INTRA.SOLV.lig_0>
-46.9527

>  <SCORE.INTRA.VDW>
-0.0221186

>  <SCORE.INTRA.VDW.0>
-0.177978

>  <SCORE.INTRA.norm>
-0.00274793

>  <SCORE.RESTR>
0

>  <SCORE.RESTR.CAVITY>
0

>  <SCORE.RESTR.norm>
0

>  <SCORE.SYSTEM>
0

>  <SCORE.SYSTEM.CONST>
0

>  <SCORE.SYSTEM.DIHEDRAL>
0

>  <SCORE.SYSTEM.SOLV>
0

>  <SCORE.SYSTEM.norm>
0

>  <SCORE.heavy>
13

>  <SCORE.norm>
-1.33375

>  <RMSD>
0.764

$$$$
ligand
 OpenBabel02271912143D
libRbt.so/2013.1/901 2013/11/27
 13 14  0  0  0  0  0  0  0  0999 V2000
   33.9670   33.7066   22.7606 N   0  0  0  0  0  0  0  0  0  0  0  0
   33.1444   32.6853   23.2700 C   0  0  0  0  0  0  0  0  0  0  0  0
   32.0613   32.3112   22.4857 N   0  0  0  0  0  0  0  0  0  0  0  0
   33.3021   32.0648   24.4641 N   0  0  0  0  0  0  0  0  0  0  0  0
   34.4028   32.5504   25.1635 C   0  0  0  0  0  0  0  0  0  0  0  0
   35.2836   33.5491   24.7306 C   0  0  0  0  0  0  0  0  0  0  0  0
   35.0981   34.1821   23.4928 C   0  0  0  0  0  0  0  0  0  0  0  0
   35.7826   35.0735   23.0124 O   0  0  0  0  0  0  0  0  0  0  0  0
   36.2679   33.7553   25.7242 C   0  0  0  0  0  0  0  0  0  0  0  0
   35.9781   32.8707   26.7515 C   0  0  0  0  0  0  0  0  0  0  0  0
   34.8263   32.1191   26.4073 N   0  0  0  0  0  0  0  0  0  0  0  0
   37.3532   34.7675   25.6140 C   0  0  0  0  0  0  0  0  0  0  0  0
   38.4943   34.4086   26.4705 N   0  0  0  0  0  0  0  0  0  0  0  0
  1  2  1  0  0  0  0
  1  7  1  0  0  0  0
  2  3  1  0  0  0  0
  2  4  2  0  0  0  0
  4  5  1  0  0  0  0
  5  6  2  0  0  0  0
  5 11  1  0  0  0  0
  6  7  1  0  0  0  0
  6  9  1  0  0  0  0
  7  8  2  0  0  0  0
  9 10  2  0  0  0  0
  9 12  1  0  0  0  0
 10 11  1  0  0  0  0
 12 13  1  0  0  0  0
M  END
>  <CHROM.1>
-157.05728199,35.08555986,33.41622423,24.60850262,-2.82396759,0.57970138
2.14333113

>  <Name>
ligand

>  <RI>
0

>  <Rbt.Current_Directory>
/home/itssahil/PROJECTS/Mol_Feturizer/Test_systems_manuscript/rnas/3q50

>  <Rbt.Executable>
rbdock ($Id: //depot/dev/client3/rdock/2013.1/src/exe/rbdock.cxx#4 $)

>  <Rbt.Library>
libRbt.so (2013.1, Build901 2013/11/27)

>  <Rbt.Parameter_File>
/export/apps/rDock/src/rDock_2013.1_src/data/scripts/dock_solv.prm

>  <Rbt.Receptor>
prm/pocket_docking_7.prm

>  <SCORE>
-17.342

>  <SCORE.INTER>
-17.2999

>  <SCORE.INTER.CONST>
1

>  <SCORE.INTER.POLAR>
0

>  <SCORE.INTER.ROT>
1

>  <SCORE.INTER.SOLV>
22.4926

>  <SCORE.INTER.VDW>
-23.2974

>  <SCORE.INTER.norm>
-1.33076

>  <SCORE.INTRA>
-0.0421535

>  <SCORE.INTRA.DIHEDRAL>
-0.0264993

>  <SCORE.INTRA.DIHEDRAL.0>
1.65305

>  <SCORE.INTRA.POLAR>
0

>  <SCORE.INTRA.POLAR.0>
0

>  <SCORE.INTRA.REPUL>
0

>  <SCORE.INTRA.REPUL.0>
0

>  <SCORE.INTRA.SOLV>
-0.00366265

>  <SCORE.INTRA.SOLV.lig_0>
-46.9527

>  <SCORE.INTRA.VDW>
-0.0270725

>  <SCORE.INTRA.VDW.0>
-0.177978

>  <SCORE.INTRA.norm>
-0.00324258

>  <SCORE.RESTR>
0

>  <SCORE.RESTR.CAVITY>
0

>  <SCORE.RESTR.norm>
0

>  <SCORE.SYSTEM>
0

>  <SCORE.SYSTEM.CONST>
0

>  <SCORE.SYSTEM.DIHEDRAL>
0

>  <SCORE.SYSTEM.SOLV>
0

>  <SCORE.SYSTEM.norm>
0

>  <SCORE.heavy>
13

>  <SCORE.norm>
-1.334

>  <RMSD>
0.764

$$$$
ligand
 OpenBabel02271912143D
libRbt.so/2013.1/901 2013/11/27
 13 14  0  0  0  0  0  0  0  0999 V2000
   33.9731   33.7038   22.7531 N   0  0  0  0  0  0  0  0  0  0  0  0
   33.1530   32.6786   23.2587 C   0  0  0  0  0  0  0  0  0  0  0  0
   32.0744   32.3005   22.4702 N   0  0  0  0  0  0  0  0  0  0  0  0
   33.3088   32.0581   24.4530 N   0  0  0  0  0  0  0  0  0  0  0  0
   34.4048   32.5479   25.1569 C   0  0  0  0  0  0  0  0  0  0  0  0
   35.2830   33.5505   24.7279 C   0  0  0  0  0  0  0  0  0  0  0  0
   35.0994   34.1836   23.4898 C   0  0  0  0  0  0  0  0  0  0  0  0
   35.7820   35.0781   23.0126 O   0  0  0  0  0  0  0  0  0  0  0  0
   36.2627   33.7602   25.7254 C   0  0  0  0  0  0  0  0  0  0  0  0
   35.9728   32.8738   26.7510 C   0  0  0  0  0  0  0  0  0  0  0  0
   34.8255   32.1176   26.4020 N   0  0  0  0  0  0  0  0  0  0  0  0
   37.3441   34.7772   25.6198 C   0  0  0  0  0  0  0  0  0  0  0  0
   38.4832   34.4229   26.4809 N   0  0  0  0  0  0  0  0  0  0  0  0
  1  2  1  0  0  0  0
  1  7  1  0  0  0  0
  2  3  1  0  0  0  0
  2  4  2  0  0  0  0
  4  5  1  0  0  0  0
  5  6  2  0  0  0  0
  5 11  1  0  0  0  0
  6  7  1  0  0  0  0
  6  9  1  0  0  0  0
  7  8  2  0  0  0  0
  9 10  2  0  0  0  0
  9 12  1  0  0  0  0
 10 11  1  0  0  0  0
 12 13  1  0  0  0  0
M  END
>  <CHROM.1>
-157.08250189,35.08595619,33.41694302,24.60501794,-2.82291365,0.58534269
2.14339575

>  <Name>
ligand

>  <RI>
0

>  <Rbt.Current_Directory>
/home/itssahil/PROJECTS/Mol_Feturizer/Test_systems_manuscript/rnas/3q50

>  <Rbt.Executable>
rbdock ($Id: //depot/dev/client3/rdock/2013.1/src/exe/rbdock.cxx#4 $)

>  <Rbt.Library>
libRbt.so (2013.1, Build901 2013/11/27)

>  <Rbt.Parameter_File>
/export/apps/rDock/src/rDock_2013.1_src/data/scripts/dock_solv.prm

>  <Rbt.Receptor>
prm/pocket_docking_8.prm

>  <SCORE>
-17.3433

>  <SCORE.INTER>
-17.3012

>  <SCORE.INTER.CONST>
1

>  <SCORE.INTER.POLAR>
0

>  <SCORE.INTER.ROT>
1

>  <SCORE.INTER.SOLV>
22.4736

>  <SCORE.INTER.VDW>
-23.292

>  <SCORE.INTER.norm>
-1.33087

>  <SCORE.INTRA>
-0.0420759

>  <SCORE.INTRA.DIHEDRAL>
-0.0264747

>  <SCORE.INTRA.DIHEDRAL.0>
1.65305

>  <SCORE.INTRA.POLAR>
0

>  <SCORE.INTRA.POLAR.0>
0

>  <SCORE.INTRA.REPUL>
0

>  <SCORE.INTRA.REPUL.0>
0

>  <SCORE.INTRA.SOLV>
-0.00365516

>  <SCORE.INTRA.SOLV.lig_0>
-46.9527

>  <SCORE.INTRA.VDW>
-0.027011

>  <SCORE.INTRA.VDW.0>
-0.177978

>  <SCORE.INTRA.norm>
-0.00323661

>  <SCORE.RESTR>
0

>  <SCORE.RESTR.CAVITY>
0

>  <SCORE.RESTR.norm>
0

>  <SCORE.SYSTEM>
0

>  <SCORE.SYSTEM.CONST>
0

>  <SCORE.SYSTEM.DIHEDRAL>
0

>  <SCORE.SYSTEM.SOLV>
0

>  <SCORE.SYSTEM.norm>
0

>  <SCORE.heavy>
13

>  <SCORE.norm>
-1.3341

>  <RMSD>
0.764

$$$$
ligand
 OpenBabel02271912143D
libRbt.so/2013.1/901 2013/11/27
 13 14  0  0  0  0  0  0  0  0999 V2000
   33.9657   33.6924   22.7404 N   0  0  0  0  0  0  0  0  0  0  0  0
   33.1446   32.6701   23.2504 C   0  0  0  0  0  0  0  0  0  0  0  0
   32.0635   32.2923   22.4653 N   0  0  0  0  0  0  0  0  0  0  0  0
   33.3020   32.0522   24.4458 N   0  0  0  0  0  0  0  0  0  0  0  0
   34.4006   32.5415   25.1460 C   0  0  0  0  0  0  0  0  0  0  0  0
   35.2798   33.5413   24.7125 C   0  0  0  0  0  0  0  0  0  0  0  0
   35.0947   34.1717   23.4734 C   0  0  0  0  0  0  0  0  0  0  0  0
   35.7780   35.0637   22.9924 O   0  0  0  0  0  0  0  0  0  0  0  0
   36.2623   33.7514   25.7072 C   0  0  0  0  0  0  0  0  0  0  0  0
   35.9729   32.8680   26.7356 C   0  0  0  0  0  0  0  0  0  0  0  0
   34.8232   32.1133   26.3911 N   0  0  0  0  0  0  0  0  0  0  0  0
   37.3455   34.7658   25.5967 C   0  0  0  0  0  0  0  0  0  0  0  0
   38.3490   34.5792   26.6563 N   0  0  0  0  0  0  0  0  0  0  0  0
  1  2  1  0  0  0  0
  1  7  1  0  0  0  0
  2  3  1  0  0  0  0
  2  4  2  0  0  0  0
  4  5  1  0  0  0  0
  5  6  2  0  0  0  0
  5 11  1  0  0  0  0
  6  7  1  0  0  0  0
  6  9  1  0  0  0  0
  7  8  2  0  0  0  0
  9 10  2  0  0  0  0
  9 12  1  0  0  0  0
 10 11  1  0  0  0  0
 12 13  1  0  0  0  0
M  END
>  <CHROM.1>
-169.40419986,35.07111063,33.42145982,24.60672111,-2.81495518,0.60272485
2.13818401

>  <Name>
ligand

>  <RI>
0

>  <Rbt.Current_Directory>
/home/itssahil/PROJECTS/Mol_Feturizer/Test_systems_manuscript/rnas/3q50

>  <Rbt.Executable>
rbdock ($Id: //depot/dev/client3/rdock/2013.1/src/exe/rbdock.cxx#4 $)

>  <Rbt.Library>
libRbt.so (2013.1, Build901 2013/11/27)

>  <Rbt.Parameter_File>
/export/apps/rDock/src/rDock_2013.1_src/data/scripts/dock_solv.prm

>  <Rbt.Receptor>
prm/pocket_docking_3.prm

>  <SCORE>
-17.2323

>  <SCORE.INTER>
-17.2275

>  <SCORE.INTER.CONST>
1

>  <SCORE.INTER.POLAR>
0

>  <SCORE.INTER.ROT>
1

>  <SCORE.INTER.SOLV>
22.4553

>  <SCORE.INTER.VDW>
-23.2368

>  <SCORE.INTER.norm>
-1.32519

>  <SCORE.INTRA>
-0.00480038

>  <SCORE.INTRA.DIHEDRAL>
-0.00447491

>  <SCORE.INTRA.DIHEDRAL.0>
1.65305

>  <SCORE.INTRA.POLAR>
0

>  <SCORE.INTRA.POLAR.0>
0

>  <SCORE.INTRA.REPUL>
0

>  <SCORE.INTRA.REPUL.0>
0

>  <SCORE.INTRA.SOLV>
-0.000383198

>  <SCORE.INTRA.SOLV.lig_0>
-46.9527

>  <SCORE.INTRA.VDW>
-0.00237133

>  <SCORE.INTRA.VDW.0>
-0.177978

>  <SCORE.INTRA.norm>
-0.00036926

>  <SCORE.RESTR>
0

>  <SCORE.RESTR.CAVITY>
0

>  <SCORE.RESTR.norm>
0

>  <SCORE.SYSTEM>
0

>  <SCORE.SYSTEM.CONST>
0

>  <SCORE.SYSTEM.DIHEDRAL>
0

>  <SCORE.SYSTEM.SOLV>
0

>  <SCORE.SYSTEM.norm>
0

>  <SCORE.heavy>
13

>  <SCORE.norm>
-1.32556

>  <RMSD>
0.765

$$$$
ligand
 OpenBabel02271912143D
libRbt.so/2013.1/901 2013/11/27
 13 14  0  0  0  0  0  0  0  0999 V2000
   33.9732   33.7031   22.7516 N   0  0  0  0  0  0  0  0  0  0  0  0
   33.1520   32.6788   23.2574 C   0  0  0  0  0  0  0  0  0  0  0  0
   32.0734   32.3013   22.4687 N   0  0  0  0  0  0  0  0  0  0  0  0
   33.3071   32.0586   24.4520 N   0  0  0  0  0  0  0  0  0  0  0  0
   34.4033   32.5478   25.1560 C   0  0  0  0  0  0  0  0  0  0  0  0
   35.2824   33.5495   24.7268 C   0  0  0  0  0  0  0  0  0  0  0  0
   35.0997   34.1823   23.4885 C   0  0  0  0  0  0  0  0  0  0  0  0
   35.7832   35.0761   23.0111 O   0  0  0  0  0  0  0  0  0  0  0  0
   36.2620   33.7588   25.7244 C   0  0  0  0  0  0  0  0  0  0  0  0
   35.9712   32.8730   26.7503 C   0  0  0  0  0  0  0  0  0  0  0  0
   34.8233   32.1176   26.4013 N   0  0  0  0  0  0  0  0  0  0  0  0
   37.3443   34.7748   25.6188 C   0  0  0  0  0  0  0  0  0  0  0  0
   38.4752   34.4295   26.4943 N   0  0  0  0  0  0  0  0  0  0  0  0
  1  2  1  0  0  0  0
  1  7  1  0  0  0  0
  2  3  1  0  0  0  0
  2  4  2  0  0  0  0
  4  5  1  0  0  0  0
  5  6  2  0  0  0  0
  5 11  1  0  0  0  0
  6  7  1  0  0  0  0
  6  9  1  0  0  0  0
  7  8  2  0  0  0  0
  9 10  2  0  0  0  0
  9 12  1  0  0  0  0
 10 11  1  0  0  0  0
 12 13  1  0  0  0  0
M  END
>  <CHROM.1>
-157.86220045,35.08468400,33.41683999,24.60506458,-2.82144676,0.58603216
2.14244302

>  <Name>
ligand

>  <RI>
0

>  <Rbt.Current_Directory>
/home/itssahil/PROJECTS/Mol_Feturizer/Test_systems_manuscript/rnas/3q50

>  <Rbt.Executable>
rbdock ($Id: //depot/dev/client3/rdock/2013.1/src/exe/rbdock.cxx#4 $)

>  <Rbt.Library>
libRbt.so (2013.1, Build901 2013/11/27)

>  <Rbt.Parameter_File>
/export/apps/rDock/src/rDock_2013.1_src/data/scripts/dock_solv.prm

>  <Rbt.Receptor>
prm/pocket_docking_4.prm

>  <SCORE>
-17.3405

>  <SCORE.INTER>
-17.3008

>  <SCORE.INTER.CONST>
1

>  <SCORE.INTER.POLAR>
0

>  <SCORE.INTER.ROT>
1

>  <SCORE.INTER.SOLV>
22.4659

>  <SCORE.INTER.VDW>
-23.2892

>  <SCORE.INTER.norm>
-1.33083

>  <SCORE.INTRA>
-0.0396715

>  <SCORE.INTRA.DIHEDRAL>
-0.0256658

>  <SCORE.INTRA.DIHEDRAL.0>
1.65305

>  <SCORE.INTRA.POLAR>
0

>  <SCORE.INTRA.POLAR.0>
0

>  <SCORE.INTRA.REPUL>
0

>  <SCORE.INTRA.REPUL.0>
0

>  <SCORE.INTRA.SOLV>
-0.00342472

>  <SCORE.INTRA.SOLV.lig_0>
-46.9527

>  <SCORE.INTRA.VDW>
-0.0251262

>  <SCORE.INTRA.VDW.0>
-0.177978

>  <SCORE.INTRA.norm>
-0.00305165

>  <SCORE.RESTR>
0

>  <SCORE.RESTR.CAVITY>
0

>  <SCORE.RESTR.norm>
0

>  <SCORE.SYSTEM>
0

>  <SCORE.SYSTEM.CONST>
0

>  <SCORE.SYSTEM.DIHEDRAL>
0

>  <SCORE.SYSTEM.SOLV>
0

>  <SCORE.SYSTEM.norm>
0

>  <SCORE.heavy>
13

>  <SCORE.norm>
-1.33388

>  <RMSD>
0.765

$$$$
ligand
 OpenBabel02271912143D
libRbt.so/2013.1/901 2013/11/27
 13 14  0  0  0  0  0  0  0  0999 V2000
   33.9849   33.7033   22.7414 N   0  0  0  0  0  0  0  0  0  0  0  0
   33.1599   32.6817   23.2464 C   0  0  0  0  0  0  0  0  0  0  0  0
   32.0819   32.3063   22.4558 N   0  0  0  0  0  0  0  0  0  0  0  0
   33.3108   32.0622   24.4419 N   0  0  0  0  0  0  0  0  0  0  0  0
   34.4069   32.5491   25.1477 C   0  0  0  0  0  0  0  0  0  0  0  0
   35.2896   33.5481   24.7194 C   0  0  0  0  0  0  0  0  0  0  0  0
   35.1112   34.1801   23.4801 C   0  0  0  0  0  0  0  0  0  0  0  0
   35.7980   35.0716   23.0033 O   0  0  0  0  0  0  0  0  0  0  0  0
   36.2677   33.7557   25.7189 C   0  0  0  0  0  0  0  0  0  0  0  0
   35.9723   32.8716   26.7450 C   0  0  0  0  0  0  0  0  0  0  0  0
   34.8231   32.1190   26.3943 N   0  0  0  0  0  0  0  0  0  0  0  0
   37.3529   34.7687   25.6146 C   0  0  0  0  0  0  0  0  0  0  0  0
   38.4825   34.4194   26.4902 N   0  0  0  0  0  0  0  0  0  0  0  0
  1  2  1  0  0  0  0
  1  7  1  0  0  0  0
  2  3  1  0  0  0  0
  2  4  2  0  0  0  0
  4  5  1  0  0  0  0
  5  6  2  0  0  0  0
  5 11  1  0  0  0  0
  6  7  1  0  0  0  0
  6  9  1  0  0  0  0
  7  8  2  0  0  0  0
  9 10  2  0  0  0  0
  9 12  1  0  0  0  0
 10 11  1  0  0  0  0
 12 13  1  0  0  0  0
M  END
>  <CHROM.1>
-157.71502548,35.09186041,33.41567643,24.59720398,-2.81771881,0.58466398
2.13938119

>  <Name>
ligand

>  <RI>
0

>  <Rbt.Current_Directory>
/home/itssahil/PROJECTS/Mol_Feturizer/Test_systems_manuscript/rnas/3q50

>  <Rbt.Executable>
rbdock ($Id: //depot/dev/client3/rdock/2013.1/src/exe/rbdock.cxx#4 $)

>  <Rbt.Library>
libRbt.so (2013.1, Build901 2013/11/27)

>  <Rbt.Parameter_File>
/export/apps/rDock/src/rDock_2013.1_src/data/scripts/dock_solv.prm

>  <Rbt.Receptor>
prm/pocket_docking_7.prm

>  <SCORE>
-17.293

>  <SCORE.INTER>
-17.2529

>  <SCORE.INTER.CONST>
1

>  <SCORE.INTER.POLAR>
0

>  <SCORE.INTER.ROT>
1

>  <SCORE.INTER.SOLV>
22.45

>  <SCORE.INTER.VDW>
-23.2519

>  <SCORE.INTER.norm>
-1.32715

>  <SCORE.INTRA>
-0.0401262

>  <SCORE.INTRA.DIHEDRAL>
-0.0258253

>  <SCORE.INTRA.DIHEDRAL.0>
1.65305

>  <SCORE.INTRA.POLAR>
0

>  <SCORE.INTRA.POLAR.0>
0

>  <SCORE.INTRA.REPUL>
0

>  <SCORE.INTRA.REPUL.0>
0

>  <SCORE.INTRA.SOLV>
-0.00346805

>  <SCORE.INTRA.SOLV.lig_0>
-46.9527

>  <SCORE.INTRA.VDW>
-0.0254795

>  <SCORE.INTRA.VDW.0>
-0.177978

>  <SCORE.INTRA.norm>
-0.00308663

>  <SCORE.RESTR>
0

>  <SCORE.RESTR.CAVITY>
0

>  <SCORE.RESTR.norm>
0

>  <SCORE.SYSTEM>
0

>  <SCORE.SYSTEM.CONST>
0

>  <SCORE.SYSTEM.DIHEDRAL>
0

>  <SCORE.SYSTEM.SOLV>
0

>  <SCORE.SYSTEM.norm>
0

>  <SCORE.heavy>
13

>  <SCORE.norm>
-1.33023

>  <RMSD>
0.767

$$$$
ligand
 OpenBabel02271912143D
libRbt.so/2013.1/901 2013/11/27
 13 14  0  0  0  0  0  0  0  0999 V2000
   33.9734   33.7066   22.7584 N   0  0  0  0  0  0  0  0  0  0  0  0
   33.1501   32.6806   23.2571 C   0  0  0  0  0  0  0  0  0  0  0  0
   32.0703   32.3112   22.4662 N   0  0  0  0  0  0  0  0  0  0  0  0
   33.3041   32.0515   24.4472 N   0  0  0  0  0  0  0  0  0  0  0  0
   34.4017   32.5331   25.1542 C   0  0  0  0  0  0  0  0  0  0  0  0
   35.2830   33.5359   24.7319 C   0  0  0  0  0  0  0  0  0  0  0  0
   35.1013   34.1779   23.4982 C   0  0  0  0  0  0  0  0  0  0  0  0
   35.7867   35.0735   23.0270 O   0  0  0  0  0  0  0  0  0  0  0  0
   36.2635   33.7357   25.7307 C   0  0  0  0  0  0  0  0  0  0  0  0
   35.9709   32.8432   26.7503 C   0  0  0  0  0  0  0  0  0  0  0  0
   34.8211   32.0930   26.3963 N   0  0  0  0  0  0  0  0  0  0  0  0
   37.3481   34.7499   25.6319 C   0  0  0  0  0  0  0  0  0  0  0  0
   38.4065   34.4838   26.6185 N   0  0  0  0  0  0  0  0  0  0  0  0
  1  2  1  0  0  0  0
  1  7  1  0  0  0  0
  2  3  1  0  0  0  0
  2  4  2  0  0  0  0
  4  5  1  0  0  0  0
  5  6  2  0  0  0  0
  5 11  1  0  0  0  0
  6  7  1  0  0  0  0
  6  9  1  0  0  0  0
  7  8  2  0  0  0  0
  9 10  2  0  0  0  0
  9 12  1  0  0  0  0
 10 11  1  0  0  0  0
 12 13  1  0  0  0  0
M  END
>  <CHROM.1>
-164.57718607,35.07907985,33.41165856,24.61860725,-2.81509509,0.59490585
2.14732054

>  <Name>
ligand

>  <RI>
0

>  <Rbt.Current_Directory>
/home/itssahil/PROJECTS/Mol_Feturizer/Test_systems_manuscript/rnas/3q50

>  <Rbt.Executable>
rbdock ($Id: //depot/dev/client3/rdock/2013.1/src/exe/rbdock.cxx#4 $)

>  <Rbt.Library>
libRbt.so (2013.1, Build901 2013/11/27)

>  <Rbt.Parameter_File>
/export/apps/rDock/src/rDock_2013.1_src/data/scripts/dock_solv.prm

>  <Rbt.Receptor>
prm/pocket_docking_4.prm

>  <SCORE>
-17.2776

>  <SCORE.INTER>
-17.2587

>  <SCORE.INTER.CONST>
1

>  <SCORE.INTER.POLAR>
0

>  <SCORE.INTER.ROT>
1

>  <SCORE.INTER.SOLV>
22.3599

>  <SCORE.INTER.VDW>
-23.2258

>  <SCORE.INTER.norm>
-1.32759

>  <SCORE.INTRA>
-0.0189234

>  <SCORE.INTRA.DIHEDRAL>
-0.0152518

>  <SCORE.INTRA.DIHEDRAL.0>
1.65305

>  <SCORE.INTRA.POLAR>
0

>  <SCORE.INTRA.POLAR.0>
0

>  <SCORE.INTRA.REPUL>
0

>  <SCORE.INTRA.REPUL.0>
0

>  <SCORE.INTRA.SOLV>
-0.00155476

>  <SCORE.INTRA.SOLV.lig_0>
-46.9527

>  <SCORE.INTRA.VDW>
-0.0105202

>  <SCORE.INTRA.VDW.0>
-0.177978

>  <SCORE.INTRA.norm>
-0.00145565

>  <SCORE.RESTR>
0

>  <SCORE.RESTR.CAVITY>
0

>  <SCORE.RESTR.norm>
0

>  <SCORE.SYSTEM>
0

>  <SCORE.SYSTEM.CONST>
0

>  <SCORE.SYSTEM.DIHEDRAL>
0

>  <SCORE.SYSTEM.SOLV>
0

>  <SCORE.SYSTEM.norm>
0

>  <SCORE.heavy>
13

>  <SCORE.norm>
-1.32905

>  <RMSD>
0.768

$$$$
ligand
 OpenBabel02271912143D
libRbt.so/2013.1/901 2013/11/27
 13 14  0  0  0  0  0  0  0  0999 V2000
   33.9656   33.6963   22.7593 N   0  0  0  0  0  0  0  0  0  0  0  0
   33.1456   32.6719   23.2667 C   0  0  0  0  0  0  0  0  0  0  0  0
   32.0643   32.2957   22.4811 N   0  0  0  0  0  0  0  0  0  0  0  0
   33.3041   32.0506   24.4602 N   0  0  0  0  0  0  0  0  0  0  0  0
   34.4027   32.5386   25.1612 C   0  0  0  0  0  0  0  0  0  0  0  0
   35.2809   33.5403   24.7302 C   0  0  0  0  0  0  0  0  0  0  0  0
   35.0946   34.1743   23.4931 C   0  0  0  0  0  0  0  0  0  0  0  0
   35.7770   35.0682   23.0143 O   0  0  0  0  0  0  0  0  0  0  0  0
   36.2638   33.7482   25.7250 C   0  0  0  0  0  0  0  0  0  0  0  0
   35.9757   32.8616   26.7509 C   0  0  0  0  0  0  0  0  0  0  0  0
   34.8264   32.1071   26.4048 N   0  0  0  0  0  0  0  0  0  0  0  0
   37.3462   34.7638   25.6169 C   0  0  0  0  0  0  0  0  0  0  0  0
   38.4805   34.4161   26.4869 N   0  0  0  0  0  0  0  0  0  0  0  0
  1  2  1  0  0  0  0
  1  7  1  0  0  0  0
  2  3  1  0  0  0  0
  2  4  2  0  0  0  0
  4  5  1  0  0  0  0
  5  6  2  0  0  0  0
  5 11  1  0  0  0  0
  6  7  1  0  0  0  0
  6  9  1  0  0  0  0
  7  8  2  0  0  0  0
  9 10  2  0  0  0  0
  9 12  1  0  0  0  0
 10 11  1  0  0  0  0
 12 13  1  0  0  0  0
M  END
>  <CHROM.1>
-157.77185428,35.08284054,33.40775923,24.60886008,-2.82439172,0.58380034
2.14495955

>  <Name>
ligand

>  <RI>
0

>  <Rbt.Current_Directory>
/home/itssahil/PROJECTS/Mol_Feturizer/Test_systems_manuscript/rnas/3q50

>  <Rbt.Executable>
rbdock ($Id: //depot/dev/client3/rdock/2013.1/src/exe/rbdock.cxx#4 $)

>  <Rbt.Library>
libRbt.so (2013.1, Build901 2013/11/27)

>  <Rbt.Parameter_File>
/export/apps/rDock/src/rDock_2013.1_src/data/scripts/dock_solv.prm

>  <Rbt.Receptor>
prm/pocket_docking_8.prm

>  <SCORE>
-17.2753

>  <SCORE.INTER>
-17.2354

>  <SCORE.INTER.CONST>
1

>  <SCORE.INTER.POLAR>
0

>  <SCORE.INTER.ROT>
1

>  <SCORE.INTER.SOLV>
22.4784

>  <SCORE.INTER.VDW>
-23.2497

>  <SCORE.INTER.norm>
-1.3258

>  <SCORE.INTRA>
-0.0399507

>  <SCORE.INTRA.DIHEDRAL>
-0.0257641

>  <SCORE.INTRA.DIHEDRAL.0>
1.65305

>  <SCORE.INTRA.POLAR>
0

>  <SCORE.INTRA.POLAR.0>
0

>  <SCORE.INTRA.REPUL>
0

>  <SCORE.INTRA.REPUL.0>
0

>  <SCORE.INTRA.SOLV>
-0.00345131

>  <SCORE.INTRA.SOLV.lig_0>
-46.9527

>  <SCORE.INTRA.VDW>
-0.025343

>  <SCORE.INTRA.VDW.0>
-0.177978

>  <SCORE.INTRA.norm>
-0.00307313

>  <SCORE.RESTR>
0

>  <SCORE.RESTR.CAVITY>
0

>  <SCORE.RESTR.norm>
0

>  <SCORE.SYSTEM>
0

>  <SCORE.SYSTEM.CONST>
0

>  <SCORE.SYSTEM.DIHEDRAL>
0

>  <SCORE.SYSTEM.SOLV>
0

>  <SCORE.SYSTEM.norm>
0

>  <SCORE.heavy>
13

>  <SCORE.norm>
-1.32887

>  <RMSD>
0.768

$$$$
ligand
 OpenBabel02271912143D
libRbt.so/2013.1/901 2013/11/27
 13 14  0  0  0  0  0  0  0  0999 V2000
   33.9739   33.7045   22.7560 N   0  0  0  0  0  0  0  0  0  0  0  0
   33.1528   32.6784   23.2583 C   0  0  0  0  0  0  0  0  0  0  0  0
   32.0743   32.3034   22.4683 N   0  0  0  0  0  0  0  0  0  0  0  0
   33.3079   32.0543   24.4508 N   0  0  0  0  0  0  0  0  0  0  0  0
   34.4039   32.5412   25.1565 C   0  0  0  0  0  0  0  0  0  0  0  0
   35.2830   33.5445   24.7307 C   0  0  0  0  0  0  0  0  0  0  0  0
   35.1003   34.1814   23.4945 C   0  0  0  0  0  0  0  0  0  0  0  0
   35.7836   35.0768   23.0201 O   0  0  0  0  0  0  0  0  0  0  0  0
   36.2625   33.7506   25.7292 C   0  0  0  0  0  0  0  0  0  0  0  0
   35.9716   32.8614   26.7520 C   0  0  0  0  0  0  0  0  0  0  0  0
   34.8239   32.1070   26.4004 N   0  0  0  0  0  0  0  0  0  0  0  0
   37.3446   34.7671   25.6270 C   0  0  0  0  0  0  0  0  0  0  0  0
   38.4940   34.3960   26.4671 N   0  0  0  0  0  0  0  0  0  0  0  0
  1  2  1  0  0  0  0
  1  7  1  0  0  0  0
  2  3  1  0  0  0  0
  2  4  2  0  0  0  0
  4  5  1  0  0  0  0
  5  6  2  0  0  0  0
  5 11  1  0  0  0  0
  6  7  1  0  0  0  0
  6  9  1  0  0  0  0
  7  8  2  0  0  0  0
  9 10  2  0  0  0  0
  9 12  1  0  0  0  0
 10 11  1  0  0  0  0
 12 13  1  0  0  0  0
M  END
>  <CHROM.1>
-155.97157982,35.08677124,33.41035214,24.60577223,-2.82308564,0.58316010
2.14606940

>  <Name>
ligand

>  <RI>
0

>  <Rbt.Current_Directory>
/home/itssahil/PROJECTS/Mol_Feturizer/Test_systems_manuscript/rnas/3q50

>  <Rbt.Executable>
rbdock ($Id: //depot/dev/client3/rdock/2013.1/src/exe/rbdock.cxx#4 $)

>  <Rbt.Library>
libRbt.so (2013.1, Build901 2013/11/27)

>  <Rbt.Parameter_File>
/export/apps/rDock/src/rDock_2013.1_src/data/scripts/dock_solv.prm

>  <Rbt.Receptor>
prm/pocket_docking_2.prm

>  <SCORE>
-17.3205

>  <SCORE.INTER>
-17.275

>  <SCORE.INTER.CONST>
1

>  <SCORE.INTER.POLAR>
0

>  <SCORE.INTER.ROT>
1

>  <SCORE.INTER.SOLV>
22.4663

>  <SCORE.INTER.VDW>
-23.2721

>  <SCORE.INTER.norm>
-1.32885

>  <SCORE.INTRA>
-0.0454794

>  <SCORE.INTRA.DIHEDRAL>
-0.027473

>  <SCORE.INTRA.DIHEDRAL.0>
1.65305

>  <SCORE.INTRA.POLAR>
0

>  <SCORE.INTRA.POLAR.0>
0

>  <SCORE.INTRA.REPUL>
0

>  <SCORE.INTRA.REPUL.0>
0

>  <SCORE.INTRA.SOLV>
-0.00398691

>  <SCORE.INTRA.SOLV.lig_0>
-46.9527

>  <SCORE.INTRA.VDW>
-0.0297495

>  <SCORE.INTRA.VDW.0>
-0.177978

>  <SCORE.INTRA.norm>
-0.00349842

>  <SCORE.RESTR>
0

>  <SCORE.RESTR.CAVITY>
0

>  <SCORE.RESTR.norm>
0

>  <SCORE.SYSTEM>
0

>  <SCORE.SYSTEM.CONST>
0

>  <SCORE.SYSTEM.DIHEDRAL>
0

>  <SCORE.SYSTEM.SOLV>
0

>  <SCORE.SYSTEM.norm>
0

>  <SCORE.heavy>
13

>  <SCORE.norm>
-1.33235

>  <RMSD>
0.769

$$$$
ligand
 OpenBabel02271912143D
libRbt.so/2013.1/901 2013/11/27
 13 14  0  0  0  0  0  0  0  0999 V2000
   33.9725   33.7057   22.7538 N   0  0  0  0  0  0  0  0  0  0  0  0
   33.1525   32.6786   23.2559 C   0  0  0  0  0  0  0  0  0  0  0  0
   32.0738   32.3033   22.4662 N   0  0  0  0  0  0  0  0  0  0  0  0
   33.3086   32.0538   24.4479 N   0  0  0  0  0  0  0  0  0  0  0  0
   34.4047   32.5411   25.1533 C   0  0  0  0  0  0  0  0  0  0  0  0
   35.2827   33.5453   24.7278 C   0  0  0  0  0  0  0  0  0  0  0  0
   35.0989   34.1828   23.4921 C   0  0  0  0  0  0  0  0  0  0  0  0
   35.7814   35.0791   23.0179 O   0  0  0  0  0  0  0  0  0  0  0  0
   36.2626   33.7514   25.7258 C   0  0  0  0  0  0  0  0  0  0  0  0
   35.9730   32.8613   26.7482 C   0  0  0  0  0  0  0  0  0  0  0  0
   34.8256   32.1063   26.3967 N   0  0  0  0  0  0  0  0  0  0  0  0
   37.3440   34.7687   25.6237 C   0  0  0  0  0  0  0  0  0  0  0  0
   38.4925   34.3998   26.4660 N   0  0  0  0  0  0  0  0  0  0  0  0
  1  2  1  0  0  0  0
  1  7  1  0  0  0  0
  2  3  1  0  0  0  0
  2  4  2  0  0  0  0
  4  5  1  0  0  0  0
  5  6  2  0  0  0  0
  5 11  1  0  0  0  0
  6  7  1  0  0  0  0
  6  9  1  0  0  0  0
  7  8  2  0  0  0  0
  9 10  2  0  0  0  0
  9 12  1  0  0  0  0
 10 11  1  0  0  0  0
 12 13  1  0  0  0  0
M  END
>  <CHROM.1>
-156.13405129,35.08644920,33.41120746,24.60304493,-2.82395385,0.58373466
2.14728270

>  <Name>
ligand

>  <RI>
0

>  <Rbt.Current_Directory>
/home/itssahil/PROJECTS/Mol_Feturizer/Test_systems_manuscript/rnas/3q50

>  <Rbt.Executable>
rbdock ($Id: //depot/dev/client3/rdock/2013.1/src/exe/rbdock.cxx#4 $)

>  <Rbt.Library>
libRbt.so (2013.1, Build901 2013/11/27)

>  <Rbt.Parameter_File>
/export/apps/rDock/src/rDock_2013.1_src/data/scripts/dock_solv.prm

>  <Rbt.Receptor>
prm/pocket_docking_2.prm

>  <SCORE>
-17.3151

>  <SCORE.INTER>
-17.2701

>  <SCORE.INTER.CONST>
1

>  <SCORE.INTER.POLAR>
0

>  <SCORE.INTER.ROT>
1

>  <SCORE.INTER.SOLV>
22.4697

>  <SCORE.INTER.VDW>
-23.27

>  <SCORE.INTER.norm>
-1.32847

>  <SCORE.INTRA>
-0.0449836

>  <SCORE.INTRA.DIHEDRAL>
-0.0273384

>  <SCORE.INTRA.DIHEDRAL.0>
1.65305

>  <SCORE.INTRA.POLAR>
0

>  <SCORE.INTRA.POLAR.0>
0

>  <SCORE.INTRA.REPUL>
0

>  <SCORE.INTRA.REPUL.0>
0

>  <SCORE.INTRA.SOLV>
-0.00393816

>  <SCORE.INTRA.SOLV.lig_0>
-46.9527

>  <SCORE.INTRA.VDW>
-0.0293453

>  <SCORE.INTRA.VDW.0>
-0.177978

>  <SCORE.INTRA.norm>
-0.00346028

>  <SCORE.RESTR>
0

>  <SCORE.RESTR.CAVITY>
0

>  <SCORE.RESTR.norm>
0

>  <SCORE.SYSTEM>
0

>  <SCORE.SYSTEM.CONST>
0

>  <SCORE.SYSTEM.DIHEDRAL>
0

>  <SCORE.SYSTEM.SOLV>
0

>  <SCORE.SYSTEM.norm>
0

>  <SCORE.heavy>
13

>  <SCORE.norm>
-1.33193

>  <RMSD>
0.769

$$$$
ligand
 OpenBabel02271912143D
libRbt.so/2013.1/901 2013/11/27
 13 14  0  0  0  0  0  0  0  0999 V2000
   33.9717   33.7050   22.7566 N   0  0  0  0  0  0  0  0  0  0  0  0
   33.1504   32.6784   23.2577 C   0  0  0  0  0  0  0  0  0  0  0  0
   32.0711   32.3055   22.4677 N   0  0  0  0  0  0  0  0  0  0  0  0
   33.3059   32.0520   24.4489 N   0  0  0  0  0  0  0  0  0  0  0  0
   34.4028   32.5371   25.1548 C   0  0  0  0  0  0  0  0  0  0  0  0
   35.2821   33.5406   24.7302 C   0  0  0  0  0  0  0  0  0  0  0  0
   35.0989   34.1798   23.4953 C   0  0  0  0  0  0  0  0  0  0  0  0
   35.7824   35.0758   23.0221 O   0  0  0  0  0  0  0  0  0  0  0  0
   36.2624   33.7443   25.7283 C   0  0  0  0  0  0  0  0  0  0  0  0
   35.9717   32.8534   26.7498 C   0  0  0  0  0  0  0  0  0  0  0  0
   34.8233   32.1003   26.3976 N   0  0  0  0  0  0  0  0  0  0  0  0
   37.3451   34.7604   25.6273 C   0  0  0  0  0  0  0  0  0  0  0  0
   38.4821   34.4029   26.4898 N   0  0  0  0  0  0  0  0  0  0  0  0
  1  2  1  0  0  0  0
  1  7  1  0  0  0  0
  2  3  1  0  0  0  0
  2  4  2  0  0  0  0
  4  5  1  0  0  0  0
  5  6  2  0  0  0  0
  5 11  1  0  0  0  0
  6  7  1  0  0  0  0
  6  9  1  0  0  0  0
  7  8  2  0  0  0  0
  9 10  2  0  0  0  0
  9 12  1  0  0  0  0
 10 11  1  0  0  0  0
 12 13  1  0  0  0  0
M  END
>  <CHROM.1>
-157.28006201,35.08467196,33.40808153,24.60707663,-2.82227355,0.58439467
2.14787737

>  <Name>
ligand

>  <RI>
0

>  <Rbt.Current_Directory>
/home/itssahil/PROJECTS/Mol_Feturizer/Test_systems_manuscript/rnas/3q50

>  <Rbt.Executable>
rbdock ($Id: //depot/dev/client3/rdock/2013.1/src/exe/rbdock.cxx#4 $)

>  <Rbt.Library>
libRbt.so (2013.1, Build901 2013/11/27)

>  <Rbt.Parameter_File>
/export/apps/rDock/src/rDock_2013.1_src/data/scripts/dock_solv.prm

>  <Rbt.Receptor>
prm/pocket_docking_3.prm

>  <SCORE>
-17.3161

>  <SCORE.INTER>
-17.2746

>  <SCORE.INTER.CONST>
1

>  <SCORE.INTER.POLAR>
0

>  <SCORE.INTER.ROT>
1

>  <SCORE.INTER.SOLV>
22.447

>  <SCORE.INTER.VDW>
-23.2654

>  <SCORE.INTER.norm>
-1.32882

>  <SCORE.INTRA>
-0.0414677

>  <SCORE.INTRA.DIHEDRAL>
-0.0262781

>  <SCORE.INTRA.DIHEDRAL.0>
1.65305

>  <SCORE.INTRA.POLAR>
0

>  <SCORE.INTRA.POLAR.0>
0

>  <SCORE.INTRA.REPUL>
0

>  <SCORE.INTRA.REPUL.0>
0

>  <SCORE.INTRA.SOLV>
-0.00359657

>  <SCORE.INTRA.SOLV.lig_0>
-46.9527

>  <SCORE.INTRA.VDW>
-0.0265304

>  <SCORE.INTRA.VDW.0>
-0.177978

>  <SCORE.INTRA.norm>
-0.00318983

>  <SCORE.RESTR>
0

>  <SCORE.RESTR.CAVITY>
0

>  <SCORE.RESTR.norm>
0

>  <SCORE.SYSTEM>
0

>  <SCORE.SYSTEM.CONST>
0

>  <SCORE.SYSTEM.DIHEDRAL>
0

>  <SCORE.SYSTEM.SOLV>
0

>  <SCORE.SYSTEM.norm>
0

>  <SCORE.heavy>
13

>  <SCORE.norm>
-1.33201

>  <RMSD>
0.771

$$$$
ligand
 OpenBabel02271912143D
libRbt.so/2013.1/901 2013/11/27
 13 14  0  0  0  0  0  0  0  0999 V2000
   33.9725   33.7124   22.7655 N   0  0  0  0  0  0  0  0  0  0  0  0
   33.1490   32.6873   23.2659 C   0  0  0  0  0  0  0  0  0  0  0  0
   32.0686   32.3175   22.4760 N   0  0  0  0  0  0  0  0  0  0  0  0
   33.3035   32.0596   24.4566 N   0  0  0  0  0  0  0  0  0  0  0  0
   34.4017   32.5415   25.1625 C   0  0  0  0  0  0  0  0  0  0  0  0
   35.2831   33.5435   24.7385 C   0  0  0  0  0  0  0  0  0  0  0  0
   35.1010   34.1841   23.5041 C   0  0  0  0  0  0  0  0  0  0  0  0
   35.7864   35.0789   23.0314 O   0  0  0  0  0  0  0  0  0  0  0  0
   36.2642   33.7441   25.7364 C   0  0  0  0  0  0  0  0  0  0  0  0
   35.9719   32.8529   26.7573 C   0  0  0  0  0  0  0  0  0  0  0  0
   34.8216   32.1028   26.4048 N   0  0  0  0  0  0  0  0  0  0  0  0
   37.3492   34.7577   25.6359 C   0  0  0  0  0  0  0  0  0  0  0  0
   38.5173   34.3570   26.4355 N   0  0  0  0  0  0  0  0  0  0  0  0
  1  2  1  0  0  0  0
  1  7  1  0  0  0  0
  2  3  1  0  0  0  0
  2  4  2  0  0  0  0
  4  5  1  0  0  0  0
  5  6  2  0  0  0  0
  5 11  1  0  0  0  0
  6  7  1  0  0  0  0
  6  9  1  0  0  0  0
  7  8  2  0  0  0  0
  9 10  2  0  0  0  0
  9 12  1  0  0  0  0
 10 11  1  0  0  0  0
 12 13  1  0  0  0  0
M  END
>  <CHROM.1>
-153.92304602,35.08795560,33.40819502,24.61022635,-2.82407158,0.57696734
2.14850776

>  <Name>
ligand

>  <RI>
0

>  <Rbt.Current_Directory>
/home/itssahil/PROJECTS/Mol_Feturizer/Test_systems_manuscript/rnas/3q50

>  <Rbt.Executable>
rbdock ($Id: //depot/dev/client3/rdock/2013.1/src/exe/rbdock.cxx#4 $)

>  <Rbt.Library>
libRbt.so (2013.1, Build901 2013/11/27)

>  <Rbt.Parameter_File>
/export/apps/rDock/src/rDock_2013.1_src/data/scripts/dock_solv.prm

>  <Rbt.Receptor>
prm/pocket_docking_3.prm

>  <SCORE>
-17.1867

>  <SCORE.INTER>
-17.135

>  <SCORE.INTER.CONST>
1

>  <SCORE.INTER.POLAR>
0

>  <SCORE.INTER.ROT>
1

>  <SCORE.INTER.SOLV>
22.4894

>  <SCORE.INTER.VDW>
-23.1865

>  <SCORE.INTER.norm>
-1.31808

>  <SCORE.INTRA>
-0.0516607

>  <SCORE.INTRA.DIHEDRAL>
-0.0288291

>  <SCORE.INTRA.DIHEDRAL.0>
1.65305

>  <SCORE.INTRA.POLAR>
0

>  <SCORE.INTRA.POLAR.0>
0

>  <SCORE.INTRA.REPUL>
0

>  <SCORE.INTRA.REPUL.0>
0

>  <SCORE.INTRA.SOLV>
-0.00460711

>  <SCORE.INTRA.SOLV.lig_0>
-46.9527

>  <SCORE.INTRA.VDW>
-0.0349426

>  <SCORE.INTRA.VDW.0>
-0.177978

>  <SCORE.INTRA.norm>
-0.0039739

>  <SCORE.RESTR>
0

>  <SCORE.RESTR.CAVITY>
0

>  <SCORE.RESTR.norm>
0

>  <SCORE.SYSTEM>
0

>  <SCORE.SYSTEM.CONST>
0

>  <SCORE.SYSTEM.DIHEDRAL>
0

>  <SCORE.SYSTEM.SOLV>
0

>  <SCORE.SYSTEM.norm>
0

>  <SCORE.heavy>
13

>  <SCORE.norm>
-1.32205

>  <RMSD>
0.772

$$$$
ligand
 OpenBabel02271912143D
libRbt.so/2013.1/901 2013/11/27
 13 14  0  0  0  0  0  0  0  0999 V2000
   33.9744   33.7075   22.7556 N   0  0  0  0  0  0  0  0  0  0  0  0
   33.1518   32.6804   23.2533 C   0  0  0  0  0  0  0  0  0  0  0  0
   32.0733   32.3099   22.4611 N   0  0  0  0  0  0  0  0  0  0  0  0
   33.3053   32.0512   24.4434 N   0  0  0  0  0  0  0  0  0  0  0  0
   34.4015   32.5339   25.1517 C   0  0  0  0  0  0  0  0  0  0  0  0
   35.2821   33.5379   24.7306 C   0  0  0  0  0  0  0  0  0  0  0  0
   35.1010   34.1799   23.4968 C   0  0  0  0  0  0  0  0  0  0  0  0
   35.7858   35.0764   23.0265 O   0  0  0  0  0  0  0  0  0  0  0  0
   36.2612   33.7387   25.7304 C   0  0  0  0  0  0  0  0  0  0  0  0
   35.9686   32.8457   26.7495 C   0  0  0  0  0  0  0  0  0  0  0  0
   34.8202   32.0942   26.3942 N   0  0  0  0  0  0  0  0  0  0  0  0
   37.3447   34.7542   25.6331 C   0  0  0  0  0  0  0  0  0  0  0  0
   38.4684   34.4089   26.5176 N   0  0  0  0  0  0  0  0  0  0  0  0
  1  2  1  0  0  0  0
  1  7  1  0  0  0  0
  2  3  1  0  0  0  0
  2  4  2  0  0  0  0
  4  5  1  0  0  0  0
  5  6  2  0  0  0  0
  5 11  1  0  0  0  0
  6  7  1  0  0  0  0
  6  9  1  0  0  0  0
  7  8  2  0  0  0  0
  9 10  2  0  0  0  0
  9 12  1  0  0  0  0
 10 11  1  0  0  0  0
 12 13  1  0  0  0  0
M  END
>  <CHROM.1>
-158.47128336,35.08380902,33.40691677,24.60862184,-2.81949020,0.58646528
2.14888663

>  <Name>
ligand

>  <RI>
0

>  <Rbt.Current_Directory>
/home/itssahil/PROJECTS/Mol_Feturizer/Test_systems_manuscript/rnas/3q50

>  <Rbt.Executable>
rbdock ($Id: //depot/dev/client3/rdock/2013.1/src/exe/rbdock.cxx#4 $)

>  <Rbt.Library>
libRbt.so (2013.1, Build901 2013/11/27)

>  <Rbt.Parameter_File>
/export/apps/rDock/src/rDock_2013.1_src/data/scripts/dock_solv.prm

>  <Rbt.Receptor>
prm/pocket_docking_5.prm

>  <SCORE>
-17.3135

>  <SCORE.INTER>
-17.2757

>  <SCORE.INTER.CONST>
1

>  <SCORE.INTER.POLAR>
0

>  <SCORE.INTER.ROT>
1

>  <SCORE.INTER.SOLV>
22.4125

>  <SCORE.INTER.VDW>
-23.2547

>  <SCORE.INTER.norm>
-1.3289

>  <SCORE.INTRA>
-0.0377866

>  <SCORE.INTRA.DIHEDRAL>
-0.0249729

>  <SCORE.INTRA.DIHEDRAL.0>
1.65305

>  <SCORE.INTRA.POLAR>
0

>  <SCORE.INTRA.POLAR.0>
0

>  <SCORE.INTRA.REPUL>
0

>  <SCORE.INTRA.REPUL.0>
0

>  <SCORE.INTRA.SOLV>
-0.00324625

>  <SCORE.INTRA.SOLV.lig_0>
-46.9527

>  <SCORE.INTRA.VDW>
-0.023677

>  <SCORE.INTRA.VDW.0>
-0.177978

>  <SCORE.INTRA.norm>
-0.00290666

>  <SCORE.RESTR>
0

>  <SCORE.RESTR.CAVITY>
0

>  <SCORE.RESTR.norm>
0

>  <SCORE.SYSTEM>
0

>  <SCORE.SYSTEM.CONST>
0

>  <SCORE.SYSTEM.DIHEDRAL>
0

>  <SCORE.SYSTEM.SOLV>
0

>  <SCORE.SYSTEM.norm>
0

>  <SCORE.heavy>
13

>  <SCORE.norm>
-1.33181

>  <RMSD>
0.773

$$$$
ligand
 OpenBabel02271912143D
libRbt.so/2013.1/901 2013/11/27
 13 14  0  0  0  0  0  0  0  0999 V2000
   33.9821   33.7062   22.7560 N   0  0  0  0  0  0  0  0  0  0  0  0
   33.1631   32.6724   23.2457 C   0  0  0  0  0  0  0  0  0  0  0  0
   32.0916   32.2976   22.4461 N   0  0  0  0  0  0  0  0  0  0  0  0
   33.3137   32.0405   24.4347 N   0  0  0  0  0  0  0  0  0  0  0  0
   34.4028   32.5279   25.1509 C   0  0  0  0  0  0  0  0  0  0  0  0
   35.2794   33.5387   24.7380 C   0  0  0  0  0  0  0  0  0  0  0  0
   35.1014   34.1834   23.5052 C   0  0  0  0  0  0  0  0  0  0  0  0
   35.7832   35.0857   23.0417 O   0  0  0  0  0  0  0  0  0  0  0  0
   36.2514   33.7425   25.7441 C   0  0  0  0  0  0  0  0  0  0  0  0
   35.9586   32.8444   26.7587 C   0  0  0  0  0  0  0  0  0  0  0  0
   34.8169   32.0868   26.3944 N   0  0  0  0  0  0  0  0  0  0  0  0
   37.3290   34.7651   25.6562 C   0  0  0  0  0  0  0  0  0  0  0  0
   38.4687   34.4012   26.5125 N   0  0  0  0  0  0  0  0  0  0  0  0
  1  2  1  0  0  0  0
  1  7  1  0  0  0  0
  2  3  1  0  0  0  0
  2  4  2  0  0  0  0
  4  5  1  0  0  0  0
  5  6  2  0  0  0  0
  5 11  1  0  0  0  0
  6  7  1  0  0  0  0
  6  9  1  0  0  0  0
  7  8  2  0  0  0  0
  9 10  2  0  0  0  0
  9 12  1  0  0  0  0
 10 11  1  0  0  0  0
 12 13  1  0  0  0  0
M  END
>  <CHROM.1>
-156.59722091,35.08417184,33.40498776,24.61173673,-2.81940617,0.59190639
2.15142365

>  <Name>
ligand

>  <RI>
0

>  <Rbt.Current_Directory>
/home/itssahil/PROJECTS/Mol_Feturizer/Test_systems_manuscript/rnas/3q50

>  <Rbt.Executable>
rbdock ($Id: //depot/dev/client3/rdock/2013.1/src/exe/rbdock.cxx#4 $)

>  <Rbt.Library>
libRbt.so (2013.1, Build901 2013/11/27)

>  <Rbt.Parameter_File>
/export/apps/rDock/src/rDock_2013.1_src/data/scripts/dock_solv.prm

>  <Rbt.Receptor>
prm/pocket_docking_2.prm

>  <SCORE>
-17.2266

>  <SCORE.INTER>
-17.183

>  <SCORE.INTER.CONST>
1

>  <SCORE.INTER.POLAR>
0

>  <SCORE.INTER.ROT>
1

>  <SCORE.INTER.SOLV>
22.3839

>  <SCORE.INTER.VDW>
-23.1833

>  <SCORE.INTER.norm>
-1.32177

>  <SCORE.INTRA>
-0.0435663

>  <SCORE.INTRA.DIHEDRAL>
-0.0269332

>  <SCORE.INTRA.DIHEDRAL.0>
1.65305

>  <SCORE.INTRA.POLAR>
0

>  <SCORE.INTRA.POLAR.0>
0

>  <SCORE.INTRA.REPUL>
0

>  <SCORE.INTRA.REPUL.0>
0

>  <SCORE.INTRA.SOLV>
-0.00379961

>  <SCORE.INTRA.SOLV.lig_0>
-46.9527

>  <SCORE.INTRA.VDW>
-0.0281999

>  <SCORE.INTRA.VDW.0>
-0.177978

>  <SCORE.INTRA.norm>
-0.00335125

>  <SCORE.RESTR>
0

>  <SCORE.RESTR.CAVITY>
0

>  <SCORE.RESTR.norm>
0

>  <SCORE.SYSTEM>
0

>  <SCORE.SYSTEM.CONST>
0

>  <SCORE.SYSTEM.DIHEDRAL>
0

>  <SCORE.SYSTEM.SOLV>
0

>  <SCORE.SYSTEM.norm>
0

>  <SCORE.heavy>
13

>  <SCORE.norm>
-1.32512

>  <RMSD>
0.774

$$$$
ligand
 OpenBabel02271912143D
libRbt.so/2013.1/901 2013/11/27
 13 14  0  0  0  0  0  0  0  0999 V2000
   33.9728   33.6920   22.7537 N   0  0  0  0  0  0  0  0  0  0  0  0
   33.1499   32.6655   23.2521 C   0  0  0  0  0  0  0  0  0  0  0  0
   32.0712   32.2949   22.4602 N   0  0  0  0  0  0  0  0  0  0  0  0
   33.3033   32.0370   24.4425 N   0  0  0  0  0  0  0  0  0  0  0  0
   34.3998   32.5198   25.1504 C   0  0  0  0  0  0  0  0  0  0  0  0
   35.2806   33.5232   24.7285 C   0  0  0  0  0  0  0  0  0  0  0  0
   35.0996   34.1646   23.4944 C   0  0  0  0  0  0  0  0  0  0  0  0
   35.7846   35.0606   23.0234 O   0  0  0  0  0  0  0  0  0  0  0  0
   36.2600   33.7244   25.7281 C   0  0  0  0  0  0  0  0  0  0  0  0
   35.9672   32.8320   26.7478 C   0  0  0  0  0  0  0  0  0  0  0  0
   34.8185   32.0807   26.3931 N   0  0  0  0  0  0  0  0  0  0  0  0
   37.3438   34.7395   25.6300 C   0  0  0  0  0  0  0  0  0  0  0  0
   38.3516   34.5342   26.6819 N   0  0  0  0  0  0  0  0  0  0  0  0
  1  2  1  0  0  0  0
  1  7  1  0  0  0  0
  2  3  1  0  0  0  0
  2  4  2  0  0  0  0
  4  5  1  0  0  0  0
  5  6  2  0  0  0  0
  5 11  1  0  0  0  0
  6  7  1  0  0  0  0
  6  9  1  0  0  0  0
  7  8  2  0  0  0  0
  9 10  2  0  0  0  0
  9 12  1  0  0  0  0
 10 11  1  0  0  0  0
 12 13  1  0  0  0  0
M  END
>  <CHROM.1>
-168.77419782,35.07285925,33.40364421,24.62029488,-2.81196065,0.60319221
2.14530221

>  <Name>
ligand

>  <RI>
0

>  <Rbt.Current_Directory>
/home/itssahil/PROJECTS/Mol_Feturizer/Test_systems_manuscript/rnas/3q50

>  <Rbt.Executable>
rbdock ($Id: //depot/dev/client3/rdock/2013.1/src/exe/rbdock.cxx#4 $)

>  <Rbt.Library>
libRbt.so (2013.1, Build901 2013/11/27)

>  <Rbt.Parameter_File>
/export/apps/rDock/src/rDock_2013.1_src/data/scripts/dock_solv.prm

>  <Rbt.Receptor>
prm/pocket_docking_3.prm

>  <SCORE>
-17.247

>  <SCORE.INTER>
-17.2404

>  <SCORE.INTER.CONST>
1

>  <SCORE.INTER.POLAR>
0

>  <SCORE.INTER.ROT>
1

>  <SCORE.INTER.SOLV>
22.3827

>  <SCORE.INTER.VDW>
-23.2212

>  <SCORE.INTER.norm>
-1.32618

>  <SCORE.INTRA>
-0.00656997

>  <SCORE.INTRA.DIHEDRAL>
-0.00601088

>  <SCORE.INTRA.DIHEDRAL.0>
1.65305

>  <SCORE.INTRA.POLAR>
0

>  <SCORE.INTRA.POLAR.0>
0

>  <SCORE.INTRA.REPUL>
0

>  <SCORE.INTRA.REPUL.0>
0

>  <SCORE.INTRA.SOLV>
-0.00052623

>  <SCORE.INTRA.SOLV.lig_0>
-46.9527

>  <SCORE.INTRA.VDW>
-0.00330142

>  <SCORE.INTRA.VDW.0>
-0.177978

>  <SCORE.INTRA.norm>
-0.000505383

>  <SCORE.RESTR>
0

>  <SCORE.RESTR.CAVITY>
0

>  <SCORE.RESTR.norm>
0

>  <SCORE.SYSTEM>
0

>  <SCORE.SYSTEM.CONST>
0

>  <SCORE.SYSTEM.DIHEDRAL>
0

>  <SCORE.SYSTEM.SOLV>
0

>  <SCORE.SYSTEM.norm>
0

>  <SCORE.heavy>
13

>  <SCORE.norm>
-1.32669

>  <RMSD>
0.774

$$$$
ligand
 OpenBabel02271912143D
libRbt.so/2013.1/901 2013/11/27
 13 14  0  0  0  0  0  0  0  0999 V2000
   33.9754   33.7020   22.7644 N   0  0  0  0  0  0  0  0  0  0  0  0
   33.1578   32.6655   23.2507 C   0  0  0  0  0  0  0  0  0  0  0  0
   32.0854   32.2934   22.4510 N   0  0  0  0  0  0  0  0  0  0  0  0
   33.3104   32.0286   24.4368 N   0  0  0  0  0  0  0  0  0  0  0  0
   34.4001   32.5137   25.1536 C   0  0  0  0  0  0  0  0  0  0  0  0
   35.2754   33.5268   24.7438 C   0  0  0  0  0  0  0  0  0  0  0  0
   35.0953   34.1768   23.5141 C   0  0  0  0  0  0  0  0  0  0  0  0
   35.7758   35.0815   23.0535 O   0  0  0  0  0  0  0  0  0  0  0  0
   36.2487   33.7270   25.7495 C   0  0  0  0  0  0  0  0  0  0  0  0
   35.9579   32.8245   26.7607 C   0  0  0  0  0  0  0  0  0  0  0  0
   34.8163   32.0676   26.3946 N   0  0  0  0  0  0  0  0  0  0  0  0
   37.3255   34.7508   25.6645 C   0  0  0  0  0  0  0  0  0  0  0  0
   38.3932   34.4711   26.6373 N   0  0  0  0  0  0  0  0  0  0  0  0
  1  2  1  0  0  0  0
  1  7  1  0  0  0  0
  2  3  1  0  0  0  0
  2  4  2  0  0  0  0
  4  5  1  0  0  0  0
  5  6  2  0  0  0  0
  5 11  1  0  0  0  0
  6  7  1  0  0  0  0
  6  9  1  0  0  0  0
  7  8  2  0  0  0  0
  9 10  2  0  0  0  0
  9 12  1  0  0  0  0
 10 11  1  0  0  0  0
 12 13  1  0  0  0  0
M  END
>  <CHROM.1>
-163.48566714,35.07417536,33.40065463,24.62700183,-2.81570604,0.60298302
2.15517290

>  <Name>
ligand

>  <RI>
0

>  <Rbt.Current_Directory>
/home/itssahil/PROJECTS/Mol_Feturizer/Test_systems_manuscript/rnas/3q50

>  <Rbt.Executable>
rbdock ($Id: //depot/dev/client3/rdock/2013.1/src/exe/rbdock.cxx#4 $)

>  <Rbt.Library>
libRbt.so (2013.1, Build901 2013/11/27)

>  <Rbt.Parameter_File>
/export/apps/rDock/src/rDock_2013.1_src/data/scripts/dock_solv.prm

>  <Rbt.Receptor>
prm/pocket_docking_6.prm

>  <SCORE>
-17.1892

>  <SCORE.INTER>
-17.1669

>  <SCORE.INTER.CONST>
1

>  <SCORE.INTER.POLAR>
0

>  <SCORE.INTER.ROT>
1

>  <SCORE.INTER.SOLV>
22.2999

>  <SCORE.INTER.VDW>
-23.1446

>  <SCORE.INTER.norm>
-1.32053

>  <SCORE.INTRA>
-0.0222541

>  <SCORE.INTRA.DIHEDRAL>
-0.0173383

>  <SCORE.INTRA.DIHEDRAL.0>
1.65305

>  <SCORE.INTRA.POLAR>
0

>  <SCORE.INTRA.POLAR.0>
0

>  <SCORE.INTRA.REPUL>
0

>  <SCORE.INTRA.REPUL.0>
0

>  <SCORE.INTRA.SOLV>
-0.00184196

>  <SCORE.INTRA.SOLV.lig_0>
-46.9527

>  <SCORE.INTRA.VDW>
-0.0126639

>  <SCORE.INTRA.VDW.0>
-0.177978

>  <SCORE.INTRA.norm>
-0.00171185

>  <SCORE.RESTR>
0

>  <SCORE.RESTR.CAVITY>
0

>  <SCORE.RESTR.norm>
0

>  <SCORE.SYSTEM>
0

>  <SCORE.SYSTEM.CONST>
0

>  <SCORE.SYSTEM.DIHEDRAL>
0

>  <SCORE.SYSTEM.SOLV>
0

>  <SCORE.SYSTEM.norm>
0

>  <SCORE.heavy>
13

>  <SCORE.norm>
-1.32224

>  <RMSD>
0.775

$$$$
ligand
 OpenBabel02271912143D
libRbt.so/2013.1/901 2013/11/27
 13 14  0  0  0  0  0  0  0  0999 V2000
   33.9743   33.7034   22.7528 N   0  0  0  0  0  0  0  0  0  0  0  0
   33.1523   32.6764   23.2516 C   0  0  0  0  0  0  0  0  0  0  0  0
   32.0741   32.3042   22.4597 N   0  0  0  0  0  0  0  0  0  0  0  0
   33.3059   32.0489   24.4426 N   0  0  0  0  0  0  0  0  0  0  0  0
   34.4017   32.5332   25.1505 C   0  0  0  0  0  0  0  0  0  0  0  0
   35.2817   33.5372   24.7283 C   0  0  0  0  0  0  0  0  0  0  0  0
   35.1004   34.1775   23.4936 C   0  0  0  0  0  0  0  0  0  0  0  0
   35.7847   35.0739   23.0223 O   0  0  0  0  0  0  0  0  0  0  0  0
   36.2605   33.7399   25.7280 C   0  0  0  0  0  0  0  0  0  0  0  0
   35.9683   32.8480   26.7482 C   0  0  0  0  0  0  0  0  0  0  0  0
   34.8203   32.0953   26.3936 N   0  0  0  0  0  0  0  0  0  0  0  0
   37.3434   34.7560   25.6296 C   0  0  0  0  0  0  0  0  0  0  0  0
   38.4877   34.3869   26.4774 N   0  0  0  0  0  0  0  0  0  0  0  0
  1  2  1  0  0  0  0
  1  7  1  0  0  0  0
  2  3  1  0  0  0  0
  2  4  2  0  0  0  0
  4  5  1  0  0  0  0
  5  6  2  0  0  0  0
  5 11  1  0  0  0  0
  6  7  1  0  0  0  0
  6  9  1  0  0  0  0
  7  8  2  0  0  0  0
  9 10  2  0  0  0  0
  9 12  1  0  0  0  0
 10 11  1  0  0  0  0
 12 13  1  0  0  0  0
M  END
>  <CHROM.1>
-156.39748399,35.08519699,33.40385286,24.60337845,-2.82147339,0.58377227
2.14808421

>  <Name>
ligand

>  <RI>
0

>  <Rbt.Current_Directory>
/home/itssahil/PROJECTS/Mol_Feturizer/Test_systems_manuscript/rnas/3q50

>  <Rbt.Executable>
rbdock ($Id: //depot/dev/client3/rdock/2013.1/src/exe/rbdock.cxx#4 $)

>  <Rbt.Library>
libRbt.so (2013.1, Build901 2013/11/27)

>  <Rbt.Parameter_File>
/export/apps/rDock/src/rDock_2013.1_src/data/scripts/dock_solv.prm

>  <Rbt.Receptor>
prm/pocket_docking_2.prm

>  <SCORE>
-17.3118

>  <SCORE.INTER>
-17.2676

>  <SCORE.INTER.CONST>
1

>  <SCORE.INTER.POLAR>
0

>  <SCORE.INTER.ROT>
1

>  <SCORE.INTER.SOLV>
22.4453

>  <SCORE.INTER.VDW>
-23.2602

>  <SCORE.INTER.norm>
-1.32828

>  <SCORE.INTRA>
-0.0441781

>  <SCORE.INTRA.DIHEDRAL>
-0.0271118

>  <SCORE.INTRA.DIHEDRAL.0>
1.65305

>  <SCORE.INTRA.POLAR>
0

>  <SCORE.INTRA.POLAR.0>
0

>  <SCORE.INTRA.REPUL>
0

>  <SCORE.INTRA.REPUL.0>
0

>  <SCORE.INTRA.SOLV>
-0.00385928

>  <SCORE.INTRA.SOLV.lig_0>
-46.9527

>  <SCORE.INTRA.VDW>
-0.0286926

>  <SCORE.INTRA.VDW.0>
-0.177978

>  <SCORE.INTRA.norm>
-0.00339832

>  <SCORE.RESTR>
0

>  <SCORE.RESTR.CAVITY>
0

>  <SCORE.RESTR.norm>
0

>  <SCORE.SYSTEM>
0

>  <SCORE.SYSTEM.CONST>
0

>  <SCORE.SYSTEM.DIHEDRAL>
0

>  <SCORE.SYSTEM.SOLV>
0

>  <SCORE.SYSTEM.norm>
0

>  <SCORE.heavy>
13

>  <SCORE.norm>
-1.33168

>  <RMSD>
0.776

$$$$
ligand
 OpenBabel02271912143D
libRbt.so/2013.1/901 2013/11/27
 13 14  0  0  0  0  0  0  0  0999 V2000
   33.9502   33.7077   22.7658 N   0  0  0  0  0  0  0  0  0  0  0  0
   33.1313   32.6770   23.2622 C   0  0  0  0  0  0  0  0  0  0  0  0
   32.0494   32.3092   22.4733 N   0  0  0  0  0  0  0  0  0  0  0  0
   33.2913   32.0420   24.4483 N   0  0  0  0  0  0  0  0  0  0  0  0
   34.3904   32.5225   25.1538 C   0  0  0  0  0  0  0  0  0  0  0  0
   35.2676   33.5297   24.7335 C   0  0  0  0  0  0  0  0  0  0  0  0
   35.0797   34.1778   23.5039 C   0  0  0  0  0  0  0  0  0  0  0  0
   35.7611   35.0776   23.0349 O   0  0  0  0  0  0  0  0  0  0  0  0
   36.2513   33.7267   25.7296 C   0  0  0  0  0  0  0  0  0  0  0  0
   35.9648   32.8281   26.7455 C   0  0  0  0  0  0  0  0  0  0  0  0
   34.8155   32.0770   26.3919 N   0  0  0  0  0  0  0  0  0  0  0  0
   37.3331   34.7441   25.6322 C   0  0  0  0  0  0  0  0  0  0  0  0
   38.3499   34.5300   26.6736 N   0  0  0  0  0  0  0  0  0  0  0  0
  1  2  1  0  0  0  0
  1  7  1  0  0  0  0
  2  3  1  0  0  0  0
  2  4  2  0  0  0  0
  4  5  1  0  0  0  0
  5  6  2  0  0  0  0
  5 11  1  0  0  0  0
  6  7  1  0  0  0  0
  6  9  1  0  0  0  0
  7  8  2  0  0  0  0
  9 10  2  0  0  0  0
  9 12  1  0  0  0  0
 10 11  1  0  0  0  0
 12 13  1  0  0  0  0
M  END
>  <CHROM.1>
-168.46893330,35.05983398,33.41007392,24.62516995,-2.81797091,0.60142321
2.15442378

>  <Name>
ligand

>  <RI>
0

>  <Rbt.Current_Directory>
/home/itssahil/PROJECTS/Mol_Feturizer/Test_systems_manuscript/rnas/3q50

>  <Rbt.Executable>
rbdock ($Id: //depot/dev/client3/rdock/2013.1/src/exe/rbdock.cxx#4 $)

>  <Rbt.Library>
libRbt.so (2013.1, Build901 2013/11/27)

>  <Rbt.Parameter_File>
/export/apps/rDock/src/rDock_2013.1_src/data/scripts/dock_solv.prm

>  <Rbt.Receptor>
prm/pocket_docking_8.prm

>  <SCORE>
-17.2619

>  <SCORE.INTER>
-17.2545

>  <SCORE.INTER.CONST>
1

>  <SCORE.INTER.POLAR>
0

>  <SCORE.INTER.ROT>
1

>  <SCORE.INTER.SOLV>
22.3985

>  <SCORE.INTER.VDW>
-23.2358

>  <SCORE.INTER.norm>
-1.32727

>  <SCORE.INTRA>
-0.00743677

>  <SCORE.INTRA.DIHEDRAL>
-0.00674233

>  <SCORE.INTRA.DIHEDRAL.0>
1.65305

>  <SCORE.INTRA.POLAR>
0

>  <SCORE.INTRA.POLAR.0>
0

>  <SCORE.INTRA.REPUL>
0

>  <SCORE.INTRA.REPUL.0>
0

>  <SCORE.INTRA.SOLV>
-0.000596658

>  <SCORE.INTRA.SOLV.lig_0>
-46.9527

>  <SCORE.INTRA.VDW>
-0.00376728

>  <SCORE.INTRA.VDW.0>
-0.177978

>  <SCORE.INTRA.norm>
-0.000572059

>  <SCORE.RESTR>
0

>  <SCORE.RESTR.CAVITY>
0

>  <SCORE.RESTR.norm>
0

>  <SCORE.SYSTEM>
0

>  <SCORE.SYSTEM.CONST>
0

>  <SCORE.SYSTEM.DIHEDRAL>
0

>  <SCORE.SYSTEM.SOLV>
0

>  <SCORE.SYSTEM.norm>
0

>  <SCORE.heavy>
13

>  <SCORE.norm>
-1.32784

>  <RMSD>
0.776

$$$$
ligand
 OpenBabel02271912143D
libRbt.so/2013.1/901 2013/11/27
 13 14  0  0  0  0  0  0  0  0999 V2000
   33.9695   33.6949   22.7408 N   0  0  0  0  0  0  0  0  0  0  0  0
   33.1549   32.6584   23.2322 C   0  0  0  0  0  0  0  0  0  0  0  0
   32.0801   32.2833   22.4371 N   0  0  0  0  0  0  0  0  0  0  0  0
   33.3126   32.0241   24.4190 N   0  0  0  0  0  0  0  0  0  0  0  0
   34.4043   32.5120   25.1309 C   0  0  0  0  0  0  0  0  0  0  0  0
   35.2769   33.5254   24.7159 C   0  0  0  0  0  0  0  0  0  0  0  0
   35.0915   34.1726   23.4854 C   0  0  0  0  0  0  0  0  0  0  0  0
   35.7693   35.0772   23.0205 O   0  0  0  0  0  0  0  0  0  0  0  0
   36.2535   33.7288   25.7176 C   0  0  0  0  0  0  0  0  0  0  0  0
   35.9675   32.8280   26.7317 C   0  0  0  0  0  0  0  0  0  0  0  0
   34.8255   32.0690   26.3713 N   0  0  0  0  0  0  0  0  0  0  0  0
   37.3287   34.7537   25.6267 C   0  0  0  0  0  0  0  0  0  0  0  0
   38.3480   34.5384   26.6654 N   0  0  0  0  0  0  0  0  0  0  0  0
  1  2  1  0  0  0  0
  1  7  1  0  0  0  0
  2  3  1  0  0  0  0
  2  4  2  0  0  0  0
  4  5  1  0  0  0  0
  5  6  2  0  0  0  0
  5 11  1  0  0  0  0
  6  7  1  0  0  0  0
  6  9  1  0  0  0  0
  7  8  2  0  0  0  0
  9 10  2  0  0  0  0
  9 12  1  0  0  0  0
 10 11  1  0  0  0  0
 12 13  1  0  0  0  0
M  END
>  <CHROM.1>
-167.90795228,35.07112500,33.40367533,24.60567590,-2.81720108,0.60939779
2.15428952

>  <Name>
ligand

>  <RI>
0

>  <Rbt.Current_Directory>
/home/itssahil/PROJECTS/Mol_Feturizer/Test_systems_manuscript/rnas/3q50

>  <Rbt.Executable>
rbdock ($Id: //depot/dev/client3/rdock/2013.1/src/exe/rbdock.cxx#4 $)

>  <Rbt.Library>
libRbt.so (2013.1, Build901 2013/11/27)

>  <Rbt.Parameter_File>
/export/apps/rDock/src/rDock_2013.1_src/data/scripts/dock_solv.prm

>  <Rbt.Receptor>
prm/pocket_docking_5.prm

>  <SCORE>
-17.2136

>  <SCORE.INTER>
-17.2045

>  <SCORE.INTER.CONST>
1

>  <SCORE.INTER.POLAR>
0

>  <SCORE.INTER.ROT>
1

>  <SCORE.INTER.SOLV>
22.3645

>  <SCORE.INTER.VDW>
-23.1912

>  <SCORE.INTER.norm>
-1.32343

>  <SCORE.INTRA>
-0.00904467

>  <SCORE.INTRA.DIHEDRAL>
-0.00806392

>  <SCORE.INTRA.DIHEDRAL.0>
1.65305

>  <SCORE.INTRA.POLAR>
0

>  <SCORE.INTRA.POLAR.0>
0

>  <SCORE.INTRA.REPUL>
0

>  <SCORE.INTRA.REPUL.0>
0

>  <SCORE.INTRA.SOLV>
-0.000727957

>  <SCORE.INTRA.SOLV.lig_0>
-46.9527

>  <SCORE.INTRA.VDW>
-0.00464873

>  <SCORE.INTRA.VDW.0>
-0.177978

>  <SCORE.INTRA.norm>
-0.000695744

>  <SCORE.RESTR>
0

>  <SCORE.RESTR.CAVITY>
0

>  <SCORE.RESTR.norm>
0

>  <SCORE.SYSTEM>
0

>  <SCORE.SYSTEM.CONST>
0

>  <SCORE.SYSTEM.DIHEDRAL>
0

>  <SCORE.SYSTEM.SOLV>
0

>  <SCORE.SYSTEM.norm>
0

>  <SCORE.heavy>
13

>  <SCORE.norm>
-1.32412

>  <RMSD>
0.778

$$$$
ligand
 OpenBabel02271912143D
libRbt.so/2013.1/901 2013/11/27
 13 14  0  0  0  0  0  0  0  0999 V2000
   33.9650   33.7044   22.7571 N   0  0  0  0  0  0  0  0  0  0  0  0
   33.1455   32.6725   23.2499 C   0  0  0  0  0  0  0  0  0  0  0  0
   32.0667   32.3041   22.4571 N   0  0  0  0  0  0  0  0  0  0  0  0
   33.3022   32.0367   24.4361 N   0  0  0  0  0  0  0  0  0  0  0  0
   34.3983   32.5179   25.1457 C   0  0  0  0  0  0  0  0  0  0  0  0
   35.2758   33.5264   24.7292 C   0  0  0  0  0  0  0  0  0  0  0  0
   35.0914   34.1752   23.4994 C   0  0  0  0  0  0  0  0  0  0  0  0
   35.7734   35.0761   23.0334 O   0  0  0  0  0  0  0  0  0  0  0  0
   36.2559   33.7237   25.7288 C   0  0  0  0  0  0  0  0  0  0  0  0
   35.9669   32.8241   26.7431 C   0  0  0  0  0  0  0  0  0  0  0  0
   34.8197   32.0719   26.3849 N   0  0  0  0  0  0  0  0  0  0  0  0
   37.3369   34.7423   25.6358 C   0  0  0  0  0  0  0  0  0  0  0  0
   38.4367   34.4261   26.5604 N   0  0  0  0  0  0  0  0  0  0  0  0
  1  2  1  0  0  0  0
  1  7  1  0  0  0  0
  2  3  1  0  0  0  0
  2  4  2  0  0  0  0
  4  5  1  0  0  0  0
  5  6  2  0  0  0  0
  5 11  1  0  0  0  0
  6  7  1  0  0  0  0
  6  9  1  0  0  0  0
  7  8  2  0  0  0  0
  9 10  2  0  0  0  0
  9 12  1  0  0  0  0
 10 11  1  0  0  0  0
 12 13  1  0  0  0  0
M  END
>  <CHROM.1>
-160.96267141,35.07557154,33.39825797,24.61028316,-2.82047673,0.59173703
2.15585582

>  <Name>
ligand

>  <RI>
0

>  <Rbt.Current_Directory>
/home/itssahil/PROJECTS/Mol_Feturizer/Test_systems_manuscript/rnas/3q50

>  <Rbt.Executable>
rbdock ($Id: //depot/dev/client3/rdock/2013.1/src/exe/rbdock.cxx#4 $)

>  <Rbt.Library>
libRbt.so (2013.1, Build901 2013/11/27)

>  <Rbt.Parameter_File>
/export/apps/rDock/src/rDock_2013.1_src/data/scripts/dock_solv.prm

>  <Rbt.Receptor>
prm/pocket_docking_2.prm

>  <SCORE>
-17.2767

>  <SCORE.INTER>
-17.2466

>  <SCORE.INTER.CONST>
1

>  <SCORE.INTER.POLAR>
0

>  <SCORE.INTER.ROT>
1

>  <SCORE.INTER.SOLV>
22.3813

>  <SCORE.INTER.VDW>
-23.2249

>  <SCORE.INTER.norm>
-1.32666

>  <SCORE.INTRA>
-0.0300495

>  <SCORE.INTRA.DIHEDRAL>
-0.0215973

>  <SCORE.INTRA.DIHEDRAL.0>
1.65305

>  <SCORE.INTRA.POLAR>
0

>  <SCORE.INTRA.POLAR.0>
0

>  <SCORE.INTRA.REPUL>
0

>  <SCORE.INTRA.REPUL.0>
0

>  <SCORE.INTRA.SOLV>
-0.00253264

>  <SCORE.INTRA.SOLV.lig_0>
-46.9527

>  <SCORE.INTRA.VDW>
-0.0179845

>  <SCORE.INTRA.VDW.0>
-0.177978

>  <SCORE.INTRA.norm>
-0.0023115

>  <SCORE.RESTR>
0

>  <SCORE.RESTR.CAVITY>
0

>  <SCORE.RESTR.norm>
0

>  <SCORE.SYSTEM>
0

>  <SCORE.SYSTEM.CONST>
0

>  <SCORE.SYSTEM.DIHEDRAL>
0

>  <SCORE.SYSTEM.SOLV>
0

>  <SCORE.SYSTEM.norm>
0

>  <SCORE.heavy>
13

>  <SCORE.norm>
-1.32897

>  <RMSD>
0.781

$$$$
ligand
 OpenBabel02271912143D
libRbt.so/2013.1/901 2013/11/27
 13 14  0  0  0  0  0  0  0  0999 V2000
   33.9764   33.6927   22.7352 N   0  0  0  0  0  0  0  0  0  0  0  0
   33.1586   32.6584   23.2258 C   0  0  0  0  0  0  0  0  0  0  0  0
   32.0844   32.2852   22.4291 N   0  0  0  0  0  0  0  0  0  0  0  0
   33.3128   32.0244   24.4133 N   0  0  0  0  0  0  0  0  0  0  0  0
   34.4043   32.5103   25.1268 C   0  0  0  0  0  0  0  0  0  0  0  0
   35.2799   33.5215   24.7128 C   0  0  0  0  0  0  0  0  0  0  0  0
   35.0981   34.1683   23.4816 C   0  0  0  0  0  0  0  0  0  0  0  0
   35.7788   35.0712   23.0173 O   0  0  0  0  0  0  0  0  0  0  0  0
   36.2552   33.7233   25.7161 C   0  0  0  0  0  0  0  0  0  0  0  0
   35.9653   32.8237   26.7302 C   0  0  0  0  0  0  0  0  0  0  0  0
   34.8223   32.0671   26.3682 N   0  0  0  0  0  0  0  0  0  0  0  0
   37.3329   34.7457   25.6264 C   0  0  0  0  0  0  0  0  0  0  0  0
   38.3468   34.5322   26.6709 N   0  0  0  0  0  0  0  0  0  0  0  0
  1  2  1  0  0  0  0
  1  7  1  0  0  0  0
  2  3  1  0  0  0  0
  2  4  2  0  0  0  0
  4  5  1  0  0  0  0
  5  6  2  0  0  0  0
  5 11  1  0  0  0  0
  6  7  1  0  0  0  0
  6  9  1  0  0  0  0
  7  8  2  0  0  0  0
  9 10  2  0  0  0  0
  9 12  1  0  0  0  0
 10 11  1  0  0  0  0
 12 13  1  0  0  0  0
M  END
>  <CHROM.1>
-168.15792196,35.07379294,33.40044678,24.60256242,-2.81373436,0.60890415
2.15170802

>  <Name>
ligand

>  <RI>
0

>  <Rbt.Current_Directory>
/home/itssahil/PROJECTS/Mol_Feturizer/Test_systems_manuscript/rnas/3q50

>  <Rbt.Executable>
rbdock ($Id: //depot/dev/client3/rdock/2013.1/src/exe/rbdock.cxx#4 $)

>  <Rbt.Library>
libRbt.so (2013.1, Build901 2013/11/27)

>  <Rbt.Parameter_File>
/export/apps/rDock/src/rDock_2013.1_src/data/scripts/dock_solv.prm

>  <Rbt.Receptor>
prm/pocket_docking_3.prm

>  <SCORE>
-17.2243

>  <SCORE.INTER>
-17.216

>  <SCORE.INTER.CONST>
1

>  <SCORE.INTER.POLAR>
0

>  <SCORE.INTER.ROT>
1

>  <SCORE.INTER.SOLV>
22.3522

>  <SCORE.INTER.VDW>
-23.1947

>  <SCORE.INTER.norm>
-1.32431

>  <SCORE.INTRA>
-0.00832586

>  <SCORE.INTRA.DIHEDRAL>
-0.00747869

>  <SCORE.INTRA.DIHEDRAL.0>
1.65305

>  <SCORE.INTRA.POLAR>
0

>  <SCORE.INTRA.POLAR.0>
0

>  <SCORE.INTRA.REPUL>
0

>  <SCORE.INTRA.REPUL.0>
0

>  <SCORE.INTRA.SOLV>
-0.000669153

>  <SCORE.INTRA.SOLV.lig_0>
-46.9527

>  <SCORE.INTRA.VDW>
-0.00425193

>  <SCORE.INTRA.VDW.0>
-0.177978

>  <SCORE.INTRA.norm>
-0.000640451

>  <SCORE.RESTR>
0

>  <SCORE.RESTR.CAVITY>
0

>  <SCORE.RESTR.norm>
0

>  <SCORE.SYSTEM>
0

>  <SCORE.SYSTEM.CONST>
0

>  <SCORE.SYSTEM.DIHEDRAL>
0

>  <SCORE.SYSTEM.SOLV>
0

>  <SCORE.SYSTEM.norm>
0

>  <SCORE.heavy>
13

>  <SCORE.norm>
-1.32495

>  <RMSD>
0.781

$$$$
ligand
 OpenBabel02271912143D
libRbt.so/2013.1/901 2013/11/27
 13 14  0  0  0  0  0  0  0  0999 V2000
   33.9714   33.7043   22.7552 N   0  0  0  0  0  0  0  0  0  0  0  0
   33.1552   32.6669   23.2418 C   0  0  0  0  0  0  0  0  0  0  0  0
   32.0807   32.2962   22.4442 N   0  0  0  0  0  0  0  0  0  0  0  0
   33.3110   32.0278   24.4263 N   0  0  0  0  0  0  0  0  0  0  0  0
   34.4025   32.5116   25.1411 C   0  0  0  0  0  0  0  0  0  0  0  0
   35.2767   33.5256   24.7309 C   0  0  0  0  0  0  0  0  0  0  0  0
   35.0933   34.1778   23.5028 C   0  0  0  0  0  0  0  0  0  0  0  0
   35.7725   35.0835   23.0421 O   0  0  0  0  0  0  0  0  0  0  0  0
   36.2526   33.7240   25.7344 C   0  0  0  0  0  0  0  0  0  0  0  0
   35.9646   32.8194   26.7446 C   0  0  0  0  0  0  0  0  0  0  0  0
   34.8221   32.0632   26.3801 N   0  0  0  0  0  0  0  0  0  0  0  0
   37.3291   34.7479   25.6485 C   0  0  0  0  0  0  0  0  0  0  0  0
   38.4339   34.4258   26.5650 N   0  0  0  0  0  0  0  0  0  0  0  0
  1  2  1  0  0  0  0
  1  7  1  0  0  0  0
  2  3  1  0  0  0  0
  2  4  2  0  0  0  0
  4  5  1  0  0  0  0
  5  6  2  0  0  0  0
  5 11  1  0  0  0  0
  6  7  1  0  0  0  0
  6  9  1  0  0  0  0
  7  8  2  0  0  0  0
  9 10  2  0  0  0  0
  9 12  1  0  0  0  0
 10 11  1  0  0  0  0
 12 13  1  0  0  0  0
M  END
>  <CHROM.1>
-160.35495499,35.07797844,33.39628956,24.61006708,-2.82082798,0.59641802
2.15940813

>  <Name>
ligand

>  <RI>
0

>  <Rbt.Current_Directory>
/home/itssahil/PROJECTS/Mol_Feturizer/Test_systems_manuscript/rnas/3q50

>  <Rbt.Executable>
rbdock ($Id: //depot/dev/client3/rdock/2013.1/src/exe/rbdock.cxx#4 $)

>  <Rbt.Library>
libRbt.so (2013.1, Build901 2013/11/27)

>  <Rbt.Parameter_File>
/export/apps/rDock/src/rDock_2013.1_src/data/scripts/dock_solv.prm

>  <Rbt.Receptor>
prm/pocket_docking_6.prm

>  <SCORE>
-17.205

>  <SCORE.INTER>
-17.173

>  <SCORE.INTER.CONST>
1

>  <SCORE.INTER.POLAR>
0

>  <SCORE.INTER.ROT>
1

>  <SCORE.INTER.SOLV>
22.3492

>  <SCORE.INTER.VDW>
-23.1651

>  <SCORE.INTER.norm>
-1.321

>  <SCORE.INTRA>
-0.0319375

>  <SCORE.INTRA.DIHEDRAL>
-0.0224992

>  <SCORE.INTRA.DIHEDRAL.0>
1.65305

>  <SCORE.INTRA.POLAR>
0

>  <SCORE.INTRA.POLAR.0>
0

>  <SCORE.INTRA.REPUL>
0

>  <SCORE.INTRA.REPUL.0>
0

>  <SCORE.INTRA.SOLV>
-0.00270407

>  <SCORE.INTRA.SOLV.lig_0>
-46.9527

>  <SCORE.INTRA.VDW>
-0.0193358

>  <SCORE.INTRA.VDW.0>
-0.177978

>  <SCORE.INTRA.norm>
-0.00245673

>  <SCORE.RESTR>
0

>  <SCORE.RESTR.CAVITY>
0

>  <SCORE.RESTR.norm>
0

>  <SCORE.SYSTEM>
0

>  <SCORE.SYSTEM.CONST>
0

>  <SCORE.SYSTEM.DIHEDRAL>
0

>  <SCORE.SYSTEM.SOLV>
0

>  <SCORE.SYSTEM.norm>
0

>  <SCORE.heavy>
13

>  <SCORE.norm>
-1.32346

>  <RMSD>
0.781

$$$$
ligand
 OpenBabel02271912143D
libRbt.so/2013.1/901 2013/11/27
 13 14  0  0  0  0  0  0  0  0999 V2000
   34.8423   34.1777   23.2809 N   0  0  0  0  0  0  0  0  0  0  0  0
   33.9088   33.1802   23.6167 C   0  0  0  0  0  0  0  0  0  0  0  0
   32.8906   32.9492   22.7012 N   0  0  0  0  0  0  0  0  0  0  0  0
   33.9033   32.4558   24.7616 N   0  0  0  0  0  0  0  0  0  0  0  0
   34.9547   32.8033   25.6044 C   0  0  0  0  0  0  0  0  0  0  0  0
   35.9368   33.7679   25.3481 C   0  0  0  0  0  0  0  0  0  0  0  0
   35.9199   34.5104   24.1582 C   0  0  0  0  0  0  0  0  0  0  0  0
   36.7052   35.3862   23.8264 O   0  0  0  0  0  0  0  0  0  0  0  0
   36.8247   33.8222   26.4468 C   0  0  0  0  0  0  0  0  0  0  0  0
   36.3755   32.8808   27.3598 C   0  0  0  0  0  0  0  0  0  0  0  0
   35.2199   32.2439   26.8410 N   0  0  0  0  0  0  0  0  0  0  0  0
   37.9774   34.7597   26.5315 C   0  0  0  0  0  0  0  0  0  0  0  0
   39.1090   34.1374   27.2364 N   0  0  0  0  0  0  0  0  0  0  0  0
  1  2  1  0  0  0  0
  1  7  1  0  0  0  0
  2  3  1  0  0  0  0
  2  4  2  0  0  0  0
  4  5  1  0  0  0  0
  5  6  2  0  0  0  0
  5 11  1  0  0  0  0
  6  7  1  0  0  0  0
  6  9  1  0  0  0  0
  7  8  2  0  0  0  0
  9 10  2  0  0  0  0
  9 12  1  0  0  0  0
 10 11  1  0  0  0  0
 12 13  1  0  0  0  0
M  END
>  <CHROM.1>
-145.60565400,35.75324563,33.65053062,25.17797197,-2.69190700,0.56000288
2.15189946

>  <Name>
ligand

>  <RI>
0

>  <Rbt.Current_Directory>
/home/itssahil/PROJECTS/Mol_Feturizer/Test_systems_manuscript/rnas/3q50

>  <Rbt.Executable>
rbdock ($Id: //depot/dev/client3/rdock/2013.1/src/exe/rbdock.cxx#4 $)

>  <Rbt.Library>
libRbt.so (2013.1, Build901 2013/11/27)

>  <Rbt.Parameter_File>
/export/apps/rDock/src/rDock_2013.1_src/data/scripts/dock_solv.prm

>  <Rbt.Receptor>
prm/pocket_docking_7.prm

>  <SCORE>
-16.922

>  <SCORE.INTER>
-16.8474

>  <SCORE.INTER.CONST>
1

>  <SCORE.INTER.POLAR>
0

>  <SCORE.INTER.ROT>
1

>  <SCORE.INTER.SOLV>
18.738

>  <SCORE.INTER.VDW>
-21.7443

>  <SCORE.INTER.norm>
-1.29595

>  <SCORE.INTRA>
-0.074636

>  <SCORE.INTRA.DIHEDRAL>
-0.0277033

>  <SCORE.INTRA.DIHEDRAL.0>
1.65305

>  <SCORE.INTRA.POLAR>
0

>  <SCORE.INTRA.POLAR.0>
0

>  <SCORE.INTRA.REPUL>
0

>  <SCORE.INTRA.REPUL.0>
0

>  <SCORE.INTRA.SOLV>
-0.00715091

>  <SCORE.INTRA.SOLV.lig_0>
-46.9527

>  <SCORE.INTRA.VDW>
-0.0572089

>  <SCORE.INTRA.VDW.0>
-0.177978

>  <SCORE.INTRA.norm>
-0.00574123

>  <SCORE.RESTR>
0

>  <SCORE.RESTR.CAVITY>
0

>  <SCORE.RESTR.norm>
0

>  <SCORE.SYSTEM>
0

>  <SCORE.SYSTEM.CONST>
0

>  <SCORE.SYSTEM.DIHEDRAL>
0

>  <SCORE.SYSTEM.SOLV>
0

>  <SCORE.SYSTEM.norm>
0

>  <SCORE.heavy>
13

>  <SCORE.norm>
-1.3017

>  <RMSD>
0.781

$$$$
ligand
 OpenBabel02271912143D
libRbt.so/2013.1/901 2013/11/27
 13 14  0  0  0  0  0  0  0  0999 V2000
   33.9578   33.7091   22.7646 N   0  0  0  0  0  0  0  0  0  0  0  0
   33.1352   32.6808   23.2599 C   0  0  0  0  0  0  0  0  0  0  0  0
   32.0528   32.3168   22.4700 N   0  0  0  0  0  0  0  0  0  0  0  0
   33.2923   32.0448   24.4459 N   0  0  0  0  0  0  0  0  0  0  0  0
   34.3923   32.5215   25.1524 C   0  0  0  0  0  0  0  0  0  0  0  0
   35.2731   33.5260   24.7332 C   0  0  0  0  0  0  0  0  0  0  0  0
   35.0883   34.1752   23.5038 C   0  0  0  0  0  0  0  0  0  0  0  0
   35.7729   35.0730   23.0357 O   0  0  0  0  0  0  0  0  0  0  0  0
   36.2567   33.7194   25.7302 C   0  0  0  0  0  0  0  0  0  0  0  0
   35.9665   32.8213   26.7455 C   0  0  0  0  0  0  0  0  0  0  0  0
   34.8151   32.0740   26.3907 N   0  0  0  0  0  0  0  0  0  0  0  0
   37.3418   34.7333   25.6341 C   0  0  0  0  0  0  0  0  0  0  0  0
   38.4181   34.4424   26.5939 N   0  0  0  0  0  0  0  0  0  0  0  0
  1  2  1  0  0  0  0
  1  7  1  0  0  0  0
  2  3  1  0  0  0  0
  2  4  2  0  0  0  0
  4  5  1  0  0  0  0
  5  6  2  0  0  0  0
  5 11  1  0  0  0  0
  6  7  1  0  0  0  0
  6  9  1  0  0  0  0
  7  8  2  0  0  0  0
  9 10  2  0  0  0  0
  9 12  1  0  0  0  0
 10 11  1  0  0  0  0
 12 13  1  0  0  0  0
M  END
>  <CHROM.1>
-163.22145455,35.07000241,33.40112731,24.61802362,-2.81855500,0.59040293
2.15484327

>  <Name>
ligand

>  <RI>
0

>  <Rbt.Current_Directory>
/home/itssahil/PROJECTS/Mol_Feturizer/Test_systems_manuscript/rnas/3q50

>  <Rbt.Executable>
rbdock ($Id: //depot/dev/client3/rdock/2013.1/src/exe/rbdock.cxx#4 $)

>  <Rbt.Library>
libRbt.so (2013.1, Build901 2013/11/27)

>  <Rbt.Parameter_File>
/export/apps/rDock/src/rDock_2013.1_src/data/scripts/dock_solv.prm

>  <Rbt.Receptor>
prm/pocket_docking_8.prm

>  <SCORE>
-17.2737

>  <SCORE.INTER>
-17.2507

>  <SCORE.INTER.CONST>
1

>  <SCORE.INTER.POLAR>
0

>  <SCORE.INTER.ROT>
1

>  <SCORE.INTER.SOLV>
22.3765

>  <SCORE.INTER.VDW>
-23.226

>  <SCORE.INTER.norm>
-1.32697

>  <SCORE.INTRA>
-0.0230651

>  <SCORE.INTRA.DIHEDRAL>
-0.0178219

>  <SCORE.INTRA.DIHEDRAL.0>
1.65305

>  <SCORE.INTRA.POLAR>
0

>  <SCORE.INTRA.POLAR.0>
0

>  <SCORE.INTRA.REPUL>
0

>  <SCORE.INTRA.REPUL.0>
0

>  <SCORE.INTRA.SOLV>
-0.00191258

>  <SCORE.INTRA.SOLV.lig_0>
-46.9527

>  <SCORE.INTRA.VDW>
-0.0131978

>  <SCORE.INTRA.VDW.0>
-0.177978

>  <SCORE.INTRA.norm>
-0.00177424

>  <SCORE.RESTR>
0

>  <SCORE.RESTR.CAVITY>
0

>  <SCORE.RESTR.norm>
0

>  <SCORE.SYSTEM>
0

>  <SCORE.SYSTEM.CONST>
0

>  <SCORE.SYSTEM.DIHEDRAL>
0

>  <SCORE.SYSTEM.SOLV>
0

>  <SCORE.SYSTEM.norm>
0

>  <SCORE.heavy>
13

>  <SCORE.norm>
-1.32875

>  <RMSD>
0.781

$$$$
ligand
 OpenBabel02271912143D
libRbt.so/2013.1/901 2013/11/27
 13 14  0  0  0  0  0  0  0  0999 V2000
   33.9648   33.6871   22.7567 N   0  0  0  0  0  0  0  0  0  0  0  0
   33.1425   32.6631   23.2613 C   0  0  0  0  0  0  0  0  0  0  0  0
   32.0616   32.2900   22.4736 N   0  0  0  0  0  0  0  0  0  0  0  0
   33.2985   32.0394   24.4539 N   0  0  0  0  0  0  0  0  0  0  0  0
   34.3970   32.5244   25.1571 C   0  0  0  0  0  0  0  0  0  0  0  0
   35.2774   33.5255   24.7290 C   0  0  0  0  0  0  0  0  0  0  0  0
   35.0937   34.1620   23.4928 C   0  0  0  0  0  0  0  0  0  0  0  0
   35.7781   35.0557   23.0165 O   0  0  0  0  0  0  0  0  0  0  0  0
   36.2593   33.7301   25.7254 C   0  0  0  0  0  0  0  0  0  0  0  0
   35.9686   32.8421   26.7494 C   0  0  0  0  0  0  0  0  0  0  0  0
   34.8185   32.0900   26.4005 N   0  0  0  0  0  0  0  0  0  0  0  0
   37.3435   34.7442   25.6205 C   0  0  0  0  0  0  0  0  0  0  0  0
   38.4798   34.3885   26.4846 N   0  0  0  0  0  0  0  0  0  0  0  0
  1  2  1  0  0  0  0
  1  7  1  0  0  0  0
  2  3  1  0  0  0  0
  2  4  2  0  0  0  0
  4  5  1  0  0  0  0
  5  6  2  0  0  0  0
  5 11  1  0  0  0  0
  6  7  1  0  0  0  0
  6  9  1  0  0  0  0
  7  8  2  0  0  0  0
  9 10  2  0  0  0  0
  9 12  1  0  0  0  0
 10 11  1  0  0  0  0
 12 13  1  0  0  0  0
M  END
>  <CHROM.1>
-157.40166741,35.07955853,33.39311699,24.60662211,-2.82240454,0.58256783
2.14554864

>  <Name>
ligand

>  <RI>
0

>  <Rbt.Current_Directory>
/home/itssahil/PROJECTS/Mol_Feturizer/Test_systems_manuscript/rnas/3q50

>  <Rbt.Executable>
rbdock ($Id: //depot/dev/client3/rdock/2013.1/src/exe/rbdock.cxx#4 $)

>  <Rbt.Library>
libRbt.so (2013.1, Build901 2013/11/27)

>  <Rbt.Parameter_File>
/export/apps/rDock/src/rDock_2013.1_src/data/scripts/dock_solv.prm

>  <Rbt.Receptor>
prm/pocket_docking_8.prm

>  <SCORE>
-17.2971

>  <SCORE.INTER>
-17.256

>  <SCORE.INTER.CONST>
1

>  <SCORE.INTER.POLAR>
0

>  <SCORE.INTER.ROT>
1

>  <SCORE.INTER.SOLV>
22.468

>  <SCORE.INTER.VDW>
-23.26

>  <SCORE.INTER.norm>
-1.32739

>  <SCORE.INTRA>
-0.041093

>  <SCORE.INTRA.DIHEDRAL>
-0.0261543

>  <SCORE.INTRA.DIHEDRAL.0>
1.65305

>  <SCORE.INTRA.POLAR>
0

>  <SCORE.INTRA.POLAR.0>
0

>  <SCORE.INTRA.REPUL>
0

>  <SCORE.INTRA.REPUL.0>
0

>  <SCORE.INTRA.SOLV>
-0.00356057

>  <SCORE.INTRA.SOLV.lig_0>
-46.9527

>  <SCORE.INTRA.VDW>
-0.0262356

>  <SCORE.INTRA.VDW.0>
-0.177978

>  <SCORE.INTRA.norm>
-0.003161

>  <SCORE.RESTR>
0

>  <SCORE.RESTR.CAVITY>
0

>  <SCORE.RESTR.norm>
0

>  <SCORE.SYSTEM>
0

>  <SCORE.SYSTEM.CONST>
0

>  <SCORE.SYSTEM.DIHEDRAL>
0

>  <SCORE.SYSTEM.SOLV>
0

>  <SCORE.SYSTEM.norm>
0

>  <SCORE.heavy>
13

>  <SCORE.norm>
-1.33055

>  <RMSD>
0.781

$$$$
ligand
 OpenBabel02271912143D
libRbt.so/2013.1/901 2013/11/27
 13 14  0  0  0  0  0  0  0  0999 V2000
   33.9717   33.6960   22.7445 N   0  0  0  0  0  0  0  0  0  0  0  0
   33.1607   32.6539   23.2297 C   0  0  0  0  0  0  0  0  0  0  0  0
   32.0914   32.2750   22.4291 N   0  0  0  0  0  0  0  0  0  0  0  0
   33.3167   32.0174   24.4156 N   0  0  0  0  0  0  0  0  0  0  0  0
   34.4027   32.5094   25.1334 C   0  0  0  0  0  0  0  0  0  0  0  0
   35.2715   33.5285   24.7248 C   0  0  0  0  0  0  0  0  0  0  0  0
   35.0879   34.1779   23.4952 C   0  0  0  0  0  0  0  0  0  0  0  0
   35.7627   35.0874   23.0355 O   0  0  0  0  0  0  0  0  0  0  0  0
   36.2427   33.7347   25.7312 C   0  0  0  0  0  0  0  0  0  0  0  0
   35.9572   32.8297   26.7417 C   0  0  0  0  0  0  0  0  0  0  0  0
   34.8210   32.0654   26.3744 N   0  0  0  0  0  0  0  0  0  0  0  0
   37.3127   34.7657   25.6475 C   0  0  0  0  0  0  0  0  0  0  0  0
   38.4154   34.4534   26.5700 N   0  0  0  0  0  0  0  0  0  0  0  0
  1  2  1  0  0  0  0
  1  7  1  0  0  0  0
  2  3  1  0  0  0  0
  2  4  2  0  0  0  0
  4  5  1  0  0  0  0
  5  6  2  0  0  0  0
  5 11  1  0  0  0  0
  6  7  1  0  0  0  0
  6  9  1  0  0  0  0
  7  8  2  0  0  0  0
  9 10  2  0  0  0  0
  9 12  1  0  0  0  0
 10 11  1  0  0  0  0
 12 13  1  0  0  0  0
M  END
>  <CHROM.1>
-160.45939335,35.07393892,33.39788815,24.60358608,-2.82180313,0.60394265
2.15862726

>  <Name>
ligand

>  <RI>
0

>  <Rbt.Current_Directory>
/home/itssahil/PROJECTS/Mol_Feturizer/Test_systems_manuscript/rnas/3q50

>  <Rbt.Executable>
rbdock ($Id: //depot/dev/client3/rdock/2013.1/src/exe/rbdock.cxx#4 $)

>  <Rbt.Library>
libRbt.so (2013.1, Build901 2013/11/27)

>  <Rbt.Parameter_File>
/export/apps/rDock/src/rDock_2013.1_src/data/scripts/dock_solv.prm

>  <Rbt.Receptor>
prm/pocket_docking_3.prm

>  <SCORE>
-17.1917

>  <SCORE.INTER>
-17.1601

>  <SCORE.INTER.CONST>
1

>  <SCORE.INTER.POLAR>
0

>  <SCORE.INTER.ROT>
1

>  <SCORE.INTER.SOLV>
22.3557

>  <SCORE.INTER.VDW>
-23.1586

>  <SCORE.INTER.norm>
-1.32

>  <SCORE.INTRA>
-0.0316129

>  <SCORE.INTRA.DIHEDRAL>
-0.0223477

>  <SCORE.INTRA.DIHEDRAL.0>
1.65305

>  <SCORE.INTRA.POLAR>
0

>  <SCORE.INTRA.POLAR.0>
0

>  <SCORE.INTRA.REPUL>
0

>  <SCORE.INTRA.REPUL.0>
0

>  <SCORE.INTRA.SOLV>
-0.00267448

>  <SCORE.INTRA.SOLV.lig_0>
-46.9527

>  <SCORE.INTRA.VDW>
-0.0191018

>  <SCORE.INTRA.VDW.0>
-0.177978

>  <SCORE.INTRA.norm>
-0.00243176

>  <SCORE.RESTR>
0

>  <SCORE.RESTR.CAVITY>
0

>  <SCORE.RESTR.norm>
0

>  <SCORE.SYSTEM>
0

>  <SCORE.SYSTEM.CONST>
0

>  <SCORE.SYSTEM.DIHEDRAL>
0

>  <SCORE.SYSTEM.SOLV>
0

>  <SCORE.SYSTEM.norm>
0

>  <SCORE.heavy>
13

>  <SCORE.norm>
-1.32244

>  <RMSD>
0.782

$$$$
ligand
 OpenBabel02271912143D
libRbt.so/2013.1/901 2013/11/27
 13 14  0  0  0  0  0  0  0  0999 V2000
   33.9746   33.6919   22.7523 N   0  0  0  0  0  0  0  0  0  0  0  0
   33.1540   32.6623   23.2480 C   0  0  0  0  0  0  0  0  0  0  0  0
   32.0772   32.2899   22.4544 N   0  0  0  0  0  0  0  0  0  0  0  0
   33.3079   32.0322   24.4376 N   0  0  0  0  0  0  0  0  0  0  0  0
   34.4023   32.5169   25.1475 C   0  0  0  0  0  0  0  0  0  0  0  0
   35.2807   33.5235   24.7283 C   0  0  0  0  0  0  0  0  0  0  0  0
   35.0992   34.1664   23.4951 C   0  0  0  0  0  0  0  0  0  0  0  0
   35.7822   35.0651   23.0264 O   0  0  0  0  0  0  0  0  0  0  0  0
   36.2584   33.7256   25.7293 C   0  0  0  0  0  0  0  0  0  0  0  0
   35.9670   32.8308   26.7472 C   0  0  0  0  0  0  0  0  0  0  0  0
   34.8208   32.0768   26.3899 N   0  0  0  0  0  0  0  0  0  0  0  0
   37.3394   34.7440   25.6341 C   0  0  0  0  0  0  0  0  0  0  0  0
   38.4725   34.3890   26.5028 N   0  0  0  0  0  0  0  0  0  0  0  0
  1  2  1  0  0  0  0
  1  7  1  0  0  0  0
  2  3  1  0  0  0  0
  2  4  2  0  0  0  0
  4  5  1  0  0  0  0
  5  6  2  0  0  0  0
  5 11  1  0  0  0  0
  6  7  1  0  0  0  0
  6  9  1  0  0  0  0
  7  8  2  0  0  0  0
  9 10  2  0  0  0  0
  9 12  1  0  0  0  0
 10 11  1  0  0  0  0
 12 13  1  0  0  0  0
M  END
>  <CHROM.1>
-157.54225100,35.08363233,33.39121693,24.60467525,-2.82094040,0.58758965
2.15051968

>  <Name>
ligand

>  <RI>
0

>  <Rbt.Current_Directory>
/home/itssahil/PROJECTS/Mol_Feturizer/Test_systems_manuscript/rnas/3q50

>  <Rbt.Executable>
rbdock ($Id: //depot/dev/client3/rdock/2013.1/src/exe/rbdock.cxx#4 $)

>  <Rbt.Library>
libRbt.so (2013.1, Build901 2013/11/27)

>  <Rbt.Parameter_File>
/export/apps/rDock/src/rDock_2013.1_src/data/scripts/dock_solv.prm

>  <Rbt.Receptor>
prm/pocket_docking_4.prm

>  <SCORE>
-17.3028

>  <SCORE.INTER>
-17.2621

>  <SCORE.INTER.CONST>
1

>  <SCORE.INTER.POLAR>
0

>  <SCORE.INTER.ROT>
1

>  <SCORE.INTER.SOLV>
22.4133

>  <SCORE.INTER.VDW>
-23.2459

>  <SCORE.INTER.norm>
-1.32786

>  <SCORE.INTRA>
-0.0406595

>  <SCORE.INTRA.DIHEDRAL>
-0.0260084

>  <SCORE.INTRA.DIHEDRAL.0>
1.65305

>  <SCORE.INTRA.POLAR>
0

>  <SCORE.INTRA.POLAR.0>
0

>  <SCORE.INTRA.REPUL>
0

>  <SCORE.INTRA.REPUL.0>
0

>  <SCORE.INTRA.SOLV>
-0.00351902

>  <SCORE.INTRA.SOLV.lig_0>
-46.9527

>  <SCORE.INTRA.VDW>
-0.0258957

>  <SCORE.INTRA.VDW.0>
-0.177978

>  <SCORE.INTRA.norm>
-0.00312765

>  <SCORE.RESTR>
0

>  <SCORE.RESTR.CAVITY>
0

>  <SCORE.RESTR.norm>
0

>  <SCORE.SYSTEM>
0

>  <SCORE.SYSTEM.CONST>
0

>  <SCORE.SYSTEM.DIHEDRAL>
0

>  <SCORE.SYSTEM.SOLV>
0

>  <SCORE.SYSTEM.norm>
0

>  <SCORE.heavy>
13

>  <SCORE.norm>
-1.33098

>  <RMSD>
0.782

$$$$
ligand
 OpenBabel02271912143D
libRbt.so/2013.1/901 2013/11/27
 13 14  0  0  0  0  0  0  0  0999 V2000
   33.9590   33.7076   22.7606 N   0  0  0  0  0  0  0  0  0  0  0  0
   33.1360   32.6802   23.2571 C   0  0  0  0  0  0  0  0  0  0  0  0
   32.0539   32.3151   22.4673 N   0  0  0  0  0  0  0  0  0  0  0  0
   33.2924   32.0460   24.4441 N   0  0  0  0  0  0  0  0  0  0  0  0
   34.3921   32.5237   25.1505 C   0  0  0  0  0  0  0  0  0  0  0  0
   35.2733   33.5275   24.7302 C   0  0  0  0  0  0  0  0  0  0  0  0
   35.0891   34.1748   23.4996 C   0  0  0  0  0  0  0  0  0  0  0  0
   35.7741   35.0718   23.0304 O   0  0  0  0  0  0  0  0  0  0  0  0
   36.2564   33.7223   25.7273 C   0  0  0  0  0  0  0  0  0  0  0  0
   35.9655   32.8259   26.7439 C   0  0  0  0  0  0  0  0  0  0  0  0
   34.8143   32.0781   26.3897 N   0  0  0  0  0  0  0  0  0  0  0  0
   37.3416   34.7360   25.6301 C   0  0  0  0  0  0  0  0  0  0  0  0
   38.4358   34.4242   26.5629 N   0  0  0  0  0  0  0  0  0  0  0  0
  1  2  1  0  0  0  0
  1  7  1  0  0  0  0
  2  3  1  0  0  0  0
  2  4  2  0  0  0  0
  4  5  1  0  0  0  0
  5  6  2  0  0  0  0
  5 11  1  0  0  0  0
  6  7  1  0  0  0  0
  6  9  1  0  0  0  0
  7  8  2  0  0  0  0
  9 10  2  0  0  0  0
  9 12  1  0  0  0  0
 10 11  1  0  0  0  0
 12 13  1  0  0  0  0
M  END
>  <CHROM.1>
-161.54561173,35.07168821,33.40063111,24.61275873,-2.81923769,0.58782019
2.15338346

>  <Name>
ligand

>  <RI>
0

>  <Rbt.Current_Directory>
/home/itssahil/PROJECTS/Mol_Feturizer/Test_systems_manuscript/rnas/3q50

>  <Rbt.Executable>
rbdock ($Id: //depot/dev/client3/rdock/2013.1/src/exe/rbdock.cxx#4 $)

>  <Rbt.Library>
libRbt.so (2013.1, Build901 2013/11/27)

>  <Rbt.Parameter_File>
/export/apps/rDock/src/rDock_2013.1_src/data/scripts/dock_solv.prm

>  <Rbt.Receptor>
prm/pocket_docking_5.prm

>  <SCORE>
-17.2717

>  <SCORE.INTER>
-17.2435

>  <SCORE.INTER.CONST>
1

>  <SCORE.INTER.POLAR>
0

>  <SCORE.INTER.ROT>
1

>  <SCORE.INTER.SOLV>
22.3989

>  <SCORE.INTER.VDW>
-23.2286

>  <SCORE.INTER.norm>
-1.32642

>  <SCORE.INTRA>
-0.0282406

>  <SCORE.INTRA.DIHEDRAL>
-0.0206859

>  <SCORE.INTRA.DIHEDRAL.0>
1.65305

>  <SCORE.INTRA.POLAR>
0

>  <SCORE.INTRA.POLAR.0>
0

>  <SCORE.INTRA.REPUL>
0

>  <SCORE.INTRA.REPUL.0>
0

>  <SCORE.INTRA.SOLV>
-0.00236995

>  <SCORE.INTRA.SOLV.lig_0>
-46.9527

>  <SCORE.INTRA.VDW>
-0.0167127

>  <SCORE.INTRA.VDW.0>
-0.177978

>  <SCORE.INTRA.norm>
-0.00217235

>  <SCORE.RESTR>
0

>  <SCORE.RESTR.CAVITY>
0

>  <SCORE.RESTR.norm>
0

>  <SCORE.SYSTEM>
0

>  <SCORE.SYSTEM.CONST>
0

>  <SCORE.SYSTEM.DIHEDRAL>
0

>  <SCORE.SYSTEM.SOLV>
0

>  <SCORE.SYSTEM.norm>
0

>  <SCORE.heavy>
13

>  <SCORE.norm>
-1.32859

>  <RMSD>
0.782

$$$$
ligand
 OpenBabel02271912143D
libRbt.so/2013.1/901 2013/11/27
 13 14  0  0  0  0  0  0  0  0999 V2000
   33.9681   33.6916   22.7575 N   0  0  0  0  0  0  0  0  0  0  0  0
   33.1434   32.6688   23.2604 C   0  0  0  0  0  0  0  0  0  0  0  0
   32.0617   32.2993   22.4721 N   0  0  0  0  0  0  0  0  0  0  0  0
   33.2977   32.0429   24.4521 N   0  0  0  0  0  0  0  0  0  0  0  0
   34.3973   32.5243   25.1562 C   0  0  0  0  0  0  0  0  0  0  0  0
   35.2801   33.5239   24.7297 C   0  0  0  0  0  0  0  0  0  0  0  0
   35.0981   34.1627   23.4943 C   0  0  0  0  0  0  0  0  0  0  0  0
   35.7846   35.0554   23.0194 O   0  0  0  0  0  0  0  0  0  0  0  0
   36.2624   33.7247   25.7264 C   0  0  0  0  0  0  0  0  0  0  0  0
   35.9694   32.8359   26.7491 C   0  0  0  0  0  0  0  0  0  0  0  0
   34.8176   32.0870   26.3990 N   0  0  0  0  0  0  0  0  0  0  0  0
   37.3490   34.7363   25.6231 C   0  0  0  0  0  0  0  0  0  0  0  0
   38.4784   34.3843   26.4978 N   0  0  0  0  0  0  0  0  0  0  0  0
  1  2  1  0  0  0  0
  1  7  1  0  0  0  0
  2  3  1  0  0  0  0
  2  4  2  0  0  0  0
  4  5  1  0  0  0  0
  5  6  2  0  0  0  0
  5 11  1  0  0  0  0
  6  7  1  0  0  0  0
  6  9  1  0  0  0  0
  7  8  2  0  0  0  0
  9 10  2  0  0  0  0
  9 12  1  0  0  0  0
 10 11  1  0  0  0  0
 12 13  1  0  0  0  0
M  END
>  <CHROM.1>
-158.00725209,35.08148874,33.39277841,24.60795269,-2.82023667,0.58160432
2.14599917

>  <Name>
ligand

>  <RI>
0

>  <Rbt.Current_Directory>
/home/itssahil/PROJECTS/Mol_Feturizer/Test_systems_manuscript/rnas/3q50

>  <Rbt.Executable>
rbdock ($Id: //depot/dev/client3/rdock/2013.1/src/exe/rbdock.cxx#4 $)

>  <Rbt.Library>
libRbt.so (2013.1, Build901 2013/11/27)

>  <Rbt.Parameter_File>
/export/apps/rDock/src/rDock_2013.1_src/data/scripts/dock_solv.prm

>  <Rbt.Receptor>
prm/pocket_docking_6.prm

>  <SCORE>
-17.2993

>  <SCORE.INTER>
-17.2601

>  <SCORE.INTER.CONST>
1

>  <SCORE.INTER.POLAR>
0

>  <SCORE.INTER.ROT>
1

>  <SCORE.INTER.SOLV>
22.4446

>  <SCORE.INTER.VDW>
-23.2549

>  <SCORE.INTER.norm>
-1.3277

>  <SCORE.INTRA>
-0.0392231

>  <SCORE.INTRA.DIHEDRAL>
-0.0255056

>  <SCORE.INTRA.DIHEDRAL.0>
1.65305

>  <SCORE.INTRA.POLAR>
0

>  <SCORE.INTRA.POLAR.0>
0

>  <SCORE.INTRA.REPUL>
0

>  <SCORE.INTRA.REPUL.0>
0

>  <SCORE.INTRA.SOLV>
-0.00338209

>  <SCORE.INTRA.SOLV.lig_0>
-46.9527

>  <SCORE.INTRA.VDW>
-0.0247792

>  <SCORE.INTRA.VDW.0>
-0.177978

>  <SCORE.INTRA.norm>
-0.00301716

>  <SCORE.RESTR>
0

>  <SCORE.RESTR.CAVITY>
0

>  <SCORE.RESTR.norm>
0

>  <SCORE.SYSTEM>
0

>  <SCORE.SYSTEM.CONST>
0

>  <SCORE.SYSTEM.DIHEDRAL>
0

>  <SCORE.SYSTEM.SOLV>
0

>  <SCORE.SYSTEM.norm>
0

>  <SCORE.heavy>
13

>  <SCORE.norm>
-1.33072

>  <RMSD>
0.782

$$$$
ligand
 OpenBabel02271912143D
libRbt.so/2013.1/901 2013/11/27
 13 14  0  0  0  0  0  0  0  0999 V2000
   33.9535   33.7036   22.7578 N   0  0  0  0  0  0  0  0  0  0  0  0
   33.1393   32.6681   23.2519 C   0  0  0  0  0  0  0  0  0  0  0  0
   32.0600   32.2961   22.4616 N   0  0  0  0  0  0  0  0  0  0  0  0
   33.3015   32.0321   24.4373 N   0  0  0  0  0  0  0  0  0  0  0  0
   34.3975   32.5171   25.1444 C   0  0  0  0  0  0  0  0  0  0  0  0
   35.2701   33.5293   24.7264 C   0  0  0  0  0  0  0  0  0  0  0  0
   35.0800   34.1783   23.4976 C   0  0  0  0  0  0  0  0  0  0  0  0
   35.7573   35.0821   23.0305 O   0  0  0  0  0  0  0  0  0  0  0  0
   36.2519   33.7297   25.7237 C   0  0  0  0  0  0  0  0  0  0  0  0
   35.9690   32.8282   26.7380 C   0  0  0  0  0  0  0  0  0  0  0  0
   34.8238   32.0718   26.3823 N   0  0  0  0  0  0  0  0  0  0  0  0
   37.3286   34.7526   25.6287 C   0  0  0  0  0  0  0  0  0  0  0  0
   38.4628   34.4028   26.4981 N   0  0  0  0  0  0  0  0  0  0  0  0
  1  2  1  0  0  0  0
  1  7  1  0  0  0  0
  2  3  1  0  0  0  0
  2  4  2  0  0  0  0
  4  5  1  0  0  0  0
  5  6  2  0  0  0  0
  5 11  1  0  0  0  0
  6  7  1  0  0  0  0
  6  9  1  0  0  0  0
  7  8  2  0  0  0  0
  9 10  2  0  0  0  0
  9 12  1  0  0  0  0
 10 11  1  0  0  0  0
 12 13  1  0  0  0  0
M  END
>  <CHROM.1>
-158.00083107,35.07251018,33.39742974,24.60368185,-2.82801887,0.58875721
2.16004943

>  <Name>
ligand

>  <RI>
0

>  <Rbt.Current_Directory>
/home/itssahil/PROJECTS/Mol_Feturizer/Test_systems_manuscript/rnas/3q50

>  <Rbt.Executable>
rbdock ($Id: //depot/dev/client3/rdock/2013.1/src/exe/rbdock.cxx#4 $)

>  <Rbt.Library>
libRbt.so (2013.1, Build901 2013/11/27)

>  <Rbt.Parameter_File>
/export/apps/rDock/src/rDock_2013.1_src/data/scripts/dock_solv.prm

>  <Rbt.Receptor>
prm/pocket_docking_6.prm

>  <SCORE>
-17.3043

>  <SCORE.INTER>
-17.2651

>  <SCORE.INTER.CONST>
1

>  <SCORE.INTER.POLAR>
0

>  <SCORE.INTER.ROT>
1

>  <SCORE.INTER.SOLV>
22.446

>  <SCORE.INTER.VDW>
-23.2587

>  <SCORE.INTER.norm>
-1.32808

>  <SCORE.INTRA>
-0.0392429

>  <SCORE.INTRA.DIHEDRAL>
-0.0255128

>  <SCORE.INTRA.DIHEDRAL.0>
1.65305

>  <SCORE.INTRA.POLAR>
0

>  <SCORE.INTRA.POLAR.0>
0

>  <SCORE.INTRA.REPUL>
0

>  <SCORE.INTRA.REPUL.0>
0

>  <SCORE.INTRA.SOLV>
-0.00338398

>  <SCORE.INTRA.SOLV.lig_0>
-46.9527

>  <SCORE.INTRA.VDW>
-0.0247946

>  <SCORE.INTRA.VDW.0>
-0.177978

>  <SCORE.INTRA.norm>
-0.00301869

>  <SCORE.RESTR>
0

>  <SCORE.RESTR.CAVITY>
0

>  <SCORE.RESTR.norm>
0

>  <SCORE.SYSTEM>
0

>  <SCORE.SYSTEM.CONST>
0

>  <SCORE.SYSTEM.DIHEDRAL>
0

>  <SCORE.SYSTEM.SOLV>
0

>  <SCORE.SYSTEM.norm>
0

>  <SCORE.heavy>
13

>  <SCORE.norm>
-1.3311

>  <RMSD>
0.783

$$$$
ligand
 OpenBabel02271912143D
libRbt.so/2013.1/901 2013/11/27
 13 14  0  0  0  0  0  0  0  0999 V2000
   33.9758   33.6985   22.7462 N   0  0  0  0  0  0  0  0  0  0  0  0
   33.1566   32.6653   23.2368 C   0  0  0  0  0  0  0  0  0  0  0  0
   32.0809   32.2949   22.4407 N   0  0  0  0  0  0  0  0  0  0  0  0
   33.3106   32.0302   24.4236 N   0  0  0  0  0  0  0  0  0  0  0  0
   34.4037   32.5135   25.1365 C   0  0  0  0  0  0  0  0  0  0  0  0
   35.2809   33.5233   24.7224 C   0  0  0  0  0  0  0  0  0  0  0  0
   35.0992   34.1714   23.4919 C   0  0  0  0  0  0  0  0  0  0  0  0
   35.7811   35.0733   23.0277 O   0  0  0  0  0  0  0  0  0  0  0  0
   36.2575   33.7225   25.7250 C   0  0  0  0  0  0  0  0  0  0  0  0
   35.9669   32.8227   26.7386 C   0  0  0  0  0  0  0  0  0  0  0  0
   34.8220   32.0685   26.3772 N   0  0  0  0  0  0  0  0  0  0  0  0
   37.3370   34.7430   25.6351 C   0  0  0  0  0  0  0  0  0  0  0  0
   38.4599   34.3982   26.5210 N   0  0  0  0  0  0  0  0  0  0  0  0
  1  2  1  0  0  0  0
  1  7  1  0  0  0  0
  2  3  1  0  0  0  0
  2  4  2  0  0  0  0
  4  5  1  0  0  0  0
  5  6  2  0  0  0  0
  5 11  1  0  0  0  0
  6  7  1  0  0  0  0
  6  9  1  0  0  0  0
  7  8  2  0  0  0  0
  9 10  2  0  0  0  0
  9 12  1  0  0  0  0
 10 11  1  0  0  0  0
 12 13  1  0  0  0  0
M  END
>  <CHROM.1>
-158.54701497,35.08325711,33.39229180,24.59950134,-2.82042841,0.59091627
2.15497614

>  <Name>
ligand

>  <RI>
0

>  <Rbt.Current_Directory>
/home/itssahil/PROJECTS/Mol_Feturizer/Test_systems_manuscript/rnas/3q50

>  <Rbt.Executable>
rbdock ($Id: //depot/dev/client3/rdock/2013.1/src/exe/rbdock.cxx#4 $)

>  <Rbt.Library>
libRbt.so (2013.1, Build901 2013/11/27)

>  <Rbt.Parameter_File>
/export/apps/rDock/src/rDock_2013.1_src/data/scripts/dock_solv.prm

>  <Rbt.Receptor>
prm/pocket_docking_2.prm

>  <SCORE>
-17.2695

>  <SCORE.INTER>
-17.2319

>  <SCORE.INTER.CONST>
1

>  <SCORE.INTER.POLAR>
0

>  <SCORE.INTER.ROT>
1

>  <SCORE.INTER.SOLV>
22.3845

>  <SCORE.INTER.VDW>
-23.2161

>  <SCORE.INTER.norm>
-1.32553

>  <SCORE.INTRA>
-0.0375519

>  <SCORE.INTRA.DIHEDRAL>
-0.024883

>  <SCORE.INTRA.DIHEDRAL.0>
1.65305

>  <SCORE.INTRA.POLAR>
0

>  <SCORE.INTRA.POLAR.0>
0

>  <SCORE.INTRA.REPUL>
0

>  <SCORE.INTRA.REPUL.0>
0

>  <SCORE.INTRA.SOLV>
-0.00322416

>  <SCORE.INTRA.SOLV.lig_0>
-46.9527

>  <SCORE.INTRA.VDW>
-0.0234983

>  <SCORE.INTRA.VDW.0>
-0.177978

>  <SCORE.INTRA.norm>
-0.00288861

>  <SCORE.RESTR>
0

>  <SCORE.RESTR.CAVITY>
0

>  <SCORE.RESTR.norm>
0

>  <SCORE.SYSTEM>
0

>  <SCORE.SYSTEM.CONST>
0

>  <SCORE.SYSTEM.DIHEDRAL>
0

>  <SCORE.SYSTEM.SOLV>
0

>  <SCORE.SYSTEM.norm>
0

>  <SCORE.heavy>
13

>  <SCORE.norm>
-1.32842

>  <RMSD>
0.784

$$$$
ligand
 OpenBabel02271912143D
libRbt.so/2013.1/901 2013/11/27
 13 14  0  0  0  0  0  0  0  0999 V2000
   33.9543   33.7079   22.7637 N   0  0  0  0  0  0  0  0  0  0  0  0
   33.1343   32.6780   23.2600 C   0  0  0  0  0  0  0  0  0  0  0  0
   32.0520   32.3116   22.4711 N   0  0  0  0  0  0  0  0  0  0  0  0
   33.2936   32.0426   24.4459 N   0  0  0  0  0  0  0  0  0  0  0  0
   34.3933   32.5218   25.1515 C   0  0  0  0  0  0  0  0  0  0  0  0
   35.2716   33.5281   24.7313 C   0  0  0  0  0  0  0  0  0  0  0  0
   35.0844   34.1766   23.5019 C   0  0  0  0  0  0  0  0  0  0  0  0
   35.7667   35.0757   23.0329 O   0  0  0  0  0  0  0  0  0  0  0  0
   36.2556   33.7238   25.7274 C   0  0  0  0  0  0  0  0  0  0  0  0
   35.9681   32.8254   26.7432 C   0  0  0  0  0  0  0  0  0  0  0  0
   34.8180   32.0755   26.3895 N   0  0  0  0  0  0  0  0  0  0  0  0
   37.3385   34.7400   25.6301 C   0  0  0  0  0  0  0  0  0  0  0  0
   38.4720   34.3834   26.4976 N   0  0  0  0  0  0  0  0  0  0  0  0
  1  2  1  0  0  0  0
  1  7  1  0  0  0  0
  2  3  1  0  0  0  0
  2  4  2  0  0  0  0
  4  5  1  0  0  0  0
  5  6  2  0  0  0  0
  5 11  1  0  0  0  0
  6  7  1  0  0  0  0
  6  9  1  0  0  0  0
  7  8  2  0  0  0  0
  9 10  2  0  0  0  0
  9 12  1  0  0  0  0
 10 11  1  0  0  0  0
 12 13  1  0  0  0  0
M  END
>  <CHROM.1>
-157.92634813,35.07319576,33.39720265,24.60885255,-2.82493709,0.58303723
2.15702007

>  <Name>
ligand

>  <RI>
0

>  <Rbt.Current_Directory>
/home/itssahil/PROJECTS/Mol_Feturizer/Test_systems_manuscript/rnas/3q50

>  <Rbt.Executable>
rbdock ($Id: //depot/dev/client3/rdock/2013.1/src/exe/rbdock.cxx#4 $)

>  <Rbt.Library>
libRbt.so (2013.1, Build901 2013/11/27)

>  <Rbt.Parameter_File>
/export/apps/rDock/src/rDock_2013.1_src/data/scripts/dock_solv.prm

>  <Rbt.Receptor>
prm/pocket_docking_2.prm

>  <SCORE>
-17.3099

>  <SCORE.INTER>
-17.2704

>  <SCORE.INTER.CONST>
1

>  <SCORE.INTER.POLAR>
0

>  <SCORE.INTER.ROT>
1

>  <SCORE.INTER.SOLV>
22.4437

>  <SCORE.INTER.VDW>
-23.2615

>  <SCORE.INTER.norm>
-1.32849

>  <SCORE.INTRA>
-0.0394732

>  <SCORE.INTRA.DIHEDRAL>
-0.0255954

>  <SCORE.INTRA.DIHEDRAL.0>
1.65305

>  <SCORE.INTRA.POLAR>
0

>  <SCORE.INTRA.POLAR.0>
0

>  <SCORE.INTRA.REPUL>
0

>  <SCORE.INTRA.REPUL.0>
0

>  <SCORE.INTRA.SOLV>
-0.00340586

>  <SCORE.INTRA.SOLV.lig_0>
-46.9527

>  <SCORE.INTRA.VDW>
-0.0249726

>  <SCORE.INTRA.VDW.0>
-0.177978

>  <SCORE.INTRA.norm>
-0.0030364

>  <SCORE.RESTR>
0

>  <SCORE.RESTR.CAVITY>
0

>  <SCORE.RESTR.norm>
0

>  <SCORE.SYSTEM>
0

>  <SCORE.SYSTEM.CONST>
0

>  <SCORE.SYSTEM.DIHEDRAL>
0

>  <SCORE.SYSTEM.SOLV>
0

>  <SCORE.SYSTEM.norm>
0

>  <SCORE.heavy>
13

>  <SCORE.norm>
-1.33153

>  <RMSD>
0.784

$$$$
ligand
 OpenBabel02271912143D
libRbt.so/2013.1/901 2013/11/27
 13 14  0  0  0  0  0  0  0  0999 V2000
   33.9582   33.7114   22.7648 N   0  0  0  0  0  0  0  0  0  0  0  0
   33.1369   32.6813   23.2583 C   0  0  0  0  0  0  0  0  0  0  0  0
   32.0551   32.3171   22.4677 N   0  0  0  0  0  0  0  0  0  0  0  0
   33.2945   32.0437   24.4434 N   0  0  0  0  0  0  0  0  0  0  0  0
   34.3938   32.5208   25.1509 C   0  0  0  0  0  0  0  0  0  0  0  0
   35.2733   33.5272   24.7335 C   0  0  0  0  0  0  0  0  0  0  0  0
   35.0879   34.1780   23.5050 C   0  0  0  0  0  0  0  0  0  0  0  0
   35.7714   35.0774   23.0383 O   0  0  0  0  0  0  0  0  0  0  0  0
   36.2564   33.7203   25.7310 C   0  0  0  0  0  0  0  0  0  0  0  0
   35.9671   32.8203   26.7448 C   0  0  0  0  0  0  0  0  0  0  0  0
   34.8169   32.0720   26.3886 N   0  0  0  0  0  0  0  0  0  0  0  0
   37.3401   34.7359   25.6366 C   0  0  0  0  0  0  0  0  0  0  0  0
   38.4598   34.3926   26.5271 N   0  0  0  0  0  0  0  0  0  0  0  0
  1  2  1  0  0  0  0
  1  7  1  0  0  0  0
  2  3  1  0  0  0  0
  2  4  2  0  0  0  0
  4  5  1  0  0  0  0
  5  6  2  0  0  0  0
  5 11  1  0  0  0  0
  6  7  1  0  0  0  0
  6  9  1  0  0  0  0
  7  8  2  0  0  0  0
  9 10  2  0  0  0  0
  9 12  1  0  0  0  0
 10 11  1  0  0  0  0
 12 13  1  0  0  0  0
M  END
>  <CHROM.1>
-159.18498454,35.07390373,33.39790394,24.61237972,-2.82234024,0.58502683
2.15768940

>  <Name>
ligand

>  <RI>
0

>  <Rbt.Current_Directory>
/home/itssahil/PROJECTS/Mol_Feturizer/Test_systems_manuscript/rnas/3q50

>  <Rbt.Executable>
rbdock ($Id: //depot/dev/client3/rdock/2013.1/src/exe/rbdock.cxx#4 $)

>  <Rbt.Library>
libRbt.so (2013.1, Build901 2013/11/27)

>  <Rbt.Parameter_File>
/export/apps/rDock/src/rDock_2013.1_src/data/scripts/dock_solv.prm

>  <Rbt.Receptor>
prm/pocket_docking_5.prm

>  <SCORE>
-17.2718

>  <SCORE.INTER>
-17.2362

>  <SCORE.INTER.CONST>
1

>  <SCORE.INTER.POLAR>
0

>  <SCORE.INTER.ROT>
1

>  <SCORE.INTER.SOLV>
22.4072

>  <SCORE.INTER.VDW>
-23.2265

>  <SCORE.INTER.norm>
-1.32586

>  <SCORE.INTRA>
-0.0355727

>  <SCORE.INTRA.DIHEDRAL>
-0.0240938

>  <SCORE.INTRA.DIHEDRAL.0>
1.65305

>  <SCORE.INTRA.POLAR>
0

>  <SCORE.INTRA.POLAR.0>
0

>  <SCORE.INTRA.REPUL>
0

>  <SCORE.INTRA.REPUL.0>
0

>  <SCORE.INTRA.SOLV>
-0.00303901

>  <SCORE.INTRA.SOLV.lig_0>
-46.9527

>  <SCORE.INTRA.VDW>
-0.0220063

>  <SCORE.INTRA.VDW.0>
-0.177978

>  <SCORE.INTRA.norm>
-0.00273636

>  <SCORE.RESTR>
0

>  <SCORE.RESTR.CAVITY>
0

>  <SCORE.RESTR.norm>
0

>  <SCORE.SYSTEM>
0

>  <SCORE.SYSTEM.CONST>
0

>  <SCORE.SYSTEM.DIHEDRAL>
0

>  <SCORE.SYSTEM.SOLV>
0

>  <SCORE.SYSTEM.norm>
0

>  <SCORE.heavy>
13

>  <SCORE.norm>
-1.3286

>  <RMSD>
0.784

$$$$
ligand
 OpenBabel02271912143D
libRbt.so/2013.1/901 2013/11/27
 13 14  0  0  0  0  0  0  0  0999 V2000
   33.9753   33.6996   22.7476 N   0  0  0  0  0  0  0  0  0  0  0  0
   33.1607   32.6601   23.2326 C   0  0  0  0  0  0  0  0  0  0  0  0
   32.0894   32.2859   22.4323 N   0  0  0  0  0  0  0  0  0  0  0  0
   33.3151   32.0222   24.4179 N   0  0  0  0  0  0  0  0  0  0  0  0
   34.4033   32.5096   25.1354 C   0  0  0  0  0  0  0  0  0  0  0  0
   35.2757   33.5258   24.7269 C   0  0  0  0  0  0  0  0  0  0  0  0
   35.0937   34.1767   23.4980 C   0  0  0  0  0  0  0  0  0  0  0  0
   35.7716   35.0840   23.0385 O   0  0  0  0  0  0  0  0  0  0  0  0
   36.2483   33.7276   25.7329 C   0  0  0  0  0  0  0  0  0  0  0  0
   35.9601   32.8229   26.7429 C   0  0  0  0  0  0  0  0  0  0  0  0
   34.8207   32.0631   26.3758 N   0  0  0  0  0  0  0  0  0  0  0  0
   37.3221   34.7546   25.6493 C   0  0  0  0  0  0  0  0  0  0  0  0
   38.4604   34.3946   26.5090 N   0  0  0  0  0  0  0  0  0  0  0  0
  1  2  1  0  0  0  0
  1  7  1  0  0  0  0
  2  3  1  0  0  0  0
  2  4  2  0  0  0  0
  4  5  1  0  0  0  0
  5  6  2  0  0  0  0
  5 11  1  0  0  0  0
  6  7  1  0  0  0  0
  6  9  1  0  0  0  0
  7  8  2  0  0  0  0
  9 10  2  0  0  0  0
  9 12  1  0  0  0  0
 10 11  1  0  0  0  0
 12 13  1  0  0  0  0
M  END
>  <CHROM.1>
-156.97389427,35.08051085,33.39247407,24.60075260,-2.82281096,0.59482387
2.15898022

>  <Name>
ligand

>  <RI>
0

>  <Rbt.Current_Directory>
/home/itssahil/PROJECTS/Mol_Feturizer/Test_systems_manuscript/rnas/3q50

>  <Rbt.Executable>
rbdock ($Id: //depot/dev/client3/rdock/2013.1/src/exe/rbdock.cxx#4 $)

>  <Rbt.Library>
libRbt.so (2013.1, Build901 2013/11/27)

>  <Rbt.Parameter_File>
/export/apps/rDock/src/rDock_2013.1_src/data/scripts/dock_solv.prm

>  <Rbt.Receptor>
prm/pocket_docking_3.prm

>  <SCORE>
-17.2344

>  <SCORE.INTER>
-17.192

>  <SCORE.INTER.CONST>
1

>  <SCORE.INTER.POLAR>
0

>  <SCORE.INTER.ROT>
1

>  <SCORE.INTER.SOLV>
22.3804

>  <SCORE.INTER.VDW>
-23.1881

>  <SCORE.INTER.norm>
-1.32246

>  <SCORE.INTRA>
-0.0424099

>  <SCORE.INTRA.DIHEDRAL>
-0.0265803

>  <SCORE.INTRA.DIHEDRAL.0>
1.65305

>  <SCORE.INTRA.POLAR>
0

>  <SCORE.INTRA.POLAR.0>
0

>  <SCORE.INTRA.REPUL>
0

>  <SCORE.INTRA.REPUL.0>
0

>  <SCORE.INTRA.SOLV>
-0.00368742

>  <SCORE.INTRA.SOLV.lig_0>
-46.9527

>  <SCORE.INTRA.VDW>
-0.027276

>  <SCORE.INTRA.VDW.0>
-0.177978

>  <SCORE.INTRA.norm>
-0.0032623

>  <SCORE.RESTR>
0

>  <SCORE.RESTR.CAVITY>
0

>  <SCORE.RESTR.norm>
0

>  <SCORE.SYSTEM>
0

>  <SCORE.SYSTEM.CONST>
0

>  <SCORE.SYSTEM.DIHEDRAL>
0

>  <SCORE.SYSTEM.SOLV>
0

>  <SCORE.SYSTEM.norm>
0

>  <SCORE.heavy>
13

>  <SCORE.norm>
-1.32573

>  <RMSD>
0.785

$$$$
ligand
 OpenBabel02271912143D
libRbt.so/2013.1/901 2013/11/27
 13 14  0  0  0  0  0  0  0  0999 V2000
   33.9638   33.7075   22.7597 N   0  0  0  0  0  0  0  0  0  0  0  0
   33.1425   32.6773   23.2530 C   0  0  0  0  0  0  0  0  0  0  0  0
   32.0623   32.3113   22.4610 N   0  0  0  0  0  0  0  0  0  0  0  0
   33.2987   32.0411   24.4390 N   0  0  0  0  0  0  0  0  0  0  0  0
   34.3964   32.5198   25.1477 C   0  0  0  0  0  0  0  0  0  0  0  0
   35.2758   33.5265   24.7306 C   0  0  0  0  0  0  0  0  0  0  0  0
   35.0918   34.1758   23.5012 C   0  0  0  0  0  0  0  0  0  0  0  0
   35.7754   35.0753   23.0347 O   0  0  0  0  0  0  0  0  0  0  0  0
   36.2571   33.7216   25.7295 C   0  0  0  0  0  0  0  0  0  0  0  0
   35.9670   32.8224   26.7439 C   0  0  0  0  0  0  0  0  0  0  0  0
   34.8179   32.0727   26.3866 N   0  0  0  0  0  0  0  0  0  0  0  0
   37.3402   34.7379   25.6358 C   0  0  0  0  0  0  0  0  0  0  0  0
   38.4784   34.3722   26.4932 N   0  0  0  0  0  0  0  0  0  0  0  0
  1  2  1  0  0  0  0
  1  7  1  0  0  0  0
  2  3  1  0  0  0  0
  2  4  2  0  0  0  0
  4  5  1  0  0  0  0
  5  6  2  0  0  0  0
  5 11  1  0  0  0  0
  6  7  1  0  0  0  0
  6  9  1  0  0  0  0
  7  8  2  0  0  0  0
  9 10  2  0  0  0  0
  9 12  1  0  0  0  0
 10 11  1  0  0  0  0
 12 13  1  0  0  0  0
M  END
>  <CHROM.1>
-157.21455897,35.07831418,33.39495283,24.60650531,-2.82292856,0.58343428
2.15640412

>  <Name>
ligand

>  <RI>
0

>  <Rbt.Current_Directory>
/home/itssahil/PROJECTS/Mol_Feturizer/Test_systems_manuscript/rnas/3q50

>  <Rbt.Executable>
rbdock ($Id: //depot/dev/client3/rdock/2013.1/src/exe/rbdock.cxx#4 $)

>  <Rbt.Library>
libRbt.so (2013.1, Build901 2013/11/27)

>  <Rbt.Parameter_File>
/export/apps/rDock/src/rDock_2013.1_src/data/scripts/dock_solv.prm

>  <Rbt.Receptor>
prm/pocket_docking_6.prm

>  <SCORE>
-17.3139

>  <SCORE.INTER>
-17.2722

>  <SCORE.INTER.CONST>
1

>  <SCORE.INTER.POLAR>
0

>  <SCORE.INTER.ROT>
1

>  <SCORE.INTER.SOLV>
22.423

>  <SCORE.INTER.VDW>
-23.2558

>  <SCORE.INTER.norm>
-1.32863

>  <SCORE.INTRA>
-0.0416695

>  <SCORE.INTRA.DIHEDRAL>
-0.0263439

>  <SCORE.INTRA.DIHEDRAL.0>
1.65305

>  <SCORE.INTRA.POLAR>
0

>  <SCORE.INTRA.POLAR.0>
0

>  <SCORE.INTRA.REPUL>
0

>  <SCORE.INTRA.REPUL.0>
0

>  <SCORE.INTRA.SOLV>
-0.00361598

>  <SCORE.INTRA.SOLV.lig_0>
-46.9527

>  <SCORE.INTRA.VDW>
-0.0266895

>  <SCORE.INTRA.VDW.0>
-0.177978

>  <SCORE.INTRA.norm>
-0.00320534

>  <SCORE.RESTR>
0

>  <SCORE.RESTR.CAVITY>
0

>  <SCORE.RESTR.norm>
0

>  <SCORE.SYSTEM>
0

>  <SCORE.SYSTEM.CONST>
0

>  <SCORE.SYSTEM.DIHEDRAL>
0

>  <SCORE.SYSTEM.SOLV>
0

>  <SCORE.SYSTEM.norm>
0

>  <SCORE.heavy>
13

>  <SCORE.norm>
-1.33184

>  <RMSD>
0.785

$$$$
ligand
 OpenBabel02271912143D
libRbt.so/2013.1/901 2013/11/27
 13 14  0  0  0  0  0  0  0  0999 V2000
   33.9577   33.7063   22.7611 N   0  0  0  0  0  0  0  0  0  0  0  0
   33.1356   32.6783   23.2580 C   0  0  0  0  0  0  0  0  0  0  0  0
   32.0541   32.3116   22.4681 N   0  0  0  0  0  0  0  0  0  0  0  0
   33.2924   32.0450   24.4454 N   0  0  0  0  0  0  0  0  0  0  0  0
   34.3915   32.5242   25.1518 C   0  0  0  0  0  0  0  0  0  0  0  0
   35.2717   33.5287   24.7311 C   0  0  0  0  0  0  0  0  0  0  0  0
   35.0871   34.1751   23.5001 C   0  0  0  0  0  0  0  0  0  0  0  0
   35.7713   35.0725   23.0306 O   0  0  0  0  0  0  0  0  0  0  0  0
   36.2543   33.7251   25.7284 C   0  0  0  0  0  0  0  0  0  0  0  0
   35.9642   32.8289   26.7454 C   0  0  0  0  0  0  0  0  0  0  0  0
   34.8138   32.0798   26.3913 N   0  0  0  0  0  0  0  0  0  0  0  0
   37.3385   34.7398   25.6308 C   0  0  0  0  0  0  0  0  0  0  0  0
   38.4703   34.3835   26.5006 N   0  0  0  0  0  0  0  0  0  0  0  0
  1  2  1  0  0  0  0
  1  7  1  0  0  0  0
  2  3  1  0  0  0  0
  2  4  2  0  0  0  0
  4  5  1  0  0  0  0
  5  6  2  0  0  0  0
  5 11  1  0  0  0  0
  6  7  1  0  0  0  0
  6  9  1  0  0  0  0
  7  8  2  0  0  0  0
  9 10  2  0  0  0  0
  9 12  1  0  0  0  0
 10 11  1  0  0  0  0
 12 13  1  0  0  0  0
M  END
>  <CHROM.1>
-157.91863845,35.07329519,33.39777569,24.60854317,-2.82261166,0.58291150
2.15385444

>  <Name>
ligand

>  <RI>
0

>  <Rbt.Current_Directory>
/home/itssahil/PROJECTS/Mol_Feturizer/Test_systems_manuscript/rnas/3q50

>  <Rbt.Executable>
rbdock ($Id: //depot/dev/client3/rdock/2013.1/src/exe/rbdock.cxx#4 $)

>  <Rbt.Library>
libRbt.so (2013.1, Build901 2013/11/27)

>  <Rbt.Parameter_File>
/export/apps/rDock/src/rDock_2013.1_src/data/scripts/dock_solv.prm

>  <Rbt.Receptor>
prm/pocket_docking_6.prm

>  <SCORE>
-17.3117

>  <SCORE.INTER>
-17.2722

>  <SCORE.INTER.CONST>
1

>  <SCORE.INTER.POLAR>
0

>  <SCORE.INTER.ROT>
1

>  <SCORE.INTER.SOLV>
22.4413

>  <SCORE.INTER.VDW>
-23.2619

>  <SCORE.INTER.norm>
-1.32863

>  <SCORE.INTRA>
-0.0394971

>  <SCORE.INTRA.DIHEDRAL>
-0.0256039

>  <SCORE.INTRA.DIHEDRAL.0>
1.65305

>  <SCORE.INTRA.POLAR>
0

>  <SCORE.INTRA.POLAR.0>
0

>  <SCORE.INTRA.REPUL>
0

>  <SCORE.INTRA.REPUL.0>
0

>  <SCORE.INTRA.SOLV>
-0.00340812

>  <SCORE.INTRA.SOLV.lig_0>
-46.9527

>  <SCORE.INTRA.VDW>
-0.0249911

>  <SCORE.INTRA.VDW.0>
-0.177978

>  <SCORE.INTRA.norm>
-0.00303824

>  <SCORE.RESTR>
0

>  <SCORE.RESTR.CAVITY>
0

>  <SCORE.RESTR.norm>
0

>  <SCORE.SYSTEM>
0

>  <SCORE.SYSTEM.CONST>
0

>  <SCORE.SYSTEM.DIHEDRAL>
0

>  <SCORE.SYSTEM.SOLV>
0

>  <SCORE.SYSTEM.norm>
0

>  <SCORE.heavy>
13

>  <SCORE.norm>
-1.33167

>  <RMSD>
0.785

$$$$
ligand
 OpenBabel02271912143D
libRbt.so/2013.1/901 2013/11/27
 13 14  0  0  0  0  0  0  0  0999 V2000
   33.9530   33.7093   22.7653 N   0  0  0  0  0  0  0  0  0  0  0  0
   33.1334   32.6789   23.2612 C   0  0  0  0  0  0  0  0  0  0  0  0
   32.0511   32.3124   22.4724 N   0  0  0  0  0  0  0  0  0  0  0  0
   33.2933   32.0430   24.4469 N   0  0  0  0  0  0  0  0  0  0  0  0
   34.3929   32.5223   25.1524 C   0  0  0  0  0  0  0  0  0  0  0  0
   35.2707   33.5292   24.7326 C   0  0  0  0  0  0  0  0  0  0  0  0
   35.0830   34.1782   23.5035 C   0  0  0  0  0  0  0  0  0  0  0  0
   35.7649   35.0778   23.0348 O   0  0  0  0  0  0  0  0  0  0  0  0
   36.2548   33.7248   25.7286 C   0  0  0  0  0  0  0  0  0  0  0  0
   35.9679   32.8258   26.7440 C   0  0  0  0  0  0  0  0  0  0  0  0
   34.8181   32.0756   26.3902 N   0  0  0  0  0  0  0  0  0  0  0  0
   37.3372   34.7415   25.6316 C   0  0  0  0  0  0  0  0  0  0  0  0
   38.4866   34.3657   26.4696 N   0  0  0  0  0  0  0  0  0  0  0  0
  1  2  1  0  0  0  0
  1  7  1  0  0  0  0
  2  3  1  0  0  0  0
  2  4  2  0  0  0  0
  4  5  1  0  0  0  0
  5  6  2  0  0  0  0
  5 11  1  0  0  0  0
  6  7  1  0  0  0  0
  6  9  1  0  0  0  0
  7  8  2  0  0  0  0
  9 10  2  0  0  0  0
  9 12  1  0  0  0  0
 10 11  1  0  0  0  0
 12 13  1  0  0  0  0
M  END
>  <CHROM.1>
-156.33732318,35.07359554,33.39669558,24.60772498,-2.82676579,0.58071355
2.15800619

>  <Name>
ligand

>  <RI>
0

>  <Rbt.Current_Directory>
/home/itssahil/PROJECTS/Mol_Feturizer/Test_systems_manuscript/rnas/3q50

>  <Rbt.Executable>
rbdock ($Id: //depot/dev/client3/rdock/2013.1/src/exe/rbdock.cxx#4 $)

>  <Rbt.Library>
libRbt.so (2013.1, Build901 2013/11/27)

>  <Rbt.Parameter_File>
/export/apps/rDock/src/rDock_2013.1_src/data/scripts/dock_solv.prm

>  <Rbt.Receptor>
prm/pocket_docking_7.prm

>  <SCORE>
-17.3109

>  <SCORE.INTER>
-17.2666

>  <SCORE.INTER.CONST>
1

>  <SCORE.INTER.POLAR>
0

>  <SCORE.INTER.ROT>
1

>  <SCORE.INTER.SOLV>
22.4637

>  <SCORE.INTER.VDW>
-23.2656

>  <SCORE.INTER.norm>
-1.3282

>  <SCORE.INTRA>
-0.0443622

>  <SCORE.INTRA.DIHEDRAL>
-0.0271645

>  <SCORE.INTRA.DIHEDRAL.0>
1.65305

>  <SCORE.INTRA.POLAR>
0

>  <SCORE.INTRA.POLAR.0>
0

>  <SCORE.INTRA.REPUL>
0

>  <SCORE.INTRA.REPUL.0>
0

>  <SCORE.INTRA.SOLV>
-0.00387728

>  <SCORE.INTRA.SOLV.lig_0>
-46.9527

>  <SCORE.INTRA.VDW>
-0.0288414

>  <SCORE.INTRA.VDW.0>
-0.177978

>  <SCORE.INTRA.norm>
-0.00341248

>  <SCORE.RESTR>
0

>  <SCORE.RESTR.CAVITY>
0

>  <SCORE.RESTR.norm>
0

>  <SCORE.SYSTEM>
0

>  <SCORE.SYSTEM.CONST>
0

>  <SCORE.SYSTEM.DIHEDRAL>
0

>  <SCORE.SYSTEM.SOLV>
0

>  <SCORE.SYSTEM.norm>
0

>  <SCORE.heavy>
13

>  <SCORE.norm>
-1.33161

>  <RMSD>
0.785

$$$$
ligand
 OpenBabel02271912143D
libRbt.so/2013.1/901 2013/11/27
 13 14  0  0  0  0  0  0  0  0999 V2000
   33.9679   33.7018   22.7536 N   0  0  0  0  0  0  0  0  0  0  0  0
   33.1422   32.6774   23.2518 C   0  0  0  0  0  0  0  0  0  0  0  0
   32.0602   32.3126   22.4618 N   0  0  0  0  0  0  0  0  0  0  0  0
   33.2961   32.0459   24.4406 N   0  0  0  0  0  0  0  0  0  0  0  0
   34.3961   32.5230   25.1469 C   0  0  0  0  0  0  0  0  0  0  0  0
   35.2798   33.5239   24.7250 C   0  0  0  0  0  0  0  0  0  0  0  0
   35.0982   34.1685   23.4926 C   0  0  0  0  0  0  0  0  0  0  0  0
   35.7856   35.0629   23.0219 O   0  0  0  0  0  0  0  0  0  0  0  0
   36.2622   33.7191   25.7227 C   0  0  0  0  0  0  0  0  0  0  0  0
   35.9684   32.8258   26.7412 C   0  0  0  0  0  0  0  0  0  0  0  0
   34.8160   32.0796   26.3876 N   0  0  0  0  0  0  0  0  0  0  0  0
   37.3497   34.7303   25.6241 C   0  0  0  0  0  0  0  0  0  0  0  0
   38.4747   34.3782   26.5043 N   0  0  0  0  0  0  0  0  0  0  0  0
  1  2  1  0  0  0  0
  1  7  1  0  0  0  0
  2  3  1  0  0  0  0
  2  4  2  0  0  0  0
  4  5  1  0  0  0  0
  5  6  2  0  0  0  0
  5 11  1  0  0  0  0
  6  7  1  0  0  0  0
  6  9  1  0  0  0  0
  7  8  2  0  0  0  0
  9 10  2  0  0  0  0
  9 12  1  0  0  0  0
 10 11  1  0  0  0  0
 12 13  1  0  0  0  0
M  END
>  <CHROM.1>
-158.41271835,35.08065804,33.39387548,24.60324631,-2.81932574,0.58151829
2.15025429

>  <Name>
ligand

>  <RI>
0

>  <Rbt.Current_Directory>
/home/itssahil/PROJECTS/Mol_Feturizer/Test_systems_manuscript/rnas/3q50

>  <Rbt.Executable>
rbdock ($Id: //depot/dev/client3/rdock/2013.1/src/exe/rbdock.cxx#4 $)

>  <Rbt.Library>
libRbt.so (2013.1, Build901 2013/11/27)

>  <Rbt.Parameter_File>
/export/apps/rDock/src/rDock_2013.1_src/data/scripts/dock_solv.prm

>  <Rbt.Receptor>
prm/pocket_docking_3.prm

>  <SCORE>
-17.3246

>  <SCORE.INTER>
-17.2866

>  <SCORE.INTER.CONST>
1

>  <SCORE.INTER.POLAR>
0

>  <SCORE.INTER.ROT>
1

>  <SCORE.INTER.SOLV>
22.4248

>  <SCORE.INTER.VDW>
-23.266

>  <SCORE.INTER.norm>
-1.32974

>  <SCORE.INTRA>
-0.037968

>  <SCORE.INTRA.DIHEDRAL>
-0.0250418

>  <SCORE.INTRA.DIHEDRAL.0>
1.65305

>  <SCORE.INTRA.POLAR>
0

>  <SCORE.INTRA.POLAR.0>
0

>  <SCORE.INTRA.REPUL>
0

>  <SCORE.INTRA.REPUL.0>
0

>  <SCORE.INTRA.SOLV>
-0.00326335

>  <SCORE.INTRA.SOLV.lig_0>
-46.9527

>  <SCORE.INTRA.VDW>
-0.0238154

>  <SCORE.INTRA.VDW.0>
-0.177978

>  <SCORE.INTRA.norm>
-0.00292062

>  <SCORE.RESTR>
0

>  <SCORE.RESTR.CAVITY>
0

>  <SCORE.RESTR.norm>
0

>  <SCORE.SYSTEM>
0

>  <SCORE.SYSTEM.CONST>
0

>  <SCORE.SYSTEM.DIHEDRAL>
0

>  <SCORE.SYSTEM.SOLV>
0

>  <SCORE.SYSTEM.norm>
0

>  <SCORE.heavy>
13

>  <SCORE.norm>
-1.33266

>  <RMSD>
0.786

$$$$
ligand
 OpenBabel02271912143D
libRbt.so/2013.1/901 2013/11/27
 13 14  0  0  0  0  0  0  0  0999 V2000
   33.9549   33.7079   22.7637 N   0  0  0  0  0  0  0  0  0  0  0  0
   33.1342   32.6782   23.2592 C   0  0  0  0  0  0  0  0  0  0  0  0
   32.0518   32.3129   22.4699 N   0  0  0  0  0  0  0  0  0  0  0  0
   33.2931   32.0420   24.4448 N   0  0  0  0  0  0  0  0  0  0  0  0
   34.3929   32.5201   25.1507 C   0  0  0  0  0  0  0  0  0  0  0  0
   35.2719   33.5261   24.7313 C   0  0  0  0  0  0  0  0  0  0  0  0
   35.0852   34.1755   23.5023 C   0  0  0  0  0  0  0  0  0  0  0  0
   35.7681   35.0745   23.0340 O   0  0  0  0  0  0  0  0  0  0  0  0
   36.2558   33.7206   25.7277 C   0  0  0  0  0  0  0  0  0  0  0  0
   35.9677   32.8217   26.7429 C   0  0  0  0  0  0  0  0  0  0  0  0
   34.8172   32.0728   26.3885 N   0  0  0  0  0  0  0  0  0  0  0  0
   37.3393   34.7362   25.6312 C   0  0  0  0  0  0  0  0  0  0  0  0
   38.4770   34.3729   26.4903 N   0  0  0  0  0  0  0  0  0  0  0  0
  1  2  1  0  0  0  0
  1  7  1  0  0  0  0
  2  3  1  0  0  0  0
  2  4  2  0  0  0  0
  4  5  1  0  0  0  0
  5  6  2  0  0  0  0
  5 11  1  0  0  0  0
  6  7  1  0  0  0  0
  6  9  1  0  0  0  0
  7  8  2  0  0  0  0
  9 10  2  0  0  0  0
  9 12  1  0  0  0  0
 10 11  1  0  0  0  0
 12 13  1  0  0  0  0
M  END
>  <CHROM.1>
-157.47016267,35.07376099,33.39495104,24.60807886,-2.82481712,0.58188068
2.15745321

>  <Name>
ligand

>  <RI>
0

>  <Rbt.Current_Directory>
/home/itssahil/PROJECTS/Mol_Feturizer/Test_systems_manuscript/rnas/3q50

>  <Rbt.Executable>
rbdock ($Id: //depot/dev/client3/rdock/2013.1/src/exe/rbdock.cxx#4 $)

>  <Rbt.Library>
libRbt.so (2013.1, Build901 2013/11/27)

>  <Rbt.Parameter_File>
/export/apps/rDock/src/rDock_2013.1_src/data/scripts/dock_solv.prm

>  <Rbt.Receptor>
prm/pocket_docking_5.prm

>  <SCORE>
-17.2681

>  <SCORE.INTER>
-17.2272

>  <SCORE.INTER.CONST>
1

>  <SCORE.INTER.POLAR>
0

>  <SCORE.INTER.ROT>
1

>  <SCORE.INTER.SOLV>
22.4435

>  <SCORE.INTER.VDW>
-23.2326

>  <SCORE.INTER.norm>
-1.32517

>  <SCORE.INTRA>
-0.0408818

>  <SCORE.INTRA.DIHEDRAL>
-0.0260836

>  <SCORE.INTRA.DIHEDRAL.0>
1.65305

>  <SCORE.INTRA.POLAR>
0

>  <SCORE.INTRA.POLAR.0>
0

>  <SCORE.INTRA.REPUL>
0

>  <SCORE.INTRA.REPUL.0>
0

>  <SCORE.INTRA.SOLV>
-0.00354032

>  <SCORE.INTRA.SOLV.lig_0>
-46.9527

>  <SCORE.INTRA.VDW>
-0.0260699

>  <SCORE.INTRA.VDW.0>
-0.177978

>  <SCORE.INTRA.norm>
-0.00314476

>  <SCORE.RESTR>
0

>  <SCORE.RESTR.CAVITY>
0

>  <SCORE.RESTR.norm>
0

>  <SCORE.SYSTEM>
0

>  <SCORE.SYSTEM.CONST>
0

>  <SCORE.SYSTEM.DIHEDRAL>
0

>  <SCORE.SYSTEM.SOLV>
0

>  <SCORE.SYSTEM.norm>
0

>  <SCORE.heavy>
13

>  <SCORE.norm>
-1.32831

>  <RMSD>
0.786

$$$$
ligand
 OpenBabel02271912143D
libRbt.so/2013.1/901 2013/11/27
 13 14  0  0  0  0  0  0  0  0999 V2000
   33.9631   33.7053   22.7580 N   0  0  0  0  0  0  0  0  0  0  0  0
   33.1372   32.6814   23.2566 C   0  0  0  0  0  0  0  0  0  0  0  0
   32.0538   32.3181   22.4677 N   0  0  0  0  0  0  0  0  0  0  0  0
   33.2919   32.0489   24.4448 N   0  0  0  0  0  0  0  0  0  0  0  0
   34.3933   32.5246   25.1500 C   0  0  0  0  0  0  0  0  0  0  0  0
   35.2773   33.5249   24.7277 C   0  0  0  0  0  0  0  0  0  0  0  0
   35.0948   34.1705   23.4960 C   0  0  0  0  0  0  0  0  0  0  0  0
   35.7824   35.0645   23.0249 O   0  0  0  0  0  0  0  0  0  0  0  0
   36.2612   33.7186   25.7242 C   0  0  0  0  0  0  0  0  0  0  0  0
   35.9679   32.8249   26.7425 C   0  0  0  0  0  0  0  0  0  0  0  0
   34.8143   32.0800   26.3899 N   0  0  0  0  0  0  0  0  0  0  0  0
   37.3495   34.7288   25.6249 C   0  0  0  0  0  0  0  0  0  0  0  0
   38.4756   34.3748   26.5029 N   0  0  0  0  0  0  0  0  0  0  0  0
  1  2  1  0  0  0  0
  1  7  1  0  0  0  0
  2  3  1  0  0  0  0
  2  4  2  0  0  0  0
  4  5  1  0  0  0  0
  5  6  2  0  0  0  0
  5 11  1  0  0  0  0
  6  7  1  0  0  0  0
  6  9  1  0  0  0  0
  7  8  2  0  0  0  0
  9 10  2  0  0  0  0
  9 12  1  0  0  0  0
 10 11  1  0  0  0  0
 12 13  1  0  0  0  0
M  END
>  <CHROM.1>
-158.38035293,35.07798810,33.39513657,24.60604310,-2.82001184,0.58002114
2.15127720

>  <Name>
ligand

>  <RI>
0

>  <Rbt.Current_Directory>
/home/itssahil/PROJECTS/Mol_Feturizer/Test_systems_manuscript/rnas/3q50

>  <Rbt.Executable>
rbdock ($Id: //depot/dev/client3/rdock/2013.1/src/exe/rbdock.cxx#4 $)

>  <Rbt.Library>
libRbt.so (2013.1, Build901 2013/11/27)

>  <Rbt.Parameter_File>
/export/apps/rDock/src/rDock_2013.1_src/data/scripts/dock_solv.prm

>  <Rbt.Receptor>
prm/pocket_docking_5.prm

>  <SCORE>
-17.3251

>  <SCORE.INTER>
-17.2871

>  <SCORE.INTER.CONST>
1

>  <SCORE.INTER.POLAR>
0

>  <SCORE.INTER.ROT>
1

>  <SCORE.INTER.SOLV>
22.4317

>  <SCORE.INTER.VDW>
-23.2686

>  <SCORE.INTER.norm>
-1.32977

>  <SCORE.INTRA>
-0.0380683

>  <SCORE.INTRA.DIHEDRAL>
-0.0250797

>  <SCORE.INTRA.DIHEDRAL.0>
1.65305

>  <SCORE.INTRA.POLAR>
0

>  <SCORE.INTRA.POLAR.0>
0

>  <SCORE.INTRA.REPUL>
0

>  <SCORE.INTRA.REPUL.0>
0

>  <SCORE.INTRA.SOLV>
-0.0032728

>  <SCORE.INTRA.SOLV.lig_0>
-46.9527

>  <SCORE.INTRA.VDW>
-0.023892

>  <SCORE.INTRA.VDW.0>
-0.177978

>  <SCORE.INTRA.norm>
-0.00292833

>  <SCORE.RESTR>
0

>  <SCORE.RESTR.CAVITY>
0

>  <SCORE.RESTR.norm>
0

>  <SCORE.SYSTEM>
0

>  <SCORE.SYSTEM.CONST>
0

>  <SCORE.SYSTEM.DIHEDRAL>
0

>  <SCORE.SYSTEM.SOLV>
0

>  <SCORE.SYSTEM.norm>
0

>  <SCORE.heavy>
13

>  <SCORE.norm>
-1.3327

>  <RMSD>
0.786

$$$$
ligand
 OpenBabel02271912143D
libRbt.so/2013.1/901 2013/11/27
 13 14  0  0  0  0  0  0  0  0999 V2000
   33.9699   33.7000   22.7491 N   0  0  0  0  0  0  0  0  0  0  0  0
   33.1480   32.6709   23.2441 C   0  0  0  0  0  0  0  0  0  0  0  0
   32.0687   32.3030   22.4517 N   0  0  0  0  0  0  0  0  0  0  0  0
   33.3030   32.0376   24.4318 N   0  0  0  0  0  0  0  0  0  0  0  0
   34.3999   32.5181   25.1406 C   0  0  0  0  0  0  0  0  0  0  0  0
   35.2797   33.5238   24.7220 C   0  0  0  0  0  0  0  0  0  0  0  0
   35.0971   34.1701   23.4907 C   0  0  0  0  0  0  0  0  0  0  0  0
   35.7811   35.0684   23.0228 O   0  0  0  0  0  0  0  0  0  0  0  0
   36.2599   33.7213   25.7215 C   0  0  0  0  0  0  0  0  0  0  0  0
   35.9686   32.8246   26.7378 C   0  0  0  0  0  0  0  0  0  0  0  0
   34.8200   32.0741   26.3810 N   0  0  0  0  0  0  0  0  0  0  0  0
   37.3430   34.7374   25.6265 C   0  0  0  0  0  0  0  0  0  0  0  0
   38.4781   34.3766   26.4902 N   0  0  0  0  0  0  0  0  0  0  0  0
  1  2  1  0  0  0  0
  1  7  1  0  0  0  0
  2  3  1  0  0  0  0
  2  4  2  0  0  0  0
  4  5  1  0  0  0  0
  5  6  2  0  0  0  0
  5 11  1  0  0  0  0
  6  7  1  0  0  0  0
  6  9  1  0  0  0  0
  7  8  2  0  0  0  0
  9 10  2  0  0  0  0
  9 12  1  0  0  0  0
 10 11  1  0  0  0  0
 12 13  1  0  0  0  0
M  END
>  <CHROM.1>
-157.44527058,35.08216744,33.39216381,24.59830412,-2.82161973,0.58442240
2.15328870

>  <Name>
ligand

>  <RI>
0

>  <Rbt.Current_Directory>
/home/itssahil/PROJECTS/Mol_Feturizer/Test_systems_manuscript/rnas/3q50

>  <Rbt.Executable>
rbdock ($Id: //depot/dev/client3/rdock/2013.1/src/exe/rbdock.cxx#4 $)

>  <Rbt.Library>
libRbt.so (2013.1, Build901 2013/11/27)

>  <Rbt.Parameter_File>
/export/apps/rDock/src/rDock_2013.1_src/data/scripts/dock_solv.prm

>  <Rbt.Receptor>
prm/pocket_docking_6.prm

>  <SCORE>
-17.3239

>  <SCORE.INTER>
-17.2829

>  <SCORE.INTER.CONST>
1

>  <SCORE.INTER.POLAR>
0

>  <SCORE.INTER.ROT>
1

>  <SCORE.INTER.SOLV>
22.425

>  <SCORE.INTER.VDW>
-23.2636

>  <SCORE.INTER.norm>
-1.32946

>  <SCORE.INTRA>
-0.0409586

>  <SCORE.INTRA.DIHEDRAL>
-0.0261093

>  <SCORE.INTRA.DIHEDRAL.0>
1.65305

>  <SCORE.INTRA.POLAR>
0

>  <SCORE.INTRA.POLAR.0>
0

>  <SCORE.INTRA.REPUL>
0

>  <SCORE.INTRA.REPUL.0>
0

>  <SCORE.INTRA.SOLV>
-0.00354768

>  <SCORE.INTRA.SOLV.lig_0>
-46.9527

>  <SCORE.INTRA.VDW>
-0.0261301

>  <SCORE.INTRA.VDW.0>
-0.177978

>  <SCORE.INTRA.norm>
-0.00315066

>  <SCORE.RESTR>
0

>  <SCORE.RESTR.CAVITY>
0

>  <SCORE.RESTR.norm>
0

>  <SCORE.SYSTEM>
0

>  <SCORE.SYSTEM.CONST>
0

>  <SCORE.SYSTEM.DIHEDRAL>
0

>  <SCORE.SYSTEM.SOLV>
0

>  <SCORE.SYSTEM.norm>
0

>  <SCORE.heavy>
13

>  <SCORE.norm>
-1.33261

>  <RMSD>
0.786

$$$$
ligand
 OpenBabel02271912143D
libRbt.so/2013.1/901 2013/11/27
 13 14  0  0  0  0  0  0  0  0999 V2000
   33.9612   33.6943   22.7448 N   0  0  0  0  0  0  0  0  0  0  0  0
   33.1392   32.6671   23.2435 C   0  0  0  0  0  0  0  0  0  0  0  0
   32.0590   32.2974   22.4532 N   0  0  0  0  0  0  0  0  0  0  0  0
   33.2948   32.0373   24.4329 N   0  0  0  0  0  0  0  0  0  0  0  0
   34.3926   32.5193   25.1394 C   0  0  0  0  0  0  0  0  0  0  0  0
   35.2727   33.5231   24.7170 C   0  0  0  0  0  0  0  0  0  0  0  0
   35.0893   34.1660   23.4840 C   0  0  0  0  0  0  0  0  0  0  0  0
   35.7735   35.0625   23.0128 O   0  0  0  0  0  0  0  0  0  0  0  0
   36.2538   33.7231   25.7151 C   0  0  0  0  0  0  0  0  0  0  0  0
   35.9630   32.8296   26.7342 C   0  0  0  0  0  0  0  0  0  0  0  0
   34.8136   32.0786   26.3807 N   0  0  0  0  0  0  0  0  0  0  0  0
   37.3374   34.7383   25.6161 C   0  0  0  0  0  0  0  0  0  0  0  0
   38.4174   34.4478   26.5721 N   0  0  0  0  0  0  0  0  0  0  0  0
  1  2  1  0  0  0  0
  1  7  1  0  0  0  0
  2  3  1  0  0  0  0
  2  4  2  0  0  0  0
  4  5  1  0  0  0  0
  5  6  2  0  0  0  0
  5 11  1  0  0  0  0
  6  7  1  0  0  0  0
  6  9  1  0  0  0  0
  7  8  2  0  0  0  0
  9 10  2  0  0  0  0
  9 12  1  0  0  0  0
 10 11  1  0  0  0  0
 12 13  1  0  0  0  0
M  END
>  <CHROM.1>
-162.76333656,35.07040153,33.39685710,24.60140179,-2.81788742,0.59215824
2.14944557

>  <Name>
ligand

>  <RI>
0

>  <Rbt.Current_Directory>
/home/itssahil/PROJECTS/Mol_Feturizer/Test_systems_manuscript/rnas/3q50

>  <Rbt.Executable>
rbdock ($Id: //depot/dev/client3/rdock/2013.1/src/exe/rbdock.cxx#4 $)

>  <Rbt.Library>
libRbt.so (2013.1, Build901 2013/11/27)

>  <Rbt.Parameter_File>
/export/apps/rDock/src/rDock_2013.1_src/data/scripts/dock_solv.prm

>  <Rbt.Receptor>
prm/pocket_docking_7.prm

>  <SCORE>
-17.2717

>  <SCORE.INTER>
-17.2472

>  <SCORE.INTER.CONST>
1

>  <SCORE.INTER.POLAR>
0

>  <SCORE.INTER.ROT>
1

>  <SCORE.INTER.SOLV>
22.4106

>  <SCORE.INTER.VDW>
-23.235

>  <SCORE.INTER.norm>
-1.32671

>  <SCORE.INTRA>
-0.024475

>  <SCORE.INTRA.DIHEDRAL>
-0.01864

>  <SCORE.INTRA.DIHEDRAL.0>
1.65305

>  <SCORE.INTRA.POLAR>
0

>  <SCORE.INTRA.POLAR.0>
0

>  <SCORE.INTRA.REPUL>
0

>  <SCORE.INTRA.REPUL.0>
0

>  <SCORE.INTRA.SOLV>
-0.00203603

>  <SCORE.INTRA.SOLV.lig_0>
-46.9527

>  <SCORE.INTRA.VDW>
-0.014137

>  <SCORE.INTRA.VDW.0>
-0.177978

>  <SCORE.INTRA.norm>
-0.00188269

>  <SCORE.RESTR>
0

>  <SCORE.RESTR.CAVITY>
0

>  <SCORE.RESTR.norm>
0

>  <SCORE.SYSTEM>
0

>  <SCORE.SYSTEM.CONST>
0

>  <SCORE.SYSTEM.DIHEDRAL>
0

>  <SCORE.SYSTEM.SOLV>
0

>  <SCORE.SYSTEM.norm>
0

>  <SCORE.heavy>
13

>  <SCORE.norm>
-1.32859

>  <RMSD>
0.786

$$$$
ligand
 OpenBabel02271912143D
libRbt.so/2013.1/901 2013/11/27
 13 14  0  0  0  0  0  0  0  0999 V2000
   33.9694   33.7040   22.7555 N   0  0  0  0  0  0  0  0  0  0  0  0
   33.1443   32.6779   23.2511 C   0  0  0  0  0  0  0  0  0  0  0  0
   32.0639   32.3128   22.4590 N   0  0  0  0  0  0  0  0  0  0  0  0
   33.2972   32.0449   24.4393 N   0  0  0  0  0  0  0  0  0  0  0  0
   34.3956   32.5225   25.1478 C   0  0  0  0  0  0  0  0  0  0  0  0
   35.2786   33.5250   24.7286 C   0  0  0  0  0  0  0  0  0  0  0  0
   35.0981   34.1711   23.4969 C   0  0  0  0  0  0  0  0  0  0  0  0
   35.7850   35.0669   23.0283 O   0  0  0  0  0  0  0  0  0  0  0  0
   36.2593   33.7202   25.7280 C   0  0  0  0  0  0  0  0  0  0  0  0
   35.9652   32.8251   26.7449 C   0  0  0  0  0  0  0  0  0  0  0  0
   34.8142   32.0780   26.3886 N   0  0  0  0  0  0  0  0  0  0  0  0
   37.3457   34.7328   25.6324 C   0  0  0  0  0  0  0  0  0  0  0  0
   38.4771   34.3720   26.5008 N   0  0  0  0  0  0  0  0  0  0  0  0
  1  2  1  0  0  0  0
  1  7  1  0  0  0  0
  2  3  1  0  0  0  0
  2  4  2  0  0  0  0
  4  5  1  0  0  0  0
  5  6  2  0  0  0  0
  5 11  1  0  0  0  0
  6  7  1  0  0  0  0
  6  9  1  0  0  0  0
  7  8  2  0  0  0  0
  9 10  2  0  0  0  0
  9 12  1  0  0  0  0
 10 11  1  0  0  0  0
 12 13  1  0  0  0  0
M  END
>  <CHROM.1>
-157.68466302,35.08045228,33.39419884,24.60533700,-2.81928135,0.58221283
2.15138276

>  <Name>
ligand

>  <RI>
0

>  <Rbt.Current_Directory>
/home/itssahil/PROJECTS/Mol_Feturizer/Test_systems_manuscript/rnas/3q50

>  <Rbt.Executable>
rbdock ($Id: //depot/dev/client3/rdock/2013.1/src/exe/rbdock.cxx#4 $)

>  <Rbt.Library>
libRbt.so (2013.1, Build901 2013/11/27)

>  <Rbt.Parameter_File>
/export/apps/rDock/src/rDock_2013.1_src/data/scripts/dock_solv.prm

>  <Rbt.Receptor>
prm/pocket_docking_7.prm

>  <SCORE>
-17.3324

>  <SCORE.INTER>
-17.2922

>  <SCORE.INTER.CONST>
1

>  <SCORE.INTER.POLAR>
0

>  <SCORE.INTER.ROT>
1

>  <SCORE.INTER.SOLV>
22.4168

>  <SCORE.INTER.VDW>
-23.2671

>  <SCORE.INTER.norm>
-1.33017

>  <SCORE.INTRA>
-0.0402199

>  <SCORE.INTRA.DIHEDRAL>
-0.0258578

>  <SCORE.INTRA.DIHEDRAL.0>
1.65305

>  <SCORE.INTRA.POLAR>
0

>  <SCORE.INTRA.POLAR.0>
0

>  <SCORE.INTRA.REPUL>
0

>  <SCORE.INTRA.REPUL.0>
0

>  <SCORE.INTRA.SOLV>
-0.003477

>  <SCORE.INTRA.SOLV.lig_0>
-46.9527

>  <SCORE.INTRA.VDW>
-0.0255525

>  <SCORE.INTRA.VDW.0>
-0.177978

>  <SCORE.INTRA.norm>
-0.00309384

>  <SCORE.RESTR>
0

>  <SCORE.RESTR.CAVITY>
0

>  <SCORE.RESTR.norm>
0

>  <SCORE.SYSTEM>
0

>  <SCORE.SYSTEM.CONST>
0

>  <SCORE.SYSTEM.DIHEDRAL>
0

>  <SCORE.SYSTEM.SOLV>
0

>  <SCORE.SYSTEM.norm>
0

>  <SCORE.heavy>
13

>  <SCORE.norm>
-1.33326

>  <RMSD>
0.786

$$$$
ligand
 OpenBabel02271912143D
libRbt.so/2013.1/901 2013/11/27
 13 14  0  0  0  0  0  0  0  0999 V2000
   33.9675   33.7025   22.7543 N   0  0  0  0  0  0  0  0  0  0  0  0
   33.1425   32.6769   23.2511 C   0  0  0  0  0  0  0  0  0  0  0  0
   32.0621   32.3108   22.4595 N   0  0  0  0  0  0  0  0  0  0  0  0
   33.2955   32.0453   24.4400 N   0  0  0  0  0  0  0  0  0  0  0  0
   34.3939   32.5238   25.1480 C   0  0  0  0  0  0  0  0  0  0  0  0
   35.2768   33.5259   24.7275 C   0  0  0  0  0  0  0  0  0  0  0  0
   35.0962   34.1706   23.4950 C   0  0  0  0  0  0  0  0  0  0  0  0
   35.7830   35.0659   23.0255 O   0  0  0  0  0  0  0  0  0  0  0  0
   36.2576   33.7223   25.7266 C   0  0  0  0  0  0  0  0  0  0  0  0
   35.9636   32.8284   26.7446 C   0  0  0  0  0  0  0  0  0  0  0  0
   34.8126   32.0807   26.3892 N   0  0  0  0  0  0  0  0  0  0  0  0
   37.3438   34.7349   25.6298 C   0  0  0  0  0  0  0  0  0  0  0  0
   38.4707   34.3811   26.5070 N   0  0  0  0  0  0  0  0  0  0  0  0
  1  2  1  0  0  0  0
  1  7  1  0  0  0  0
  2  3  1  0  0  0  0
  2  4  2  0  0  0  0
  4  5  1  0  0  0  0
  5  6  2  0  0  0  0
  5 11  1  0  0  0  0
  6  7  1  0  0  0  0
  6  9  1  0  0  0  0
  7  8  2  0  0  0  0
  9 10  2  0  0  0  0
  9 12  1  0  0  0  0
 10 11  1  0  0  0  0
 12 13  1  0  0  0  0
M  END
>  <CHROM.1>
-158.16054502,35.07826587,33.39543427,24.60511466,-2.81899947,0.58301022
2.15021672

>  <Name>
ligand

>  <RI>
0

>  <Rbt.Current_Directory>
/home/itssahil/PROJECTS/Mol_Feturizer/Test_systems_manuscript/rnas/3q50

>  <Rbt.Executable>
rbdock ($Id: //depot/dev/client3/rdock/2013.1/src/exe/rbdock.cxx#4 $)

>  <Rbt.Library>
libRbt.so (2013.1, Build901 2013/11/27)

>  <Rbt.Parameter_File>
/export/apps/rDock/src/rDock_2013.1_src/data/scripts/dock_solv.prm

>  <Rbt.Receptor>
prm/pocket_docking_7.prm

>  <SCORE>
-17.3306

>  <SCORE.INTER>
-17.2919

>  <SCORE.INTER.CONST>
1

>  <SCORE.INTER.POLAR>
0

>  <SCORE.INTER.ROT>
1

>  <SCORE.INTER.SOLV>
22.4225

>  <SCORE.INTER.VDW>
-23.2687

>  <SCORE.INTER.norm>
-1.33014

>  <SCORE.INTRA>
-0.0387488

>  <SCORE.INTRA.DIHEDRAL>
-0.0253331

>  <SCORE.INTRA.DIHEDRAL.0>
1.65305

>  <SCORE.INTRA.POLAR>
0

>  <SCORE.INTRA.POLAR.0>
0

>  <SCORE.INTRA.REPUL>
0

>  <SCORE.INTRA.REPUL.0>
0

>  <SCORE.INTRA.SOLV>
-0.00333712

>  <SCORE.INTRA.SOLV.lig_0>
-46.9527

>  <SCORE.INTRA.VDW>
-0.0244138

>  <SCORE.INTRA.VDW.0>
-0.177978

>  <SCORE.INTRA.norm>
-0.00298068

>  <SCORE.RESTR>
0

>  <SCORE.RESTR.CAVITY>
0

>  <SCORE.RESTR.norm>
0

>  <SCORE.SYSTEM>
0

>  <SCORE.SYSTEM.CONST>
0

>  <SCORE.SYSTEM.DIHEDRAL>
0

>  <SCORE.SYSTEM.SOLV>
0

>  <SCORE.SYSTEM.norm>
0

>  <SCORE.heavy>
13

>  <SCORE.norm>
-1.33312

>  <RMSD>
0.786

$$$$
ligand
 OpenBabel02271912143D
libRbt.so/2013.1/901 2013/11/27
 13 14  0  0  0  0  0  0  0  0999 V2000
   33.9705   33.7031   22.7531 N   0  0  0  0  0  0  0  0  0  0  0  0
   33.1562   32.6637   23.2388 C   0  0  0  0  0  0  0  0  0  0  0  0
   32.0831   32.2909   22.4403 N   0  0  0  0  0  0  0  0  0  0  0  0
   33.3125   32.0247   24.4232 N   0  0  0  0  0  0  0  0  0  0  0  0
   34.4025   32.5107   25.1389 C   0  0  0  0  0  0  0  0  0  0  0  0
   35.2748   33.5267   24.7296 C   0  0  0  0  0  0  0  0  0  0  0  0
   35.0908   34.1788   23.5016 C   0  0  0  0  0  0  0  0  0  0  0  0
   35.7684   35.0861   23.0416 O   0  0  0  0  0  0  0  0  0  0  0  0
   36.2496   33.7269   25.7338 C   0  0  0  0  0  0  0  0  0  0  0  0
   35.9627   32.8215   26.7436 C   0  0  0  0  0  0  0  0  0  0  0  0
   34.8221   32.0629   26.3781 N   0  0  0  0  0  0  0  0  0  0  0  0
   37.3239   34.7532   25.6489 C   0  0  0  0  0  0  0  0  0  0  0  0
   38.4831   34.3683   26.4690 N   0  0  0  0  0  0  0  0  0  0  0  0
  1  2  1  0  0  0  0
  1  7  1  0  0  0  0
  2  3  1  0  0  0  0
  2  4  2  0  0  0  0
  4  5  1  0  0  0  0
  5  6  2  0  0  0  0
  5 11  1  0  0  0  0
  6  7  1  0  0  0  0
  6  9  1  0  0  0  0
  7  8  2  0  0  0  0
  9 10  2  0  0  0  0
  9 12  1  0  0  0  0
 10 11  1  0  0  0  0
 12 13  1  0  0  0  0
M  END
>  <CHROM.1>
-154.97736531,35.08083988,33.39168096,24.60068521,-2.82611933,0.58994549
2.16100383

>  <Name>
ligand

>  <RI>
0

>  <Rbt.Current_Directory>
/home/itssahil/PROJECTS/Mol_Feturizer/Test_systems_manuscript/rnas/3q50

>  <Rbt.Executable>
rbdock ($Id: //depot/dev/client3/rdock/2013.1/src/exe/rbdock.cxx#4 $)

>  <Rbt.Library>
libRbt.so (2013.1, Build901 2013/11/27)

>  <Rbt.Parameter_File>
/export/apps/rDock/src/rDock_2013.1_src/data/scripts/dock_solv.prm

>  <Rbt.Receptor>
prm/pocket_docking_8.prm

>  <SCORE>
-17.2376

>  <SCORE.INTER>
-17.1891

>  <SCORE.INTER.CONST>
1

>  <SCORE.INTER.POLAR>
0

>  <SCORE.INTER.ROT>
1

>  <SCORE.INTER.SOLV>
22.415

>  <SCORE.INTER.VDW>
-23.1977

>  <SCORE.INTER.norm>
-1.32224

>  <SCORE.INTRA>
-0.048497

>  <SCORE.INTRA.DIHEDRAL>
-0.0282104

>  <SCORE.INTRA.DIHEDRAL.0>
1.65305

>  <SCORE.INTRA.POLAR>
0

>  <SCORE.INTRA.POLAR.0>
0

>  <SCORE.INTRA.REPUL>
0

>  <SCORE.INTRA.REPUL.0>
0

>  <SCORE.INTRA.SOLV>
-0.00428672

>  <SCORE.INTRA.SOLV.lig_0>
-46.9527

>  <SCORE.INTRA.VDW>
-0.0322484

>  <SCORE.INTRA.VDW.0>
-0.177978

>  <SCORE.INTRA.norm>
-0.00373054

>  <SCORE.RESTR>
0

>  <SCORE.RESTR.CAVITY>
0

>  <SCORE.RESTR.norm>
0

>  <SCORE.SYSTEM>
0

>  <SCORE.SYSTEM.CONST>
0

>  <SCORE.SYSTEM.DIHEDRAL>
0

>  <SCORE.SYSTEM.SOLV>
0

>  <SCORE.SYSTEM.norm>
0

>  <SCORE.heavy>
13

>  <SCORE.norm>
-1.32597

>  <RMSD>
0.786

$$$$
ligand
 OpenBabel02271912143D
libRbt.so/2013.1/901 2013/11/27
 13 14  0  0  0  0  0  0  0  0999 V2000
   33.9751   33.6907   22.7362 N   0  0  0  0  0  0  0  0  0  0  0  0
   33.1569   32.6578   23.2291 C   0  0  0  0  0  0  0  0  0  0  0  0
   32.0836   32.2821   22.4322 N   0  0  0  0  0  0  0  0  0  0  0  0
   33.3097   32.0275   24.4187 N   0  0  0  0  0  0  0  0  0  0  0  0
   34.4004   32.5156   25.1319 C   0  0  0  0  0  0  0  0  0  0  0  0
   35.2764   33.5256   24.7158 C   0  0  0  0  0  0  0  0  0  0  0  0
   35.0960   34.1686   23.4824 C   0  0  0  0  0  0  0  0  0  0  0  0
   35.7771   35.0701   23.0162 O   0  0  0  0  0  0  0  0  0  0  0  0
   36.2506   33.7306   25.7196 C   0  0  0  0  0  0  0  0  0  0  0  0
   35.9596   32.8341   26.7361 C   0  0  0  0  0  0  0  0  0  0  0  0
   34.8170   32.0762   26.3752 N   0  0  0  0  0  0  0  0  0  0  0  0
   37.3283   34.7528   25.6280 C   0  0  0  0  0  0  0  0  0  0  0  0
   38.4561   34.4063   26.5070 N   0  0  0  0  0  0  0  0  0  0  0  0
  1  2  1  0  0  0  0
  1  7  1  0  0  0  0
  2  3  1  0  0  0  0
  2  4  2  0  0  0  0
  4  5  1  0  0  0  0
  5  6  2  0  0  0  0
  5 11  1  0  0  0  0
  6  7  1  0  0  0  0
  6  9  1  0  0  0  0
  7  8  2  0  0  0  0
  9 10  2  0  0  0  0
  9 12  1  0  0  0  0
 10 11  1  0  0  0  0
 12 13  1  0  0  0  0
M  END
>  <CHROM.1>
-157.95005876,35.07981835,33.39311807,24.59209941,-2.82014517,0.59273376
2.15081487

>  <Name>
ligand

>  <RI>
0

>  <Rbt.Current_Directory>
/home/itssahil/PROJECTS/Mol_Feturizer/Test_systems_manuscript/rnas/3q50

>  <Rbt.Executable>
rbdock ($Id: //depot/dev/client3/rdock/2013.1/src/exe/rbdock.cxx#4 $)

>  <Rbt.Library>
libRbt.so (2013.1, Build901 2013/11/27)

>  <Rbt.Parameter_File>
/export/apps/rDock/src/rDock_2013.1_src/data/scripts/dock_solv.prm

>  <Rbt.Receptor>
prm/pocket_docking_2.prm

>  <SCORE>
-17.2795

>  <SCORE.INTER>
-17.2401

>  <SCORE.INTER.CONST>
1

>  <SCORE.INTER.POLAR>
0

>  <SCORE.INTER.ROT>
1

>  <SCORE.INTER.SOLV>
22.4141

>  <SCORE.INTER.VDW>
-23.2314

>  <SCORE.INTER.norm>
-1.32616

>  <SCORE.INTRA>
-0.0393999

>  <SCORE.INTRA.DIHEDRAL>
-0.0255692

>  <SCORE.INTRA.DIHEDRAL.0>
1.65305

>  <SCORE.INTRA.POLAR>
0

>  <SCORE.INTRA.POLAR.0>
0

>  <SCORE.INTRA.REPUL>
0

>  <SCORE.INTRA.REPUL.0>
0

>  <SCORE.INTRA.SOLV>
-0.00339889

>  <SCORE.INTRA.SOLV.lig_0>
-46.9527

>  <SCORE.INTRA.VDW>
-0.0249159

>  <SCORE.INTRA.VDW.0>
-0.177978

>  <SCORE.INTRA.norm>
-0.00303076

>  <SCORE.RESTR>
0

>  <SCORE.RESTR.CAVITY>
0

>  <SCORE.RESTR.norm>
0

>  <SCORE.SYSTEM>
0

>  <SCORE.SYSTEM.CONST>
0

>  <SCORE.SYSTEM.DIHEDRAL>
0

>  <SCORE.SYSTEM.SOLV>
0

>  <SCORE.SYSTEM.norm>
0

>  <SCORE.heavy>
13

>  <SCORE.norm>
-1.32919

>  <RMSD>
0.787

$$$$
ligand
 OpenBabel02271912143D
libRbt.so/2013.1/901 2013/11/27
 13 14  0  0  0  0  0  0  0  0999 V2000
   33.9709   33.7039   22.7529 N   0  0  0  0  0  0  0  0  0  0  0  0
   33.1465   32.6767   23.2473 C   0  0  0  0  0  0  0  0  0  0  0  0
   32.0665   32.3115   22.4547 N   0  0  0  0  0  0  0  0  0  0  0  0
   33.2996   32.0428   24.4349 N   0  0  0  0  0  0  0  0  0  0  0  0
   34.3975   32.5205   25.1441 C   0  0  0  0  0  0  0  0  0  0  0  0
   35.2798   33.5241   24.7261 C   0  0  0  0  0  0  0  0  0  0  0  0
   35.0991   34.1712   23.4949 C   0  0  0  0  0  0  0  0  0  0  0  0
   35.7854   35.0680   23.0273 O   0  0  0  0  0  0  0  0  0  0  0  0
   36.2602   33.7191   25.7258 C   0  0  0  0  0  0  0  0  0  0  0  0
   35.9666   32.8228   26.7418 C   0  0  0  0  0  0  0  0  0  0  0  0
   34.8162   32.0751   26.3846 N   0  0  0  0  0  0  0  0  0  0  0  0
   37.3458   34.7326   25.6314 C   0  0  0  0  0  0  0  0  0  0  0  0
   38.4770   34.3723   26.5004 N   0  0  0  0  0  0  0  0  0  0  0  0
  1  2  1  0  0  0  0
  1  7  1  0  0  0  0
  2  3  1  0  0  0  0
  2  4  2  0  0  0  0
  4  5  1  0  0  0  0
  5  6  2  0  0  0  0
  5 11  1  0  0  0  0
  6  7  1  0  0  0  0
  6  9  1  0  0  0  0
  7  8  2  0  0  0  0
  9 10  2  0  0  0  0
  9 12  1  0  0  0  0
 10 11  1  0  0  0  0
 12 13  1  0  0  0  0
M  END
>  <CHROM.1>
-157.72603203,35.08177955,33.39329114,24.60267944,-2.81955439,0.58302284
2.15249418

>  <Name>
ligand

>  <RI>
0

>  <Rbt.Current_Directory>
/home/itssahil/PROJECTS/Mol_Feturizer/Test_systems_manuscript/rnas/3q50

>  <Rbt.Executable>
rbdock ($Id: //depot/dev/client3/rdock/2013.1/src/exe/rbdock.cxx#4 $)

>  <Rbt.Library>
libRbt.so (2013.1, Build901 2013/11/27)

>  <Rbt.Parameter_File>
/export/apps/rDock/src/rDock_2013.1_src/data/scripts/dock_solv.prm

>  <Rbt.Receptor>
prm/pocket_docking_6.prm

>  <SCORE>
-17.3282

>  <SCORE.INTER>
-17.2881

>  <SCORE.INTER.CONST>
1

>  <SCORE.INTER.POLAR>
0

>  <SCORE.INTER.ROT>
1

>  <SCORE.INTER.SOLV>
22.4116

>  <SCORE.INTER.VDW>
-23.2626

>  <SCORE.INTER.norm>
-1.32985

>  <SCORE.INTRA>
-0.0400922

>  <SCORE.INTRA.DIHEDRAL>
-0.0258134

>  <SCORE.INTRA.DIHEDRAL.0>
1.65305

>  <SCORE.INTRA.POLAR>
0

>  <SCORE.INTRA.POLAR.0>
0

>  <SCORE.INTRA.REPUL>
0

>  <SCORE.INTRA.REPUL.0>
0

>  <SCORE.INTRA.SOLV>
-0.00346481

>  <SCORE.INTRA.SOLV.lig_0>
-46.9527

>  <SCORE.INTRA.VDW>
-0.0254531

>  <SCORE.INTRA.VDW.0>
-0.177978

>  <SCORE.INTRA.norm>
-0.00308401

>  <SCORE.RESTR>
0

>  <SCORE.RESTR.CAVITY>
0

>  <SCORE.RESTR.norm>
0

>  <SCORE.SYSTEM>
0

>  <SCORE.SYSTEM.CONST>
0

>  <SCORE.SYSTEM.DIHEDRAL>
0

>  <SCORE.SYSTEM.SOLV>
0

>  <SCORE.SYSTEM.norm>
0

>  <SCORE.heavy>
13

>  <SCORE.norm>
-1.33294

>  <RMSD>
0.787

$$$$
ligand
 OpenBabel02271912143D
libRbt.so/2013.1/901 2013/11/27
 13 14  0  0  0  0  0  0  0  0999 V2000
   33.9730   33.7047   22.7560 N   0  0  0  0  0  0  0  0  0  0  0  0
   33.1479   32.6777   23.2497 C   0  0  0  0  0  0  0  0  0  0  0  0
   32.0684   32.3130   22.4561 N   0  0  0  0  0  0  0  0  0  0  0  0
   33.2999   32.0434   24.4372 N   0  0  0  0  0  0  0  0  0  0  0  0
   34.3974   32.5206   25.1473 C   0  0  0  0  0  0  0  0  0  0  0  0
   35.2804   33.5240   24.7301 C   0  0  0  0  0  0  0  0  0  0  0  0
   35.1007   34.1714   23.4989 C   0  0  0  0  0  0  0  0  0  0  0  0
   35.7877   35.0681   23.0321 O   0  0  0  0  0  0  0  0  0  0  0  0
   36.2602   33.7184   25.7306 C   0  0  0  0  0  0  0  0  0  0  0  0
   35.9655   32.8221   26.7462 C   0  0  0  0  0  0  0  0  0  0  0  0
   34.8151   32.0748   26.3880 N   0  0  0  0  0  0  0  0  0  0  0  0
   37.3461   34.7317   25.6372 C   0  0  0  0  0  0  0  0  0  0  0  0
   38.4911   34.3528   26.4798 N   0  0  0  0  0  0  0  0  0  0  0  0
  1  2  1  0  0  0  0
  1  7  1  0  0  0  0
  2  3  1  0  0  0  0
  2  4  2  0  0  0  0
  4  5  1  0  0  0  0
  5  6  2  0  0  0  0
  5 11  1  0  0  0  0
  6  7  1  0  0  0  0
  6  9  1  0  0  0  0
  7  8  2  0  0  0  0
  9 10  2  0  0  0  0
  9 12  1  0  0  0  0
 10 11  1  0  0  0  0
 12 13  1  0  0  0  0
M  END
>  <CHROM.1>
-156.24183522,35.08357905,33.39182702,24.60435205,-2.81990271,0.58076187
2.15244873

>  <Name>
ligand

>  <RI>
0

>  <Rbt.Current_Directory>
/home/itssahil/PROJECTS/Mol_Feturizer/Test_systems_manuscript/rnas/3q50

>  <Rbt.Executable>
rbdock ($Id: //depot/dev/client3/rdock/2013.1/src/exe/rbdock.cxx#4 $)

>  <Rbt.Library>
libRbt.so (2013.1, Build901 2013/11/27)

>  <Rbt.Parameter_File>
/export/apps/rDock/src/rDock_2013.1_src/data/scripts/dock_solv.prm

>  <Rbt.Receptor>
prm/pocket_docking_7.prm

>  <SCORE>
-17.3355

>  <SCORE.INTER>
-17.2908

>  <SCORE.INTER.CONST>
1

>  <SCORE.INTER.POLAR>
0

>  <SCORE.INTER.ROT>
1

>  <SCORE.INTER.SOLV>
22.4175

>  <SCORE.INTER.VDW>
-23.2664

>  <SCORE.INTER.norm>
-1.33007

>  <SCORE.INTRA>
-0.0446543

>  <SCORE.INTRA.DIHEDRAL>
-0.0272469

>  <SCORE.INTRA.DIHEDRAL.0>
1.65305

>  <SCORE.INTRA.POLAR>
0

>  <SCORE.INTRA.POLAR.0>
0

>  <SCORE.INTRA.REPUL>
0

>  <SCORE.INTRA.REPUL.0>
0

>  <SCORE.INTRA.SOLV>
-0.00390586

>  <SCORE.INTRA.SOLV.lig_0>
-46.9527

>  <SCORE.INTRA.VDW>
-0.0290779

>  <SCORE.INTRA.VDW.0>
-0.177978

>  <SCORE.INTRA.norm>
-0.00343494

>  <SCORE.RESTR>
0

>  <SCORE.RESTR.CAVITY>
0

>  <SCORE.RESTR.norm>
0

>  <SCORE.SYSTEM>
0

>  <SCORE.SYSTEM.CONST>
0

>  <SCORE.SYSTEM.DIHEDRAL>
0

>  <SCORE.SYSTEM.SOLV>
0

>  <SCORE.SYSTEM.norm>
0

>  <SCORE.heavy>
13

>  <SCORE.norm>
-1.3335

>  <RMSD>
0.787

$$$$
ligand
 OpenBabel02271912143D
libRbt.so/2013.1/901 2013/11/27
 13 14  0  0  0  0  0  0  0  0999 V2000
   33.9709   33.7058   22.7577 N   0  0  0  0  0  0  0  0  0  0  0  0
   33.1451   32.6799   23.2525 C   0  0  0  0  0  0  0  0  0  0  0  0
   32.0644   32.3161   22.4602 N   0  0  0  0  0  0  0  0  0  0  0  0
   33.2976   32.0458   24.4402 N   0  0  0  0  0  0  0  0  0  0  0  0
   34.3964   32.5221   25.1490 C   0  0  0  0  0  0  0  0  0  0  0  0
   35.2801   33.5243   24.7306 C   0  0  0  0  0  0  0  0  0  0  0  0
   35.0999   34.1715   23.4993 C   0  0  0  0  0  0  0  0  0  0  0  0
   35.7874   35.0673   23.0315 O   0  0  0  0  0  0  0  0  0  0  0  0
   36.2610   33.7180   25.7301 C   0  0  0  0  0  0  0  0  0  0  0  0
   35.9663   32.8223   26.7462 C   0  0  0  0  0  0  0  0  0  0  0  0
   34.8148   32.0762   26.3894 N   0  0  0  0  0  0  0  0  0  0  0  0
   37.3480   34.7300   25.6352 C   0  0  0  0  0  0  0  0  0  0  0  0
   38.4949   34.3481   26.4738 N   0  0  0  0  0  0  0  0  0  0  0  0
  1  2  1  0  0  0  0
  1  7  1  0  0  0  0
  2  3  1  0  0  0  0
  2  4  2  0  0  0  0
  4  5  1  0  0  0  0
  5  6  2  0  0  0  0
  5 11  1  0  0  0  0
  6  7  1  0  0  0  0
  6  9  1  0  0  0  0
  7  8  2  0  0  0  0
  9 10  2  0  0  0  0
  9 12  1  0  0  0  0
 10 11  1  0  0  0  0
 12 13  1  0  0  0  0
M  END
>  <CHROM.1>
-156.08028640,35.08307105,33.39216010,24.60481909,-2.82028604,0.57901567
2.15224142

>  <Name>
ligand

>  <RI>
0

>  <Rbt.Current_Directory>
/home/itssahil/PROJECTS/Mol_Feturizer/Test_systems_manuscript/rnas/3q50

>  <Rbt.Executable>
rbdock ($Id: //depot/dev/client3/rdock/2013.1/src/exe/rbdock.cxx#4 $)

>  <Rbt.Library>
libRbt.so (2013.1, Build901 2013/11/27)

>  <Rbt.Parameter_File>
/export/apps/rDock/src/rDock_2013.1_src/data/scripts/dock_solv.prm

>  <Rbt.Receptor>
prm/pocket_docking_7.prm

>  <SCORE>
-17.3346

>  <SCORE.INTER>
-17.2895

>  <SCORE.INTER.CONST>
1

>  <SCORE.INTER.POLAR>
0

>  <SCORE.INTER.ROT>
1

>  <SCORE.INTER.SOLV>
22.427

>  <SCORE.INTER.VDW>
-23.2687

>  <SCORE.INTER.norm>
-1.32996

>  <SCORE.INTRA>
-0.0451478

>  <SCORE.INTRA.DIHEDRAL>
-0.0273834

>  <SCORE.INTRA.DIHEDRAL.0>
1.65305

>  <SCORE.INTRA.POLAR>
0

>  <SCORE.INTRA.POLAR.0>
0

>  <SCORE.INTRA.REPUL>
0

>  <SCORE.INTRA.REPUL.0>
0

>  <SCORE.INTRA.SOLV>
-0.00395428

>  <SCORE.INTRA.SOLV.lig_0>
-46.9527

>  <SCORE.INTRA.VDW>
-0.0294789

>  <SCORE.INTRA.VDW.0>
-0.177978

>  <SCORE.INTRA.norm>
-0.0034729

>  <SCORE.RESTR>
0

>  <SCORE.RESTR.CAVITY>
0

>  <SCORE.RESTR.norm>
0

>  <SCORE.SYSTEM>
0

>  <SCORE.SYSTEM.CONST>
0

>  <SCORE.SYSTEM.DIHEDRAL>
0

>  <SCORE.SYSTEM.SOLV>
0

>  <SCORE.SYSTEM.norm>
0

>  <SCORE.heavy>
13

>  <SCORE.norm>
-1.33343

>  <RMSD>
0.787

$$$$
ligand
 OpenBabel02271912143D
libRbt.so/2013.1/901 2013/11/27
 13 14  0  0  0  0  0  0  0  0999 V2000
   33.9686   33.7027   22.7546 N   0  0  0  0  0  0  0  0  0  0  0  0
   33.1432   32.6773   23.2511 C   0  0  0  0  0  0  0  0  0  0  0  0
   32.0627   32.3118   22.4592 N   0  0  0  0  0  0  0  0  0  0  0  0
   33.2957   32.0455   24.4399 N   0  0  0  0  0  0  0  0  0  0  0  0
   34.3942   32.5234   25.1481 C   0  0  0  0  0  0  0  0  0  0  0  0
   35.2776   33.5253   24.7280 C   0  0  0  0  0  0  0  0  0  0  0  0
   35.0974   34.1702   23.4956 C   0  0  0  0  0  0  0  0  0  0  0  0
   35.7846   35.0654   23.0263 O   0  0  0  0  0  0  0  0  0  0  0  0
   36.2583   33.7211   25.7273 C   0  0  0  0  0  0  0  0  0  0  0  0
   35.9638   32.8271   26.7450 C   0  0  0  0  0  0  0  0  0  0  0  0
   34.8126   32.0799   26.3893 N   0  0  0  0  0  0  0  0  0  0  0  0
   37.3450   34.7333   25.6308 C   0  0  0  0  0  0  0  0  0  0  0  0
   38.4790   34.3694   26.4945 N   0  0  0  0  0  0  0  0  0  0  0  0
  1  2  1  0  0  0  0
  1  7  1  0  0  0  0
  2  3  1  0  0  0  0
  2  4  2  0  0  0  0
  4  5  1  0  0  0  0
  5  6  2  0  0  0  0
  5 11  1  0  0  0  0
  6  7  1  0  0  0  0
  6  9  1  0  0  0  0
  7  8  2  0  0  0  0
  9 10  2  0  0  0  0
  9 12  1  0  0  0  0
 10 11  1  0  0  0  0
 12 13  1  0  0  0  0
M  END
>  <CHROM.1>
-157.40267971,35.07962224,33.39408673,24.60439067,-2.81923280,0.58154250
2.15031003

>  <Name>
ligand

>  <RI>
0

>  <Rbt.Current_Directory>
/home/itssahil/PROJECTS/Mol_Feturizer/Test_systems_manuscript/rnas/3q50

>  <Rbt.Executable>
rbdock ($Id: //depot/dev/client3/rdock/2013.1/src/exe/rbdock.cxx#4 $)

>  <Rbt.Library>
libRbt.so (2013.1, Build901 2013/11/27)

>  <Rbt.Parameter_File>
/export/apps/rDock/src/rDock_2013.1_src/data/scripts/dock_solv.prm

>  <Rbt.Receptor>
prm/pocket_docking_8.prm

>  <SCORE>
-17.3313

>  <SCORE.INTER>
-17.2902

>  <SCORE.INTER.CONST>
1

>  <SCORE.INTER.POLAR>
0

>  <SCORE.INTER.ROT>
1

>  <SCORE.INTER.SOLV>
22.4267

>  <SCORE.INTER.VDW>
-23.269

>  <SCORE.INTER.norm>
-1.33002

>  <SCORE.INTRA>
-0.0410899

>  <SCORE.INTRA.DIHEDRAL>
-0.0261532

>  <SCORE.INTRA.DIHEDRAL.0>
1.65305

>  <SCORE.INTRA.POLAR>
0

>  <SCORE.INTRA.POLAR.0>
0

>  <SCORE.INTRA.REPUL>
0

>  <SCORE.INTRA.REPUL.0>
0

>  <SCORE.INTRA.SOLV>
-0.00356027

>  <SCORE.INTRA.SOLV.lig_0>
-46.9527

>  <SCORE.INTRA.VDW>
-0.0262331

>  <SCORE.INTRA.VDW.0>
-0.177978

>  <SCORE.INTRA.norm>
-0.00316076

>  <SCORE.RESTR>
0

>  <SCORE.RESTR.CAVITY>
0

>  <SCORE.RESTR.norm>
0

>  <SCORE.SYSTEM>
0

>  <SCORE.SYSTEM.CONST>
0

>  <SCORE.SYSTEM.DIHEDRAL>
0

>  <SCORE.SYSTEM.SOLV>
0

>  <SCORE.SYSTEM.norm>
0

>  <SCORE.heavy>
13

>  <SCORE.norm>
-1.33318

>  <RMSD>
0.787

$$$$
ligand
 OpenBabel02271912143D
libRbt.so/2013.1/901 2013/11/27
 13 14  0  0  0  0  0  0  0  0999 V2000
   33.9744   33.6943   22.7409 N   0  0  0  0  0  0  0  0  0  0  0  0
   33.1524   32.6651   23.2350 C   0  0  0  0  0  0  0  0  0  0  0  0
   32.0773   32.2929   22.4390 N   0  0  0  0  0  0  0  0  0  0  0  0
   33.3032   32.0353   24.4252 N   0  0  0  0  0  0  0  0  0  0  0  0
   34.3961   32.5199   25.1375 C   0  0  0  0  0  0  0  0  0  0  0  0
   35.2759   33.5260   24.7200 C   0  0  0  0  0  0  0  0  0  0  0  0
   35.0975   34.1686   23.4862 C   0  0  0  0  0  0  0  0  0  0  0  0
   35.7819   35.0669   23.0188 O   0  0  0  0  0  0  0  0  0  0  0  0
   36.2513   33.7281   25.7233 C   0  0  0  0  0  0  0  0  0  0  0  0
   35.9572   32.8337   26.7407 C   0  0  0  0  0  0  0  0  0  0  0  0
   34.8115   32.0800   26.3810 N   0  0  0  0  0  0  0  0  0  0  0  0
   37.3329   34.7460   25.6303 C   0  0  0  0  0  0  0  0  0  0  0  0
   38.4560   34.4005   26.5156 N   0  0  0  0  0  0  0  0  0  0  0  0
  1  2  1  0  0  0  0
  1  7  1  0  0  0  0
  2  3  1  0  0  0  0
  2  4  2  0  0  0  0
  4  5  1  0  0  0  0
  5  6  2  0  0  0  0
  5 11  1  0  0  0  0
  6  7  1  0  0  0  0
  6  9  1  0  0  0  0
  7  8  2  0  0  0  0
  9 10  2  0  0  0  0
  9 12  1  0  0  0  0
 10 11  1  0  0  0  0
 12 13  1  0  0  0  0
M  END
>  <CHROM.1>
-158.31967792,35.07842387,33.39456021,24.59709628,-2.81767923,0.58982406
2.14860021

>  <Name>
ligand

>  <RI>
0

>  <Rbt.Current_Directory>
/home/itssahil/PROJECTS/Mol_Feturizer/Test_systems_manuscript/rnas/3q50

>  <Rbt.Executable>
rbdock ($Id: //depot/dev/client3/rdock/2013.1/src/exe/rbdock.cxx#4 $)

>  <Rbt.Library>
libRbt.so (2013.1, Build901 2013/11/27)

>  <Rbt.Parameter_File>
/export/apps/rDock/src/rDock_2013.1_src/data/scripts/dock_solv.prm

>  <Rbt.Receptor>
prm/pocket_docking_3.prm

>  <SCORE>
-17.286

>  <SCORE.INTER>
-17.2477

>  <SCORE.INTER.CONST>
1

>  <SCORE.INTER.POLAR>
0

>  <SCORE.INTER.ROT>
1

>  <SCORE.INTER.SOLV>
22.4104

>  <SCORE.INTER.VDW>
-23.2353

>  <SCORE.INTER.norm>
-1.32675

>  <SCORE.INTRA>
-0.0382562

>  <SCORE.INTRA.DIHEDRAL>
-0.0251503

>  <SCORE.INTRA.DIHEDRAL.0>
1.65305

>  <SCORE.INTRA.POLAR>
0

>  <SCORE.INTRA.POLAR.0>
0

>  <SCORE.INTRA.REPUL>
0

>  <SCORE.INTRA.REPUL.0>
0

>  <SCORE.INTRA.SOLV>
-0.00329054

>  <SCORE.INTRA.SOLV.lig_0>
-46.9527

>  <SCORE.INTRA.VDW>
-0.0240358

>  <SCORE.INTRA.VDW.0>
-0.177978

>  <SCORE.INTRA.norm>
-0.00294279

>  <SCORE.RESTR>
0

>  <SCORE.RESTR.CAVITY>
0

>  <SCORE.RESTR.norm>
0

>  <SCORE.SYSTEM>
0

>  <SCORE.SYSTEM.CONST>
0

>  <SCORE.SYSTEM.DIHEDRAL>
0

>  <SCORE.SYSTEM.SOLV>
0

>  <SCORE.SYSTEM.norm>
0

>  <SCORE.heavy>
13

>  <SCORE.norm>
-1.32969

>  <RMSD>
0.788

$$$$
ligand
 OpenBabel02271912143D
libRbt.so/2013.1/901 2013/11/27
 13 14  0  0  0  0  0  0  0  0999 V2000
   33.9660   33.7000   22.7505 N   0  0  0  0  0  0  0  0  0  0  0  0
   33.1418   32.6745   23.2490 C   0  0  0  0  0  0  0  0  0  0  0  0
   32.0608   32.3073   22.4586 N   0  0  0  0  0  0  0  0  0  0  0  0
   33.2960   32.0441   24.4383 N   0  0  0  0  0  0  0  0  0  0  0  0
   34.3948   32.5236   25.1449 C   0  0  0  0  0  0  0  0  0  0  0  0
   35.2770   33.5257   24.7228 C   0  0  0  0  0  0  0  0  0  0  0  0
   35.0951   34.1691   23.4899 C   0  0  0  0  0  0  0  0  0  0  0  0
   35.7812   35.0643   23.0189 O   0  0  0  0  0  0  0  0  0  0  0  0
   36.2585   33.7233   25.7209 C   0  0  0  0  0  0  0  0  0  0  0  0
   35.9657   32.8303   26.7399 C   0  0  0  0  0  0  0  0  0  0  0  0
   34.8147   32.0819   26.3862 N   0  0  0  0  0  0  0  0  0  0  0  0
   37.3443   34.7363   25.6222 C   0  0  0  0  0  0  0  0  0  0  0  0
   38.4849   34.3675   26.4753 N   0  0  0  0  0  0  0  0  0  0  0  0
  1  2  1  0  0  0  0
  1  7  1  0  0  0  0
  2  3  1  0  0  0  0
  2  4  2  0  0  0  0
  4  5  1  0  0  0  0
  5  6  2  0  0  0  0
  5 11  1  0  0  0  0
  6  7  1  0  0  0  0
  6  9  1  0  0  0  0
  7  8  2  0  0  0  0
  9 10  2  0  0  0  0
  9 12  1  0  0  0  0
 10 11  1  0  0  0  0
 12 13  1  0  0  0  0
M  END
>  <CHROM.1>
-156.85600221,35.07944192,33.39369685,24.59876049,-2.82114916,0.58074159
2.15005178

>  <Name>
ligand

>  <RI>
0

>  <Rbt.Current_Directory>
/home/itssahil/PROJECTS/Mol_Feturizer/Test_systems_manuscript/rnas/3q50

>  <Rbt.Executable>
rbdock ($Id: //depot/dev/client3/rdock/2013.1/src/exe/rbdock.cxx#4 $)

>  <Rbt.Library>
libRbt.so (2013.1, Build901 2013/11/27)

>  <Rbt.Parameter_File>
/export/apps/rDock/src/rDock_2013.1_src/data/scripts/dock_solv.prm

>  <Rbt.Receptor>
prm/pocket_docking_3.prm

>  <SCORE>
-17.3235

>  <SCORE.INTER>
-17.2807

>  <SCORE.INTER.CONST>
1

>  <SCORE.INTER.POLAR>
0

>  <SCORE.INTER.ROT>
1

>  <SCORE.INTER.SOLV>
22.4532

>  <SCORE.INTER.VDW>
-23.2716

>  <SCORE.INTER.norm>
-1.32929

>  <SCORE.INTRA>
-0.0427722

>  <SCORE.INTRA.DIHEDRAL>
-0.026693

>  <SCORE.INTRA.DIHEDRAL.0>
1.65305

>  <SCORE.INTRA.POLAR>
0

>  <SCORE.INTRA.POLAR.0>
0

>  <SCORE.INTRA.REPUL>
0

>  <SCORE.INTRA.REPUL.0>
0

>  <SCORE.INTRA.SOLV>
-0.00372249

>  <SCORE.INTRA.SOLV.lig_0>
-46.9527

>  <SCORE.INTRA.VDW>
-0.0275644

>  <SCORE.INTRA.VDW.0>
-0.177978

>  <SCORE.INTRA.norm>
-0.00329017

>  <SCORE.RESTR>
0

>  <SCORE.RESTR.CAVITY>
0

>  <SCORE.RESTR.norm>
0

>  <SCORE.SYSTEM>
0

>  <SCORE.SYSTEM.CONST>
0

>  <SCORE.SYSTEM.DIHEDRAL>
0

>  <SCORE.SYSTEM.SOLV>
0

>  <SCORE.SYSTEM.norm>
0

>  <SCORE.heavy>
13

>  <SCORE.norm>
-1.33258

>  <RMSD>
0.788

$$$$
ligand
 OpenBabel02271912143D
libRbt.so/2013.1/901 2013/11/27
 13 14  0  0  0  0  0  0  0  0999 V2000
   33.9699   33.7053   22.7563 N   0  0  0  0  0  0  0  0  0  0  0  0
   33.1444   32.6790   23.2509 C   0  0  0  0  0  0  0  0  0  0  0  0
   32.0642   32.3147   22.4583 N   0  0  0  0  0  0  0  0  0  0  0  0
   33.2968   32.0451   24.4387 N   0  0  0  0  0  0  0  0  0  0  0  0
   34.3951   32.5219   25.1479 C   0  0  0  0  0  0  0  0  0  0  0  0
   35.2785   33.5246   24.7296 C   0  0  0  0  0  0  0  0  0  0  0  0
   35.0984   34.1716   23.4983 C   0  0  0  0  0  0  0  0  0  0  0  0
   35.7857   35.0677   23.0306 O   0  0  0  0  0  0  0  0  0  0  0  0
   36.2590   33.7188   25.7294 C   0  0  0  0  0  0  0  0  0  0  0  0
   35.9644   32.8231   26.7456 C   0  0  0  0  0  0  0  0  0  0  0  0
   34.8133   32.0764   26.3884 N   0  0  0  0  0  0  0  0  0  0  0  0
   37.3456   34.7313   25.6348 C   0  0  0  0  0  0  0  0  0  0  0  0
   38.4923   34.3502   26.4740 N   0  0  0  0  0  0  0  0  0  0  0  0
  1  2  1  0  0  0  0
  1  7  1  0  0  0  0
  2  3  1  0  0  0  0
  2  4  2  0  0  0  0
  4  5  1  0  0  0  0
  5  6  2  0  0  0  0
  5 11  1  0  0  0  0
  6  7  1  0  0  0  0
  6  9  1  0  0  0  0
  7  8  2  0  0  0  0
  9 10  2  0  0  0  0
  9 12  1  0  0  0  0
 10 11  1  0  0  0  0
 12 13  1  0  0  0  0
M  END
>  <CHROM.1>
-156.08720911,35.08160678,33.39233882,24.60381957,-2.82025767,0.57961283
2.15215219

>  <Name>
ligand

>  <RI>
0

>  <Rbt.Current_Directory>
/home/itssahil/PROJECTS/Mol_Feturizer/Test_systems_manuscript/rnas/3q50

>  <Rbt.Executable>
rbdock ($Id: //depot/dev/client3/rdock/2013.1/src/exe/rbdock.cxx#4 $)

>  <Rbt.Library>
libRbt.so (2013.1, Build901 2013/11/27)

>  <Rbt.Parameter_File>
/export/apps/rDock/src/rDock_2013.1_src/data/scripts/dock_solv.prm

>  <Rbt.Receptor>
prm/pocket_docking_7.prm

>  <SCORE>
-17.3328

>  <SCORE.INTER>
-17.2876

>  <SCORE.INTER.CONST>
1

>  <SCORE.INTER.POLAR>
0

>  <SCORE.INTER.ROT>
1

>  <SCORE.INTER.SOLV>
22.43

>  <SCORE.INTER.VDW>
-23.2684

>  <SCORE.INTER.norm>
-1.32982

>  <SCORE.INTRA>
-0.0451266

>  <SCORE.INTRA.DIHEDRAL>
-0.0273776

>  <SCORE.INTRA.DIHEDRAL.0>
1.65305

>  <SCORE.INTRA.POLAR>
0

>  <SCORE.INTRA.POLAR.0>
0

>  <SCORE.INTRA.REPUL>
0

>  <SCORE.INTRA.REPUL.0>
0

>  <SCORE.INTRA.SOLV>
-0.00395221

>  <SCORE.INTRA.SOLV.lig_0>
-46.9527

>  <SCORE.INTRA.VDW>
-0.0294617

>  <SCORE.INTRA.VDW.0>
-0.177978

>  <SCORE.INTRA.norm>
-0.00347128

>  <SCORE.RESTR>
0

>  <SCORE.RESTR.CAVITY>
0

>  <SCORE.RESTR.norm>
0

>  <SCORE.SYSTEM>
0

>  <SCORE.SYSTEM.CONST>
0

>  <SCORE.SYSTEM.DIHEDRAL>
0

>  <SCORE.SYSTEM.SOLV>
0

>  <SCORE.SYSTEM.norm>
0

>  <SCORE.heavy>
13

>  <SCORE.norm>
-1.33329

>  <RMSD>
0.788

$$$$
ligand
 OpenBabel02271912143D
libRbt.so/2013.1/901 2013/11/27
 13 14  0  0  0  0  0  0  0  0999 V2000
   33.9694   33.7061   22.7583 N   0  0  0  0  0  0  0  0  0  0  0  0
   33.1428   32.6814   23.2543 C   0  0  0  0  0  0  0  0  0  0  0  0
   32.0612   32.3184   22.4629 N   0  0  0  0  0  0  0  0  0  0  0  0
   33.2954   32.0479   24.4422 N   0  0  0  0  0  0  0  0  0  0  0  0
   34.3952   32.5233   25.1501 C   0  0  0  0  0  0  0  0  0  0  0  0
   35.2798   33.5243   24.7304 C   0  0  0  0  0  0  0  0  0  0  0  0
   35.0995   34.1710   23.4989 C   0  0  0  0  0  0  0  0  0  0  0  0
   35.7877   35.0657   23.0301 O   0  0  0  0  0  0  0  0  0  0  0  0
   36.2616   33.7175   25.7291 C   0  0  0  0  0  0  0  0  0  0  0  0
   35.9666   32.8227   26.7460 C   0  0  0  0  0  0  0  0  0  0  0  0
   34.8139   32.0777   26.3904 N   0  0  0  0  0  0  0  0  0  0  0  0
   37.3497   34.7281   25.6329 C   0  0  0  0  0  0  0  0  0  0  0  0
   38.4968   34.3455   26.4709 N   0  0  0  0  0  0  0  0  0  0  0  0
  1  2  1  0  0  0  0
  1  7  1  0  0  0  0
  2  3  1  0  0  0  0
  2  4  2  0  0  0  0
  4  5  1  0  0  0  0
  5  6  2  0  0  0  0
  5 11  1  0  0  0  0
  6  7  1  0  0  0  0
  6  9  1  0  0  0  0
  7  8  2  0  0  0  0
  9 10  2  0  0  0  0
  9 12  1  0  0  0  0
 10 11  1  0  0  0  0
 12 13  1  0  0  0  0
M  END
>  <CHROM.1>
-156.07605978,35.08253042,33.39228679,24.60485213,-2.82022976,0.57768606
2.15161843

>  <Name>
ligand

>  <RI>
0

>  <Rbt.Current_Directory>
/home/itssahil/PROJECTS/Mol_Feturizer/Test_systems_manuscript/rnas/3q50

>  <Rbt.Executable>
rbdock ($Id: //depot/dev/client3/rdock/2013.1/src/exe/rbdock.cxx#4 $)

>  <Rbt.Library>
libRbt.so (2013.1, Build901 2013/11/27)

>  <Rbt.Parameter_File>
/export/apps/rDock/src/rDock_2013.1_src/data/scripts/dock_solv.prm

>  <Rbt.Receptor>
prm/pocket_docking_8.prm

>  <SCORE>
-17.3326

>  <SCORE.INTER>
-17.2875

>  <SCORE.INTER.CONST>
1

>  <SCORE.INTER.POLAR>
0

>  <SCORE.INTER.ROT>
1

>  <SCORE.INTER.SOLV>
22.434

>  <SCORE.INTER.VDW>
-23.2697

>  <SCORE.INTER.norm>
-1.32981

>  <SCORE.INTRA>
-0.0451607

>  <SCORE.INTRA.DIHEDRAL>
-0.0273869

>  <SCORE.INTRA.DIHEDRAL.0>
1.65305

>  <SCORE.INTRA.POLAR>
0

>  <SCORE.INTRA.POLAR.0>
0

>  <SCORE.INTRA.REPUL>
0

>  <SCORE.INTRA.REPUL.0>
0

>  <SCORE.INTRA.SOLV>
-0.00395555

>  <SCORE.INTRA.SOLV.lig_0>
-46.9527

>  <SCORE.INTRA.VDW>
-0.0294894

>  <SCORE.INTRA.VDW.0>
-0.177978

>  <SCORE.INTRA.norm>
-0.0034739

>  <SCORE.RESTR>
0

>  <SCORE.RESTR.CAVITY>
0

>  <SCORE.RESTR.norm>
0

>  <SCORE.SYSTEM>
0

>  <SCORE.SYSTEM.CONST>
0

>  <SCORE.SYSTEM.DIHEDRAL>
0

>  <SCORE.SYSTEM.SOLV>
0

>  <SCORE.SYSTEM.norm>
0

>  <SCORE.heavy>
13

>  <SCORE.norm>
-1.33328

>  <RMSD>
0.788

$$$$
ligand
 OpenBabel02271912143D
libRbt.so/2013.1/901 2013/11/27
 13 14  0  0  0  0  0  0  0  0999 V2000
   33.9626   33.7033   22.7554 N   0  0  0  0  0  0  0  0  0  0  0  0
   33.1372   32.6795   23.2551 C   0  0  0  0  0  0  0  0  0  0  0  0
   32.0538   32.3150   22.4668 N   0  0  0  0  0  0  0  0  0  0  0  0
   33.2924   32.0481   24.4438 N   0  0  0  0  0  0  0  0  0  0  0  0
   34.3937   32.5248   25.1484 C   0  0  0  0  0  0  0  0  0  0  0  0
   35.2773   33.5251   24.7249 C   0  0  0  0  0  0  0  0  0  0  0  0
   35.0943   34.1695   23.4927 C   0  0  0  0  0  0  0  0  0  0  0  0
   35.7815   35.0634   23.0207 O   0  0  0  0  0  0  0  0  0  0  0  0
   36.2614   33.7201   25.7211 C   0  0  0  0  0  0  0  0  0  0  0  0
   35.9686   32.8272   26.7403 C   0  0  0  0  0  0  0  0  0  0  0  0
   34.8152   32.0815   26.3886 N   0  0  0  0  0  0  0  0  0  0  0  0
   37.3493   34.7306   25.6206 C   0  0  0  0  0  0  0  0  0  0  0  0
   38.4972   34.3506   26.4586 N   0  0  0  0  0  0  0  0  0  0  0  0
  1  2  1  0  0  0  0
  1  7  1  0  0  0  0
  2  3  1  0  0  0  0
  2  4  2  0  0  0  0
  4  5  1  0  0  0  0
  5  6  2  0  0  0  0
  5 11  1  0  0  0  0
  6  7  1  0  0  0  0
  6  9  1  0  0  0  0
  7  8  2  0  0  0  0
  9 10  2  0  0  0  0
  9 12  1  0  0  0  0
 10 11  1  0  0  0  0
 12 13  1  0  0  0  0
M  END
>  <CHROM.1>
-156.17234109,35.07976099,33.39293632,24.60020482,-2.82235909,0.57664267
2.15099470

>  <Name>
ligand

>  <RI>
0

>  <Rbt.Current_Directory>
/home/itssahil/PROJECTS/Mol_Feturizer/Test_systems_manuscript/rnas/3q50

>  <Rbt.Executable>
rbdock ($Id: //depot/dev/client3/rdock/2013.1/src/exe/rbdock.cxx#4 $)

>  <Rbt.Library>
libRbt.so (2013.1, Build901 2013/11/27)

>  <Rbt.Parameter_File>
/export/apps/rDock/src/rDock_2013.1_src/data/scripts/dock_solv.prm

>  <Rbt.Receptor>
prm/pocket_docking_3.prm

>  <SCORE>
-17.3219

>  <SCORE.INTER>
-17.2771

>  <SCORE.INTER.CONST>
1

>  <SCORE.INTER.POLAR>
0

>  <SCORE.INTER.ROT>
1

>  <SCORE.INTER.SOLV>
22.4677

>  <SCORE.INTER.VDW>
-23.2739

>  <SCORE.INTER.norm>
-1.329

>  <SCORE.INTRA>
-0.0448666

>  <SCORE.INTRA.DIHEDRAL>
-0.0273061

>  <SCORE.INTRA.DIHEDRAL.0>
1.65305

>  <SCORE.INTRA.POLAR>
0

>  <SCORE.INTRA.POLAR.0>
0

>  <SCORE.INTRA.REPUL>
0

>  <SCORE.INTRA.REPUL.0>
0

>  <SCORE.INTRA.SOLV>
-0.00392668

>  <SCORE.INTRA.SOLV.lig_0>
-46.9527

>  <SCORE.INTRA.VDW>
-0.0292502

>  <SCORE.INTRA.VDW.0>
-0.177978

>  <SCORE.INTRA.norm>
-0.00345128

>  <SCORE.RESTR>
0

>  <SCORE.RESTR.CAVITY>
0

>  <SCORE.RESTR.norm>
0

>  <SCORE.SYSTEM>
0

>  <SCORE.SYSTEM.CONST>
0

>  <SCORE.SYSTEM.DIHEDRAL>
0

>  <SCORE.SYSTEM.SOLV>
0

>  <SCORE.SYSTEM.norm>
0

>  <SCORE.heavy>
13

>  <SCORE.norm>
-1.33246

>  <RMSD>
0.789

$$$$
ligand
 OpenBabel02271912143D
libRbt.so/2013.1/901 2013/11/27
 13 14  0  0  0  0  0  0  0  0999 V2000
   33.9645   33.7047   22.7584 N   0  0  0  0  0  0  0  0  0  0  0  0
   33.1365   32.6831   23.2584 C   0  0  0  0  0  0  0  0  0  0  0  0
   32.0527   32.3205   22.4698 N   0  0  0  0  0  0  0  0  0  0  0  0
   33.2897   32.0522   24.4477 N   0  0  0  0  0  0  0  0  0  0  0  0
   34.3918   32.5269   25.1524 C   0  0  0  0  0  0  0  0  0  0  0  0
   35.2778   33.5249   24.7287 C   0  0  0  0  0  0  0  0  0  0  0  0
   35.0969   34.1689   23.4959 C   0  0  0  0  0  0  0  0  0  0  0  0
   35.7863   35.0608   23.0237 O   0  0  0  0  0  0  0  0  0  0  0  0
   36.2618   33.7183   25.7253 C   0  0  0  0  0  0  0  0  0  0  0  0
   35.9665   32.8268   26.7449 C   0  0  0  0  0  0  0  0  0  0  0  0
   34.8116   32.0835   26.3932 N   0  0  0  0  0  0  0  0  0  0  0  0
   37.3520   34.7263   25.6246 C   0  0  0  0  0  0  0  0  0  0  0  0
   38.4941   34.3502   26.4724 N   0  0  0  0  0  0  0  0  0  0  0  0
  1  2  1  0  0  0  0
  1  7  1  0  0  0  0
  2  3  1  0  0  0  0
  2  4  2  0  0  0  0
  4  5  1  0  0  0  0
  5  6  2  0  0  0  0
  5 11  1  0  0  0  0
  6  7  1  0  0  0  0
  6  9  1  0  0  0  0
  7  8  2  0  0  0  0
  9 10  2  0  0  0  0
  9 12  1  0  0  0  0
 10 11  1  0  0  0  0
 12 13  1  0  0  0  0
M  END
>  <CHROM.1>
-156.65644612,35.07964858,33.39356089,24.60472474,-2.81996930,0.57580784
2.14916026

>  <Name>
ligand

>  <RI>
0

>  <Rbt.Current_Directory>
/home/itssahil/PROJECTS/Mol_Feturizer/Test_systems_manuscript/rnas/3q50

>  <Rbt.Executable>
rbdock ($Id: //depot/dev/client3/rdock/2013.1/src/exe/rbdock.cxx#4 $)

>  <Rbt.Library>
libRbt.so (2013.1, Build901 2013/11/27)

>  <Rbt.Parameter_File>
/export/apps/rDock/src/rDock_2013.1_src/data/scripts/dock_solv.prm

>  <Rbt.Receptor>
prm/pocket_docking_4.prm

>  <SCORE>
-17.3263

>  <SCORE.INTER>
-17.2829

>  <SCORE.INTER.CONST>
1

>  <SCORE.INTER.POLAR>
0

>  <SCORE.INTER.ROT>
1

>  <SCORE.INTER.SOLV>
22.4531

>  <SCORE.INTER.VDW>
-23.273

>  <SCORE.INTER.norm>
-1.32946

>  <SCORE.INTRA>
-0.0433847

>  <SCORE.INTRA.DIHEDRAL>
-0.0268791

>  <SCORE.INTRA.DIHEDRAL.0>
1.65305

>  <SCORE.INTRA.POLAR>
0

>  <SCORE.INTRA.POLAR.0>
0

>  <SCORE.INTRA.REPUL>
0

>  <SCORE.INTRA.REPUL.0>
0

>  <SCORE.INTRA.SOLV>
-0.00378194

>  <SCORE.INTRA.SOLV.lig_0>
-46.9527

>  <SCORE.INTRA.VDW>
-0.0280542

>  <SCORE.INTRA.VDW.0>
-0.177978

>  <SCORE.INTRA.norm>
-0.00333728

>  <SCORE.RESTR>
0

>  <SCORE.RESTR.CAVITY>
0

>  <SCORE.RESTR.norm>
0

>  <SCORE.SYSTEM>
0

>  <SCORE.SYSTEM.CONST>
0

>  <SCORE.SYSTEM.DIHEDRAL>
0

>  <SCORE.SYSTEM.SOLV>
0

>  <SCORE.SYSTEM.norm>
0

>  <SCORE.heavy>
13

>  <SCORE.norm>
-1.33279

>  <RMSD>
0.789

$$$$
ligand
 OpenBabel02271912143D
libRbt.so/2013.1/901 2013/11/27
 13 14  0  0  0  0  0  0  0  0999 V2000
   33.9706   33.7065   22.7579 N   0  0  0  0  0  0  0  0  0  0  0  0
   33.1449   32.6802   23.2521 C   0  0  0  0  0  0  0  0  0  0  0  0
   32.0644   32.3166   22.4594 N   0  0  0  0  0  0  0  0  0  0  0  0
   33.2974   32.0456   24.4394 N   0  0  0  0  0  0  0  0  0  0  0  0
   34.3960   32.5217   25.1487 C   0  0  0  0  0  0  0  0  0  0  0  0
   35.2795   33.5243   24.7308 C   0  0  0  0  0  0  0  0  0  0  0  0
   35.0994   34.1720   23.4999 C   0  0  0  0  0  0  0  0  0  0  0  0
   35.7868   35.0682   23.0326 O   0  0  0  0  0  0  0  0  0  0  0  0
   36.2603   33.7177   25.7305 C   0  0  0  0  0  0  0  0  0  0  0  0
   35.9656   32.8215   26.7462 C   0  0  0  0  0  0  0  0  0  0  0  0
   34.8142   32.0753   26.3889 N   0  0  0  0  0  0  0  0  0  0  0  0
   37.3471   34.7299   25.6363 C   0  0  0  0  0  0  0  0  0  0  0  0
   38.4995   34.3409   26.4641 N   0  0  0  0  0  0  0  0  0  0  0  0
  1  2  1  0  0  0  0
  1  7  1  0  0  0  0
  2  3  1  0  0  0  0
  2  4  2  0  0  0  0
  4  5  1  0  0  0  0
  5  6  2  0  0  0  0
  5 11  1  0  0  0  0
  6  7  1  0  0  0  0
  6  9  1  0  0  0  0
  7  8  2  0  0  0  0
  9 10  2  0  0  0  0
  9 12  1  0  0  0  0
 10 11  1  0  0  0  0
 12 13  1  0  0  0  0
M  END
>  <CHROM.1>
-155.49698108,35.08303116,33.39158906,24.60409735,-2.82077686,0.57832036
2.15279770

>  <Name>
ligand

>  <RI>
0

>  <Rbt.Current_Directory>
/home/itssahil/PROJECTS/Mol_Feturizer/Test_systems_manuscript/rnas/3q50

>  <Rbt.Executable>
rbdock ($Id: //depot/dev/client3/rdock/2013.1/src/exe/rbdock.cxx#4 $)

>  <Rbt.Library>
libRbt.so (2013.1, Build901 2013/11/27)

>  <Rbt.Parameter_File>
/export/apps/rDock/src/rDock_2013.1_src/data/scripts/dock_solv.prm

>  <Rbt.Receptor>
prm/pocket_docking_5.prm

>  <SCORE>
-17.334

>  <SCORE.INTER>
-17.2871

>  <SCORE.INTER.CONST>
1

>  <SCORE.INTER.POLAR>
0

>  <SCORE.INTER.ROT>
1

>  <SCORE.INTER.SOLV>
22.4325

>  <SCORE.INTER.VDW>
-23.2689

>  <SCORE.INTER.norm>
-1.32978

>  <SCORE.INTRA>
-0.0469236

>  <SCORE.INTRA.DIHEDRAL>
-0.0278435

>  <SCORE.INTRA.DIHEDRAL.0>
1.65305

>  <SCORE.INTRA.POLAR>
0

>  <SCORE.INTRA.POLAR.0>
0

>  <SCORE.INTRA.REPUL>
0

>  <SCORE.INTRA.REPUL.0>
0

>  <SCORE.INTRA.SOLV>
-0.00412972

>  <SCORE.INTRA.SOLV.lig_0>
-46.9527

>  <SCORE.INTRA.VDW>
-0.030937

>  <SCORE.INTRA.VDW.0>
-0.177978

>  <SCORE.INTRA.norm>
-0.00360951

>  <SCORE.RESTR>
0

>  <SCORE.RESTR.CAVITY>
0

>  <SCORE.RESTR.norm>
0

>  <SCORE.SYSTEM>
0

>  <SCORE.SYSTEM.CONST>
0

>  <SCORE.SYSTEM.DIHEDRAL>
0

>  <SCORE.SYSTEM.SOLV>
0

>  <SCORE.SYSTEM.norm>
0

>  <SCORE.heavy>
13

>  <SCORE.norm>
-1.33339

>  <RMSD>
0.789

$$$$
ligand
 OpenBabel02271912143D
libRbt.so/2013.1/901 2013/11/27
 13 14  0  0  0  0  0  0  0  0999 V2000
   33.9684   33.7048   22.7565 N   0  0  0  0  0  0  0  0  0  0  0  0
   33.1436   32.6785   23.2521 C   0  0  0  0  0  0  0  0  0  0  0  0
   32.0625   32.3140   22.4606 N   0  0  0  0  0  0  0  0  0  0  0  0
   33.2972   32.0448   24.4398 N   0  0  0  0  0  0  0  0  0  0  0  0
   34.3962   32.5217   25.1478 C   0  0  0  0  0  0  0  0  0  0  0  0
   35.2791   33.5244   24.7286 C   0  0  0  0  0  0  0  0  0  0  0  0
   35.0977   34.1712   23.4973 C   0  0  0  0  0  0  0  0  0  0  0  0
   35.7844   35.0673   23.0289 O   0  0  0  0  0  0  0  0  0  0  0  0
   36.2606   33.7187   25.7274 C   0  0  0  0  0  0  0  0  0  0  0  0
   35.9670   32.8231   26.7439 C   0  0  0  0  0  0  0  0  0  0  0  0
   34.8157   32.0763   26.3880 N   0  0  0  0  0  0  0  0  0  0  0  0
   37.3470   34.7313   25.6316 C   0  0  0  0  0  0  0  0  0  0  0  0
   38.4993   34.3443   26.4603 N   0  0  0  0  0  0  0  0  0  0  0  0
  1  2  1  0  0  0  0
  1  7  1  0  0  0  0
  2  3  1  0  0  0  0
  2  4  2  0  0  0  0
  4  5  1  0  0  0  0
  5  6  2  0  0  0  0
  5 11  1  0  0  0  0
  6  7  1  0  0  0  0
  6  9  1  0  0  0  0
  7  8  2  0  0  0  0
  9 10  2  0  0  0  0
  9 12  1  0  0  0  0
 10 11  1  0  0  0  0
 12 13  1  0  0  0  0
M  END
>  <CHROM.1>
-155.58338890,35.08244748,33.39159725,24.60221660,-2.82174551,0.57830493
2.15269367

>  <Name>
ligand

>  <RI>
0

>  <Rbt.Current_Directory>
/home/itssahil/PROJECTS/Mol_Feturizer/Test_systems_manuscript/rnas/3q50

>  <Rbt.Executable>
rbdock ($Id: //depot/dev/client3/rdock/2013.1/src/exe/rbdock.cxx#4 $)

>  <Rbt.Library>
libRbt.so (2013.1, Build901 2013/11/27)

>  <Rbt.Parameter_File>
/export/apps/rDock/src/rDock_2013.1_src/data/scripts/dock_solv.prm

>  <Rbt.Receptor>
prm/pocket_docking_5.prm

>  <SCORE>
-17.3309

>  <SCORE.INTER>
-17.2843

>  <SCORE.INTER.CONST>
1

>  <SCORE.INTER.POLAR>
0

>  <SCORE.INTER.ROT>
1

>  <SCORE.INTER.SOLV>
22.4439

>  <SCORE.INTER.VDW>
-23.2708

>  <SCORE.INTER.norm>
-1.32956

>  <SCORE.INTRA>
-0.0466612

>  <SCORE.INTRA.DIHEDRAL>
-0.0277786

>  <SCORE.INTRA.DIHEDRAL.0>
1.65305

>  <SCORE.INTRA.POLAR>
0

>  <SCORE.INTRA.POLAR.0>
0

>  <SCORE.INTRA.REPUL>
0

>  <SCORE.INTRA.REPUL.0>
0

>  <SCORE.INTRA.SOLV>
-0.00410367

>  <SCORE.INTRA.SOLV.lig_0>
-46.9527

>  <SCORE.INTRA.VDW>
-0.0307201

>  <SCORE.INTRA.VDW.0>
-0.177978

>  <SCORE.INTRA.norm>
-0.00358932

>  <SCORE.RESTR>
0

>  <SCORE.RESTR.CAVITY>
0

>  <SCORE.RESTR.norm>
0

>  <SCORE.SYSTEM>
0

>  <SCORE.SYSTEM.CONST>
0

>  <SCORE.SYSTEM.DIHEDRAL>
0

>  <SCORE.SYSTEM.SOLV>
0

>  <SCORE.SYSTEM.norm>
0

>  <SCORE.heavy>
13

>  <SCORE.norm>
-1.33315

>  <RMSD>
0.789

$$$$
ligand
 OpenBabel02271912143D
libRbt.so/2013.1/901 2013/11/27
 13 14  0  0  0  0  0  0  0  0999 V2000
   34.8484   34.1613   23.3902 N   0  0  0  0  0  0  0  0  0  0  0  0
   33.9365   33.1508   23.7461 C   0  0  0  0  0  0  0  0  0  0  0  0
   32.9067   32.8998   22.8492 N   0  0  0  0  0  0  0  0  0  0  0  0
   33.9618   32.4316   24.8941 N   0  0  0  0  0  0  0  0  0  0  0  0
   35.0218   32.7992   25.7174 C   0  0  0  0  0  0  0  0  0  0  0  0
   35.9841   33.7779   25.4402 C   0  0  0  0  0  0  0  0  0  0  0  0
   35.9354   34.5146   24.2477 C   0  0  0  0  0  0  0  0  0  0  0  0
   36.7011   35.4011   23.8988 O   0  0  0  0  0  0  0  0  0  0  0  0
   36.8896   33.8511   26.5235 C   0  0  0  0  0  0  0  0  0  0  0  0
   36.4707   32.9069   27.4480 C   0  0  0  0  0  0  0  0  0  0  0  0
   35.3167   32.2497   26.9516 N   0  0  0  0  0  0  0  0  0  0  0  0
   38.0287   34.8068   26.5845 C   0  0  0  0  0  0  0  0  0  0  0  0
   39.1865   34.2006   27.2601 N   0  0  0  0  0  0  0  0  0  0  0  0
  1  2  1  0  0  0  0
  1  7  1  0  0  0  0
  2  3  1  0  0  0  0
  2  4  2  0  0  0  0
  4  5  1  0  0  0  0
  5  6  2  0  0  0  0
  5 11  1  0  0  0  0
  6  7  1  0  0  0  0
  6  9  1  0  0  0  0
  7  8  2  0  0  0  0
  9 10  2  0  0  0  0
  9 12  1  0  0  0  0
 10 11  1  0  0  0  0
 12 13  1  0  0  0  0
M  END
>  <CHROM.1>
-145.00967217,35.79994234,33.65653633,25.27277401,-2.71957306,0.56278506
2.16193492

>  <Name>
ligand

>  <RI>
0

>  <Rbt.Current_Directory>
/home/itssahil/PROJECTS/Mol_Feturizer/Test_systems_manuscript/rnas/3q50

>  <Rbt.Executable>
rbdock ($Id: //depot/dev/client3/rdock/2013.1/src/exe/rbdock.cxx#4 $)

>  <Rbt.Library>
libRbt.so (2013.1, Build901 2013/11/27)

>  <Rbt.Parameter_File>
/export/apps/rDock/src/rDock_2013.1_src/data/scripts/dock_solv.prm

>  <Rbt.Receptor>
prm/pocket_docking_8.prm

>  <SCORE>
-16.9239

>  <SCORE.INTER>
-16.8478

>  <SCORE.INTER.CONST>
1

>  <SCORE.INTER.POLAR>
0

>  <SCORE.INTER.ROT>
1

>  <SCORE.INTER.SOLV>
18.5202

>  <SCORE.INTER.VDW>
-21.6719

>  <SCORE.INTER.norm>
-1.29598

>  <SCORE.INTRA>
-0.0761118

>  <SCORE.INTRA.DIHEDRAL>
-0.0272161

>  <SCORE.INTRA.DIHEDRAL.0>
1.65305

>  <SCORE.INTRA.POLAR>
0

>  <SCORE.INTRA.POLAR.0>
0

>  <SCORE.INTRA.REPUL>
0

>  <SCORE.INTRA.REPUL.0>
0

>  <SCORE.INTRA.SOLV>
-0.00732936

>  <SCORE.INTRA.SOLV.lig_0>
-46.9527

>  <SCORE.INTRA.VDW>
-0.0588391

>  <SCORE.INTRA.VDW.0>
-0.177978

>  <SCORE.INTRA.norm>
-0.00585475

>  <SCORE.RESTR>
0

>  <SCORE.RESTR.CAVITY>
0

>  <SCORE.RESTR.norm>
0

>  <SCORE.SYSTEM>
0

>  <SCORE.SYSTEM.CONST>
0

>  <SCORE.SYSTEM.DIHEDRAL>
0

>  <SCORE.SYSTEM.SOLV>
0

>  <SCORE.SYSTEM.norm>
0

>  <SCORE.heavy>
13

>  <SCORE.norm>
-1.30184

>  <RMSD>
0.789

$$$$
ligand
 OpenBabel02271912143D
libRbt.so/2013.1/901 2013/11/27
 13 14  0  0  0  0  0  0  0  0999 V2000
   33.9224   33.6872   22.7774 N   0  0  0  0  0  0  0  0  0  0  0  0
   33.1185   32.6424   23.2688 C   0  0  0  0  0  0  0  0  0  0  0  0
   32.0400   32.2652   22.4798 N   0  0  0  0  0  0  0  0  0  0  0  0
   33.2896   32.0019   24.4504 N   0  0  0  0  0  0  0  0  0  0  0  0
   34.3837   32.4926   25.1567 C   0  0  0  0  0  0  0  0  0  0  0  0
   35.2464   33.5142   24.7411 C   0  0  0  0  0  0  0  0  0  0  0  0
   35.0471   34.1677   23.5162 C   0  0  0  0  0  0  0  0  0  0  0  0
   35.7153   35.0796   23.0516 O   0  0  0  0  0  0  0  0  0  0  0  0
   36.2295   33.7179   25.7365 C   0  0  0  0  0  0  0  0  0  0  0  0
   35.9573   32.8090   26.7471 C   0  0  0  0  0  0  0  0  0  0  0  0
   34.8175   32.0448   26.3910 N   0  0  0  0  0  0  0  0  0  0  0  0
   37.2973   34.7504   25.6434 C   0  0  0  0  0  0  0  0  0  0  0  0
   38.3798   34.4732   26.6003 N   0  0  0  0  0  0  0  0  0  0  0  0
  1  2  1  0  0  0  0
  1  7  1  0  0  0  0
  2  3  1  0  0  0  0
  2  4  2  0  0  0  0
  4  5  1  0  0  0  0
  5  6  2  0  0  0  0
  5 11  1  0  0  0  0
  6  7  1  0  0  0  0
  6  9  1  0  0  0  0
  7  8  2  0  0  0  0
  9 10  2  0  0  0  0
  9 12  1  0  0  0  0
 10 11  1  0  0  0  0
 12 13  1  0  0  0  0
M  END
>  <CHROM.1>
-163.33980535,35.04490796,33.38679182,24.62590114,-2.83262101,0.60282845
2.16884624

>  <Name>
ligand

>  <RI>
0

>  <Rbt.Current_Directory>
/home/itssahil/PROJECTS/Mol_Feturizer/Test_systems_manuscript/rnas/3q50

>  <Rbt.Executable>
rbdock ($Id: //depot/dev/client3/rdock/2013.1/src/exe/rbdock.cxx#4 $)

>  <Rbt.Library>
libRbt.so (2013.1, Build901 2013/11/27)

>  <Rbt.Parameter_File>
/export/apps/rDock/src/rDock_2013.1_src/data/scripts/dock_solv.prm

>  <Rbt.Receptor>
prm/pocket_docking_7.prm

>  <SCORE>
-17.1336

>  <SCORE.INTER>
-17.1109

>  <SCORE.INTER.CONST>
1

>  <SCORE.INTER.POLAR>
0

>  <SCORE.INTER.ROT>
1

>  <SCORE.INTER.SOLV>
22.4165

>  <SCORE.INTER.VDW>
-23.1461

>  <SCORE.INTER.norm>
-1.31622

>  <SCORE.INTRA>
-0.0227016

>  <SCORE.INTRA.DIHEDRAL>
-0.0176064

>  <SCORE.INTRA.DIHEDRAL.0>
1.65305

>  <SCORE.INTRA.POLAR>
0

>  <SCORE.INTRA.POLAR.0>
0

>  <SCORE.INTRA.REPUL>
0

>  <SCORE.INTRA.REPUL.0>
0

>  <SCORE.INTRA.SOLV>
-0.0018809

>  <SCORE.INTRA.SOLV.lig_0>
-46.9527

>  <SCORE.INTRA.VDW>
-0.012958

>  <SCORE.INTRA.VDW.0>
-0.177978

>  <SCORE.INTRA.norm>
-0.00174628

>  <SCORE.RESTR>
0

>  <SCORE.RESTR.CAVITY>
0

>  <SCORE.RESTR.norm>
0

>  <SCORE.SYSTEM>
0

>  <SCORE.SYSTEM.CONST>
0

>  <SCORE.SYSTEM.DIHEDRAL>
0

>  <SCORE.SYSTEM.SOLV>
0

>  <SCORE.SYSTEM.norm>
0

>  <SCORE.heavy>
13

>  <SCORE.norm>
-1.31797

>  <RMSD>
0.790

$$$$
ligand
 OpenBabel02271912143D
libRbt.so/2013.1/901 2013/11/27
 13 14  0  0  0  0  0  0  0  0999 V2000
   33.9773   33.6934   22.7392 N   0  0  0  0  0  0  0  0  0  0  0  0
   33.1587   32.6602   23.2307 C   0  0  0  0  0  0  0  0  0  0  0  0
   32.0848   32.2866   22.4337 N   0  0  0  0  0  0  0  0  0  0  0  0
   33.3118   32.0277   24.4191 N   0  0  0  0  0  0  0  0  0  0  0  0
   34.4031   32.5140   25.1326 C   0  0  0  0  0  0  0  0  0  0  0  0
   35.2796   33.5241   24.7177 C   0  0  0  0  0  0  0  0  0  0  0  0
   35.0989   34.1694   23.4856 C   0  0  0  0  0  0  0  0  0  0  0  0
   35.7803   35.0713   23.0206 O   0  0  0  0  0  0  0  0  0  0  0  0
   36.2544   33.7268   25.7214 C   0  0  0  0  0  0  0  0  0  0  0  0
   35.9634   32.8287   26.7365 C   0  0  0  0  0  0  0  0  0  0  0  0
   34.8202   32.0721   26.3748 N   0  0  0  0  0  0  0  0  0  0  0  0
   37.3326   34.7485   25.6310 C   0  0  0  0  0  0  0  0  0  0  0  0
   38.5081   34.3416   26.4166 N   0  0  0  0  0  0  0  0  0  0  0  0
  1  2  1  0  0  0  0
  1  7  1  0  0  0  0
  2  3  1  0  0  0  0
  2  4  2  0  0  0  0
  4  5  1  0  0  0  0
  5  6  2  0  0  0  0
  5 11  1  0  0  0  0
  6  7  1  0  0  0  0
  6  9  1  0  0  0  0
  7  8  2  0  0  0  0
  9 10  2  0  0  0  0
  9 12  1  0  0  0  0
 10 11  1  0  0  0  0
 12 13  1  0  0  0  0
M  END
>  <CHROM.1>
-152.99367446,35.08666836,33.38724088,24.58642497,-2.82469176,0.58404387
2.15328886

>  <Name>
ligand

>  <RI>
0

>  <Rbt.Current_Directory>
/home/itssahil/PROJECTS/Mol_Feturizer/Test_systems_manuscript/rnas/3q50

>  <Rbt.Executable>
rbdock ($Id: //depot/dev/client3/rdock/2013.1/src/exe/rbdock.cxx#4 $)

>  <Rbt.Library>
libRbt.so (2013.1, Build901 2013/11/27)

>  <Rbt.Parameter_File>
/export/apps/rDock/src/rDock_2013.1_src/data/scripts/dock_solv.prm

>  <Rbt.Receptor>
prm/pocket_docking_3.prm

>  <SCORE>
-17.2333

>  <SCORE.INTER>
-17.1789

>  <SCORE.INTER.CONST>
1

>  <SCORE.INTER.POLAR>
0

>  <SCORE.INTER.ROT>
1

>  <SCORE.INTER.SOLV>
22.49

>  <SCORE.INTER.VDW>
-23.216

>  <SCORE.INTER.norm>
-1.32146

>  <SCORE.INTRA>
-0.0544134

>  <SCORE.INTRA.DIHEDRAL>
-0.0292336

>  <SCORE.INTRA.DIHEDRAL.0>
1.65305

>  <SCORE.INTRA.POLAR>
0

>  <SCORE.INTRA.POLAR.0>
0

>  <SCORE.INTRA.REPUL>
0

>  <SCORE.INTRA.REPUL.0>
0

>  <SCORE.INTRA.SOLV>
-0.00489114

>  <SCORE.INTRA.SOLV.lig_0>
-46.9527

>  <SCORE.INTRA.VDW>
-0.037351

>  <SCORE.INTRA.VDW.0>
-0.177978

>  <SCORE.INTRA.norm>
-0.00418565

>  <SCORE.RESTR>
0

>  <SCORE.RESTR.CAVITY>
0

>  <SCORE.RESTR.norm>
0

>  <SCORE.SYSTEM>
0

>  <SCORE.SYSTEM.CONST>
0

>  <SCORE.SYSTEM.DIHEDRAL>
0

>  <SCORE.SYSTEM.SOLV>
0

>  <SCORE.SYSTEM.norm>
0

>  <SCORE.heavy>
13

>  <SCORE.norm>
-1.32564

>  <RMSD>
0.792

$$$$
ligand
 OpenBabel02271912143D
libRbt.so/2013.1/901 2013/11/27
 13 14  0  0  0  0  0  0  0  0999 V2000
   33.9698   33.6911   22.7363 N   0  0  0  0  0  0  0  0  0  0  0  0
   33.1624   32.6420   23.2125 C   0  0  0  0  0  0  0  0  0  0  0  0
   32.0954   32.2653   22.4076 N   0  0  0  0  0  0  0  0  0  0  0  0
   33.3196   31.9968   24.3935 N   0  0  0  0  0  0  0  0  0  0  0  0
   34.4028   32.4874   25.1163 C   0  0  0  0  0  0  0  0  0  0  0  0
   35.2681   33.5131   24.7167 C   0  0  0  0  0  0  0  0  0  0  0  0
   35.0833   34.1713   23.4921 C   0  0  0  0  0  0  0  0  0  0  0  0
   35.7551   35.0870   23.0403 O   0  0  0  0  0  0  0  0  0  0  0  0
   36.2374   33.7151   25.7259 C   0  0  0  0  0  0  0  0  0  0  0  0
   35.9543   32.8011   26.7289 C   0  0  0  0  0  0  0  0  0  0  0  0
   34.8214   32.0353   26.3544 N   0  0  0  0  0  0  0  0  0  0  0  0
   37.3035   34.7508   25.6514 C   0  0  0  0  0  0  0  0  0  0  0  0
   38.3377   34.5133   26.6705 N   0  0  0  0  0  0  0  0  0  0  0  0
  1  2  1  0  0  0  0
  1  7  1  0  0  0  0
  2  3  1  0  0  0  0
  2  4  2  0  0  0  0
  4  5  1  0  0  0  0
  5  6  2  0  0  0  0
  5 11  1  0  0  0  0
  6  7  1  0  0  0  0
  6  9  1  0  0  0  0
  7  8  2  0  0  0  0
  9 10  2  0  0  0  0
  9 12  1  0  0  0  0
 10 11  1  0  0  0  0
 12 13  1  0  0  0  0
M  END
>  <CHROM.1>
-166.40389385,35.06559899,33.38895532,24.60223648,-2.81895931,0.61762536
2.16566890

>  <Name>
ligand

>  <RI>
0

>  <Rbt.Current_Directory>
/home/itssahil/PROJECTS/Mol_Feturizer/Test_systems_manuscript/rnas/3q50

>  <Rbt.Executable>
rbdock ($Id: //depot/dev/client3/rdock/2013.1/src/exe/rbdock.cxx#4 $)

>  <Rbt.Library>
libRbt.so (2013.1, Build901 2013/11/27)

>  <Rbt.Parameter_File>
/export/apps/rDock/src/rDock_2013.1_src/data/scripts/dock_solv.prm

>  <Rbt.Receptor>
prm/pocket_docking_4.prm

>  <SCORE>
-17.1893

>  <SCORE.INTER>
-17.1758

>  <SCORE.INTER.CONST>
1

>  <SCORE.INTER.POLAR>
0

>  <SCORE.INTER.ROT>
1

>  <SCORE.INTER.SOLV>
22.3023

>  <SCORE.INTER.VDW>
-23.1513

>  <SCORE.INTER.norm>
-1.32122

>  <SCORE.INTRA>
-0.0134423

>  <SCORE.INTRA.DIHEDRAL>
-0.0114551

>  <SCORE.INTRA.DIHEDRAL.0>
1.65305

>  <SCORE.INTRA.POLAR>
0

>  <SCORE.INTRA.POLAR.0>
0

>  <SCORE.INTRA.REPUL>
0

>  <SCORE.INTRA.REPUL.0>
0

>  <SCORE.INTRA.SOLV>
-0.0010916

>  <SCORE.INTRA.SOLV.lig_0>
-46.9527

>  <SCORE.INTRA.VDW>
-0.00716897

>  <SCORE.INTRA.VDW.0>
-0.177978

>  <SCORE.INTRA.norm>
-0.00103403

>  <SCORE.RESTR>
0

>  <SCORE.RESTR.CAVITY>
0

>  <SCORE.RESTR.norm>
0

>  <SCORE.SYSTEM>
0

>  <SCORE.SYSTEM.CONST>
0

>  <SCORE.SYSTEM.DIHEDRAL>
0

>  <SCORE.SYSTEM.SOLV>
0

>  <SCORE.SYSTEM.norm>
0

>  <SCORE.heavy>
13

>  <SCORE.norm>
-1.32225

>  <RMSD>
0.792

$$$$
ligand
 OpenBabel02271912143D
libRbt.so/2013.1/901 2013/11/27
 13 14  0  0  0  0  0  0  0  0999 V2000
   33.9531   33.7091   22.7659 N   0  0  0  0  0  0  0  0  0  0  0  0
   33.1231   32.6908   23.2695 C   0  0  0  0  0  0  0  0  0  0  0  0
   32.0354   32.3315   22.4848 N   0  0  0  0  0  0  0  0  0  0  0  0
   33.2781   32.0604   24.4587 N   0  0  0  0  0  0  0  0  0  0  0  0
   34.3842   32.5317   25.1594 C   0  0  0  0  0  0  0  0  0  0  0  0
   35.2724   33.5262   24.7319 C   0  0  0  0  0  0  0  0  0  0  0  0
   35.0896   34.1698   23.4993 C   0  0  0  0  0  0  0  0  0  0  0  0
   35.7805   35.0590   23.0240 O   0  0  0  0  0  0  0  0  0  0  0  0
   36.2604   33.7170   25.7250 C   0  0  0  0  0  0  0  0  0  0  0  0
   35.9654   32.8273   26.7464 C   0  0  0  0  0  0  0  0  0  0  0  0
   34.8067   32.0878   26.3991 N   0  0  0  0  0  0  0  0  0  0  0  0
   37.3538   34.7210   25.6199 C   0  0  0  0  0  0  0  0  0  0  0  0
   38.5182   34.3144   26.4220 N   0  0  0  0  0  0  0  0  0  0  0  0
  1  2  1  0  0  0  0
  1  7  1  0  0  0  0
  2  3  1  0  0  0  0
  2  4  2  0  0  0  0
  4  5  1  0  0  0  0
  5  6  2  0  0  0  0
  5 11  1  0  0  0  0
  6  7  1  0  0  0  0
  6  9  1  0  0  0  0
  7  8  2  0  0  0  0
  9 10  2  0  0  0  0
  9 12  1  0  0  0  0
 10 11  1  0  0  0  0
 12 13  1  0  0  0  0
M  END
>  <CHROM.1>
-154.39615512,35.07500621,33.39329494,24.60529202,-2.82300299,0.56739786
2.14921948

>  <Name>
ligand

>  <RI>
0

>  <Rbt.Current_Directory>
/home/itssahil/PROJECTS/Mol_Feturizer/Test_systems_manuscript/rnas/3q50

>  <Rbt.Executable>
rbdock ($Id: //depot/dev/client3/rdock/2013.1/src/exe/rbdock.cxx#4 $)

>  <Rbt.Library>
libRbt.so (2013.1, Build901 2013/11/27)

>  <Rbt.Parameter_File>
/export/apps/rDock/src/rDock_2013.1_src/data/scripts/dock_solv.prm

>  <Rbt.Receptor>
prm/pocket_docking_6.prm

>  <SCORE>
-17.2676

>  <SCORE.INTER>
-17.2174

>  <SCORE.INTER.CONST>
1

>  <SCORE.INTER.POLAR>
0

>  <SCORE.INTER.ROT>
1

>  <SCORE.INTER.SOLV>
22.5362

>  <SCORE.INTER.VDW>
-23.257

>  <SCORE.INTER.norm>
-1.32441

>  <SCORE.INTRA>
-0.050246

>  <SCORE.INTRA.DIHEDRAL>
-0.0285724

>  <SCORE.INTRA.DIHEDRAL.0>
1.65305

>  <SCORE.INTRA.POLAR>
0

>  <SCORE.INTRA.POLAR.0>
0

>  <SCORE.INTRA.REPUL>
0

>  <SCORE.INTRA.REPUL.0>
0

>  <SCORE.INTRA.SOLV>
-0.00446307

>  <SCORE.INTRA.SOLV.lig_0>
-46.9527

>  <SCORE.INTRA.VDW>
-0.0337283

>  <SCORE.INTRA.VDW.0>
-0.177978

>  <SCORE.INTRA.norm>
-0.00386508

>  <SCORE.RESTR>
0

>  <SCORE.RESTR.CAVITY>
0

>  <SCORE.RESTR.norm>
0

>  <SCORE.SYSTEM>
0

>  <SCORE.SYSTEM.CONST>
0

>  <SCORE.SYSTEM.DIHEDRAL>
0

>  <SCORE.SYSTEM.SOLV>
0

>  <SCORE.SYSTEM.norm>
0

>  <SCORE.heavy>
13

>  <SCORE.norm>
-1.32828

>  <RMSD>
0.794

$$$$
ligand
 OpenBabel02271912143D
libRbt.so/2013.1/901 2013/11/27
 13 14  0  0  0  0  0  0  0  0999 V2000
   33.9697   33.7143   22.7594 N   0  0  0  0  0  0  0  0  0  0  0  0
   33.1399   32.6909   23.2526 C   0  0  0  0  0  0  0  0  0  0  0  0
   32.0571   32.3335   22.4603 N   0  0  0  0  0  0  0  0  0  0  0  0
   33.2905   32.0537   24.4388 N   0  0  0  0  0  0  0  0  0  0  0  0
   34.3918   32.5237   25.1479 C   0  0  0  0  0  0  0  0  0  0  0  0
   35.2795   33.5231   24.7309 C   0  0  0  0  0  0  0  0  0  0  0  0
   35.1013   34.1736   23.5012 C   0  0  0  0  0  0  0  0  0  0  0  0
   35.7923   35.0674   23.0348 O   0  0  0  0  0  0  0  0  0  0  0  0
   36.2619   33.7104   25.7302 C   0  0  0  0  0  0  0  0  0  0  0  0
   35.9641   32.8138   26.7446 C   0  0  0  0  0  0  0  0  0  0  0  0
   34.8091   32.0735   26.3870 N   0  0  0  0  0  0  0  0  0  0  0  0
   37.3533   34.7179   25.6367 C   0  0  0  0  0  0  0  0  0  0  0  0
   38.5141   34.3102   26.4433 N   0  0  0  0  0  0  0  0  0  0  0  0
  1  2  1  0  0  0  0
  1  7  1  0  0  0  0
  2  3  1  0  0  0  0
  2  4  2  0  0  0  0
  4  5  1  0  0  0  0
  5  6  2  0  0  0  0
  5 11  1  0  0  0  0
  6  7  1  0  0  0  0
  6  9  1  0  0  0  0
  7  8  2  0  0  0  0
  9 10  2  0  0  0  0
  9 12  1  0  0  0  0
 10 11  1  0  0  0  0
 12 13  1  0  0  0  0
M  END
>  <CHROM.1>
-154.45804606,35.08307352,33.39043928,24.60259138,-2.81960509,0.57245853
2.15341304

>  <Name>
ligand

>  <RI>
0

>  <Rbt.Current_Directory>
/home/itssahil/PROJECTS/Mol_Feturizer/Test_systems_manuscript/rnas/3q50

>  <Rbt.Executable>
rbdock ($Id: //depot/dev/client3/rdock/2013.1/src/exe/rbdock.cxx#4 $)

>  <Rbt.Library>
libRbt.so (2013.1, Build901 2013/11/27)

>  <Rbt.Parameter_File>
/export/apps/rDock/src/rDock_2013.1_src/data/scripts/dock_solv.prm

>  <Rbt.Receptor>
prm/pocket_docking_7.prm

>  <SCORE>
-17.2792

>  <SCORE.INTER>
-17.2291

>  <SCORE.INTER.CONST>
1

>  <SCORE.INTER.POLAR>
0

>  <SCORE.INTER.ROT>
1

>  <SCORE.INTER.SOLV>
22.4472

>  <SCORE.INTER.VDW>
-23.2351

>  <SCORE.INTER.norm>
-1.32532

>  <SCORE.INTRA>
-0.0500604

>  <SCORE.INTRA.DIHEDRAL>
-0.0285363

>  <SCORE.INTRA.DIHEDRAL.0>
1.65305

>  <SCORE.INTRA.POLAR>
0

>  <SCORE.INTRA.POLAR.0>
0

>  <SCORE.INTRA.REPUL>
0

>  <SCORE.INTRA.REPUL.0>
0

>  <SCORE.INTRA.SOLV>
-0.00444425

>  <SCORE.INTRA.SOLV.lig_0>
-46.9527

>  <SCORE.INTRA.VDW>
-0.0335701

>  <SCORE.INTRA.VDW.0>
-0.177978

>  <SCORE.INTRA.norm>
-0.0038508

>  <SCORE.RESTR>
0

>  <SCORE.RESTR.CAVITY>
0

>  <SCORE.RESTR.norm>
0

>  <SCORE.SYSTEM>
0

>  <SCORE.SYSTEM.CONST>
0

>  <SCORE.SYSTEM.DIHEDRAL>
0

>  <SCORE.SYSTEM.SOLV>
0

>  <SCORE.SYSTEM.norm>
0

>  <SCORE.heavy>
13

>  <SCORE.norm>
-1.32917

>  <RMSD>
0.794

$$$$
ligand
 OpenBabel02271912143D
libRbt.so/2013.1/901 2013/11/27
 13 14  0  0  0  0  0  0  0  0999 V2000
   33.9521   33.6791   22.7199 N   0  0  0  0  0  0  0  0  0  0  0  0
   33.1507   32.6317   23.2095 C   0  0  0  0  0  0  0  0  0  0  0  0
   32.0799   32.2453   22.4144 N   0  0  0  0  0  0  0  0  0  0  0  0
   33.3170   31.9967   24.3948 N   0  0  0  0  0  0  0  0  0  0  0  0
   34.4032   32.4962   25.1070 C   0  0  0  0  0  0  0  0  0  0  0  0
   35.2630   33.5211   24.6936 C   0  0  0  0  0  0  0  0  0  0  0  0
   35.0688   34.1688   23.4648 C   0  0  0  0  0  0  0  0  0  0  0  0
   35.7351   35.0827   23.0015 O   0  0  0  0  0  0  0  0  0  0  0  0
   36.2379   33.7342   25.6951 C   0  0  0  0  0  0  0  0  0  0  0  0
   35.9636   32.8276   26.7073 C   0  0  0  0  0  0  0  0  0  0  0  0
   34.8307   32.0555   26.3460 N   0  0  0  0  0  0  0  0  0  0  0  0
   37.3004   34.7723   25.6057 C   0  0  0  0  0  0  0  0  0  0  0  0
   38.4323   34.4417   26.4855 N   0  0  0  0  0  0  0  0  0  0  0  0
  1  2  1  0  0  0  0
  1  7  1  0  0  0  0
  2  3  1  0  0  0  0
  2  4  2  0  0  0  0
  4  5  1  0  0  0  0
  5  6  2  0  0  0  0
  5 11  1  0  0  0  0
  6  7  1  0  0  0  0
  6  9  1  0  0  0  0
  7  8  2  0  0  0  0
  9 10  2  0  0  0  0
  9 12  1  0  0  0  0
 10 11  1  0  0  0  0
 12 13  1  0  0  0  0
M  END
>  <CHROM.1>
-158.34413270,35.06756810,33.38696823,24.57047558,-2.83317113,0.60331040
2.16420070

>  <Name>
ligand

>  <RI>
0

>  <Rbt.Current_Directory>
/home/itssahil/PROJECTS/Mol_Feturizer/Test_systems_manuscript/rnas/3q50

>  <Rbt.Executable>
rbdock ($Id: //depot/dev/client3/rdock/2013.1/src/exe/rbdock.cxx#4 $)

>  <Rbt.Library>
libRbt.so (2013.1, Build901 2013/11/27)

>  <Rbt.Parameter_File>
/export/apps/rDock/src/rDock_2013.1_src/data/scripts/dock_solv.prm

>  <Rbt.Receptor>
prm/pocket_docking_8.prm

>  <SCORE>
-17.2288

>  <SCORE.INTER>
-17.1906

>  <SCORE.INTER.CONST>
1

>  <SCORE.INTER.POLAR>
0

>  <SCORE.INTER.ROT>
1

>  <SCORE.INTER.SOLV>
22.4643

>  <SCORE.INTER.VDW>
-23.2152

>  <SCORE.INTER.norm>
-1.32235

>  <SCORE.INTRA>
-0.0381805

>  <SCORE.INTRA.DIHEDRAL>
-0.0251219

>  <SCORE.INTRA.DIHEDRAL.0>
1.65305

>  <SCORE.INTRA.POLAR>
0

>  <SCORE.INTRA.POLAR.0>
0

>  <SCORE.INTRA.REPUL>
0

>  <SCORE.INTRA.REPUL.0>
0

>  <SCORE.INTRA.SOLV>
-0.00328339

>  <SCORE.INTRA.SOLV.lig_0>
-46.9527

>  <SCORE.INTRA.VDW>
-0.0239778

>  <SCORE.INTRA.VDW.0>
-0.177978

>  <SCORE.INTRA.norm>
-0.00293696

>  <SCORE.RESTR>
0

>  <SCORE.RESTR.CAVITY>
0

>  <SCORE.RESTR.norm>
0

>  <SCORE.SYSTEM>
0

>  <SCORE.SYSTEM.CONST>
0

>  <SCORE.SYSTEM.DIHEDRAL>
0

>  <SCORE.SYSTEM.SOLV>
0

>  <SCORE.SYSTEM.norm>
0

>  <SCORE.heavy>
13

>  <SCORE.norm>
-1.32529

>  <RMSD>
0.796

$$$$
ligand
 OpenBabel02271912143D
libRbt.so/2013.1/901 2013/11/27
 13 14  0  0  0  0  0  0  0  0999 V2000
   33.9746   33.6601   22.7224 N   0  0  0  0  0  0  0  0  0  0  0  0
   33.1549   32.6323   23.2234 C   0  0  0  0  0  0  0  0  0  0  0  0
   32.0829   32.2497   22.4281 N   0  0  0  0  0  0  0  0  0  0  0  0
   33.3052   32.0131   24.4191 N   0  0  0  0  0  0  0  0  0  0  0  0
   34.3948   32.5074   25.1298 C   0  0  0  0  0  0  0  0  0  0  0  0
   35.2721   33.5129   24.7058 C   0  0  0  0  0  0  0  0  0  0  0  0
   35.0944   34.1445   23.4661 C   0  0  0  0  0  0  0  0  0  0  0  0
   35.7768   35.0411   22.9927 O   0  0  0  0  0  0  0  0  0  0  0  0
   36.2445   33.7268   25.7095 C   0  0  0  0  0  0  0  0  0  0  0  0
   35.9512   32.8400   26.7338 C   0  0  0  0  0  0  0  0  0  0  0  0
   34.8089   32.0794   26.3779 N   0  0  0  0  0  0  0  0  0  0  0  0
   37.3229   34.7476   25.6103 C   0  0  0  0  0  0  0  0  0  0  0  0
   38.4462   34.4120   26.4992 N   0  0  0  0  0  0  0  0  0  0  0  0
  1  2  1  0  0  0  0
  1  7  1  0  0  0  0
  2  3  1  0  0  0  0
  2  4  2  0  0  0  0
  4  5  1  0  0  0  0
  5  6  2  0  0  0  0
  5 11  1  0  0  0  0
  6  7  1  0  0  0  0
  6  9  1  0  0  0  0
  7  8  2  0  0  0  0
  9 10  2  0  0  0  0
  9 12  1  0  0  0  0
 10 11  1  0  0  0  0
 12 13  1  0  0  0  0
M  END
>  <CHROM.1>
-158.21238571,35.07544423,33.37966017,24.58338117,-2.81770314,0.59372227
2.14014199

>  <Name>
ligand

>  <RI>
0

>  <Rbt.Current_Directory>
/home/itssahil/PROJECTS/Mol_Feturizer/Test_systems_manuscript/rnas/3q50

>  <Rbt.Executable>
rbdock ($Id: //depot/dev/client3/rdock/2013.1/src/exe/rbdock.cxx#4 $)

>  <Rbt.Library>
libRbt.so (2013.1, Build901 2013/11/27)

>  <Rbt.Parameter_File>
/export/apps/rDock/src/rDock_2013.1_src/data/scripts/dock_solv.prm

>  <Rbt.Receptor>
prm/pocket_docking_2.prm

>  <SCORE>
-17.2062

>  <SCORE.INTER>
-17.1676

>  <SCORE.INTER.CONST>
1

>  <SCORE.INTER.POLAR>
0

>  <SCORE.INTER.ROT>
1

>  <SCORE.INTER.SOLV>
22.4537

>  <SCORE.INTER.VDW>
-23.1963

>  <SCORE.INTER.norm>
-1.32058

>  <SCORE.INTRA>
-0.0385884

>  <SCORE.INTRA.DIHEDRAL>
-0.0252739

>  <SCORE.INTRA.DIHEDRAL.0>
1.65305

>  <SCORE.INTRA.POLAR>
0

>  <SCORE.INTRA.POLAR.0>
0

>  <SCORE.INTRA.REPUL>
0

>  <SCORE.INTRA.REPUL.0>
0

>  <SCORE.INTRA.SOLV>
-0.00332194

>  <SCORE.INTRA.SOLV.lig_0>
-46.9527

>  <SCORE.INTRA.VDW>
-0.0242905

>  <SCORE.INTRA.VDW.0>
-0.177978

>  <SCORE.INTRA.norm>
-0.00296834

>  <SCORE.RESTR>
0

>  <SCORE.RESTR.CAVITY>
0

>  <SCORE.RESTR.norm>
0

>  <SCORE.SYSTEM>
0

>  <SCORE.SYSTEM.CONST>
0

>  <SCORE.SYSTEM.DIHEDRAL>
0

>  <SCORE.SYSTEM.SOLV>
0

>  <SCORE.SYSTEM.norm>
0

>  <SCORE.heavy>
13

>  <SCORE.norm>
-1.32355

>  <RMSD>
0.797

$$$$
ligand
 OpenBabel02271912143D
libRbt.so/2013.1/901 2013/11/27
 13 14  0  0  0  0  0  0  0  0999 V2000
   33.9757   33.7022   22.7448 N   0  0  0  0  0  0  0  0  0  0  0  0
   33.1580   32.6630   23.2251 C   0  0  0  0  0  0  0  0  0  0  0  0
   32.0839   32.2977   22.4246 N   0  0  0  0  0  0  0  0  0  0  0  0
   33.3121   32.0175   24.4063 N   0  0  0  0  0  0  0  0  0  0  0  0
   34.4035   32.4964   25.1247 C   0  0  0  0  0  0  0  0  0  0  0  0
   35.2791   33.5117   24.7206 C   0  0  0  0  0  0  0  0  0  0  0  0
   35.0973   34.1706   23.4959 C   0  0  0  0  0  0  0  0  0  0  0  0
   35.7779   35.0780   23.0406 O   0  0  0  0  0  0  0  0  0  0  0  0
   36.2543   33.7038   25.7260 C   0  0  0  0  0  0  0  0  0  0  0  0
   35.9644   32.7943   26.7312 C   0  0  0  0  0  0  0  0  0  0  0  0
   34.8215   32.0411   26.3617 N   0  0  0  0  0  0  0  0  0  0  0  0
   37.3318   34.7272   25.6465 C   0  0  0  0  0  0  0  0  0  0  0  0
   38.4754   34.3517   26.4925 N   0  0  0  0  0  0  0  0  0  0  0  0
  1  2  1  0  0  0  0
  1  7  1  0  0  0  0
  2  3  1  0  0  0  0
  2  4  2  0  0  0  0
  4  5  1  0  0  0  0
  5  6  2  0  0  0  0
  5 11  1  0  0  0  0
  6  7  1  0  0  0  0
  6  9  1  0  0  0  0
  7  8  2  0  0  0  0
  9 10  2  0  0  0  0
  9 12  1  0  0  0  0
 10 11  1  0  0  0  0
 12 13  1  0  0  0  0
M  END
>  <CHROM.1>
-156.46613171,35.08352774,33.37941062,24.59327412,-2.82250519,0.58979232
2.16455803

>  <Name>
ligand

>  <RI>
0

>  <Rbt.Current_Directory>
/home/itssahil/PROJECTS/Mol_Feturizer/Test_systems_manuscript/rnas/3q50

>  <Rbt.Executable>
rbdock ($Id: //depot/dev/client3/rdock/2013.1/src/exe/rbdock.cxx#4 $)

>  <Rbt.Library>
libRbt.so (2013.1, Build901 2013/11/27)

>  <Rbt.Parameter_File>
/export/apps/rDock/src/rDock_2013.1_src/data/scripts/dock_solv.prm

>  <Rbt.Receptor>
prm/pocket_docking_7.prm

>  <SCORE>
-17.1294

>  <SCORE.INTER>
-17.0854

>  <SCORE.INTER.CONST>
1

>  <SCORE.INTER.POLAR>
0

>  <SCORE.INTER.ROT>
1

>  <SCORE.INTER.SOLV>
22.3617

>  <SCORE.INTER.VDW>
-23.1109

>  <SCORE.INTER.norm>
-1.31426

>  <SCORE.INTRA>
-0.043968

>  <SCORE.INTRA.DIHEDRAL>
-0.0270511

>  <SCORE.INTRA.DIHEDRAL.0>
1.65305

>  <SCORE.INTRA.POLAR>
0

>  <SCORE.INTRA.POLAR.0>
0

>  <SCORE.INTRA.REPUL>
0

>  <SCORE.INTRA.REPUL.0>
0

>  <SCORE.INTRA.SOLV>
-0.00383876

>  <SCORE.INTRA.SOLV.lig_0>
-46.9527

>  <SCORE.INTRA.VDW>
-0.028523

>  <SCORE.INTRA.VDW.0>
-0.177978

>  <SCORE.INTRA.norm>
-0.00338215

>  <SCORE.RESTR>
0

>  <SCORE.RESTR.CAVITY>
0

>  <SCORE.RESTR.norm>
0

>  <SCORE.SYSTEM>
0

>  <SCORE.SYSTEM.CONST>
0

>  <SCORE.SYSTEM.DIHEDRAL>
0

>  <SCORE.SYSTEM.SOLV>
0

>  <SCORE.SYSTEM.norm>
0

>  <SCORE.heavy>
13

>  <SCORE.norm>
-1.31765

>  <RMSD>
0.797

$$$$
ligand
 OpenBabel02271912143D
libRbt.so/2013.1/901 2013/11/27
 13 14  0  0  0  0  0  0  0  0999 V2000
   33.9741   33.6907   22.7366 N   0  0  0  0  0  0  0  0  0  0  0  0
   33.1644   32.6418   23.2093 C   0  0  0  0  0  0  0  0  0  0  0  0
   32.1034   32.2625   22.3979 N   0  0  0  0  0  0  0  0  0  0  0  0
   33.3141   31.9992   24.3927 N   0  0  0  0  0  0  0  0  0  0  0  0
   34.3918   32.4923   25.1220 C   0  0  0  0  0  0  0  0  0  0  0  0
   35.2589   33.5180   24.7263 C   0  0  0  0  0  0  0  0  0  0  0  0
   35.0819   34.1736   23.4991 C   0  0  0  0  0  0  0  0  0  0  0  0
   35.7559   35.0891   23.0501 O   0  0  0  0  0  0  0  0  0  0  0  0
   36.2210   33.7231   25.7417 C   0  0  0  0  0  0  0  0  0  0  0  0
   35.9319   32.8108   26.7446 C   0  0  0  0  0  0  0  0  0  0  0  0
   34.8024   32.0431   26.3638 N   0  0  0  0  0  0  0  0  0  0  0  0
   37.2865   34.7597   25.6725 C   0  0  0  0  0  0  0  0  0  0  0  0
   38.4268   34.3979   26.5289 N   0  0  0  0  0  0  0  0  0  0  0  0
  1  2  1  0  0  0  0
  1  7  1  0  0  0  0
  2  3  1  0  0  0  0
  2  4  2  0  0  0  0
  4  5  1  0  0  0  0
  5  6  2  0  0  0  0
  5 11  1  0  0  0  0
  6  7  1  0  0  0  0
  6  9  1  0  0  0  0
  7  8  2  0  0  0  0
  9 10  2  0  0  0  0
  9 12  1  0  0  0  0
 10 11  1  0  0  0  0
 12 13  1  0  0  0  0
M  END
>  <CHROM.1>
-156.35802793,35.06646530,33.38309989,24.59682028,-2.82045022,0.60581327
2.16250127

>  <Name>
ligand

>  <RI>
0

>  <Rbt.Current_Directory>
/home/itssahil/PROJECTS/Mol_Feturizer/Test_systems_manuscript/rnas/3q50

>  <Rbt.Executable>
rbdock ($Id: //depot/dev/client3/rdock/2013.1/src/exe/rbdock.cxx#4 $)

>  <Rbt.Library>
libRbt.so (2013.1, Build901 2013/11/27)

>  <Rbt.Parameter_File>
/export/apps/rDock/src/rDock_2013.1_src/data/scripts/dock_solv.prm

>  <Rbt.Receptor>
prm/pocket_docking_2.prm

>  <SCORE>
-17.192

>  <SCORE.INTER>
-17.1477

>  <SCORE.INTER.CONST>
1

>  <SCORE.INTER.POLAR>
0

>  <SCORE.INTER.ROT>
1

>  <SCORE.INTER.SOLV>
22.3404

>  <SCORE.INTER.VDW>
-23.1453

>  <SCORE.INTER.norm>
-1.31906

>  <SCORE.INTRA>
-0.0442989

>  <SCORE.INTRA.DIHEDRAL>
-0.0271464

>  <SCORE.INTRA.DIHEDRAL.0>
1.65305

>  <SCORE.INTRA.POLAR>
0

>  <SCORE.INTRA.POLAR.0>
0

>  <SCORE.INTRA.REPUL>
0

>  <SCORE.INTRA.REPUL.0>
0

>  <SCORE.INTRA.SOLV>
-0.00387108

>  <SCORE.INTRA.SOLV.lig_0>
-46.9527

>  <SCORE.INTRA.VDW>
-0.0287901

>  <SCORE.INTRA.VDW.0>
-0.177978

>  <SCORE.INTRA.norm>
-0.00340761

>  <SCORE.RESTR>
0

>  <SCORE.RESTR.CAVITY>
0

>  <SCORE.RESTR.norm>
0

>  <SCORE.SYSTEM>
0

>  <SCORE.SYSTEM.CONST>
0

>  <SCORE.SYSTEM.DIHEDRAL>
0

>  <SCORE.SYSTEM.SOLV>
0

>  <SCORE.SYSTEM.norm>
0

>  <SCORE.heavy>
13

>  <SCORE.norm>
-1.32247

>  <RMSD>
0.802

$$$$
ligand
 OpenBabel02271912143D
libRbt.so/2013.1/901 2013/11/27
 13 14  0  0  0  0  0  0  0  0999 V2000
   33.9589   33.6746   22.7036 N   0  0  0  0  0  0  0  0  0  0  0  0
   33.1459   32.6383   23.1979 C   0  0  0  0  0  0  0  0  0  0  0  0
   32.0746   32.2560   22.4015 N   0  0  0  0  0  0  0  0  0  0  0  0
   33.3019   32.0105   24.3884 N   0  0  0  0  0  0  0  0  0  0  0  0
   34.3900   32.5053   25.1010 C   0  0  0  0  0  0  0  0  0  0  0  0
   35.2609   33.5191   24.6834 C   0  0  0  0  0  0  0  0  0  0  0  0
   35.0773   34.1594   23.4491 C   0  0  0  0  0  0  0  0  0  0  0  0
   35.7538   35.0637   22.9816 O   0  0  0  0  0  0  0  0  0  0  0  0
   36.2340   33.7305   25.6870 C   0  0  0  0  0  0  0  0  0  0  0  0
   35.9475   32.8340   26.7048 C   0  0  0  0  0  0  0  0  0  0  0  0
   34.8088   32.0699   26.3449 N   0  0  0  0  0  0  0  0  0  0  0  0
   37.3064   34.7581   25.5939 C   0  0  0  0  0  0  0  0  0  0  0  0
   38.3363   34.5359   26.6207 N   0  0  0  0  0  0  0  0  0  0  0  0
  1  2  1  0  0  0  0
  1  7  1  0  0  0  0
  2  3  1  0  0  0  0
  2  4  2  0  0  0  0
  4  5  1  0  0  0  0
  5  6  2  0  0  0  0
  5 11  1  0  0  0  0
  6  7  1  0  0  0  0
  6  9  1  0  0  0  0
  7  8  2  0  0  0  0
  9 10  2  0  0  0  0
  9 12  1  0  0  0  0
 10 11  1  0  0  0  0
 12 13  1  0  0  0  0
M  END
>  <CHROM.1>
-166.83884305,35.05688324,33.39499176,24.57189059,-2.81681202,0.61168090
2.14890861

>  <Name>
ligand

>  <RI>
0

>  <Rbt.Current_Directory>
/home/itssahil/PROJECTS/Mol_Feturizer/Test_systems_manuscript/rnas/3q50

>  <Rbt.Executable>
rbdock ($Id: //depot/dev/client3/rdock/2013.1/src/exe/rbdock.cxx#4 $)

>  <Rbt.Library>
libRbt.so (2013.1, Build901 2013/11/27)

>  <Rbt.Parameter_File>
/export/apps/rDock/src/rDock_2013.1_src/data/scripts/dock_solv.prm

>  <Rbt.Receptor>
prm/pocket_docking_2.prm

>  <SCORE>
-17.1968

>  <SCORE.INTER>
-17.1846

>  <SCORE.INTER.CONST>
1

>  <SCORE.INTER.POLAR>
0

>  <SCORE.INTER.ROT>
1

>  <SCORE.INTER.SOLV>
22.4138

>  <SCORE.INTER.VDW>
-23.1944

>  <SCORE.INTER.norm>
-1.3219

>  <SCORE.INTRA>
-0.0121586

>  <SCORE.INTRA.DIHEDRAL>
-0.010498

>  <SCORE.INTRA.DIHEDRAL.0>
1.65305

>  <SCORE.INTRA.POLAR>
0

>  <SCORE.INTRA.POLAR.0>
0

>  <SCORE.INTRA.REPUL>
0

>  <SCORE.INTRA.REPUL.0>
0

>  <SCORE.INTRA.SOLV>
-0.000984744

>  <SCORE.INTRA.SOLV.lig_0>
-46.9527

>  <SCORE.INTRA.VDW>
-0.00641719

>  <SCORE.INTRA.VDW.0>
-0.177978

>  <SCORE.INTRA.norm>
-0.000935275

>  <SCORE.RESTR>
0

>  <SCORE.RESTR.CAVITY>
0

>  <SCORE.RESTR.norm>
0

>  <SCORE.SYSTEM>
0

>  <SCORE.SYSTEM.CONST>
0

>  <SCORE.SYSTEM.DIHEDRAL>
0

>  <SCORE.SYSTEM.SOLV>
0

>  <SCORE.SYSTEM.norm>
0

>  <SCORE.heavy>
13

>  <SCORE.norm>
-1.32283

>  <RMSD>
0.802

$$$$
ligand
 OpenBabel02271912143D
libRbt.so/2013.1/901 2013/11/27
 13 14  0  0  0  0  0  0  0  0999 V2000
   33.9714   33.6675   22.7016 N   0  0  0  0  0  0  0  0  0  0  0  0
   33.1614   32.6276   23.1933 C   0  0  0  0  0  0  0  0  0  0  0  0
   32.0933   32.2417   22.3944 N   0  0  0  0  0  0  0  0  0  0  0  0
   33.3173   31.9995   24.3837 N   0  0  0  0  0  0  0  0  0  0  0  0
   34.4020   32.4979   25.0990 C   0  0  0  0  0  0  0  0  0  0  0  0
   35.2698   33.5155   24.6840 C   0  0  0  0  0  0  0  0  0  0  0  0
   35.0863   34.1561   23.4498 C   0  0  0  0  0  0  0  0  0  0  0  0
   35.7602   35.0633   22.9845 O   0  0  0  0  0  0  0  0  0  0  0  0
   36.2399   33.7300   25.6898 C   0  0  0  0  0  0  0  0  0  0  0  0
   35.9548   32.8315   26.7063 C   0  0  0  0  0  0  0  0  0  0  0  0
   34.8199   32.0632   26.3434 N   0  0  0  0  0  0  0  0  0  0  0  0
   37.3085   34.7618   25.5999 C   0  0  0  0  0  0  0  0  0  0  0  0
   38.4264   34.4391   26.5002 N   0  0  0  0  0  0  0  0  0  0  0  0
  1  2  1  0  0  0  0
  1  7  1  0  0  0  0
  2  3  1  0  0  0  0
  2  4  2  0  0  0  0
  4  5  1  0  0  0  0
  5  6  2  0  0  0  0
  5 11  1  0  0  0  0
  6  7  1  0  0  0  0
  6  9  1  0  0  0  0
  7  8  2  0  0  0  0
  9 10  2  0  0  0  0
  9 12  1  0  0  0  0
 10 11  1  0  0  0  0
 12 13  1  0  0  0  0
M  END
>  <CHROM.1>
-159.00569658,35.07373893,33.38223361,24.56152582,-2.82306210,0.60318531
2.15207432

>  <Name>
ligand

>  <RI>
0

>  <Rbt.Current_Directory>
/home/itssahil/PROJECTS/Mol_Feturizer/Test_systems_manuscript/rnas/3q50

>  <Rbt.Executable>
rbdock ($Id: //depot/dev/client3/rdock/2013.1/src/exe/rbdock.cxx#4 $)

>  <Rbt.Library>
libRbt.so (2013.1, Build901 2013/11/27)

>  <Rbt.Parameter_File>
/export/apps/rDock/src/rDock_2013.1_src/data/scripts/dock_solv.prm

>  <Rbt.Receptor>
prm/pocket_docking_3.prm

>  <SCORE>
-17.2641

>  <SCORE.INTER>
-17.228

>  <SCORE.INTER.CONST>
1

>  <SCORE.INTER.POLAR>
0

>  <SCORE.INTER.ROT>
1

>  <SCORE.INTER.SOLV>
22.4441

>  <SCORE.INTER.VDW>
-23.2334

>  <SCORE.INTER.norm>
-1.32523

>  <SCORE.INTRA>
-0.0361292

>  <SCORE.INTRA.DIHEDRAL>
-0.0243214

>  <SCORE.INTRA.DIHEDRAL.0>
1.65305

>  <SCORE.INTRA.POLAR>
0

>  <SCORE.INTRA.POLAR.0>
0

>  <SCORE.INTRA.REPUL>
0

>  <SCORE.INTRA.REPUL.0>
0

>  <SCORE.INTRA.SOLV>
-0.00309087

>  <SCORE.INTRA.SOLV.lig_0>
-46.9527

>  <SCORE.INTRA.VDW>
-0.0224231

>  <SCORE.INTRA.VDW.0>
-0.177978

>  <SCORE.INTRA.norm>
-0.00277917

>  <SCORE.RESTR>
0

>  <SCORE.RESTR.CAVITY>
0

>  <SCORE.RESTR.norm>
0

>  <SCORE.SYSTEM>
0

>  <SCORE.SYSTEM.CONST>
0

>  <SCORE.SYSTEM.DIHEDRAL>
0

>  <SCORE.SYSTEM.SOLV>
0

>  <SCORE.SYSTEM.norm>
0

>  <SCORE.heavy>
13

>  <SCORE.norm>
-1.32801

>  <RMSD>
0.802

$$$$
ligand
 OpenBabel02271912143D
libRbt.so/2013.1/901 2013/11/27
 13 14  0  0  0  0  0  0  0  0999 V2000
   33.9663   33.7008   22.7485 N   0  0  0  0  0  0  0  0  0  0  0  0
   33.1498   32.6587   23.2244 C   0  0  0  0  0  0  0  0  0  0  0  0
   32.0832   32.2874   22.4166 N   0  0  0  0  0  0  0  0  0  0  0  0
   33.2981   32.0156   24.4077 N   0  0  0  0  0  0  0  0  0  0  0  0
   34.3821   32.5004   25.1332 C   0  0  0  0  0  0  0  0  0  0  0  0
   35.2560   33.5190   24.7341 C   0  0  0  0  0  0  0  0  0  0  0  0
   35.0804   34.1753   23.5071 C   0  0  0  0  0  0  0  0  0  0  0  0
   35.7602   35.0851   23.0554 O   0  0  0  0  0  0  0  0  0  0  0  0
   36.2230   33.7169   25.7463 C   0  0  0  0  0  0  0  0  0  0  0  0
   35.9298   32.8076   26.7507 C   0  0  0  0  0  0  0  0  0  0  0  0
   34.7930   32.0488   26.3740 N   0  0  0  0  0  0  0  0  0  0  0  0
   37.2966   34.7450   25.6731 C   0  0  0  0  0  0  0  0  0  0  0  0
   38.4455   34.3642   26.5094 N   0  0  0  0  0  0  0  0  0  0  0  0
  1  2  1  0  0  0  0
  1  7  1  0  0  0  0
  2  3  1  0  0  0  0
  2  4  2  0  0  0  0
  4  5  1  0  0  0  0
  5  6  2  0  0  0  0
  5 11  1  0  0  0  0
  6  7  1  0  0  0  0
  6  9  1  0  0  0  0
  7  8  2  0  0  0  0
  9 10  2  0  0  0  0
  9 12  1  0  0  0  0
 10 11  1  0  0  0  0
 12 13  1  0  0  0  0
M  END
>  <CHROM.1>
-155.45996390,35.06284729,33.38470478,24.60399589,-2.81907748,0.59596531
2.16082180

>  <Name>
ligand

>  <RI>
0

>  <Rbt.Current_Directory>
/home/itssahil/PROJECTS/Mol_Feturizer/Test_systems_manuscript/rnas/3q50

>  <Rbt.Executable>
rbdock ($Id: //depot/dev/client3/rdock/2013.1/src/exe/rbdock.cxx#4 $)

>  <Rbt.Library>
libRbt.so (2013.1, Build901 2013/11/27)

>  <Rbt.Parameter_File>
/export/apps/rDock/src/rDock_2013.1_src/data/scripts/dock_solv.prm

>  <Rbt.Receptor>
prm/pocket_docking_4.prm

>  <SCORE>
-17.1723

>  <SCORE.INTER>
-17.1253

>  <SCORE.INTER.CONST>
1

>  <SCORE.INTER.POLAR>
0

>  <SCORE.INTER.ROT>
1

>  <SCORE.INTER.SOLV>
22.3697

>  <SCORE.INTER.VDW>
-23.1401

>  <SCORE.INTER.norm>
-1.31733

>  <SCORE.INTRA>
-0.047036

>  <SCORE.INTRA.DIHEDRAL>
-0.027871

>  <SCORE.INTRA.DIHEDRAL.0>
1.65305

>  <SCORE.INTRA.POLAR>
0

>  <SCORE.INTRA.POLAR.0>
0

>  <SCORE.INTRA.REPUL>
0

>  <SCORE.INTRA.REPUL.0>
0

>  <SCORE.INTRA.SOLV>
-0.00414088

>  <SCORE.INTRA.SOLV.lig_0>
-46.9527

>  <SCORE.INTRA.VDW>
-0.0310301

>  <SCORE.INTRA.VDW.0>
-0.177978

>  <SCORE.INTRA.norm>
-0.00361815

>  <SCORE.RESTR>
0

>  <SCORE.RESTR.CAVITY>
0

>  <SCORE.RESTR.norm>
0

>  <SCORE.SYSTEM>
0

>  <SCORE.SYSTEM.CONST>
0

>  <SCORE.SYSTEM.DIHEDRAL>
0

>  <SCORE.SYSTEM.SOLV>
0

>  <SCORE.SYSTEM.norm>
0

>  <SCORE.heavy>
13

>  <SCORE.norm>
-1.32095

>  <RMSD>
0.805

$$$$
ligand
 OpenBabel02271912143D
libRbt.so/2013.1/901 2013/11/27
 13 14  0  0  0  0  0  0  0  0999 V2000
   33.9843   33.6852   22.7694 N   0  0  0  0  0  0  0  0  0  0  0  0
   33.1607   32.6475   23.2428 C   0  0  0  0  0  0  0  0  0  0  0  0
   32.0916   32.2853   22.4342 N   0  0  0  0  0  0  0  0  0  0  0  0
   33.3048   32.0006   24.4245 N   0  0  0  0  0  0  0  0  0  0  0  0
   34.3920   32.4763   25.1512 C   0  0  0  0  0  0  0  0  0  0  0  0
   35.2728   33.4899   24.7545 C   0  0  0  0  0  0  0  0  0  0  0  0
   35.1016   34.1503   23.5290 C   0  0  0  0  0  0  0  0  0  0  0  0
   35.7875   35.0566   23.0795 O   0  0  0  0  0  0  0  0  0  0  0  0
   36.2411   33.6789   25.7671 C   0  0  0  0  0  0  0  0  0  0  0  0
   35.9418   32.7691   26.7693 C   0  0  0  0  0  0  0  0  0  0  0  0
   34.7999   32.0189   26.3908 N   0  0  0  0  0  0  0  0  0  0  0  0
   37.3216   34.6998   25.6963 C   0  0  0  0  0  0  0  0  0  0  0  0
   38.4563   34.3231   26.5537 N   0  0  0  0  0  0  0  0  0  0  0  0
  1  2  1  0  0  0  0
  1  7  1  0  0  0  0
  2  3  1  0  0  0  0
  2  4  2  0  0  0  0
  4  5  1  0  0  0  0
  5  6  2  0  0  0  0
  5 11  1  0  0  0  0
  6  7  1  0  0  0  0
  6  9  1  0  0  0  0
  7  8  2  0  0  0  0
  9 10  2  0  0  0  0
  9 12  1  0  0  0  0
 10 11  1  0  0  0  0
 12 13  1  0  0  0  0
M  END
>  <CHROM.1>
-156.64947537,35.07778189,33.35836547,24.62584041,-2.81350949,0.59221948
2.16050083

>  <Name>
ligand

>  <RI>
0

>  <Rbt.Current_Directory>
/home/itssahil/PROJECTS/Mol_Feturizer/Test_systems_manuscript/rnas/3q50

>  <Rbt.Executable>
rbdock ($Id: //depot/dev/client3/rdock/2013.1/src/exe/rbdock.cxx#4 $)

>  <Rbt.Library>
libRbt.so (2013.1, Build901 2013/11/27)

>  <Rbt.Parameter_File>
/export/apps/rDock/src/rDock_2013.1_src/data/scripts/dock_solv.prm

>  <Rbt.Receptor>
prm/pocket_docking_4.prm

>  <SCORE>
-17.1383

>  <SCORE.INTER>
-17.0949

>  <SCORE.INTER.CONST>
1

>  <SCORE.INTER.POLAR>
0

>  <SCORE.INTER.ROT>
1

>  <SCORE.INTER.SOLV>
22.2611

>  <SCORE.INTER.VDW>
-23.0836

>  <SCORE.INTER.norm>
-1.31499

>  <SCORE.INTRA>
-0.0434061

>  <SCORE.INTRA.DIHEDRAL>
-0.0268855

>  <SCORE.INTRA.DIHEDRAL.0>
1.65305

>  <SCORE.INTRA.POLAR>
0

>  <SCORE.INTRA.POLAR.0>
0

>  <SCORE.INTRA.REPUL>
0

>  <SCORE.INTRA.REPUL.0>
0

>  <SCORE.INTRA.SOLV>
-0.00378402

>  <SCORE.INTRA.SOLV.lig_0>
-46.9527

>  <SCORE.INTRA.VDW>
-0.0280713

>  <SCORE.INTRA.VDW.0>
-0.177978

>  <SCORE.INTRA.norm>
-0.00333893

>  <SCORE.RESTR>
0

>  <SCORE.RESTR.CAVITY>
0

>  <SCORE.RESTR.norm>
0

>  <SCORE.SYSTEM>
0

>  <SCORE.SYSTEM.CONST>
0

>  <SCORE.SYSTEM.DIHEDRAL>
0

>  <SCORE.SYSTEM.SOLV>
0

>  <SCORE.SYSTEM.norm>
0

>  <SCORE.heavy>
13

>  <SCORE.norm>
-1.31833

>  <RMSD>
0.807

$$$$
ligand
 OpenBabel02271912143D
libRbt.so/2013.1/901 2013/11/27
 13 14  0  0  0  0  0  0  0  0999 V2000
   33.9656   33.6673   22.7002 N   0  0  0  0  0  0  0  0  0  0  0  0
   33.1535   32.6295   23.1930 C   0  0  0  0  0  0  0  0  0  0  0  0
   32.0858   32.2437   22.3935 N   0  0  0  0  0  0  0  0  0  0  0  0
   33.3070   32.0035   24.3847 N   0  0  0  0  0  0  0  0  0  0  0  0
   34.3915   32.5017   25.1004 C   0  0  0  0  0  0  0  0  0  0  0  0
   35.2613   33.5172   24.6845 C   0  0  0  0  0  0  0  0  0  0  0  0
   35.0803   34.1557   23.4489 C   0  0  0  0  0  0  0  0  0  0  0  0
   35.7561   35.0610   22.9826 O   0  0  0  0  0  0  0  0  0  0  0  0
   36.2305   33.7322   25.6911 C   0  0  0  0  0  0  0  0  0  0  0  0
   35.9428   32.8361   26.7090 C   0  0  0  0  0  0  0  0  0  0  0  0
   34.8072   32.0688   26.3462 N   0  0  0  0  0  0  0  0  0  0  0  0
   37.3007   34.7623   25.6005 C   0  0  0  0  0  0  0  0  0  0  0  0
   38.4354   34.4178   26.4713 N   0  0  0  0  0  0  0  0  0  0  0  0
  1  2  1  0  0  0  0
  1  7  1  0  0  0  0
  2  3  1  0  0  0  0
  2  4  2  0  0  0  0
  4  5  1  0  0  0  0
  5  6  2  0  0  0  0
  5 11  1  0  0  0  0
  6  7  1  0  0  0  0
  6  9  1  0  0  0  0
  7  8  2  0  0  0  0
  9 10  2  0  0  0  0
  9 12  1  0  0  0  0
 10 11  1  0  0  0  0
 12 13  1  0  0  0  0
M  END
>  <CHROM.1>
-157.23196035,35.06673569,33.38222392,24.55950069,-2.82231182,0.59975631
2.14919844

>  <Name>
ligand

>  <RI>
0

>  <Rbt.Current_Directory>
/home/itssahil/PROJECTS/Mol_Feturizer/Test_systems_manuscript/rnas/3q50

>  <Rbt.Executable>
rbdock ($Id: //depot/dev/client3/rdock/2013.1/src/exe/rbdock.cxx#4 $)

>  <Rbt.Library>
libRbt.so (2013.1, Build901 2013/11/27)

>  <Rbt.Parameter_File>
/export/apps/rDock/src/rDock_2013.1_src/data/scripts/dock_solv.prm

>  <Rbt.Receptor>
prm/pocket_docking_7.prm

>  <SCORE>
-17.2646

>  <SCORE.INTER>
-17.223

>  <SCORE.INTER.CONST>
1

>  <SCORE.INTER.POLAR>
0

>  <SCORE.INTER.ROT>
1

>  <SCORE.INTER.SOLV>
22.48

>  <SCORE.INTER.VDW>
-23.242

>  <SCORE.INTER.norm>
-1.32484

>  <SCORE.INTRA>
-0.0416159

>  <SCORE.INTRA.DIHEDRAL>
-0.0263265

>  <SCORE.INTRA.DIHEDRAL.0>
1.65305

>  <SCORE.INTRA.POLAR>
0

>  <SCORE.INTRA.POLAR.0>
0

>  <SCORE.INTRA.REPUL>
0

>  <SCORE.INTRA.REPUL.0>
0

>  <SCORE.INTRA.SOLV>
-0.00361082

>  <SCORE.INTRA.SOLV.lig_0>
-46.9527

>  <SCORE.INTRA.VDW>
-0.0266472

>  <SCORE.INTRA.VDW.0>
-0.177978

>  <SCORE.INTRA.norm>
-0.00320122

>  <SCORE.RESTR>
0

>  <SCORE.RESTR.CAVITY>
0

>  <SCORE.RESTR.norm>
0

>  <SCORE.SYSTEM>
0

>  <SCORE.SYSTEM.CONST>
0

>  <SCORE.SYSTEM.DIHEDRAL>
0

>  <SCORE.SYSTEM.SOLV>
0

>  <SCORE.SYSTEM.norm>
0

>  <SCORE.heavy>
13

>  <SCORE.norm>
-1.32804

>  <RMSD>
0.809

$$$$
ligand
 OpenBabel02271912143D
libRbt.so/2013.1/901 2013/11/27
 13 14  0  0  0  0  0  0  0  0999 V2000
   33.9726   33.6727   22.6995 N   0  0  0  0  0  0  0  0  0  0  0  0
   33.1559   32.6372   23.1893 C   0  0  0  0  0  0  0  0  0  0  0  0
   32.0878   32.2570   22.3876 N   0  0  0  0  0  0  0  0  0  0  0  0
   33.3053   32.0085   24.3801 N   0  0  0  0  0  0  0  0  0  0  0  0
   34.3907   32.5012   25.0981 C   0  0  0  0  0  0  0  0  0  0  0  0
   35.2650   33.5140   24.6854 C   0  0  0  0  0  0  0  0  0  0  0  0
   35.0882   34.1554   23.4506 C   0  0  0  0  0  0  0  0  0  0  0  0
   35.7682   35.0590   22.9869 O   0  0  0  0  0  0  0  0  0  0  0  0
   36.2336   33.7234   25.6937 C   0  0  0  0  0  0  0  0  0  0  0  0
   35.9411   32.8266   26.7095 C   0  0  0  0  0  0  0  0  0  0  0  0
   34.8030   32.0643   26.3437 N   0  0  0  0  0  0  0  0  0  0  0  0
   37.3080   34.7495   25.6064 C   0  0  0  0  0  0  0  0  0  0  0  0
   38.4263   34.4157   26.5022 N   0  0  0  0  0  0  0  0  0  0  0  0
  1  2  1  0  0  0  0
  1  7  1  0  0  0  0
  2  3  1  0  0  0  0
  2  4  2  0  0  0  0
  4  5  1  0  0  0  0
  5  6  2  0  0  0  0
  5 11  1  0  0  0  0
  6  7  1  0  0  0  0
  6  9  1  0  0  0  0
  7  8  2  0  0  0  0
  9 10  2  0  0  0  0
  9 12  1  0  0  0  0
 10 11  1  0  0  0  0
 12 13  1  0  0  0  0
M  END
>  <CHROM.1>
-158.57918947,35.06898207,33.38136479,24.56176404,-2.81721333,0.59944979
2.14853492

>  <Name>
ligand

>  <RI>
0

>  <Rbt.Current_Directory>
/home/itssahil/PROJECTS/Mol_Feturizer/Test_systems_manuscript/rnas/3q50

>  <Rbt.Executable>
rbdock ($Id: //depot/dev/client3/rdock/2013.1/src/exe/rbdock.cxx#4 $)

>  <Rbt.Library>
libRbt.so (2013.1, Build901 2013/11/27)

>  <Rbt.Parameter_File>
/export/apps/rDock/src/rDock_2013.1_src/data/scripts/dock_solv.prm

>  <Rbt.Receptor>
prm/pocket_docking_7.prm

>  <SCORE>
-17.2648

>  <SCORE.INTER>
-17.2274

>  <SCORE.INTER.CONST>
1

>  <SCORE.INTER.POLAR>
0

>  <SCORE.INTER.ROT>
1

>  <SCORE.INTER.SOLV>
22.4311

>  <SCORE.INTER.VDW>
-23.2286

>  <SCORE.INTER.norm>
-1.32518

>  <SCORE.INTRA>
-0.0374522

>  <SCORE.INTRA.DIHEDRAL>
-0.0248446

>  <SCORE.INTRA.DIHEDRAL.0>
1.65305

>  <SCORE.INTRA.POLAR>
0

>  <SCORE.INTRA.POLAR.0>
0

>  <SCORE.INTRA.REPUL>
0

>  <SCORE.INTRA.REPUL.0>
0

>  <SCORE.INTRA.SOLV>
-0.00321478

>  <SCORE.INTRA.SOLV.lig_0>
-46.9527

>  <SCORE.INTRA.VDW>
-0.0234225

>  <SCORE.INTRA.VDW.0>
-0.177978

>  <SCORE.INTRA.norm>
-0.00288094

>  <SCORE.RESTR>
0

>  <SCORE.RESTR.CAVITY>
0

>  <SCORE.RESTR.norm>
0

>  <SCORE.SYSTEM>
0

>  <SCORE.SYSTEM.CONST>
0

>  <SCORE.SYSTEM.DIHEDRAL>
0

>  <SCORE.SYSTEM.SOLV>
0

>  <SCORE.SYSTEM.norm>
0

>  <SCORE.heavy>
13

>  <SCORE.norm>
-1.32806

>  <RMSD>
0.811

$$$$
ligand
 OpenBabel02271912143D
libRbt.so/2013.1/901 2013/11/27
 13 14  0  0  0  0  0  0  0  0999 V2000
   34.8536   34.1842   23.3238 N   0  0  0  0  0  0  0  0  0  0  0  0
   33.9249   33.1747   23.6361 C   0  0  0  0  0  0  0  0  0  0  0  0
   32.9147   32.9522   22.7098 N   0  0  0  0  0  0  0  0  0  0  0  0
   33.9167   32.4309   24.7686 N   0  0  0  0  0  0  0  0  0  0  0  0
   34.9598   32.7713   25.6245 C   0  0  0  0  0  0  0  0  0  0  0  0
   35.9367   33.7469   25.3914 C   0  0  0  0  0  0  0  0  0  0  0  0
   35.9228   34.5093   24.2142 C   0  0  0  0  0  0  0  0  0  0  0  0
   36.7042   35.3961   23.9028 O   0  0  0  0  0  0  0  0  0  0  0  0
   36.8167   33.7887   26.4971 C   0  0  0  0  0  0  0  0  0  0  0  0
   36.3678   32.8287   27.3908 C   0  0  0  0  0  0  0  0  0  0  0  0
   35.2204   32.1928   26.8532 N   0  0  0  0  0  0  0  0  0  0  0  0
   37.9621   34.7325   26.6057 C   0  0  0  0  0  0  0  0  0  0  0  0
   39.1009   34.0991   27.2887 N   0  0  0  0  0  0  0  0  0  0  0  0
  1  2  1  0  0  0  0
  1  7  1  0  0  0  0
  2  3  1  0  0  0  0
  2  4  2  0  0  0  0
  4  5  1  0  0  0  0
  5  6  2  0  0  0  0
  5 11  1  0  0  0  0
  6  7  1  0  0  0  0
  6  9  1  0  0  0  0
  7  8  2  0  0  0  0
  9 10  2  0  0  0  0
  9 12  1  0  0  0  0
 10 11  1  0  0  0  0
 12 13  1  0  0  0  0
M  END
>  <CHROM.1>
-144.69394927,35.75583792,33.63058010,25.21648093,-2.69075951,0.56833490
2.16779970

>  <Name>
ligand

>  <RI>
0

>  <Rbt.Current_Directory>
/home/itssahil/PROJECTS/Mol_Feturizer/Test_systems_manuscript/rnas/3q50

>  <Rbt.Executable>
rbdock ($Id: //depot/dev/client3/rdock/2013.1/src/exe/rbdock.cxx#4 $)

>  <Rbt.Library>
libRbt.so (2013.1, Build901 2013/11/27)

>  <Rbt.Parameter_File>
/export/apps/rDock/src/rDock_2013.1_src/data/scripts/dock_solv.prm

>  <Rbt.Receptor>
prm/pocket_docking_2.prm

>  <SCORE>
-16.9121

>  <SCORE.INTER>
-16.8352

>  <SCORE.INTER.CONST>
1

>  <SCORE.INTER.POLAR>
0

>  <SCORE.INTER.ROT>
1

>  <SCORE.INTER.SOLV>
18.6557

>  <SCORE.INTER.VDW>
-21.7087

>  <SCORE.INTER.norm>
-1.29501

>  <SCORE.INTRA>
-0.0768831

>  <SCORE.INTRA.DIHEDRAL>
-0.0269366

>  <SCORE.INTRA.DIHEDRAL.0>
1.65305

>  <SCORE.INTRA.POLAR>
0

>  <SCORE.INTRA.POLAR.0>
0

>  <SCORE.INTRA.REPUL>
0

>  <SCORE.INTRA.REPUL.0>
0

>  <SCORE.INTRA.SOLV>
-0.00742343

>  <SCORE.INTRA.SOLV.lig_0>
-46.9527

>  <SCORE.INTRA.VDW>
-0.0597031

>  <SCORE.INTRA.VDW.0>
-0.177978

>  <SCORE.INTRA.norm>
-0.00591408

>  <SCORE.RESTR>
0

>  <SCORE.RESTR.CAVITY>
0

>  <SCORE.RESTR.norm>
0

>  <SCORE.SYSTEM>
0

>  <SCORE.SYSTEM.CONST>
0

>  <SCORE.SYSTEM.DIHEDRAL>
0

>  <SCORE.SYSTEM.SOLV>
0

>  <SCORE.SYSTEM.norm>
0

>  <SCORE.heavy>
13

>  <SCORE.norm>
-1.30093

>  <RMSD>
0.816

$$$$
ligand
 OpenBabel02271912143D
libRbt.so/2013.1/901 2013/11/27
 13 14  0  0  0  0  0  0  0  0999 V2000
   33.8443   33.6429   22.6281 N   0  0  0  0  0  0  0  0  0  0  0  0
   33.0455   32.6408   23.2087 C   0  0  0  0  0  0  0  0  0  0  0  0
   31.9504   32.2138   22.4694 N   0  0  0  0  0  0  0  0  0  0  0  0
   33.2364   32.0863   24.4300 N   0  0  0  0  0  0  0  0  0  0  0  0
   34.3459   32.6205   25.0784 C   0  0  0  0  0  0  0  0  0  0  0  0
   35.2048   33.6046   24.5740 C   0  0  0  0  0  0  0  0  0  0  0  0
   34.9850   34.1691   23.3091 C   0  0  0  0  0  0  0  0  0  0  0  0
   35.6480   35.0413   22.7673 O   0  0  0  0  0  0  0  0  0  0  0  0
   36.2077   33.8740   25.5334 C   0  0  0  0  0  0  0  0  0  0  0  0
   35.9510   33.0419   26.6120 C   0  0  0  0  0  0  0  0  0  0  0  0
   34.8013   32.2604   26.3335 N   0  0  0  0  0  0  0  0  0  0  0  0
   37.2778   34.8911   25.3460 C   0  0  0  0  0  0  0  0  0  0  0  0
   38.0000   35.1308   26.6051 N   0  0  0  0  0  0  0  0  0  0  0  0
  1  2  1  0  0  0  0
  1  7  1  0  0  0  0
  2  3  1  0  0  0  0
  2  4  2  0  0  0  0
  4  5  1  0  0  0  0
  5  6  2  0  0  0  0
  5 11  1  0  0  0  0
  6  7  1  0  0  0  0
  6  9  1  0  0  0  0
  7  8  2  0  0  0  0
  9 10  2  0  0  0  0
  9 12  1  0  0  0  0
 10 11  1  0  0  0  0
 12 13  1  0  0  0  0
M  END
>  <CHROM.1>
168.70409584,34.96994084,33.50718171,24.49692939,-2.84007037,0.63605933,2.09646927

>  <Name>
ligand

>  <RI>
0

>  <Rbt.Current_Directory>
/home/itssahil/PROJECTS/Mol_Feturizer/Test_systems_manuscript/rnas/3q50

>  <Rbt.Executable>
rbdock ($Id: //depot/dev/client3/rdock/2013.1/src/exe/rbdock.cxx#4 $)

>  <Rbt.Library>
libRbt.so (2013.1, Build901 2013/11/27)

>  <Rbt.Parameter_File>
/export/apps/rDock/src/rDock_2013.1_src/data/scripts/dock_solv.prm

>  <Rbt.Receptor>
prm/blind_docking_60.prm

>  <SCORE>
-16.3986

>  <SCORE.INTER>
-16.4327

>  <SCORE.INTER.CONST>
1

>  <SCORE.INTER.POLAR>
0

>  <SCORE.INTER.ROT>
1

>  <SCORE.INTER.SOLV>
23.4407

>  <SCORE.INTER.VDW>
-23.0354

>  <SCORE.INTER.norm>
-1.26406

>  <SCORE.INTRA>
0.0290036

>  <SCORE.INTRA.DIHEDRAL>
0.0569166

>  <SCORE.INTRA.DIHEDRAL.0>
1.65305

>  <SCORE.INTRA.POLAR>
0

>  <SCORE.INTRA.POLAR.0>
0

>  <SCORE.INTRA.REPUL>
0

>  <SCORE.INTRA.REPUL.0>
0

>  <SCORE.INTRA.SOLV>
0.00233582

>  <SCORE.INTRA.SOLV.lig_0>
-46.9527

>  <SCORE.INTRA.VDW>
-0.000622597

>  <SCORE.INTRA.VDW.0>
-0.177978

>  <SCORE.INTRA.norm>
0.00223105

>  <SCORE.RESTR>
0.00516585

>  <SCORE.RESTR.CAVITY>
0.00516585

>  <SCORE.RESTR.norm>
0.000397373

>  <SCORE.SYSTEM>
0

>  <SCORE.SYSTEM.CONST>
0

>  <SCORE.SYSTEM.DIHEDRAL>
0

>  <SCORE.SYSTEM.SOLV>
0

>  <SCORE.SYSTEM.norm>
0

>  <SCORE.heavy>
13

>  <SCORE.norm>
-1.26143

>  <RMSD>
0.820

$$$$
ligand
 OpenBabel02271912143D
libRbt.so/2013.1/901 2013/11/27
 13 14  0  0  0  0  0  0  0  0999 V2000
   34.8725   34.1767   23.3634 N   0  0  0  0  0  0  0  0  0  0  0  0
   33.9528   33.1616   23.6846 C   0  0  0  0  0  0  0  0  0  0  0  0
   32.9286   32.9407   22.7734 N   0  0  0  0  0  0  0  0  0  0  0  0
   33.9657   32.4112   24.8126 N   0  0  0  0  0  0  0  0  0  0  0  0
   35.0212   32.7506   25.6536 C   0  0  0  0  0  0  0  0  0  0  0  0
   35.9905   33.7314   25.4106 C   0  0  0  0  0  0  0  0  0  0  0  0
   35.9546   34.5007   24.2384 C   0  0  0  0  0  0  0  0  0  0  0  0
   36.7274   35.3924   23.9197 O   0  0  0  0  0  0  0  0  0  0  0  0
   36.8880   33.7701   26.5022 C   0  0  0  0  0  0  0  0  0  0  0  0
   36.4574   32.8032   27.3973 C   0  0  0  0  0  0  0  0  0  0  0  0
   35.3039   32.1659   26.8745 N   0  0  0  0  0  0  0  0  0  0  0  0
   38.0314   34.7178   26.5979 C   0  0  0  0  0  0  0  0  0  0  0  0
   39.1187   34.1479   27.4088 N   0  0  0  0  0  0  0  0  0  0  0  0
  1  2  1  0  0  0  0
  1  7  1  0  0  0  0
  2  3  1  0  0  0  0
  2  4  2  0  0  0  0
  4  5  1  0  0  0  0
  5  6  2  0  0  0  0
  5 11  1  0  0  0  0
  6  7  1  0  0  0  0
  6  9  1  0  0  0  0
  7  8  2  0  0  0  0
  9 10  2  0  0  0  0
  9 12  1  0  0  0  0
 10 11  1  0  0  0  0
 12 13  1  0  0  0  0
M  END
>  <CHROM.1>
-152.00170497,35.80195513,33.62054878,25.25017062,-2.70092077,0.57334643
2.18225590

>  <Name>
ligand

>  <RI>
0

>  <Rbt.Current_Directory>
/home/itssahil/PROJECTS/Mol_Feturizer/Test_systems_manuscript/rnas/3q50

>  <Rbt.Executable>
rbdock ($Id: //depot/dev/client3/rdock/2013.1/src/exe/rbdock.cxx#4 $)

>  <Rbt.Library>
libRbt.so (2013.1, Build901 2013/11/27)

>  <Rbt.Parameter_File>
/export/apps/rDock/src/rDock_2013.1_src/data/scripts/dock_solv.prm

>  <Rbt.Receptor>
prm/pocket_docking_6.prm

>  <SCORE>
-16.913

>  <SCORE.INTER>
-16.8557

>  <SCORE.INTER.CONST>
1

>  <SCORE.INTER.POLAR>
0

>  <SCORE.INTER.ROT>
1

>  <SCORE.INTER.SOLV>
18.4633

>  <SCORE.INTER.VDW>
-21.6582

>  <SCORE.INTER.norm>
-1.29659

>  <SCORE.INTRA>
-0.0573092

>  <SCORE.INTRA.DIHEDRAL>
-0.0295186

>  <SCORE.INTRA.DIHEDRAL.0>
1.65305

>  <SCORE.INTRA.POLAR>
0

>  <SCORE.INTRA.POLAR.0>
0

>  <SCORE.INTRA.REPUL>
0

>  <SCORE.INTRA.REPUL.0>
0

>  <SCORE.INTRA.SOLV>
-0.00519547

>  <SCORE.INTRA.SOLV.lig_0>
-46.9527

>  <SCORE.INTRA.VDW>
-0.0399522

>  <SCORE.INTRA.VDW.0>
-0.177978

>  <SCORE.INTRA.norm>
-0.0044084

>  <SCORE.RESTR>
0

>  <SCORE.RESTR.CAVITY>
0

>  <SCORE.RESTR.norm>
0

>  <SCORE.SYSTEM>
0

>  <SCORE.SYSTEM.CONST>
0

>  <SCORE.SYSTEM.DIHEDRAL>
0

>  <SCORE.SYSTEM.SOLV>
0

>  <SCORE.SYSTEM.norm>
0

>  <SCORE.heavy>
13

>  <SCORE.norm>
-1.301

>  <RMSD>
0.824

$$$$
ligand
 OpenBabel02271912143D
libRbt.so/2013.1/901 2013/11/27
 13 14  0  0  0  0  0  0  0  0999 V2000
   33.9567   33.6454   22.7126 N   0  0  0  0  0  0  0  0  0  0  0  0
   33.1365   32.6167   23.2109 C   0  0  0  0  0  0  0  0  0  0  0  0
   32.0620   32.2394   22.4165 N   0  0  0  0  0  0  0  0  0  0  0  0
   33.2885   31.9920   24.4036 N   0  0  0  0  0  0  0  0  0  0  0  0
   34.3806   32.4813   25.1138 C   0  0  0  0  0  0  0  0  0  0  0  0
   35.2586   33.4873   24.6922 C   0  0  0  0  0  0  0  0  0  0  0  0
   35.0790   34.1246   23.4558 C   0  0  0  0  0  0  0  0  0  0  0  0
   35.7618   35.0223   22.9847 O   0  0  0  0  0  0  0  0  0  0  0  0
   36.2337   33.6952   25.6946 C   0  0  0  0  0  0  0  0  0  0  0  0
   35.9413   32.8044   26.7156 C   0  0  0  0  0  0  0  0  0  0  0  0
   34.7969   32.0472   26.3590 N   0  0  0  0  0  0  0  0  0  0  0  0
   37.3136   34.7146   25.5973 C   0  0  0  0  0  0  0  0  0  0  0  0
   38.4455   34.3647   26.4696 N   0  0  0  0  0  0  0  0  0  0  0  0
  1  2  1  0  0  0  0
  1  7  1  0  0  0  0
  2  3  1  0  0  0  0
  2  4  2  0  0  0  0
  4  5  1  0  0  0  0
  5  6  2  0  0  0  0
  5 11  1  0  0  0  0
  6  7  1  0  0  0  0
  6  9  1  0  0  0  0
  7  8  2  0  0  0  0
  9 10  2  0  0  0  0
  9 12  1  0  0  0  0
 10 11  1  0  0  0  0
 12 13  1  0  0  0  0
M  END
>  <CHROM.1>
-157.51640429,35.06202241,33.35422275,24.56868248,-2.81961147,0.58994642
2.14541957

>  <Name>
ligand

>  <RI>
0

>  <Rbt.Current_Directory>
/home/itssahil/PROJECTS/Mol_Feturizer/Test_systems_manuscript/rnas/3q50

>  <Rbt.Executable>
rbdock ($Id: //depot/dev/client3/rdock/2013.1/src/exe/rbdock.cxx#4 $)

>  <Rbt.Library>
libRbt.so (2013.1, Build901 2013/11/27)

>  <Rbt.Parameter_File>
/export/apps/rDock/src/rDock_2013.1_src/data/scripts/dock_solv.prm

>  <Rbt.Receptor>
prm/pocket_docking_4.prm

>  <SCORE>
-17.2008

>  <SCORE.INTER>
-17.16

>  <SCORE.INTER.CONST>
1

>  <SCORE.INTER.POLAR>
0

>  <SCORE.INTER.ROT>
1

>  <SCORE.INTER.SOLV>
22.4869

>  <SCORE.INTER.VDW>
-23.2023

>  <SCORE.INTER.norm>
-1.32

>  <SCORE.INTRA>
-0.0407392

>  <SCORE.INTRA.DIHEDRAL>
-0.0260354

>  <SCORE.INTRA.DIHEDRAL.0>
1.65305

>  <SCORE.INTRA.POLAR>
0

>  <SCORE.INTRA.POLAR.0>
0

>  <SCORE.INTRA.REPUL>
0

>  <SCORE.INTRA.REPUL.0>
0

>  <SCORE.INTRA.SOLV>
-0.00352666

>  <SCORE.INTRA.SOLV.lig_0>
-46.9527

>  <SCORE.INTRA.VDW>
-0.0259581

>  <SCORE.INTRA.VDW.0>
-0.177978

>  <SCORE.INTRA.norm>
-0.00313378

>  <SCORE.RESTR>
0

>  <SCORE.RESTR.CAVITY>
0

>  <SCORE.RESTR.norm>
0

>  <SCORE.SYSTEM>
0

>  <SCORE.SYSTEM.CONST>
0

>  <SCORE.SYSTEM.DIHEDRAL>
0

>  <SCORE.SYSTEM.SOLV>
0

>  <SCORE.SYSTEM.norm>
0

>  <SCORE.heavy>
13

>  <SCORE.norm>
-1.32314

>  <RMSD>
0.826

$$$$
ligand
 OpenBabel02271912143D
libRbt.so/2013.1/901 2013/11/27
 13 14  0  0  0  0  0  0  0  0999 V2000
   35.0176   34.3135   23.3367 N   0  0  0  0  0  0  0  0  0  0  0  0
   34.1200   33.2724   23.6362 C   0  0  0  0  0  0  0  0  0  0  0  0
   33.1105   33.0380   22.7121 N   0  0  0  0  0  0  0  0  0  0  0  0
   34.1403   32.5084   24.7549 N   0  0  0  0  0  0  0  0  0  0  0  0
   35.1790   32.8629   25.6106 C   0  0  0  0  0  0  0  0  0  0  0  0
   36.1263   33.8700   25.3894 C   0  0  0  0  0  0  0  0  0  0  0  0
   36.0830   34.6529   24.2264 C   0  0  0  0  0  0  0  0  0  0  0  0
   36.8368   35.5670   23.9264 O   0  0  0  0  0  0  0  0  0  0  0  0
   37.0120   33.9169   26.4903 C   0  0  0  0  0  0  0  0  0  0  0  0
   36.5965   32.9286   27.3691 C   0  0  0  0  0  0  0  0  0  0  0  0
   35.4641   32.2700   26.8269 N   0  0  0  0  0  0  0  0  0  0  0  0
   38.1308   34.8910   26.6091 C   0  0  0  0  0  0  0  0  0  0  0  0
   39.2850   34.2837   27.2900 N   0  0  0  0  0  0  0  0  0  0  0  0
  1  2  1  0  0  0  0
  1  7  1  0  0  0  0
  2  3  1  0  0  0  0
  2  4  2  0  0  0  0
  4  5  1  0  0  0  0
  5  6  2  0  0  0  0
  5 11  1  0  0  0  0
  6  7  1  0  0  0  0
  6  9  1  0  0  0  0
  7  8  2  0  0  0  0
  9 10  2  0  0  0  0
  9 12  1  0  0  0  0
 10 11  1  0  0  0  0
 12 13  1  0  0  0  0
M  END
>  <CHROM.1>
-145.47303711,35.94707913,33.75224434,25.21481801,-2.71559714,0.58911899
2.19994926

>  <Name>
ligand

>  <RI>
0

>  <Rbt.Current_Directory>
/home/itssahil/PROJECTS/Mol_Feturizer/Test_systems_manuscript/rnas/3q50

>  <Rbt.Executable>
rbdock ($Id: //depot/dev/client3/rdock/2013.1/src/exe/rbdock.cxx#4 $)

>  <Rbt.Library>
libRbt.so (2013.1, Build901 2013/11/27)

>  <Rbt.Parameter_File>
/export/apps/rDock/src/rDock_2013.1_src/data/scripts/dock_solv.prm

>  <Rbt.Receptor>
prm/pocket_docking_6.prm

>  <SCORE>
-16.7812

>  <SCORE.INTER>
-16.7062

>  <SCORE.INTER.CONST>
1

>  <SCORE.INTER.POLAR>
0

>  <SCORE.INTER.ROT>
1

>  <SCORE.INTER.SOLV>
17.9627

>  <SCORE.INTER.VDW>
-21.3917

>  <SCORE.INTER.norm>
-1.28509

>  <SCORE.INTRA>
-0.0749666

>  <SCORE.INTRA.DIHEDRAL>
-0.0275994

>  <SCORE.INTRA.DIHEDRAL.0>
1.65305

>  <SCORE.INTRA.POLAR>
0

>  <SCORE.INTRA.POLAR.0>
0

>  <SCORE.INTRA.REPUL>
0

>  <SCORE.INTRA.REPUL.0>
0

>  <SCORE.INTRA.SOLV>
-0.00719071

>  <SCORE.INTRA.SOLV.lig_0>
-46.9527

>  <SCORE.INTRA.VDW>
-0.0575715

>  <SCORE.INTRA.VDW.0>
-0.177978

>  <SCORE.INTRA.norm>
-0.00576666

>  <SCORE.RESTR>
0

>  <SCORE.RESTR.CAVITY>
0

>  <SCORE.RESTR.norm>
0

>  <SCORE.SYSTEM>
0

>  <SCORE.SYSTEM.CONST>
0

>  <SCORE.SYSTEM.DIHEDRAL>
0

>  <SCORE.SYSTEM.SOLV>
0

>  <SCORE.SYSTEM.norm>
0

>  <SCORE.heavy>
13

>  <SCORE.norm>
-1.29086

>  <RMSD>
0.842

$$$$
ligand
 OpenBabel02271912143D
libRbt.so/2013.1/901 2013/11/27
 13 14  0  0  0  0  0  0  0  0999 V2000
   33.8429   33.6270   22.5968 N   0  0  0  0  0  0  0  0  0  0  0  0
   33.0352   32.6334   23.1797 C   0  0  0  0  0  0  0  0  0  0  0  0
   31.9490   32.1985   22.4319 N   0  0  0  0  0  0  0  0  0  0  0  0
   33.2097   32.0940   24.4103 N   0  0  0  0  0  0  0  0  0  0  0  0
   34.3116   32.6348   25.0660 C   0  0  0  0  0  0  0  0  0  0  0  0
   35.1784   33.6113   24.5603 C   0  0  0  0  0  0  0  0  0  0  0  0
   34.9756   34.1601   23.2856 C   0  0  0  0  0  0  0  0  0  0  0  0
   35.6468   35.0246   22.7414 O   0  0  0  0  0  0  0  0  0  0  0  0
   36.1694   33.8915   25.5289 C   0  0  0  0  0  0  0  0  0  0  0  0
   35.8977   33.0734   26.6145 C   0  0  0  0  0  0  0  0  0  0  0  0
   34.7505   32.2900   26.3312 N   0  0  0  0  0  0  0  0  0  0  0  0
   37.2434   34.9046   25.3423 C   0  0  0  0  0  0  0  0  0  0  0  0
   38.0261   35.0727   26.5767 N   0  0  0  0  0  0  0  0  0  0  0  0
  1  2  1  0  0  0  0
  1  7  1  0  0  0  0
  2  3  1  0  0  0  0
  2  4  2  0  0  0  0
  4  5  1  0  0  0  0
  5  6  2  0  0  0  0
  5 11  1  0  0  0  0
  6  7  1  0  0  0  0
  6  9  1  0  0  0  0
  7  8  2  0  0  0  0
  9 10  2  0  0  0  0
  9 12  1  0  0  0  0
 10 11  1  0  0  0  0
 12 13  1  0  0  0  0
M  END
>  <CHROM.1>
173.68304284,34.95061821,33.50622779,24.47888290,-2.82519597,0.63264072,2.07694723

>  <Name>
ligand

>  <RI>
0

>  <Rbt.Current_Directory>
/home/itssahil/PROJECTS/Mol_Feturizer/Test_systems_manuscript/rnas/3q50

>  <Rbt.Executable>
rbdock ($Id: //depot/dev/client3/rdock/2013.1/src/exe/rbdock.cxx#4 $)

>  <Rbt.Library>
libRbt.so (2013.1, Build901 2013/11/27)

>  <Rbt.Parameter_File>
/export/apps/rDock/src/rDock_2013.1_src/data/scripts/dock_solv.prm

>  <Rbt.Receptor>
prm/blind_docking_80.prm

>  <SCORE>
-16.4505

>  <SCORE.INTER>
-16.4781

>  <SCORE.INTER.CONST>
1

>  <SCORE.INTER.POLAR>
0

>  <SCORE.INTER.ROT>
1

>  <SCORE.INTER.SOLV>
23.3374

>  <SCORE.INTER.VDW>
-23.0312

>  <SCORE.INTER.norm>
-1.26755

>  <SCORE.INTRA>
0.0272268

>  <SCORE.INTRA.DIHEDRAL>
0.0435232

>  <SCORE.INTRA.DIHEDRAL.0>
1.65305

>  <SCORE.INTRA.POLAR>
0

>  <SCORE.INTRA.POLAR.0>
0

>  <SCORE.INTRA.REPUL>
0

>  <SCORE.INTRA.REPUL.0>
0

>  <SCORE.INTRA.SOLV>
0.00212007

>  <SCORE.INTRA.SOLV.lig_0>
-46.9527

>  <SCORE.INTRA.VDW>
0.00440517

>  <SCORE.INTRA.VDW.0>
-0.177978

>  <SCORE.INTRA.norm>
0.00209437

>  <SCORE.RESTR>
0.000465403

>  <SCORE.RESTR.CAVITY>
0.000465403

>  <SCORE.RESTR.norm>
3.58003e-05

>  <SCORE.SYSTEM>
0

>  <SCORE.SYSTEM.CONST>
0

>  <SCORE.SYSTEM.DIHEDRAL>
0

>  <SCORE.SYSTEM.SOLV>
0

>  <SCORE.SYSTEM.norm>
0

>  <SCORE.heavy>
13

>  <SCORE.norm>
-1.26542

>  <RMSD>
0.847

$$$$
ligand
 OpenBabel02271912143D
libRbt.so/2013.1/901 2013/11/27
 13 14  0  0  0  0  0  0  0  0999 V2000
   34.9067   34.2002   23.3254 N   0  0  0  0  0  0  0  0  0  0  0  0
   33.9640   33.2027   23.6345 C   0  0  0  0  0  0  0  0  0  0  0  0
   32.9530   32.9946   22.7057 N   0  0  0  0  0  0  0  0  0  0  0  0
   33.9434   32.4580   24.7662 N   0  0  0  0  0  0  0  0  0  0  0  0
   34.9889   32.7837   25.6248 C   0  0  0  0  0  0  0  0  0  0  0  0
   35.9792   33.7466   25.3949 C   0  0  0  0  0  0  0  0  0  0  0  0
   35.9780   34.5103   24.2185 C   0  0  0  0  0  0  0  0  0  0  0  0
   36.7718   35.3870   23.9097 O   0  0  0  0  0  0  0  0  0  0  0  0
   36.8572   33.7756   26.5026 C   0  0  0  0  0  0  0  0  0  0  0  0
   36.3937   32.8208   27.3943 C   0  0  0  0  0  0  0  0  0  0  0  0
   35.2392   32.2006   26.8535 N   0  0  0  0  0  0  0  0  0  0  0  0
   38.0147   34.7041   26.6148 C   0  0  0  0  0  0  0  0  0  0  0  0
   39.0754   34.1216   27.4516 N   0  0  0  0  0  0  0  0  0  0  0  0
  1  2  1  0  0  0  0
  1  7  1  0  0  0  0
  2  3  1  0  0  0  0
  2  4  2  0  0  0  0
  4  5  1  0  0  0  0
  5  6  2  0  0  0  0
  5 11  1  0  0  0  0
  6  7  1  0  0  0  0
  6  9  1  0  0  0  0
  7  8  2  0  0  0  0
  9 10  2  0  0  0  0
  9 12  1  0  0  0  0
 10 11  1  0  0  0  0
 12 13  1  0  0  0  0
M  END
>  <CHROM.1>
-152.17330097,35.79166616,33.63823354,25.23183641,-2.67122659,0.56986905
2.16122688

>  <Name>
ligand

>  <RI>
0

>  <Rbt.Current_Directory>
/home/itssahil/PROJECTS/Mol_Feturizer/Test_systems_manuscript/rnas/3q50

>  <Rbt.Executable>
rbdock ($Id: //depot/dev/client3/rdock/2013.1/src/exe/rbdock.cxx#4 $)

>  <Rbt.Library>
libRbt.so (2013.1, Build901 2013/11/27)

>  <Rbt.Parameter_File>
/export/apps/rDock/src/rDock_2013.1_src/data/scripts/dock_solv.prm

>  <Rbt.Receptor>
prm/pocket_docking_2.prm

>  <SCORE>
-16.9239

>  <SCORE.INTER>
-16.8671

>  <SCORE.INTER.CONST>
1

>  <SCORE.INTER.POLAR>
0

>  <SCORE.INTER.ROT>
1

>  <SCORE.INTER.SOLV>
18.515

>  <SCORE.INTER.VDW>
-21.6831

>  <SCORE.INTER.norm>
-1.29747

>  <SCORE.INTRA>
-0.0568116

>  <SCORE.INTRA.DIHEDRAL>
-0.0294802

>  <SCORE.INTRA.DIHEDRAL.0>
1.65305

>  <SCORE.INTRA.POLAR>
0

>  <SCORE.INTRA.POLAR.0>
0

>  <SCORE.INTRA.REPUL>
0

>  <SCORE.INTRA.REPUL.0>
0

>  <SCORE.INTRA.SOLV>
-0.00514276

>  <SCORE.INTRA.SOLV.lig_0>
-46.9527

>  <SCORE.INTRA.VDW>
-0.0395001

>  <SCORE.INTRA.VDW.0>
-0.177978

>  <SCORE.INTRA.norm>
-0.00437012

>  <SCORE.RESTR>
0

>  <SCORE.RESTR.CAVITY>
0

>  <SCORE.RESTR.norm>
0

>  <SCORE.SYSTEM>
0

>  <SCORE.SYSTEM.CONST>
0

>  <SCORE.SYSTEM.DIHEDRAL>
0

>  <SCORE.SYSTEM.SOLV>
0

>  <SCORE.SYSTEM.norm>
0

>  <SCORE.heavy>
13

>  <SCORE.norm>
-1.30184

>  <RMSD>
0.848

$$$$
ligand
 OpenBabel02271912143D
libRbt.so/2013.1/901 2013/11/27
 13 14  0  0  0  0  0  0  0  0999 V2000
   34.9233   34.1609   23.4087 N   0  0  0  0  0  0  0  0  0  0  0  0
   33.9977   33.1571   23.7477 C   0  0  0  0  0  0  0  0  0  0  0  0
   32.9774   32.9199   22.8362 N   0  0  0  0  0  0  0  0  0  0  0  0
   34.0015   32.4320   24.8922 N   0  0  0  0  0  0  0  0  0  0  0  0
   35.0540   32.7860   25.7310 C   0  0  0  0  0  0  0  0  0  0  0  0
   36.0287   33.7571   25.4713 C   0  0  0  0  0  0  0  0  0  0  0  0
   36.0022   34.5001   24.2819 C   0  0  0  0  0  0  0  0  0  0  0  0
   36.7804   35.3812   23.9474 O   0  0  0  0  0  0  0  0  0  0  0  0
   36.9207   33.8166   26.5665 C   0  0  0  0  0  0  0  0  0  0  0  0
   36.4813   32.8718   27.4807 C   0  0  0  0  0  0  0  0  0  0  0  0
   35.3278   32.2276   26.9662 N   0  0  0  0  0  0  0  0  0  0  0  0
   38.0675   34.7616   26.6470 C   0  0  0  0  0  0  0  0  0  0  0  0
   39.2065   34.1458   27.3457 N   0  0  0  0  0  0  0  0  0  0  0  0
  1  2  1  0  0  0  0
  1  7  1  0  0  0  0
  2  3  1  0  0  0  0
  2  4  2  0  0  0  0
  4  5  1  0  0  0  0
  5  6  2  0  0  0  0
  5 11  1  0  0  0  0
  6  7  1  0  0  0  0
  6  9  1  0  0  0  0
  7  8  2  0  0  0  0
  9 10  2  0  0  0  0
  9 12  1  0  0  0  0
 10 11  1  0  0  0  0
 12 13  1  0  0  0  0
M  END
>  <CHROM.1>
-145.53961984,35.84529832,33.63858317,25.30173645,-2.70019743,0.56315764
2.15682866

>  <Name>
ligand

>  <RI>
0

>  <Rbt.Current_Directory>
/home/itssahil/PROJECTS/Mol_Feturizer/Test_systems_manuscript/rnas/3q50

>  <Rbt.Executable>
rbdock ($Id: //depot/dev/client3/rdock/2013.1/src/exe/rbdock.cxx#4 $)

>  <Rbt.Library>
libRbt.so (2013.1, Build901 2013/11/27)

>  <Rbt.Parameter_File>
/export/apps/rDock/src/rDock_2013.1_src/data/scripts/dock_solv.prm

>  <Rbt.Receptor>
prm/pocket_docking_3.prm

>  <SCORE>
-16.9029

>  <SCORE.INTER>
-16.8281

>  <SCORE.INTER.CONST>
1

>  <SCORE.INTER.POLAR>
0

>  <SCORE.INTER.ROT>
1

>  <SCORE.INTER.SOLV>
18.3015

>  <SCORE.INTER.VDW>
-21.5859

>  <SCORE.INTER.norm>
-1.29447

>  <SCORE.INTRA>
-0.0748007

>  <SCORE.INTRA.DIHEDRAL>
-0.0276519

>  <SCORE.INTRA.DIHEDRAL.0>
1.65305

>  <SCORE.INTRA.POLAR>
0

>  <SCORE.INTRA.POLAR.0>
0

>  <SCORE.INTRA.REPUL>
0

>  <SCORE.INTRA.REPUL.0>
0

>  <SCORE.INTRA.SOLV>
-0.00717073

>  <SCORE.INTRA.SOLV.lig_0>
-46.9527

>  <SCORE.INTRA.VDW>
-0.0573894

>  <SCORE.INTRA.VDW.0>
-0.177978

>  <SCORE.INTRA.norm>
-0.0057539

>  <SCORE.RESTR>
0

>  <SCORE.RESTR.CAVITY>
0

>  <SCORE.RESTR.norm>
0

>  <SCORE.SYSTEM>
0

>  <SCORE.SYSTEM.CONST>
0

>  <SCORE.SYSTEM.DIHEDRAL>
0

>  <SCORE.SYSTEM.SOLV>
0

>  <SCORE.SYSTEM.norm>
0

>  <SCORE.heavy>
13

>  <SCORE.norm>
-1.30023

>  <RMSD>
0.848

$$$$
ligand
 OpenBabel02271912143D
libRbt.so/2013.1/901 2013/11/27
 13 14  0  0  0  0  0  0  0  0999 V2000
   34.9503   34.1322   23.4281 N   0  0  0  0  0  0  0  0  0  0  0  0
   34.0248   33.1325   23.7792 C   0  0  0  0  0  0  0  0  0  0  0  0
   33.0084   32.8795   22.8676 N   0  0  0  0  0  0  0  0  0  0  0  0
   34.0251   32.4256   24.9350 N   0  0  0  0  0  0  0  0  0  0  0  0
   35.0738   32.7942   25.7723 C   0  0  0  0  0  0  0  0  0  0  0  0
   36.0481   33.7626   25.5011 C   0  0  0  0  0  0  0  0  0  0  0  0
   36.0252   34.4867   24.3001 C   0  0  0  0  0  0  0  0  0  0  0  0
   36.8035   35.3636   23.9548 O   0  0  0  0  0  0  0  0  0  0  0  0
   36.9356   33.8407   26.5987 C   0  0  0  0  0  0  0  0  0  0  0  0
   36.4940   32.9097   27.5260 C   0  0  0  0  0  0  0  0  0  0  0  0
   35.3435   32.2558   27.0171 N   0  0  0  0  0  0  0  0  0  0  0  0
   38.0808   34.7885   26.6689 C   0  0  0  0  0  0  0  0  0  0  0  0
   39.2270   34.1763   27.3587 N   0  0  0  0  0  0  0  0  0  0  0  0
  1  2  1  0  0  0  0
  1  7  1  0  0  0  0
  2  3  1  0  0  0  0
  2  4  2  0  0  0  0
  4  5  1  0  0  0  0
  5  6  2  0  0  0  0
  5 11  1  0  0  0  0
  6  7  1  0  0  0  0
  6  9  1  0  0  0  0
  7  8  2  0  0  0  0
  9 10  2  0  0  0  0
  9 12  1  0  0  0  0
 10 11  1  0  0  0  0
 12 13  1  0  0  0  0
M  END
>  <CHROM.1>
-144.44164789,35.86628243,33.64042453,25.33085639,-2.69852395,0.56492591
2.13961692

>  <Name>
ligand

>  <RI>
0

>  <Rbt.Current_Directory>
/home/itssahil/PROJECTS/Mol_Feturizer/Test_systems_manuscript/rnas/3q50

>  <Rbt.Executable>
rbdock ($Id: //depot/dev/client3/rdock/2013.1/src/exe/rbdock.cxx#4 $)

>  <Rbt.Library>
libRbt.so (2013.1, Build901 2013/11/27)

>  <Rbt.Parameter_File>
/export/apps/rDock/src/rDock_2013.1_src/data/scripts/dock_solv.prm

>  <Rbt.Receptor>
prm/pocket_docking_8.prm

>  <SCORE>
-16.9079

>  <SCORE.INTER>
-16.8304

>  <SCORE.INTER.CONST>
1

>  <SCORE.INTER.POLAR>
0

>  <SCORE.INTER.ROT>
1

>  <SCORE.INTER.SOLV>
18.209

>  <SCORE.INTER.VDW>
-21.5566

>  <SCORE.INTER.norm>
-1.29465

>  <SCORE.INTRA>
-0.0774941

>  <SCORE.INTRA.DIHEDRAL>
-0.0267026

>  <SCORE.INTRA.DIHEDRAL.0>
1.65305

>  <SCORE.INTRA.POLAR>
0

>  <SCORE.INTRA.POLAR.0>
0

>  <SCORE.INTRA.REPUL>
0

>  <SCORE.INTRA.REPUL.0>
0

>  <SCORE.INTRA.SOLV>
-0.00749836

>  <SCORE.INTRA.SOLV.lig_0>
-46.9527

>  <SCORE.INTRA.VDW>
-0.0603936

>  <SCORE.INTRA.VDW.0>
-0.177978

>  <SCORE.INTRA.norm>
-0.00596109

>  <SCORE.RESTR>
0

>  <SCORE.RESTR.CAVITY>
0

>  <SCORE.RESTR.norm>
0

>  <SCORE.SYSTEM>
0

>  <SCORE.SYSTEM.CONST>
0

>  <SCORE.SYSTEM.DIHEDRAL>
0

>  <SCORE.SYSTEM.SOLV>
0

>  <SCORE.SYSTEM.norm>
0

>  <SCORE.heavy>
13

>  <SCORE.norm>
-1.30061

>  <RMSD>
0.857

$$$$
ligand
 OpenBabel02271912143D
libRbt.so/2013.1/901 2013/11/27
 13 14  0  0  0  0  0  0  0  0999 V2000
   34.9447   34.1430   23.4273 N   0  0  0  0  0  0  0  0  0  0  0  0
   34.0164   33.1441   23.7735 C   0  0  0  0  0  0  0  0  0  0  0  0
   32.9973   32.9010   22.8623 N   0  0  0  0  0  0  0  0  0  0  0  0
   34.0167   32.4292   24.9244 N   0  0  0  0  0  0  0  0  0  0  0  0
   35.0684   32.7883   25.7619 C   0  0  0  0  0  0  0  0  0  0  0  0
   36.0455   33.7551   25.4954 C   0  0  0  0  0  0  0  0  0  0  0  0
   36.0228   34.4876   24.2995 C   0  0  0  0  0  0  0  0  0  0  0  0
   36.8034   35.3641   23.9587 O   0  0  0  0  0  0  0  0  0  0  0  0
   36.9357   33.8224   26.5917 C   0  0  0  0  0  0  0  0  0  0  0  0
   36.4927   32.8866   27.5134 C   0  0  0  0  0  0  0  0  0  0  0  0
   35.3389   32.2403   27.0024 N   0  0  0  0  0  0  0  0  0  0  0  0
   38.0844   34.7657   26.6660 C   0  0  0  0  0  0  0  0  0  0  0  0
   39.2008   34.1744   27.4199 N   0  0  0  0  0  0  0  0  0  0  0  0
  1  2  1  0  0  0  0
  1  7  1  0  0  0  0
  2  3  1  0  0  0  0
  2  4  2  0  0  0  0
  4  5  1  0  0  0  0
  5  6  2  0  0  0  0
  5 11  1  0  0  0  0
  6  7  1  0  0  0  0
  6  9  1  0  0  0  0
  7  8  2  0  0  0  0
  9 10  2  0  0  0  0
  9 12  1  0  0  0  0
 10 11  1  0  0  0  0
 12 13  1  0  0  0  0
M  END
>  <CHROM.1>
-147.86365008,35.86060983,33.63714700,25.33045701,-2.69440186,0.56587598
2.14600616

>  <Name>
ligand

>  <RI>
0

>  <Rbt.Current_Directory>
/home/itssahil/PROJECTS/Mol_Feturizer/Test_systems_manuscript/rnas/3q50

>  <Rbt.Executable>
rbdock ($Id: //depot/dev/client3/rdock/2013.1/src/exe/rbdock.cxx#4 $)

>  <Rbt.Library>
libRbt.so (2013.1, Build901 2013/11/27)

>  <Rbt.Parameter_File>
/export/apps/rDock/src/rDock_2013.1_src/data/scripts/dock_solv.prm

>  <Rbt.Receptor>
prm/pocket_docking_5.prm

>  <SCORE>
-16.9328

>  <SCORE.INTER>
-16.864

>  <SCORE.INTER.CONST>
1

>  <SCORE.INTER.POLAR>
0

>  <SCORE.INTER.ROT>
1

>  <SCORE.INTER.SOLV>
18.2142

>  <SCORE.INTER.VDW>
-21.5807

>  <SCORE.INTER.norm>
-1.29723

>  <SCORE.INTRA>
-0.0688162

>  <SCORE.INTRA.DIHEDRAL>
-0.0290629

>  <SCORE.INTRA.DIHEDRAL.0>
1.65305

>  <SCORE.INTRA.POLAR>
0

>  <SCORE.INTRA.POLAR.0>
0

>  <SCORE.INTRA.REPUL>
0

>  <SCORE.INTRA.REPUL.0>
0

>  <SCORE.INTRA.SOLV>
-0.00646643

>  <SCORE.INTRA.SOLV.lig_0>
-46.9527

>  <SCORE.INTRA.VDW>
-0.0510515

>  <SCORE.INTRA.VDW.0>
-0.177978

>  <SCORE.INTRA.norm>
-0.00529355

>  <SCORE.RESTR>
0

>  <SCORE.RESTR.CAVITY>
0

>  <SCORE.RESTR.norm>
0

>  <SCORE.SYSTEM>
0

>  <SCORE.SYSTEM.CONST>
0

>  <SCORE.SYSTEM.DIHEDRAL>
0

>  <SCORE.SYSTEM.SOLV>
0

>  <SCORE.SYSTEM.norm>
0

>  <SCORE.heavy>
13

>  <SCORE.norm>
-1.30253

>  <RMSD>
0.862

$$$$
ligand
 OpenBabel02271912143D
libRbt.so/2013.1/901 2013/11/27
 13 14  0  0  0  0  0  0  0  0999 V2000
   34.9895   34.1546   23.4331 N   0  0  0  0  0  0  0  0  0  0  0  0
   34.0476   33.1697   23.7828 C   0  0  0  0  0  0  0  0  0  0  0  0
   33.0191   32.9449   22.8775 N   0  0  0  0  0  0  0  0  0  0  0  0
   34.0438   32.4522   24.9321 N   0  0  0  0  0  0  0  0  0  0  0  0
   35.1063   32.7927   25.7638 C   0  0  0  0  0  0  0  0  0  0  0  0
   36.0970   33.7446   25.4933 C   0  0  0  0  0  0  0  0  0  0  0  0
   36.0783   34.4801   24.2992 C   0  0  0  0  0  0  0  0  0  0  0  0
   36.8705   35.3450   23.9554 O   0  0  0  0  0  0  0  0  0  0  0  0
   36.9949   33.7952   26.5841 C   0  0  0  0  0  0  0  0  0  0  0  0
   36.5429   32.8643   27.5064 C   0  0  0  0  0  0  0  0  0  0  0  0
   35.3759   32.2376   27.0013 N   0  0  0  0  0  0  0  0  0  0  0  0
   38.1588   34.7200   26.6532 C   0  0  0  0  0  0  0  0  0  0  0  0
   39.2482   34.1336   27.4493 N   0  0  0  0  0  0  0  0  0  0  0  0
  1  2  1  0  0  0  0
  1  7  1  0  0  0  0
  2  3  1  0  0  0  0
  2  4  2  0  0  0  0
  4  5  1  0  0  0  0
  5  6  2  0  0  0  0
  5 11  1  0  0  0  0
  6  7  1  0  0  0  0
  6  9  1  0  0  0  0
  7  8  2  0  0  0  0
  9 10  2  0  0  0  0
  9 12  1  0  0  0  0
 10 11  1  0  0  0  0
 12 13  1  0  0  0  0
M  END
>  <CHROM.1>
-150.37660212,35.90733137,33.63187998,25.33334349,-2.68765756,0.55298044
2.14564762

>  <Name>
ligand

>  <RI>
0

>  <Rbt.Current_Directory>
/home/itssahil/PROJECTS/Mol_Feturizer/Test_systems_manuscript/rnas/3q50

>  <Rbt.Executable>
rbdock ($Id: //depot/dev/client3/rdock/2013.1/src/exe/rbdock.cxx#4 $)

>  <Rbt.Library>
libRbt.so (2013.1, Build901 2013/11/27)

>  <Rbt.Parameter_File>
/export/apps/rDock/src/rDock_2013.1_src/data/scripts/dock_solv.prm

>  <Rbt.Receptor>
prm/pocket_docking_6.prm

>  <SCORE>
-16.8996

>  <SCORE.INTER>
-16.8376

>  <SCORE.INTER.CONST>
1

>  <SCORE.INTER.POLAR>
0

>  <SCORE.INTER.ROT>
1

>  <SCORE.INTER.SOLV>
18.0465

>  <SCORE.INTER.VDW>
-21.5072

>  <SCORE.INTER.norm>
-1.2952

>  <SCORE.INTRA>
-0.0619462

>  <SCORE.INTRA.DIHEDRAL>
-0.0296561

>  <SCORE.INTRA.DIHEDRAL.0>
1.65305

>  <SCORE.INTRA.POLAR>
0

>  <SCORE.INTRA.POLAR.0>
0

>  <SCORE.INTRA.REPUL>
0

>  <SCORE.INTRA.REPUL.0>
0

>  <SCORE.INTRA.SOLV>
-0.00569531

>  <SCORE.INTRA.SOLV.lig_0>
-46.9527

>  <SCORE.INTRA.VDW>
-0.0442705

>  <SCORE.INTRA.VDW.0>
-0.177978

>  <SCORE.INTRA.norm>
-0.0047651

>  <SCORE.RESTR>
0

>  <SCORE.RESTR.CAVITY>
0

>  <SCORE.RESTR.norm>
0

>  <SCORE.SYSTEM>
0

>  <SCORE.SYSTEM.CONST>
0

>  <SCORE.SYSTEM.DIHEDRAL>
0

>  <SCORE.SYSTEM.SOLV>
0

>  <SCORE.SYSTEM.norm>
0

>  <SCORE.heavy>
13

>  <SCORE.norm>
-1.29997

>  <RMSD>
0.894

$$$$
ligand
 OpenBabel02271912143D
libRbt.so/2013.1/901 2013/11/27
 13 14  0  0  0  0  0  0  0  0999 V2000
   33.8728   33.6558   22.6753 N   0  0  0  0  0  0  0  0  0  0  0  0
   33.0660   32.5911   23.1166 C   0  0  0  0  0  0  0  0  0  0  0  0
   32.0167   32.2214   22.2858 N   0  0  0  0  0  0  0  0  0  0  0  0
   33.2079   31.9244   24.2876 N   0  0  0  0  0  0  0  0  0  0  0  0
   34.2740   32.4097   25.0389 C   0  0  0  0  0  0  0  0  0  0  0  0
   35.1375   33.4500   24.6746 C   0  0  0  0  0  0  0  0  0  0  0  0
   34.9686   34.1304   23.4598 C   0  0  0  0  0  0  0  0  0  0  0  0
   35.6404   35.0602   23.0378 O   0  0  0  0  0  0  0  0  0  0  0  0
   36.0870   33.6404   25.7045 C   0  0  0  0  0  0  0  0  0  0  0  0
   35.7941   32.7047   26.6845 C   0  0  0  0  0  0  0  0  0  0  0  0
   34.6746   31.9371   26.2752 N   0  0  0  0  0  0  0  0  0  0  0  0
   37.1453   34.6861   25.6691 C   0  0  0  0  0  0  0  0  0  0  0  0
   38.0890   34.5154   26.7848 N   0  0  0  0  0  0  0  0  0  0  0  0
  1  2  1  0  0  0  0
  1  7  1  0  0  0  0
  2  3  1  0  0  0  0
  2  4  2  0  0  0  0
  4  5  1  0  0  0  0
  5  6  2  0  0  0  0
  5 11  1  0  0  0  0
  6  7  1  0  0  0  0
  6  9  1  0  0  0  0
  7  8  2  0  0  0  0
  9 10  2  0  0  0  0
  9 12  1  0  0  0  0
 10 11  1  0  0  0  0
 12 13  1  0  0  0  0
M  END
>  <CHROM.1>
-172.08436295,34.93198587,33.33285112,24.56094304,-2.80329777,0.64410978
2.17570331

>  <Name>
ligand

>  <RI>
0

>  <Rbt.Current_Directory>
/home/itssahil/PROJECTS/Mol_Feturizer/Test_systems_manuscript/rnas/3q50

>  <Rbt.Executable>
rbdock ($Id: //depot/dev/client3/rdock/2013.1/src/exe/rbdock.cxx#4 $)

>  <Rbt.Library>
libRbt.so (2013.1, Build901 2013/11/27)

>  <Rbt.Parameter_File>
/export/apps/rDock/src/rDock_2013.1_src/data/scripts/dock_solv.prm

>  <Rbt.Receptor>
prm/blind_docking_100.prm

>  <SCORE>
-16.7149

>  <SCORE.INTER>
-16.7173

>  <SCORE.INTER.CONST>
1

>  <SCORE.INTER.POLAR>
0

>  <SCORE.INTER.ROT>
1

>  <SCORE.INTER.SOLV>
22.677

>  <SCORE.INTER.VDW>
-22.9706

>  <SCORE.INTER.norm>
-1.28595

>  <SCORE.INTRA>
0.00239833

>  <SCORE.INTRA.DIHEDRAL>
0.00242065

>  <SCORE.INTRA.DIHEDRAL.0>
1.65305

>  <SCORE.INTRA.POLAR>
0

>  <SCORE.INTRA.POLAR.0>
0

>  <SCORE.INTRA.REPUL>
0

>  <SCORE.INTRA.REPUL.0>
0

>  <SCORE.INTRA.SOLV>
0.000189003

>  <SCORE.INTRA.SOLV.lig_0>
-46.9527

>  <SCORE.INTRA.VDW>
0.0010935

>  <SCORE.INTRA.VDW.0>
-0.177978

>  <SCORE.INTRA.norm>
0.000184487

>  <SCORE.RESTR>
0

>  <SCORE.RESTR.CAVITY>
0

>  <SCORE.RESTR.norm>
0

>  <SCORE.SYSTEM>
0

>  <SCORE.SYSTEM.CONST>
0

>  <SCORE.SYSTEM.DIHEDRAL>
0

>  <SCORE.SYSTEM.SOLV>
0

>  <SCORE.SYSTEM.norm>
0

>  <SCORE.heavy>
13

>  <SCORE.norm>
-1.28576

>  <RMSD>
0.941

$$$$
ligand
 OpenBabel02271912143D
libRbt.so/2013.1/901 2013/11/27
 13 14  0  0  0  0  0  0  0  0999 V2000
   33.9096   33.6109   22.6701 N   0  0  0  0  0  0  0  0  0  0  0  0
   33.0542   32.6023   23.1500 C   0  0  0  0  0  0  0  0  0  0  0  0
   32.0015   32.2353   22.3223 N   0  0  0  0  0  0  0  0  0  0  0  0
   33.1533   31.9882   24.3537 N   0  0  0  0  0  0  0  0  0  0  0  0
   34.2285   32.4661   25.0968 C   0  0  0  0  0  0  0  0  0  0  0  0
   35.1386   33.4518   24.6959 C   0  0  0  0  0  0  0  0  0  0  0  0
   35.0137   34.0785   23.4473 C   0  0  0  0  0  0  0  0  0  0  0  0
   35.7285   34.9588   22.9913 O   0  0  0  0  0  0  0  0  0  0  0  0
   36.0816   33.6535   25.7296 C   0  0  0  0  0  0  0  0  0  0  0  0
   35.7378   32.7793   26.7490 C   0  0  0  0  0  0  0  0  0  0  0  0
   34.5932   32.0384   26.3603 N   0  0  0  0  0  0  0  0  0  0  0  0
   37.1823   34.6527   25.6598 C   0  0  0  0  0  0  0  0  0  0  0  0
   38.0963   34.5071   26.8035 N   0  0  0  0  0  0  0  0  0  0  0  0
  1  2  1  0  0  0  0
  1  7  1  0  0  0  0
  2  3  1  0  0  0  0
  2  4  2  0  0  0  0
  4  5  1  0  0  0  0
  5  6  2  0  0  0  0
  5 11  1  0  0  0  0
  6  7  1  0  0  0  0
  6  9  1  0  0  0  0
  7  8  2  0  0  0  0
  9 10  2  0  0  0  0
  9 12  1  0  0  0  0
 10 11  1  0  0  0  0
 12 13  1  0  0  0  0
M  END
>  <CHROM.1>
-172.63275028,34.92938432,33.33829369,24.58546558,-2.76117488,0.61828525
2.10236269

>  <Name>
ligand

>  <RI>
0

>  <Rbt.Current_Directory>
/home/itssahil/PROJECTS/Mol_Feturizer/Test_systems_manuscript/rnas/3q50

>  <Rbt.Executable>
rbdock ($Id: //depot/dev/client3/rdock/2013.1/src/exe/rbdock.cxx#4 $)

>  <Rbt.Library>
libRbt.so (2013.1, Build901 2013/11/27)

>  <Rbt.Parameter_File>
/export/apps/rDock/src/rDock_2013.1_src/data/scripts/dock_solv.prm

>  <Rbt.Receptor>
prm/blind_docking_60.prm

>  <SCORE>
-16.8293

>  <SCORE.INTER>
-16.8332

>  <SCORE.INTER.CONST>
1

>  <SCORE.INTER.POLAR>
0

>  <SCORE.INTER.ROT>
1

>  <SCORE.INTER.SOLV>
22.7844

>  <SCORE.INTER.VDW>
-23.0836

>  <SCORE.INTER.norm>
-1.29486

>  <SCORE.INTRA>
0.00379734

>  <SCORE.INTRA.DIHEDRAL>
0.00389561

>  <SCORE.INTRA.DIHEDRAL.0>
1.65305

>  <SCORE.INTRA.POLAR>
0

>  <SCORE.INTRA.POLAR.0>
0

>  <SCORE.INTRA.REPUL>
0

>  <SCORE.INTRA.REPUL.0>
0

>  <SCORE.INTRA.SOLV>
0.00029856

>  <SCORE.INTRA.SOLV.lig_0>
-46.9527

>  <SCORE.INTRA.VDW>
0.00170025

>  <SCORE.INTRA.VDW.0>
-0.177978

>  <SCORE.INTRA.norm>
0.000292103

>  <SCORE.RESTR>
0.000127774

>  <SCORE.RESTR.CAVITY>
0.000127774

>  <SCORE.RESTR.norm>
9.82873e-06

>  <SCORE.SYSTEM>
0

>  <SCORE.SYSTEM.CONST>
0

>  <SCORE.SYSTEM.DIHEDRAL>
0

>  <SCORE.SYSTEM.SOLV>
0

>  <SCORE.SYSTEM.norm>
0

>  <SCORE.heavy>
13

>  <SCORE.norm>
-1.29456

>  <RMSD>
0.943

$$$$
ligand
 OpenBabel02271912143D
libRbt.so/2013.1/901 2013/11/27
 13 14  0  0  0  0  0  0  0  0999 V2000
   33.9055   33.5973   22.6660 N   0  0  0  0  0  0  0  0  0  0  0  0
   33.0509   32.5898   23.1497 C   0  0  0  0  0  0  0  0  0  0  0  0
   31.9996   32.2174   22.3226 N   0  0  0  0  0  0  0  0  0  0  0  0
   33.1497   31.9813   24.3563 N   0  0  0  0  0  0  0  0  0  0  0  0
   34.2234   32.4641   25.0982 C   0  0  0  0  0  0  0  0  0  0  0  0
   35.1325   33.4493   24.6937 C   0  0  0  0  0  0  0  0  0  0  0  0
   35.0081   34.0701   23.4422 C   0  0  0  0  0  0  0  0  0  0  0  0
   35.7221   34.9492   22.9828 O   0  0  0  0  0  0  0  0  0  0  0  0
   36.0743   33.6571   25.7275 C   0  0  0  0  0  0  0  0  0  0  0  0
   35.7306   32.7870   26.7505 C   0  0  0  0  0  0  0  0  0  0  0  0
   34.5874   32.0428   26.3641 N   0  0  0  0  0  0  0  0  0  0  0  0
   37.1736   34.6575   25.6542 C   0  0  0  0  0  0  0  0  0  0  0  0
   38.0964   34.5070   26.7901 N   0  0  0  0  0  0  0  0  0  0  0  0
  1  2  1  0  0  0  0
  1  7  1  0  0  0  0
  2  3  1  0  0  0  0
  2  4  2  0  0  0  0
  4  5  1  0  0  0  0
  5  6  2  0  0  0  0
  5 11  1  0  0  0  0
  6  7  1  0  0  0  0
  6  9  1  0  0  0  0
  7  8  2  0  0  0  0
  9 10  2  0  0  0  0
  9 12  1  0  0  0  0
 10 11  1  0  0  0  0
 12 13  1  0  0  0  0
M  END
>  <CHROM.1>
-171.89456111,34.92442361,33.33401709,24.58287633,-2.76139114,0.61876650
2.09799599

>  <Name>
ligand

>  <RI>
0

>  <Rbt.Current_Directory>
/home/itssahil/PROJECTS/Mol_Feturizer/Test_systems_manuscript/rnas/3q50

>  <Rbt.Executable>
rbdock ($Id: //depot/dev/client3/rdock/2013.1/src/exe/rbdock.cxx#4 $)

>  <Rbt.Library>
libRbt.so (2013.1, Build901 2013/11/27)

>  <Rbt.Parameter_File>
/export/apps/rDock/src/rDock_2013.1_src/data/scripts/dock_solv.prm

>  <Rbt.Receptor>
prm/blind_docking_100.prm

>  <SCORE>
-16.8557

>  <SCORE.INTER>
-16.8576

>  <SCORE.INTER.CONST>
1

>  <SCORE.INTER.POLAR>
0

>  <SCORE.INTER.ROT>
1

>  <SCORE.INTER.SOLV>
22.7891

>  <SCORE.INTER.VDW>
-23.1014

>  <SCORE.INTER.norm>
-1.29674

>  <SCORE.INTRA>
0.00190786

>  <SCORE.INTRA.DIHEDRAL>
0.0019148

>  <SCORE.INTRA.DIHEDRAL.0>
1.65305

>  <SCORE.INTRA.POLAR>
0

>  <SCORE.INTRA.POLAR.0>
0

>  <SCORE.INTRA.REPUL>
0

>  <SCORE.INTRA.REPUL.0>
0

>  <SCORE.INTRA.SOLV>
0.000150475

>  <SCORE.INTRA.SOLV.lig_0>
-46.9527

>  <SCORE.INTRA.VDW>
0.000875222

>  <SCORE.INTRA.VDW.0>
-0.177978

>  <SCORE.INTRA.norm>
0.000146759

>  <SCORE.RESTR>
2.40292e-05

>  <SCORE.RESTR.CAVITY>
2.40292e-05

>  <SCORE.RESTR.norm>
1.8484e-06

>  <SCORE.SYSTEM>
0

>  <SCORE.SYSTEM.CONST>
0

>  <SCORE.SYSTEM.DIHEDRAL>
0

>  <SCORE.SYSTEM.SOLV>
0

>  <SCORE.SYSTEM.norm>
0

>  <SCORE.heavy>
13

>  <SCORE.norm>
-1.29659

>  <RMSD>
0.947

$$$$
ligand
 OpenBabel02271912143D
libRbt.so/2013.1/901 2013/11/27
 13 14  0  0  0  0  0  0  0  0999 V2000
   33.8751   33.6256   22.6659 N   0  0  0  0  0  0  0  0  0  0  0  0
   33.0425   32.5927   23.1339 C   0  0  0  0  0  0  0  0  0  0  0  0
   31.9893   32.2220   22.3085 N   0  0  0  0  0  0  0  0  0  0  0  0
   33.1636   31.9579   24.3248 N   0  0  0  0  0  0  0  0  0  0  0  0
   34.2365   32.4414   25.0675 C   0  0  0  0  0  0  0  0  0  0  0  0
   35.1249   33.4510   24.6775 C   0  0  0  0  0  0  0  0  0  0  0  0
   34.9774   34.0988   23.4422 C   0  0  0  0  0  0  0  0  0  0  0  0
   35.6720   35.0005   22.9968 O   0  0  0  0  0  0  0  0  0  0  0  0
   36.0734   33.6506   25.7067 C   0  0  0  0  0  0  0  0  0  0  0  0
   35.7547   32.7511   26.7122 C   0  0  0  0  0  0  0  0  0  0  0  0
   34.6203   31.9968   26.3194 N   0  0  0  0  0  0  0  0  0  0  0  0
   37.1550   34.6709   25.6464 C   0  0  0  0  0  0  0  0  0  0  0  0
   38.0995   34.5007   26.7614 N   0  0  0  0  0  0  0  0  0  0  0  0
  1  2  1  0  0  0  0
  1  7  1  0  0  0  0
  2  3  1  0  0  0  0
  2  4  2  0  0  0  0
  4  5  1  0  0  0  0
  5  6  2  0  0  0  0
  5 11  1  0  0  0  0
  6  7  1  0  0  0  0
  6  9  1  0  0  0  0
  7  8  2  0  0  0  0
  9 10  2  0  0  0  0
  9 12  1  0  0  0  0
 10 11  1  0  0  0  0
 12 13  1  0  0  0  0
M  END
>  <CHROM.1>
-171.29795635,34.91826137,33.33418019,24.56533803,-2.78292509,0.62706233
2.13412917

>  <Name>
ligand

>  <RI>
0

>  <Rbt.Current_Directory>
/home/itssahil/PROJECTS/Mol_Feturizer/Test_systems_manuscript/rnas/3q50

>  <Rbt.Executable>
rbdock ($Id: //depot/dev/client3/rdock/2013.1/src/exe/rbdock.cxx#4 $)

>  <Rbt.Library>
libRbt.so (2013.1, Build901 2013/11/27)

>  <Rbt.Parameter_File>
/export/apps/rDock/src/rDock_2013.1_src/data/scripts/dock_solv.prm

>  <Rbt.Receptor>
prm/blind_docking_100.prm

>  <SCORE>
-16.8179

>  <SCORE.INTER>
-16.8183

>  <SCORE.INTER.CONST>
1

>  <SCORE.INTER.POLAR>
0

>  <SCORE.INTER.ROT>
1

>  <SCORE.INTER.SOLV>
22.7092

>  <SCORE.INTER.VDW>
-23.0486

>  <SCORE.INTER.norm>
-1.29371

>  <SCORE.INTRA>
0.00034594

>  <SCORE.INTRA.DIHEDRAL>
0.000341111

>  <SCORE.INTRA.DIHEDRAL.0>
1.65305

>  <SCORE.INTRA.POLAR>
0

>  <SCORE.INTRA.POLAR.0>
0

>  <SCORE.INTRA.REPUL>
0

>  <SCORE.INTRA.REPUL.0>
0

>  <SCORE.INTRA.SOLV>
2.73582e-05

>  <SCORE.INTRA.SOLV.lig_0>
-46.9527

>  <SCORE.INTRA.VDW>
0.000161706

>  <SCORE.INTRA.VDW.0>
-0.177978

>  <SCORE.INTRA.norm>
2.66108e-05

>  <SCORE.RESTR>
0

>  <SCORE.RESTR.CAVITY>
0

>  <SCORE.RESTR.norm>
0

>  <SCORE.SYSTEM>
0

>  <SCORE.SYSTEM.CONST>
0

>  <SCORE.SYSTEM.DIHEDRAL>
0

>  <SCORE.SYSTEM.SOLV>
0

>  <SCORE.SYSTEM.norm>
0

>  <SCORE.heavy>
13

>  <SCORE.norm>
-1.29369

>  <RMSD>
0.950

$$$$
ligand
 OpenBabel02271912143D
libRbt.so/2013.1/901 2013/11/27
 13 14  0  0  0  0  0  0  0  0999 V2000
   33.9020   33.5950   22.6596 N   0  0  0  0  0  0  0  0  0  0  0  0
   33.0464   32.5894   23.1454 C   0  0  0  0  0  0  0  0  0  0  0  0
   31.9933   32.2181   22.3201 N   0  0  0  0  0  0  0  0  0  0  0  0
   33.1457   31.9819   24.3524 N   0  0  0  0  0  0  0  0  0  0  0  0
   34.2213   32.4636   25.0924 C   0  0  0  0  0  0  0  0  0  0  0  0
   35.1316   33.4468   24.6857 C   0  0  0  0  0  0  0  0  0  0  0  0
   35.0064   34.0666   23.4338 C   0  0  0  0  0  0  0  0  0  0  0  0
   35.7214   34.9441   22.9726 O   0  0  0  0  0  0  0  0  0  0  0  0
   36.0751   33.6539   25.7180 C   0  0  0  0  0  0  0  0  0  0  0  0
   35.7314   32.7854   26.7423 C   0  0  0  0  0  0  0  0  0  0  0  0
   34.5864   32.0428   26.3581 N   0  0  0  0  0  0  0  0  0  0  0  0
   37.1761   34.6524   25.6423 C   0  0  0  0  0  0  0  0  0  0  0  0
   38.0985   34.5033   26.7786 N   0  0  0  0  0  0  0  0  0  0  0  0
  1  2  1  0  0  0  0
  1  7  1  0  0  0  0
  2  3  1  0  0  0  0
  2  4  2  0  0  0  0
  4  5  1  0  0  0  0
  5  6  2  0  0  0  0
  5 11  1  0  0  0  0
  6  7  1  0  0  0  0
  6  9  1  0  0  0  0
  7  8  2  0  0  0  0
  9 10  2  0  0  0  0
  9 12  1  0  0  0  0
 10 11  1  0  0  0  0
 12 13  1  0  0  0  0
M  END
>  <CHROM.1>
-172.01788856,34.92297889,33.33193123,24.57540857,-2.76171758,0.61679471
2.09722982

>  <Name>
ligand

>  <RI>
0

>  <Rbt.Current_Directory>
/home/itssahil/PROJECTS/Mol_Feturizer/Test_systems_manuscript/rnas/3q50

>  <Rbt.Executable>
rbdock ($Id: //depot/dev/client3/rdock/2013.1/src/exe/rbdock.cxx#4 $)

>  <Rbt.Library>
libRbt.so (2013.1, Build901 2013/11/27)

>  <Rbt.Parameter_File>
/export/apps/rDock/src/rDock_2013.1_src/data/scripts/dock_solv.prm

>  <Rbt.Receptor>
prm/blind_docking_100.prm

>  <SCORE>
-16.8595

>  <SCORE.INTER>
-16.8619

>  <SCORE.INTER.CONST>
1

>  <SCORE.INTER.POLAR>
0

>  <SCORE.INTER.ROT>
1

>  <SCORE.INTER.SOLV>
22.7779

>  <SCORE.INTER.VDW>
-23.1006

>  <SCORE.INTER.norm>
-1.29707

>  <SCORE.INTRA>
0.00222691

>  <SCORE.INTRA.DIHEDRAL>
0.00224321

>  <SCORE.INTRA.DIHEDRAL.0>
1.65305

>  <SCORE.INTRA.POLAR>
0

>  <SCORE.INTRA.POLAR.0>
0

>  <SCORE.INTRA.REPUL>
0

>  <SCORE.INTRA.REPUL.0>
0

>  <SCORE.INTRA.SOLV>
0.000175545

>  <SCORE.INTRA.SOLV.lig_0>
-46.9527

>  <SCORE.INTRA.VDW>
0.00101754

>  <SCORE.INTRA.VDW.0>
-0.177978

>  <SCORE.INTRA.norm>
0.000171301

>  <SCORE.RESTR>
0.00014655

>  <SCORE.RESTR.CAVITY>
0.00014655

>  <SCORE.RESTR.norm>
1.1273e-05

>  <SCORE.SYSTEM>
0

>  <SCORE.SYSTEM.CONST>
0

>  <SCORE.SYSTEM.DIHEDRAL>
0

>  <SCORE.SYSTEM.SOLV>
0

>  <SCORE.SYSTEM.norm>
0

>  <SCORE.heavy>
13

>  <SCORE.norm>
-1.29688

>  <RMSD>
0.951

$$$$
ligand
 OpenBabel02271912143D
libRbt.so/2013.1/901 2013/11/27
 13 14  0  0  0  0  0  0  0  0999 V2000
   33.9040   33.5922   22.6641 N   0  0  0  0  0  0  0  0  0  0  0  0
   33.0471   32.5878   23.1501 C   0  0  0  0  0  0  0  0  0  0  0  0
   31.9933   32.2179   22.3250 N   0  0  0  0  0  0  0  0  0  0  0  0
   33.1458   31.9803   24.3571 N   0  0  0  0  0  0  0  0  0  0  0  0
   34.2222   32.4604   25.0969 C   0  0  0  0  0  0  0  0  0  0  0  0
   35.1338   33.4423   24.6899 C   0  0  0  0  0  0  0  0  0  0  0  0
   35.0093   34.0622   23.4380 C   0  0  0  0  0  0  0  0  0  0  0  0
   35.7253   34.9387   22.9766 O   0  0  0  0  0  0  0  0  0  0  0  0
   36.0778   33.6482   25.7220 C   0  0  0  0  0  0  0  0  0  0  0  0
   35.7331   32.7803   26.7464 C   0  0  0  0  0  0  0  0  0  0  0  0
   34.5870   32.0393   26.3625 N   0  0  0  0  0  0  0  0  0  0  0  0
   37.1802   34.6451   25.6460 C   0  0  0  0  0  0  0  0  0  0  0  0
   38.0999   34.4980   26.7848 N   0  0  0  0  0  0  0  0  0  0  0  0
  1  2  1  0  0  0  0
  1  7  1  0  0  0  0
  2  3  1  0  0  0  0
  2  4  2  0  0  0  0
  4  5  1  0  0  0  0
  5  6  2  0  0  0  0
  5 11  1  0  0  0  0
  6  7  1  0  0  0  0
  6  9  1  0  0  0  0
  7  8  2  0  0  0  0
  9 10  2  0  0  0  0
  9 12  1  0  0  0  0
 10 11  1  0  0  0  0
 12 13  1  0  0  0  0
M  END
>  <CHROM.1>
-172.22780464,34.92478204,33.32802417,24.57987641,-2.76095142,0.61582072
2.09668499

>  <Name>
ligand

>  <RI>
0

>  <Rbt.Current_Directory>
/home/itssahil/PROJECTS/Mol_Feturizer/Test_systems_manuscript/rnas/3q50

>  <Rbt.Executable>
rbdock ($Id: //depot/dev/client3/rdock/2013.1/src/exe/rbdock.cxx#4 $)

>  <Rbt.Library>
libRbt.so (2013.1, Build901 2013/11/27)

>  <Rbt.Parameter_File>
/export/apps/rDock/src/rDock_2013.1_src/data/scripts/dock_solv.prm

>  <Rbt.Receptor>
prm/blind_docking_60.prm

>  <SCORE>
-16.854

>  <SCORE.INTER>
-16.8568

>  <SCORE.INTER.CONST>
1

>  <SCORE.INTER.POLAR>
0

>  <SCORE.INTER.ROT>
1

>  <SCORE.INTER.SOLV>
22.7769

>  <SCORE.INTER.VDW>
-23.0968

>  <SCORE.INTER.norm>
-1.29667

>  <SCORE.INTRA>
0.00276689

>  <SCORE.INTRA.DIHEDRAL>
0.00280455

>  <SCORE.INTRA.DIHEDRAL.0>
1.65305

>  <SCORE.INTRA.POLAR>
0

>  <SCORE.INTRA.POLAR.0>
0

>  <SCORE.INTRA.REPUL>
0

>  <SCORE.INTRA.REPUL.0>
0

>  <SCORE.INTRA.SOLV>
0.000217912

>  <SCORE.INTRA.SOLV.lig_0>
-46.9527

>  <SCORE.INTRA.VDW>
0.00125565

>  <SCORE.INTRA.VDW.0>
-0.177978

>  <SCORE.INTRA.norm>
0.000212837

>  <SCORE.RESTR>
0

>  <SCORE.RESTR.CAVITY>
0

>  <SCORE.RESTR.norm>
0

>  <SCORE.SYSTEM>
0

>  <SCORE.SYSTEM.CONST>
0

>  <SCORE.SYSTEM.DIHEDRAL>
0

>  <SCORE.SYSTEM.SOLV>
0

>  <SCORE.SYSTEM.norm>
0

>  <SCORE.heavy>
13

>  <SCORE.norm>
-1.29646

>  <RMSD>
0.951

$$$$
ligand
 OpenBabel02271912143D
libRbt.so/2013.1/901 2013/11/27
 13 14  0  0  0  0  0  0  0  0999 V2000
   33.8325   33.6348   22.6782 N   0  0  0  0  0  0  0  0  0  0  0  0
   33.0324   32.5707   23.1330 C   0  0  0  0  0  0  0  0  0  0  0  0
   31.9668   32.2044   22.3217 N   0  0  0  0  0  0  0  0  0  0  0  0
   33.1954   31.9016   24.2998 N   0  0  0  0  0  0  0  0  0  0  0  0
   34.2765   32.3836   25.0316 C   0  0  0  0  0  0  0  0  0  0  0  0
   35.1347   33.4231   24.6527 C   0  0  0  0  0  0  0  0  0  0  0  0
   34.9440   34.1060   23.4426 C   0  0  0  0  0  0  0  0  0  0  0  0
   35.6093   35.0354   23.0095 O   0  0  0  0  0  0  0  0  0  0  0  0
   36.1041   33.6098   25.6647 C   0  0  0  0  0  0  0  0  0  0  0  0
   35.8283   32.6729   26.6484 C   0  0  0  0  0  0  0  0  0  0  0  0
   34.6998   31.9081   26.2591 N   0  0  0  0  0  0  0  0  0  0  0  0
   37.1634   34.6537   25.6109 C   0  0  0  0  0  0  0  0  0  0  0  0
   38.0929   34.5167   26.7431 N   0  0  0  0  0  0  0  0  0  0  0  0
  1  2  1  0  0  0  0
  1  7  1  0  0  0  0
  2  3  1  0  0  0  0
  2  4  2  0  0  0  0
  4  5  1  0  0  0  0
  5  6  2  0  0  0  0
  5 11  1  0  0  0  0
  6  7  1  0  0  0  0
  6  9  1  0  0  0  0
  7  8  2  0  0  0  0
  9 10  2  0  0  0  0
  9 12  1  0  0  0  0
 10 11  1  0  0  0  0
 12 13  1  0  0  0  0
M  END
>  <CHROM.1>
-174.66649244,34.92405238,33.30952286,24.54562222,-2.82021209,0.63609062
2.18733672

>  <Name>
ligand

>  <RI>
0

>  <Rbt.Current_Directory>
/home/itssahil/PROJECTS/Mol_Feturizer/Test_systems_manuscript/rnas/3q50

>  <Rbt.Executable>
rbdock ($Id: //depot/dev/client3/rdock/2013.1/src/exe/rbdock.cxx#4 $)

>  <Rbt.Library>
libRbt.so (2013.1, Build901 2013/11/27)

>  <Rbt.Parameter_File>
/export/apps/rDock/src/rDock_2013.1_src/data/scripts/dock_solv.prm

>  <Rbt.Receptor>
prm/blind_docking_60.prm

>  <SCORE>
-16.7232

>  <SCORE.INTER>
-16.732

>  <SCORE.INTER.CONST>
1

>  <SCORE.INTER.POLAR>
0

>  <SCORE.INTER.ROT>
1

>  <SCORE.INTER.SOLV>
22.6822

>  <SCORE.INTER.VDW>
-22.9821

>  <SCORE.INTER.norm>
-1.28708

>  <SCORE.INTRA>
0.00873467

>  <SCORE.INTRA.DIHEDRAL>
0.00952181

>  <SCORE.INTRA.DIHEDRAL.0>
1.65305

>  <SCORE.INTRA.POLAR>
0

>  <SCORE.INTRA.POLAR.0>
0

>  <SCORE.INTRA.REPUL>
0

>  <SCORE.INTRA.REPUL.0>
0

>  <SCORE.INTRA.SOLV>
0.000681562

>  <SCORE.INTRA.SOLV.lig_0>
-46.9527

>  <SCORE.INTRA.VDW>
0.00363298

>  <SCORE.INTRA.VDW.0>
-0.177978

>  <SCORE.INTRA.norm>
0.000671897

>  <SCORE.RESTR>
0.000148314

>  <SCORE.RESTR.CAVITY>
0.000148314

>  <SCORE.RESTR.norm>
1.14088e-05

>  <SCORE.SYSTEM>
0

>  <SCORE.SYSTEM.CONST>
0

>  <SCORE.SYSTEM.DIHEDRAL>
0

>  <SCORE.SYSTEM.SOLV>
0

>  <SCORE.SYSTEM.norm>
0

>  <SCORE.heavy>
13

>  <SCORE.norm>
-1.2864

>  <RMSD>
0.952

$$$$
ligand
 OpenBabel02271912143D
libRbt.so/2013.1/901 2013/11/27
 13 14  0  0  0  0  0  0  0  0999 V2000
   33.9000   33.6036   22.6564 N   0  0  0  0  0  0  0  0  0  0  0  0
   33.0472   32.5936   23.1381 C   0  0  0  0  0  0  0  0  0  0  0  0
   31.9935   32.2247   22.3125 N   0  0  0  0  0  0  0  0  0  0  0  0
   33.1498   31.9796   24.3415 N   0  0  0  0  0  0  0  0  0  0  0  0
   34.2257   32.4593   25.0824 C   0  0  0  0  0  0  0  0  0  0  0  0
   35.1333   33.4466   24.6796 C   0  0  0  0  0  0  0  0  0  0  0  0
   35.0048   34.0731   23.4314 C   0  0  0  0  0  0  0  0  0  0  0  0
   35.7172   34.9547   22.9738 O   0  0  0  0  0  0  0  0  0  0  0  0
   36.0781   33.6500   25.7115 C   0  0  0  0  0  0  0  0  0  0  0  0
   35.7379   32.7751   26.7315 C   0  0  0  0  0  0  0  0  0  0  0  0
   34.5937   32.0323   26.3451 N   0  0  0  0  0  0  0  0  0  0  0  0
   37.1769   34.6511   25.6394 C   0  0  0  0  0  0  0  0  0  0  0  0
   38.0997   34.4998   26.7753 N   0  0  0  0  0  0  0  0  0  0  0  0
  1  2  1  0  0  0  0
  1  7  1  0  0  0  0
  2  3  1  0  0  0  0
  2  4  2  0  0  0  0
  4  5  1  0  0  0  0
  5  6  2  0  0  0  0
  5 11  1  0  0  0  0
  6  7  1  0  0  0  0
  6  9  1  0  0  0  0
  7  8  2  0  0  0  0
  9 10  2  0  0  0  0
  9 12  1  0  0  0  0
 10 11  1  0  0  0  0
 12 13  1  0  0  0  0
M  END
>  <CHROM.1>
-172.16706029,34.92457231,33.33216002,24.56917162,-2.76466749,0.61794807
2.10445627

>  <Name>
ligand

>  <RI>
0

>  <Rbt.Current_Directory>
/home/itssahil/PROJECTS/Mol_Feturizer/Test_systems_manuscript/rnas/3q50

>  <Rbt.Executable>
rbdock ($Id: //depot/dev/client3/rdock/2013.1/src/exe/rbdock.cxx#4 $)

>  <Rbt.Library>
libRbt.so (2013.1, Build901 2013/11/27)

>  <Rbt.Parameter_File>
/export/apps/rDock/src/rDock_2013.1_src/data/scripts/dock_solv.prm

>  <Rbt.Receptor>
prm/blind_docking_60.prm

>  <SCORE>
-16.8259

>  <SCORE.INTER>
-16.8285

>  <SCORE.INTER.CONST>
1

>  <SCORE.INTER.POLAR>
0

>  <SCORE.INTER.ROT>
1

>  <SCORE.INTER.SOLV>
22.7529

>  <SCORE.INTER.VDW>
-23.0699

>  <SCORE.INTER.norm>
-1.2945

>  <SCORE.INTRA>
0.00261103

>  <SCORE.INTRA.DIHEDRAL>
0.00264181

>  <SCORE.INTRA.DIHEDRAL.0>
1.65305

>  <SCORE.INTRA.POLAR>
0

>  <SCORE.INTRA.POLAR.0>
0

>  <SCORE.INTRA.REPUL>
0

>  <SCORE.INTRA.REPUL.0>
0

>  <SCORE.INTRA.SOLV>
0.000205692

>  <SCORE.INTRA.SOLV.lig_0>
-46.9527

>  <SCORE.INTRA.VDW>
0.00118728

>  <SCORE.INTRA.VDW.0>
-0.177978

>  <SCORE.INTRA.norm>
0.000200849

>  <SCORE.RESTR>
0

>  <SCORE.RESTR.CAVITY>
0

>  <SCORE.RESTR.norm>
0

>  <SCORE.SYSTEM>
0

>  <SCORE.SYSTEM.CONST>
0

>  <SCORE.SYSTEM.DIHEDRAL>
0

>  <SCORE.SYSTEM.SOLV>
0

>  <SCORE.SYSTEM.norm>
0

>  <SCORE.heavy>
13

>  <SCORE.norm>
-1.2943

>  <RMSD>
0.952

$$$$
ligand
 OpenBabel02271912143D
libRbt.so/2013.1/901 2013/11/27
 13 14  0  0  0  0  0  0  0  0999 V2000
   33.8818   33.6143   22.6590 N   0  0  0  0  0  0  0  0  0  0  0  0
   33.0421   32.5901   23.1334 C   0  0  0  0  0  0  0  0  0  0  0  0
   31.9891   32.2184   22.3081 N   0  0  0  0  0  0  0  0  0  0  0  0
   33.1562   31.9648   24.3299 N   0  0  0  0  0  0  0  0  0  0  0  0
   34.2298   32.4484   25.0715 C   0  0  0  0  0  0  0  0  0  0  0  0
   35.1250   33.4497   24.6756 C   0  0  0  0  0  0  0  0  0  0  0  0
   34.9846   34.0878   23.4345 C   0  0  0  0  0  0  0  0  0  0  0  0
   35.6855   34.9817   22.9834 O   0  0  0  0  0  0  0  0  0  0  0  0
   36.0717   33.6525   25.7058 C   0  0  0  0  0  0  0  0  0  0  0  0
   35.7451   32.7634   26.7179 C   0  0  0  0  0  0  0  0  0  0  0  0
   34.6075   32.0123   26.3283 N   0  0  0  0  0  0  0  0  0  0  0  0
   37.1593   34.6662   25.6400 C   0  0  0  0  0  0  0  0  0  0  0  0
   38.0998   34.4999   26.7589 N   0  0  0  0  0  0  0  0  0  0  0  0
  1  2  1  0  0  0  0
  1  7  1  0  0  0  0
  2  3  1  0  0  0  0
  2  4  2  0  0  0  0
  4  5  1  0  0  0  0
  5  6  2  0  0  0  0
  5 11  1  0  0  0  0
  6  7  1  0  0  0  0
  6  9  1  0  0  0  0
  7  8  2  0  0  0  0
  9 10  2  0  0  0  0
  9 12  1  0  0  0  0
 10 11  1  0  0  0  0
 12 13  1  0  0  0  0
M  END
>  <CHROM.1>
-171.28476726,34.91800245,33.33303138,24.56382884,-2.77628300,0.62373243
2.12181023

>  <Name>
ligand

>  <RI>
0

>  <Rbt.Current_Directory>
/home/itssahil/PROJECTS/Mol_Feturizer/Test_systems_manuscript/rnas/3q50

>  <Rbt.Executable>
rbdock ($Id: //depot/dev/client3/rdock/2013.1/src/exe/rbdock.cxx#4 $)

>  <Rbt.Library>
libRbt.so (2013.1, Build901 2013/11/27)

>  <Rbt.Parameter_File>
/export/apps/rDock/src/rDock_2013.1_src/data/scripts/dock_solv.prm

>  <Rbt.Receptor>
prm/blind_docking_80.prm

>  <SCORE>
-16.763

>  <SCORE.INTER>
-16.7633

>  <SCORE.INTER.CONST>
1

>  <SCORE.INTER.POLAR>
0

>  <SCORE.INTER.ROT>
1

>  <SCORE.INTER.SOLV>
22.7249

>  <SCORE.INTER.VDW>
-23.0172

>  <SCORE.INTER.norm>
-1.28948

>  <SCORE.INTRA>
0.000311072

>  <SCORE.INTRA.DIHEDRAL>
0.00030661

>  <SCORE.INTRA.DIHEDRAL.0>
1.65305

>  <SCORE.INTRA.POLAR>
0

>  <SCORE.INTRA.POLAR.0>
0

>  <SCORE.INTRA.REPUL>
0

>  <SCORE.INTRA.REPUL.0>
0

>  <SCORE.INTRA.SOLV>
2.46022e-05

>  <SCORE.INTRA.SOLV.lig_0>
-46.9527

>  <SCORE.INTRA.VDW>
0.000145466

>  <SCORE.INTRA.VDW.0>
-0.177978

>  <SCORE.INTRA.norm>
2.39286e-05

>  <SCORE.RESTR>
0

>  <SCORE.RESTR.CAVITY>
0

>  <SCORE.RESTR.norm>
0

>  <SCORE.SYSTEM>
0

>  <SCORE.SYSTEM.CONST>
0

>  <SCORE.SYSTEM.DIHEDRAL>
0

>  <SCORE.SYSTEM.SOLV>
0

>  <SCORE.SYSTEM.norm>
0

>  <SCORE.heavy>
13

>  <SCORE.norm>
-1.28946

>  <RMSD>
0.953

$$$$
ligand
 OpenBabel02271912143D
libRbt.so/2013.1/901 2013/11/27
 13 14  0  0  0  0  0  0  0  0999 V2000
   33.8590   33.6142   22.6681 N   0  0  0  0  0  0  0  0  0  0  0  0
   33.0220   32.5909   23.1493 C   0  0  0  0  0  0  0  0  0  0  0  0
   31.9624   32.2198   22.3323 N   0  0  0  0  0  0  0  0  0  0  0  0
   33.1447   31.9660   24.3453 N   0  0  0  0  0  0  0  0  0  0  0  0
   34.2244   32.4490   25.0785 C   0  0  0  0  0  0  0  0  0  0  0  0
   35.1174   33.4493   24.6752 C   0  0  0  0  0  0  0  0  0  0  0  0
   34.9681   34.0869   23.4349 C   0  0  0  0  0  0  0  0  0  0  0  0
   35.6664   34.9801   22.9781 O   0  0  0  0  0  0  0  0  0  0  0  0
   36.0721   33.6518   25.6980 C   0  0  0  0  0  0  0  0  0  0  0  0
   35.7525   32.7634   26.7131 C   0  0  0  0  0  0  0  0  0  0  0  0
   34.6113   32.0131   26.3325 N   0  0  0  0  0  0  0  0  0  0  0  0
   37.1601   34.6644   25.6234 C   0  0  0  0  0  0  0  0  0  0  0  0
   38.0932   34.5160   26.7512 N   0  0  0  0  0  0  0  0  0  0  0  0
  1  2  1  0  0  0  0
  1  7  1  0  0  0  0
  2  3  1  0  0  0  0
  2  4  2  0  0  0  0
  4  5  1  0  0  0  0
  5  6  2  0  0  0  0
  5 11  1  0  0  0  0
  6  7  1  0  0  0  0
  6  9  1  0  0  0  0
  7  8  2  0  0  0  0
  9 10  2  0  0  0  0
  9 12  1  0  0  0  0
 10 11  1  0  0  0  0
 12 13  1  0  0  0  0
M  END
>  <CHROM.1>
-172.48997575,34.90818440,33.33426199,24.56637819,-2.78301161,0.62097083
2.12511138

>  <Name>
ligand

>  <RI>
0

>  <Rbt.Current_Directory>
/home/itssahil/PROJECTS/Mol_Feturizer/Test_systems_manuscript/rnas/3q50

>  <Rbt.Executable>
rbdock ($Id: //depot/dev/client3/rdock/2013.1/src/exe/rbdock.cxx#4 $)

>  <Rbt.Library>
libRbt.so (2013.1, Build901 2013/11/27)

>  <Rbt.Parameter_File>
/export/apps/rDock/src/rDock_2013.1_src/data/scripts/dock_solv.prm

>  <Rbt.Receptor>
prm/blind_docking_60.prm

>  <SCORE>
-16.7619

>  <SCORE.INTER>
-16.7657

>  <SCORE.INTER.CONST>
1

>  <SCORE.INTER.POLAR>
0

>  <SCORE.INTER.ROT>
1

>  <SCORE.INTER.SOLV>
22.7737

>  <SCORE.INTER.VDW>
-23.035

>  <SCORE.INTER.norm>
-1.28967

>  <SCORE.INTRA>
0.00343573

>  <SCORE.INTRA.DIHEDRAL>
0.00350972

>  <SCORE.INTRA.DIHEDRAL.0>
1.65305

>  <SCORE.INTRA.POLAR>
0

>  <SCORE.INTRA.POLAR.0>
0

>  <SCORE.INTRA.REPUL>
0

>  <SCORE.INTRA.REPUL.0>
0

>  <SCORE.INTRA.SOLV>
0.000270289

>  <SCORE.INTRA.SOLV.lig_0>
-46.9527

>  <SCORE.INTRA.VDW>
0.00154572

>  <SCORE.INTRA.VDW.0>
-0.177978

>  <SCORE.INTRA.norm>
0.000264287

>  <SCORE.RESTR>
0.000345822

>  <SCORE.RESTR.CAVITY>
0.000345822

>  <SCORE.RESTR.norm>
2.66017e-05

>  <SCORE.SYSTEM>
0

>  <SCORE.SYSTEM.CONST>
0

>  <SCORE.SYSTEM.DIHEDRAL>
0

>  <SCORE.SYSTEM.SOLV>
0

>  <SCORE.SYSTEM.norm>
0

>  <SCORE.heavy>
13

>  <SCORE.norm>
-1.28938

>  <RMSD>
0.954

$$$$
ligand
 OpenBabel02271912143D
libRbt.so/2013.1/901 2013/11/27
 13 14  0  0  0  0  0  0  0  0999 V2000
   33.8576   33.6303   22.6725 N   0  0  0  0  0  0  0  0  0  0  0  0
   33.0110   32.6161   23.1561 C   0  0  0  0  0  0  0  0  0  0  0  0
   31.9481   32.2528   22.3399 N   0  0  0  0  0  0  0  0  0  0  0  0
   33.1278   31.9930   24.3535 N   0  0  0  0  0  0  0  0  0  0  0  0
   34.2119   32.4677   25.0857 C   0  0  0  0  0  0  0  0  0  0  0  0
   35.1142   33.4586   24.6801 C   0  0  0  0  0  0  0  0  0  0  0  0
   34.9710   34.0946   23.4383 C   0  0  0  0  0  0  0  0  0  0  0  0
   35.6776   34.9801   22.9794 O   0  0  0  0  0  0  0  0  0  0  0  0
   36.0707   33.6547   25.7025 C   0  0  0  0  0  0  0  0  0  0  0  0
   35.7428   32.7718   26.7197 C   0  0  0  0  0  0  0  0  0  0  0  0
   34.5947   32.0312   26.3408 N   0  0  0  0  0  0  0  0  0  0  0  0
   37.1681   34.6570   25.6256 C   0  0  0  0  0  0  0  0  0  0  0  0
   38.0988   34.5037   26.7546 N   0  0  0  0  0  0  0  0  0  0  0  0
  1  2  1  0  0  0  0
  1  7  1  0  0  0  0
  2  3  1  0  0  0  0
  2  4  2  0  0  0  0
  4  5  1  0  0  0  0
  5  6  2  0  0  0  0
  5 11  1  0  0  0  0
  6  7  1  0  0  0  0
  6  9  1  0  0  0  0
  7  8  2  0  0  0  0
  9 10  2  0  0  0  0
  9 12  1  0  0  0  0
 10 11  1  0  0  0  0
 12 13  1  0  0  0  0
M  END
>  <CHROM.1>
-172.55952935,34.90389046,33.34536928,24.57160048,-2.77691757,0.61320817
2.11915867

>  <Name>
ligand

>  <RI>
0

>  <Rbt.Current_Directory>
/home/itssahil/PROJECTS/Mol_Feturizer/Test_systems_manuscript/rnas/3q50

>  <Rbt.Executable>
rbdock ($Id: //depot/dev/client3/rdock/2013.1/src/exe/rbdock.cxx#4 $)

>  <Rbt.Library>
libRbt.so (2013.1, Build901 2013/11/27)

>  <Rbt.Parameter_File>
/export/apps/rDock/src/rDock_2013.1_src/data/scripts/dock_solv.prm

>  <Rbt.Receptor>
prm/blind_docking_60.prm

>  <SCORE>
-16.7829

>  <SCORE.INTER>
-16.787

>  <SCORE.INTER.CONST>
1

>  <SCORE.INTER.POLAR>
0

>  <SCORE.INTER.ROT>
1

>  <SCORE.INTER.SOLV>
22.7674

>  <SCORE.INTER.VDW>
-23.0471

>  <SCORE.INTER.norm>
-1.29131

>  <SCORE.INTRA>
0.00361212

>  <SCORE.INTRA.DIHEDRAL>
0.00369754

>  <SCORE.INTRA.DIHEDRAL.0>
1.65305

>  <SCORE.INTRA.POLAR>
0

>  <SCORE.INTRA.POLAR.0>
0

>  <SCORE.INTRA.REPUL>
0

>  <SCORE.INTRA.REPUL.0>
0

>  <SCORE.INTRA.SOLV>
0.000284083

>  <SCORE.INTRA.SOLV.lig_0>
-46.9527

>  <SCORE.INTRA.VDW>
0.00162131

>  <SCORE.INTRA.VDW.0>
-0.177978

>  <SCORE.INTRA.norm>
0.000277855

>  <SCORE.RESTR>
0.000420157

>  <SCORE.RESTR.CAVITY>
0.000420157

>  <SCORE.RESTR.norm>
3.23198e-05

>  <SCORE.SYSTEM>
0

>  <SCORE.SYSTEM.CONST>
0

>  <SCORE.SYSTEM.DIHEDRAL>
0

>  <SCORE.SYSTEM.SOLV>
0

>  <SCORE.SYSTEM.norm>
0

>  <SCORE.heavy>
13

>  <SCORE.norm>
-1.291

>  <RMSD>
0.954

$$$$
ligand
 OpenBabel02271912143D
libRbt.so/2013.1/901 2013/11/27
 13 14  0  0  0  0  0  0  0  0999 V2000
   33.8584   33.6293   22.6733 N   0  0  0  0  0  0  0  0  0  0  0  0
   33.0105   32.6164   23.1574 C   0  0  0  0  0  0  0  0  0  0  0  0
   31.9463   32.2551   22.3420 N   0  0  0  0  0  0  0  0  0  0  0  0
   33.1272   31.9929   24.3547 N   0  0  0  0  0  0  0  0  0  0  0  0
   34.2126   32.4657   25.0860 C   0  0  0  0  0  0  0  0  0  0  0  0
   35.1163   33.4551   24.6799 C   0  0  0  0  0  0  0  0  0  0  0  0
   34.9732   34.0915   23.4382 C   0  0  0  0  0  0  0  0  0  0  0  0
   35.6809   34.9759   22.9789 O   0  0  0  0  0  0  0  0  0  0  0  0
   36.0739   33.6494   25.7016 C   0  0  0  0  0  0  0  0  0  0  0  0
   35.7452   32.7670   26.7189 C   0  0  0  0  0  0  0  0  0  0  0  0
   34.5956   32.0284   26.3408 N   0  0  0  0  0  0  0  0  0  0  0  0
   37.1729   34.6499   25.6239 C   0  0  0  0  0  0  0  0  0  0  0  0
   38.0990   34.5009   26.7573 N   0  0  0  0  0  0  0  0  0  0  0  0
  1  2  1  0  0  0  0
  1  7  1  0  0  0  0
  2  3  1  0  0  0  0
  2  4  2  0  0  0  0
  4  5  1  0  0  0  0
  5  6  2  0  0  0  0
  5 11  1  0  0  0  0
  6  7  1  0  0  0  0
  6  9  1  0  0  0  0
  7  8  2  0  0  0  0
  9 10  2  0  0  0  0
  9 12  1  0  0  0  0
 10 11  1  0  0  0  0
 12 13  1  0  0  0  0
M  END
>  <CHROM.1>
-172.95467085,34.90525866,33.34275333,24.57192560,-2.77642308,0.61200519
2.11893758

>  <Name>
ligand

>  <RI>
0

>  <Rbt.Current_Directory>
/home/itssahil/PROJECTS/Mol_Feturizer/Test_systems_manuscript/rnas/3q50

>  <Rbt.Executable>
rbdock ($Id: //depot/dev/client3/rdock/2013.1/src/exe/rbdock.cxx#4 $)

>  <Rbt.Library>
libRbt.so (2013.1, Build901 2013/11/27)

>  <Rbt.Parameter_File>
/export/apps/rDock/src/rDock_2013.1_src/data/scripts/dock_solv.prm

>  <Rbt.Receptor>
prm/blind_docking_60.prm

>  <SCORE>
-16.7835

>  <SCORE.INTER>
-16.7881

>  <SCORE.INTER.CONST>
1

>  <SCORE.INTER.POLAR>
0

>  <SCORE.INTER.ROT>
1

>  <SCORE.INTER.SOLV>
22.7672

>  <SCORE.INTER.VDW>
-23.0478

>  <SCORE.INTER.norm>
-1.29139

>  <SCORE.INTRA>
0.00460574

>  <SCORE.INTRA.DIHEDRAL>
0.00477038

>  <SCORE.INTRA.DIHEDRAL.0>
1.65305

>  <SCORE.INTRA.POLAR>
0

>  <SCORE.INTRA.POLAR.0>
0

>  <SCORE.INTRA.REPUL>
0

>  <SCORE.INTRA.REPUL.0>
0

>  <SCORE.INTRA.SOLV>
0.000361646

>  <SCORE.INTRA.SOLV.lig_0>
-46.9527

>  <SCORE.INTRA.VDW>
0.00203973

>  <SCORE.INTRA.VDW.0>
-0.177978

>  <SCORE.INTRA.norm>
0.000354288

>  <SCORE.RESTR>
0

>  <SCORE.RESTR.CAVITY>
0

>  <SCORE.RESTR.norm>
0

>  <SCORE.SYSTEM>
0

>  <SCORE.SYSTEM.CONST>
0

>  <SCORE.SYSTEM.DIHEDRAL>
0

>  <SCORE.SYSTEM.SOLV>
0

>  <SCORE.SYSTEM.norm>
0

>  <SCORE.heavy>
13

>  <SCORE.norm>
-1.29104

>  <RMSD>
0.955

$$$$
ligand
 OpenBabel02271912143D
libRbt.so/2013.1/901 2013/11/27
 13 14  0  0  0  0  0  0  0  0999 V2000
   33.8548   33.6279   22.6658 N   0  0  0  0  0  0  0  0  0  0  0  0
   33.0316   32.5867   23.1321 C   0  0  0  0  0  0  0  0  0  0  0  0
   31.9696   32.2217   22.3154 N   0  0  0  0  0  0  0  0  0  0  0  0
   33.1696   31.9387   24.3140 N   0  0  0  0  0  0  0  0  0  0  0  0
   34.2499   32.4174   25.0490 C   0  0  0  0  0  0  0  0  0  0  0  0
   35.1299   33.4347   24.6598 C   0  0  0  0  0  0  0  0  0  0  0  0
   34.9650   34.0960   23.4340 C   0  0  0  0  0  0  0  0  0  0  0  0
   35.6508   35.0053   22.9905 O   0  0  0  0  0  0  0  0  0  0  0  0
   36.0903   33.6257   25.6795 C   0  0  0  0  0  0  0  0  0  0  0  0
   35.7871   32.7136   26.6784 C   0  0  0  0  0  0  0  0  0  0  0  0
   34.6506   31.9598   26.2909 N   0  0  0  0  0  0  0  0  0  0  0  0
   37.1676   34.6506   25.6177 C   0  0  0  0  0  0  0  0  0  0  0  0
   38.0996   34.5007   26.7461 N   0  0  0  0  0  0  0  0  0  0  0  0
  1  2  1  0  0  0  0
  1  7  1  0  0  0  0
  2  3  1  0  0  0  0
  2  4  2  0  0  0  0
  4  5  1  0  0  0  0
  5  6  2  0  0  0  0
  5 11  1  0  0  0  0
  6  7  1  0  0  0  0
  6  9  1  0  0  0  0
  7  8  2  0  0  0  0
  9 10  2  0  0  0  0
  9 12  1  0  0  0  0
 10 11  1  0  0  0  0
 12 13  1  0  0  0  0
M  END
>  <CHROM.1>
-173.31037633,34.92012541,33.32078672,24.55106192,-2.79695750,0.62675377
2.15366776

>  <Name>
ligand

>  <RI>
0

>  <Rbt.Current_Directory>
/home/itssahil/PROJECTS/Mol_Feturizer/Test_systems_manuscript/rnas/3q50

>  <Rbt.Executable>
rbdock ($Id: //depot/dev/client3/rdock/2013.1/src/exe/rbdock.cxx#4 $)

>  <Rbt.Library>
libRbt.so (2013.1, Build901 2013/11/27)

>  <Rbt.Parameter_File>
/export/apps/rDock/src/rDock_2013.1_src/data/scripts/dock_solv.prm

>  <Rbt.Receptor>
prm/blind_docking_80.prm

>  <SCORE>
-16.7656

>  <SCORE.INTER>
-16.7711

>  <SCORE.INTER.CONST>
1

>  <SCORE.INTER.POLAR>
0

>  <SCORE.INTER.ROT>
1

>  <SCORE.INTER.SOLV>
22.6857

>  <SCORE.INTER.VDW>
-23.0093

>  <SCORE.INTER.norm>
-1.29008

>  <SCORE.INTRA>
0.00548759

>  <SCORE.INTRA.DIHEDRAL>
0.00574429

>  <SCORE.INTRA.DIHEDRAL.0>
1.65305

>  <SCORE.INTRA.POLAR>
0

>  <SCORE.INTRA.POLAR.0>
0

>  <SCORE.INTRA.REPUL>
0

>  <SCORE.INTRA.REPUL.0>
0

>  <SCORE.INTRA.SOLV>
0.000430287

>  <SCORE.INTRA.SOLV.lig_0>
-46.9527

>  <SCORE.INTRA.VDW>
0.00240031

>  <SCORE.INTRA.VDW.0>
-0.177978

>  <SCORE.INTRA.norm>
0.000422123

>  <SCORE.RESTR>
0

>  <SCORE.RESTR.CAVITY>
0

>  <SCORE.RESTR.norm>
0

>  <SCORE.SYSTEM>
0

>  <SCORE.SYSTEM.CONST>
0

>  <SCORE.SYSTEM.DIHEDRAL>
0

>  <SCORE.SYSTEM.SOLV>
0

>  <SCORE.SYSTEM.norm>
0

>  <SCORE.heavy>
13

>  <SCORE.norm>
-1.28966

>  <RMSD>
0.955

$$$$
ligand
 OpenBabel02271912143D
libRbt.so/2013.1/901 2013/11/27
 13 14  0  0  0  0  0  0  0  0999 V2000
   33.8314   33.6327   22.6757 N   0  0  0  0  0  0  0  0  0  0  0  0
   32.9892   32.6165   23.1628 C   0  0  0  0  0  0  0  0  0  0  0  0
   31.9213   32.2537   22.3528 N   0  0  0  0  0  0  0  0  0  0  0  0
   33.1146   31.9911   24.3581 N   0  0  0  0  0  0  0  0  0  0  0  0
   34.2029   32.4655   25.0841 C   0  0  0  0  0  0  0  0  0  0  0  0
   35.1014   33.4583   24.6746 C   0  0  0  0  0  0  0  0  0  0  0  0
   34.9493   34.0967   23.4350 C   0  0  0  0  0  0  0  0  0  0  0  0
   35.6518   34.9840   22.9733 O   0  0  0  0  0  0  0  0  0  0  0  0
   36.0644   33.6534   25.6911 C   0  0  0  0  0  0  0  0  0  0  0  0
   35.7442   32.7680   26.7085 C   0  0  0  0  0  0  0  0  0  0  0  0
   34.5945   32.0269   26.3357 N   0  0  0  0  0  0  0  0  0  0  0  0
   37.1601   34.6571   25.6090 C   0  0  0  0  0  0  0  0  0  0  0  0
   38.0992   34.5016   26.7307 N   0  0  0  0  0  0  0  0  0  0  0  0
  1  2  1  0  0  0  0
  1  7  1  0  0  0  0
  2  3  1  0  0  0  0
  2  4  2  0  0  0  0
  4  5  1  0  0  0  0
  5  6  2  0  0  0  0
  5 11  1  0  0  0  0
  6  7  1  0  0  0  0
  6  9  1  0  0  0  0
  7  8  2  0  0  0  0
  9 10  2  0  0  0  0
  9 12  1  0  0  0  0
 10 11  1  0  0  0  0
 12 13  1  0  0  0  0
M  END
>  <CHROM.1>
-172.49735387,34.89058588,33.34499469,24.56716938,-2.78454021,0.61062097
2.12560182

>  <Name>
ligand

>  <RI>
0

>  <Rbt.Current_Directory>
/home/itssahil/PROJECTS/Mol_Feturizer/Test_systems_manuscript/rnas/3q50

>  <Rbt.Executable>
rbdock ($Id: //depot/dev/client3/rdock/2013.1/src/exe/rbdock.cxx#4 $)

>  <Rbt.Library>
libRbt.so (2013.1, Build901 2013/11/27)

>  <Rbt.Parameter_File>
/export/apps/rDock/src/rDock_2013.1_src/data/scripts/dock_solv.prm

>  <Rbt.Receptor>
prm/blind_docking_80.prm

>  <SCORE>
-16.7748

>  <SCORE.INTER>
-16.7782

>  <SCORE.INTER.CONST>
1

>  <SCORE.INTER.POLAR>
0

>  <SCORE.INTER.ROT>
1

>  <SCORE.INTER.SOLV>
22.7729

>  <SCORE.INTER.VDW>
-23.0431

>  <SCORE.INTER.norm>
-1.29063

>  <SCORE.INTRA>
0.00345446

>  <SCORE.INTRA.DIHEDRAL>
0.00352963

>  <SCORE.INTRA.DIHEDRAL.0>
1.65305

>  <SCORE.INTRA.POLAR>
0

>  <SCORE.INTRA.POLAR.0>
0

>  <SCORE.INTRA.REPUL>
0

>  <SCORE.INTRA.REPUL.0>
0

>  <SCORE.INTRA.SOLV>
0.000271754

>  <SCORE.INTRA.SOLV.lig_0>
-46.9527

>  <SCORE.INTRA.VDW>
0.00155377

>  <SCORE.INTRA.VDW.0>
-0.177978

>  <SCORE.INTRA.norm>
0.000265728

>  <SCORE.RESTR>
0

>  <SCORE.RESTR.CAVITY>
0

>  <SCORE.RESTR.norm>
0

>  <SCORE.SYSTEM>
0

>  <SCORE.SYSTEM.CONST>
0

>  <SCORE.SYSTEM.DIHEDRAL>
0

>  <SCORE.SYSTEM.SOLV>
0

>  <SCORE.SYSTEM.norm>
0

>  <SCORE.heavy>
13

>  <SCORE.norm>
-1.29037

>  <RMSD>
0.961

$$$$
ligand
 OpenBabel02271912143D
libRbt.so/2013.1/901 2013/11/27
 13 14  0  0  0  0  0  0  0  0999 V2000
   33.8426   33.6327   22.6729 N   0  0  0  0  0  0  0  0  0  0  0  0
   32.9954   32.6191   23.1567 C   0  0  0  0  0  0  0  0  0  0  0  0
   31.9312   32.2575   22.3414 N   0  0  0  0  0  0  0  0  0  0  0  0
   33.1126   31.9952   24.3537 N   0  0  0  0  0  0  0  0  0  0  0  0
   34.1980   32.4683   25.0851 C   0  0  0  0  0  0  0  0  0  0  0  0
   35.1010   33.4584   24.6792 C   0  0  0  0  0  0  0  0  0  0  0  0
   34.9573   34.0953   23.4378 C   0  0  0  0  0  0  0  0  0  0  0  0
   35.6644   34.9802   22.9787 O   0  0  0  0  0  0  0  0  0  0  0  0
   36.0587   33.6529   25.7008 C   0  0  0  0  0  0  0  0  0  0  0  0
   35.7307   32.7698   26.7177 C   0  0  0  0  0  0  0  0  0  0  0  0
   34.5814   32.0307   26.3396 N   0  0  0  0  0  0  0  0  0  0  0  0
   37.1571   34.6540   25.6233 C   0  0  0  0  0  0  0  0  0  0  0  0
   38.0999   34.4859   26.7402 N   0  0  0  0  0  0  0  0  0  0  0  0
  1  2  1  0  0  0  0
  1  7  1  0  0  0  0
  2  3  1  0  0  0  0
  2  4  2  0  0  0  0
  4  5  1  0  0  0  0
  5  6  2  0  0  0  0
  5 11  1  0  0  0  0
  6  7  1  0  0  0  0
  6  9  1  0  0  0  0
  7  8  2  0  0  0  0
  9 10  2  0  0  0  0
  9 12  1  0  0  0  0
 10 11  1  0  0  0  0
 12 13  1  0  0  0  0
M  END
>  <CHROM.1>
-171.70338780,34.89134411,33.34442923,24.56988482,-2.77767641,0.61029372
2.12025970

>  <Name>
ligand

>  <RI>
0

>  <Rbt.Current_Directory>
/home/itssahil/PROJECTS/Mol_Feturizer/Test_systems_manuscript/rnas/3q50

>  <Rbt.Executable>
rbdock ($Id: //depot/dev/client3/rdock/2013.1/src/exe/rbdock.cxx#4 $)

>  <Rbt.Library>
libRbt.so (2013.1, Build901 2013/11/27)

>  <Rbt.Parameter_File>
/export/apps/rDock/src/rDock_2013.1_src/data/scripts/dock_solv.prm

>  <Rbt.Receptor>
prm/blind_docking_100.prm

>  <SCORE>
-16.807

>  <SCORE.INTER>
-16.8084

>  <SCORE.INTER.CONST>
1

>  <SCORE.INTER.POLAR>
0

>  <SCORE.INTER.ROT>
1

>  <SCORE.INTER.SOLV>
22.7483

>  <SCORE.INTER.VDW>
-23.055

>  <SCORE.INTER.norm>
-1.29295

>  <SCORE.INTRA>
0.00141068

>  <SCORE.INTRA.DIHEDRAL>
0.0014078

>  <SCORE.INTRA.DIHEDRAL.0>
1.65305

>  <SCORE.INTRA.POLAR>
0

>  <SCORE.INTRA.POLAR.0>
0

>  <SCORE.INTRA.REPUL>
0

>  <SCORE.INTRA.REPUL.0>
0

>  <SCORE.INTRA.SOLV>
0.000111356

>  <SCORE.INTRA.SOLV.lig_0>
-46.9527

>  <SCORE.INTRA.VDW>
0.000651096

>  <SCORE.INTRA.VDW.0>
-0.177978

>  <SCORE.INTRA.norm>
0.000108513

>  <SCORE.RESTR>
0

>  <SCORE.RESTR.CAVITY>
0

>  <SCORE.RESTR.norm>
0

>  <SCORE.SYSTEM>
0

>  <SCORE.SYSTEM.CONST>
0

>  <SCORE.SYSTEM.DIHEDRAL>
0

>  <SCORE.SYSTEM.SOLV>
0

>  <SCORE.SYSTEM.norm>
0

>  <SCORE.heavy>
13

>  <SCORE.norm>
-1.29285

>  <RMSD>
0.964

$$$$
ligand
 OpenBabel02271912143D
libRbt.so/2013.1/901 2013/11/27
 13 14  0  0  0  0  0  0  0  0999 V2000
   33.8773   33.6093   22.6341 N   0  0  0  0  0  0  0  0  0  0  0  0
   33.0200   32.6080   23.1257 C   0  0  0  0  0  0  0  0  0  0  0  0
   31.9682   32.2313   22.3011 N   0  0  0  0  0  0  0  0  0  0  0  0
   33.1164   32.0095   24.3374 N   0  0  0  0  0  0  0  0  0  0  0  0
   34.1909   32.4959   25.0760 C   0  0  0  0  0  0  0  0  0  0  0  0
   35.1027   33.4753   24.6638 C   0  0  0  0  0  0  0  0  0  0  0  0
   34.9806   34.0858   23.4070 C   0  0  0  0  0  0  0  0  0  0  0  0
   35.6971   34.9593   22.9406 O   0  0  0  0  0  0  0  0  0  0  0  0
   36.0443   33.6895   25.6964 C   0  0  0  0  0  0  0  0  0  0  0  0
   35.6979   32.8290   26.7265 C   0  0  0  0  0  0  0  0  0  0  0  0
   34.5531   32.0844   26.3456 N   0  0  0  0  0  0  0  0  0  0  0  0
   37.1462   34.6865   25.6153 C   0  0  0  0  0  0  0  0  0  0  0  0
   38.0963   34.5096   26.7246 N   0  0  0  0  0  0  0  0  0  0  0  0
  1  2  1  0  0  0  0
  1  7  1  0  0  0  0
  2  3  1  0  0  0  0
  2  4  2  0  0  0  0
  4  5  1  0  0  0  0
  5  6  2  0  0  0  0
  5 11  1  0  0  0  0
  6  7  1  0  0  0  0
  6  9  1  0  0  0  0
  7  8  2  0  0  0  0
  9 10  2  0  0  0  0
  9 12  1  0  0  0  0
 10 11  1  0  0  0  0
 12 13  1  0  0  0  0
M  END
>  <CHROM.1>
-169.70821156,34.89671984,33.35689062,24.55145198,-2.76054166,0.61326671
2.08935492

>  <Name>
ligand

>  <RI>
0

>  <Rbt.Current_Directory>
/home/itssahil/PROJECTS/Mol_Feturizer/Test_systems_manuscript/rnas/3q50

>  <Rbt.Executable>
rbdock ($Id: //depot/dev/client3/rdock/2013.1/src/exe/rbdock.cxx#4 $)

>  <Rbt.Library>
libRbt.so (2013.1, Build901 2013/11/27)

>  <Rbt.Parameter_File>
/export/apps/rDock/src/rDock_2013.1_src/data/scripts/dock_solv.prm

>  <Rbt.Receptor>
prm/blind_docking_100.prm

>  <SCORE>
-16.7398

>  <SCORE.INTER>
-16.736

>  <SCORE.INTER.CONST>
1

>  <SCORE.INTER.POLAR>
0

>  <SCORE.INTER.ROT>
1

>  <SCORE.INTER.SOLV>
22.7834

>  <SCORE.INTER.VDW>
-23.0185

>  <SCORE.INTER.norm>
-1.28739

>  <SCORE.INTRA>
-0.00395618

>  <SCORE.INTRA.DIHEDRAL>
-0.00372138

>  <SCORE.INTRA.DIHEDRAL.0>
1.65305

>  <SCORE.INTRA.POLAR>
0

>  <SCORE.INTRA.POLAR.0>
0

>  <SCORE.INTRA.REPUL>
0

>  <SCORE.INTRA.REPUL.0>
0

>  <SCORE.INTRA.SOLV>
-0.000315309

>  <SCORE.INTRA.SOLV.lig_0>
-46.9527

>  <SCORE.INTRA.VDW>
-0.00193784

>  <SCORE.INTRA.VDW.0>
-0.177978

>  <SCORE.INTRA.norm>
-0.000304322

>  <SCORE.RESTR>
0.000169174

>  <SCORE.RESTR.CAVITY>
0.000169174

>  <SCORE.RESTR.norm>
1.30133e-05

>  <SCORE.SYSTEM>
0

>  <SCORE.SYSTEM.CONST>
0

>  <SCORE.SYSTEM.DIHEDRAL>
0

>  <SCORE.SYSTEM.SOLV>
0

>  <SCORE.SYSTEM.norm>
0

>  <SCORE.heavy>
13

>  <SCORE.norm>
-1.28768

>  <RMSD>
0.966

$$$$
ligand
 OpenBabel02271912143D
libRbt.so/2013.1/901 2013/11/27
 13 14  0  0  0  0  0  0  0  0999 V2000
   35.0628   34.2279   23.5081 N   0  0  0  0  0  0  0  0  0  0  0  0
   34.1447   33.2026   23.8000 C   0  0  0  0  0  0  0  0  0  0  0  0
   33.1321   32.9935   22.8732 N   0  0  0  0  0  0  0  0  0  0  0  0
   34.1486   32.4315   24.9140 N   0  0  0  0  0  0  0  0  0  0  0  0
   35.1927   32.7605   25.7731 C   0  0  0  0  0  0  0  0  0  0  0  0
   36.1597   33.7504   25.5593 C   0  0  0  0  0  0  0  0  0  0  0  0
   36.1332   34.5410   24.4012 C   0  0  0  0  0  0  0  0  0  0  0  0
   36.9051   35.4422   24.1078 O   0  0  0  0  0  0  0  0  0  0  0  0
   37.0446   33.7733   26.6617 C   0  0  0  0  0  0  0  0  0  0  0  0
   36.6088   32.7878   27.5338 C   0  0  0  0  0  0  0  0  0  0  0  0
   35.4646   32.1547   26.9862 N   0  0  0  0  0  0  0  0  0  0  0  0
   38.1820   34.7247   26.7879 C   0  0  0  0  0  0  0  0  0  0  0  0
   39.3165   34.0967   27.4830 N   0  0  0  0  0  0  0  0  0  0  0  0
  1  2  1  0  0  0  0
  1  7  1  0  0  0  0
  2  3  1  0  0  0  0
  2  4  2  0  0  0  0
  4  5  1  0  0  0  0
  5  6  2  0  0  0  0
  5 11  1  0  0  0  0
  6  7  1  0  0  0  0
  6  9  1  0  0  0  0
  7  8  2  0  0  0  0
  9 10  2  0  0  0  0
  9 12  1  0  0  0  0
 10 11  1  0  0  0  0
 12 13  1  0  0  0  0
M  END
>  <CHROM.1>
-146.25077513,35.97797127,33.63762173,25.38519021,-2.69974473,0.57535852
2.19780175

>  <Name>
ligand

>  <RI>
0

>  <Rbt.Current_Directory>
/home/itssahil/PROJECTS/Mol_Feturizer/Test_systems_manuscript/rnas/3q50

>  <Rbt.Executable>
rbdock ($Id: //depot/dev/client3/rdock/2013.1/src/exe/rbdock.cxx#4 $)

>  <Rbt.Library>
libRbt.so (2013.1, Build901 2013/11/27)

>  <Rbt.Parameter_File>
/export/apps/rDock/src/rDock_2013.1_src/data/scripts/dock_solv.prm

>  <Rbt.Receptor>
prm/pocket_docking_6.prm

>  <SCORE>
-16.8413

>  <SCORE.INTER>
-16.7683

>  <SCORE.INTER.CONST>
1

>  <SCORE.INTER.POLAR>
0

>  <SCORE.INTER.ROT>
1

>  <SCORE.INTER.SOLV>
17.5844

>  <SCORE.INTER.VDW>
-21.307

>  <SCORE.INTER.norm>
-1.28987

>  <SCORE.INTRA>
-0.0730095

>  <SCORE.INTRA.DIHEDRAL>
-0.0281706

>  <SCORE.INTRA.DIHEDRAL.0>
1.65305

>  <SCORE.INTRA.POLAR>
0

>  <SCORE.INTRA.POLAR.0>
0

>  <SCORE.INTRA.REPUL>
0

>  <SCORE.INTRA.REPUL.0>
0

>  <SCORE.INTRA.SOLV>
-0.00695658

>  <SCORE.INTRA.SOLV.lig_0>
-46.9527

>  <SCORE.INTRA.VDW>
-0.0554459

>  <SCORE.INTRA.VDW.0>
-0.177978

>  <SCORE.INTRA.norm>
-0.00561612

>  <SCORE.RESTR>
0

>  <SCORE.RESTR.CAVITY>
0

>  <SCORE.RESTR.norm>
0

>  <SCORE.SYSTEM>
0

>  <SCORE.SYSTEM.CONST>
0

>  <SCORE.SYSTEM.DIHEDRAL>
0

>  <SCORE.SYSTEM.SOLV>
0

>  <SCORE.SYSTEM.norm>
0

>  <SCORE.heavy>
13

>  <SCORE.norm>
-1.29548

>  <RMSD>
0.970

$$$$
ligand
 OpenBabel02271912143D
libRbt.so/2013.1/901 2013/11/27
 13 14  0  0  0  0  0  0  0  0999 V2000
   33.8376   33.6178   22.6537 N   0  0  0  0  0  0  0  0  0  0  0  0
   32.9973   32.5944   23.1289 C   0  0  0  0  0  0  0  0  0  0  0  0
   31.9362   32.2319   22.3101 N   0  0  0  0  0  0  0  0  0  0  0  0
   33.1184   31.9618   24.3209 N   0  0  0  0  0  0  0  0  0  0  0  0
   34.2000   32.4366   25.0566 C   0  0  0  0  0  0  0  0  0  0  0  0
   35.0962   33.4363   24.6592 C   0  0  0  0  0  0  0  0  0  0  0  0
   34.9486   34.0821   23.4229 C   0  0  0  0  0  0  0  0  0  0  0  0
   35.6497   34.9757   22.9714 O   0  0  0  0  0  0  0  0  0  0  0  0
   36.0520   33.6293   25.6829 C   0  0  0  0  0  0  0  0  0  0  0  0
   35.7298   32.7358   26.6925 C   0  0  0  0  0  0  0  0  0  0  0  0
   34.5859   31.9917   26.3078 N   0  0  0  0  0  0  0  0  0  0  0  0
   37.1433   34.6387   25.6141 C   0  0  0  0  0  0  0  0  0  0  0  0
   38.1002   34.4527   26.7160 N   0  0  0  0  0  0  0  0  0  0  0  0
  1  2  1  0  0  0  0
  1  7  1  0  0  0  0
  2  3  1  0  0  0  0
  2  4  2  0  0  0  0
  4  5  1  0  0  0  0
  5  6  2  0  0  0  0
  5 11  1  0  0  0  0
  6  7  1  0  0  0  0
  6  9  1  0  0  0  0
  7  8  2  0  0  0  0
  9 10  2  0  0  0  0
  9 12  1  0  0  0  0
 10 11  1  0  0  0  0
 12 13  1  0  0  0  0
M  END
>  <CHROM.1>
-170.66276094,34.88849657,33.32046501,24.54776430,-2.78228952,0.61482581
2.13108453

>  <Name>
ligand

>  <RI>
0

>  <Rbt.Current_Directory>
/home/itssahil/PROJECTS/Mol_Feturizer/Test_systems_manuscript/rnas/3q50

>  <Rbt.Executable>
rbdock ($Id: //depot/dev/client3/rdock/2013.1/src/exe/rbdock.cxx#4 $)

>  <Rbt.Library>
libRbt.so (2013.1, Build901 2013/11/27)

>  <Rbt.Parameter_File>
/export/apps/rDock/src/rDock_2013.1_src/data/scripts/dock_solv.prm

>  <Rbt.Receptor>
prm/blind_docking_80.prm

>  <SCORE>
-16.792

>  <SCORE.INTER>
-16.7909

>  <SCORE.INTER.CONST>
1

>  <SCORE.INTER.POLAR>
0

>  <SCORE.INTER.ROT>
1

>  <SCORE.INTER.SOLV>
22.6708

>  <SCORE.INTER.VDW>
-23.0175

>  <SCORE.INTER.norm>
-1.29161

>  <SCORE.INTRA>
-0.00134945

>  <SCORE.INTRA.DIHEDRAL>
-0.0013058

>  <SCORE.INTRA.DIHEDRAL.0>
1.65305

>  <SCORE.INTRA.POLAR>
0

>  <SCORE.INTRA.POLAR.0>
0

>  <SCORE.INTRA.REPUL>
0

>  <SCORE.INTRA.REPUL.0>
0

>  <SCORE.INTRA.SOLV>
-0.00010704

>  <SCORE.INTRA.SOLV.lig_0>
-46.9527

>  <SCORE.INTRA.VDW>
-0.00064303

>  <SCORE.INTRA.VDW.0>
-0.177978

>  <SCORE.INTRA.norm>
-0.000103804

>  <SCORE.RESTR>
0.000233459

>  <SCORE.RESTR.CAVITY>
0.000233459

>  <SCORE.RESTR.norm>
1.79584e-05

>  <SCORE.SYSTEM>
0

>  <SCORE.SYSTEM.CONST>
0

>  <SCORE.SYSTEM.DIHEDRAL>
0

>  <SCORE.SYSTEM.SOLV>
0

>  <SCORE.SYSTEM.norm>
0

>  <SCORE.heavy>
13

>  <SCORE.norm>
-1.29169

>  <RMSD>
0.984

$$$$
ligand
 OpenBabel02271912143D
libRbt.so/2013.1/901 2013/11/27
 13 14  0  0  0  0  0  0  0  0999 V2000
   33.6326   33.8518   22.8970 N   0  0  0  0  0  0  0  0  0  0  0  0
   32.9316   32.6773   23.2265 C   0  0  0  0  0  0  0  0  0  0  0  0
   31.8158   32.3829   22.4543 N   0  0  0  0  0  0  0  0  0  0  0  0
   33.2340   31.8352   24.2440 N   0  0  0  0  0  0  0  0  0  0  0  0
   34.3521   32.2576   24.9566 C   0  0  0  0  0  0  0  0  0  0  0  0
   35.1191   33.3990   24.6927 C   0  0  0  0  0  0  0  0  0  0  0  0
   34.7844   34.2601   23.6374 C   0  0  0  0  0  0  0  0  0  0  0  0
   35.3600   35.2897   23.3172 O   0  0  0  0  0  0  0  0  0  0  0  0
   36.1665   33.4771   25.6390 C   0  0  0  0  0  0  0  0  0  0  0  0
   36.0291   32.3736   26.4667 C   0  0  0  0  0  0  0  0  0  0  0  0
   34.9093   31.6128   26.0456 N   0  0  0  0  0  0  0  0  0  0  0  0
   37.1630   34.5817   25.6786 C   0  0  0  0  0  0  0  0  0  0  0  0
   38.0990   34.4039   26.7997 N   0  0  0  0  0  0  0  0  0  0  0  0
  1  2  1  0  0  0  0
  1  7  1  0  0  0  0
  2  3  1  0  0  0  0
  2  4  2  0  0  0  0
  4  5  1  0  0  0  0
  5  6  2  0  0  0  0
  5 11  1  0  0  0  0
  6  7  1  0  0  0  0
  6  9  1  0  0  0  0
  7  8  2  0  0  0  0
  9 10  2  0  0  0  0
  9 12  1  0  0  0  0
 10 11  1  0  0  0  0
 12 13  1  0  0  0  0
M  END
>  <CHROM.1>
178.23063898,34.89736986,33.29843096,24.59422597,-2.94662463,0.63227504,2.43170966

>  <Name>
ligand

>  <RI>
0

>  <Rbt.Current_Directory>
/home/itssahil/PROJECTS/Mol_Feturizer/Test_systems_manuscript/rnas/3q50

>  <Rbt.Executable>
rbdock ($Id: //depot/dev/client3/rdock/2013.1/src/exe/rbdock.cxx#4 $)

>  <Rbt.Library>
libRbt.so (2013.1, Build901 2013/11/27)

>  <Rbt.Parameter_File>
/export/apps/rDock/src/rDock_2013.1_src/data/scripts/dock_solv.prm

>  <Rbt.Receptor>
prm/blind_docking_60.prm

>  <SCORE>
-16.5821

>  <SCORE.INTER>
-16.6044

>  <SCORE.INTER.CONST>
1

>  <SCORE.INTER.POLAR>
0

>  <SCORE.INTER.ROT>
1

>  <SCORE.INTER.SOLV>
22.6467

>  <SCORE.INTER.VDW>
-22.8852

>  <SCORE.INTER.norm>
-1.27726

>  <SCORE.INTRA>
0.022236

>  <SCORE.INTRA.DIHEDRAL>
0.0302871

>  <SCORE.INTRA.DIHEDRAL.0>
1.65305

>  <SCORE.INTRA.POLAR>
0

>  <SCORE.INTRA.POLAR.0>
0

>  <SCORE.INTRA.REPUL>
0

>  <SCORE.INTRA.REPUL.0>
0

>  <SCORE.INTRA.SOLV>
0.0017154

>  <SCORE.INTRA.SOLV.lig_0>
-46.9527

>  <SCORE.INTRA.VDW>
0.00623479

>  <SCORE.INTRA.VDW.0>
-0.177978

>  <SCORE.INTRA.norm>
0.00171046

>  <SCORE.RESTR>
0

>  <SCORE.RESTR.CAVITY>
0

>  <SCORE.RESTR.norm>
0

>  <SCORE.SYSTEM>
0

>  <SCORE.SYSTEM.CONST>
0

>  <SCORE.SYSTEM.DIHEDRAL>
0

>  <SCORE.SYSTEM.SOLV>
0

>  <SCORE.SYSTEM.norm>
0

>  <SCORE.heavy>
13

>  <SCORE.norm>
-1.27555

>  <RMSD>
0.990

$$$$
ligand
 OpenBabel02271912143D
libRbt.so/2013.1/901 2013/11/27
 13 14  0  0  0  0  0  0  0  0999 V2000
   33.6412   33.8555   22.8849 N   0  0  0  0  0  0  0  0  0  0  0  0
   32.9438   32.6761   23.2044 C   0  0  0  0  0  0  0  0  0  0  0  0
   31.8327   32.3815   22.4254 N   0  0  0  0  0  0  0  0  0  0  0  0
   33.2451   31.8295   24.2183 N   0  0  0  0  0  0  0  0  0  0  0  0
   34.3582   32.2525   24.9385 C   0  0  0  0  0  0  0  0  0  0  0  0
   35.1214   33.3987   24.6847 C   0  0  0  0  0  0  0  0  0  0  0  0
   34.7879   34.2644   23.6328 C   0  0  0  0  0  0  0  0  0  0  0  0
   35.3606   35.2983   23.3212 O   0  0  0  0  0  0  0  0  0  0  0  0
   36.1642   33.4757   25.6362 C   0  0  0  0  0  0  0  0  0  0  0  0
   36.0277   32.3669   26.4569 C   0  0  0  0  0  0  0  0  0  0  0  0
   34.9131   31.6038   26.0264 N   0  0  0  0  0  0  0  0  0  0  0  0
   37.1558   34.5843   25.6868 C   0  0  0  0  0  0  0  0  0  0  0  0
   38.0981   34.3949   26.8006 N   0  0  0  0  0  0  0  0  0  0  0  0
  1  2  1  0  0  0  0
  1  7  1  0  0  0  0
  2  3  1  0  0  0  0
  2  4  2  0  0  0  0
  4  5  1  0  0  0  0
  5  6  2  0  0  0  0
  5 11  1  0  0  0  0
  6  7  1  0  0  0  0
  6  9  1  0  0  0  0
  7  8  2  0  0  0  0
  9 10  2  0  0  0  0
  9 12  1  0  0  0  0
 10 11  1  0  0  0  0
 12 13  1  0  0  0  0
M  END
>  <CHROM.1>
178.95962986,34.90145793,33.29698115,24.58380268,-2.94700398,0.63725166,2.43776590

>  <Name>
ligand

>  <RI>
0

>  <Rbt.Current_Directory>
/home/itssahil/PROJECTS/Mol_Feturizer/Test_systems_manuscript/rnas/3q50

>  <Rbt.Executable>
rbdock ($Id: //depot/dev/client3/rdock/2013.1/src/exe/rbdock.cxx#4 $)

>  <Rbt.Library>
libRbt.so (2013.1, Build901 2013/11/27)

>  <Rbt.Parameter_File>
/export/apps/rDock/src/rDock_2013.1_src/data/scripts/dock_solv.prm

>  <Rbt.Receptor>
prm/blind_docking_100.prm

>  <SCORE>
-16.6134

>  <SCORE.INTER>
-16.6346

>  <SCORE.INTER.CONST>
1

>  <SCORE.INTER.POLAR>
0

>  <SCORE.INTER.ROT>
1

>  <SCORE.INTER.SOLV>
22.6042

>  <SCORE.INTER.VDW>
-22.8911

>  <SCORE.INTER.norm>
-1.27958

>  <SCORE.INTRA>
0.0211536

>  <SCORE.INTRA.DIHEDRAL>
0.028128

>  <SCORE.INTRA.DIHEDRAL.0>
1.65305

>  <SCORE.INTRA.POLAR>
0

>  <SCORE.INTRA.POLAR.0>
0

>  <SCORE.INTRA.REPUL>
0

>  <SCORE.INTRA.REPUL.0>
0

>  <SCORE.INTRA.SOLV>
0.00163173

>  <SCORE.INTRA.SOLV.lig_0>
-46.9527

>  <SCORE.INTRA.VDW>
0.00627375

>  <SCORE.INTRA.VDW.0>
-0.177978

>  <SCORE.INTRA.norm>
0.0016272

>  <SCORE.RESTR>
0

>  <SCORE.RESTR.CAVITY>
0

>  <SCORE.RESTR.norm>
0

>  <SCORE.SYSTEM>
0

>  <SCORE.SYSTEM.CONST>
0

>  <SCORE.SYSTEM.DIHEDRAL>
0

>  <SCORE.SYSTEM.SOLV>
0

>  <SCORE.SYSTEM.norm>
0

>  <SCORE.heavy>
13

>  <SCORE.norm>
-1.27796

>  <RMSD>
0.995

$$$$
ligand
 OpenBabel02271912143D
libRbt.so/2013.1/901 2013/11/27
 13 14  0  0  0  0  0  0  0  0999 V2000
   33.8303   33.6210   22.6452 N   0  0  0  0  0  0  0  0  0  0  0  0
   32.9750   32.6148   23.1304 C   0  0  0  0  0  0  0  0  0  0  0  0
   31.9081   32.2606   22.3154 N   0  0  0  0  0  0  0  0  0  0  0  0
   33.0872   31.9916   24.3282 N   0  0  0  0  0  0  0  0  0  0  0  0
   34.1762   32.4571   25.0589 C   0  0  0  0  0  0  0  0  0  0  0  0
   35.0871   33.4395   24.6518 C   0  0  0  0  0  0  0  0  0  0  0  0
   34.9485   34.0758   23.4096 C   0  0  0  0  0  0  0  0  0  0  0  0
   35.6627   34.9545   22.9493 O   0  0  0  0  0  0  0  0  0  0  0  0
   36.0463   33.6276   25.6732 C   0  0  0  0  0  0  0  0  0  0  0  0
   35.7112   32.7485   26.6913 C   0  0  0  0  0  0  0  0  0  0  0  0
   34.5561   32.0181   26.3141 N   0  0  0  0  0  0  0  0  0  0  0  0
   37.1526   34.6199   25.5945 C   0  0  0  0  0  0  0  0  0  0  0  0
   38.0994   34.4393   26.7060 N   0  0  0  0  0  0  0  0  0  0  0  0
  1  2  1  0  0  0  0
  1  7  1  0  0  0  0
  2  3  1  0  0  0  0
  2  4  2  0  0  0  0
  4  5  1  0  0  0  0
  5  6  2  0  0  0  0
  5 11  1  0  0  0  0
  6  7  1  0  0  0  0
  6  9  1  0  0  0  0
  7  8  2  0  0  0  0
  9 10  2  0  0  0  0
  9 12  1  0  0  0  0
 10 11  1  0  0  0  0
 12 13  1  0  0  0  0
M  END
>  <CHROM.1>
-171.27898052,34.87699747,33.32643742,24.54219125,-2.77283443,0.60284191
2.11622756

>  <Name>
ligand

>  <RI>
0

>  <Rbt.Current_Directory>
/home/itssahil/PROJECTS/Mol_Feturizer/Test_systems_manuscript/rnas/3q50

>  <Rbt.Executable>
rbdock ($Id: //depot/dev/client3/rdock/2013.1/src/exe/rbdock.cxx#4 $)

>  <Rbt.Library>
libRbt.so (2013.1, Build901 2013/11/27)

>  <Rbt.Parameter_File>
/export/apps/rDock/src/rDock_2013.1_src/data/scripts/dock_solv.prm

>  <Rbt.Receptor>
prm/blind_docking_60.prm

>  <SCORE>
-16.7787

>  <SCORE.INTER>
-16.779

>  <SCORE.INTER.CONST>
1

>  <SCORE.INTER.POLAR>
0

>  <SCORE.INTER.ROT>
1

>  <SCORE.INTER.SOLV>
22.6892

>  <SCORE.INTER.VDW>
-23.0158

>  <SCORE.INTER.norm>
-1.29069

>  <SCORE.INTRA>
0.000295769

>  <SCORE.INTRA.DIHEDRAL>
0.000291476

>  <SCORE.INTRA.DIHEDRAL.0>
1.65305

>  <SCORE.INTRA.POLAR>
0

>  <SCORE.INTRA.POLAR.0>
0

>  <SCORE.INTRA.REPUL>
0

>  <SCORE.INTRA.REPUL.0>
0

>  <SCORE.INTRA.SOLV>
2.33925e-05

>  <SCORE.INTRA.SOLV.lig_0>
-46.9527

>  <SCORE.INTRA.VDW>
0.000138334

>  <SCORE.INTRA.VDW.0>
-0.177978

>  <SCORE.INTRA.norm>
2.27514e-05

>  <SCORE.RESTR>
0

>  <SCORE.RESTR.CAVITY>
0

>  <SCORE.RESTR.norm>
0

>  <SCORE.SYSTEM>
0

>  <SCORE.SYSTEM.CONST>
0

>  <SCORE.SYSTEM.DIHEDRAL>
0

>  <SCORE.SYSTEM.SOLV>
0

>  <SCORE.SYSTEM.norm>
0

>  <SCORE.heavy>
13

>  <SCORE.norm>
-1.29067

>  <RMSD>
0.997

$$$$
ligand
 OpenBabel02271912143D
libRbt.so/2013.1/901 2013/11/27
 13 14  0  0  0  0  0  0  0  0999 V2000
   33.9962   33.6736   22.7072 N   0  0  0  0  0  0  0  0  0  0  0  0
   33.1531   32.6931   23.2613 C   0  0  0  0  0  0  0  0  0  0  0  0
   32.0614   32.3078   22.4947 N   0  0  0  0  0  0  0  0  0  0  0  0
   33.2994   32.1227   24.4815 N   0  0  0  0  0  0  0  0  0  0  0  0
   34.4109   32.6154   25.1585 C   0  0  0  0  0  0  0  0  0  0  0  0
   35.3119   33.5754   24.6816 C   0  0  0  0  0  0  0  0  0  0  0  0
   35.1380   34.1571   23.4173 C   0  0  0  0  0  0  0  0  0  0  0  0
   35.8404   35.0119   22.8979 O   0  0  0  0  0  0  0  0  0  0  0  0
   36.3016   33.8044   25.6649 C   0  0  0  0  0  0  0  0  0  0  0  0
   35.9947   32.9721   26.7302 C   0  0  0  0  0  0  0  0  0  0  0  0
   34.8269   32.2305   26.4199 N   0  0  0  0  0  0  0  0  0  0  0  0
   37.4077   34.7878   25.5098 C   0  0  0  0  0  0  0  0  0  0  0  0
   36.8871   36.1036   25.1070 N   0  0  0  0  0  0  0  0  0  0  0  0
  1  2  1  0  0  0  0
  1  7  1  0  0  0  0
  2  3  1  0  0  0  0
  2  4  2  0  0  0  0
  4  5  1  0  0  0  0
  5  6  2  0  0  0  0
  5 11  1  0  0  0  0
  6  7  1  0  0  0  0
  6  9  1  0  0  0  0
  7  8  2  0  0  0  0
  9 10  2  0  0  0  0
  9 12  1  0  0  0  0
 10 11  1  0  0  0  0
 12 13  1  0  0  0  0
M  END
>  <CHROM.1>
50.81749130,34.97625362,33.57656501,24.46195943,-3.00342140,0.67516700,2.14690725

>  <Name>
ligand

>  <RI>
0

>  <Rbt.Current_Directory>
/home/itssahil/PROJECTS/Mol_Feturizer/Test_systems_manuscript/rnas/3q50

>  <Rbt.Executable>
rbdock ($Id: //depot/dev/client3/rdock/2013.1/src/exe/rbdock.cxx#4 $)

>  <Rbt.Library>
libRbt.so (2013.1, Build901 2013/11/27)

>  <Rbt.Parameter_File>
/export/apps/rDock/src/rDock_2013.1_src/data/scripts/dock_solv.prm

>  <Rbt.Receptor>
prm/blind_docking_100.prm

>  <SCORE>
-15.4998

>  <SCORE.INTER>
-16.4799

>  <SCORE.INTER.CONST>
1

>  <SCORE.INTER.POLAR>
0

>  <SCORE.INTER.ROT>
1

>  <SCORE.INTER.SOLV>
23.0828

>  <SCORE.INTER.VDW>
-22.9475

>  <SCORE.INTER.norm>
-1.26769

>  <SCORE.INTRA>
0.980099

>  <SCORE.INTRA.DIHEDRAL>
0.0514289

>  <SCORE.INTRA.DIHEDRAL.0>
1.65305

>  <SCORE.INTRA.POLAR>
0

>  <SCORE.INTRA.POLAR.0>
0

>  <SCORE.INTRA.REPUL>
0

>  <SCORE.INTRA.REPUL.0>
0

>  <SCORE.INTRA.SOLV>
2.03657

>  <SCORE.INTRA.SOLV.lig_0>
-46.9527

>  <SCORE.INTRA.VDW>
-0.0639006

>  <SCORE.INTRA.VDW.0>
-0.177978

>  <SCORE.INTRA.norm>
0.0753922

>  <SCORE.RESTR>
0

>  <SCORE.RESTR.CAVITY>
0

>  <SCORE.RESTR.norm>
0

>  <SCORE.SYSTEM>
0

>  <SCORE.SYSTEM.CONST>
0

>  <SCORE.SYSTEM.DIHEDRAL>
0

>  <SCORE.SYSTEM.SOLV>
0

>  <SCORE.SYSTEM.norm>
0

>  <SCORE.heavy>
13

>  <SCORE.norm>
-1.19229

>  <RMSD>
1.001

$$$$
ligand
 OpenBabel02271912143D
libRbt.so/2013.1/901 2013/11/27
 13 14  0  0  0  0  0  0  0  0999 V2000
   33.6388   33.8111   22.8482 N   0  0  0  0  0  0  0  0  0  0  0  0
   32.9128   32.6581   23.1986 C   0  0  0  0  0  0  0  0  0  0  0  0
   31.8029   32.3622   22.4184 N   0  0  0  0  0  0  0  0  0  0  0  0
   33.1861   31.8386   24.2424 N   0  0  0  0  0  0  0  0  0  0  0  0
   34.3013   32.2608   24.9597 C   0  0  0  0  0  0  0  0  0  0  0  0
   35.0917   33.3814   24.6767 C   0  0  0  0  0  0  0  0  0  0  0  0
   34.7871   34.2194   23.5941 C   0  0  0  0  0  0  0  0  0  0  0  0
   35.3851   35.2300   23.2550 O   0  0  0  0  0  0  0  0  0  0  0  0
   36.1270   33.4668   25.6356 C   0  0  0  0  0  0  0  0  0  0  0  0
   35.9587   32.3885   26.4903 C   0  0  0  0  0  0  0  0  0  0  0  0
   34.8317   31.6359   26.0735 N   0  0  0  0  0  0  0  0  0  0  0  0
   37.1421   34.5549   25.6603 C   0  0  0  0  0  0  0  0  0  0  0  0
   38.0958   34.3577   26.7630 N   0  0  0  0  0  0  0  0  0  0  0  0
  1  2  1  0  0  0  0
  1  7  1  0  0  0  0
  2  3  1  0  0  0  0
  2  4  2  0  0  0  0
  4  5  1  0  0  0  0
  5  6  2  0  0  0  0
  5 11  1  0  0  0  0
  6  7  1  0  0  0  0
  6  9  1  0  0  0  0
  7  8  2  0  0  0  0
  9 10  2  0  0  0  0
  9 12  1  0  0  0  0
 10 11  1  0  0  0  0
 12 13  1  0  0  0  0
M  END
>  <CHROM.1>
-179.20208152,34.87272870,33.27923093,24.57476225,-2.91918053,0.62687315
2.38907648

>  <Name>
ligand

>  <RI>
0

>  <Rbt.Current_Directory>
/home/itssahil/PROJECTS/Mol_Feturizer/Test_systems_manuscript/rnas/3q50

>  <Rbt.Executable>
rbdock ($Id: //depot/dev/client3/rdock/2013.1/src/exe/rbdock.cxx#4 $)

>  <Rbt.Library>
libRbt.so (2013.1, Build901 2013/11/27)

>  <Rbt.Parameter_File>
/export/apps/rDock/src/rDock_2013.1_src/data/scripts/dock_solv.prm

>  <Rbt.Receptor>
prm/blind_docking_100.prm

>  <SCORE>
-16.5974

>  <SCORE.INTER>
-16.6155

>  <SCORE.INTER.CONST>
1

>  <SCORE.INTER.POLAR>
0

>  <SCORE.INTER.ROT>
1

>  <SCORE.INTER.SOLV>
22.5385

>  <SCORE.INTER.VDW>
-22.8565

>  <SCORE.INTER.norm>
-1.27811

>  <SCORE.INTRA>
0.0180987

>  <SCORE.INTRA.DIHEDRAL>
0.0226829

>  <SCORE.INTRA.DIHEDRAL.0>
1.65305

>  <SCORE.INTRA.POLAR>
0

>  <SCORE.INTRA.POLAR.0>
0

>  <SCORE.INTRA.REPUL>
0

>  <SCORE.INTRA.REPUL.0>
0

>  <SCORE.INTRA.SOLV>
0.00139769

>  <SCORE.INTRA.SOLV.lig_0>
-46.9527

>  <SCORE.INTRA.VDW>
0.00605838

>  <SCORE.INTRA.VDW.0>
-0.177978

>  <SCORE.INTRA.norm>
0.0013922

>  <SCORE.RESTR>
0

>  <SCORE.RESTR.CAVITY>
0

>  <SCORE.RESTR.norm>
0

>  <SCORE.SYSTEM>
0

>  <SCORE.SYSTEM.CONST>
0

>  <SCORE.SYSTEM.DIHEDRAL>
0

>  <SCORE.SYSTEM.SOLV>
0

>  <SCORE.SYSTEM.norm>
0

>  <SCORE.heavy>
13

>  <SCORE.norm>
-1.27672

>  <RMSD>
1.018

$$$$
ligand
 OpenBabel02271912143D
libRbt.so/2013.1/901 2013/11/27
 13 14  0  0  0  0  0  0  0  0999 V2000
   33.6222   33.8140   22.8629 N   0  0  0  0  0  0  0  0  0  0  0  0
   32.9089   32.6506   23.2052 C   0  0  0  0  0  0  0  0  0  0  0  0
   31.7990   32.3512   22.4264 N   0  0  0  0  0  0  0  0  0  0  0  0
   33.1942   31.8242   24.2403 N   0  0  0  0  0  0  0  0  0  0  0  0
   34.3080   32.2506   24.9573 C   0  0  0  0  0  0  0  0  0  0  0  0
   35.0863   33.3815   24.6819 C   0  0  0  0  0  0  0  0  0  0  0  0
   34.7693   34.2266   23.6083 C   0  0  0  0  0  0  0  0  0  0  0  0
   35.3561   35.2461   23.2764 O   0  0  0  0  0  0  0  0  0  0  0  0
   36.1243   33.4682   25.6377 C   0  0  0  0  0  0  0  0  0  0  0  0
   35.9698   32.3803   26.4829 C   0  0  0  0  0  0  0  0  0  0  0  0
   34.8487   31.6207   26.0632 N   0  0  0  0  0  0  0  0  0  0  0  0
   37.1288   34.5659   25.6687 C   0  0  0  0  0  0  0  0  0  0  0  0
   38.0998   34.3579   26.7542 N   0  0  0  0  0  0  0  0  0  0  0  0
  1  2  1  0  0  0  0
  1  7  1  0  0  0  0
  2  3  1  0  0  0  0
  2  4  2  0  0  0  0
  4  5  1  0  0  0  0
  5  6  2  0  0  0  0
  5 11  1  0  0  0  0
  6  7  1  0  0  0  0
  6  9  1  0  0  0  0
  7  8  2  0  0  0  0
  9 10  2  0  0  0  0
  9 12  1  0  0  0  0
 10 11  1  0  0  0  0
 12 13  1  0  0  0  0
M  END
>  <CHROM.1>
-178.40498861,34.86880757,33.27738918,24.57883518,-2.93140011,0.62936346
2.40564687

>  <Name>
ligand

>  <RI>
0

>  <Rbt.Current_Directory>
/home/itssahil/PROJECTS/Mol_Feturizer/Test_systems_manuscript/rnas/3q50

>  <Rbt.Executable>
rbdock ($Id: //depot/dev/client3/rdock/2013.1/src/exe/rbdock.cxx#4 $)

>  <Rbt.Library>
libRbt.so (2013.1, Build901 2013/11/27)

>  <Rbt.Parameter_File>
/export/apps/rDock/src/rDock_2013.1_src/data/scripts/dock_solv.prm

>  <Rbt.Receptor>
prm/blind_docking_80.prm

>  <SCORE>
-16.6299

>  <SCORE.INTER>
-16.6465

>  <SCORE.INTER.CONST>
1

>  <SCORE.INTER.POLAR>
0

>  <SCORE.INTER.ROT>
1

>  <SCORE.INTER.SOLV>
22.5393

>  <SCORE.INTER.VDW>
-22.8775

>  <SCORE.INTER.norm>
-1.2805

>  <SCORE.INTRA>
0.0166345

>  <SCORE.INTRA.DIHEDRAL>
0.0203312

>  <SCORE.INTRA.DIHEDRAL.0>
1.65305

>  <SCORE.INTRA.POLAR>
0

>  <SCORE.INTRA.POLAR.0>
0

>  <SCORE.INTRA.REPUL>
0

>  <SCORE.INTRA.REPUL.0>
0

>  <SCORE.INTRA.SOLV>
0.00128602

>  <SCORE.INTRA.SOLV.lig_0>
-46.9527

>  <SCORE.INTRA.VDW>
0.00582593

>  <SCORE.INTRA.VDW.0>
-0.177978

>  <SCORE.INTRA.norm>
0.00127958

>  <SCORE.RESTR>
0

>  <SCORE.RESTR.CAVITY>
0

>  <SCORE.RESTR.norm>
0

>  <SCORE.SYSTEM>
0

>  <SCORE.SYSTEM.CONST>
0

>  <SCORE.SYSTEM.DIHEDRAL>
0

>  <SCORE.SYSTEM.SOLV>
0

>  <SCORE.SYSTEM.norm>
0

>  <SCORE.heavy>
13

>  <SCORE.norm>
-1.27922

>  <RMSD>
1.020

$$$$
ligand
 OpenBabel02271912143D
libRbt.so/2013.1/901 2013/11/27
 13 14  0  0  0  0  0  0  0  0999 V2000
   33.6052   33.8915   22.9409 N   0  0  0  0  0  0  0  0  0  0  0  0
   32.9424   32.6795   23.2075 C   0  0  0  0  0  0  0  0  0  0  0  0
   31.8332   32.3928   22.4229 N   0  0  0  0  0  0  0  0  0  0  0  0
   33.2747   31.7933   24.1770 N   0  0  0  0  0  0  0  0  0  0  0  0
   34.3820   32.2111   24.9091 C   0  0  0  0  0  0  0  0  0  0  0  0
   35.1121   33.3885   24.7060 C   0  0  0  0  0  0  0  0  0  0  0  0
   34.7467   34.2948   23.6998 C   0  0  0  0  0  0  0  0  0  0  0  0
   35.2888   35.3577   23.4349 O   0  0  0  0  0  0  0  0  0  0  0  0
   36.1603   33.4477   25.6528 C   0  0  0  0  0  0  0  0  0  0  0  0
   36.0604   32.2971   26.4195 C   0  0  0  0  0  0  0  0  0  0  0  0
   34.9631   31.5257   25.9602 N   0  0  0  0  0  0  0  0  0  0  0  0
   37.1221   34.5791   25.7503 C   0  0  0  0  0  0  0  0  0  0  0  0
   38.0986   34.3464   26.8258 N   0  0  0  0  0  0  0  0  0  0  0  0
  1  2  1  0  0  0  0
  1  7  1  0  0  0  0
  2  3  1  0  0  0  0
  2  4  2  0  0  0  0
  4  5  1  0  0  0  0
  5  6  2  0  0  0  0
  5 11  1  0  0  0  0
  6  7  1  0  0  0  0
  6  9  1  0  0  0  0
  7  8  2  0  0  0  0
  9 10  2  0  0  0  0
  9 12  1  0  0  0  0
 10 11  1  0  0  0  0
 12 13  1  0  0  0  0
M  END
>  <CHROM.1>
-179.66511092,34.89573348,33.28462406,24.60006426,-2.97951526,0.64564274
2.50586681

>  <Name>
ligand

>  <RI>
0

>  <Rbt.Current_Directory>
/home/itssahil/PROJECTS/Mol_Feturizer/Test_systems_manuscript/rnas/3q50

>  <Rbt.Executable>
rbdock ($Id: //depot/dev/client3/rdock/2013.1/src/exe/rbdock.cxx#4 $)

>  <Rbt.Library>
libRbt.so (2013.1, Build901 2013/11/27)

>  <Rbt.Parameter_File>
/export/apps/rDock/src/rDock_2013.1_src/data/scripts/dock_solv.prm

>  <Rbt.Receptor>
prm/blind_docking_100.prm

>  <SCORE>
-16.4716

>  <SCORE.INTER>
-16.4905

>  <SCORE.INTER.CONST>
1

>  <SCORE.INTER.POLAR>
0

>  <SCORE.INTER.ROT>
1

>  <SCORE.INTER.SOLV>
22.579

>  <SCORE.INTER.VDW>
-22.7867

>  <SCORE.INTER.norm>
-1.2685

>  <SCORE.INTRA>
0.0189111

>  <SCORE.INTRA.DIHEDRAL>
0.0240526

>  <SCORE.INTRA.DIHEDRAL.0>
1.65305

>  <SCORE.INTRA.POLAR>
0

>  <SCORE.INTRA.POLAR.0>
0

>  <SCORE.INTRA.REPUL>
0

>  <SCORE.INTRA.REPUL.0>
0

>  <SCORE.INTRA.SOLV>
0.00145974

>  <SCORE.INTRA.SOLV.lig_0>
-46.9527

>  <SCORE.INTRA.VDW>
0.00615487

>  <SCORE.INTRA.VDW.0>
-0.177978

>  <SCORE.INTRA.norm>
0.0014547

>  <SCORE.RESTR>
0

>  <SCORE.RESTR.CAVITY>
0

>  <SCORE.RESTR.norm>
0

>  <SCORE.SYSTEM>
0

>  <SCORE.SYSTEM.CONST>
0

>  <SCORE.SYSTEM.DIHEDRAL>
0

>  <SCORE.SYSTEM.SOLV>
0

>  <SCORE.SYSTEM.norm>
0

>  <SCORE.heavy>
13

>  <SCORE.norm>
-1.26705

>  <RMSD>
1.021

$$$$
ligand
 OpenBabel02271912143D
libRbt.so/2013.1/901 2013/11/27
 13 14  0  0  0  0  0  0  0  0999 V2000
   33.6066   33.8214   22.8597 N   0  0  0  0  0  0  0  0  0  0  0  0
   32.8962   32.6575   23.2062 C   0  0  0  0  0  0  0  0  0  0  0  0
   31.7800   32.3590   22.4361 N   0  0  0  0  0  0  0  0  0  0  0  0
   33.1900   31.8297   24.2377 N   0  0  0  0  0  0  0  0  0  0  0  0
   34.3095   32.2553   24.9463 C   0  0  0  0  0  0  0  0  0  0  0  0
   35.0855   33.3867   24.6661 C   0  0  0  0  0  0  0  0  0  0  0  0
   34.7597   34.2331   23.5962 C   0  0  0  0  0  0  0  0  0  0  0  0
   35.3436   35.2532   23.2610 O   0  0  0  0  0  0  0  0  0  0  0  0
   36.1313   33.4722   25.6135 C   0  0  0  0  0  0  0  0  0  0  0  0
   35.9837   32.3831   26.4584 C   0  0  0  0  0  0  0  0  0  0  0  0
   34.8594   31.6239   26.0469 N   0  0  0  0  0  0  0  0  0  0  0  0
   37.1358   34.5699   25.6379 C   0  0  0  0  0  0  0  0  0  0  0  0
   38.0994   34.3751   26.7324 N   0  0  0  0  0  0  0  0  0  0  0  0
  1  2  1  0  0  0  0
  1  7  1  0  0  0  0
  2  3  1  0  0  0  0
  2  4  2  0  0  0  0
  4  5  1  0  0  0  0
  5  6  2  0  0  0  0
  5 11  1  0  0  0  0
  6  7  1  0  0  0  0
  6  9  1  0  0  0  0
  7  8  2  0  0  0  0
  9 10  2  0  0  0  0
  9 12  1  0  0  0  0
 10 11  1  0  0  0  0
 12 13  1  0  0  0  0
M  END
>  <CHROM.1>
-179.56793436,34.86585338,33.28381790,24.56606390,-2.93804870,0.62541329
2.41083312

>  <Name>
ligand

>  <RI>
0

>  <Rbt.Current_Directory>
/home/itssahil/PROJECTS/Mol_Feturizer/Test_systems_manuscript/rnas/3q50

>  <Rbt.Executable>
rbdock ($Id: //depot/dev/client3/rdock/2013.1/src/exe/rbdock.cxx#4 $)

>  <Rbt.Library>
libRbt.so (2013.1, Build901 2013/11/27)

>  <Rbt.Parameter_File>
/export/apps/rDock/src/rDock_2013.1_src/data/scripts/dock_solv.prm

>  <Rbt.Receptor>
prm/blind_docking_80.prm

>  <SCORE>
-16.5987

>  <SCORE.INTER>
-16.6174

>  <SCORE.INTER.CONST>
1

>  <SCORE.INTER.POLAR>
0

>  <SCORE.INTER.ROT>
1

>  <SCORE.INTER.SOLV>
22.5664

>  <SCORE.INTER.VDW>
-22.8671

>  <SCORE.INTER.norm>
-1.27826

>  <SCORE.INTRA>
0.0187429

>  <SCORE.INTRA.DIHEDRAL>
0.023765

>  <SCORE.INTRA.DIHEDRAL.0>
1.65305

>  <SCORE.INTRA.POLAR>
0

>  <SCORE.INTRA.POLAR.0>
0

>  <SCORE.INTRA.REPUL>
0

>  <SCORE.INTRA.REPUL.0>
0

>  <SCORE.INTRA.SOLV>
0.00144689

>  <SCORE.INTRA.SOLV.lig_0>
-46.9527

>  <SCORE.INTRA.VDW>
0.00613697

>  <SCORE.INTRA.VDW.0>
-0.177978

>  <SCORE.INTRA.norm>
0.00144176

>  <SCORE.RESTR>
0

>  <SCORE.RESTR.CAVITY>
0

>  <SCORE.RESTR.norm>
0

>  <SCORE.SYSTEM>
0

>  <SCORE.SYSTEM.CONST>
0

>  <SCORE.SYSTEM.DIHEDRAL>
0

>  <SCORE.SYSTEM.SOLV>
0

>  <SCORE.SYSTEM.norm>
0

>  <SCORE.heavy>
13

>  <SCORE.norm>
-1.27682

>  <RMSD>
1.021

$$$$
ligand
 OpenBabel02271912143D
libRbt.so/2013.1/901 2013/11/27
 13 14  0  0  0  0  0  0  0  0999 V2000
   33.5981   33.8427   22.8957 N   0  0  0  0  0  0  0  0  0  0  0  0
   32.8933   32.6702   23.2243 C   0  0  0  0  0  0  0  0  0  0  0  0
   31.7750   32.3814   22.4536 N   0  0  0  0  0  0  0  0  0  0  0  0
   33.1943   31.8253   24.2398 N   0  0  0  0  0  0  0  0  0  0  0  0
   34.3153   32.2423   24.9512 C   0  0  0  0  0  0  0  0  0  0  0  0
   35.0860   33.3813   24.6880 C   0  0  0  0  0  0  0  0  0  0  0  0
   34.7528   34.2454   23.6347 C   0  0  0  0  0  0  0  0  0  0  0  0
   35.3316   35.2734   23.3153 O   0  0  0  0  0  0  0  0  0  0  0  0
   36.1354   33.4538   25.6326 C   0  0  0  0  0  0  0  0  0  0  0  0
   35.9953   32.3493   26.4586 C   0  0  0  0  0  0  0  0  0  0  0  0
   34.8719   31.5935   26.0382 N   0  0  0  0  0  0  0  0  0  0  0  0
   37.1361   34.5546   25.6723 C   0  0  0  0  0  0  0  0  0  0  0  0
   38.1003   34.3478   26.7641 N   0  0  0  0  0  0  0  0  0  0  0  0
  1  2  1  0  0  0  0
  1  7  1  0  0  0  0
  2  3  1  0  0  0  0
  2  4  2  0  0  0  0
  4  5  1  0  0  0  0
  5  6  2  0  0  0  0
  5 11  1  0  0  0  0
  6  7  1  0  0  0  0
  6  9  1  0  0  0  0
  7  8  2  0  0  0  0
  9 10  2  0  0  0  0
  9 12  1  0  0  0  0
 10 11  1  0  0  0  0
 12 13  1  0  0  0  0
M  END
>  <CHROM.1>
-179.89034658,34.86595670,33.27975600,24.58748262,-2.94470230,0.62524872
2.43247667

>  <Name>
ligand

>  <RI>
0

>  <Rbt.Current_Directory>
/home/itssahil/PROJECTS/Mol_Feturizer/Test_systems_manuscript/rnas/3q50

>  <Rbt.Executable>
rbdock ($Id: //depot/dev/client3/rdock/2013.1/src/exe/rbdock.cxx#4 $)

>  <Rbt.Library>
libRbt.so (2013.1, Build901 2013/11/27)

>  <Rbt.Parameter_File>
/export/apps/rDock/src/rDock_2013.1_src/data/scripts/dock_solv.prm

>  <Rbt.Receptor>
prm/blind_docking_60.prm

>  <SCORE>
-16.6091

>  <SCORE.INTER>
-16.6287

>  <SCORE.INTER.CONST>
1

>  <SCORE.INTER.POLAR>
0

>  <SCORE.INTER.ROT>
1

>  <SCORE.INTER.SOLV>
22.5684

>  <SCORE.INTER.VDW>
-22.8753

>  <SCORE.INTER.norm>
-1.27913

>  <SCORE.INTRA>
0.0192959

>  <SCORE.INTRA.DIHEDRAL>
0.0247196

>  <SCORE.INTRA.DIHEDRAL.0>
1.65305

>  <SCORE.INTRA.POLAR>
0

>  <SCORE.INTRA.POLAR.0>
0

>  <SCORE.INTRA.REPUL>
0

>  <SCORE.INTRA.REPUL.0>
0

>  <SCORE.INTRA.SOLV>
0.00148917

>  <SCORE.INTRA.SOLV.lig_0>
-46.9527

>  <SCORE.INTRA.VDW>
0.00619154

>  <SCORE.INTRA.VDW.0>
-0.177978

>  <SCORE.INTRA.norm>
0.0014843

>  <SCORE.RESTR>
0.000347992

>  <SCORE.RESTR.CAVITY>
0.000347992

>  <SCORE.RESTR.norm>
2.67686e-05

>  <SCORE.SYSTEM>
0

>  <SCORE.SYSTEM.CONST>
0

>  <SCORE.SYSTEM.DIHEDRAL>
0

>  <SCORE.SYSTEM.SOLV>
0

>  <SCORE.SYSTEM.norm>
0

>  <SCORE.heavy>
13

>  <SCORE.norm>
-1.27762

>  <RMSD>
1.025

$$$$
ligand
 OpenBabel02271912143D
libRbt.so/2013.1/901 2013/11/27
 13 14  0  0  0  0  0  0  0  0999 V2000
   33.6247   33.8045   22.8558 N   0  0  0  0  0  0  0  0  0  0  0  0
   32.9453   32.6076   23.1474 C   0  0  0  0  0  0  0  0  0  0  0  0
   31.8542   32.3017   22.3448 N   0  0  0  0  0  0  0  0  0  0  0  0
   33.2453   31.7537   24.1556 N   0  0  0  0  0  0  0  0  0  0  0  0
   34.3368   32.1888   24.9010 C   0  0  0  0  0  0  0  0  0  0  0  0
   35.0816   33.3530   24.6759 C   0  0  0  0  0  0  0  0  0  0  0  0
   34.7497   34.2259   23.6294 C   0  0  0  0  0  0  0  0  0  0  0  0
   35.3072   35.2748   23.3415 O   0  0  0  0  0  0  0  0  0  0  0  0
   36.1056   33.4377   25.6468 C   0  0  0  0  0  0  0  0  0  0  0  0
   35.9766   32.3157   26.4505 C   0  0  0  0  0  0  0  0  0  0  0  0
   34.8852   31.5366   25.9902 N   0  0  0  0  0  0  0  0  0  0  0  0
   37.0740   34.5648   25.7295 C   0  0  0  0  0  0  0  0  0  0  0  0
   38.0994   34.3015   26.7511 N   0  0  0  0  0  0  0  0  0  0  0  0
  1  2  1  0  0  0  0
  1  7  1  0  0  0  0
  2  3  1  0  0  0  0
  2  4  2  0  0  0  0
  4  5  1  0  0  0  0
  5  6  2  0  0  0  0
  5 11  1  0  0  0  0
  6  7  1  0  0  0  0
  6  9  1  0  0  0  0
  7  8  2  0  0  0  0
  9 10  2  0  0  0  0
  9 12  1  0  0  0  0
 10 11  1  0  0  0  0
 12 13  1  0  0  0  0
M  END
>  <CHROM.1>
-174.15327141,34.87361878,33.24199776,24.56100184,-2.95295326,0.65161869
2.45456102

>  <Name>
ligand

>  <RI>
0

>  <Rbt.Current_Directory>
/home/itssahil/PROJECTS/Mol_Feturizer/Test_systems_manuscript/rnas/3q50

>  <Rbt.Executable>
rbdock ($Id: //depot/dev/client3/rdock/2013.1/src/exe/rbdock.cxx#4 $)

>  <Rbt.Library>
libRbt.so (2013.1, Build901 2013/11/27)

>  <Rbt.Parameter_File>
/export/apps/rDock/src/rDock_2013.1_src/data/scripts/dock_solv.prm

>  <Rbt.Receptor>
prm/blind_docking_60.prm

>  <SCORE>
-16.5496

>  <SCORE.INTER>
-16.5571

>  <SCORE.INTER.CONST>
1

>  <SCORE.INTER.POLAR>
0

>  <SCORE.INTER.ROT>
1

>  <SCORE.INTER.SOLV>
22.3712

>  <SCORE.INTER.VDW>
-22.7618

>  <SCORE.INTER.norm>
-1.27362

>  <SCORE.INTRA>
0.0075278

>  <SCORE.INTRA.DIHEDRAL>
0.00808084

>  <SCORE.INTRA.DIHEDRAL.0>
1.65305

>  <SCORE.INTRA.POLAR>
0

>  <SCORE.INTRA.POLAR.0>
0

>  <SCORE.INTRA.REPUL>
0

>  <SCORE.INTRA.REPUL.0>
0

>  <SCORE.INTRA.SOLV>
0.000588424

>  <SCORE.INTRA.SOLV.lig_0>
-46.9527

>  <SCORE.INTRA.VDW>
0.00319317

>  <SCORE.INTRA.VDW.0>
-0.177978

>  <SCORE.INTRA.norm>
0.000579062

>  <SCORE.RESTR>
0

>  <SCORE.RESTR.CAVITY>
0

>  <SCORE.RESTR.norm>
0

>  <SCORE.SYSTEM>
0

>  <SCORE.SYSTEM.CONST>
0

>  <SCORE.SYSTEM.DIHEDRAL>
0

>  <SCORE.SYSTEM.SOLV>
0

>  <SCORE.SYSTEM.norm>
0

>  <SCORE.heavy>
13

>  <SCORE.norm>
-1.27304

>  <RMSD>
1.053

$$$$
ligand
 OpenBabel02271912143D
libRbt.so/2013.1/901 2013/11/27
 13 14  0  0  0  0  0  0  0  0999 V2000
   33.9070   33.6588   22.6897 N   0  0  0  0  0  0  0  0  0  0  0  0
   33.0667   32.6763   23.2447 C   0  0  0  0  0  0  0  0  0  0  0  0
   31.9655   32.3008   22.4868 N   0  0  0  0  0  0  0  0  0  0  0  0
   33.2244   32.0950   24.4584 N   0  0  0  0  0  0  0  0  0  0  0  0
   34.3448   32.5785   25.1274 C   0  0  0  0  0  0  0  0  0  0  0  0
   35.2436   33.5396   24.6489 C   0  0  0  0  0  0  0  0  0  0  0  0
   35.0579   34.1326   23.3915 C   0  0  0  0  0  0  0  0  0  0  0  0
   35.7575   34.9895   22.8717 O   0  0  0  0  0  0  0  0  0  0  0  0
   36.2447   33.7572   25.6232 C   0  0  0  0  0  0  0  0  0  0  0  0
   35.9466   32.9169   26.6847 C   0  0  0  0  0  0  0  0  0  0  0  0
   34.7732   32.1816   26.3809 N   0  0  0  0  0  0  0  0  0  0  0  0
   37.3522   34.7384   25.4644 C   0  0  0  0  0  0  0  0  0  0  0  0
   36.8319   36.0582   25.0747 N   0  0  0  0  0  0  0  0  0  0  0  0
  1  2  1  0  0  0  0
  1  7  1  0  0  0  0
  2  3  1  0  0  0  0
  2  4  2  0  0  0  0
  4  5  1  0  0  0  0
  5  6  2  0  0  0  0
  5 11  1  0  0  0  0
  6  7  1  0  0  0  0
  6  9  1  0  0  0  0
  7  8  2  0  0  0  0
  9 10  2  0  0  0  0
  9 12  1  0  0  0  0
 10 11  1  0  0  0  0
 12 13  1  0  0  0  0
M  END
>  <CHROM.1>
50.65625036,34.90566956,33.54366425,24.43257462,-3.01288513,0.66632401,2.16109278

>  <Name>
ligand

>  <RI>
0

>  <Rbt.Current_Directory>
/home/itssahil/PROJECTS/Mol_Feturizer/Test_systems_manuscript/rnas/3q50

>  <Rbt.Executable>
rbdock ($Id: //depot/dev/client3/rdock/2013.1/src/exe/rbdock.cxx#4 $)

>  <Rbt.Library>
libRbt.so (2013.1, Build901 2013/11/27)

>  <Rbt.Parameter_File>
/export/apps/rDock/src/rDock_2013.1_src/data/scripts/dock_solv.prm

>  <Rbt.Receptor>
prm/blind_docking_100.prm

>  <SCORE>
-15.5126

>  <SCORE.INTER>
-16.5006

>  <SCORE.INTER.CONST>
1

>  <SCORE.INTER.POLAR>
0

>  <SCORE.INTER.ROT>
1

>  <SCORE.INTER.SOLV>
23.2239

>  <SCORE.INTER.VDW>
-23.0083

>  <SCORE.INTER.norm>
-1.26927

>  <SCORE.INTRA>
0.987916

>  <SCORE.INTRA.DIHEDRAL>
0.051859

>  <SCORE.INTRA.DIHEDRAL.0>
1.65305

>  <SCORE.INTRA.POLAR>
0

>  <SCORE.INTRA.POLAR.0>
0

>  <SCORE.INTRA.REPUL>
0

>  <SCORE.INTRA.REPUL.0>
0

>  <SCORE.INTRA.SOLV>
2.041

>  <SCORE.INTRA.SOLV.lig_0>
-46.9527

>  <SCORE.INTRA.VDW>
-0.058513

>  <SCORE.INTRA.VDW.0>
-0.177978

>  <SCORE.INTRA.norm>
0.0759936

>  <SCORE.RESTR>
0

>  <SCORE.RESTR.CAVITY>
0

>  <SCORE.RESTR.norm>
0

>  <SCORE.SYSTEM>
0

>  <SCORE.SYSTEM.CONST>
0

>  <SCORE.SYSTEM.DIHEDRAL>
0

>  <SCORE.SYSTEM.SOLV>
0

>  <SCORE.SYSTEM.norm>
0

>  <SCORE.heavy>
13

>  <SCORE.norm>
-1.19328

>  <RMSD>
1.060

$$$$
ligand
 OpenBabel02271912143D
libRbt.so/2013.1/901 2013/11/27
 13 14  0  0  0  0  0  0  0  0999 V2000
   33.9205   33.6509   22.6870 N   0  0  0  0  0  0  0  0  0  0  0  0
   33.0803   32.6671   23.2396 C   0  0  0  0  0  0  0  0  0  0  0  0
   31.9830   32.2884   22.4777 N   0  0  0  0  0  0  0  0  0  0  0  0
   33.2344   32.0874   24.4545 N   0  0  0  0  0  0  0  0  0  0  0  0
   34.3511   32.5741   25.1274 C   0  0  0  0  0  0  0  0  0  0  0  0
   35.2496   33.5367   24.6516 C   0  0  0  0  0  0  0  0  0  0  0  0
   35.0676   34.1280   23.3928 C   0  0  0  0  0  0  0  0  0  0  0  0
   35.7673   34.9860   22.8749 O   0  0  0  0  0  0  0  0  0  0  0  0
   36.2463   33.7575   25.6296 C   0  0  0  0  0  0  0  0  0  0  0  0
   35.9460   32.9176   26.6908 C   0  0  0  0  0  0  0  0  0  0  0  0
   34.7754   32.1794   26.3830 N   0  0  0  0  0  0  0  0  0  0  0  0
   37.3523   34.7411   25.4742 C   0  0  0  0  0  0  0  0  0  0  0  0
   36.8337   36.0510   25.0505 N   0  0  0  0  0  0  0  0  0  0  0  0
  1  2  1  0  0  0  0
  1  7  1  0  0  0  0
  2  3  1  0  0  0  0
  2  4  2  0  0  0  0
  4  5  1  0  0  0  0
  5  6  2  0  0  0  0
  5 11  1  0  0  0  0
  6  7  1  0  0  0  0
  6  9  1  0  0  0  0
  7  8  2  0  0  0  0
  9 10  2  0  0  0  0
  9 12  1  0  0  0  0
 10 11  1  0  0  0  0
 12 13  1  0  0  0  0
M  END
>  <CHROM.1>
49.32328049,34.91281086,33.53911362,24.43141125,-3.01150990,0.66879552,2.15804346

>  <Name>
ligand

>  <RI>
0

>  <Rbt.Current_Directory>
/home/itssahil/PROJECTS/Mol_Feturizer/Test_systems_manuscript/rnas/3q50

>  <Rbt.Executable>
rbdock ($Id: //depot/dev/client3/rdock/2013.1/src/exe/rbdock.cxx#4 $)

>  <Rbt.Library>
libRbt.so (2013.1, Build901 2013/11/27)

>  <Rbt.Parameter_File>
/export/apps/rDock/src/rDock_2013.1_src/data/scripts/dock_solv.prm

>  <Rbt.Receptor>
prm/blind_docking_60.prm

>  <SCORE>
-15.5162

>  <SCORE.INTER>
-16.5729

>  <SCORE.INTER.CONST>
1

>  <SCORE.INTER.POLAR>
0

>  <SCORE.INTER.ROT>
1

>  <SCORE.INTER.SOLV>
23.214

>  <SCORE.INTER.VDW>
-23.0533

>  <SCORE.INTER.norm>
-1.27484

>  <SCORE.INTRA>
1.05671

>  <SCORE.INTRA.DIHEDRAL>
0.0553439

>  <SCORE.INTRA.DIHEDRAL.0>
1.65305

>  <SCORE.INTRA.POLAR>
0

>  <SCORE.INTRA.POLAR.0>
0

>  <SCORE.INTRA.REPUL>
0

>  <SCORE.INTRA.REPUL.0>
0

>  <SCORE.INTRA.SOLV>
2.07736

>  <SCORE.INTRA.SOLV.lig_0>
-46.9527

>  <SCORE.INTRA.VDW>
-0.00963852

>  <SCORE.INTRA.VDW.0>
-0.177978

>  <SCORE.INTRA.norm>
0.0812856

>  <SCORE.RESTR>
0

>  <SCORE.RESTR.CAVITY>
0

>  <SCORE.RESTR.norm>
0

>  <SCORE.SYSTEM>
0

>  <SCORE.SYSTEM.CONST>
0

>  <SCORE.SYSTEM.DIHEDRAL>
0

>  <SCORE.SYSTEM.SOLV>
0

>  <SCORE.SYSTEM.norm>
0

>  <SCORE.heavy>
13

>  <SCORE.norm>
-1.19355

>  <RMSD>
1.060

$$$$
ligand
 OpenBabel02271912143D
libRbt.so/2013.1/901 2013/11/27
 13 14  0  0  0  0  0  0  0  0999 V2000
   33.4128   32.0021   24.3683 N   0  0  0  0  0  0  0  0  0  0  0  0
   33.1328   32.6825   23.1692 C   0  0  0  0  0  0  0  0  0  0  0  0
   32.0495   32.2222   22.4326 N   0  0  0  0  0  0  0  0  0  0  0  0
   33.8442   33.7188   22.6636 N   0  0  0  0  0  0  0  0  0  0  0  0
   34.9177   34.0627   23.4796 C   0  0  0  0  0  0  0  0  0  0  0  0
   35.2627   33.4553   24.6931 C   0  0  0  0  0  0  0  0  0  0  0  0
   34.5153   32.3798   25.1952 C   0  0  0  0  0  0  0  0  0  0  0  0
   34.7224   31.7579   26.2268 O   0  0  0  0  0  0  0  0  0  0  0  0
   36.4125   34.0916   25.2144 C   0  0  0  0  0  0  0  0  0  0  0  0
   36.7511   35.0881   24.3123 C   0  0  0  0  0  0  0  0  0  0  0  0
   35.8259   35.0772   23.2380 N   0  0  0  0  0  0  0  0  0  0  0  0
   37.0780   33.6852   26.4820 C   0  0  0  0  0  0  0  0  0  0  0  0
   38.4539   34.2028   26.5414 N   0  0  0  0  0  0  0  0  0  0  0  0
  1  2  1  0  0  0  0
  1  7  1  0  0  0  0
  2  3  1  0  0  0  0
  2  4  2  0  0  0  0
  4  5  1  0  0  0  0
  5  6  2  0  0  0  0
  5 11  1  0  0  0  0
  6  7  1  0  0  0  0
  6  9  1  0  0  0  0
  7  8  2  0  0  0  0
  9 10  2  0  0  0  0
  9 12  1  0  0  0  0
 10 11  1  0  0  0  0
 12 13  1  0  0  0  0
M  END
>  <CHROM.1>
161.24438379,35.09772580,33.38365069,24.49173741,2.91849394,-0.59448931,-0.89720063

>  <Name>
ligand

>  <RI>
0

>  <Rbt.Current_Directory>
/home/itssahil/PROJECTS/Mol_Feturizer/Test_systems_manuscript/rnas/3q50

>  <Rbt.Executable>
rbdock ($Id: //depot/dev/client3/rdock/2013.1/src/exe/rbdock.cxx#4 $)

>  <Rbt.Library>
libRbt.so (2013.1, Build901 2013/11/27)

>  <Rbt.Parameter_File>
/export/apps/rDock/src/rDock_2013.1_src/data/scripts/dock_solv.prm

>  <Rbt.Receptor>
prm/pocket_docking_6.prm

>  <SCORE>
-16.8238

>  <SCORE.INTER>
-16.8481

>  <SCORE.INTER.CONST>
1

>  <SCORE.INTER.POLAR>
0

>  <SCORE.INTER.ROT>
1

>  <SCORE.INTER.SOLV>
21.8779

>  <SCORE.INTER.VDW>
-22.7914

>  <SCORE.INTER.norm>
-1.29601

>  <SCORE.INTRA>
0.024261

>  <SCORE.INTRA.DIHEDRAL>
0.072948

>  <SCORE.INTRA.DIHEDRAL.0>
1.65305

>  <SCORE.INTRA.POLAR>
0

>  <SCORE.INTRA.POLAR.0>
0

>  <SCORE.INTRA.REPUL>
0

>  <SCORE.INTRA.REPUL.0>
0

>  <SCORE.INTRA.SOLV>
0.00225339

>  <SCORE.INTRA.SOLV.lig_0>
-46.9527

>  <SCORE.INTRA.VDW>
-0.0133397

>  <SCORE.INTRA.VDW.0>
-0.177978

>  <SCORE.INTRA.norm>
0.00186623

>  <SCORE.RESTR>
0

>  <SCORE.RESTR.CAVITY>
0

>  <SCORE.RESTR.norm>
0

>  <SCORE.SYSTEM>
0

>  <SCORE.SYSTEM.CONST>
0

>  <SCORE.SYSTEM.DIHEDRAL>
0

>  <SCORE.SYSTEM.SOLV>
0

>  <SCORE.SYSTEM.norm>
0

>  <SCORE.heavy>
13

>  <SCORE.norm>
-1.29414

>  <RMSD>
2.584

$$$$
ligand
 OpenBabel02271912143D
libRbt.so/2013.1/901 2013/11/27
 13 14  0  0  0  0  0  0  0  0999 V2000
   33.4217   31.9378   24.3143 N   0  0  0  0  0  0  0  0  0  0  0  0
   33.1451   32.6460   23.1306 C   0  0  0  0  0  0  0  0  0  0  0  0
   32.0778   32.1893   22.3687 N   0  0  0  0  0  0  0  0  0  0  0  0
   33.8461   33.7064   22.6617 N   0  0  0  0  0  0  0  0  0  0  0  0
   34.9046   34.0444   23.4995 C   0  0  0  0  0  0  0  0  0  0  0  0
   35.2447   33.4097   24.7004 C   0  0  0  0  0  0  0  0  0  0  0  0
   34.5083   32.3098   25.1643 C   0  0  0  0  0  0  0  0  0  0  0  0
   34.7130   31.6635   26.1812 O   0  0  0  0  0  0  0  0  0  0  0  0
   36.3783   34.0492   25.2525 C   0  0  0  0  0  0  0  0  0  0  0  0
   36.7118   35.0748   24.3816 C   0  0  0  0  0  0  0  0  0  0  0  0
   35.7995   35.0788   23.2963 N   0  0  0  0  0  0  0  0  0  0  0  0
   37.0352   33.6189   26.5166 C   0  0  0  0  0  0  0  0  0  0  0  0
   38.3211   34.3094   26.7010 N   0  0  0  0  0  0  0  0  0  0  0  0
  1  2  1  0  0  0  0
  1  7  1  0  0  0  0
  2  3  1  0  0  0  0
  2  4  2  0  0  0  0
  4  5  1  0  0  0  0
  5  6  2  0  0  0  0
  5 11  1  0  0  0  0
  6  7  1  0  0  0  0
  6  9  1  0  0  0  0
  7  8  2  0  0  0  0
  9 10  2  0  0  0  0
  9 12  1  0  0  0  0
 10 11  1  0  0  0  0
 12 13  1  0  0  0  0
M  END
>  <CHROM.1>
169.49470627,35.07666344,33.35361118,24.50284116,2.91904229,-0.62683329,-0.87638837

>  <Name>
ligand

>  <RI>
0

>  <Rbt.Current_Directory>
/home/itssahil/PROJECTS/Mol_Feturizer/Test_systems_manuscript/rnas/3q50

>  <Rbt.Executable>
rbdock ($Id: //depot/dev/client3/rdock/2013.1/src/exe/rbdock.cxx#4 $)

>  <Rbt.Library>
libRbt.so (2013.1, Build901 2013/11/27)

>  <Rbt.Parameter_File>
/export/apps/rDock/src/rDock_2013.1_src/data/scripts/dock_solv.prm

>  <Rbt.Receptor>
prm/pocket_docking_2.prm

>  <SCORE>
-16.8502

>  <SCORE.INTER>
-16.8792

>  <SCORE.INTER.CONST>
1

>  <SCORE.INTER.POLAR>
0

>  <SCORE.INTER.ROT>
1

>  <SCORE.INTER.SOLV>
21.766

>  <SCORE.INTER.VDW>
-22.7748

>  <SCORE.INTER.norm>
-1.2984

>  <SCORE.INTRA>
0.0289864

>  <SCORE.INTRA.DIHEDRAL>
0.0549031

>  <SCORE.INTRA.DIHEDRAL.0>
1.65305

>  <SCORE.INTRA.POLAR>
0

>  <SCORE.INTRA.POLAR.0>
0

>  <SCORE.INTRA.REPUL>
0

>  <SCORE.INTRA.REPUL.0>
0

>  <SCORE.INTRA.SOLV>
0.00231692

>  <SCORE.INTRA.SOLV.lig_0>
-46.9527

>  <SCORE.INTRA.VDW>
0.000376374

>  <SCORE.INTRA.VDW.0>
-0.177978

>  <SCORE.INTRA.norm>
0.00222972

>  <SCORE.RESTR>
0

>  <SCORE.RESTR.CAVITY>
0

>  <SCORE.RESTR.norm>
0

>  <SCORE.SYSTEM>
0

>  <SCORE.SYSTEM.CONST>
0

>  <SCORE.SYSTEM.DIHEDRAL>
0

>  <SCORE.SYSTEM.SOLV>
0

>  <SCORE.SYSTEM.norm>
0

>  <SCORE.heavy>
13

>  <SCORE.norm>
-1.29617

>  <RMSD>
2.588

$$$$
ligand
 OpenBabel02271912143D
libRbt.so/2013.1/901 2013/11/27
 13 14  0  0  0  0  0  0  0  0999 V2000
   33.4364   31.9311   24.3040 N   0  0  0  0  0  0  0  0  0  0  0  0
   33.1482   32.6450   23.1265 C   0  0  0  0  0  0  0  0  0  0  0  0
   32.0774   32.1881   22.3698 N   0  0  0  0  0  0  0  0  0  0  0  0
   33.8413   33.7110   22.6586 N   0  0  0  0  0  0  0  0  0  0  0  0
   34.9043   34.0488   23.4907 C   0  0  0  0  0  0  0  0  0  0  0  0
   35.2559   33.4086   24.6854 C   0  0  0  0  0  0  0  0  0  0  0  0
   34.5276   32.3029   25.1482 C   0  0  0  0  0  0  0  0  0  0  0  0
   34.7425   31.6516   26.1599 O   0  0  0  0  0  0  0  0  0  0  0  0
   36.3907   34.0498   25.2330 C   0  0  0  0  0  0  0  0  0  0  0  0
   36.7136   35.0818   24.3656 C   0  0  0  0  0  0  0  0  0  0  0  0
   35.7934   35.0882   23.2870 N   0  0  0  0  0  0  0  0  0  0  0  0
   37.0587   33.6151   26.4898 C   0  0  0  0  0  0  0  0  0  0  0  0
   38.3258   34.3361   26.6869 N   0  0  0  0  0  0  0  0  0  0  0  0
  1  2  1  0  0  0  0
  1  7  1  0  0  0  0
  2  3  1  0  0  0  0
  2  4  2  0  0  0  0
  4  5  1  0  0  0  0
  5  6  2  0  0  0  0
  5 11  1  0  0  0  0
  6  7  1  0  0  0  0
  6  9  1  0  0  0  0
  7  8  2  0  0  0  0
  9 10  2  0  0  0  0
  9 12  1  0  0  0  0
 10 11  1  0  0  0  0
 12 13  1  0  0  0  0
M  END
>  <CHROM.1>
171.00113710,35.08528692,33.35505189,24.49022662,2.92908579,-0.62784743,-0.86571362

>  <Name>
ligand

>  <RI>
0

>  <Rbt.Current_Directory>
/home/itssahil/PROJECTS/Mol_Feturizer/Test_systems_manuscript/rnas/3q50

>  <Rbt.Executable>
rbdock ($Id: //depot/dev/client3/rdock/2013.1/src/exe/rbdock.cxx#4 $)

>  <Rbt.Library>
libRbt.so (2013.1, Build901 2013/11/27)

>  <Rbt.Parameter_File>
/export/apps/rDock/src/rDock_2013.1_src/data/scripts/dock_solv.prm

>  <Rbt.Receptor>
prm/pocket_docking_4.prm

>  <SCORE>
-16.8429

>  <SCORE.INTER>
-16.8716

>  <SCORE.INTER.CONST>
1

>  <SCORE.INTER.POLAR>
0

>  <SCORE.INTER.ROT>
1

>  <SCORE.INTER.SOLV>
21.793

>  <SCORE.INTER.VDW>
-22.7787

>  <SCORE.INTER.norm>
-1.29781

>  <SCORE.INTRA>
0.0286755

>  <SCORE.INTRA.DIHEDRAL>
0.0509369

>  <SCORE.INTRA.DIHEDRAL.0>
1.65305

>  <SCORE.INTRA.POLAR>
0

>  <SCORE.INTRA.POLAR.0>
0

>  <SCORE.INTRA.REPUL>
0

>  <SCORE.INTRA.REPUL.0>
0

>  <SCORE.INTRA.SOLV>
0.00226508

>  <SCORE.INTRA.SOLV.lig_0>
-46.9527

>  <SCORE.INTRA.VDW>
0.00207447

>  <SCORE.INTRA.VDW.0>
-0.177978

>  <SCORE.INTRA.norm>
0.0022058

>  <SCORE.RESTR>
0

>  <SCORE.RESTR.CAVITY>
0

>  <SCORE.RESTR.norm>
0

>  <SCORE.SYSTEM>
0

>  <SCORE.SYSTEM.CONST>
0

>  <SCORE.SYSTEM.DIHEDRAL>
0

>  <SCORE.SYSTEM.SOLV>
0

>  <SCORE.SYSTEM.norm>
0

>  <SCORE.heavy>
13

>  <SCORE.norm>
-1.29561

>  <RMSD>
2.588

$$$$
ligand
 OpenBabel02271912143D
libRbt.so/2013.1/901 2013/11/27
 13 14  0  0  0  0  0  0  0  0999 V2000
   33.2978   32.0217   24.3525 N   0  0  0  0  0  0  0  0  0  0  0  0
   33.0910   32.6534   23.1125 C   0  0  0  0  0  0  0  0  0  0  0  0
   32.0292   32.1881   22.3482 N   0  0  0  0  0  0  0  0  0  0  0  0
   33.8532   33.6464   22.5943 N   0  0  0  0  0  0  0  0  0  0  0  0
   34.8985   33.9993   23.4425 C   0  0  0  0  0  0  0  0  0  0  0  0
   35.1715   33.4395   24.6966 C   0  0  0  0  0  0  0  0  0  0  0  0
   34.3724   32.4082   25.2114 C   0  0  0  0  0  0  0  0  0  0  0  0
   34.5156   31.8292   26.2782 O   0  0  0  0  0  0  0  0  0  0  0  0
   36.3144   34.0688   25.2411 C   0  0  0  0  0  0  0  0  0  0  0  0
   36.7209   35.0136   24.3118 C   0  0  0  0  0  0  0  0  0  0  0  0
   35.8447   34.9775   23.1978 N   0  0  0  0  0  0  0  0  0  0  0  0
   36.9109   33.7039   26.5548 C   0  0  0  0  0  0  0  0  0  0  0  0
   38.2953   34.1915   26.6559 N   0  0  0  0  0  0  0  0  0  0  0  0
  1  2  1  0  0  0  0
  1  7  1  0  0  0  0
  2  3  1  0  0  0  0
  2  4  2  0  0  0  0
  4  5  1  0  0  0  0
  5  6  2  0  0  0  0
  5 11  1  0  0  0  0
  6  7  1  0  0  0  0
  6  9  1  0  0  0  0
  7  8  2  0  0  0  0
  9 10  2  0  0  0  0
  9 12  1  0  0  0  0
 10 11  1  0  0  0  0
 12 13  1  0  0  0  0
M  END
>  <CHROM.1>
161.43550011,35.01368229,33.36335148,24.49135923,2.85484549,-0.59968595,-0.97858842

>  <Name>
ligand

>  <RI>
0

>  <Rbt.Current_Directory>
/home/itssahil/PROJECTS/Mol_Feturizer/Test_systems_manuscript/rnas/3q50

>  <Rbt.Executable>
rbdock ($Id: //depot/dev/client3/rdock/2013.1/src/exe/rbdock.cxx#4 $)

>  <Rbt.Library>
libRbt.so (2013.1, Build901 2013/11/27)

>  <Rbt.Parameter_File>
/export/apps/rDock/src/rDock_2013.1_src/data/scripts/dock_solv.prm

>  <Rbt.Receptor>
prm/pocket_docking_2.prm

>  <SCORE>
-16.9768

>  <SCORE.INTER>
-17.0013

>  <SCORE.INTER.CONST>
1

>  <SCORE.INTER.POLAR>
0

>  <SCORE.INTER.ROT>
1

>  <SCORE.INTER.SOLV>
21.9105

>  <SCORE.INTER.VDW>
-22.9044

>  <SCORE.INTER.norm>
-1.30779

>  <SCORE.INTRA>
0.0244909

>  <SCORE.INTRA.DIHEDRAL>
0.0726154

>  <SCORE.INTRA.DIHEDRAL.0>
1.65305

>  <SCORE.INTRA.POLAR>
0

>  <SCORE.INTRA.POLAR.0>
0

>  <SCORE.INTRA.REPUL>
0

>  <SCORE.INTRA.REPUL.0>
0

>  <SCORE.INTRA.SOLV>
0.00226092

>  <SCORE.INTRA.SOLV.lig_0>
-46.9527

>  <SCORE.INTRA.VDW>
-0.0129473

>  <SCORE.INTRA.VDW.0>
-0.177978

>  <SCORE.INTRA.norm>
0.00188392

>  <SCORE.RESTR>
0

>  <SCORE.RESTR.CAVITY>
0

>  <SCORE.RESTR.norm>
0

>  <SCORE.SYSTEM>
0

>  <SCORE.SYSTEM.CONST>
0

>  <SCORE.SYSTEM.DIHEDRAL>
0

>  <SCORE.SYSTEM.SOLV>
0

>  <SCORE.SYSTEM.norm>
0

>  <SCORE.heavy>
13

>  <SCORE.norm>
-1.30591

>  <RMSD>
2.600

$$$$
ligand
 OpenBabel02271912143D
libRbt.so/2013.1/901 2013/11/27
 13 14  0  0  0  0  0  0  0  0999 V2000
   33.2910   32.0304   24.3590 N   0  0  0  0  0  0  0  0  0  0  0  0
   33.0837   32.6624   23.1193 C   0  0  0  0  0  0  0  0  0  0  0  0
   32.0197   32.1995   22.3566 N   0  0  0  0  0  0  0  0  0  0  0  0
   33.8473   33.6538   22.5998 N   0  0  0  0  0  0  0  0  0  0  0  0
   34.8947   34.0043   23.4463 C   0  0  0  0  0  0  0  0  0  0  0  0
   35.1684   33.4440   24.7000 C   0  0  0  0  0  0  0  0  0  0  0  0
   34.3678   32.4146   25.2161 C   0  0  0  0  0  0  0  0  0  0  0  0
   34.5113   31.8353   26.2828 O   0  0  0  0  0  0  0  0  0  0  0  0
   36.3135   34.0709   25.2428 C   0  0  0  0  0  0  0  0  0  0  0  0
   36.7207   35.0147   24.3127 C   0  0  0  0  0  0  0  0  0  0  0  0
   35.8428   34.9804   23.2001 N   0  0  0  0  0  0  0  0  0  0  0  0
   36.9112   33.7048   26.5556 C   0  0  0  0  0  0  0  0  0  0  0  0
   38.2968   34.1892   26.6546 N   0  0  0  0  0  0  0  0  0  0  0  0
  1  2  1  0  0  0  0
  1  7  1  0  0  0  0
  2  3  1  0  0  0  0
  2  4  2  0  0  0  0
  4  5  1  0  0  0  0
  5  6  2  0  0  0  0
  5 11  1  0  0  0  0
  6  7  1  0  0  0  0
  6  9  1  0  0  0  0
  7  8  2  0  0  0  0
  9 10  2  0  0  0  0
  9 12  1  0  0  0  0
 10 11  1  0  0  0  0
 12 13  1  0  0  0  0
M  END
>  <CHROM.1>
161.43605259,35.01006900,33.36823623,24.49507601,2.85486640,-0.59698040,-0.97866673

>  <Name>
ligand

>  <RI>
0

>  <Rbt.Current_Directory>
/home/itssahil/PROJECTS/Mol_Feturizer/Test_systems_manuscript/rnas/3q50

>  <Rbt.Executable>
rbdock ($Id: //depot/dev/client3/rdock/2013.1/src/exe/rbdock.cxx#4 $)

>  <Rbt.Library>
libRbt.so (2013.1, Build901 2013/11/27)

>  <Rbt.Parameter_File>
/export/apps/rDock/src/rDock_2013.1_src/data/scripts/dock_solv.prm

>  <Rbt.Receptor>
prm/pocket_docking_6.prm

>  <SCORE>
-16.9823

>  <SCORE.INTER>
-17.0068

>  <SCORE.INTER.CONST>
1

>  <SCORE.INTER.POLAR>
0

>  <SCORE.INTER.ROT>
1

>  <SCORE.INTER.SOLV>
21.9223

>  <SCORE.INTER.VDW>
-22.912

>  <SCORE.INTER.norm>
-1.30822

>  <SCORE.INTRA>
0.0244916

>  <SCORE.INTRA.DIHEDRAL>
0.0726145

>  <SCORE.INTRA.DIHEDRAL.0>
1.65305

>  <SCORE.INTRA.POLAR>
0

>  <SCORE.INTRA.POLAR.0>
0

>  <SCORE.INTRA.REPUL>
0

>  <SCORE.INTRA.REPUL.0>
0

>  <SCORE.INTRA.SOLV>
0.00226094

>  <SCORE.INTRA.SOLV.lig_0>
-46.9527

>  <SCORE.INTRA.VDW>
-0.0129461

>  <SCORE.INTRA.VDW.0>
-0.177978

>  <SCORE.INTRA.norm>
0.00188397

>  <SCORE.RESTR>
0

>  <SCORE.RESTR.CAVITY>
0

>  <SCORE.RESTR.norm>
0

>  <SCORE.SYSTEM>
0

>  <SCORE.SYSTEM.CONST>
0

>  <SCORE.SYSTEM.DIHEDRAL>
0

>  <SCORE.SYSTEM.SOLV>
0

>  <SCORE.SYSTEM.norm>
0

>  <SCORE.heavy>
13

>  <SCORE.norm>
-1.30633

>  <RMSD>
2.600

$$$$
ligand
 OpenBabel02271912143D
libRbt.so/2013.1/901 2013/11/27
 13 14  0  0  0  0  0  0  0  0999 V2000
   33.3529   31.9607   24.3005 N   0  0  0  0  0  0  0  0  0  0  0  0
   33.0937   32.6543   23.1042 C   0  0  0  0  0  0  0  0  0  0  0  0
   32.0314   32.1942   22.3374 N   0  0  0  0  0  0  0  0  0  0  0  0
   33.8068   33.7034   22.6282 N   0  0  0  0  0  0  0  0  0  0  0  0
   34.8586   34.0459   23.4726 C   0  0  0  0  0  0  0  0  0  0  0  0
   35.1817   33.4257   24.6856 C   0  0  0  0  0  0  0  0  0  0  0  0
   34.4330   32.3373   25.1568 C   0  0  0  0  0  0  0  0  0  0  0  0
   34.6225   31.7038   26.1847 O   0  0  0  0  0  0  0  0  0  0  0  0
   36.3137   34.0652   25.2409 C   0  0  0  0  0  0  0  0  0  0  0  0
   36.6635   35.0763   24.3595 C   0  0  0  0  0  0  0  0  0  0  0  0
   35.7628   35.0714   23.2646 N   0  0  0  0  0  0  0  0  0  0  0  0
   36.9543   33.6481   26.5178 C   0  0  0  0  0  0  0  0  0  0  0  0
   38.3007   34.2277   26.6430 N   0  0  0  0  0  0  0  0  0  0  0  0
  1  2  1  0  0  0  0
  1  7  1  0  0  0  0
  2  3  1  0  0  0  0
  2  4  2  0  0  0  0
  4  5  1  0  0  0  0
  5  6  2  0  0  0  0
  5 11  1  0  0  0  0
  6  7  1  0  0  0  0
  6  9  1  0  0  0  0
  7  8  2  0  0  0  0
  9 10  2  0  0  0  0
  9 12  1  0  0  0  0
 10 11  1  0  0  0  0
 12 13  1  0  0  0  0
M  END
>  <CHROM.1>
163.84979650,35.02010609,33.35942124,24.48194868,2.90403085,-0.61947285,-0.89470147

>  <Name>
ligand

>  <RI>
0

>  <Rbt.Current_Directory>
/home/itssahil/PROJECTS/Mol_Feturizer/Test_systems_manuscript/rnas/3q50

>  <Rbt.Executable>
rbdock ($Id: //depot/dev/client3/rdock/2013.1/src/exe/rbdock.cxx#4 $)

>  <Rbt.Library>
libRbt.so (2013.1, Build901 2013/11/27)

>  <Rbt.Parameter_File>
/export/apps/rDock/src/rDock_2013.1_src/data/scripts/dock_solv.prm

>  <Rbt.Receptor>
prm/pocket_docking_6.prm

>  <SCORE>
-16.8454

>  <SCORE.INTER>
-16.8723

>  <SCORE.INTER.CONST>
1

>  <SCORE.INTER.POLAR>
0

>  <SCORE.INTER.ROT>
1

>  <SCORE.INTER.SOLV>
21.8632

>  <SCORE.INTER.VDW>
-22.8026

>  <SCORE.INTER.norm>
-1.29787

>  <SCORE.INTRA>
0.0269129

>  <SCORE.INTRA.DIHEDRAL>
0.0680317

>  <SCORE.INTRA.DIHEDRAL.0>
1.65305

>  <SCORE.INTRA.POLAR>
0

>  <SCORE.INTRA.POLAR.0>
0

>  <SCORE.INTRA.REPUL>
0

>  <SCORE.INTRA.REPUL.0>
0

>  <SCORE.INTRA.SOLV>
0.00233291

>  <SCORE.INTRA.SOLV.lig_0>
-46.9527

>  <SCORE.INTRA.VDW>
-0.00826941

>  <SCORE.INTRA.VDW.0>
-0.177978

>  <SCORE.INTRA.norm>
0.00207022

>  <SCORE.RESTR>
0

>  <SCORE.RESTR.CAVITY>
0

>  <SCORE.RESTR.norm>
0

>  <SCORE.SYSTEM>
0

>  <SCORE.SYSTEM.CONST>
0

>  <SCORE.SYSTEM.DIHEDRAL>
0

>  <SCORE.SYSTEM.SOLV>
0

>  <SCORE.SYSTEM.norm>
0

>  <SCORE.heavy>
13

>  <SCORE.norm>
-1.2958

>  <RMSD>
2.603

$$$$
ligand
 OpenBabel02271912143D
libRbt.so/2013.1/901 2013/11/27
 13 14  0  0  0  0  0  0  0  0999 V2000
   33.2949   32.0106   24.3437 N   0  0  0  0  0  0  0  0  0  0  0  0
   33.0796   32.6478   23.1080 C   0  0  0  0  0  0  0  0  0  0  0  0
   32.0161   32.1821   22.3463 N   0  0  0  0  0  0  0  0  0  0  0  0
   33.8354   33.6465   22.5913 N   0  0  0  0  0  0  0  0  0  0  0  0
   34.8833   33.9992   23.4363 C   0  0  0  0  0  0  0  0  0  0  0  0
   35.1645   33.4341   24.6862 C   0  0  0  0  0  0  0  0  0  0  0  0
   34.3720   32.3970   25.1995 C   0  0  0  0  0  0  0  0  0  0  0  0
   34.5225   31.8132   26.2627 O   0  0  0  0  0  0  0  0  0  0  0  0
   36.3074   34.0653   25.2286 C   0  0  0  0  0  0  0  0  0  0  0  0
   36.7057   35.0164   24.3022 C   0  0  0  0  0  0  0  0  0  0  0  0
   35.8245   34.9825   23.1921 N   0  0  0  0  0  0  0  0  0  0  0  0
   36.9115   33.6961   26.5376 C   0  0  0  0  0  0  0  0  0  0  0  0
   38.2924   34.1940   26.6371 N   0  0  0  0  0  0  0  0  0  0  0  0
  1  2  1  0  0  0  0
  1  7  1  0  0  0  0
  2  3  1  0  0  0  0
  2  4  2  0  0  0  0
  4  5  1  0  0  0  0
  5  6  2  0  0  0  0
  5 11  1  0  0  0  0
  6  7  1  0  0  0  0
  6  9  1  0  0  0  0
  7  8  2  0  0  0  0
  9 10  2  0  0  0  0
  9 12  1  0  0  0  0
 10 11  1  0  0  0  0
 12 13  1  0  0  0  0
M  END
>  <CHROM.1>
161.69143390,35.00582811,33.35884015,24.48157572,2.86231991,-0.60072894,-0.96950306

>  <Name>
ligand

>  <RI>
0

>  <Rbt.Current_Directory>
/home/itssahil/PROJECTS/Mol_Feturizer/Test_systems_manuscript/rnas/3q50

>  <Rbt.Executable>
rbdock ($Id: //depot/dev/client3/rdock/2013.1/src/exe/rbdock.cxx#4 $)

>  <Rbt.Library>
libRbt.so (2013.1, Build901 2013/11/27)

>  <Rbt.Parameter_File>
/export/apps/rDock/src/rDock_2013.1_src/data/scripts/dock_solv.prm

>  <Rbt.Receptor>
prm/pocket_docking_2.prm

>  <SCORE>
-17.0053

>  <SCORE.INTER>
-17.0301

>  <SCORE.INTER.CONST>
1

>  <SCORE.INTER.POLAR>
0

>  <SCORE.INTER.ROT>
1

>  <SCORE.INTER.SOLV>
21.9467

>  <SCORE.INTER.VDW>
-22.9356

>  <SCORE.INTER.norm>
-1.31001

>  <SCORE.INTRA>
0.0247901

>  <SCORE.INTRA.DIHEDRAL>
0.0721629

>  <SCORE.INTRA.DIHEDRAL.0>
1.65305

>  <SCORE.INTRA.POLAR>
0

>  <SCORE.INTRA.POLAR.0>
0

>  <SCORE.INTRA.REPUL>
0

>  <SCORE.INTRA.REPUL.0>
0

>  <SCORE.INTRA.SOLV>
0.0022706

>  <SCORE.INTRA.SOLV.lig_0>
-46.9527

>  <SCORE.INTRA.VDW>
-0.0124267

>  <SCORE.INTRA.VDW.0>
-0.177978

>  <SCORE.INTRA.norm>
0.00190693

>  <SCORE.RESTR>
0

>  <SCORE.RESTR.CAVITY>
0

>  <SCORE.RESTR.norm>
0

>  <SCORE.SYSTEM>
0

>  <SCORE.SYSTEM.CONST>
0

>  <SCORE.SYSTEM.DIHEDRAL>
0

>  <SCORE.SYSTEM.SOLV>
0

>  <SCORE.SYSTEM.norm>
0

>  <SCORE.heavy>
13

>  <SCORE.norm>
-1.3081

>  <RMSD>
2.604

$$$$
ligand
 OpenBabel02271912143D
libRbt.so/2013.1/901 2013/11/27
 13 14  0  0  0  0  0  0  0  0999 V2000
   33.2976   32.0130   24.3399 N   0  0  0  0  0  0  0  0  0  0  0  0
   33.0856   32.6449   23.1009 C   0  0  0  0  0  0  0  0  0  0  0  0
   32.0223   32.1781   22.3398 N   0  0  0  0  0  0  0  0  0  0  0  0
   33.8444   33.6395   22.5807 N   0  0  0  0  0  0  0  0  0  0  0  0
   34.8918   33.9938   23.4257 C   0  0  0  0  0  0  0  0  0  0  0  0
   35.1698   33.4340   24.6787 C   0  0  0  0  0  0  0  0  0  0  0  0
   34.3741   32.4010   25.1955 C   0  0  0  0  0  0  0  0  0  0  0  0
   34.5218   31.8218   26.2617 O   0  0  0  0  0  0  0  0  0  0  0  0
   36.3132   34.0651   25.2199 C   0  0  0  0  0  0  0  0  0  0  0  0
   36.7152   35.0111   24.2897 C   0  0  0  0  0  0  0  0  0  0  0  0
   35.8355   34.9739   23.1784 N   0  0  0  0  0  0  0  0  0  0  0  0
   36.9146   33.7007   26.5315 C   0  0  0  0  0  0  0  0  0  0  0  0
   38.2883   34.2159   26.6401 N   0  0  0  0  0  0  0  0  0  0  0  0
  1  2  1  0  0  0  0
  1  7  1  0  0  0  0
  2  3  1  0  0  0  0
  2  4  2  0  0  0  0
  4  5  1  0  0  0  0
  5  6  2  0  0  0  0
  5 11  1  0  0  0  0
  6  7  1  0  0  0  0
  6  9  1  0  0  0  0
  7  8  2  0  0  0  0
  9 10  2  0  0  0  0
  9 12  1  0  0  0  0
 10 11  1  0  0  0  0
 12 13  1  0  0  0  0
M  END
>  <CHROM.1>
162.66780090,35.01062521,33.35970964,24.47488840,2.85927180,-0.60120903,-0.97679858

>  <Name>
ligand

>  <RI>
0

>  <Rbt.Current_Directory>
/home/itssahil/PROJECTS/Mol_Feturizer/Test_systems_manuscript/rnas/3q50

>  <Rbt.Executable>
rbdock ($Id: //depot/dev/client3/rdock/2013.1/src/exe/rbdock.cxx#4 $)

>  <Rbt.Library>
libRbt.so (2013.1, Build901 2013/11/27)

>  <Rbt.Parameter_File>
/export/apps/rDock/src/rDock_2013.1_src/data/scripts/dock_solv.prm

>  <Rbt.Receptor>
prm/pocket_docking_5.prm

>  <SCORE>
-16.9954

>  <SCORE.INTER>
-17.0213

>  <SCORE.INTER.CONST>
1

>  <SCORE.INTER.POLAR>
0

>  <SCORE.INTER.ROT>
1

>  <SCORE.INTER.SOLV>
21.9599

>  <SCORE.INTER.VDW>
-22.9341

>  <SCORE.INTER.norm>
-1.30933

>  <SCORE.INTRA>
0.0258395

>  <SCORE.INTRA.DIHEDRAL>
0.0703625

>  <SCORE.INTRA.DIHEDRAL.0>
1.65305

>  <SCORE.INTRA.POLAR>
0

>  <SCORE.INTRA.POLAR.0>
0

>  <SCORE.INTRA.REPUL>
0

>  <SCORE.INTRA.REPUL.0>
0

>  <SCORE.INTRA.SOLV>
0.00230313

>  <SCORE.INTRA.SOLV.lig_0>
-46.9527

>  <SCORE.INTRA.VDW>
-0.0104933

>  <SCORE.INTRA.VDW.0>
-0.177978

>  <SCORE.INTRA.norm>
0.00198765

>  <SCORE.RESTR>
0

>  <SCORE.RESTR.CAVITY>
0

>  <SCORE.RESTR.norm>
0

>  <SCORE.SYSTEM>
0

>  <SCORE.SYSTEM.CONST>
0

>  <SCORE.SYSTEM.DIHEDRAL>
0

>  <SCORE.SYSTEM.SOLV>
0

>  <SCORE.SYSTEM.norm>
0

>  <SCORE.heavy>
13

>  <SCORE.norm>
-1.30734

>  <RMSD>
2.604

$$$$
ligand
 OpenBabel02271912143D
libRbt.so/2013.1/901 2013/11/27
 13 14  0  0  0  0  0  0  0  0999 V2000
   33.3243   31.9971   24.3246 N   0  0  0  0  0  0  0  0  0  0  0  0
   33.0911   32.6546   23.1028 C   0  0  0  0  0  0  0  0  0  0  0  0
   32.0207   32.1971   22.3460 N   0  0  0  0  0  0  0  0  0  0  0  0
   33.8358   33.6660   22.5946 N   0  0  0  0  0  0  0  0  0  0  0  0
   34.8921   34.0091   23.4331 C   0  0  0  0  0  0  0  0  0  0  0  0
   35.1912   33.4238   24.6694 C   0  0  0  0  0  0  0  0  0  0  0  0
   34.4098   32.3739   25.1740 C   0  0  0  0  0  0  0  0  0  0  0  0
   34.5760   31.7724   26.2249 O   0  0  0  0  0  0  0  0  0  0  0  0
   36.3375   34.0511   25.2090 C   0  0  0  0  0  0  0  0  0  0  0  0
   36.7201   35.0202   24.2946 C   0  0  0  0  0  0  0  0  0  0  0  0
   35.8256   35.0012   23.1948 N   0  0  0  0  0  0  0  0  0  0  0  0
   36.9592   33.6621   26.5040 C   0  0  0  0  0  0  0  0  0  0  0  0
   38.3225   34.2038   26.6150 N   0  0  0  0  0  0  0  0  0  0  0  0
  1  2  1  0  0  0  0
  1  7  1  0  0  0  0
  2  3  1  0  0  0  0
  2  4  2  0  0  0  0
  4  5  1  0  0  0  0
  5  6  2  0  0  0  0
  5 11  1  0  0  0  0
  6  7  1  0  0  0  0
  6  9  1  0  0  0  0
  7  8  2  0  0  0  0
  9 10  2  0  0  0  0
  9 12  1  0  0  0  0
 10 11  1  0  0  0  0
 12 13  1  0  0  0  0
M  END
>  <CHROM.1>
163.62135979,35.02905297,33.35440610,24.46697412,2.87771099,-0.60065643,-0.94510384

>  <Name>
ligand

>  <RI>
0

>  <Rbt.Current_Directory>
/home/itssahil/PROJECTS/Mol_Feturizer/Test_systems_manuscript/rnas/3q50

>  <Rbt.Executable>
rbdock ($Id: //depot/dev/client3/rdock/2013.1/src/exe/rbdock.cxx#4 $)

>  <Rbt.Library>
libRbt.so (2013.1, Build901 2013/11/27)

>  <Rbt.Parameter_File>
/export/apps/rDock/src/rDock_2013.1_src/data/scripts/dock_solv.prm

>  <Rbt.Receptor>
prm/pocket_docking_8.prm

>  <SCORE>
-16.8743

>  <SCORE.INTER>
-16.901

>  <SCORE.INTER.CONST>
1

>  <SCORE.INTER.POLAR>
0

>  <SCORE.INTER.ROT>
1

>  <SCORE.INTER.SOLV>
21.9247

>  <SCORE.INTER.VDW>
-22.8422

>  <SCORE.INTER.norm>
-1.30008

>  <SCORE.INTRA>
0.0267224

>  <SCORE.INTRA.DIHEDRAL>
0.0684947

>  <SCORE.INTRA.DIHEDRAL.0>
1.65305

>  <SCORE.INTRA.POLAR>
0

>  <SCORE.INTRA.POLAR.0>
0

>  <SCORE.INTRA.REPUL>
0

>  <SCORE.INTRA.REPUL.0>
0

>  <SCORE.INTRA.SOLV>
0.002328

>  <SCORE.INTRA.SOLV.lig_0>
-46.9527

>  <SCORE.INTRA.VDW>
-0.00868895

>  <SCORE.INTRA.VDW.0>
-0.177978

>  <SCORE.INTRA.norm>
0.00205557

>  <SCORE.RESTR>
0

>  <SCORE.RESTR.CAVITY>
0

>  <SCORE.RESTR.norm>
0

>  <SCORE.SYSTEM>
0

>  <SCORE.SYSTEM.CONST>
0

>  <SCORE.SYSTEM.DIHEDRAL>
0

>  <SCORE.SYSTEM.SOLV>
0

>  <SCORE.SYSTEM.norm>
0

>  <SCORE.heavy>
13

>  <SCORE.norm>
-1.29802

>  <RMSD>
2.604

$$$$
ligand
 OpenBabel02271912143D
libRbt.so/2013.1/901 2013/11/27
 13 14  0  0  0  0  0  0  0  0999 V2000
   33.2666   32.0238   24.3357 N   0  0  0  0  0  0  0  0  0  0  0  0
   33.0630   32.6451   23.0901 C   0  0  0  0  0  0  0  0  0  0  0  0
   31.9990   32.1782   22.3298 N   0  0  0  0  0  0  0  0  0  0  0  0
   33.8301   33.6297   22.5630 N   0  0  0  0  0  0  0  0  0  0  0  0
   34.8769   33.9851   23.4081 C   0  0  0  0  0  0  0  0  0  0  0  0
   35.1471   33.4354   24.6672 C   0  0  0  0  0  0  0  0  0  0  0  0
   34.3429   32.4127   25.1912 C   0  0  0  0  0  0  0  0  0  0  0  0
   34.4832   31.8427   26.2633 O   0  0  0  0  0  0  0  0  0  0  0  0
   36.2929   34.0641   25.2063 C   0  0  0  0  0  0  0  0  0  0  0  0
   36.7042   34.9985   24.2684 C   0  0  0  0  0  0  0  0  0  0  0  0
   35.8280   34.9565   23.1546 N   0  0  0  0  0  0  0  0  0  0  0  0
   36.8875   33.7083   26.5233 C   0  0  0  0  0  0  0  0  0  0  0  0
   38.0998   34.5004   26.7829 N   0  0  0  0  0  0  0  0  0  0  0  0
  1  2  1  0  0  0  0
  1  7  1  0  0  0  0
  2  3  1  0  0  0  0
  2  4  2  0  0  0  0
  4  5  1  0  0  0  0
  5  6  2  0  0  0  0
  5 11  1  0  0  0  0
  6  7  1  0  0  0  0
  6  9  1  0  0  0  0
  7  8  2  0  0  0  0
  9 10  2  0  0  0  0
  9 12  1  0  0  0  0
 10 11  1  0  0  0  0
 12 13  1  0  0  0  0
M  END
>  <CHROM.1>
177.81233134,34.97472759,33.38347305,24.47594158,2.84804747,-0.62098140,-1.00423290

>  <Name>
ligand

>  <RI>
0

>  <Rbt.Current_Directory>
/home/itssahil/PROJECTS/Mol_Feturizer/Test_systems_manuscript/rnas/3q50

>  <Rbt.Executable>
rbdock ($Id: //depot/dev/client3/rdock/2013.1/src/exe/rbdock.cxx#4 $)

>  <Rbt.Library>
libRbt.so (2013.1, Build901 2013/11/27)

>  <Rbt.Parameter_File>
/export/apps/rDock/src/rDock_2013.1_src/data/scripts/dock_solv.prm

>  <Rbt.Receptor>
prm/blind_docking_60.prm

>  <SCORE>
-16.7346

>  <SCORE.INTER>
-16.7574

>  <SCORE.INTER.CONST>
1

>  <SCORE.INTER.POLAR>
0

>  <SCORE.INTER.ROT>
1

>  <SCORE.INTER.SOLV>
22.4523

>  <SCORE.INTER.VDW>
-22.9224

>  <SCORE.INTER.norm>
-1.28903

>  <SCORE.INTRA>
0.022823

>  <SCORE.INTRA.DIHEDRAL>
0.031524

>  <SCORE.INTRA.DIHEDRAL.0>
1.65305

>  <SCORE.INTRA.POLAR>
0

>  <SCORE.INTRA.POLAR.0>
0

>  <SCORE.INTRA.REPUL>
0

>  <SCORE.INTRA.REPUL.0>
0

>  <SCORE.INTRA.SOLV>
0.00176107

>  <SCORE.INTRA.SOLV.lig_0>
-46.9527

>  <SCORE.INTRA.VDW>
0.00618051

>  <SCORE.INTRA.VDW.0>
-0.177978

>  <SCORE.INTRA.norm>
0.00175562

>  <SCORE.RESTR>
0

>  <SCORE.RESTR.CAVITY>
0

>  <SCORE.RESTR.norm>
0

>  <SCORE.SYSTEM>
0

>  <SCORE.SYSTEM.CONST>
0

>  <SCORE.SYSTEM.DIHEDRAL>
0

>  <SCORE.SYSTEM.SOLV>
0

>  <SCORE.SYSTEM.norm>
0

>  <SCORE.heavy>
13

>  <SCORE.norm>
-1.28728

>  <RMSD>
2.605

$$$$
ligand
 OpenBabel02271912143D
libRbt.so/2013.1/901 2013/11/27
 13 14  0  0  0  0  0  0  0  0999 V2000
   33.2935   32.0105   24.3372 N   0  0  0  0  0  0  0  0  0  0  0  0
   33.0761   32.6475   23.1018 C   0  0  0  0  0  0  0  0  0  0  0  0
   32.0115   32.1816   22.3419 N   0  0  0  0  0  0  0  0  0  0  0  0
   33.8308   33.6464   22.5838 N   0  0  0  0  0  0  0  0  0  0  0  0
   34.8799   33.9995   23.4271 C   0  0  0  0  0  0  0  0  0  0  0  0
   35.1633   33.4345   24.6766 C   0  0  0  0  0  0  0  0  0  0  0  0
   34.3718   32.3973   25.1912 C   0  0  0  0  0  0  0  0  0  0  0  0
   34.5243   31.8135   26.2542 O   0  0  0  0  0  0  0  0  0  0  0  0
   36.3069   34.0660   25.2171 C   0  0  0  0  0  0  0  0  0  0  0  0
   36.7035   35.0172   24.2900 C   0  0  0  0  0  0  0  0  0  0  0  0
   35.8205   34.9830   23.1814 N   0  0  0  0  0  0  0  0  0  0  0  0
   36.9132   33.6971   26.5252 C   0  0  0  0  0  0  0  0  0  0  0  0
   38.2919   34.2008   26.6250 N   0  0  0  0  0  0  0  0  0  0  0  0
  1  2  1  0  0  0  0
  1  7  1  0  0  0  0
  2  3  1  0  0  0  0
  2  4  2  0  0  0  0
  4  5  1  0  0  0  0
  5  6  2  0  0  0  0
  5 11  1  0  0  0  0
  6  7  1  0  0  0  0
  6  9  1  0  0  0  0
  7  8  2  0  0  0  0
  9 10  2  0  0  0  0
  9 12  1  0  0  0  0
 10 11  1  0  0  0  0
 12 13  1  0  0  0  0
M  END
>  <CHROM.1>
161.95936635,35.00414182,33.35964645,24.47243089,2.86410987,-0.60043016,-0.96880611

>  <Name>
ligand

>  <RI>
0

>  <Rbt.Current_Directory>
/home/itssahil/PROJECTS/Mol_Feturizer/Test_systems_manuscript/rnas/3q50

>  <Rbt.Executable>
rbdock ($Id: //depot/dev/client3/rdock/2013.1/src/exe/rbdock.cxx#4 $)

>  <Rbt.Library>
libRbt.so (2013.1, Build901 2013/11/27)

>  <Rbt.Parameter_File>
/export/apps/rDock/src/rDock_2013.1_src/data/scripts/dock_solv.prm

>  <Rbt.Receptor>
prm/pocket_docking_2.prm

>  <SCORE>
-16.9989

>  <SCORE.INTER>
-17.024

>  <SCORE.INTER.CONST>
1

>  <SCORE.INTER.POLAR>
0

>  <SCORE.INTER.ROT>
1

>  <SCORE.INTER.SOLV>
21.9714

>  <SCORE.INTER.VDW>
-22.9398

>  <SCORE.INTER.norm>
-1.30954

>  <SCORE.INTRA>
0.0250926

>  <SCORE.INTRA.DIHEDRAL>
0.0716804

>  <SCORE.INTRA.DIHEDRAL.0>
1.65305

>  <SCORE.INTRA.POLAR>
0

>  <SCORE.INTRA.POLAR.0>
0

>  <SCORE.INTRA.REPUL>
0

>  <SCORE.INTRA.REPUL.0>
0

>  <SCORE.INTRA.SOLV>
0.00228022

>  <SCORE.INTRA.SOLV.lig_0>
-46.9527

>  <SCORE.INTRA.VDW>
-0.0118877

>  <SCORE.INTRA.VDW.0>
-0.177978

>  <SCORE.INTRA.norm>
0.0019302

>  <SCORE.RESTR>
0

>  <SCORE.RESTR.CAVITY>
0

>  <SCORE.RESTR.norm>
0

>  <SCORE.SYSTEM>
0

>  <SCORE.SYSTEM.CONST>
0

>  <SCORE.SYSTEM.DIHEDRAL>
0

>  <SCORE.SYSTEM.SOLV>
0

>  <SCORE.SYSTEM.norm>
0

>  <SCORE.heavy>
13

>  <SCORE.norm>
-1.30761

>  <RMSD>
2.606

$$$$
ligand
 OpenBabel02271912143D
libRbt.so/2013.1/901 2013/11/27
 13 14  0  0  0  0  0  0  0  0999 V2000
   33.3539   31.9480   24.2977 N   0  0  0  0  0  0  0  0  0  0  0  0
   33.0952   32.6336   23.0968 C   0  0  0  0  0  0  0  0  0  0  0  0
   32.0270   32.1747   22.3376 N   0  0  0  0  0  0  0  0  0  0  0  0
   33.8138   33.6738   22.6096 N   0  0  0  0  0  0  0  0  0  0  0  0
   34.8711   34.0158   23.4474 C   0  0  0  0  0  0  0  0  0  0  0  0
   35.1943   33.4033   24.6643 C   0  0  0  0  0  0  0  0  0  0  0  0
   34.4398   32.3240   25.1470 C   0  0  0  0  0  0  0  0  0  0  0  0
   34.6287   31.6975   26.1794 O   0  0  0  0  0  0  0  0  0  0  0  0
   36.3327   34.0393   25.2102 C   0  0  0  0  0  0  0  0  0  0  0  0
   36.6862   35.0409   24.3193 C   0  0  0  0  0  0  0  0  0  0  0  0
   35.7815   35.0333   23.2278 N   0  0  0  0  0  0  0  0  0  0  0  0
   36.9751   33.6282   26.4881 C   0  0  0  0  0  0  0  0  0  0  0  0
   38.3003   34.2506   26.6332 N   0  0  0  0  0  0  0  0  0  0  0  0
  1  2  1  0  0  0  0
  1  7  1  0  0  0  0
  2  3  1  0  0  0  0
  2  4  2  0  0  0  0
  4  5  1  0  0  0  0
  5  6  2  0  0  0  0
  5 11  1  0  0  0  0
  6  7  1  0  0  0  0
  6  9  1  0  0  0  0
  7  8  2  0  0  0  0
  9 10  2  0  0  0  0
  9 12  1  0  0  0  0
 10 11  1  0  0  0  0
 12 13  1  0  0  0  0
M  END
>  <CHROM.1>
166.53394512,35.02940974,33.34062781,24.46412030,2.90216628,-0.61592249,-0.90609320

>  <Name>
ligand

>  <RI>
0

>  <Rbt.Current_Directory>
/home/itssahil/PROJECTS/Mol_Feturizer/Test_systems_manuscript/rnas/3q50

>  <Rbt.Executable>
rbdock ($Id: //depot/dev/client3/rdock/2013.1/src/exe/rbdock.cxx#4 $)

>  <Rbt.Library>
libRbt.so (2013.1, Build901 2013/11/27)

>  <Rbt.Parameter_File>
/export/apps/rDock/src/rDock_2013.1_src/data/scripts/dock_solv.prm

>  <Rbt.Receptor>
prm/pocket_docking_4.prm

>  <SCORE>
-16.8689

>  <SCORE.INTER>
-16.8974

>  <SCORE.INTER.CONST>
1

>  <SCORE.INTER.POLAR>
0

>  <SCORE.INTER.ROT>
1

>  <SCORE.INTER.SOLV>
21.9108

>  <SCORE.INTER.VDW>
-22.8352

>  <SCORE.INTER.norm>
-1.2998

>  <SCORE.INTRA>
0.0285342

>  <SCORE.INTRA.DIHEDRAL>
0.0621697

>  <SCORE.INTRA.DIHEDRAL.0>
1.65305

>  <SCORE.INTRA.POLAR>
0

>  <SCORE.INTRA.POLAR.0>
0

>  <SCORE.INTRA.REPUL>
0

>  <SCORE.INTRA.REPUL.0>
0

>  <SCORE.INTRA.SOLV>
0.0023592

>  <SCORE.INTRA.SOLV.lig_0>
-46.9527

>  <SCORE.INTRA.VDW>
-0.00373023

>  <SCORE.INTRA.VDW.0>
-0.177978

>  <SCORE.INTRA.norm>
0.00219494

>  <SCORE.RESTR>
0

>  <SCORE.RESTR.CAVITY>
0

>  <SCORE.RESTR.norm>
0

>  <SCORE.SYSTEM>
0

>  <SCORE.SYSTEM.CONST>
0

>  <SCORE.SYSTEM.DIHEDRAL>
0

>  <SCORE.SYSTEM.SOLV>
0

>  <SCORE.SYSTEM.norm>
0

>  <SCORE.heavy>
13

>  <SCORE.norm>
-1.29761

>  <RMSD>
2.606

$$$$
ligand
 OpenBabel02271912143D
libRbt.so/2013.1/901 2013/11/27
 13 14  0  0  0  0  0  0  0  0999 V2000
   33.3469   31.9569   24.2998 N   0  0  0  0  0  0  0  0  0  0  0  0
   33.0854   32.6475   23.1023 C   0  0  0  0  0  0  0  0  0  0  0  0
   32.0129   32.1944   22.3457 N   0  0  0  0  0  0  0  0  0  0  0  0
   33.8053   33.6872   22.6160 N   0  0  0  0  0  0  0  0  0  0  0  0
   34.8668   34.0232   23.4507 C   0  0  0  0  0  0  0  0  0  0  0  0
   35.1930   33.4054   24.6642 C   0  0  0  0  0  0  0  0  0  0  0  0
   34.4371   32.3267   25.1461 C   0  0  0  0  0  0  0  0  0  0  0  0
   34.6282   31.6961   26.1756 O   0  0  0  0  0  0  0  0  0  0  0  0
   36.3355   34.0362   25.2079 C   0  0  0  0  0  0  0  0  0  0  0  0
   36.6885   35.0397   24.3191 C   0  0  0  0  0  0  0  0  0  0  0  0
   35.7795   35.0387   23.2311 N   0  0  0  0  0  0  0  0  0  0  0  0
   36.9816   33.6187   26.4818 C   0  0  0  0  0  0  0  0  0  0  0  0
   38.3016   34.2507   26.6323 N   0  0  0  0  0  0  0  0  0  0  0  0
  1  2  1  0  0  0  0
  1  7  1  0  0  0  0
  2  3  1  0  0  0  0
  2  4  2  0  0  0  0
  4  5  1  0  0  0  0
  5  6  2  0  0  0  0
  5 11  1  0  0  0  0
  6  7  1  0  0  0  0
  6  9  1  0  0  0  0
  7  8  2  0  0  0  0
  9 10  2  0  0  0  0
  9 12  1  0  0  0  0
 10 11  1  0  0  0  0
 12 13  1  0  0  0  0
M  END
>  <CHROM.1>
167.28645291,35.02650996,33.34510365,24.46517339,2.90362199,-0.61232738,-0.90234720

>  <Name>
ligand

>  <RI>
0

>  <Rbt.Current_Directory>
/home/itssahil/PROJECTS/Mol_Feturizer/Test_systems_manuscript/rnas/3q50

>  <Rbt.Executable>
rbdock ($Id: //depot/dev/client3/rdock/2013.1/src/exe/rbdock.cxx#4 $)

>  <Rbt.Library>
libRbt.so (2013.1, Build901 2013/11/27)

>  <Rbt.Parameter_File>
/export/apps/rDock/src/rDock_2013.1_src/data/scripts/dock_solv.prm

>  <Rbt.Receptor>
prm/pocket_docking_7.prm

>  <SCORE>
-16.8731

>  <SCORE.INTER>
-16.9019

>  <SCORE.INTER.CONST>
1

>  <SCORE.INTER.POLAR>
0

>  <SCORE.INTER.ROT>
1

>  <SCORE.INTER.SOLV>
21.9141

>  <SCORE.INTER.VDW>
-22.8393

>  <SCORE.INTER.norm>
-1.30015

>  <SCORE.INTRA>
0.0287827

>  <SCORE.INTRA.DIHEDRAL>
0.0603963

>  <SCORE.INTRA.DIHEDRAL.0>
1.65305

>  <SCORE.INTRA.POLAR>
0

>  <SCORE.INTRA.POLAR.0>
0

>  <SCORE.INTRA.REPUL>
0

>  <SCORE.INTRA.REPUL.0>
0

>  <SCORE.INTRA.SOLV>
0.00235575

>  <SCORE.INTRA.SOLV.lig_0>
-46.9527

>  <SCORE.INTRA.VDW>
-0.00259334

>  <SCORE.INTRA.VDW.0>
-0.177978

>  <SCORE.INTRA.norm>
0.00221405

>  <SCORE.RESTR>
0

>  <SCORE.RESTR.CAVITY>
0

>  <SCORE.RESTR.norm>
0

>  <SCORE.SYSTEM>
0

>  <SCORE.SYSTEM.CONST>
0

>  <SCORE.SYSTEM.DIHEDRAL>
0

>  <SCORE.SYSTEM.SOLV>
0

>  <SCORE.SYSTEM.norm>
0

>  <SCORE.heavy>
13

>  <SCORE.norm>
-1.29793

>  <RMSD>
2.606

$$$$
ligand
 OpenBabel02271912143D
libRbt.so/2013.1/901 2013/11/27
 13 14  0  0  0  0  0  0  0  0999 V2000
   33.2787   32.0237   24.3362 N   0  0  0  0  0  0  0  0  0  0  0  0
   33.0730   32.6508   23.0937 C   0  0  0  0  0  0  0  0  0  0  0  0
   32.0119   32.1827   22.3301 N   0  0  0  0  0  0  0  0  0  0  0  0
   33.8356   33.6420   22.5726 N   0  0  0  0  0  0  0  0  0  0  0  0
   34.8801   33.9980   23.4204 C   0  0  0  0  0  0  0  0  0  0  0  0
   35.1520   33.4428   24.6768 C   0  0  0  0  0  0  0  0  0  0  0  0
   34.3525   32.4133   25.1946 C   0  0  0  0  0  0  0  0  0  0  0  0
   34.4948   31.8382   26.2637 O   0  0  0  0  0  0  0  0  0  0  0  0
   36.2943   34.0742   25.2201 C   0  0  0  0  0  0  0  0  0  0  0  0
   36.7017   35.0156   24.2877 C   0  0  0  0  0  0  0  0  0  0  0  0
   35.8265   34.9754   23.1730 N   0  0  0  0  0  0  0  0  0  0  0  0
   36.8897   33.7141   26.5357 C   0  0  0  0  0  0  0  0  0  0  0  0
   38.2738   34.2025   26.6364 N   0  0  0  0  0  0  0  0  0  0  0  0
  1  2  1  0  0  0  0
  1  7  1  0  0  0  0
  2  3  1  0  0  0  0
  2  4  2  0  0  0  0
  4  5  1  0  0  0  0
  5  6  2  0  0  0  0
  5 11  1  0  0  0  0
  6  7  1  0  0  0  0
  6  9  1  0  0  0  0
  7  8  2  0  0  0  0
  9 10  2  0  0  0  0
  9 12  1  0  0  0  0
 10 11  1  0  0  0  0
 12 13  1  0  0  0  0
M  END
>  <CHROM.1>
161.45354256,34.99436811,33.36593580,24.47172257,2.85396033,-0.60026654,-0.98274730

>  <Name>
ligand

>  <RI>
0

>  <Rbt.Current_Directory>
/home/itssahil/PROJECTS/Mol_Feturizer/Test_systems_manuscript/rnas/3q50

>  <Rbt.Executable>
rbdock ($Id: //depot/dev/client3/rdock/2013.1/src/exe/rbdock.cxx#4 $)

>  <Rbt.Library>
libRbt.so (2013.1, Build901 2013/11/27)

>  <Rbt.Parameter_File>
/export/apps/rDock/src/rDock_2013.1_src/data/scripts/dock_solv.prm

>  <Rbt.Receptor>
prm/pocket_docking_7.prm

>  <SCORE>
-16.9714

>  <SCORE.INTER>
-16.9959

>  <SCORE.INTER.CONST>
1

>  <SCORE.INTER.POLAR>
0

>  <SCORE.INTER.ROT>
1

>  <SCORE.INTER.SOLV>
21.9806

>  <SCORE.INTER.VDW>
-22.9242

>  <SCORE.INTER.norm>
-1.30738

>  <SCORE.INTRA>
0.0245123

>  <SCORE.INTRA.DIHEDRAL>
0.0725838

>  <SCORE.INTRA.DIHEDRAL.0>
1.65305

>  <SCORE.INTRA.POLAR>
0

>  <SCORE.INTRA.POLAR.0>
0

>  <SCORE.INTRA.REPUL>
0

>  <SCORE.INTRA.REPUL.0>
0

>  <SCORE.INTRA.SOLV>
0.00226162

>  <SCORE.INTRA.SOLV.lig_0>
-46.9527

>  <SCORE.INTRA.VDW>
-0.0129104

>  <SCORE.INTRA.VDW.0>
-0.177978

>  <SCORE.INTRA.norm>
0.00188556

>  <SCORE.RESTR>
0

>  <SCORE.RESTR.CAVITY>
0

>  <SCORE.RESTR.norm>
0

>  <SCORE.SYSTEM>
0

>  <SCORE.SYSTEM.CONST>
0

>  <SCORE.SYSTEM.DIHEDRAL>
0

>  <SCORE.SYSTEM.SOLV>
0

>  <SCORE.SYSTEM.norm>
0

>  <SCORE.heavy>
13

>  <SCORE.norm>
-1.30549

>  <RMSD>
2.607

$$$$
ligand
 OpenBabel02271912143D
libRbt.so/2013.1/901 2013/11/27
 13 14  0  0  0  0  0  0  0  0999 V2000
   33.3684   31.9192   24.2908 N   0  0  0  0  0  0  0  0  0  0  0  0
   33.0993   32.6200   23.1010 C   0  0  0  0  0  0  0  0  0  0  0  0
   32.0387   32.1566   22.3339 N   0  0  0  0  0  0  0  0  0  0  0  0
   33.8016   33.6791   22.6311 N   0  0  0  0  0  0  0  0  0  0  0  0
   34.8530   34.0242   23.4748 C   0  0  0  0  0  0  0  0  0  0  0  0
   35.1855   33.3972   24.6819 C   0  0  0  0  0  0  0  0  0  0  0  0
   34.4479   32.2985   25.1467 C   0  0  0  0  0  0  0  0  0  0  0  0
   34.6464   31.6586   26.1689 O   0  0  0  0  0  0  0  0  0  0  0  0
   36.3136   34.0423   25.2387 C   0  0  0  0  0  0  0  0  0  0  0  0
   36.6515   35.0635   24.3643 C   0  0  0  0  0  0  0  0  0  0  0  0
   35.7474   35.0593   23.2723 N   0  0  0  0  0  0  0  0  0  0  0  0
   36.9619   33.6207   26.5102 C   0  0  0  0  0  0  0  0  0  0  0  0
   38.3182   34.1804   26.6182 N   0  0  0  0  0  0  0  0  0  0  0  0
  1  2  1  0  0  0  0
  1  7  1  0  0  0  0
  2  3  1  0  0  0  0
  2  4  2  0  0  0  0
  4  5  1  0  0  0  0
  5  6  2  0  0  0  0
  5 11  1  0  0  0  0
  6  7  1  0  0  0  0
  6  9  1  0  0  0  0
  7  8  2  0  0  0  0
  9 10  2  0  0  0  0
  9 12  1  0  0  0  0
 10 11  1  0  0  0  0
 12 13  1  0  0  0  0
M  END
>  <CHROM.1>
162.24796759,35.02501451,33.32865062,24.47676857,2.91386962,-0.62187472,-0.87964981

>  <Name>
ligand

>  <RI>
0

>  <Rbt.Current_Directory>
/home/itssahil/PROJECTS/Mol_Feturizer/Test_systems_manuscript/rnas/3q50

>  <Rbt.Executable>
rbdock ($Id: //depot/dev/client3/rdock/2013.1/src/exe/rbdock.cxx#4 $)

>  <Rbt.Library>
libRbt.so (2013.1, Build901 2013/11/27)

>  <Rbt.Parameter_File>
/export/apps/rDock/src/rDock_2013.1_src/data/scripts/dock_solv.prm

>  <Rbt.Receptor>
prm/pocket_docking_2.prm

>  <SCORE>
-16.8308

>  <SCORE.INTER>
-16.8562

>  <SCORE.INTER.CONST>
1

>  <SCORE.INTER.POLAR>
0

>  <SCORE.INTER.ROT>
1

>  <SCORE.INTER.SOLV>
21.8511

>  <SCORE.INTER.VDW>
-22.7878

>  <SCORE.INTER.norm>
-1.29663

>  <SCORE.INTRA>
0.0254061

>  <SCORE.INTRA.DIHEDRAL>
0.0711509

>  <SCORE.INTRA.DIHEDRAL.0>
1.65305

>  <SCORE.INTRA.POLAR>
0

>  <SCORE.INTRA.POLAR.0>
0

>  <SCORE.INTRA.REPUL>
0

>  <SCORE.INTRA.REPUL.0>
0

>  <SCORE.INTRA.SOLV>
0.00229

>  <SCORE.INTRA.SOLV.lig_0>
-46.9527

>  <SCORE.INTRA.VDW>
-0.0113143

>  <SCORE.INTRA.VDW.0>
-0.177978

>  <SCORE.INTRA.norm>
0.00195432

>  <SCORE.RESTR>
0

>  <SCORE.RESTR.CAVITY>
0

>  <SCORE.RESTR.norm>
0

>  <SCORE.SYSTEM>
0

>  <SCORE.SYSTEM.CONST>
0

>  <SCORE.SYSTEM.DIHEDRAL>
0

>  <SCORE.SYSTEM.SOLV>
0

>  <SCORE.SYSTEM.norm>
0

>  <SCORE.heavy>
13

>  <SCORE.norm>
-1.29468

>  <RMSD>
2.608

$$$$
ligand
 OpenBabel02271912143D
libRbt.so/2013.1/901 2013/11/27
 13 14  0  0  0  0  0  0  0  0999 V2000
   33.3184   31.9769   24.3104 N   0  0  0  0  0  0  0  0  0  0  0  0
   33.0819   32.6463   23.0958 C   0  0  0  0  0  0  0  0  0  0  0  0
   32.0164   32.1887   22.3320 N   0  0  0  0  0  0  0  0  0  0  0  0
   33.8191   33.6694   22.6004 N   0  0  0  0  0  0  0  0  0  0  0  0
   34.8712   34.0115   23.4445 C   0  0  0  0  0  0  0  0  0  0  0  0
   35.1730   33.4146   24.6746 C   0  0  0  0  0  0  0  0  0  0  0  0
   34.3994   32.3528   25.1659 C   0  0  0  0  0  0  0  0  0  0  0  0
   34.5688   31.7407   26.2102 O   0  0  0  0  0  0  0  0  0  0  0  0
   36.3133   34.0450   25.2233 C   0  0  0  0  0  0  0  0  0  0  0  0
   36.6895   35.0275   24.3206 C   0  0  0  0  0  0  0  0  0  0  0  0
   35.7970   35.0138   23.2191 N   0  0  0  0  0  0  0  0  0  0  0  0
   36.9360   33.6465   26.5148 C   0  0  0  0  0  0  0  0  0  0  0  0
   38.2927   34.2023   26.6367 N   0  0  0  0  0  0  0  0  0  0  0  0
  1  2  1  0  0  0  0
  1  7  1  0  0  0  0
  2  3  1  0  0  0  0
  2  4  2  0  0  0  0
  4  5  1  0  0  0  0
  5  6  2  0  0  0  0
  5 11  1  0  0  0  0
  6  7  1  0  0  0  0
  6  9  1  0  0  0  0
  7  8  2  0  0  0  0
  9 10  2  0  0  0  0
  9 12  1  0  0  0  0
 10 11  1  0  0  0  0
 12 13  1  0  0  0  0
M  END
>  <CHROM.1>
163.84417208,35.01162609,33.34660297,24.47134016,2.88189786,-0.60854200,-0.93156415

>  <Name>
ligand

>  <RI>
0

>  <Rbt.Current_Directory>
/home/itssahil/PROJECTS/Mol_Feturizer/Test_systems_manuscript/rnas/3q50

>  <Rbt.Executable>
rbdock ($Id: //depot/dev/client3/rdock/2013.1/src/exe/rbdock.cxx#4 $)

>  <Rbt.Library>
libRbt.so (2013.1, Build901 2013/11/27)

>  <Rbt.Parameter_File>
/export/apps/rDock/src/rDock_2013.1_src/data/scripts/dock_solv.prm

>  <Rbt.Receptor>
prm/pocket_docking_8.prm

>  <SCORE>
-16.8712

>  <SCORE.INTER>
-16.8981

>  <SCORE.INTER.CONST>
1

>  <SCORE.INTER.POLAR>
0

>  <SCORE.INTER.ROT>
1

>  <SCORE.INTER.SOLV>
21.9106

>  <SCORE.INTER.VDW>
-22.8356

>  <SCORE.INTER.norm>
-1.29986

>  <SCORE.INTRA>
0.0269083

>  <SCORE.INTRA.DIHEDRAL>
0.0680432

>  <SCORE.INTRA.DIHEDRAL.0>
1.65305

>  <SCORE.INTRA.POLAR>
0

>  <SCORE.INTRA.POLAR.0>
0

>  <SCORE.INTRA.REPUL>
0

>  <SCORE.INTRA.REPUL.0>
0

>  <SCORE.INTRA.SOLV>
0.0023328

>  <SCORE.INTRA.SOLV.lig_0>
-46.9527

>  <SCORE.INTRA.VDW>
-0.00827968

>  <SCORE.INTRA.VDW.0>
-0.177978

>  <SCORE.INTRA.norm>
0.00206987

>  <SCORE.RESTR>
0

>  <SCORE.RESTR.CAVITY>
0

>  <SCORE.RESTR.norm>
0

>  <SCORE.SYSTEM>
0

>  <SCORE.SYSTEM.CONST>
0

>  <SCORE.SYSTEM.DIHEDRAL>
0

>  <SCORE.SYSTEM.SOLV>
0

>  <SCORE.SYSTEM.norm>
0

>  <SCORE.heavy>
13

>  <SCORE.norm>
-1.29779

>  <RMSD>
2.608

$$$$
ligand
 OpenBabel02271912143D
libRbt.so/2013.1/901 2013/11/27
 13 14  0  0  0  0  0  0  0  0999 V2000
   33.3031   31.9965   24.3141 N   0  0  0  0  0  0  0  0  0  0  0  0
   33.0842   32.6453   23.0851 C   0  0  0  0  0  0  0  0  0  0  0  0
   32.0264   32.1784   22.3163 N   0  0  0  0  0  0  0  0  0  0  0  0
   33.8317   33.6567   22.5809 N   0  0  0  0  0  0  0  0  0  0  0  0
   34.8747   34.0096   23.4318 C   0  0  0  0  0  0  0  0  0  0  0  0
   35.1589   33.4332   24.6759 C   0  0  0  0  0  0  0  0  0  0  0  0
   34.3751   32.3832   25.1761 C   0  0  0  0  0  0  0  0  0  0  0  0
   34.5292   31.7890   26.2330 O   0  0  0  0  0  0  0  0  0  0  0  0
   36.2950   34.0688   25.2274 C   0  0  0  0  0  0  0  0  0  0  0  0
   36.6862   35.0338   24.3123 C   0  0  0  0  0  0  0  0  0  0  0  0
   35.8072   35.0041   23.2003 N   0  0  0  0  0  0  0  0  0  0  0  0
   36.9002   33.6907   26.5333 C   0  0  0  0  0  0  0  0  0  0  0  0
   38.2867   34.1734   26.6283 N   0  0  0  0  0  0  0  0  0  0  0  0
  1  2  1  0  0  0  0
  1  7  1  0  0  0  0
  2  3  1  0  0  0  0
  2  4  2  0  0  0  0
  4  5  1  0  0  0  0
  5  6  2  0  0  0  0
  5 11  1  0  0  0  0
  6  7  1  0  0  0  0
  6  9  1  0  0  0  0
  7  8  2  0  0  0  0
  9 10  2  0  0  0  0
  9 12  1  0  0  0  0
 10 11  1  0  0  0  0
 12 13  1  0  0  0  0
M  END
>  <CHROM.1>
160.38790281,35.00218479,33.35658979,24.46906025,2.86682360,-0.60741028,-0.95458733

>  <Name>
ligand

>  <RI>
0

>  <Rbt.Current_Directory>
/home/itssahil/PROJECTS/Mol_Feturizer/Test_systems_manuscript/rnas/3q50

>  <Rbt.Executable>
rbdock ($Id: //depot/dev/client3/rdock/2013.1/src/exe/rbdock.cxx#4 $)

>  <Rbt.Library>
libRbt.so (2013.1, Build901 2013/11/27)

>  <Rbt.Parameter_File>
/export/apps/rDock/src/rDock_2013.1_src/data/scripts/dock_solv.prm

>  <Rbt.Receptor>
prm/pocket_docking_4.prm

>  <SCORE>
-16.9502

>  <SCORE.INTER>
-16.9734

>  <SCORE.INTER.CONST>
1

>  <SCORE.INTER.POLAR>
0

>  <SCORE.INTER.ROT>
1

>  <SCORE.INTER.SOLV>
21.9248

>  <SCORE.INTER.VDW>
-22.8905

>  <SCORE.INTER.norm>
-1.30565

>  <SCORE.INTRA>
0.0231634

>  <SCORE.INTRA.DIHEDRAL>
0.0743815

>  <SCORE.INTRA.DIHEDRAL.0>
1.65305

>  <SCORE.INTRA.POLAR>
0

>  <SCORE.INTRA.POLAR.0>
0

>  <SCORE.INTRA.REPUL>
0

>  <SCORE.INTRA.REPUL.0>
0

>  <SCORE.INTRA.SOLV>
0.00221653

>  <SCORE.INTRA.SOLV.lig_0>
-46.9527

>  <SCORE.INTRA.VDW>
-0.0151356

>  <SCORE.INTRA.VDW.0>
-0.177978

>  <SCORE.INTRA.norm>
0.0017818

>  <SCORE.RESTR>
0

>  <SCORE.RESTR.CAVITY>
0

>  <SCORE.RESTR.norm>
0

>  <SCORE.SYSTEM>
0

>  <SCORE.SYSTEM.CONST>
0

>  <SCORE.SYSTEM.DIHEDRAL>
0

>  <SCORE.SYSTEM.SOLV>
0

>  <SCORE.SYSTEM.norm>
0

>  <SCORE.heavy>
13

>  <SCORE.norm>
-1.30386

>  <RMSD>
2.609

$$$$
ligand
 OpenBabel02271912143D
libRbt.so/2013.1/901 2013/11/27
 13 14  0  0  0  0  0  0  0  0999 V2000
   33.2583   32.0339   24.3546 N   0  0  0  0  0  0  0  0  0  0  0  0
   33.0441   32.6652   23.1157 C   0  0  0  0  0  0  0  0  0  0  0  0
   31.9742   32.2036   22.3604 N   0  0  0  0  0  0  0  0  0  0  0  0
   33.8062   33.6546   22.5903 N   0  0  0  0  0  0  0  0  0  0  0  0
   34.8597   34.0039   23.4297 C   0  0  0  0  0  0  0  0  0  0  0  0
   35.1406   33.4443   24.6821 C   0  0  0  0  0  0  0  0  0  0  0  0
   34.3414   32.4168   25.2043 C   0  0  0  0  0  0  0  0  0  0  0  0
   34.4908   31.8382   26.2706 O   0  0  0  0  0  0  0  0  0  0  0  0
   36.2904   34.0694   25.2168 C   0  0  0  0  0  0  0  0  0  0  0  0
   36.6933   35.0116   24.2832 C   0  0  0  0  0  0  0  0  0  0  0  0
   35.8080   34.9780   23.1763 N   0  0  0  0  0  0  0  0  0  0  0  0
   36.8959   33.7033   26.5260 C   0  0  0  0  0  0  0  0  0  0  0  0
   38.2823   34.1874   26.6163 N   0  0  0  0  0  0  0  0  0  0  0  0
  1  2  1  0  0  0  0
  1  7  1  0  0  0  0
  2  3  1  0  0  0  0
  2  4  2  0  0  0  0
  4  5  1  0  0  0  0
  5  6  2  0  0  0  0
  5 11  1  0  0  0  0
  6  7  1  0  0  0  0
  6  9  1  0  0  0  0
  7  8  2  0  0  0  0
  9 10  2  0  0  0  0
  9 12  1  0  0  0  0
 10 11  1  0  0  0  0
 12 13  1  0  0  0  0
M  END
>  <CHROM.1>
161.53757446,34.98068933,33.36874696,24.47827866,2.86013394,-0.59189297,-0.97672145

>  <Name>
ligand

>  <RI>
0

>  <Rbt.Current_Directory>
/home/itssahil/PROJECTS/Mol_Feturizer/Test_systems_manuscript/rnas/3q50

>  <Rbt.Executable>
rbdock ($Id: //depot/dev/client3/rdock/2013.1/src/exe/rbdock.cxx#4 $)

>  <Rbt.Library>
libRbt.so (2013.1, Build901 2013/11/27)

>  <Rbt.Parameter_File>
/export/apps/rDock/src/rDock_2013.1_src/data/scripts/dock_solv.prm

>  <Rbt.Receptor>
prm/pocket_docking_6.prm

>  <SCORE>
-16.9568

>  <SCORE.INTER>
-16.9814

>  <SCORE.INTER.CONST>
1

>  <SCORE.INTER.POLAR>
0

>  <SCORE.INTER.ROT>
1

>  <SCORE.INTER.SOLV>
22.029

>  <SCORE.INTER.VDW>
-22.9306

>  <SCORE.INTER.norm>
-1.30626

>  <SCORE.INTRA>
0.0246114

>  <SCORE.INTRA.DIHEDRAL>
0.0724359

>  <SCORE.INTRA.DIHEDRAL.0>
1.65305

>  <SCORE.INTRA.POLAR>
0

>  <SCORE.INTRA.POLAR.0>
0

>  <SCORE.INTRA.REPUL>
0

>  <SCORE.INTRA.REPUL.0>
0

>  <SCORE.INTRA.SOLV>
0.00226484

>  <SCORE.INTRA.SOLV.lig_0>
-46.9527

>  <SCORE.INTRA.VDW>
-0.012739

>  <SCORE.INTRA.VDW.0>
-0.177978

>  <SCORE.INTRA.norm>
0.00189319

>  <SCORE.RESTR>
0

>  <SCORE.RESTR.CAVITY>
0

>  <SCORE.RESTR.norm>
0

>  <SCORE.SYSTEM>
0

>  <SCORE.SYSTEM.CONST>
0

>  <SCORE.SYSTEM.DIHEDRAL>
0

>  <SCORE.SYSTEM.SOLV>
0

>  <SCORE.SYSTEM.norm>
0

>  <SCORE.heavy>
13

>  <SCORE.norm>
-1.30437

>  <RMSD>
2.609

$$$$
ligand
 OpenBabel02271912143D
libRbt.so/2013.1/901 2013/11/27
 13 14  0  0  0  0  0  0  0  0999 V2000
   33.3104   31.9697   24.3159 N   0  0  0  0  0  0  0  0  0  0  0  0
   33.0578   32.6536   23.1127 C   0  0  0  0  0  0  0  0  0  0  0  0
   31.9838   32.2036   22.3564 N   0  0  0  0  0  0  0  0  0  0  0  0
   33.7872   33.6841   22.6209 N   0  0  0  0  0  0  0  0  0  0  0  0
   34.8491   34.0176   23.4562 C   0  0  0  0  0  0  0  0  0  0  0  0
   35.1669   33.4061   24.6750 C   0  0  0  0  0  0  0  0  0  0  0  0
   34.4012   32.3369   25.1626 C   0  0  0  0  0  0  0  0  0  0  0  0
   34.5844   31.7123   26.1971 O   0  0  0  0  0  0  0  0  0  0  0  0
   36.3129   34.0317   25.2174 C   0  0  0  0  0  0  0  0  0  0  0  0
   36.6763   35.0260   24.3224 C   0  0  0  0  0  0  0  0  0  0  0  0
   35.7704   35.0242   23.2319 N   0  0  0  0  0  0  0  0  0  0  0  0
   36.9521   33.6183   26.4962 C   0  0  0  0  0  0  0  0  0  0  0  0
   38.2851   34.2249   26.6364 N   0  0  0  0  0  0  0  0  0  0  0  0
  1  2  1  0  0  0  0
  1  7  1  0  0  0  0
  2  3  1  0  0  0  0
  2  4  2  0  0  0  0
  4  5  1  0  0  0  0
  5  6  2  0  0  0  0
  5 11  1  0  0  0  0
  6  7  1  0  0  0  0
  6  9  1  0  0  0  0
  7  8  2  0  0  0  0
  9 10  2  0  0  0  0
  9 12  1  0  0  0  0
 10 11  1  0  0  0  0
 12 13  1  0  0  0  0
M  END
>  <CHROM.1>
166.43843999,35.00122990,33.34437023,24.47521158,2.89502670,-0.60646472,-0.91382651

>  <Name>
ligand

>  <RI>
0

>  <Rbt.Current_Directory>
/home/itssahil/PROJECTS/Mol_Feturizer/Test_systems_manuscript/rnas/3q50

>  <Rbt.Executable>
rbdock ($Id: //depot/dev/client3/rdock/2013.1/src/exe/rbdock.cxx#4 $)

>  <Rbt.Library>
libRbt.so (2013.1, Build901 2013/11/27)

>  <Rbt.Parameter_File>
/export/apps/rDock/src/rDock_2013.1_src/data/scripts/dock_solv.prm

>  <Rbt.Receptor>
prm/pocket_docking_4.prm

>  <SCORE>
-16.8309

>  <SCORE.INTER>
-16.8594

>  <SCORE.INTER.CONST>
1

>  <SCORE.INTER.POLAR>
0

>  <SCORE.INTER.ROT>
1

>  <SCORE.INTER.SOLV>
21.9531

>  <SCORE.INTER.VDW>
-22.824

>  <SCORE.INTER.norm>
-1.29688

>  <SCORE.INTRA>
0.0284962

>  <SCORE.INTRA.DIHEDRAL>
0.0623909

>  <SCORE.INTRA.DIHEDRAL.0>
1.65305

>  <SCORE.INTRA.POLAR>
0

>  <SCORE.INTRA.POLAR.0>
0

>  <SCORE.INTRA.REPUL>
0

>  <SCORE.INTRA.REPUL.0>
0

>  <SCORE.INTRA.SOLV>
0.00235929

>  <SCORE.INTRA.SOLV.lig_0>
-46.9527

>  <SCORE.INTRA.VDW>
-0.00387891

>  <SCORE.INTRA.VDW.0>
-0.177978

>  <SCORE.INTRA.norm>
0.00219201

>  <SCORE.RESTR>
0

>  <SCORE.RESTR.CAVITY>
0

>  <SCORE.RESTR.norm>
0

>  <SCORE.SYSTEM>
0

>  <SCORE.SYSTEM.CONST>
0

>  <SCORE.SYSTEM.DIHEDRAL>
0

>  <SCORE.SYSTEM.SOLV>
0

>  <SCORE.SYSTEM.norm>
0

>  <SCORE.heavy>
13

>  <SCORE.norm>
-1.29469

>  <RMSD>
2.610

$$$$
ligand
 OpenBabel02271912143D
libRbt.so/2013.1/901 2013/11/27
 13 14  0  0  0  0  0  0  0  0999 V2000
   33.3413   31.9241   24.2890 N   0  0  0  0  0  0  0  0  0  0  0  0
   33.0486   32.6348   23.1106 C   0  0  0  0  0  0  0  0  0  0  0  0
   31.9710   32.1796   22.3625 N   0  0  0  0  0  0  0  0  0  0  0  0
   33.7431   33.6962   22.6343 N   0  0  0  0  0  0  0  0  0  0  0  0
   34.8129   34.0325   23.4583 C   0  0  0  0  0  0  0  0  0  0  0  0
   35.1694   33.3954   24.6531 C   0  0  0  0  0  0  0  0  0  0  0  0
   34.4395   32.2945   25.1248 C   0  0  0  0  0  0  0  0  0  0  0  0
   34.6581   31.6461   26.1375 O   0  0  0  0  0  0  0  0  0  0  0  0
   36.3104   34.0338   25.1910 C   0  0  0  0  0  0  0  0  0  0  0  0
   36.6320   35.0612   24.3177 C   0  0  0  0  0  0  0  0  0  0  0  0
   35.7049   35.0674   23.2450 N   0  0  0  0  0  0  0  0  0  0  0  0
   36.9846   33.6010   26.4451 C   0  0  0  0  0  0  0  0  0  0  0  0
   38.0995   34.5010   26.7789 N   0  0  0  0  0  0  0  0  0  0  0  0
  1  2  1  0  0  0  0
  1  7  1  0  0  0  0
  2  3  1  0  0  0  0
  2  4  2  0  0  0  0
  4  5  1  0  0  0  0
  5  6  2  0  0  0  0
  5 11  1  0  0  0  0
  6  7  1  0  0  0  0
  6  9  1  0  0  0  0
  7  8  2  0  0  0  0
  9 10  2  0  0  0  0
  9 12  1  0  0  0  0
 10 11  1  0  0  0  0
 12 13  1  0  0  0  0
M  END
>  <CHROM.1>
-177.19713522,34.98458685,33.35675507,24.47126337,2.92750179,-0.63979033
-0.87647913

>  <Name>
ligand

>  <RI>
0

>  <Rbt.Current_Directory>
/home/itssahil/PROJECTS/Mol_Feturizer/Test_systems_manuscript/rnas/3q50

>  <Rbt.Executable>
rbdock ($Id: //depot/dev/client3/rdock/2013.1/src/exe/rbdock.cxx#4 $)

>  <Rbt.Library>
libRbt.so (2013.1, Build901 2013/11/27)

>  <Rbt.Parameter_File>
/export/apps/rDock/src/rDock_2013.1_src/data/scripts/dock_solv.prm

>  <Rbt.Receptor>
prm/blind_docking_100.prm

>  <SCORE>
-16.6206

>  <SCORE.INTER>
-16.6349

>  <SCORE.INTER.CONST>
1

>  <SCORE.INTER.POLAR>
0

>  <SCORE.INTER.ROT>
1

>  <SCORE.INTER.SOLV>
22.3707

>  <SCORE.INTER.VDW>
-22.8135

>  <SCORE.INTER.norm>
-1.27961

>  <SCORE.INTRA>
0.0142628

>  <SCORE.INTRA.DIHEDRAL>
0.0167909

>  <SCORE.INTRA.DIHEDRAL.0>
1.65305

>  <SCORE.INTRA.POLAR>
0

>  <SCORE.INTRA.POLAR.0>
0

>  <SCORE.INTRA.REPUL>
0

>  <SCORE.INTRA.REPUL.0>
0

>  <SCORE.INTRA.SOLV>
0.00110517

>  <SCORE.INTRA.SOLV.lig_0>
-46.9527

>  <SCORE.INTRA.VDW>
0.00531472

>  <SCORE.INTRA.VDW.0>
-0.177978

>  <SCORE.INTRA.norm>
0.00109714

>  <SCORE.RESTR>
1.10986e-05

>  <SCORE.RESTR.CAVITY>
1.10986e-05

>  <SCORE.RESTR.norm>
8.53736e-07

>  <SCORE.SYSTEM>
0

>  <SCORE.SYSTEM.CONST>
0

>  <SCORE.SYSTEM.DIHEDRAL>
0

>  <SCORE.SYSTEM.SOLV>
0

>  <SCORE.SYSTEM.norm>
0

>  <SCORE.heavy>
13

>  <SCORE.norm>
-1.27851

>  <RMSD>
2.611

$$$$
ligand
 OpenBabel02271912143D
libRbt.so/2013.1/901 2013/11/27
 13 14  0  0  0  0  0  0  0  0999 V2000
   33.2626   32.0025   24.3485 N   0  0  0  0  0  0  0  0  0  0  0  0
   33.0357   32.6534   23.1221 C   0  0  0  0  0  0  0  0  0  0  0  0
   31.9672   32.1938   22.3636 N   0  0  0  0  0  0  0  0  0  0  0  0
   33.7847   33.6601   22.6109 N   0  0  0  0  0  0  0  0  0  0  0  0
   34.8384   34.0057   23.4516 C   0  0  0  0  0  0  0  0  0  0  0  0
   35.1312   33.4269   24.6925 C   0  0  0  0  0  0  0  0  0  0  0  0
   34.3455   32.3818   25.2000 C   0  0  0  0  0  0  0  0  0  0  0  0
   34.5062   31.7860   26.2551 O   0  0  0  0  0  0  0  0  0  0  0  0
   36.2768   34.0548   25.2330 C   0  0  0  0  0  0  0  0  0  0  0  0
   36.6652   35.0177   24.3146 C   0  0  0  0  0  0  0  0  0  0  0  0
   35.7751   34.9943   23.2113 N   0  0  0  0  0  0  0  0  0  0  0  0
   36.8925   33.6720   26.5327 C   0  0  0  0  0  0  0  0  0  0  0  0
   38.2660   34.1891   26.6350 N   0  0  0  0  0  0  0  0  0  0  0  0
  1  2  1  0  0  0  0
  1  7  1  0  0  0  0
  2  3  1  0  0  0  0
  2  4  2  0  0  0  0
  4  5  1  0  0  0  0
  5  6  2  0  0  0  0
  5 11  1  0  0  0  0
  6  7  1  0  0  0  0
  6  9  1  0  0  0  0
  7  8  2  0  0  0  0
  9 10  2  0  0  0  0
  9 12  1  0  0  0  0
 10 11  1  0  0  0  0
 12 13  1  0  0  0  0
M  END
>  <CHROM.1>
162.51914843,34.97052611,33.35494085,24.48894296,2.87218306,-0.59948581,-0.95304871

>  <Name>
ligand

>  <RI>
0

>  <Rbt.Current_Directory>
/home/itssahil/PROJECTS/Mol_Feturizer/Test_systems_manuscript/rnas/3q50

>  <Rbt.Executable>
rbdock ($Id: //depot/dev/client3/rdock/2013.1/src/exe/rbdock.cxx#4 $)

>  <Rbt.Library>
libRbt.so (2013.1, Build901 2013/11/27)

>  <Rbt.Parameter_File>
/export/apps/rDock/src/rDock_2013.1_src/data/scripts/dock_solv.prm

>  <Rbt.Receptor>
prm/pocket_docking_2.prm

>  <SCORE>
-16.9755

>  <SCORE.INTER>
-17.0012

>  <SCORE.INTER.CONST>
1

>  <SCORE.INTER.POLAR>
0

>  <SCORE.INTER.ROT>
1

>  <SCORE.INTER.SOLV>
22.0106

>  <SCORE.INTER.VDW>
-22.9377

>  <SCORE.INTER.norm>
-1.30779

>  <SCORE.INTRA>
0.0256892

>  <SCORE.INTRA.DIHEDRAL>
0.0706441

>  <SCORE.INTRA.DIHEDRAL.0>
1.65305

>  <SCORE.INTRA.POLAR>
0

>  <SCORE.INTRA.POLAR.0>
0

>  <SCORE.INTRA.REPUL>
0

>  <SCORE.INTRA.REPUL.0>
0

>  <SCORE.INTRA.SOLV>
0.00229863

>  <SCORE.INTRA.SOLV.lig_0>
-46.9527

>  <SCORE.INTRA.VDW>
-0.0107822

>  <SCORE.INTRA.VDW.0>
-0.177978

>  <SCORE.INTRA.norm>
0.00197609

>  <SCORE.RESTR>
0

>  <SCORE.RESTR.CAVITY>
0

>  <SCORE.RESTR.norm>
0

>  <SCORE.SYSTEM>
0

>  <SCORE.SYSTEM.CONST>
0

>  <SCORE.SYSTEM.DIHEDRAL>
0

>  <SCORE.SYSTEM.SOLV>
0

>  <SCORE.SYSTEM.norm>
0

>  <SCORE.heavy>
13

>  <SCORE.norm>
-1.30581

>  <RMSD>
2.612

$$$$
ligand
 OpenBabel02271912143D
libRbt.so/2013.1/901 2013/11/27
 13 14  0  0  0  0  0  0  0  0999 V2000
   33.2636   32.0186   24.3400 N   0  0  0  0  0  0  0  0  0  0  0  0
   33.0464   32.6510   23.1022 C   0  0  0  0  0  0  0  0  0  0  0  0
   31.9781   32.1864   22.3466 N   0  0  0  0  0  0  0  0  0  0  0  0
   33.8043   33.6443   22.5781 N   0  0  0  0  0  0  0  0  0  0  0  0
   34.8568   33.9965   23.4176 C   0  0  0  0  0  0  0  0  0  0  0  0
   35.1404   33.4359   24.6690 C   0  0  0  0  0  0  0  0  0  0  0  0
   34.3455   32.4044   25.1899 C   0  0  0  0  0  0  0  0  0  0  0  0
   34.4976   31.8248   26.2552 O   0  0  0  0  0  0  0  0  0  0  0  0
   36.2878   34.0648   25.2043 C   0  0  0  0  0  0  0  0  0  0  0  0
   36.6867   35.0101   24.2721 C   0  0  0  0  0  0  0  0  0  0  0  0
   35.8011   34.9747   23.1655 N   0  0  0  0  0  0  0  0  0  0  0  0
   36.8954   33.6990   26.5127 C   0  0  0  0  0  0  0  0  0  0  0  0
   38.2764   34.1973   26.6074 N   0  0  0  0  0  0  0  0  0  0  0  0
  1  2  1  0  0  0  0
  1  7  1  0  0  0  0
  2  3  1  0  0  0  0
  2  4  2  0  0  0  0
  4  5  1  0  0  0  0
  5  6  2  0  0  0  0
  5 11  1  0  0  0  0
  6  7  1  0  0  0  0
  6  9  1  0  0  0  0
  7  8  2  0  0  0  0
  9 10  2  0  0  0  0
  9 12  1  0  0  0  0
 10 11  1  0  0  0  0
 12 13  1  0  0  0  0
M  END
>  <CHROM.1>
161.96999096,34.98042716,33.36082195,24.46552418,2.86323052,-0.59562356,-0.97378818

>  <Name>
ligand

>  <RI>
0

>  <Rbt.Current_Directory>
/home/itssahil/PROJECTS/Mol_Feturizer/Test_systems_manuscript/rnas/3q50

>  <Rbt.Executable>
rbdock ($Id: //depot/dev/client3/rdock/2013.1/src/exe/rbdock.cxx#4 $)

>  <Rbt.Library>
libRbt.so (2013.1, Build901 2013/11/27)

>  <Rbt.Parameter_File>
/export/apps/rDock/src/rDock_2013.1_src/data/scripts/dock_solv.prm

>  <Rbt.Receptor>
prm/pocket_docking_4.prm

>  <SCORE>
-16.9422

>  <SCORE.INTER>
-16.9673

>  <SCORE.INTER.CONST>
1

>  <SCORE.INTER.POLAR>
0

>  <SCORE.INTER.ROT>
1

>  <SCORE.INTER.SOLV>
22.0412

>  <SCORE.INTER.VDW>
-22.9253

>  <SCORE.INTER.norm>
-1.30518

>  <SCORE.INTRA>
0.0251043

>  <SCORE.INTRA.DIHEDRAL>
0.0716611

>  <SCORE.INTRA.DIHEDRAL.0>
1.65305

>  <SCORE.INTRA.POLAR>
0

>  <SCORE.INTRA.POLAR.0>
0

>  <SCORE.INTRA.REPUL>
0

>  <SCORE.INTRA.REPUL.0>
0

>  <SCORE.INTRA.SOLV>
0.00228059

>  <SCORE.INTRA.SOLV.lig_0>
-46.9527

>  <SCORE.INTRA.VDW>
-0.0118665

>  <SCORE.INTRA.VDW.0>
-0.177978

>  <SCORE.INTRA.norm>
0.0019311

>  <SCORE.RESTR>
0

>  <SCORE.RESTR.CAVITY>
0

>  <SCORE.RESTR.norm>
0

>  <SCORE.SYSTEM>
0

>  <SCORE.SYSTEM.CONST>
0

>  <SCORE.SYSTEM.DIHEDRAL>
0

>  <SCORE.SYSTEM.SOLV>
0

>  <SCORE.SYSTEM.norm>
0

>  <SCORE.heavy>
13

>  <SCORE.norm>
-1.30324

>  <RMSD>
2.612

$$$$
ligand
 OpenBabel02271912143D
libRbt.so/2013.1/901 2013/11/27
 13 14  0  0  0  0  0  0  0  0999 V2000
   33.2773   31.9995   24.3393 N   0  0  0  0  0  0  0  0  0  0  0  0
   33.0418   32.6542   23.1165 C   0  0  0  0  0  0  0  0  0  0  0  0
   31.9742   32.1905   22.3594 N   0  0  0  0  0  0  0  0  0  0  0  0
   33.7821   33.6684   22.6075 N   0  0  0  0  0  0  0  0  0  0  0  0
   34.8360   34.0178   23.4463 C   0  0  0  0  0  0  0  0  0  0  0  0
   35.1369   33.4355   24.6836 C   0  0  0  0  0  0  0  0  0  0  0  0
   34.3602   32.3826   25.1890 C   0  0  0  0  0  0  0  0  0  0  0  0
   34.5285   31.7833   26.2408 O   0  0  0  0  0  0  0  0  0  0  0  0
   36.2798   34.0691   25.2233 C   0  0  0  0  0  0  0  0  0  0  0  0
   36.6584   35.0388   24.3079 C   0  0  0  0  0  0  0  0  0  0  0  0
   35.7649   35.0140   23.2074 N   0  0  0  0  0  0  0  0  0  0  0  0
   36.9023   33.6849   26.5193 C   0  0  0  0  0  0  0  0  0  0  0  0
   38.2805   34.1918   26.6099 N   0  0  0  0  0  0  0  0  0  0  0  0
  1  2  1  0  0  0  0
  1  7  1  0  0  0  0
  2  3  1  0  0  0  0
  2  4  2  0  0  0  0
  4  5  1  0  0  0  0
  5  6  2  0  0  0  0
  5 11  1  0  0  0  0
  6  7  1  0  0  0  0
  6  9  1  0  0  0  0
  7  8  2  0  0  0  0
  9 10  2  0  0  0  0
  9 12  1  0  0  0  0
 10 11  1  0  0  0  0
 12 13  1  0  0  0  0
M  END
>  <CHROM.1>
161.55539442,34.97673217,33.36174407,24.47948757,2.88030185,-0.60191945,-0.94311383

>  <Name>
ligand

>  <RI>
0

>  <Rbt.Current_Directory>
/home/itssahil/PROJECTS/Mol_Feturizer/Test_systems_manuscript/rnas/3q50

>  <Rbt.Executable>
rbdock ($Id: //depot/dev/client3/rdock/2013.1/src/exe/rbdock.cxx#4 $)

>  <Rbt.Library>
libRbt.so (2013.1, Build901 2013/11/27)

>  <Rbt.Parameter_File>
/export/apps/rDock/src/rDock_2013.1_src/data/scripts/dock_solv.prm

>  <Rbt.Receptor>
prm/pocket_docking_8.prm

>  <SCORE>
-16.943

>  <SCORE.INTER>
-16.9677

>  <SCORE.INTER.CONST>
1

>  <SCORE.INTER.POLAR>
0

>  <SCORE.INTER.ROT>
1

>  <SCORE.INTER.SOLV>
22.0215

>  <SCORE.INTER.VDW>
-22.9189

>  <SCORE.INTER.norm>
-1.30521

>  <SCORE.INTRA>
0.0246323

>  <SCORE.INTRA.DIHEDRAL>
0.0724044

>  <SCORE.INTRA.DIHEDRAL.0>
1.65305

>  <SCORE.INTRA.POLAR>
0

>  <SCORE.INTRA.POLAR.0>
0

>  <SCORE.INTRA.REPUL>
0

>  <SCORE.INTRA.REPUL.0>
0

>  <SCORE.INTRA.SOLV>
0.00226551

>  <SCORE.INTRA.SOLV.lig_0>
-46.9527

>  <SCORE.INTRA.VDW>
-0.0127027

>  <SCORE.INTRA.VDW.0>
-0.177978

>  <SCORE.INTRA.norm>
0.00189479

>  <SCORE.RESTR>
0

>  <SCORE.RESTR.CAVITY>
0

>  <SCORE.RESTR.norm>
0

>  <SCORE.SYSTEM>
0

>  <SCORE.SYSTEM.CONST>
0

>  <SCORE.SYSTEM.DIHEDRAL>
0

>  <SCORE.SYSTEM.SOLV>
0

>  <SCORE.SYSTEM.norm>
0

>  <SCORE.heavy>
13

>  <SCORE.norm>
-1.30331

>  <RMSD>
2.612

$$$$
ligand
 OpenBabel02271912143D
libRbt.so/2013.1/901 2013/11/27
 13 14  0  0  0  0  0  0  0  0999 V2000
   33.2757   31.9964   24.3314 N   0  0  0  0  0  0  0  0  0  0  0  0
   33.0443   32.6516   23.1081 C   0  0  0  0  0  0  0  0  0  0  0  0
   31.9785   32.1889   22.3479 N   0  0  0  0  0  0  0  0  0  0  0  0
   33.7867   33.6654   22.6014 N   0  0  0  0  0  0  0  0  0  0  0  0
   34.8386   34.0137   23.4434 C   0  0  0  0  0  0  0  0  0  0  0  0
   35.1354   33.4309   24.6815 C   0  0  0  0  0  0  0  0  0  0  0  0
   34.3565   32.3785   25.1843 C   0  0  0  0  0  0  0  0  0  0  0  0
   34.5213   31.7788   26.2365 O   0  0  0  0  0  0  0  0  0  0  0  0
   36.2772   34.0635   25.2245 C   0  0  0  0  0  0  0  0  0  0  0  0
   36.6593   35.0331   24.3104 C   0  0  0  0  0  0  0  0  0  0  0  0
   35.7689   35.0093   23.2074 N   0  0  0  0  0  0  0  0  0  0  0  0
   36.8958   33.6785   26.5222 C   0  0  0  0  0  0  0  0  0  0  0  0
   38.2763   34.1788   26.6142 N   0  0  0  0  0  0  0  0  0  0  0  0
  1  2  1  0  0  0  0
  1  7  1  0  0  0  0
  2  3  1  0  0  0  0
  2  4  2  0  0  0  0
  4  5  1  0  0  0  0
  5  6  2  0  0  0  0
  5 11  1  0  0  0  0
  6  7  1  0  0  0  0
  6  9  1  0  0  0  0
  7  8  2  0  0  0  0
  9 10  2  0  0  0  0
  9 12  1  0  0  0  0
 10 11  1  0  0  0  0
 12 13  1  0  0  0  0
M  END
>  <CHROM.1>
161.28171865,34.97596839,33.35688816,24.47659660,2.87692190,-0.60256885,-0.94454436

>  <Name>
ligand

>  <RI>
0

>  <Rbt.Current_Directory>
/home/itssahil/PROJECTS/Mol_Feturizer/Test_systems_manuscript/rnas/3q50

>  <Rbt.Executable>
rbdock ($Id: //depot/dev/client3/rdock/2013.1/src/exe/rbdock.cxx#4 $)

>  <Rbt.Library>
libRbt.so (2013.1, Build901 2013/11/27)

>  <Rbt.Parameter_File>
/export/apps/rDock/src/rDock_2013.1_src/data/scripts/dock_solv.prm

>  <Rbt.Receptor>
prm/pocket_docking_3.prm

>  <SCORE>
-16.942

>  <SCORE.INTER>
-16.9663

>  <SCORE.INTER.CONST>
1

>  <SCORE.INTER.POLAR>
0

>  <SCORE.INTER.ROT>
1

>  <SCORE.INTER.SOLV>
22.0033

>  <SCORE.INTER.VDW>
-22.9119

>  <SCORE.INTER.norm>
-1.3051

>  <SCORE.INTRA>
0.0243064

>  <SCORE.INTRA.DIHEDRAL>
0.0728834

>  <SCORE.INTRA.DIHEDRAL.0>
1.65305

>  <SCORE.INTRA.POLAR>
0

>  <SCORE.INTRA.POLAR.0>
0

>  <SCORE.INTRA.REPUL>
0

>  <SCORE.INTRA.REPUL.0>
0

>  <SCORE.INTRA.SOLV>
0.00225489

>  <SCORE.INTRA.SOLV.lig_0>
-46.9527

>  <SCORE.INTRA.VDW>
-0.0132628

>  <SCORE.INTRA.VDW.0>
-0.177978

>  <SCORE.INTRA.norm>
0.00186972

>  <SCORE.RESTR>
0

>  <SCORE.RESTR.CAVITY>
0

>  <SCORE.RESTR.norm>
0

>  <SCORE.SYSTEM>
0

>  <SCORE.SYSTEM.CONST>
0

>  <SCORE.SYSTEM.DIHEDRAL>
0

>  <SCORE.SYSTEM.SOLV>
0

>  <SCORE.SYSTEM.norm>
0

>  <SCORE.heavy>
13

>  <SCORE.norm>
-1.30323

>  <RMSD>
2.613

$$$$
ligand
 OpenBabel02271912143D
libRbt.so/2013.1/901 2013/11/27
 13 14  0  0  0  0  0  0  0  0999 V2000
   33.2501   32.0216   24.3538 N   0  0  0  0  0  0  0  0  0  0  0  0
   33.0303   32.6576   23.1183 C   0  0  0  0  0  0  0  0  0  0  0  0
   31.9564   32.1996   22.3666 N   0  0  0  0  0  0  0  0  0  0  0  0
   33.7906   33.6483   22.5927 N   0  0  0  0  0  0  0  0  0  0  0  0
   34.8485   33.9937   23.4282 C   0  0  0  0  0  0  0  0  0  0  0  0
   35.1351   33.4292   24.6772 C   0  0  0  0  0  0  0  0  0  0  0  0
   34.3376   32.4005   25.1996 C   0  0  0  0  0  0  0  0  0  0  0  0
   34.4918   31.8180   26.2630 O   0  0  0  0  0  0  0  0  0  0  0  0
   36.2880   34.0515   25.2085 C   0  0  0  0  0  0  0  0  0  0  0  0
   36.6871   34.9968   24.2764 C   0  0  0  0  0  0  0  0  0  0  0  0
   35.7964   34.9679   23.1737 N   0  0  0  0  0  0  0  0  0  0  0  0
   36.8997   33.6802   26.5134 C   0  0  0  0  0  0  0  0  0  0  0  0
   38.2745   34.1943   26.6135 N   0  0  0  0  0  0  0  0  0  0  0  0
  1  2  1  0  0  0  0
  1  7  1  0  0  0  0
  2  3  1  0  0  0  0
  2  4  2  0  0  0  0
  4  5  1  0  0  0  0
  5  6  2  0  0  0  0
  5 11  1  0  0  0  0
  6  7  1  0  0  0  0
  6  9  1  0  0  0  0
  7  8  2  0  0  0  0
  9 10  2  0  0  0  0
  9 12  1  0  0  0  0
 10 11  1  0  0  0  0
 12 13  1  0  0  0  0
M  END
>  <CHROM.1>
163.07609157,34.97311798,33.35715900,24.47511053,2.86454009,-0.59075671,-0.97204250

>  <Name>
ligand

>  <RI>
0

>  <Rbt.Current_Directory>
/home/itssahil/PROJECTS/Mol_Feturizer/Test_systems_manuscript/rnas/3q50

>  <Rbt.Executable>
rbdock ($Id: //depot/dev/client3/rdock/2013.1/src/exe/rbdock.cxx#4 $)

>  <Rbt.Library>
libRbt.so (2013.1, Build901 2013/11/27)

>  <Rbt.Parameter_File>
/export/apps/rDock/src/rDock_2013.1_src/data/scripts/dock_solv.prm

>  <Rbt.Receptor>
prm/pocket_docking_5.prm

>  <SCORE>
-16.945

>  <SCORE.INTER>
-16.9712

>  <SCORE.INTER.CONST>
1

>  <SCORE.INTER.POLAR>
0

>  <SCORE.INTER.ROT>
1

>  <SCORE.INTER.SOLV>
22.0592

>  <SCORE.INTER.VDW>
-22.9339

>  <SCORE.INTER.norm>
-1.30548

>  <SCORE.INTRA>
0.0262348

>  <SCORE.INTRA.DIHEDRAL>
0.0695758

>  <SCORE.INTRA.DIHEDRAL.0>
1.65305

>  <SCORE.INTRA.POLAR>
0

>  <SCORE.INTRA.POLAR.0>
0

>  <SCORE.INTRA.REPUL>
0

>  <SCORE.INTRA.REPUL.0>
0

>  <SCORE.INTRA.SOLV>
0.00231462

>  <SCORE.INTRA.SOLV.lig_0>
-46.9527

>  <SCORE.INTRA.VDW>
-0.00971038

>  <SCORE.INTRA.VDW.0>
-0.177978

>  <SCORE.INTRA.norm>
0.00201806

>  <SCORE.RESTR>
0

>  <SCORE.RESTR.CAVITY>
0

>  <SCORE.RESTR.norm>
0

>  <SCORE.SYSTEM>
0

>  <SCORE.SYSTEM.CONST>
0

>  <SCORE.SYSTEM.DIHEDRAL>
0

>  <SCORE.SYSTEM.SOLV>
0

>  <SCORE.SYSTEM.norm>
0

>  <SCORE.heavy>
13

>  <SCORE.norm>
-1.30346

>  <RMSD>
2.613

$$$$
ligand
 OpenBabel02271912143D
libRbt.so/2013.1/901 2013/11/27
 13 14  0  0  0  0  0  0  0  0999 V2000
   33.2860   31.9861   24.3251 N   0  0  0  0  0  0  0  0  0  0  0  0
   33.0388   32.6486   23.1089 C   0  0  0  0  0  0  0  0  0  0  0  0
   31.9695   32.1838   22.3548 N   0  0  0  0  0  0  0  0  0  0  0  0
   33.7693   33.6715   22.6032 N   0  0  0  0  0  0  0  0  0  0  0  0
   34.8262   34.0212   23.4382 C   0  0  0  0  0  0  0  0  0  0  0  0
   35.1384   33.4315   24.6692 C   0  0  0  0  0  0  0  0  0  0  0  0
   34.3717   32.3697   25.1712 C   0  0  0  0  0  0  0  0  0  0  0  0
   34.5503   31.7634   26.2173 O   0  0  0  0  0  0  0  0  0  0  0  0
   36.2805   34.0682   25.2067 C   0  0  0  0  0  0  0  0  0  0  0  0
   36.6473   35.0474   24.2966 C   0  0  0  0  0  0  0  0  0  0  0  0
   35.7471   35.0253   23.2014 N   0  0  0  0  0  0  0  0  0  0  0  0
   36.9135   33.6781   26.4959 C   0  0  0  0  0  0  0  0  0  0  0  0
   38.2503   34.2783   26.6267 N   0  0  0  0  0  0  0  0  0  0  0  0
  1  2  1  0  0  0  0
  1  7  1  0  0  0  0
  2  3  1  0  0  0  0
  2  4  2  0  0  0  0
  4  5  1  0  0  0  0
  5  6  2  0  0  0  0
  5 11  1  0  0  0  0
  6  7  1  0  0  0  0
  6  9  1  0  0  0  0
  7  8  2  0  0  0  0
  9 10  2  0  0  0  0
  9 12  1  0  0  0  0
 10 11  1  0  0  0  0
 12 13  1  0  0  0  0
M  END
>  <CHROM.1>
165.87442261,34.97432687,33.36513678,24.46911866,2.89098814,-0.61005270,-0.93305845

>  <Name>
ligand

>  <RI>
0

>  <Rbt.Current_Directory>
/home/itssahil/PROJECTS/Mol_Feturizer/Test_systems_manuscript/rnas/3q50

>  <Rbt.Executable>
rbdock ($Id: //depot/dev/client3/rdock/2013.1/src/exe/rbdock.cxx#4 $)

>  <Rbt.Library>
libRbt.so (2013.1, Build901 2013/11/27)

>  <Rbt.Parameter_File>
/export/apps/rDock/src/rDock_2013.1_src/data/scripts/dock_solv.prm

>  <Rbt.Receptor>
prm/pocket_docking_7.prm

>  <SCORE>
-16.9194

>  <SCORE.INTER>
-16.9476

>  <SCORE.INTER.CONST>
1

>  <SCORE.INTER.POLAR>
0

>  <SCORE.INTER.ROT>
1

>  <SCORE.INTER.SOLV>
22.0688

>  <SCORE.INTER.VDW>
-22.9213

>  <SCORE.INTER.norm>
-1.30366

>  <SCORE.INTRA>
0.0282419

>  <SCORE.INTRA.DIHEDRAL>
0.0636791

>  <SCORE.INTRA.DIHEDRAL.0>
1.65305

>  <SCORE.INTRA.POLAR>
0

>  <SCORE.INTRA.POLAR.0>
0

>  <SCORE.INTRA.REPUL>
0

>  <SCORE.INTRA.REPUL.0>
0

>  <SCORE.INTRA.SOLV>
0.00235825

>  <SCORE.INTRA.SOLV.lig_0>
-46.9527

>  <SCORE.INTRA.VDW>
-0.00477677

>  <SCORE.INTRA.VDW.0>
-0.177978

>  <SCORE.INTRA.norm>
0.00217246

>  <SCORE.RESTR>
0

>  <SCORE.RESTR.CAVITY>
0

>  <SCORE.RESTR.norm>
0

>  <SCORE.SYSTEM>
0

>  <SCORE.SYSTEM.CONST>
0

>  <SCORE.SYSTEM.DIHEDRAL>
0

>  <SCORE.SYSTEM.SOLV>
0

>  <SCORE.SYSTEM.norm>
0

>  <SCORE.heavy>
13

>  <SCORE.norm>
-1.30149

>  <RMSD>
2.613

$$$$
ligand
 OpenBabel02271912143D
libRbt.so/2013.1/901 2013/11/27
 13 14  0  0  0  0  0  0  0  0999 V2000
   33.2239   32.0287   24.3370 N   0  0  0  0  0  0  0  0  0  0  0  0
   33.0156   32.6578   23.0960 C   0  0  0  0  0  0  0  0  0  0  0  0
   31.9434   32.2015   22.3408 N   0  0  0  0  0  0  0  0  0  0  0  0
   33.7853   33.6402   22.5686 N   0  0  0  0  0  0  0  0  0  0  0  0
   34.8403   33.9845   23.4082 C   0  0  0  0  0  0  0  0  0  0  0  0
   35.1157   33.4266   24.6626 C   0  0  0  0  0  0  0  0  0  0  0  0
   34.3086   32.4064   25.1870 C   0  0  0  0  0  0  0  0  0  0  0  0
   34.4527   31.8299   26.2551 O   0  0  0  0  0  0  0  0  0  0  0  0
   36.2693   34.0452   25.1969 C   0  0  0  0  0  0  0  0  0  0  0  0
   36.6800   34.9817   24.2610 C   0  0  0  0  0  0  0  0  0  0  0  0
   35.7958   34.9511   23.1531 N   0  0  0  0  0  0  0  0  0  0  0  0
   36.8707   33.6787   26.5079 C   0  0  0  0  0  0  0  0  0  0  0  0
   38.0970   34.4523   26.7571 N   0  0  0  0  0  0  0  0  0  0  0  0
  1  2  1  0  0  0  0
  1  7  1  0  0  0  0
  2  3  1  0  0  0  0
  2  4  2  0  0  0  0
  4  5  1  0  0  0  0
  5  6  2  0  0  0  0
  5 11  1  0  0  0  0
  6  7  1  0  0  0  0
  6  9  1  0  0  0  0
  7  8  2  0  0  0  0
  9 10  2  0  0  0  0
  9 12  1  0  0  0  0
 10 11  1  0  0  0  0
 12 13  1  0  0  0  0
M  END
>  <CHROM.1>
177.25648744,34.94226875,33.37596017,24.47178384,2.85126446,-0.61096118,-0.99687970

>  <Name>
ligand

>  <RI>
0

>  <Rbt.Current_Directory>
/home/itssahil/PROJECTS/Mol_Feturizer/Test_systems_manuscript/rnas/3q50

>  <Rbt.Executable>
rbdock ($Id: //depot/dev/client3/rdock/2013.1/src/exe/rbdock.cxx#4 $)

>  <Rbt.Library>
libRbt.so (2013.1, Build901 2013/11/27)

>  <Rbt.Parameter_File>
/export/apps/rDock/src/rDock_2013.1_src/data/scripts/dock_solv.prm

>  <Rbt.Receptor>
prm/blind_docking_60.prm

>  <SCORE>
-16.7515

>  <SCORE.INTER>
-16.7751

>  <SCORE.INTER.CONST>
1

>  <SCORE.INTER.POLAR>
0

>  <SCORE.INTER.ROT>
1

>  <SCORE.INTER.SOLV>
22.4206

>  <SCORE.INTER.VDW>
-22.9236

>  <SCORE.INTER.norm>
-1.29039

>  <SCORE.INTRA>
0.023564

>  <SCORE.INTRA.DIHEDRAL>
0.0331641

>  <SCORE.INTRA.DIHEDRAL.0>
1.65305

>  <SCORE.INTRA.POLAR>
0

>  <SCORE.INTRA.POLAR.0>
0

>  <SCORE.INTRA.REPUL>
0

>  <SCORE.INTRA.REPUL.0>
0

>  <SCORE.INTRA.SOLV>
0.0018191

>  <SCORE.INTRA.SOLV.lig_0>
-46.9527

>  <SCORE.INTRA.VDW>
0.00607242

>  <SCORE.INTRA.VDW.0>
-0.177978

>  <SCORE.INTRA.norm>
0.00181262

>  <SCORE.RESTR>
0

>  <SCORE.RESTR.CAVITY>
0

>  <SCORE.RESTR.norm>
0

>  <SCORE.SYSTEM>
0

>  <SCORE.SYSTEM.CONST>
0

>  <SCORE.SYSTEM.DIHEDRAL>
0

>  <SCORE.SYSTEM.SOLV>
0

>  <SCORE.SYSTEM.norm>
0

>  <SCORE.heavy>
13

>  <SCORE.norm>
-1.28858

>  <RMSD>
2.614

$$$$
ligand
 OpenBabel02271912143D
libRbt.so/2013.1/901 2013/11/27
 13 14  0  0  0  0  0  0  0  0999 V2000
   33.2548   32.0182   24.3389 N   0  0  0  0  0  0  0  0  0  0  0  0
   33.0409   32.6544   23.1024 C   0  0  0  0  0  0  0  0  0  0  0  0
   31.9718   32.1954   22.3447 N   0  0  0  0  0  0  0  0  0  0  0  0
   33.8029   33.6463   22.5815 N   0  0  0  0  0  0  0  0  0  0  0  0
   34.8558   33.9927   23.4230 C   0  0  0  0  0  0  0  0  0  0  0  0
   35.1361   33.4281   24.6732 C   0  0  0  0  0  0  0  0  0  0  0  0
   34.3371   32.3981   25.1908 C   0  0  0  0  0  0  0  0  0  0  0  0
   34.4862   31.8153   26.2548 O   0  0  0  0  0  0  0  0  0  0  0  0
   36.2853   34.0516   25.2112 C   0  0  0  0  0  0  0  0  0  0  0  0
   36.6884   34.9977   24.2817 C   0  0  0  0  0  0  0  0  0  0  0  0
   35.8038   34.9682   23.1741 N   0  0  0  0  0  0  0  0  0  0  0  0
   36.8903   33.6804   26.5192 C   0  0  0  0  0  0  0  0  0  0  0  0
   38.2715   34.1773   26.6182 N   0  0  0  0  0  0  0  0  0  0  0  0
  1  2  1  0  0  0  0
  1  7  1  0  0  0  0
  2  3  1  0  0  0  0
  2  4  2  0  0  0  0
  4  5  1  0  0  0  0
  5  6  2  0  0  0  0
  5 11  1  0  0  0  0
  6  7  1  0  0  0  0
  6  9  1  0  0  0  0
  7  8  2  0  0  0  0
  9 10  2  0  0  0  0
  9 12  1  0  0  0  0
 10 11  1  0  0  0  0
 12 13  1  0  0  0  0
M  END
>  <CHROM.1>
162.14655981,34.97603114,33.35431748,24.46953396,2.85988813,-0.59352003,-0.97335167

>  <Name>
ligand

>  <RI>
0

>  <Rbt.Current_Directory>
/home/itssahil/PROJECTS/Mol_Feturizer/Test_systems_manuscript/rnas/3q50

>  <Rbt.Executable>
rbdock ($Id: //depot/dev/client3/rdock/2013.1/src/exe/rbdock.cxx#4 $)

>  <Rbt.Library>
libRbt.so (2013.1, Build901 2013/11/27)

>  <Rbt.Parameter_File>
/export/apps/rDock/src/rDock_2013.1_src/data/scripts/dock_solv.prm

>  <Rbt.Receptor>
prm/pocket_docking_7.prm

>  <SCORE>
-16.9432

>  <SCORE.INTER>
-16.9685

>  <SCORE.INTER.CONST>
1

>  <SCORE.INTER.POLAR>
0

>  <SCORE.INTER.ROT>
1

>  <SCORE.INTER.SOLV>
22.0202

>  <SCORE.INTER.VDW>
-22.9191

>  <SCORE.INTER.norm>
-1.30527

>  <SCORE.INTRA>
0.0252974

>  <SCORE.INTRA.DIHEDRAL>
0.0713381

>  <SCORE.INTRA.DIHEDRAL.0>
1.65305

>  <SCORE.INTRA.POLAR>
0

>  <SCORE.INTRA.POLAR.0>
0

>  <SCORE.INTRA.REPUL>
0

>  <SCORE.INTRA.REPUL.0>
0

>  <SCORE.INTRA.SOLV>
0.00228663

>  <SCORE.INTRA.SOLV.lig_0>
-46.9527

>  <SCORE.INTRA.VDW>
-0.0115149

>  <SCORE.INTRA.VDW.0>
-0.177978

>  <SCORE.INTRA.norm>
0.00194596

>  <SCORE.RESTR>
0

>  <SCORE.RESTR.CAVITY>
0

>  <SCORE.RESTR.norm>
0

>  <SCORE.SYSTEM>
0

>  <SCORE.SYSTEM.CONST>
0

>  <SCORE.SYSTEM.DIHEDRAL>
0

>  <SCORE.SYSTEM.SOLV>
0

>  <SCORE.SYSTEM.norm>
0

>  <SCORE.heavy>
13

>  <SCORE.norm>
-1.30333

>  <RMSD>
2.614

$$$$
ligand
 OpenBabel02271912143D
libRbt.so/2013.1/901 2013/11/27
 13 14  0  0  0  0  0  0  0  0999 V2000
   33.2539   31.9812   24.3136 N   0  0  0  0  0  0  0  0  0  0  0  0
   33.0244   32.6493   23.0969 C   0  0  0  0  0  0  0  0  0  0  0  0
   31.9543   32.2005   22.3344 N   0  0  0  0  0  0  0  0  0  0  0  0
   33.7725   33.6630   22.5983 N   0  0  0  0  0  0  0  0  0  0  0  0
   34.8281   33.9967   23.4414 C   0  0  0  0  0  0  0  0  0  0  0  0
   35.1235   33.4004   24.6734 C   0  0  0  0  0  0  0  0  0  0  0  0
   34.3388   32.3484   25.1679 C   0  0  0  0  0  0  0  0  0  0  0  0
   34.5017   31.7378   26.2141 O   0  0  0  0  0  0  0  0  0  0  0  0
   36.2704   34.0205   25.2201 C   0  0  0  0  0  0  0  0  0  0  0  0
   36.6569   34.9962   24.3144 C   0  0  0  0  0  0  0  0  0  0  0  0
   35.7644   34.9884   23.2129 N   0  0  0  0  0  0  0  0  0  0  0  0
   36.8889   33.6194   26.5129 C   0  0  0  0  0  0  0  0  0  0  0  0
   38.1002   34.4098   26.7825 N   0  0  0  0  0  0  0  0  0  0  0  0
  1  2  1  0  0  0  0
  1  7  1  0  0  0  0
  2  3  1  0  0  0  0
  2  4  2  0  0  0  0
  4  5  1  0  0  0  0
  5  6  2  0  0  0  0
  5 11  1  0  0  0  0
  6  7  1  0  0  0  0
  6  9  1  0  0  0  0
  7  8  2  0  0  0  0
  9 10  2  0  0  0  0
  9 12  1  0  0  0  0
 10 11  1  0  0  0  0
 12 13  1  0  0  0  0
M  END
>  <CHROM.1>
177.50683927,34.94915803,33.35371215,24.48245257,2.87134111,-0.62153040,-0.95057498

>  <Name>
ligand

>  <RI>
0

>  <Rbt.Current_Directory>
/home/itssahil/PROJECTS/Mol_Feturizer/Test_systems_manuscript/rnas/3q50

>  <Rbt.Executable>
rbdock ($Id: //depot/dev/client3/rdock/2013.1/src/exe/rbdock.cxx#4 $)

>  <Rbt.Library>
libRbt.so (2013.1, Build901 2013/11/27)

>  <Rbt.Parameter_File>
/export/apps/rDock/src/rDock_2013.1_src/data/scripts/dock_solv.prm

>  <Rbt.Receptor>
prm/blind_docking_60.prm

>  <SCORE>
-16.7203

>  <SCORE.INTER>
-16.7437

>  <SCORE.INTER.CONST>
1

>  <SCORE.INTER.POLAR>
0

>  <SCORE.INTER.ROT>
1

>  <SCORE.INTER.SOLV>
22.348

>  <SCORE.INTER.VDW>
-22.8785

>  <SCORE.INTER.norm>
-1.28797

>  <SCORE.INTRA>
0.0232358

>  <SCORE.INTRA.DIHEDRAL>
0.032426

>  <SCORE.INTRA.DIHEDRAL.0>
1.65305

>  <SCORE.INTRA.POLAR>
0

>  <SCORE.INTRA.POLAR.0>
0

>  <SCORE.INTRA.REPUL>
0

>  <SCORE.INTRA.REPUL.0>
0

>  <SCORE.INTRA.SOLV>
0.00179334

>  <SCORE.INTRA.SOLV.lig_0>
-46.9527

>  <SCORE.INTRA.VDW>
0.00612618

>  <SCORE.INTRA.VDW.0>
-0.177978

>  <SCORE.INTRA.norm>
0.00178737

>  <SCORE.RESTR>
0.00016694

>  <SCORE.RESTR.CAVITY>
0.00016694

>  <SCORE.RESTR.norm>
1.28415e-05

>  <SCORE.SYSTEM>
0

>  <SCORE.SYSTEM.CONST>
0

>  <SCORE.SYSTEM.DIHEDRAL>
0

>  <SCORE.SYSTEM.SOLV>
0

>  <SCORE.SYSTEM.norm>
0

>  <SCORE.heavy>
13

>  <SCORE.norm>
-1.28617

>  <RMSD>
2.617

$$$$
ligand
 OpenBabel02271912143D
libRbt.so/2013.1/901 2013/11/27
 13 14  0  0  0  0  0  0  0  0999 V2000
   33.2599   31.9795   24.3231 N   0  0  0  0  0  0  0  0  0  0  0  0
   33.0091   32.6545   23.1144 C   0  0  0  0  0  0  0  0  0  0  0  0
   31.9297   32.2057   22.3651 N   0  0  0  0  0  0  0  0  0  0  0  0
   33.7449   33.6749   22.6115 N   0  0  0  0  0  0  0  0  0  0  0  0
   34.8115   34.0080   23.4409 C   0  0  0  0  0  0  0  0  0  0  0  0
   35.1281   33.4051   24.6643 C   0  0  0  0  0  0  0  0  0  0  0  0
   34.3558   32.3461   25.1635 C   0  0  0  0  0  0  0  0  0  0  0  0
   34.5372   31.7294   26.2031 O   0  0  0  0  0  0  0  0  0  0  0  0
   36.2802   34.0270   25.1979 C   0  0  0  0  0  0  0  0  0  0  0  0
   36.6486   35.0104   24.2931 C   0  0  0  0  0  0  0  0  0  0  0  0
   35.7396   35.0057   23.2050 N   0  0  0  0  0  0  0  0  0  0  0  0
   36.9199   33.6203   26.4786 C   0  0  0  0  0  0  0  0  0  0  0  0
   38.1001   34.4515   26.7627 N   0  0  0  0  0  0  0  0  0  0  0  0
  1  2  1  0  0  0  0
  1  7  1  0  0  0  0
  2  3  1  0  0  0  0
  2  4  2  0  0  0  0
  4  5  1  0  0  0  0
  5  6  2  0  0  0  0
  5 11  1  0  0  0  0
  6  7  1  0  0  0  0
  6  9  1  0  0  0  0
  7  8  2  0  0  0  0
  9 10  2  0  0  0  0
  9 12  1  0  0  0  0
 10 11  1  0  0  0  0
 12 13  1  0  0  0  0
M  END
>  <CHROM.1>
179.82592129,34.94859483,33.36183720,24.47792367,2.88855367,-0.62024013,-0.93519680

>  <Name>
ligand

>  <RI>
0

>  <Rbt.Current_Directory>
/home/itssahil/PROJECTS/Mol_Feturizer/Test_systems_manuscript/rnas/3q50

>  <Rbt.Executable>
rbdock ($Id: //depot/dev/client3/rdock/2013.1/src/exe/rbdock.cxx#4 $)

>  <Rbt.Library>
libRbt.so (2013.1, Build901 2013/11/27)

>  <Rbt.Parameter_File>
/export/apps/rDock/src/rDock_2013.1_src/data/scripts/dock_solv.prm

>  <Rbt.Receptor>
prm/blind_docking_80.prm

>  <SCORE>
-16.7381

>  <SCORE.INTER>
-16.758

>  <SCORE.INTER.CONST>
1

>  <SCORE.INTER.POLAR>
0

>  <SCORE.INTER.ROT>
1

>  <SCORE.INTER.SOLV>
22.3941

>  <SCORE.INTER.VDW>
-22.9033

>  <SCORE.INTER.norm>
-1.28908

>  <SCORE.INTRA>
0.019771

>  <SCORE.INTRA.DIHEDRAL>
0.0255602

>  <SCORE.INTRA.DIHEDRAL.0>
1.65305

>  <SCORE.INTRA.POLAR>
0

>  <SCORE.INTRA.POLAR.0>
0

>  <SCORE.INTRA.REPUL>
0

>  <SCORE.INTRA.REPUL.0>
0

>  <SCORE.INTRA.SOLV>
0.00152554

>  <SCORE.INTRA.SOLV.lig_0>
-46.9527

>  <SCORE.INTRA.VDW>
0.00622815

>  <SCORE.INTRA.VDW.0>
-0.177978

>  <SCORE.INTRA.norm>
0.00152085

>  <SCORE.RESTR>
9.11234e-05

>  <SCORE.RESTR.CAVITY>
9.11234e-05

>  <SCORE.RESTR.norm>
7.00949e-06

>  <SCORE.SYSTEM>
0

>  <SCORE.SYSTEM.CONST>
0

>  <SCORE.SYSTEM.DIHEDRAL>
0

>  <SCORE.SYSTEM.SOLV>
0

>  <SCORE.SYSTEM.norm>
0

>  <SCORE.heavy>
13

>  <SCORE.norm>
-1.28755

>  <RMSD>
2.617

$$$$
ligand
 OpenBabel02271912143D
libRbt.so/2013.1/901 2013/11/27
 13 14  0  0  0  0  0  0  0  0999 V2000
   33.2654   31.9743   24.3117 N   0  0  0  0  0  0  0  0  0  0  0  0
   33.0159   32.6504   23.1034 C   0  0  0  0  0  0  0  0  0  0  0  0
   31.9400   32.1995   22.3504 N   0  0  0  0  0  0  0  0  0  0  0  0
   33.7499   33.6740   22.6041 N   0  0  0  0  0  0  0  0  0  0  0  0
   34.8131   34.0091   23.4371 C   0  0  0  0  0  0  0  0  0  0  0  0
   35.1282   33.4052   24.6604 C   0  0  0  0  0  0  0  0  0  0  0  0
   34.3578   32.3430   25.1558 C   0  0  0  0  0  0  0  0  0  0  0  0
   34.5382   31.7252   26.1949 O   0  0  0  0  0  0  0  0  0  0  0  0
   36.2769   34.0297   25.1982 C   0  0  0  0  0  0  0  0  0  0  0  0
   36.6447   35.0158   24.2960 C   0  0  0  0  0  0  0  0  0  0  0  0
   35.7388   35.0100   23.2054 N   0  0  0  0  0  0  0  0  0  0  0  0
   36.9142   33.6230   26.4801 C   0  0  0  0  0  0  0  0  0  0  0  0
   38.1000   34.4473   26.7611 N   0  0  0  0  0  0  0  0  0  0  0  0
  1  2  1  0  0  0  0
  1  7  1  0  0  0  0
  2  3  1  0  0  0  0
  2  4  2  0  0  0  0
  4  5  1  0  0  0  0
  5  6  2  0  0  0  0
  5 11  1  0  0  0  0
  6  7  1  0  0  0  0
  6  9  1  0  0  0  0
  7  8  2  0  0  0  0
  9 10  2  0  0  0  0
  9 12  1  0  0  0  0
 10 11  1  0  0  0  0
 12 13  1  0  0  0  0
M  END
>  <CHROM.1>
179.17861316,34.95006646,33.36081119,24.47283759,2.88838010,-0.62335189,-0.93336578

>  <Name>
ligand

>  <RI>
0

>  <Rbt.Current_Directory>
/home/itssahil/PROJECTS/Mol_Feturizer/Test_systems_manuscript/rnas/3q50

>  <Rbt.Executable>
rbdock ($Id: //depot/dev/client3/rdock/2013.1/src/exe/rbdock.cxx#4 $)

>  <Rbt.Library>
libRbt.so (2013.1, Build901 2013/11/27)

>  <Rbt.Parameter_File>
/export/apps/rDock/src/rDock_2013.1_src/data/scripts/dock_solv.prm

>  <Rbt.Receptor>
prm/blind_docking_80.prm

>  <SCORE>
-16.7366

>  <SCORE.INTER>
-16.7574

>  <SCORE.INTER.CONST>
1

>  <SCORE.INTER.POLAR>
0

>  <SCORE.INTER.ROT>
1

>  <SCORE.INTER.SOLV>
22.3693

>  <SCORE.INTER.VDW>
-22.8947

>  <SCORE.INTER.norm>
-1.28903

>  <SCORE.INTRA>
0.0208139

>  <SCORE.INTRA.DIHEDRAL>
0.0274789

>  <SCORE.INTRA.DIHEDRAL.0>
1.65305

>  <SCORE.INTRA.POLAR>
0

>  <SCORE.INTRA.POLAR.0>
0

>  <SCORE.INTRA.REPUL>
0

>  <SCORE.INTRA.REPUL.0>
0

>  <SCORE.INTRA.SOLV>
0.00160558

>  <SCORE.INTRA.SOLV.lig_0>
-46.9527

>  <SCORE.INTRA.VDW>
0.00627165

>  <SCORE.INTRA.VDW.0>
-0.177978

>  <SCORE.INTRA.norm>
0.00160107

>  <SCORE.RESTR>
0

>  <SCORE.RESTR.CAVITY>
0

>  <SCORE.RESTR.norm>
0

>  <SCORE.SYSTEM>
0

>  <SCORE.SYSTEM.CONST>
0

>  <SCORE.SYSTEM.DIHEDRAL>
0

>  <SCORE.SYSTEM.SOLV>
0

>  <SCORE.SYSTEM.norm>
0

>  <SCORE.heavy>
13

>  <SCORE.norm>
-1.28743

>  <RMSD>
2.617

$$$$
ligand
 OpenBabel02271912143D
libRbt.so/2013.1/901 2013/11/27
 13 14  0  0  0  0  0  0  0  0999 V2000
   33.2826   31.9713   24.3048 N   0  0  0  0  0  0  0  0  0  0  0  0
   33.0491   32.6344   23.0861 C   0  0  0  0  0  0  0  0  0  0  0  0
   31.9879   32.1704   22.3202 N   0  0  0  0  0  0  0  0  0  0  0  0
   33.7857   33.6570   22.5887 N   0  0  0  0  0  0  0  0  0  0  0  0
   34.8336   34.0058   23.4354 C   0  0  0  0  0  0  0  0  0  0  0  0
   35.1320   33.4155   24.6695 C   0  0  0  0  0  0  0  0  0  0  0  0
   34.3592   32.3540   25.1627 C   0  0  0  0  0  0  0  0  0  0  0  0
   34.5260   31.7473   26.2106 O   0  0  0  0  0  0  0  0  0  0  0  0
   36.2685   34.0514   25.2197 C   0  0  0  0  0  0  0  0  0  0  0  0
   36.6458   35.0306   24.3139 C   0  0  0  0  0  0  0  0  0  0  0  0
   35.7577   35.0094   23.2089 N   0  0  0  0  0  0  0  0  0  0  0  0
   36.8872   33.6605   26.5155 C   0  0  0  0  0  0  0  0  0  0  0  0
   38.2333   34.2387   26.6497 N   0  0  0  0  0  0  0  0  0  0  0  0
  1  2  1  0  0  0  0
  1  7  1  0  0  0  0
  2  3  1  0  0  0  0
  2  4  2  0  0  0  0
  4  5  1  0  0  0  0
  5  6  2  0  0  0  0
  5 11  1  0  0  0  0
  6  7  1  0  0  0  0
  6  9  1  0  0  0  0
  7  8  2  0  0  0  0
  9 10  2  0  0  0  0
  9 12  1  0  0  0  0
 10 11  1  0  0  0  0
 12 13  1  0  0  0  0
M  END
>  <CHROM.1>
164.77952377,34.97092887,33.34758809,24.46667511,2.87986655,-0.61437731,-0.93824096

>  <Name>
ligand

>  <RI>
0

>  <Rbt.Current_Directory>
/home/itssahil/PROJECTS/Mol_Feturizer/Test_systems_manuscript/rnas/3q50

>  <Rbt.Executable>
rbdock ($Id: //depot/dev/client3/rdock/2013.1/src/exe/rbdock.cxx#4 $)

>  <Rbt.Library>
libRbt.so (2013.1, Build901 2013/11/27)

>  <Rbt.Parameter_File>
/export/apps/rDock/src/rDock_2013.1_src/data/scripts/dock_solv.prm

>  <Rbt.Receptor>
prm/pocket_docking_8.prm

>  <SCORE>
-16.9032

>  <SCORE.INTER>
-16.9309

>  <SCORE.INTER.CONST>
1

>  <SCORE.INTER.POLAR>
0

>  <SCORE.INTER.ROT>
1

>  <SCORE.INTER.SOLV>
22.0096

>  <SCORE.INTER.VDW>
-22.8904

>  <SCORE.INTER.norm>
-1.30237

>  <SCORE.INTRA>
0.0276037

>  <SCORE.INTRA.DIHEDRAL>
0.0660874

>  <SCORE.INTRA.DIHEDRAL.0>
1.65305

>  <SCORE.INTRA.POLAR>
0

>  <SCORE.INTRA.POLAR.0>
0

>  <SCORE.INTRA.REPUL>
0

>  <SCORE.INTRA.REPUL.0>
0

>  <SCORE.INTRA.SOLV>
0.00234867

>  <SCORE.INTRA.SOLV.lig_0>
-46.9527

>  <SCORE.INTRA.VDW>
-0.00661435

>  <SCORE.INTRA.VDW.0>
-0.177978

>  <SCORE.INTRA.norm>
0.00212336

>  <SCORE.RESTR>
0

>  <SCORE.RESTR.CAVITY>
0

>  <SCORE.RESTR.norm>
0

>  <SCORE.SYSTEM>
0

>  <SCORE.SYSTEM.CONST>
0

>  <SCORE.SYSTEM.DIHEDRAL>
0

>  <SCORE.SYSTEM.SOLV>
0

>  <SCORE.SYSTEM.norm>
0

>  <SCORE.heavy>
13

>  <SCORE.norm>
-1.30025

>  <RMSD>
2.617

$$$$
ligand
 OpenBabel02271912143D
libRbt.so/2013.1/901 2013/11/27
 13 14  0  0  0  0  0  0  0  0999 V2000
   33.2021   32.0227   24.3634 N   0  0  0  0  0  0  0  0  0  0  0  0
   32.9594   32.6833   23.1452 C   0  0  0  0  0  0  0  0  0  0  0  0
   31.8739   32.2377   22.4028 N   0  0  0  0  0  0  0  0  0  0  0  0
   33.7079   33.6870   22.6274 N   0  0  0  0  0  0  0  0  0  0  0  0
   34.7790   34.0184   23.4516 C   0  0  0  0  0  0  0  0  0  0  0  0
   35.0885   33.4291   24.6835 C   0  0  0  0  0  0  0  0  0  0  0  0
   34.3029   32.3874   25.1981 C   0  0  0  0  0  0  0  0  0  0  0  0
   34.4770   31.7835   26.2465 O   0  0  0  0  0  0  0  0  0  0  0  0
   36.2487   34.0439   25.2078 C   0  0  0  0  0  0  0  0  0  0  0  0
   36.6292   35.0094   24.2887 C   0  0  0  0  0  0  0  0  0  0  0  0
   35.7197   35.0005   23.2011 N   0  0  0  0  0  0  0  0  0  0  0  0
   36.8837   33.6476   26.4940 C   0  0  0  0  0  0  0  0  0  0  0  0
   38.0992   34.4378   26.7443 N   0  0  0  0  0  0  0  0  0  0  0  0
  1  2  1  0  0  0  0
  1  7  1  0  0  0  0
  2  3  1  0  0  0  0
  2  4  2  0  0  0  0
  4  5  1  0  0  0  0
  5  6  2  0  0  0  0
  5 11  1  0  0  0  0
  6  7  1  0  0  0  0
  6  9  1  0  0  0  0
  7  8  2  0  0  0  0
  9 10  2  0  0  0  0
  9 12  1  0  0  0  0
 10 11  1  0  0  0  0
 12 13  1  0  0  0  0
M  END
>  <CHROM.1>
177.98053116,34.91035914,33.38304740,24.49607205,2.88061869,-0.60669151,-0.95320329

>  <Name>
ligand

>  <RI>
0

>  <Rbt.Current_Directory>
/home/itssahil/PROJECTS/Mol_Feturizer/Test_systems_manuscript/rnas/3q50

>  <Rbt.Executable>
rbdock ($Id: //depot/dev/client3/rdock/2013.1/src/exe/rbdock.cxx#4 $)

>  <Rbt.Library>
libRbt.so (2013.1, Build901 2013/11/27)

>  <Rbt.Parameter_File>
/export/apps/rDock/src/rDock_2013.1_src/data/scripts/dock_solv.prm

>  <Rbt.Receptor>
prm/blind_docking_80.prm

>  <SCORE>
-16.7502

>  <SCORE.INTER>
-16.7728

>  <SCORE.INTER.CONST>
1

>  <SCORE.INTER.POLAR>
0

>  <SCORE.INTER.ROT>
1

>  <SCORE.INTER.SOLV>
22.4467

>  <SCORE.INTER.VDW>
-22.9308

>  <SCORE.INTER.norm>
-1.29022

>  <SCORE.INTRA>
0.02259

>  <SCORE.INTRA.DIHEDRAL>
0.0310269

>  <SCORE.INTRA.DIHEDRAL.0>
1.65305

>  <SCORE.INTRA.POLAR>
0

>  <SCORE.INTRA.POLAR.0>
0

>  <SCORE.INTRA.REPUL>
0

>  <SCORE.INTRA.REPUL.0>
0

>  <SCORE.INTRA.SOLV>
0.00174291

>  <SCORE.INTRA.SOLV.lig_0>
-46.9527

>  <SCORE.INTRA.VDW>
0.00620513

>  <SCORE.INTRA.VDW.0>
-0.177978

>  <SCORE.INTRA.norm>
0.00173769

>  <SCORE.RESTR>
0

>  <SCORE.RESTR.CAVITY>
0

>  <SCORE.RESTR.norm>
0

>  <SCORE.SYSTEM>
0

>  <SCORE.SYSTEM.CONST>
0

>  <SCORE.SYSTEM.DIHEDRAL>
0

>  <SCORE.SYSTEM.SOLV>
0

>  <SCORE.SYSTEM.norm>
0

>  <SCORE.heavy>
13

>  <SCORE.norm>
-1.28848

>  <RMSD>
2.619

$$$$
ligand
 OpenBabel02271912143D
libRbt.so/2013.1/901 2013/11/27
 13 14  0  0  0  0  0  0  0  0999 V2000
   33.1950   32.0339   24.3459 N   0  0  0  0  0  0  0  0  0  0  0  0
   32.9929   32.6546   23.0996 C   0  0  0  0  0  0  0  0  0  0  0  0
   31.9200   32.1983   22.3454 N   0  0  0  0  0  0  0  0  0  0  0  0
   33.7691   33.6288   22.5665 N   0  0  0  0  0  0  0  0  0  0  0  0
   34.8240   33.9739   23.4059 C   0  0  0  0  0  0  0  0  0  0  0  0
   35.0935   33.4241   24.6652 C   0  0  0  0  0  0  0  0  0  0  0  0
   34.2798   32.4122   25.1954 C   0  0  0  0  0  0  0  0  0  0  0  0
   34.4183   31.8433   26.2683 O   0  0  0  0  0  0  0  0  0  0  0  0
   36.2491   34.0406   25.1974 C   0  0  0  0  0  0  0  0  0  0  0  0
   36.6670   34.9677   24.2553 C   0  0  0  0  0  0  0  0  0  0  0  0
   35.7852   34.9333   23.1457 N   0  0  0  0  0  0  0  0  0  0  0  0
   36.8456   33.6809   26.5125 C   0  0  0  0  0  0  0  0  0  0  0  0
   38.1002   34.4154   26.7380 N   0  0  0  0  0  0  0  0  0  0  0  0
  1  2  1  0  0  0  0
  1  7  1  0  0  0  0
  2  3  1  0  0  0  0
  2  4  2  0  0  0  0
  4  5  1  0  0  0  0
  5  6  2  0  0  0  0
  5 11  1  0  0  0  0
  6  7  1  0  0  0  0
  6  9  1  0  0  0  0
  7  8  2  0  0  0  0
  9 10  2  0  0  0  0
  9 12  1  0  0  0  0
 10 11  1  0  0  0  0
 12 13  1  0  0  0  0
M  END
>  <CHROM.1>
175.29099941,34.92223473,33.37012811,24.47265303,2.84617058,-0.60456856,-1.00618632

>  <Name>
ligand

>  <RI>
0

>  <Rbt.Current_Directory>
/home/itssahil/PROJECTS/Mol_Feturizer/Test_systems_manuscript/rnas/3q50

>  <Rbt.Executable>
rbdock ($Id: //depot/dev/client3/rdock/2013.1/src/exe/rbdock.cxx#4 $)

>  <Rbt.Library>
libRbt.so (2013.1, Build901 2013/11/27)

>  <Rbt.Parameter_File>
/export/apps/rDock/src/rDock_2013.1_src/data/scripts/dock_solv.prm

>  <Rbt.Receptor>
prm/blind_docking_80.prm

>  <SCORE>
-16.7509

>  <SCORE.INTER>
-16.777

>  <SCORE.INTER.CONST>
1

>  <SCORE.INTER.POLAR>
0

>  <SCORE.INTER.ROT>
1

>  <SCORE.INTER.SOLV>
22.3982

>  <SCORE.INTER.VDW>
-22.9174

>  <SCORE.INTER.norm>
-1.29053

>  <SCORE.INTRA>
0.0258184

>  <SCORE.INTRA.DIHEDRAL>
0.0389122

>  <SCORE.INTRA.DIHEDRAL.0>
1.65305

>  <SCORE.INTRA.POLAR>
0

>  <SCORE.INTRA.POLAR.0>
0

>  <SCORE.INTRA.REPUL>
0

>  <SCORE.INTRA.REPUL.0>
0

>  <SCORE.INTRA.SOLV>
0.00200003

>  <SCORE.INTRA.SOLV.lig_0>
-46.9527

>  <SCORE.INTRA.VDW>
0.00536233

>  <SCORE.INTRA.VDW.0>
-0.177978

>  <SCORE.INTRA.norm>
0.00198603

>  <SCORE.RESTR>
0.000208434

>  <SCORE.RESTR.CAVITY>
0.000208434

>  <SCORE.RESTR.norm>
1.60334e-05

>  <SCORE.SYSTEM>
0

>  <SCORE.SYSTEM.CONST>
0

>  <SCORE.SYSTEM.DIHEDRAL>
0

>  <SCORE.SYSTEM.SOLV>
0

>  <SCORE.SYSTEM.norm>
0

>  <SCORE.heavy>
13

>  <SCORE.norm>
-1.28853

>  <RMSD>
2.619

$$$$
ligand
 OpenBabel02271912143D
libRbt.so/2013.1/901 2013/11/27
 13 14  0  0  0  0  0  0  0  0999 V2000
   33.2145   32.0251   24.3521 N   0  0  0  0  0  0  0  0  0  0  0  0
   32.9805   32.6833   23.1309 C   0  0  0  0  0  0  0  0  0  0  0  0
   31.9014   32.2350   22.3808 N   0  0  0  0  0  0  0  0  0  0  0  0
   33.7318   33.6869   22.6171 N   0  0  0  0  0  0  0  0  0  0  0  0
   34.7961   34.0210   23.4490 C   0  0  0  0  0  0  0  0  0  0  0  0
   35.0967   33.4344   24.6844 C   0  0  0  0  0  0  0  0  0  0  0  0
   34.3084   32.3926   25.1947 C   0  0  0  0  0  0  0  0  0  0  0  0
   34.4750   31.7908   26.2454 O   0  0  0  0  0  0  0  0  0  0  0  0
   36.2520   34.0514   25.2165 C   0  0  0  0  0  0  0  0  0  0  0  0
   36.6385   35.0157   24.2987 C   0  0  0  0  0  0  0  0  0  0  0  0
   35.7376   35.0039   23.2041 N   0  0  0  0  0  0  0  0  0  0  0  0
   36.8775   33.6582   26.5084 C   0  0  0  0  0  0  0  0  0  0  0  0
   38.2151   34.2551   26.6468 N   0  0  0  0  0  0  0  0  0  0  0  0
  1  2  1  0  0  0  0
  1  7  1  0  0  0  0
  2  3  1  0  0  0  0
  2  4  2  0  0  0  0
  4  5  1  0  0  0  0
  5  6  2  0  0  0  0
  5 11  1  0  0  0  0
  6  7  1  0  0  0  0
  6  9  1  0  0  0  0
  7  8  2  0  0  0  0
  9 10  2  0  0  0  0
  9 12  1  0  0  0  0
 10 11  1  0  0  0  0
 12 13  1  0  0  0  0
M  END
>  <CHROM.1>
167.08552139,34.93024362,33.37183912,24.48588104,2.87653953,-0.59490413,-0.94990237

>  <Name>
ligand

>  <RI>
0

>  <Rbt.Current_Directory>
/home/itssahil/PROJECTS/Mol_Feturizer/Test_systems_manuscript/rnas/3q50

>  <Rbt.Executable>
rbdock ($Id: //depot/dev/client3/rdock/2013.1/src/exe/rbdock.cxx#4 $)

>  <Rbt.Library>
libRbt.so (2013.1, Build901 2013/11/27)

>  <Rbt.Parameter_File>
/export/apps/rDock/src/rDock_2013.1_src/data/scripts/dock_solv.prm

>  <Rbt.Receptor>
prm/pocket_docking_8.prm

>  <SCORE>
-16.8611

>  <SCORE.INTER>
-16.8898

>  <SCORE.INTER.CONST>
1

>  <SCORE.INTER.POLAR>
0

>  <SCORE.INTER.ROT>
1

>  <SCORE.INTER.SOLV>
22.1318

>  <SCORE.INTER.VDW>
-22.9038

>  <SCORE.INTER.norm>
-1.29921

>  <SCORE.INTRA>
0.0287252

>  <SCORE.INTRA.DIHEDRAL>
0.060875

>  <SCORE.INTRA.DIHEDRAL.0>
1.65305

>  <SCORE.INTRA.POLAR>
0

>  <SCORE.INTRA.POLAR.0>
0

>  <SCORE.INTRA.REPUL>
0

>  <SCORE.INTRA.REPUL.0>
0

>  <SCORE.INTRA.SOLV>
0.00235715

>  <SCORE.INTRA.SOLV.lig_0>
-46.9527

>  <SCORE.INTRA.VDW>
-0.00289086

>  <SCORE.INTRA.VDW.0>
-0.177978

>  <SCORE.INTRA.norm>
0.00220963

>  <SCORE.RESTR>
0

>  <SCORE.RESTR.CAVITY>
0

>  <SCORE.RESTR.norm>
0

>  <SCORE.SYSTEM>
0

>  <SCORE.SYSTEM.CONST>
0

>  <SCORE.SYSTEM.DIHEDRAL>
0

>  <SCORE.SYSTEM.SOLV>
0

>  <SCORE.SYSTEM.norm>
0

>  <SCORE.heavy>
13

>  <SCORE.norm>
-1.297

>  <RMSD>
2.619

$$$$
ligand
 OpenBabel02271912143D
libRbt.so/2013.1/901 2013/11/27
 13 14  0  0  0  0  0  0  0  0999 V2000
   33.1980   32.0210   24.3601 N   0  0  0  0  0  0  0  0  0  0  0  0
   32.9583   32.6826   23.1419 C   0  0  0  0  0  0  0  0  0  0  0  0
   31.8737   32.2386   22.3971 N   0  0  0  0  0  0  0  0  0  0  0  0
   33.7089   33.6856   22.6259 N   0  0  0  0  0  0  0  0  0  0  0  0
   34.7790   34.0152   23.4523 C   0  0  0  0  0  0  0  0  0  0  0  0
   35.0855   33.4249   24.6844 C   0  0  0  0  0  0  0  0  0  0  0  0
   34.2978   32.3839   25.1970 C   0  0  0  0  0  0  0  0  0  0  0  0
   34.4691   31.7792   26.2453 O   0  0  0  0  0  0  0  0  0  0  0  0
   36.2455   34.0380   25.2111 C   0  0  0  0  0  0  0  0  0  0  0  0
   36.6288   35.0036   24.2933 C   0  0  0  0  0  0  0  0  0  0  0  0
   35.7213   34.9964   23.2041 N   0  0  0  0  0  0  0  0  0  0  0  0
   36.8777   33.6402   26.4983 C   0  0  0  0  0  0  0  0  0  0  0  0
   38.0986   34.4226   26.7470 N   0  0  0  0  0  0  0  0  0  0  0  0
  1  2  1  0  0  0  0
  1  7  1  0  0  0  0
  2  3  1  0  0  0  0
  2  4  2  0  0  0  0
  4  5  1  0  0  0  0
  5  6  2  0  0  0  0
  5 11  1  0  0  0  0
  6  7  1  0  0  0  0
  6  9  1  0  0  0  0
  7  8  2  0  0  0  0
  9 10  2  0  0  0  0
  9 12  1  0  0  0  0
 10 11  1  0  0  0  0
 12 13  1  0  0  0  0
M  END
>  <CHROM.1>
177.60598420,34.90803960,33.37867421,24.49628663,2.87812367,-0.60616960,-0.95384001

>  <Name>
ligand

>  <RI>
0

>  <Rbt.Current_Directory>
/home/itssahil/PROJECTS/Mol_Feturizer/Test_systems_manuscript/rnas/3q50

>  <Rbt.Executable>
rbdock ($Id: //depot/dev/client3/rdock/2013.1/src/exe/rbdock.cxx#4 $)

>  <Rbt.Library>
libRbt.so (2013.1, Build901 2013/11/27)

>  <Rbt.Parameter_File>
/export/apps/rDock/src/rDock_2013.1_src/data/scripts/dock_solv.prm

>  <Rbt.Receptor>
prm/blind_docking_60.prm

>  <SCORE>
-16.7471

>  <SCORE.INTER>
-16.7702

>  <SCORE.INTER.CONST>
1

>  <SCORE.INTER.POLAR>
0

>  <SCORE.INTER.ROT>
1

>  <SCORE.INTER.SOLV>
22.433

>  <SCORE.INTER.VDW>
-22.9245

>  <SCORE.INTER.norm>
-1.29001

>  <SCORE.INTRA>
0.0231034

>  <SCORE.INTRA.DIHEDRAL>
0.0321334

>  <SCORE.INTRA.DIHEDRAL.0>
1.65305

>  <SCORE.INTRA.POLAR>
0

>  <SCORE.INTRA.POLAR.0>
0

>  <SCORE.INTRA.REPUL>
0

>  <SCORE.INTRA.REPUL.0>
0

>  <SCORE.INTRA.SOLV>
0.00178296

>  <SCORE.INTRA.SOLV.lig_0>
-46.9527

>  <SCORE.INTRA.VDW>
0.00614518

>  <SCORE.INTRA.VDW.0>
-0.177978

>  <SCORE.INTRA.norm>
0.00177718

>  <SCORE.RESTR>
0

>  <SCORE.RESTR.CAVITY>
0

>  <SCORE.RESTR.norm>
0

>  <SCORE.SYSTEM>
0

>  <SCORE.SYSTEM.CONST>
0

>  <SCORE.SYSTEM.DIHEDRAL>
0

>  <SCORE.SYSTEM.SOLV>
0

>  <SCORE.SYSTEM.norm>
0

>  <SCORE.heavy>
13

>  <SCORE.norm>
-1.28824

>  <RMSD>
2.620

$$$$
ligand
 OpenBabel02271912143D
libRbt.so/2013.1/901 2013/11/27
 13 14  0  0  0  0  0  0  0  0999 V2000
   33.2033   32.0185   24.3547 N   0  0  0  0  0  0  0  0  0  0  0  0
   32.9579   32.6871   23.1415 C   0  0  0  0  0  0  0  0  0  0  0  0
   31.8690   32.2485   22.4000 N   0  0  0  0  0  0  0  0  0  0  0  0
   33.7070   33.6922   22.6272 N   0  0  0  0  0  0  0  0  0  0  0  0
   34.7818   34.0160   23.4497 C   0  0  0  0  0  0  0  0  0  0  0  0
   35.0941   33.4185   24.6770 C   0  0  0  0  0  0  0  0  0  0  0  0
   34.3078   32.3755   25.1879 C   0  0  0  0  0  0  0  0  0  0  0  0
   34.4840   31.7648   26.2319 O   0  0  0  0  0  0  0  0  0  0  0  0
   36.2575   34.0273   25.2010 C   0  0  0  0  0  0  0  0  0  0  0  0
   36.6371   34.9975   24.2866 C   0  0  0  0  0  0  0  0  0  0  0  0
   35.7239   34.9975   23.2021 N   0  0  0  0  0  0  0  0  0  0  0  0
   36.8959   33.6217   26.4826 C   0  0  0  0  0  0  0  0  0  0  0  0
   38.1001   34.4248   26.7461 N   0  0  0  0  0  0  0  0  0  0  0  0
  1  2  1  0  0  0  0
  1  7  1  0  0  0  0
  2  3  1  0  0  0  0
  2  4  2  0  0  0  0
  4  5  1  0  0  0  0
  5  6  2  0  0  0  0
  5 11  1  0  0  0  0
  6  7  1  0  0  0  0
  6  9  1  0  0  0  0
  7  8  2  0  0  0  0
  9 10  2  0  0  0  0
  9 12  1  0  0  0  0
 10 11  1  0  0  0  0
 12 13  1  0  0  0  0
M  END
>  <CHROM.1>
179.04580904,34.91402145,33.37540222,24.49089110,2.88185881,-0.60452257,-0.94697203

>  <Name>
ligand

>  <RI>
0

>  <Rbt.Current_Directory>
/home/itssahil/PROJECTS/Mol_Feturizer/Test_systems_manuscript/rnas/3q50

>  <Rbt.Executable>
rbdock ($Id: //depot/dev/client3/rdock/2013.1/src/exe/rbdock.cxx#4 $)

>  <Rbt.Library>
libRbt.so (2013.1, Build901 2013/11/27)

>  <Rbt.Parameter_File>
/export/apps/rDock/src/rDock_2013.1_src/data/scripts/dock_solv.prm

>  <Rbt.Receptor>
prm/blind_docking_80.prm

>  <SCORE>
-16.7318

>  <SCORE.INTER>
-16.753

>  <SCORE.INTER.CONST>
1

>  <SCORE.INTER.POLAR>
0

>  <SCORE.INTER.ROT>
1

>  <SCORE.INTER.SOLV>
22.4257

>  <SCORE.INTER.VDW>
-22.9105

>  <SCORE.INTER.norm>
-1.28869

>  <SCORE.INTRA>
0.0210207

>  <SCORE.INTRA.DIHEDRAL>
0.0278725

>  <SCORE.INTRA.DIHEDRAL.0>
1.65305

>  <SCORE.INTRA.POLAR>
0

>  <SCORE.INTRA.POLAR.0>
0

>  <SCORE.INTRA.REPUL>
0

>  <SCORE.INTRA.REPUL.0>
0

>  <SCORE.INTRA.SOLV>
0.00162149

>  <SCORE.INTRA.SOLV.lig_0>
-46.9527

>  <SCORE.INTRA.VDW>
0.00627368

>  <SCORE.INTRA.VDW.0>
-0.177978

>  <SCORE.INTRA.norm>
0.00161698

>  <SCORE.RESTR>
0.000113117

>  <SCORE.RESTR.CAVITY>
0.000113117

>  <SCORE.RESTR.norm>
8.70127e-06

>  <SCORE.SYSTEM>
0

>  <SCORE.SYSTEM.CONST>
0

>  <SCORE.SYSTEM.DIHEDRAL>
0

>  <SCORE.SYSTEM.SOLV>
0

>  <SCORE.SYSTEM.norm>
0

>  <SCORE.heavy>
13

>  <SCORE.norm>
-1.28706

>  <RMSD>
2.621

$$$$
ligand
 OpenBabel02271912143D
libRbt.so/2013.1/901 2013/11/27
 13 14  0  0  0  0  0  0  0  0999 V2000
   33.2057   32.0205   24.3415 N   0  0  0  0  0  0  0  0  0  0  0  0
   32.9865   32.6566   23.1059 C   0  0  0  0  0  0  0  0  0  0  0  0
   31.9102   32.2016   22.3558 N   0  0  0  0  0  0  0  0  0  0  0  0
   33.7493   33.6446   22.5790 N   0  0  0  0  0  0  0  0  0  0  0  0
   34.8093   33.9871   23.4131 C   0  0  0  0  0  0  0  0  0  0  0  0
   35.0955   33.4224   24.6620 C   0  0  0  0  0  0  0  0  0  0  0  0
   34.2954   32.3964   25.1859 C   0  0  0  0  0  0  0  0  0  0  0  0
   34.4491   31.8139   26.2493 O   0  0  0  0  0  0  0  0  0  0  0  0
   36.2510   34.0413   25.1916 C   0  0  0  0  0  0  0  0  0  0  0  0
   36.6520   34.9849   24.2586 C   0  0  0  0  0  0  0  0  0  0  0  0
   35.7599   34.9583   23.1570 N   0  0  0  0  0  0  0  0  0  0  0  0
   36.8631   33.6687   26.4959 C   0  0  0  0  0  0  0  0  0  0  0  0
   38.0999   34.4297   26.7315 N   0  0  0  0  0  0  0  0  0  0  0  0
  1  2  1  0  0  0  0
  1  7  1  0  0  0  0
  2  3  1  0  0  0  0
  2  4  2  0  0  0  0
  4  5  1  0  0  0  0
  5  6  2  0  0  0  0
  5 11  1  0  0  0  0
  6  7  1  0  0  0  0
  6  9  1  0  0  0  0
  7  8  2  0  0  0  0
  9 10  2  0  0  0  0
  9 12  1  0  0  0  0
 10 11  1  0  0  0  0
 12 13  1  0  0  0  0
M  END
>  <CHROM.1>
176.38500649,34.92174650,33.37116802,24.47131334,2.86113821,-0.60820245,-0.98454867

>  <Name>
ligand

>  <RI>
0

>  <Rbt.Current_Directory>
/home/itssahil/PROJECTS/Mol_Feturizer/Test_systems_manuscript/rnas/3q50

>  <Rbt.Executable>
rbdock ($Id: //depot/dev/client3/rdock/2013.1/src/exe/rbdock.cxx#4 $)

>  <Rbt.Library>
libRbt.so (2013.1, Build901 2013/11/27)

>  <Rbt.Parameter_File>
/export/apps/rDock/src/rDock_2013.1_src/data/scripts/dock_solv.prm

>  <Rbt.Receptor>
prm/blind_docking_80.prm

>  <SCORE>
-16.7602

>  <SCORE.INTER>
-16.7849

>  <SCORE.INTER.CONST>
1

>  <SCORE.INTER.POLAR>
0

>  <SCORE.INTER.ROT>
1

>  <SCORE.INTER.SOLV>
22.4016

>  <SCORE.INTER.VDW>
-22.9238

>  <SCORE.INTER.norm>
-1.29114

>  <SCORE.INTRA>
0.0246347

>  <SCORE.INTRA.DIHEDRAL>
0.0357245

>  <SCORE.INTRA.DIHEDRAL.0>
1.65305

>  <SCORE.INTRA.POLAR>
0

>  <SCORE.INTRA.POLAR.0>
0

>  <SCORE.INTRA.REPUL>
0

>  <SCORE.INTRA.REPUL.0>
0

>  <SCORE.INTRA.SOLV>
0.00190398

>  <SCORE.INTRA.SOLV.lig_0>
-46.9527

>  <SCORE.INTRA.VDW>
0.00582048

>  <SCORE.INTRA.VDW.0>
-0.177978

>  <SCORE.INTRA.norm>
0.00189498

>  <SCORE.RESTR>
0

>  <SCORE.RESTR.CAVITY>
0

>  <SCORE.RESTR.norm>
0

>  <SCORE.SYSTEM>
0

>  <SCORE.SYSTEM.CONST>
0

>  <SCORE.SYSTEM.DIHEDRAL>
0

>  <SCORE.SYSTEM.SOLV>
0

>  <SCORE.SYSTEM.norm>
0

>  <SCORE.heavy>
13

>  <SCORE.norm>
-1.28925

>  <RMSD>
2.621

$$$$
ligand
 OpenBabel02271912143D
libRbt.so/2013.1/901 2013/11/27
 13 14  0  0  0  0  0  0  0  0999 V2000
   33.1993   32.0240   24.3423 N   0  0  0  0  0  0  0  0  0  0  0  0
   32.9797   32.6594   23.1064 C   0  0  0  0  0  0  0  0  0  0  0  0
   31.8999   32.2078   22.3593 N   0  0  0  0  0  0  0  0  0  0  0  0
   33.7452   33.6437   22.5765 N   0  0  0  0  0  0  0  0  0  0  0  0
   34.8085   33.9830   23.4077 C   0  0  0  0  0  0  0  0  0  0  0  0
   35.0954   33.4186   24.6566 C   0  0  0  0  0  0  0  0  0  0  0  0
   34.2925   32.3965   25.1836 C   0  0  0  0  0  0  0  0  0  0  0  0
   34.4463   31.8147   26.2474 O   0  0  0  0  0  0  0  0  0  0  0  0
   36.2546   34.0336   25.1828 C   0  0  0  0  0  0  0  0  0  0  0  0
   36.6572   34.9744   24.2477 C   0  0  0  0  0  0  0  0  0  0  0  0
   35.7624   34.9500   23.1482 N   0  0  0  0  0  0  0  0  0  0  0  0
   36.8682   33.6601   26.4862 C   0  0  0  0  0  0  0  0  0  0  0  0
   38.0996   34.4287   26.7257 N   0  0  0  0  0  0  0  0  0  0  0  0
  1  2  1  0  0  0  0
  1  7  1  0  0  0  0
  2  3  1  0  0  0  0
  2  4  2  0  0  0  0
  4  5  1  0  0  0  0
  5  6  2  0  0  0  0
  5 11  1  0  0  0  0
  6  7  1  0  0  0  0
  6  9  1  0  0  0  0
  7  8  2  0  0  0  0
  9 10  2  0  0  0  0
  9 12  1  0  0  0  0
 10 11  1  0  0  0  0
 12 13  1  0  0  0  0
M  END
>  <CHROM.1>
177.09846423,34.92026909,33.36887245,24.46704772,2.86051606,-0.60471157,-0.98654836

>  <Name>
ligand

>  <RI>
0

>  <Rbt.Current_Directory>
/home/itssahil/PROJECTS/Mol_Feturizer/Test_systems_manuscript/rnas/3q50

>  <Rbt.Executable>
rbdock ($Id: //depot/dev/client3/rdock/2013.1/src/exe/rbdock.cxx#4 $)

>  <Rbt.Library>
libRbt.so (2013.1, Build901 2013/11/27)

>  <Rbt.Parameter_File>
/export/apps/rDock/src/rDock_2013.1_src/data/scripts/dock_solv.prm

>  <Rbt.Receptor>
prm/blind_docking_100.prm

>  <SCORE>
-16.763

>  <SCORE.INTER>
-16.7867

>  <SCORE.INTER.CONST>
1

>  <SCORE.INTER.POLAR>
0

>  <SCORE.INTER.ROT>
1

>  <SCORE.INTER.SOLV>
22.4077

>  <SCORE.INTER.VDW>
-22.9271

>  <SCORE.INTER.norm>
-1.29129

>  <SCORE.INTRA>
0.0237665

>  <SCORE.INTRA.DIHEDRAL>
0.0336295

>  <SCORE.INTRA.DIHEDRAL.0>
1.65305

>  <SCORE.INTRA.POLAR>
0

>  <SCORE.INTRA.POLAR.0>
0

>  <SCORE.INTRA.REPUL>
0

>  <SCORE.INTRA.REPUL.0>
0

>  <SCORE.INTRA.SOLV>
0.00183504

>  <SCORE.INTRA.SOLV.lig_0>
-46.9527

>  <SCORE.INTRA.VDW>
0.0060342

>  <SCORE.INTRA.VDW.0>
-0.177978

>  <SCORE.INTRA.norm>
0.00182819

>  <SCORE.RESTR>
0

>  <SCORE.RESTR.CAVITY>
0

>  <SCORE.RESTR.norm>
0

>  <SCORE.SYSTEM>
0

>  <SCORE.SYSTEM.CONST>
0

>  <SCORE.SYSTEM.DIHEDRAL>
0

>  <SCORE.SYSTEM.SOLV>
0

>  <SCORE.SYSTEM.norm>
0

>  <SCORE.heavy>
13

>  <SCORE.norm>
-1.28946

>  <RMSD>
2.622

$$$$
ligand
 OpenBabel02271912143D
libRbt.so/2013.1/901 2013/11/27
 13 14  0  0  0  0  0  0  0  0999 V2000
   33.1861   32.0366   24.3611 N   0  0  0  0  0  0  0  0  0  0  0  0
   32.9538   32.6805   23.1320 C   0  0  0  0  0  0  0  0  0  0  0  0
   31.8629   32.2379   22.3957 N   0  0  0  0  0  0  0  0  0  0  0  0
   33.7168   33.6649   22.5986 N   0  0  0  0  0  0  0  0  0  0  0  0
   34.7917   33.9947   23.4186 C   0  0  0  0  0  0  0  0  0  0  0  0
   35.0917   33.4215   24.6604 C   0  0  0  0  0  0  0  0  0  0  0  0
   34.2911   32.3994   25.1911 C   0  0  0  0  0  0  0  0  0  0  0  0
   34.4557   31.8105   26.2493 O   0  0  0  0  0  0  0  0  0  0  0  0
   36.2599   34.0284   25.1758 C   0  0  0  0  0  0  0  0  0  0  0  0
   36.6548   34.9733   24.2415 C   0  0  0  0  0  0  0  0  0  0  0  0
   35.7463   34.9594   23.1532 N   0  0  0  0  0  0  0  0  0  0  0  0
   36.8881   33.6445   26.4692 C   0  0  0  0  0  0  0  0  0  0  0  0
   38.0998   34.4401   26.7205 N   0  0  0  0  0  0  0  0  0  0  0  0
  1  2  1  0  0  0  0
  1  7  1  0  0  0  0
  2  3  1  0  0  0  0
  2  4  2  0  0  0  0
  4  5  1  0  0  0  0
  5  6  2  0  0  0  0
  5 11  1  0  0  0  0
  6  7  1  0  0  0  0
  6  9  1  0  0  0  0
  7  8  2  0  0  0  0
  9 10  2  0  0  0  0
  9 12  1  0  0  0  0
 10 11  1  0  0  0  0
 12 13  1  0  0  0  0
M  END
>  <CHROM.1>
179.09527204,34.91192857,33.37634603,24.47452716,2.86936605,-0.59757566,-0.97659761

>  <Name>
ligand

>  <RI>
0

>  <Rbt.Current_Directory>
/home/itssahil/PROJECTS/Mol_Feturizer/Test_systems_manuscript/rnas/3q50

>  <Rbt.Executable>
rbdock ($Id: //depot/dev/client3/rdock/2013.1/src/exe/rbdock.cxx#4 $)

>  <Rbt.Library>
libRbt.so (2013.1, Build901 2013/11/27)

>  <Rbt.Parameter_File>
/export/apps/rDock/src/rDock_2013.1_src/data/scripts/dock_solv.prm

>  <Rbt.Receptor>
prm/blind_docking_60.prm

>  <SCORE>
-16.7519

>  <SCORE.INTER>
-16.7729

>  <SCORE.INTER.CONST>
1

>  <SCORE.INTER.POLAR>
0

>  <SCORE.INTER.ROT>
1

>  <SCORE.INTER.SOLV>
22.4537

>  <SCORE.INTER.VDW>
-22.9332

>  <SCORE.INTER.norm>
-1.29022

>  <SCORE.INTRA>
0.020944

>  <SCORE.INTRA.DIHEDRAL>
0.0277259

>  <SCORE.INTRA.DIHEDRAL.0>
1.65305

>  <SCORE.INTRA.POLAR>
0

>  <SCORE.INTRA.POLAR.0>
0

>  <SCORE.INTRA.REPUL>
0

>  <SCORE.INTRA.REPUL.0>
0

>  <SCORE.INTRA.SOLV>
0.00161559

>  <SCORE.INTRA.SOLV.lig_0>
-46.9527

>  <SCORE.INTRA.VDW>
0.0062732

>  <SCORE.INTRA.VDW.0>
-0.177978

>  <SCORE.INTRA.norm>
0.00161107

>  <SCORE.RESTR>
0

>  <SCORE.RESTR.CAVITY>
0

>  <SCORE.RESTR.norm>
0

>  <SCORE.SYSTEM>
0

>  <SCORE.SYSTEM.CONST>
0

>  <SCORE.SYSTEM.DIHEDRAL>
0

>  <SCORE.SYSTEM.SOLV>
0

>  <SCORE.SYSTEM.norm>
0

>  <SCORE.heavy>
13

>  <SCORE.norm>
-1.28861

>  <RMSD>
2.623

$$$$
ligand
 OpenBabel02271912143D
libRbt.so/2013.1/901 2013/11/27
 13 14  0  0  0  0  0  0  0  0999 V2000
   33.2042   32.0153   24.3535 N   0  0  0  0  0  0  0  0  0  0  0  0
   32.9813   32.6549   23.1204 C   0  0  0  0  0  0  0  0  0  0  0  0
   31.9032   32.2017   22.3718 N   0  0  0  0  0  0  0  0  0  0  0  0
   33.7423   33.6448   22.5943 N   0  0  0  0  0  0  0  0  0  0  0  0
   34.8044   33.9853   23.4264 C   0  0  0  0  0  0  0  0  0  0  0  0
   35.0943   33.4170   24.6729 C   0  0  0  0  0  0  0  0  0  0  0  0
   34.2961   32.3891   25.1959 C   0  0  0  0  0  0  0  0  0  0  0  0
   34.4528   31.8036   26.2573 O   0  0  0  0  0  0  0  0  0  0  0  0
   36.2510   34.0348   25.2012 C   0  0  0  0  0  0  0  0  0  0  0  0
   36.6491   34.9812   24.2698 C   0  0  0  0  0  0  0  0  0  0  0  0
   35.7539   34.9575   23.1706 N   0  0  0  0  0  0  0  0  0  0  0  0
   36.8668   33.6586   26.5027 C   0  0  0  0  0  0  0  0  0  0  0  0
   38.2227   34.2168   26.6224 N   0  0  0  0  0  0  0  0  0  0  0  0
  1  2  1  0  0  0  0
  1  7  1  0  0  0  0
  2  3  1  0  0  0  0
  2  4  2  0  0  0  0
  4  5  1  0  0  0  0
  5  6  2  0  0  0  0
  5 11  1  0  0  0  0
  6  7  1  0  0  0  0
  6  9  1  0  0  0  0
  7  8  2  0  0  0  0
  9 10  2  0  0  0  0
  9 12  1  0  0  0  0
 10 11  1  0  0  0  0
 12 13  1  0  0  0  0
M  END
>  <CHROM.1>
165.47354869,34.92970017,33.34974283,24.47320647,2.86654152,-0.58990818,-0.97058388

>  <Name>
ligand

>  <RI>
0

>  <Rbt.Current_Directory>
/home/itssahil/PROJECTS/Mol_Feturizer/Test_systems_manuscript/rnas/3q50

>  <Rbt.Executable>
rbdock ($Id: //depot/dev/client3/rdock/2013.1/src/exe/rbdock.cxx#4 $)

>  <Rbt.Library>
libRbt.so (2013.1, Build901 2013/11/27)

>  <Rbt.Parameter_File>
/export/apps/rDock/src/rDock_2013.1_src/data/scripts/dock_solv.prm

>  <Rbt.Receptor>
prm/pocket_docking_4.prm

>  <SCORE>
-16.8754

>  <SCORE.INTER>
-16.9034

>  <SCORE.INTER.CONST>
1

>  <SCORE.INTER.POLAR>
0

>  <SCORE.INTER.ROT>
1

>  <SCORE.INTER.SOLV>
22.1505

>  <SCORE.INTER.VDW>
-22.9191

>  <SCORE.INTER.norm>
-1.30026

>  <SCORE.INTRA>
0.0280303

>  <SCORE.INTRA.DIHEDRAL>
0.0645753

>  <SCORE.INTRA.DIHEDRAL.0>
1.65305

>  <SCORE.INTRA.POLAR>
0

>  <SCORE.INTRA.POLAR.0>
0

>  <SCORE.INTRA.REPUL>
0

>  <SCORE.INTRA.REPUL.0>
0

>  <SCORE.INTRA.SOLV>
0.00235589

>  <SCORE.INTRA.SOLV.lig_0>
-46.9527

>  <SCORE.INTRA.VDW>
-0.00543524

>  <SCORE.INTRA.VDW.0>
-0.177978

>  <SCORE.INTRA.norm>
0.00215618

>  <SCORE.RESTR>
0

>  <SCORE.RESTR.CAVITY>
0

>  <SCORE.RESTR.norm>
0

>  <SCORE.SYSTEM>
0

>  <SCORE.SYSTEM.CONST>
0

>  <SCORE.SYSTEM.DIHEDRAL>
0

>  <SCORE.SYSTEM.SOLV>
0

>  <SCORE.SYSTEM.norm>
0

>  <SCORE.heavy>
13

>  <SCORE.norm>
-1.29811

>  <RMSD>
2.624

$$$$
ligand
 OpenBabel02271912143D
libRbt.so/2013.1/901 2013/11/27
 13 14  0  0  0  0  0  0  0  0999 V2000
   33.1558   32.0356   24.3738 N   0  0  0  0  0  0  0  0  0  0  0  0
   32.9456   32.6549   23.1282 C   0  0  0  0  0  0  0  0  0  0  0  0
   31.8615   32.2050   22.3862 N   0  0  0  0  0  0  0  0  0  0  0  0
   33.7235   33.6219   22.5847 N   0  0  0  0  0  0  0  0  0  0  0  0
   34.7896   33.9610   23.4124 C   0  0  0  0  0  0  0  0  0  0  0  0
   35.0680   33.4122   24.6701 C   0  0  0  0  0  0  0  0  0  0  0  0
   34.2522   32.4077   25.2112 C   0  0  0  0  0  0  0  0  0  0  0  0
   34.3975   31.8402   26.2839 O   0  0  0  0  0  0  0  0  0  0  0  0
   36.2336   34.0211   25.1889 C   0  0  0  0  0  0  0  0  0  0  0  0
   36.6487   34.9429   24.2403 C   0  0  0  0  0  0  0  0  0  0  0  0
   35.7552   34.9126   23.1399 N   0  0  0  0  0  0  0  0  0  0  0  0
   36.8409   33.6601   26.4987 C   0  0  0  0  0  0  0  0  0  0  0  0
   38.0830   34.4148   26.7269 N   0  0  0  0  0  0  0  0  0  0  0  0
  1  2  1  0  0  0  0
  1  7  1  0  0  0  0
  2  3  1  0  0  0  0
  2  4  2  0  0  0  0
  4  5  1  0  0  0  0
  5  6  2  0  0  0  0
  5 11  1  0  0  0  0
  6  7  1  0  0  0  0
  6  9  1  0  0  0  0
  7  8  2  0  0  0  0
  9 10  2  0  0  0  0
  9 12  1  0  0  0  0
 10 11  1  0  0  0  0
 12 13  1  0  0  0  0
M  END
>  <CHROM.1>
176.94401308,34.89264742,33.36142010,24.48092812,2.85121599,-0.59530433,-1.00676210

>  <Name>
ligand

>  <RI>
0

>  <Rbt.Current_Directory>
/home/itssahil/PROJECTS/Mol_Feturizer/Test_systems_manuscript/rnas/3q50

>  <Rbt.Executable>
rbdock ($Id: //depot/dev/client3/rdock/2013.1/src/exe/rbdock.cxx#4 $)

>  <Rbt.Library>
libRbt.so (2013.1, Build901 2013/11/27)

>  <Rbt.Parameter_File>
/export/apps/rDock/src/rDock_2013.1_src/data/scripts/dock_solv.prm

>  <Rbt.Receptor>
prm/blind_docking_60.prm

>  <SCORE>
-16.7613

>  <SCORE.INTER>
-16.7853

>  <SCORE.INTER.CONST>
1

>  <SCORE.INTER.POLAR>
0

>  <SCORE.INTER.ROT>
1

>  <SCORE.INTER.SOLV>
22.4884

>  <SCORE.INTER.VDW>
-22.953

>  <SCORE.INTER.norm>
-1.29117

>  <SCORE.INTRA>
0.0239608

>  <SCORE.INTRA.DIHEDRAL>
0.0340839

>  <SCORE.INTRA.DIHEDRAL.0>
1.65305

>  <SCORE.INTRA.POLAR>
0

>  <SCORE.INTRA.POLAR.0>
0

>  <SCORE.INTRA.REPUL>
0

>  <SCORE.INTRA.REPUL.0>
0

>  <SCORE.INTRA.SOLV>
0.00185039

>  <SCORE.INTRA.SOLV.lig_0>
-46.9527

>  <SCORE.INTRA.VDW>
0.00599365

>  <SCORE.INTRA.VDW.0>
-0.177978

>  <SCORE.INTRA.norm>
0.00184314

>  <SCORE.RESTR>
0

>  <SCORE.RESTR.CAVITY>
0

>  <SCORE.RESTR.norm>
0

>  <SCORE.SYSTEM>
0

>  <SCORE.SYSTEM.CONST>
0

>  <SCORE.SYSTEM.DIHEDRAL>
0

>  <SCORE.SYSTEM.SOLV>
0

>  <SCORE.SYSTEM.norm>
0

>  <SCORE.heavy>
13

>  <SCORE.norm>
-1.28933

>  <RMSD>
2.626

$$$$
ligand
 OpenBabel02271912143D
libRbt.so/2013.1/901 2013/11/27
 13 14  0  0  0  0  0  0  0  0999 V2000
   33.1459   32.0422   24.3682 N   0  0  0  0  0  0  0  0  0  0  0  0
   32.9439   32.6585   23.1197 C   0  0  0  0  0  0  0  0  0  0  0  0
   31.8625   32.2093   22.3734 N   0  0  0  0  0  0  0  0  0  0  0  0
   33.7273   33.6218   22.5776 N   0  0  0  0  0  0  0  0  0  0  0  0
   34.7900   33.9604   23.4098 C   0  0  0  0  0  0  0  0  0  0  0  0
   35.0602   33.4145   24.6706 C   0  0  0  0  0  0  0  0  0  0  0  0
   34.2388   32.4139   25.2103 C   0  0  0  0  0  0  0  0  0  0  0  0
   34.3770   31.8491   26.2854 O   0  0  0  0  0  0  0  0  0  0  0  0
   36.2249   34.0218   25.1937 C   0  0  0  0  0  0  0  0  0  0  0  0
   36.6474   34.9396   24.2446 C   0  0  0  0  0  0  0  0  0  0  0  0
   35.7597   34.9085   23.1396 N   0  0  0  0  0  0  0  0  0  0  0  0
   36.8243   33.6629   26.5077 C   0  0  0  0  0  0  0  0  0  0  0  0
   38.0990   34.3681   26.7129 N   0  0  0  0  0  0  0  0  0  0  0  0
  1  2  1  0  0  0  0
  1  7  1  0  0  0  0
  2  3  1  0  0  0  0
  2  4  2  0  0  0  0
  4  5  1  0  0  0  0
  5  6  2  0  0  0  0
  5 11  1  0  0  0  0
  6  7  1  0  0  0  0
  6  9  1  0  0  0  0
  7  8  2  0  0  0  0
  9 10  2  0  0  0  0
  9 12  1  0  0  0  0
 10 11  1  0  0  0  0
 12 13  1  0  0  0  0
M  END
>  <CHROM.1>
174.32330453,34.88837747,33.35984036,24.47839265,2.84508145,-0.59162281,-1.01141275

>  <Name>
ligand

>  <RI>
0

>  <Rbt.Current_Directory>
/home/itssahil/PROJECTS/Mol_Feturizer/Test_systems_manuscript/rnas/3q50

>  <Rbt.Executable>
rbdock ($Id: //depot/dev/client3/rdock/2013.1/src/exe/rbdock.cxx#4 $)

>  <Rbt.Library>
libRbt.so (2013.1, Build901 2013/11/27)

>  <Rbt.Parameter_File>
/export/apps/rDock/src/rDock_2013.1_src/data/scripts/dock_solv.prm

>  <Rbt.Receptor>
prm/blind_docking_100.prm

>  <SCORE>
-16.7828

>  <SCORE.INTER>
-16.8095

>  <SCORE.INTER.CONST>
1

>  <SCORE.INTER.POLAR>
0

>  <SCORE.INTER.ROT>
1

>  <SCORE.INTER.SOLV>
22.4107

>  <SCORE.INTER.VDW>
-22.9433

>  <SCORE.INTER.norm>
-1.29304

>  <SCORE.INTRA>
0.0267138

>  <SCORE.INTRA.DIHEDRAL>
0.0416994

>  <SCORE.INTRA.DIHEDRAL.0>
1.65305

>  <SCORE.INTRA.POLAR>
0

>  <SCORE.INTRA.POLAR.0>
0

>  <SCORE.INTRA.REPUL>
0

>  <SCORE.INTRA.REPUL.0>
0

>  <SCORE.INTRA.SOLV>
0.00207528

>  <SCORE.INTRA.SOLV.lig_0>
-46.9527

>  <SCORE.INTRA.VDW>
0.00482647

>  <SCORE.INTRA.VDW.0>
-0.177978

>  <SCORE.INTRA.norm>
0.00205491

>  <SCORE.RESTR>
0

>  <SCORE.RESTR.CAVITY>
0

>  <SCORE.RESTR.norm>
0

>  <SCORE.SYSTEM>
0

>  <SCORE.SYSTEM.CONST>
0

>  <SCORE.SYSTEM.DIHEDRAL>
0

>  <SCORE.SYSTEM.SOLV>
0

>  <SCORE.SYSTEM.norm>
0

>  <SCORE.heavy>
13

>  <SCORE.norm>
-1.29099

>  <RMSD>
2.628

$$$$
ligand
 OpenBabel02271912143D
libRbt.so/2013.1/901 2013/11/27
 13 14  0  0  0  0  0  0  0  0999 V2000
   33.2736   31.9301   24.2673 N   0  0  0  0  0  0  0  0  0  0  0  0
   32.9950   32.6343   23.0816 C   0  0  0  0  0  0  0  0  0  0  0  0
   31.9158   32.1856   22.3320 N   0  0  0  0  0  0  0  0  0  0  0  0
   33.7044   33.6833   22.5999 N   0  0  0  0  0  0  0  0  0  0  0  0
   34.7742   34.0138   23.4264 C   0  0  0  0  0  0  0  0  0  0  0  0
   35.1173   33.3825   24.6282 C   0  0  0  0  0  0  0  0  0  0  0  0
   34.3720   32.2944   25.1054 C   0  0  0  0  0  0  0  0  0  0  0  0
   34.5780   31.6519   26.1245 O   0  0  0  0  0  0  0  0  0  0  0  0
   36.2632   34.0118   25.1664 C   0  0  0  0  0  0  0  0  0  0  0  0
   36.6012   35.0279   24.2862 C   0  0  0  0  0  0  0  0  0  0  0  0
   35.6796   35.0362   23.2089 N   0  0  0  0  0  0  0  0  0  0  0  0
   36.9260   33.5815   26.4274 C   0  0  0  0  0  0  0  0  0  0  0  0
   38.0996   34.4205   26.7159 N   0  0  0  0  0  0  0  0  0  0  0  0
  1  2  1  0  0  0  0
  1  7  1  0  0  0  0
  2  3  1  0  0  0  0
  2  4  2  0  0  0  0
  4  5  1  0  0  0  0
  5  6  2  0  0  0  0
  5 11  1  0  0  0  0
  6  7  1  0  0  0  0
  6  9  1  0  0  0  0
  7  8  2  0  0  0  0
  9 10  2  0  0  0  0
  9 12  1  0  0  0  0
 10 11  1  0  0  0  0
 12 13  1  0  0  0  0
M  END
>  <CHROM.1>
179.34733310,34.93693711,33.34040716,24.44222890,2.91517613,-0.62803414,-0.89060348

>  <Name>
ligand

>  <RI>
0

>  <Rbt.Current_Directory>
/home/itssahil/PROJECTS/Mol_Feturizer/Test_systems_manuscript/rnas/3q50

>  <Rbt.Executable>
rbdock ($Id: //depot/dev/client3/rdock/2013.1/src/exe/rbdock.cxx#4 $)

>  <Rbt.Library>
libRbt.so (2013.1, Build901 2013/11/27)

>  <Rbt.Parameter_File>
/export/apps/rDock/src/rDock_2013.1_src/data/scripts/dock_solv.prm

>  <Rbt.Receptor>
prm/blind_docking_60.prm

>  <SCORE>
-16.727

>  <SCORE.INTER>
-16.7475

>  <SCORE.INTER.CONST>
1

>  <SCORE.INTER.POLAR>
0

>  <SCORE.INTER.ROT>
1

>  <SCORE.INTER.SOLV>
22.2804

>  <SCORE.INTER.VDW>
-22.8585

>  <SCORE.INTER.norm>
-1.28827

>  <SCORE.INTRA>
0.0205476

>  <SCORE.INTRA.DIHEDRAL>
0.0269788

>  <SCORE.INTRA.DIHEDRAL.0>
1.65305

>  <SCORE.INTRA.POLAR>
0

>  <SCORE.INTRA.POLAR.0>
0

>  <SCORE.INTRA.REPUL>
0

>  <SCORE.INTRA.REPUL.0>
0

>  <SCORE.INTRA.SOLV>
0.00158511

>  <SCORE.INTRA.SOLV.lig_0>
-46.9527

>  <SCORE.INTRA.VDW>
0.00626568

>  <SCORE.INTRA.VDW.0>
-0.177978

>  <SCORE.INTRA.norm>
0.00158059

>  <SCORE.RESTR>
0

>  <SCORE.RESTR.CAVITY>
0

>  <SCORE.RESTR.norm>
0

>  <SCORE.SYSTEM>
0

>  <SCORE.SYSTEM.CONST>
0

>  <SCORE.SYSTEM.DIHEDRAL>
0

>  <SCORE.SYSTEM.SOLV>
0

>  <SCORE.SYSTEM.norm>
0

>  <SCORE.heavy>
13

>  <SCORE.norm>
-1.28669

>  <RMSD>
2.630

$$$$
ligand
 OpenBabel02271912143D
libRbt.so/2013.1/901 2013/11/27
 13 14  0  0  0  0  0  0  0  0999 V2000
   33.1303   32.0467   24.3573 N   0  0  0  0  0  0  0  0  0  0  0  0
   32.9400   32.6628   23.1069 C   0  0  0  0  0  0  0  0  0  0  0  0
   31.8610   32.2191   22.3539 N   0  0  0  0  0  0  0  0  0  0  0  0
   33.7324   33.6211   22.5690 N   0  0  0  0  0  0  0  0  0  0  0  0
   34.7915   33.9545   23.4079 C   0  0  0  0  0  0  0  0  0  0  0  0
   35.0504   33.4083   24.6709 C   0  0  0  0  0  0  0  0  0  0  0  0
   34.2198   32.4129   25.2061 C   0  0  0  0  0  0  0  0  0  0  0  0
   34.3476   31.8484   26.2827 O   0  0  0  0  0  0  0  0  0  0  0  0
   36.2149   34.0095   25.2010 C   0  0  0  0  0  0  0  0  0  0  0  0
   36.6490   34.9240   24.2539 C   0  0  0  0  0  0  0  0  0  0  0  0
   35.7683   34.8969   23.1432 N   0  0  0  0  0  0  0  0  0  0  0  0
   36.8037   33.6485   26.5193 C   0  0  0  0  0  0  0  0  0  0  0  0
   38.0990   34.3177   26.7163 N   0  0  0  0  0  0  0  0  0  0  0  0
  1  2  1  0  0  0  0
  1  7  1  0  0  0  0
  2  3  1  0  0  0  0
  2  4  2  0  0  0  0
  4  5  1  0  0  0  0
  5  6  2  0  0  0  0
  5 11  1  0  0  0  0
  6  7  1  0  0  0  0
  6  9  1  0  0  0  0
  7  8  2  0  0  0  0
  9 10  2  0  0  0  0
  9 12  1  0  0  0  0
 10 11  1  0  0  0  0
 12 13  1  0  0  0  0
M  END
>  <CHROM.1>
172.75409412,34.88092308,33.35210285,24.47633999,2.83525064,-0.58781776,-1.01672883

>  <Name>
ligand

>  <RI>
0

>  <Rbt.Current_Directory>
/home/itssahil/PROJECTS/Mol_Feturizer/Test_systems_manuscript/rnas/3q50

>  <Rbt.Executable>
rbdock ($Id: //depot/dev/client3/rdock/2013.1/src/exe/rbdock.cxx#4 $)

>  <Rbt.Library>
libRbt.so (2013.1, Build901 2013/11/27)

>  <Rbt.Parameter_File>
/export/apps/rDock/src/rDock_2013.1_src/data/scripts/dock_solv.prm

>  <Rbt.Receptor>
prm/blind_docking_80.prm

>  <SCORE>
-16.7802

>  <SCORE.INTER>
-16.8081

>  <SCORE.INTER.CONST>
1

>  <SCORE.INTER.POLAR>
0

>  <SCORE.INTER.ROT>
1

>  <SCORE.INTER.SOLV>
22.3557

>  <SCORE.INTER.VDW>
-22.924

>  <SCORE.INTER.norm>
-1.29293

>  <SCORE.INTRA>
0.0278573

>  <SCORE.INTRA.DIHEDRAL>
0.0461356

>  <SCORE.INTRA.DIHEDRAL.0>
1.65305

>  <SCORE.INTRA.POLAR>
0

>  <SCORE.INTRA.POLAR.0>
0

>  <SCORE.INTRA.REPUL>
0

>  <SCORE.INTRA.REPUL.0>
0

>  <SCORE.INTRA.SOLV>
0.00217805

>  <SCORE.INTRA.SOLV.lig_0>
-46.9527

>  <SCORE.INTRA.VDW>
0.00370043

>  <SCORE.INTRA.VDW.0>
-0.177978

>  <SCORE.INTRA.norm>
0.00214287

>  <SCORE.RESTR>
0

>  <SCORE.RESTR.CAVITY>
0

>  <SCORE.RESTR.norm>
0

>  <SCORE.SYSTEM>
0

>  <SCORE.SYSTEM.CONST>
0

>  <SCORE.SYSTEM.DIHEDRAL>
0

>  <SCORE.SYSTEM.SOLV>
0

>  <SCORE.SYSTEM.norm>
0

>  <SCORE.heavy>
13

>  <SCORE.norm>
-1.29079

>  <RMSD>
2.631

$$$$
ligand
 OpenBabel02271912143D
libRbt.so/2013.1/901 2013/11/27
 13 14  0  0  0  0  0  0  0  0999 V2000
   33.1327   32.0410   24.3556 N   0  0  0  0  0  0  0  0  0  0  0  0
   32.9404   32.6606   23.1073 C   0  0  0  0  0  0  0  0  0  0  0  0
   31.8605   32.2187   22.3546 N   0  0  0  0  0  0  0  0  0  0  0  0
   33.7318   33.6208   22.5710 N   0  0  0  0  0  0  0  0  0  0  0  0
   34.7919   33.9521   23.4094 C   0  0  0  0  0  0  0  0  0  0  0  0
   35.0527   33.4024   24.6705 C   0  0  0  0  0  0  0  0  0  0  0  0
   34.2232   32.4052   25.2040 C   0  0  0  0  0  0  0  0  0  0  0  0
   34.3527   31.8377   26.2788 O   0  0  0  0  0  0  0  0  0  0  0  0
   36.2178   34.0024   25.2007 C   0  0  0  0  0  0  0  0  0  0  0  0
   36.6502   34.9198   24.2556 C   0  0  0  0  0  0  0  0  0  0  0  0
   35.7680   34.8955   23.1460 N   0  0  0  0  0  0  0  0  0  0  0  0
   36.8085   33.6379   26.5171 C   0  0  0  0  0  0  0  0  0  0  0  0
   38.0992   34.3147   26.7185 N   0  0  0  0  0  0  0  0  0  0  0  0
  1  2  1  0  0  0  0
  1  7  1  0  0  0  0
  2  3  1  0  0  0  0
  2  4  2  0  0  0  0
  4  5  1  0  0  0  0
  5  6  2  0  0  0  0
  5 11  1  0  0  0  0
  6  7  1  0  0  0  0
  6  9  1  0  0  0  0
  7  8  2  0  0  0  0
  9 10  2  0  0  0  0
  9 12  1  0  0  0  0
 10 11  1  0  0  0  0
 12 13  1  0  0  0  0
M  END
>  <CHROM.1>
173.17006401,34.88263955,33.34729932,24.47635408,2.83675799,-0.58801030,-1.01334291

>  <Name>
ligand

>  <RI>
0

>  <Rbt.Current_Directory>
/home/itssahil/PROJECTS/Mol_Feturizer/Test_systems_manuscript/rnas/3q50

>  <Rbt.Executable>
rbdock ($Id: //depot/dev/client3/rdock/2013.1/src/exe/rbdock.cxx#4 $)

>  <Rbt.Library>
libRbt.so (2013.1, Build901 2013/11/27)

>  <Rbt.Parameter_File>
/export/apps/rDock/src/rDock_2013.1_src/data/scripts/dock_solv.prm

>  <Rbt.Receptor>
prm/blind_docking_100.prm

>  <SCORE>
-16.7848

>  <SCORE.INTER>
-16.8124

>  <SCORE.INTER.CONST>
1

>  <SCORE.INTER.POLAR>
0

>  <SCORE.INTER.ROT>
1

>  <SCORE.INTER.SOLV>
22.3459

>  <SCORE.INTER.VDW>
-22.9236

>  <SCORE.INTER.norm>
-1.29326

>  <SCORE.INTRA>
0.0275917

>  <SCORE.INTRA.DIHEDRAL>
0.044971

>  <SCORE.INTRA.DIHEDRAL.0>
1.65305

>  <SCORE.INTRA.POLAR>
0

>  <SCORE.INTRA.POLAR.0>
0

>  <SCORE.INTRA.REPUL>
0

>  <SCORE.INTRA.REPUL.0>
0

>  <SCORE.INTRA.SOLV>
0.00215311

>  <SCORE.INTRA.SOLV.lig_0>
-46.9527

>  <SCORE.INTRA.VDW>
0.0040296

>  <SCORE.INTRA.VDW.0>
-0.177978

>  <SCORE.INTRA.norm>
0.00212244

>  <SCORE.RESTR>
0

>  <SCORE.RESTR.CAVITY>
0

>  <SCORE.RESTR.norm>
0

>  <SCORE.SYSTEM>
0

>  <SCORE.SYSTEM.CONST>
0

>  <SCORE.SYSTEM.DIHEDRAL>
0

>  <SCORE.SYSTEM.SOLV>
0

>  <SCORE.SYSTEM.norm>
0

>  <SCORE.heavy>
13

>  <SCORE.norm>
-1.29114

>  <RMSD>
2.632

$$$$
ligand
 OpenBabel02271912143D
libRbt.so/2013.1/901 2013/11/27
 13 14  0  0  0  0  0  0  0  0999 V2000
   33.1285   32.0428   24.3574 N   0  0  0  0  0  0  0  0  0  0  0  0
   32.9395   32.6604   23.1075 C   0  0  0  0  0  0  0  0  0  0  0  0
   31.8614   32.2175   22.3528 N   0  0  0  0  0  0  0  0  0  0  0  0
   33.7324   33.6195   22.5717 N   0  0  0  0  0  0  0  0  0  0  0  0
   34.7905   33.9520   23.4122 C   0  0  0  0  0  0  0  0  0  0  0  0
   35.0481   33.4043   24.6748 C   0  0  0  0  0  0  0  0  0  0  0  0
   34.2170   32.4081   25.2079 C   0  0  0  0  0  0  0  0  0  0  0  0
   34.3438   31.8423   26.2838 O   0  0  0  0  0  0  0  0  0  0  0  0
   36.2120   34.0049   25.2070 C   0  0  0  0  0  0  0  0  0  0  0  0
   36.6470   34.9206   24.2615 C   0  0  0  0  0  0  0  0  0  0  0  0
   35.7676   34.8948   23.1497 N   0  0  0  0  0  0  0  0  0  0  0  0
   36.7993   33.6424   26.5255 C   0  0  0  0  0  0  0  0  0  0  0  0
   38.0992   34.3033   26.7203 N   0  0  0  0  0  0  0  0  0  0  0  0
  1  2  1  0  0  0  0
  1  7  1  0  0  0  0
  2  3  1  0  0  0  0
  2  4  2  0  0  0  0
  4  5  1  0  0  0  0
  5  6  2  0  0  0  0
  5 11  1  0  0  0  0
  6  7  1  0  0  0  0
  6  9  1  0  0  0  0
  7  8  2  0  0  0  0
  9 10  2  0  0  0  0
  9 12  1  0  0  0  0
 10 11  1  0  0  0  0
 12 13  1  0  0  0  0
M  END
>  <CHROM.1>
172.31570368,34.87927781,33.34760717,24.47963208,2.83432948,-0.58781202,-1.01566859

>  <Name>
ligand

>  <RI>
0

>  <Rbt.Current_Directory>
/home/itssahil/PROJECTS/Mol_Feturizer/Test_systems_manuscript/rnas/3q50

>  <Rbt.Executable>
rbdock ($Id: //depot/dev/client3/rdock/2013.1/src/exe/rbdock.cxx#4 $)

>  <Rbt.Library>
libRbt.so (2013.1, Build901 2013/11/27)

>  <Rbt.Parameter_File>
/export/apps/rDock/src/rDock_2013.1_src/data/scripts/dock_solv.prm

>  <Rbt.Receptor>
prm/blind_docking_60.prm

>  <SCORE>
-16.7764

>  <SCORE.INTER>
-16.8045

>  <SCORE.INTER.CONST>
1

>  <SCORE.INTER.POLAR>
0

>  <SCORE.INTER.ROT>
1

>  <SCORE.INTER.SOLV>
22.3392

>  <SCORE.INTER.VDW>
-22.9161

>  <SCORE.INTER.norm>
-1.29265

>  <SCORE.INTRA>
0.0281076

>  <SCORE.INTRA.DIHEDRAL>
0.0473531

>  <SCORE.INTRA.DIHEDRAL.0>
1.65305

>  <SCORE.INTRA.POLAR>
0

>  <SCORE.INTRA.POLAR.0>
0

>  <SCORE.INTRA.REPUL>
0

>  <SCORE.INTRA.REPUL.0>
0

>  <SCORE.INTRA.SOLV>
0.00220254

>  <SCORE.INTRA.SOLV.lig_0>
-46.9527

>  <SCORE.INTRA.VDW>
0.0033298

>  <SCORE.INTRA.VDW.0>
-0.177978

>  <SCORE.INTRA.norm>
0.00216212

>  <SCORE.RESTR>
0

>  <SCORE.RESTR.CAVITY>
0

>  <SCORE.RESTR.norm>
0

>  <SCORE.SYSTEM>
0

>  <SCORE.SYSTEM.CONST>
0

>  <SCORE.SYSTEM.DIHEDRAL>
0

>  <SCORE.SYSTEM.SOLV>
0

>  <SCORE.SYSTEM.norm>
0

>  <SCORE.heavy>
13

>  <SCORE.norm>
-1.29049

>  <RMSD>
2.632

$$$$
ligand
 OpenBabel02271912143D
libRbt.so/2013.1/901 2013/11/27
 13 14  0  0  0  0  0  0  0  0999 V2000
   33.2219   31.9530   24.3005 N   0  0  0  0  0  0  0  0  0  0  0  0
   32.9627   32.6421   23.1016 C   0  0  0  0  0  0  0  0  0  0  0  0
   31.8809   32.1991   22.3523 N   0  0  0  0  0  0  0  0  0  0  0  0
   33.6925   33.6712   22.6077 N   0  0  0  0  0  0  0  0  0  0  0  0
   34.7623   33.9976   23.4357 C   0  0  0  0  0  0  0  0  0  0  0  0
   35.0872   33.3805   24.6499 C   0  0  0  0  0  0  0  0  0  0  0  0
   34.3209   32.3128   25.1398 C   0  0  0  0  0  0  0  0  0  0  0  0
   34.5097   31.6838   26.1706 O   0  0  0  0  0  0  0  0  0  0  0  0
   36.2399   33.9995   25.1854 C   0  0  0  0  0  0  0  0  0  0  0  0
   36.6004   34.9954   24.2910 C   0  0  0  0  0  0  0  0  0  0  0  0
   35.6859   35.0012   23.2076 N   0  0  0  0  0  0  0  0  0  0  0  0
   36.8875   33.5791   26.4576 C   0  0  0  0  0  0  0  0  0  0  0  0
   38.0999   34.3714   26.7159 N   0  0  0  0  0  0  0  0  0  0  0  0
  1  2  1  0  0  0  0
  1  7  1  0  0  0  0
  2  3  1  0  0  0  0
  2  4  2  0  0  0  0
  4  5  1  0  0  0  0
  5  6  2  0  0  0  0
  5 11  1  0  0  0  0
  6  7  1  0  0  0  0
  6  9  1  0  0  0  0
  7  8  2  0  0  0  0
  9 10  2  0  0  0  0
  9 12  1  0  0  0  0
 10 11  1  0  0  0  0
 12 13  1  0  0  0  0
M  END
>  <CHROM.1>
177.33680070,34.90954955,33.33575990,24.46148010,2.89714524,-0.61578699,-0.91642406

>  <Name>
ligand

>  <RI>
0

>  <Rbt.Current_Directory>
/home/itssahil/PROJECTS/Mol_Feturizer/Test_systems_manuscript/rnas/3q50

>  <Rbt.Executable>
rbdock ($Id: //depot/dev/client3/rdock/2013.1/src/exe/rbdock.cxx#4 $)

>  <Rbt.Library>
libRbt.so (2013.1, Build901 2013/11/27)

>  <Rbt.Parameter_File>
/export/apps/rDock/src/rDock_2013.1_src/data/scripts/dock_solv.prm

>  <Rbt.Receptor>
prm/blind_docking_60.prm

>  <SCORE>
-16.6815

>  <SCORE.INTER>
-16.7049

>  <SCORE.INTER.CONST>
1

>  <SCORE.INTER.POLAR>
0

>  <SCORE.INTER.ROT>
1

>  <SCORE.INTER.SOLV>
22.2881

>  <SCORE.INTER.VDW>
-22.8327

>  <SCORE.INTER.norm>
-1.28499

>  <SCORE.INTRA>
0.0234597

>  <SCORE.INTRA.DIHEDRAL>
0.0329274

>  <SCORE.INTRA.DIHEDRAL.0>
1.65305

>  <SCORE.INTRA.POLAR>
0

>  <SCORE.INTRA.POLAR.0>
0

>  <SCORE.INTRA.REPUL>
0

>  <SCORE.INTRA.REPUL.0>
0

>  <SCORE.INTRA.SOLV>
0.0018109

>  <SCORE.INTRA.SOLV.lig_0>
-46.9527

>  <SCORE.INTRA.VDW>
0.00609057

>  <SCORE.INTRA.VDW.0>
-0.177978

>  <SCORE.INTRA.norm>
0.0018046

>  <SCORE.RESTR>
0

>  <SCORE.RESTR.CAVITY>
0

>  <SCORE.RESTR.norm>
0

>  <SCORE.SYSTEM>
0

>  <SCORE.SYSTEM.CONST>
0

>  <SCORE.SYSTEM.DIHEDRAL>
0

>  <SCORE.SYSTEM.SOLV>
0

>  <SCORE.SYSTEM.norm>
0

>  <SCORE.heavy>
13

>  <SCORE.norm>
-1.28319

>  <RMSD>
2.633

$$$$
ligand
 OpenBabel02271912143D
libRbt.so/2013.1/901 2013/11/27
 13 14  0  0  0  0  0  0  0  0999 V2000
   33.1234   32.0482   24.3501 N   0  0  0  0  0  0  0  0  0  0  0  0
   32.9439   32.6492   23.0908 C   0  0  0  0  0  0  0  0  0  0  0  0
   31.8737   32.1938   22.3324 N   0  0  0  0  0  0  0  0  0  0  0  0
   33.7391   33.6035   22.5497 N   0  0  0  0  0  0  0  0  0  0  0  0
   34.7888   33.9495   23.3951 C   0  0  0  0  0  0  0  0  0  0  0  0
   35.0366   33.4188   24.6669 C   0  0  0  0  0  0  0  0  0  0  0  0
   34.2033   32.4274   25.2054 C   0  0  0  0  0  0  0  0  0  0  0  0
   34.3220   31.8758   26.2897 O   0  0  0  0  0  0  0  0  0  0  0  0
   36.1942   34.0293   25.2016 C   0  0  0  0  0  0  0  0  0  0  0  0
   36.6352   34.9339   24.2482 C   0  0  0  0  0  0  0  0  0  0  0  0
   35.7658   34.8915   23.1291 N   0  0  0  0  0  0  0  0  0  0  0  0
   36.7707   33.6854   26.5297 C   0  0  0  0  0  0  0  0  0  0  0  0
   38.0993   34.2944   26.6986 N   0  0  0  0  0  0  0  0  0  0  0  0
  1  2  1  0  0  0  0
  1  7  1  0  0  0  0
  2  3  1  0  0  0  0
  2  4  2  0  0  0  0
  4  5  1  0  0  0  0
  5  6  2  0  0  0  0
  5 11  1  0  0  0  0
  6  7  1  0  0  0  0
  6  9  1  0  0  0  0
  7  8  2  0  0  0  0
  9 10  2  0  0  0  0
  9 12  1  0  0  0  0
 10 11  1  0  0  0  0
 12 13  1  0  0  0  0
M  END
>  <CHROM.1>
169.30756640,34.87224831,33.35447690,24.46864759,2.82757517,-0.58999206,-1.02998974

>  <Name>
ligand

>  <RI>
0

>  <Rbt.Current_Directory>
/home/itssahil/PROJECTS/Mol_Feturizer/Test_systems_manuscript/rnas/3q50

>  <Rbt.Executable>
rbdock ($Id: //depot/dev/client3/rdock/2013.1/src/exe/rbdock.cxx#4 $)

>  <Rbt.Library>
libRbt.so (2013.1, Build901 2013/11/27)

>  <Rbt.Parameter_File>
/export/apps/rDock/src/rDock_2013.1_src/data/scripts/dock_solv.prm

>  <Rbt.Receptor>
prm/blind_docking_100.prm

>  <SCORE>
-16.7371

>  <SCORE.INTER>
-16.7661

>  <SCORE.INTER.CONST>
1

>  <SCORE.INTER.POLAR>
0

>  <SCORE.INTER.ROT>
1

>  <SCORE.INTER.SOLV>
22.351

>  <SCORE.INTER.VDW>
-22.8944

>  <SCORE.INTER.norm>
-1.2897

>  <SCORE.INTRA>
0.0289996

>  <SCORE.INTRA.DIHEDRAL>
0.0553842

>  <SCORE.INTRA.DIHEDRAL.0>
1.65305

>  <SCORE.INTRA.POLAR>
0

>  <SCORE.INTRA.POLAR.0>
0

>  <SCORE.INTRA.REPUL>
0

>  <SCORE.INTRA.REPUL.0>
0

>  <SCORE.INTRA.SOLV>
0.00232191

>  <SCORE.INTRA.SOLV.lig_0>
-46.9527

>  <SCORE.INTRA.VDW>
0.000146517

>  <SCORE.INTRA.VDW.0>
-0.177978

>  <SCORE.INTRA.norm>
0.00223073

>  <SCORE.RESTR>
0

>  <SCORE.RESTR.CAVITY>
0

>  <SCORE.RESTR.norm>
0

>  <SCORE.SYSTEM>
0

>  <SCORE.SYSTEM.CONST>
0

>  <SCORE.SYSTEM.DIHEDRAL>
0

>  <SCORE.SYSTEM.SOLV>
0

>  <SCORE.SYSTEM.norm>
0

>  <SCORE.heavy>
13

>  <SCORE.norm>
-1.28747

>  <RMSD>
2.634

$$$$
ligand
 OpenBabel02271912143D
libRbt.so/2013.1/901 2013/11/27
 13 14  0  0  0  0  0  0  0  0999 V2000
   33.2477   31.9339   24.2744 N   0  0  0  0  0  0  0  0  0  0  0  0
   32.9657   32.6342   23.0873 C   0  0  0  0  0  0  0  0  0  0  0  0
   31.8847   32.1826   22.3419 N   0  0  0  0  0  0  0  0  0  0  0  0
   33.6732   33.6821   22.6005 N   0  0  0  0  0  0  0  0  0  0  0  0
   34.7449   34.0159   23.4231 C   0  0  0  0  0  0  0  0  0  0  0  0
   35.0915   33.3886   24.6260 C   0  0  0  0  0  0  0  0  0  0  0  0
   34.3481   32.3015   25.1085 C   0  0  0  0  0  0  0  0  0  0  0  0
   34.5571   31.6624   26.1292 O   0  0  0  0  0  0  0  0  0  0  0  0
   36.2384   34.0202   25.1592 C   0  0  0  0  0  0  0  0  0  0  0  0
   36.5736   35.0338   24.2749 C   0  0  0  0  0  0  0  0  0  0  0  0
   35.6491   35.0381   23.2001 N   0  0  0  0  0  0  0  0  0  0  0  0
   36.9048   33.5943   26.4199 C   0  0  0  0  0  0  0  0  0  0  0  0
   38.0936   34.4182   26.6891 N   0  0  0  0  0  0  0  0  0  0  0  0
  1  2  1  0  0  0  0
  1  7  1  0  0  0  0
  2  3  1  0  0  0  0
  2  4  2  0  0  0  0
  4  5  1  0  0  0  0
  5  6  2  0  0  0  0
  5 11  1  0  0  0  0
  6  7  1  0  0  0  0
  6  9  1  0  0  0  0
  7  8  2  0  0  0  0
  9 10  2  0  0  0  0
  9 12  1  0  0  0  0
 10 11  1  0  0  0  0
 12 13  1  0  0  0  0
M  END
>  <CHROM.1>
178.25480063,34.91190801,33.34444197,24.43953878,2.91860065,-0.62508200,-0.89121282

>  <Name>
ligand

>  <RI>
0

>  <Rbt.Current_Directory>
/home/itssahil/PROJECTS/Mol_Feturizer/Test_systems_manuscript/rnas/3q50

>  <Rbt.Executable>
rbdock ($Id: //depot/dev/client3/rdock/2013.1/src/exe/rbdock.cxx#4 $)

>  <Rbt.Library>
libRbt.so (2013.1, Build901 2013/11/27)

>  <Rbt.Parameter_File>
/export/apps/rDock/src/rDock_2013.1_src/data/scripts/dock_solv.prm

>  <Rbt.Receptor>
prm/blind_docking_100.prm

>  <SCORE>
-16.694

>  <SCORE.INTER>
-16.7162

>  <SCORE.INTER.CONST>
1

>  <SCORE.INTER.POLAR>
0

>  <SCORE.INTER.ROT>
1

>  <SCORE.INTER.SOLV>
22.3078

>  <SCORE.INTER.VDW>
-22.8467

>  <SCORE.INTER.norm>
-1.28586

>  <SCORE.INTRA>
0.0222013

>  <SCORE.INTRA.DIHEDRAL>
0.0302156

>  <SCORE.INTRA.DIHEDRAL.0>
1.65305

>  <SCORE.INTRA.POLAR>
0

>  <SCORE.INTRA.POLAR.0>
0

>  <SCORE.INTRA.REPUL>
0

>  <SCORE.INTRA.REPUL.0>
0

>  <SCORE.INTRA.SOLV>
0.00171271

>  <SCORE.INTRA.SOLV.lig_0>
-46.9527

>  <SCORE.INTRA.VDW>
0.00623721

>  <SCORE.INTRA.VDW.0>
-0.177978

>  <SCORE.INTRA.norm>
0.0017078

>  <SCORE.RESTR>
0

>  <SCORE.RESTR.CAVITY>
0

>  <SCORE.RESTR.norm>
0

>  <SCORE.SYSTEM>
0

>  <SCORE.SYSTEM.CONST>
0

>  <SCORE.SYSTEM.DIHEDRAL>
0

>  <SCORE.SYSTEM.SOLV>
0

>  <SCORE.SYSTEM.norm>
0

>  <SCORE.heavy>
13

>  <SCORE.norm>
-1.28415

>  <RMSD>
2.636

$$$$
ligand
 OpenBabel02271912143D
libRbt.so/2013.1/901 2013/11/27
 13 14  0  0  0  0  0  0  0  0999 V2000
   33.2190   31.9346   24.2741 N   0  0  0  0  0  0  0  0  0  0  0  0
   32.9603   32.6378   23.0834 C   0  0  0  0  0  0  0  0  0  0  0  0
   31.8785   32.2040   22.3287 N   0  0  0  0  0  0  0  0  0  0  0  0
   33.6904   33.6725   22.6018 N   0  0  0  0  0  0  0  0  0  0  0  0
   34.7601   33.9888   23.4338 C   0  0  0  0  0  0  0  0  0  0  0  0
   35.0846   33.3574   24.6408 C   0  0  0  0  0  0  0  0  0  0  0  0
   34.3179   32.2842   25.1179 C   0  0  0  0  0  0  0  0  0  0  0  0
   34.5063   31.6431   26.1413 O   0  0  0  0  0  0  0  0  0  0  0  0
   36.2374   33.9698   25.1837 C   0  0  0  0  0  0  0  0  0  0  0  0
   36.5983   34.9760   24.3012 C   0  0  0  0  0  0  0  0  0  0  0  0
   35.6840   34.9948   23.2178 N   0  0  0  0  0  0  0  0  0  0  0  0
   36.8846   33.5342   26.4511 C   0  0  0  0  0  0  0  0  0  0  0  0
   38.0999   34.3197   26.7164 N   0  0  0  0  0  0  0  0  0  0  0  0
  1  2  1  0  0  0  0
  1  7  1  0  0  0  0
  2  3  1  0  0  0  0
  2  4  2  0  0  0  0
  4  5  1  0  0  0  0
  5  6  2  0  0  0  0
  5 11  1  0  0  0  0
  6  7  1  0  0  0  0
  6  9  1  0  0  0  0
  7  8  2  0  0  0  0
  9 10  2  0  0  0  0
  9 12  1  0  0  0  0
 10 11  1  0  0  0  0
 12 13  1  0  0  0  0
M  END
>  <CHROM.1>
177.12634133,34.90720553,33.31463655,24.45155920,2.89680767,-0.61537373,-0.90472888

>  <Name>
ligand

>  <RI>
0

>  <Rbt.Current_Directory>
/home/itssahil/PROJECTS/Mol_Feturizer/Test_systems_manuscript/rnas/3q50

>  <Rbt.Executable>
rbdock ($Id: //depot/dev/client3/rdock/2013.1/src/exe/rbdock.cxx#4 $)

>  <Rbt.Library>
libRbt.so (2013.1, Build901 2013/11/27)

>  <Rbt.Parameter_File>
/export/apps/rDock/src/rDock_2013.1_src/data/scripts/dock_solv.prm

>  <Rbt.Receptor>
prm/blind_docking_60.prm

>  <SCORE>
-16.6888

>  <SCORE.INTER>
-16.7125

>  <SCORE.INTER.CONST>
1

>  <SCORE.INTER.POLAR>
0

>  <SCORE.INTER.ROT>
1

>  <SCORE.INTER.SOLV>
22.205

>  <SCORE.INTER.VDW>
-22.81

>  <SCORE.INTER.norm>
-1.28558

>  <SCORE.INTRA>
0.023731

>  <SCORE.INTRA.DIHEDRAL>
0.0335474

>  <SCORE.INTRA.DIHEDRAL.0>
1.65305

>  <SCORE.INTRA.POLAR>
0

>  <SCORE.INTRA.POLAR.0>
0

>  <SCORE.INTRA.REPUL>
0

>  <SCORE.INTRA.REPUL.0>
0

>  <SCORE.INTRA.SOLV>
0.00183225

>  <SCORE.INTRA.SOLV.lig_0>
-46.9527

>  <SCORE.INTRA.VDW>
0.00604119

>  <SCORE.INTRA.VDW.0>
-0.177978

>  <SCORE.INTRA.norm>
0.00182546

>  <SCORE.RESTR>
0

>  <SCORE.RESTR.CAVITY>
0

>  <SCORE.RESTR.norm>
0

>  <SCORE.SYSTEM>
0

>  <SCORE.SYSTEM.CONST>
0

>  <SCORE.SYSTEM.DIHEDRAL>
0

>  <SCORE.SYSTEM.SOLV>
0

>  <SCORE.SYSTEM.norm>
0

>  <SCORE.heavy>
13

>  <SCORE.norm>
-1.28375

>  <RMSD>
2.640

$$$$
ligand
 OpenBabel02271912143D
libRbt.so/2013.1/901 2013/11/27
 13 14  0  0  0  0  0  0  0  0999 V2000
   33.0835   31.9937   24.2742 N   0  0  0  0  0  0  0  0  0  0  0  0
   32.8993   32.6297   23.0329 C   0  0  0  0  0  0  0  0  0  0  0  0
   31.8295   32.1918   22.2636 N   0  0  0  0  0  0  0  0  0  0  0  0
   33.6897   33.6022   22.5179 N   0  0  0  0  0  0  0  0  0  0  0  0
   34.7396   33.9282   23.3711 C   0  0  0  0  0  0  0  0  0  0  0  0
   34.9918   33.3623   24.6268 C   0  0  0  0  0  0  0  0  0  0  0  0
   34.1635   32.3525   25.1382 C   0  0  0  0  0  0  0  0  0  0  0  0
   34.2863   31.7707   26.2060 O   0  0  0  0  0  0  0  0  0  0  0  0
   36.1479   33.9620   25.1767 C   0  0  0  0  0  0  0  0  0  0  0  0
   36.5836   34.8952   24.2489 C   0  0  0  0  0  0  0  0  0  0  0  0
   35.7123   34.8812   23.1305 N   0  0  0  0  0  0  0  0  0  0  0  0
   36.7282   33.5825   26.4935 C   0  0  0  0  0  0  0  0  0  0  0  0
   38.0790   34.1434   26.6528 N   0  0  0  0  0  0  0  0  0  0  0  0
  1  2  1  0  0  0  0
  1  7  1  0  0  0  0
  2  3  1  0  0  0  0
  2  4  2  0  0  0  0
  4  5  1  0  0  0  0
  5  6  2  0  0  0  0
  5 11  1  0  0  0  0
  6  7  1  0  0  0  0
  6  9  1  0  0  0  0
  7  8  2  0  0  0  0
  9 10  2  0  0  0  0
  9 12  1  0  0  0  0
 10 11  1  0  0  0  0
 12 13  1  0  0  0  0
M  END
>  <CHROM.1>
166.82481681,34.82933687,33.29908461,24.42504119,2.83230807,-0.58867906,-0.99669445

>  <Name>
ligand

>  <RI>
0

>  <Rbt.Current_Directory>
/home/itssahil/PROJECTS/Mol_Feturizer/Test_systems_manuscript/rnas/3q50

>  <Rbt.Executable>
rbdock ($Id: //depot/dev/client3/rdock/2013.1/src/exe/rbdock.cxx#4 $)

>  <Rbt.Library>
libRbt.so (2013.1, Build901 2013/11/27)

>  <Rbt.Parameter_File>
/export/apps/rDock/src/rDock_2013.1_src/data/scripts/dock_solv.prm

>  <Rbt.Receptor>
prm/blind_docking_60.prm

>  <SCORE>
-16.714

>  <SCORE.INTER>
-16.7426

>  <SCORE.INTER.CONST>
1

>  <SCORE.INTER.POLAR>
0

>  <SCORE.INTER.ROT>
1

>  <SCORE.INTER.SOLV>
22.2159

>  <SCORE.INTER.VDW>
-22.8337

>  <SCORE.INTER.norm>
-1.2879

>  <SCORE.INTRA>
0.028641

>  <SCORE.INTRA.DIHEDRAL>
0.0614906

>  <SCORE.INTRA.DIHEDRAL.0>
1.65305

>  <SCORE.INTRA.POLAR>
0

>  <SCORE.INTRA.POLAR.0>
0

>  <SCORE.INTRA.REPUL>
0

>  <SCORE.INTRA.REPUL.0>
0

>  <SCORE.INTRA.SOLV>
0.00235844

>  <SCORE.INTRA.SOLV.lig_0>
-46.9527

>  <SCORE.INTRA.VDW>
-0.00328348

>  <SCORE.INTRA.VDW.0>
-0.177978

>  <SCORE.INTRA.norm>
0.00220316

>  <SCORE.RESTR>
0

>  <SCORE.RESTR.CAVITY>
0

>  <SCORE.RESTR.norm>
0

>  <SCORE.SYSTEM>
0

>  <SCORE.SYSTEM.CONST>
0

>  <SCORE.SYSTEM.DIHEDRAL>
0

>  <SCORE.SYSTEM.SOLV>
0

>  <SCORE.SYSTEM.norm>
0

>  <SCORE.heavy>
13

>  <SCORE.norm>
-1.28569

>  <RMSD>
2.665

$$$$
ligand
 OpenBabel02271912143D
libRbt.so/2013.1/901 2013/11/27
 13 14  0  0  0  0  0  0  0  0999 V2000
   33.2392   32.1020   24.4066 N   0  0  0  0  0  0  0  0  0  0  0  0
   33.0799   32.6624   23.1260 C   0  0  0  0  0  0  0  0  0  0  0  0
   32.0242   32.1797   22.3640 N   0  0  0  0  0  0  0  0  0  0  0  0
   33.8818   33.6016   22.5687 N   0  0  0  0  0  0  0  0  0  0  0  0
   34.9158   33.9776   23.4207 C   0  0  0  0  0  0  0  0  0  0  0  0
   35.1429   33.4881   24.7128 C   0  0  0  0  0  0  0  0  0  0  0  0
   34.3032   32.5115   25.2679 C   0  0  0  0  0  0  0  0  0  0  0  0
   34.4045   31.9949   26.3710 O   0  0  0  0  0  0  0  0  0  0  0  0
   36.2895   34.1190   25.2477 C   0  0  0  0  0  0  0  0  0  0  0  0
   36.7445   34.9944   24.2739 C   0  0  0  0  0  0  0  0  0  0  0  0
   35.8947   34.9138   23.1419 N   0  0  0  0  0  0  0  0  0  0  0  0
   36.8438   33.8190   26.5958 C   0  0  0  0  0  0  0  0  0  0  0  0
   37.4657   32.4859   26.6226 N   0  0  0  0  0  0  0  0  0  0  0  0
  1  2  1  0  0  0  0
  1  7  1  0  0  0  0
  2  3  1  0  0  0  0
  2  4  2  0  0  0  0
  4  5  1  0  0  0  0
  5  6  2  0  0  0  0
  5 11  1  0  0  0  0
  6  7  1  0  0  0  0
  6  9  1  0  0  0  0
  7  8  2  0  0  0  0
  9 10  2  0  0  0  0
  9 12  1  0  0  0  0
 10 11  1  0  0  0  0
 12 13  1  0  0  0  0
M  END
>  <CHROM.1>
71.04075639,34.92511582,33.25821647,24.50197018,2.72996474,-0.56810273,-0.96840541

>  <Name>
ligand

>  <RI>
0

>  <Rbt.Current_Directory>
/home/itssahil/PROJECTS/Mol_Feturizer/Test_systems_manuscript/rnas/3q50

>  <Rbt.Executable>
rbdock ($Id: //depot/dev/client3/rdock/2013.1/src/exe/rbdock.cxx#4 $)

>  <Rbt.Library>
libRbt.so (2013.1, Build901 2013/11/27)

>  <Rbt.Parameter_File>
/export/apps/rDock/src/rDock_2013.1_src/data/scripts/dock_solv.prm

>  <Rbt.Receptor>
prm/blind_docking_60.prm

>  <SCORE>
-15.7832

>  <SCORE.INTER>
-16.2492

>  <SCORE.INTER.CONST>
1

>  <SCORE.INTER.POLAR>
0

>  <SCORE.INTER.ROT>
1

>  <SCORE.INTER.SOLV>
23.6902

>  <SCORE.INTER.VDW>
-22.9962

>  <SCORE.INTER.norm>
-1.24994

>  <SCORE.INTRA>
0.465981

>  <SCORE.INTRA.DIHEDRAL>
-0.00556337

>  <SCORE.INTRA.DIHEDRAL.0>
1.65305

>  <SCORE.INTRA.POLAR>
0

>  <SCORE.INTRA.POLAR.0>
0

>  <SCORE.INTRA.REPUL>
0

>  <SCORE.INTRA.REPUL.0>
0

>  <SCORE.INTRA.SOLV>
1.44605

>  <SCORE.INTRA.SOLV.lig_0>
-46.9527

>  <SCORE.INTRA.VDW>
-0.254262

>  <SCORE.INTRA.VDW.0>
-0.177978

>  <SCORE.INTRA.norm>
0.0358447

>  <SCORE.RESTR>
0

>  <SCORE.RESTR.CAVITY>
0

>  <SCORE.RESTR.norm>
0

>  <SCORE.SYSTEM>
0

>  <SCORE.SYSTEM.CONST>
0

>  <SCORE.SYSTEM.DIHEDRAL>
0

>  <SCORE.SYSTEM.SOLV>
0

>  <SCORE.SYSTEM.norm>
0

>  <SCORE.heavy>
13

>  <SCORE.norm>
-1.21409

>  <RMSD>
2.717

$$$$
ligand
 OpenBabel02271912143D
libRbt.so/2013.1/901 2013/11/27
 13 14  0  0  0  0  0  0  0  0999 V2000
   33.1810   32.1305   24.4159 N   0  0  0  0  0  0  0  0  0  0  0  0
   33.0410   32.6736   23.1256 C   0  0  0  0  0  0  0  0  0  0  0  0
   31.9837   32.1964   22.3625 N   0  0  0  0  0  0  0  0  0  0  0  0
   33.8624   33.5912   22.5607 N   0  0  0  0  0  0  0  0  0  0  0  0
   34.8956   33.9635   23.4153 C   0  0  0  0  0  0  0  0  0  0  0  0
   35.1045   33.4903   24.7165 C   0  0  0  0  0  0  0  0  0  0  0  0
   34.2447   32.5360   25.2796 C   0  0  0  0  0  0  0  0  0  0  0  0
   34.3288   32.0347   26.3911 O   0  0  0  0  0  0  0  0  0  0  0  0
   36.2569   34.1108   25.2511 C   0  0  0  0  0  0  0  0  0  0  0  0
   36.7337   34.9638   24.2678 C   0  0  0  0  0  0  0  0  0  0  0  0
   35.8917   34.8795   23.1303 N   0  0  0  0  0  0  0  0  0  0  0  0
   36.7956   33.8227   26.6081 C   0  0  0  0  0  0  0  0  0  0  0  0
   37.4692   32.5151   26.6383 N   0  0  0  0  0  0  0  0  0  0  0  0
  1  2  1  0  0  0  0
  1  7  1  0  0  0  0
  2  3  1  0  0  0  0
  2  4  2  0  0  0  0
  4  5  1  0  0  0  0
  5  6  2  0  0  0  0
  5 11  1  0  0  0  0
  6  7  1  0  0  0  0
  6  9  1  0  0  0  0
  7  8  2  0  0  0  0
  9 10  2  0  0  0  0
  9 12  1  0  0  0  0
 10 11  1  0  0  0  0
 12 13  1  0  0  0  0
M  END
>  <CHROM.1>
74.55752103,34.89065592,33.26359111,24.50564204,2.71679857,-0.55613797,-0.99403039

>  <Name>
ligand

>  <RI>
0

>  <Rbt.Current_Directory>
/home/itssahil/PROJECTS/Mol_Feturizer/Test_systems_manuscript/rnas/3q50

>  <Rbt.Executable>
rbdock ($Id: //depot/dev/client3/rdock/2013.1/src/exe/rbdock.cxx#4 $)

>  <Rbt.Library>
libRbt.so (2013.1, Build901 2013/11/27)

>  <Rbt.Parameter_File>
/export/apps/rDock/src/rDock_2013.1_src/data/scripts/dock_solv.prm

>  <Rbt.Receptor>
prm/blind_docking_80.prm

>  <SCORE>
-15.8147

>  <SCORE.INTER>
-16.2284

>  <SCORE.INTER.CONST>
1

>  <SCORE.INTER.POLAR>
0

>  <SCORE.INTER.ROT>
1

>  <SCORE.INTER.SOLV>
23.6752

>  <SCORE.INTER.VDW>
-22.9774

>  <SCORE.INTER.norm>
-1.24834

>  <SCORE.INTRA>
0.413709

>  <SCORE.INTRA.DIHEDRAL>
-0.0134994

>  <SCORE.INTRA.DIHEDRAL.0>
1.65305

>  <SCORE.INTRA.POLAR>
0

>  <SCORE.INTRA.POLAR.0>
0

>  <SCORE.INTRA.REPUL>
0

>  <SCORE.INTRA.REPUL.0>
0

>  <SCORE.INTRA.SOLV>
1.33983

>  <SCORE.INTRA.SOLV.lig_0>
-46.9527

>  <SCORE.INTRA.VDW>
-0.249457

>  <SCORE.INTRA.VDW.0>
-0.177978

>  <SCORE.INTRA.norm>
0.0318237

>  <SCORE.RESTR>
0

>  <SCORE.RESTR.CAVITY>
0

>  <SCORE.RESTR.norm>
0

>  <SCORE.SYSTEM>
0

>  <SCORE.SYSTEM.CONST>
0

>  <SCORE.SYSTEM.DIHEDRAL>
0

>  <SCORE.SYSTEM.SOLV>
0

>  <SCORE.SYSTEM.norm>
0

>  <SCORE.heavy>
13

>  <SCORE.norm>
-1.21652

>  <RMSD>
2.718

$$$$
ligand
 OpenBabel02271912143D
libRbt.so/2013.1/901 2013/11/27
 13 14  0  0  0  0  0  0  0  0999 V2000
   33.2006   32.0962   24.3869 N   0  0  0  0  0  0  0  0  0  0  0  0
   33.0498   32.6617   23.1075 C   0  0  0  0  0  0  0  0  0  0  0  0
   31.9988   32.1826   22.3369 N   0  0  0  0  0  0  0  0  0  0  0  0
   33.8558   33.6026   22.5590 N   0  0  0  0  0  0  0  0  0  0  0  0
   34.8845   33.9748   23.4191 C   0  0  0  0  0  0  0  0  0  0  0  0
   35.1031   33.4801   24.7107 C   0  0  0  0  0  0  0  0  0  0  0  0
   34.2593   32.5017   25.2567 C   0  0  0  0  0  0  0  0  0  0  0  0
   34.3533   31.9807   26.3583 O   0  0  0  0  0  0  0  0  0  0  0  0
   36.2465   34.1082   25.2554 C   0  0  0  0  0  0  0  0  0  0  0  0
   36.7082   34.9872   24.2880 C   0  0  0  0  0  0  0  0  0  0  0  0
   35.8656   34.9115   23.1503 N   0  0  0  0  0  0  0  0  0  0  0  0
   36.7920   33.8027   26.6058 C   0  0  0  0  0  0  0  0  0  0  0  0
   37.4652   32.4946   26.6160 N   0  0  0  0  0  0  0  0  0  0  0  0
  1  2  1  0  0  0  0
  1  7  1  0  0  0  0
  2  3  1  0  0  0  0
  2  4  2  0  0  0  0
  4  5  1  0  0  0  0
  5  6  2  0  0  0  0
  5 11  1  0  0  0  0
  6  7  1  0  0  0  0
  6  9  1  0  0  0  0
  7  8  2  0  0  0  0
  9 10  2  0  0  0  0
  9 12  1  0  0  0  0
 10 11  1  0  0  0  0
 12 13  1  0  0  0  0
M  END
>  <CHROM.1>
73.54351563,34.89074387,33.25320892,24.49635825,2.72716057,-0.56914419,-0.96834672

>  <Name>
ligand

>  <RI>
0

>  <Rbt.Current_Directory>
/home/itssahil/PROJECTS/Mol_Feturizer/Test_systems_manuscript/rnas/3q50

>  <Rbt.Executable>
rbdock ($Id: //depot/dev/client3/rdock/2013.1/src/exe/rbdock.cxx#4 $)

>  <Rbt.Library>
libRbt.so (2013.1, Build901 2013/11/27)

>  <Rbt.Parameter_File>
/export/apps/rDock/src/rDock_2013.1_src/data/scripts/dock_solv.prm

>  <Rbt.Receptor>
prm/blind_docking_80.prm

>  <SCORE>
-15.8278

>  <SCORE.INTER>
-16.2561

>  <SCORE.INTER.CONST>
1

>  <SCORE.INTER.POLAR>
0

>  <SCORE.INTER.ROT>
1

>  <SCORE.INTER.SOLV>
23.7133

>  <SCORE.INTER.VDW>
-23.0085

>  <SCORE.INTER.norm>
-1.25047

>  <SCORE.INTRA>
0.42833

>  <SCORE.INTRA.DIHEDRAL>
-0.0113405

>  <SCORE.INTRA.DIHEDRAL.0>
1.65305

>  <SCORE.INTRA.POLAR>
0

>  <SCORE.INTRA.POLAR.0>
0

>  <SCORE.INTRA.REPUL>
0

>  <SCORE.INTRA.REPUL.0>
0

>  <SCORE.INTRA.SOLV>
1.37047

>  <SCORE.INTRA.SOLV.lig_0>
-46.9527

>  <SCORE.INTRA.VDW>
-0.251233

>  <SCORE.INTRA.VDW.0>
-0.177978

>  <SCORE.INTRA.norm>
0.0329485

>  <SCORE.RESTR>
0

>  <SCORE.RESTR.CAVITY>
0

>  <SCORE.RESTR.norm>
0

>  <SCORE.SYSTEM>
0

>  <SCORE.SYSTEM.CONST>
0

>  <SCORE.SYSTEM.DIHEDRAL>
0

>  <SCORE.SYSTEM.SOLV>
0

>  <SCORE.SYSTEM.norm>
0

>  <SCORE.heavy>
13

>  <SCORE.norm>
-1.21752

>  <RMSD>
2.724

$$$$
ligand
 OpenBabel02271912143D
libRbt.so/2013.1/901 2013/11/27
 13 14  0  0  0  0  0  0  0  0999 V2000
   33.2013   32.0882   24.3854 N   0  0  0  0  0  0  0  0  0  0  0  0
   33.0499   32.6514   23.1051 C   0  0  0  0  0  0  0  0  0  0  0  0
   31.9993   32.1701   22.3353 N   0  0  0  0  0  0  0  0  0  0  0  0
   33.8549   33.5923   22.5551 N   0  0  0  0  0  0  0  0  0  0  0  0
   34.8833   33.9668   23.4146 C   0  0  0  0  0  0  0  0  0  0  0  0
   35.1024   33.4744   24.7069 C   0  0  0  0  0  0  0  0  0  0  0  0
   34.2596   32.4961   25.2545 C   0  0  0  0  0  0  0  0  0  0  0  0
   34.3541   31.9769   26.3569 O   0  0  0  0  0  0  0  0  0  0  0  0
   36.2452   34.1045   25.2506 C   0  0  0  0  0  0  0  0  0  0  0  0
   36.7060   34.9825   24.2818 C   0  0  0  0  0  0  0  0  0  0  0  0
   35.8634   34.9041   23.1442 N   0  0  0  0  0  0  0  0  0  0  0  0
   36.7911   33.8017   26.6015 C   0  0  0  0  0  0  0  0  0  0  0  0
   37.4314   32.4773   26.6238 N   0  0  0  0  0  0  0  0  0  0  0  0
  1  2  1  0  0  0  0
  1  7  1  0  0  0  0
  2  3  1  0  0  0  0
  2  4  2  0  0  0  0
  4  5  1  0  0  0  0
  5  6  2  0  0  0  0
  5 11  1  0  0  0  0
  6  7  1  0  0  0  0
  6  9  1  0  0  0  0
  7  8  2  0  0  0  0
  9 10  2  0  0  0  0
  9 12  1  0  0  0  0
 10 11  1  0  0  0  0
 12 13  1  0  0  0  0
M  END
>  <CHROM.1>
71.89883059,34.88749786,33.24559690,24.49375866,2.72535601,-0.57135014,-0.96933145

>  <Name>
ligand

>  <RI>
0

>  <Rbt.Current_Directory>
/home/itssahil/PROJECTS/Mol_Feturizer/Test_systems_manuscript/rnas/3q50

>  <Rbt.Executable>
rbdock ($Id: //depot/dev/client3/rdock/2013.1/src/exe/rbdock.cxx#4 $)

>  <Rbt.Library>
libRbt.so (2013.1, Build901 2013/11/27)

>  <Rbt.Parameter_File>
/export/apps/rDock/src/rDock_2013.1_src/data/scripts/dock_solv.prm

>  <Rbt.Receptor>
prm/blind_docking_60.prm

>  <SCORE>
-15.8118

>  <SCORE.INTER>
-16.2646

>  <SCORE.INTER.CONST>
1

>  <SCORE.INTER.POLAR>
0

>  <SCORE.INTER.ROT>
1

>  <SCORE.INTER.SOLV>
23.7475

>  <SCORE.INTER.VDW>
-23.0255

>  <SCORE.INTER.norm>
-1.25112

>  <SCORE.INTRA>
0.452799

>  <SCORE.INTRA.DIHEDRAL>
-0.00761208

>  <SCORE.INTRA.DIHEDRAL.0>
1.65305

>  <SCORE.INTRA.POLAR>
0

>  <SCORE.INTRA.POLAR.0>
0

>  <SCORE.INTRA.REPUL>
0

>  <SCORE.INTRA.REPUL.0>
0

>  <SCORE.INTRA.SOLV>
1.42015

>  <SCORE.INTRA.SOLV.lig_0>
-46.9527

>  <SCORE.INTRA.VDW>
-0.25347

>  <SCORE.INTRA.VDW.0>
-0.177978

>  <SCORE.INTRA.norm>
0.0348307

>  <SCORE.RESTR>
0

>  <SCORE.RESTR.CAVITY>
0

>  <SCORE.RESTR.norm>
0

>  <SCORE.SYSTEM>
0

>  <SCORE.SYSTEM.CONST>
0

>  <SCORE.SYSTEM.DIHEDRAL>
0

>  <SCORE.SYSTEM.SOLV>
0

>  <SCORE.SYSTEM.norm>
0

>  <SCORE.heavy>
13

>  <SCORE.norm>
-1.21629

>  <RMSD>
2.728

$$$$
ligand
 OpenBabel02271912143D
libRbt.so/2013.1/901 2013/11/27
 13 14  0  0  0  0  0  0  0  0999 V2000
   33.2067   32.0862   24.3840 N   0  0  0  0  0  0  0  0  0  0  0  0
   33.0501   32.6542   23.1064 C   0  0  0  0  0  0  0  0  0  0  0  0
   31.9996   32.1720   22.3370 N   0  0  0  0  0  0  0  0  0  0  0  0
   33.8502   33.6004   22.5585 N   0  0  0  0  0  0  0  0  0  0  0  0
   34.8792   33.9753   23.4171 C   0  0  0  0  0  0  0  0  0  0  0  0
   35.1032   33.4784   24.7069 C   0  0  0  0  0  0  0  0  0  0  0  0
   34.2654   32.4946   25.2523 C   0  0  0  0  0  0  0  0  0  0  0  0
   34.3645   31.9713   26.3524 O   0  0  0  0  0  0  0  0  0  0  0  0
   36.2448   34.1107   25.2505 C   0  0  0  0  0  0  0  0  0  0  0  0
   36.7000   34.9944   24.2843 C   0  0  0  0  0  0  0  0  0  0  0  0
   35.8551   34.9175   23.1484 N   0  0  0  0  0  0  0  0  0  0  0  0
   36.7950   33.8043   26.5989 C   0  0  0  0  0  0  0  0  0  0  0  0
   37.4088   32.4675   26.6237 N   0  0  0  0  0  0  0  0  0  0  0  0
  1  2  1  0  0  0  0
  1  7  1  0  0  0  0
  2  3  1  0  0  0  0
  2  4  2  0  0  0  0
  4  5  1  0  0  0  0
  5  6  2  0  0  0  0
  5 11  1  0  0  0  0
  6  7  1  0  0  0  0
  6  9  1  0  0  0  0
  7  8  2  0  0  0  0
  9 10  2  0  0  0  0
  9 12  1  0  0  0  0
 10 11  1  0  0  0  0
 12 13  1  0  0  0  0
M  END
>  <CHROM.1>
70.38772394,34.88609123,33.24844118,24.49404272,2.72791794,-0.57450483,-0.96244700

>  <Name>
ligand

>  <RI>
0

>  <Rbt.Current_Directory>
/home/itssahil/PROJECTS/Mol_Feturizer/Test_systems_manuscript/rnas/3q50

>  <Rbt.Executable>
rbdock ($Id: //depot/dev/client3/rdock/2013.1/src/exe/rbdock.cxx#4 $)

>  <Rbt.Library>
libRbt.so (2013.1, Build901 2013/11/27)

>  <Rbt.Parameter_File>
/export/apps/rDock/src/rDock_2013.1_src/data/scripts/dock_solv.prm

>  <Rbt.Receptor>
prm/blind_docking_80.prm

>  <SCORE>
-15.8112

>  <SCORE.INTER>
-16.2874

>  <SCORE.INTER.CONST>
1

>  <SCORE.INTER.POLAR>
0

>  <SCORE.INTER.ROT>
1

>  <SCORE.INTER.SOLV>
23.7614

>  <SCORE.INTER.VDW>
-23.0454

>  <SCORE.INTER.norm>
-1.25288

>  <SCORE.INTRA>
0.476228

>  <SCORE.INTRA.DIHEDRAL>
-0.00396001

>  <SCORE.INTRA.DIHEDRAL.0>
1.65305

>  <SCORE.INTRA.POLAR>
0

>  <SCORE.INTRA.POLAR.0>
0

>  <SCORE.INTRA.REPUL>
0

>  <SCORE.INTRA.REPUL.0>
0

>  <SCORE.INTRA.SOLV>
1.46575

>  <SCORE.INTRA.SOLV.lig_0>
-46.9527

>  <SCORE.INTRA.VDW>
-0.254667

>  <SCORE.INTRA.VDW.0>
-0.177978

>  <SCORE.INTRA.norm>
0.0366329

>  <SCORE.RESTR>
0

>  <SCORE.RESTR.CAVITY>
0

>  <SCORE.RESTR.norm>
0

>  <SCORE.SYSTEM>
0

>  <SCORE.SYSTEM.CONST>
0

>  <SCORE.SYSTEM.DIHEDRAL>
0

>  <SCORE.SYSTEM.SOLV>
0

>  <SCORE.SYSTEM.norm>
0

>  <SCORE.heavy>
13

>  <SCORE.norm>
-1.21625

>  <RMSD>
2.730

$$$$
ligand
 OpenBabel02271912143D
libRbt.so/2013.1/901 2013/11/27
 13 14  0  0  0  0  0  0  0  0999 V2000
   33.1998   32.0687   24.3566 N   0  0  0  0  0  0  0  0  0  0  0  0
   33.0573   32.6344   23.0764 C   0  0  0  0  0  0  0  0  0  0  0  0
   32.0122   32.1544   22.2983 N   0  0  0  0  0  0  0  0  0  0  0  0
   33.8661   33.5764   22.5339 N   0  0  0  0  0  0  0  0  0  0  0  0
   34.8884   33.9494   23.4013 C   0  0  0  0  0  0  0  0  0  0  0  0
   35.0984   33.4544   24.6942 C   0  0  0  0  0  0  0  0  0  0  0  0
   34.2519   32.4750   25.2339 C   0  0  0  0  0  0  0  0  0  0  0  0
   34.3387   31.9537   26.3360 O   0  0  0  0  0  0  0  0  0  0  0  0
   36.2373   34.0837   25.2471 C   0  0  0  0  0  0  0  0  0  0  0  0
   36.7048   34.9635   24.2832 C   0  0  0  0  0  0  0  0  0  0  0  0
   35.8703   34.8873   23.1396 N   0  0  0  0  0  0  0  0  0  0  0  0
   36.7737   33.7782   26.6012 C   0  0  0  0  0  0  0  0  0  0  0  0
   37.4320   32.4627   26.6203 N   0  0  0  0  0  0  0  0  0  0  0  0
  1  2  1  0  0  0  0
  1  7  1  0  0  0  0
  2  3  1  0  0  0  0
  2  4  2  0  0  0  0
  4  5  1  0  0  0  0
  5  6  2  0  0  0  0
  5 11  1  0  0  0  0
  6  7  1  0  0  0  0
  6  9  1  0  0  0  0
  7  8  2  0  0  0  0
  9 10  2  0  0  0  0
  9 12  1  0  0  0  0
 10 11  1  0  0  0  0
 12 13  1  0  0  0  0
M  END
>  <CHROM.1>
72.76218349,34.88653014,33.22677296,24.47864357,2.71983972,-0.57466043,-0.97119906

>  <Name>
ligand

>  <RI>
0

>  <Rbt.Current_Directory>
/home/itssahil/PROJECTS/Mol_Feturizer/Test_systems_manuscript/rnas/3q50

>  <Rbt.Executable>
rbdock ($Id: //depot/dev/client3/rdock/2013.1/src/exe/rbdock.cxx#4 $)

>  <Rbt.Library>
libRbt.so (2013.1, Build901 2013/11/27)

>  <Rbt.Parameter_File>
/export/apps/rDock/src/rDock_2013.1_src/data/scripts/dock_solv.prm

>  <Rbt.Receptor>
prm/blind_docking_100.prm

>  <SCORE>
-15.7796

>  <SCORE.INTER>
-16.2194

>  <SCORE.INTER.CONST>
1

>  <SCORE.INTER.POLAR>
0

>  <SCORE.INTER.ROT>
1

>  <SCORE.INTER.SOLV>
23.7878

>  <SCORE.INTER.VDW>
-23.0088

>  <SCORE.INTER.norm>
-1.24764

>  <SCORE.INTRA>
0.439831

>  <SCORE.INTRA.DIHEDRAL>
-0.00960298

>  <SCORE.INTRA.DIHEDRAL.0>
1.65305

>  <SCORE.INTRA.POLAR>
0

>  <SCORE.INTRA.POLAR.0>
0

>  <SCORE.INTRA.REPUL>
0

>  <SCORE.INTRA.REPUL.0>
0

>  <SCORE.INTRA.SOLV>
1.39407

>  <SCORE.INTRA.SOLV.lig_0>
-46.9527

>  <SCORE.INTRA.VDW>
-0.252404

>  <SCORE.INTRA.VDW.0>
-0.177978

>  <SCORE.INTRA.norm>
0.0338332

>  <SCORE.RESTR>
0

>  <SCORE.RESTR.CAVITY>
0

>  <SCORE.RESTR.norm>
0

>  <SCORE.SYSTEM>
0

>  <SCORE.SYSTEM.CONST>
0

>  <SCORE.SYSTEM.DIHEDRAL>
0

>  <SCORE.SYSTEM.SOLV>
0

>  <SCORE.SYSTEM.norm>
0

>  <SCORE.heavy>
13

>  <SCORE.norm>
-1.21381

>  <RMSD>
2.734

$$$$
ligand
 OpenBabel02271912143D
libRbt.so/2013.1/901 2013/11/27
 13 14  0  0  0  0  0  0  0  0999 V2000
   33.1973   32.0877   24.3711 N   0  0  0  0  0  0  0  0  0  0  0  0
   33.0501   32.6517   23.0907 C   0  0  0  0  0  0  0  0  0  0  0  0
   31.9994   32.1739   22.3188 N   0  0  0  0  0  0  0  0  0  0  0  0
   33.8590   33.5903   22.5425 N   0  0  0  0  0  0  0  0  0  0  0  0
   34.8869   33.9613   23.4041 C   0  0  0  0  0  0  0  0  0  0  0  0
   35.1020   33.4679   24.6967 C   0  0  0  0  0  0  0  0  0  0  0  0
   34.2552   32.4921   25.2423 C   0  0  0  0  0  0  0  0  0  0  0  0
   34.3460   31.9723   26.3448 O   0  0  0  0  0  0  0  0  0  0  0  0
   36.2458   34.0944   25.2427 C   0  0  0  0  0  0  0  0  0  0  0  0
   36.7111   34.9711   24.2750 C   0  0  0  0  0  0  0  0  0  0  0  0
   35.8705   34.8957   23.1359 N   0  0  0  0  0  0  0  0  0  0  0  0
   36.7881   33.7894   26.5946 C   0  0  0  0  0  0  0  0  0  0  0  0
   37.2606   32.3981   26.6687 N   0  0  0  0  0  0  0  0  0  0  0  0
  1  2  1  0  0  0  0
  1  7  1  0  0  0  0
  2  3  1  0  0  0  0
  2  4  2  0  0  0  0
  4  5  1  0  0  0  0
  5  6  2  0  0  0  0
  5 11  1  0  0  0  0
  6  7  1  0  0  0  0
  6  9  1  0  0  0  0
  7  8  2  0  0  0  0
  9 10  2  0  0  0  0
  9 12  1  0  0  0  0
 10 11  1  0  0  0  0
 12 13  1  0  0  0  0
M  END
>  <CHROM.1>
64.25185760,34.87351841,33.23454798,24.48721236,2.70942664,-0.57664723,-0.97195776

>  <Name>
ligand

>  <RI>
0

>  <Rbt.Current_Directory>
/home/itssahil/PROJECTS/Mol_Feturizer/Test_systems_manuscript/rnas/3q50

>  <Rbt.Executable>
rbdock ($Id: //depot/dev/client3/rdock/2013.1/src/exe/rbdock.cxx#4 $)

>  <Rbt.Library>
libRbt.so (2013.1, Build901 2013/11/27)

>  <Rbt.Parameter_File>
/export/apps/rDock/src/rDock_2013.1_src/data/scripts/dock_solv.prm

>  <Rbt.Receptor>
prm/blind_docking_60.prm

>  <SCORE>
-15.7664

>  <SCORE.INTER>
-16.351

>  <SCORE.INTER.CONST>
1

>  <SCORE.INTER.POLAR>
0

>  <SCORE.INTER.ROT>
1

>  <SCORE.INTER.SOLV>
23.8365

>  <SCORE.INTER.VDW>
-23.1128

>  <SCORE.INTER.norm>
-1.25777

>  <SCORE.INTRA>
0.584633

>  <SCORE.INTRA.DIHEDRAL>
0.0125987

>  <SCORE.INTRA.DIHEDRAL.0>
1.65305

>  <SCORE.INTRA.POLAR>
0

>  <SCORE.INTRA.POLAR.0>
0

>  <SCORE.INTRA.REPUL>
0

>  <SCORE.INTRA.REPUL.0>
0

>  <SCORE.INTRA.SOLV>
1.64976

>  <SCORE.INTRA.SOLV.lig_0>
-46.9527

>  <SCORE.INTRA.VDW>
-0.246547

>  <SCORE.INTRA.VDW.0>
-0.177978

>  <SCORE.INTRA.norm>
0.0449718

>  <SCORE.RESTR>
0

>  <SCORE.RESTR.CAVITY>
0

>  <SCORE.RESTR.norm>
0

>  <SCORE.SYSTEM>
0

>  <SCORE.SYSTEM.CONST>
0

>  <SCORE.SYSTEM.DIHEDRAL>
0

>  <SCORE.SYSTEM.SOLV>
0

>  <SCORE.SYSTEM.norm>
0

>  <SCORE.heavy>
13

>  <SCORE.norm>
-1.2128

>  <RMSD>
2.744

$$$$
ligand
 OpenBabel02271912143D
libRbt.so/2013.1/901 2013/11/27
 13 14  0  0  0  0  0  0  0  0999 V2000
   33.4300   31.8420   24.2655 N   0  0  0  0  0  0  0  0  0  0  0  0
   33.0351   32.7236   23.2427 C   0  0  0  0  0  0  0  0  0  0  0  0
   31.9247   32.3515   22.4966 N   0  0  0  0  0  0  0  0  0  0  0  0
   33.6608   33.8780   22.9087 N   0  0  0  0  0  0  0  0  0  0  0  0
   34.7725   34.1201   23.7101 C   0  0  0  0  0  0  0  0  0  0  0  0
   35.2297   33.3110   24.7574 C   0  0  0  0  0  0  0  0  0  0  0  0
   34.5696   32.1169   25.0824 C   0  0  0  0  0  0  0  0  0  0  0  0
   34.8774   31.3207   25.9571 O   0  0  0  0  0  0  0  0  0  0  0  0
   36.3831   33.9010   25.3233 C   0  0  0  0  0  0  0  0  0  0  0  0
   36.6112   35.0711   24.6159 C   0  0  0  0  0  0  0  0  0  0  0  0
   35.6139   35.2137   23.6184 N   0  0  0  0  0  0  0  0  0  0  0  0
   37.1545   33.2972   26.4437 C   0  0  0  0  0  0  0  0  0  0  0  0
   36.2744   32.9942   27.5831 N   0  0  0  0  0  0  0  0  0  0  0  0
  1  2  1  0  0  0  0
  1  7  1  0  0  0  0
  2  3  1  0  0  0  0
  2  4  2  0  0  0  0
  4  5  1  0  0  0  0
  5  6  2  0  0  0  0
  5 11  1  0  0  0  0
  6  7  1  0  0  0  0
  6  9  1  0  0  0  0
  7  8  2  0  0  0  0
  9 10  2  0  0  0  0
  9 12  1  0  0  0  0
 10 11  1  0  0  0  0
 12 13  1  0  0  0  0
M  END
>  <CHROM.1>
-53.54389907,34.87281106,33.19856999,24.64267071,2.79165138,-0.66171771,-0.75266827

>  <Name>
ligand

>  <RI>
0

>  <Rbt.Current_Directory>
/home/itssahil/PROJECTS/Mol_Feturizer/Test_systems_manuscript/rnas/3q50

>  <Rbt.Executable>
rbdock ($Id: //depot/dev/client3/rdock/2013.1/src/exe/rbdock.cxx#4 $)

>  <Rbt.Library>
libRbt.so (2013.1, Build901 2013/11/27)

>  <Rbt.Parameter_File>
/export/apps/rDock/src/rDock_2013.1_src/data/scripts/dock_solv.prm

>  <Rbt.Receptor>
prm/blind_docking_80.prm

>  <SCORE>
-14.83

>  <SCORE.INTER>
-15.6941

>  <SCORE.INTER.CONST>
1

>  <SCORE.INTER.POLAR>
0

>  <SCORE.INTER.ROT>
1

>  <SCORE.INTER.SOLV>
25.6398

>  <SCORE.INTER.VDW>
-23.276

>  <SCORE.INTER.norm>
-1.20724

>  <SCORE.INTRA>
0.864042

>  <SCORE.INTRA.DIHEDRAL>
0.00638768

>  <SCORE.INTRA.DIHEDRAL.0>
1.65305

>  <SCORE.INTRA.POLAR>
0

>  <SCORE.INTRA.POLAR.0>
0

>  <SCORE.INTRA.REPUL>
0

>  <SCORE.INTRA.REPUL.0>
0

>  <SCORE.INTRA.SOLV>
1.96751

>  <SCORE.INTRA.SOLV.lig_0>
-46.9527

>  <SCORE.INTRA.VDW>
-0.122909

>  <SCORE.INTRA.VDW.0>
-0.177978

>  <SCORE.INTRA.norm>
0.0664648

>  <SCORE.RESTR>
0

>  <SCORE.RESTR.CAVITY>
0

>  <SCORE.RESTR.norm>
0

>  <SCORE.SYSTEM>
0

>  <SCORE.SYSTEM.CONST>
0

>  <SCORE.SYSTEM.DIHEDRAL>
0

>  <SCORE.SYSTEM.SOLV>
0

>  <SCORE.SYSTEM.norm>
0

>  <SCORE.heavy>
13

>  <SCORE.norm>
-1.14077

>  <RMSD>
2.754

$$$$
ligand
 OpenBabel02271912143D
libRbt.so/2013.1/901 2013/11/27
 13 14  0  0  0  0  0  0  0  0999 V2000
   33.3926   31.8312   24.2765 N   0  0  0  0  0  0  0  0  0  0  0  0
   32.9936   32.7186   23.2603 C   0  0  0  0  0  0  0  0  0  0  0  0
   31.8792   32.3515   22.5178 N   0  0  0  0  0  0  0  0  0  0  0  0
   33.6189   33.8741   22.9294 N   0  0  0  0  0  0  0  0  0  0  0  0
   34.7347   34.1109   23.7265 C   0  0  0  0  0  0  0  0  0  0  0  0
   35.1962   33.2958   24.7673 C   0  0  0  0  0  0  0  0  0  0  0  0
   34.5365   32.1007   25.0892 C   0  0  0  0  0  0  0  0  0  0  0  0
   34.8478   31.2996   25.9582 O   0  0  0  0  0  0  0  0  0  0  0  0
   36.3531   33.8817   25.3306 C   0  0  0  0  0  0  0  0  0  0  0  0
   36.5788   35.0553   24.6282 C   0  0  0  0  0  0  0  0  0  0  0  0
   35.5768   35.2041   23.6364 N   0  0  0  0  0  0  0  0  0  0  0  0
   37.1293   33.2712   26.4439 C   0  0  0  0  0  0  0  0  0  0  0  0
   36.2515   32.9467   27.5792 N   0  0  0  0  0  0  0  0  0  0  0  0
  1  2  1  0  0  0  0
  1  7  1  0  0  0  0
  2  3  1  0  0  0  0
  2  4  2  0  0  0  0
  4  5  1  0  0  0  0
  5  6  2  0  0  0  0
  5 11  1  0  0  0  0
  6  7  1  0  0  0  0
  6  9  1  0  0  0  0
  7  8  2  0  0  0  0
  9 10  2  0  0  0  0
  9 12  1  0  0  0  0
 10 11  1  0  0  0  0
 12 13  1  0  0  0  0
M  END
>  <CHROM.1>
-52.79544120,34.83842629,33.18301153,24.65314543,2.79449038,-0.65671997,-0.74471696

>  <Name>
ligand

>  <RI>
0

>  <Rbt.Current_Directory>
/home/itssahil/PROJECTS/Mol_Feturizer/Test_systems_manuscript/rnas/3q50

>  <Rbt.Executable>
rbdock ($Id: //depot/dev/client3/rdock/2013.1/src/exe/rbdock.cxx#4 $)

>  <Rbt.Library>
libRbt.so (2013.1, Build901 2013/11/27)

>  <Rbt.Parameter_File>
/export/apps/rDock/src/rDock_2013.1_src/data/scripts/dock_solv.prm

>  <Rbt.Receptor>
prm/blind_docking_60.prm

>  <SCORE>
-14.8473

>  <SCORE.INTER>
-15.7407

>  <SCORE.INTER.CONST>
1

>  <SCORE.INTER.POLAR>
0

>  <SCORE.INTER.ROT>
1

>  <SCORE.INTER.SOLV>
25.6482

>  <SCORE.INTER.VDW>
-23.3099

>  <SCORE.INTER.norm>
-1.21082

>  <SCORE.INTRA>
0.893414

>  <SCORE.INTRA.DIHEDRAL>
0.00433689

>  <SCORE.INTRA.DIHEDRAL.0>
1.65305

>  <SCORE.INTRA.POLAR>
0

>  <SCORE.INTRA.POLAR.0>
0

>  <SCORE.INTRA.REPUL>
0

>  <SCORE.INTRA.REPUL.0>
0

>  <SCORE.INTRA.SOLV>
1.98851

>  <SCORE.INTRA.SOLV.lig_0>
-46.9527

>  <SCORE.INTRA.VDW>
-0.103012

>  <SCORE.INTRA.VDW.0>
-0.177978

>  <SCORE.INTRA.norm>
0.0687242

>  <SCORE.RESTR>
0

>  <SCORE.RESTR.CAVITY>
0

>  <SCORE.RESTR.norm>
0

>  <SCORE.SYSTEM>
0

>  <SCORE.SYSTEM.CONST>
0

>  <SCORE.SYSTEM.DIHEDRAL>
0

>  <SCORE.SYSTEM.SOLV>
0

>  <SCORE.SYSTEM.norm>
0

>  <SCORE.heavy>
13

>  <SCORE.norm>
-1.1421

>  <RMSD>
2.764

$$$$
ligand
 OpenBabel02271912143D
libRbt.so/2013.1/901 2013/11/27
 13 14  0  0  0  0  0  0  0  0999 V2000
   35.8641   35.4908   23.3732 N   0  0  0  0  0  0  0  0  0  0  0  0
   36.8181   36.3071   24.0080 C   0  0  0  0  0  0  0  0  0  0  0  0
   37.1809   37.4706   23.3427 N   0  0  0  0  0  0  0  0  0  0  0  0
   37.4287   36.0388   25.1873 N   0  0  0  0  0  0  0  0  0  0  0  0
   37.0005   34.8332   25.7348 C   0  0  0  0  0  0  0  0  0  0  0  0
   36.0478   33.9667   25.1849 C   0  0  0  0  0  0  0  0  0  0  0  0
   35.4322   34.2616   23.9597 C   0  0  0  0  0  0  0  0  0  0  0  0
   34.6036   33.5831   23.3706 O   0  0  0  0  0  0  0  0  0  0  0  0
   35.8911   32.8535   26.0422 C   0  0  0  0  0  0  0  0  0  0  0  0
   36.7480   33.0597   27.1121 C   0  0  0  0  0  0  0  0  0  0  0  0
   37.4344   34.2866   26.9286 N   0  0  0  0  0  0  0  0  0  0  0  0
   34.9776   31.7137   25.7569 C   0  0  0  0  0  0  0  0  0  0  0  0
   33.5989   32.1849   25.5527 N   0  0  0  0  0  0  0  0  0  0  0  0
  1  2  1  0  0  0  0
  1  7  1  0  0  0  0
  2  3  1  0  0  0  0
  2  4  2  0  0  0  0
  4  5  1  0  0  0  0
  5  6  2  0  0  0  0
  5 11  1  0  0  0  0
  6  7  1  0  0  0  0
  6  9  1  0  0  0  0
  7  8  2  0  0  0  0
  9 10  2  0  0  0  0
  9 12  1  0  0  0  0
 10 11  1  0  0  0  0
 12 13  1  0  0  0  0
M  END
>  <CHROM.1>
-56.39114060,36.04471853,34.30963953,25.00260322,0.99987144,-0.72908355,-0.82189059

>  <Name>
ligand

>  <RI>
0

>  <Rbt.Current_Directory>
/home/itssahil/PROJECTS/Mol_Feturizer/Test_systems_manuscript/rnas/3q50

>  <Rbt.Executable>
rbdock ($Id: //depot/dev/client3/rdock/2013.1/src/exe/rbdock.cxx#4 $)

>  <Rbt.Library>
libRbt.so (2013.1, Build901 2013/11/27)

>  <Rbt.Parameter_File>
/export/apps/rDock/src/rDock_2013.1_src/data/scripts/dock_solv.prm

>  <Rbt.Receptor>
prm/blind_docking_80.prm

>  <SCORE>
-12.5882

>  <SCORE.INTER>
-13.3561

>  <SCORE.INTER.CONST>
1

>  <SCORE.INTER.POLAR>
0

>  <SCORE.INTER.ROT>
1

>  <SCORE.INTER.SOLV>
17.6177

>  <SCORE.INTER.VDW>
-19.0433

>  <SCORE.INTER.norm>
-1.02739

>  <SCORE.INTRA>
0.767919

>  <SCORE.INTRA.DIHEDRAL>
0.0144503

>  <SCORE.INTRA.DIHEDRAL.0>
1.65305

>  <SCORE.INTRA.POLAR>
0

>  <SCORE.INTRA.POLAR.0>
0

>  <SCORE.INTRA.REPUL>
0

>  <SCORE.INTRA.REPUL.0>
0

>  <SCORE.INTRA.SOLV>
1.88655

>  <SCORE.INTRA.SOLV.lig_0>
-46.9527

>  <SCORE.INTRA.VDW>
-0.18258

>  <SCORE.INTRA.VDW.0>
-0.177978

>  <SCORE.INTRA.norm>
0.0590707

>  <SCORE.RESTR>
0

>  <SCORE.RESTR.CAVITY>
0

>  <SCORE.RESTR.norm>
0

>  <SCORE.SYSTEM>
0

>  <SCORE.SYSTEM.CONST>
0

>  <SCORE.SYSTEM.DIHEDRAL>
0

>  <SCORE.SYSTEM.SOLV>
0

>  <SCORE.SYSTEM.norm>
0

>  <SCORE.heavy>
13

>  <SCORE.norm>
-0.968322

>  <RMSD>
3.790

$$$$
ligand
 OpenBabel02271912143D
libRbt.so/2013.1/901 2013/11/27
 13 14  0  0  0  0  0  0  0  0999 V2000
   37.3288   35.8176   25.0017 N   0  0  0  0  0  0  0  0  0  0  0  0
   36.4443   36.2924   24.0160 C   0  0  0  0  0  0  0  0  0  0  0  0
   36.7059   37.5562   23.5038 N   0  0  0  0  0  0  0  0  0  0  0  0
   35.3520   35.6383   23.5526 N   0  0  0  0  0  0  0  0  0  0  0  0
   35.1856   34.4002   24.1658 C   0  0  0  0  0  0  0  0  0  0  0  0
   36.0205   33.8407   25.1408 C   0  0  0  0  0  0  0  0  0  0  0  0
   37.1432   34.5381   25.6101 C   0  0  0  0  0  0  0  0  0  0  0  0
   37.9350   34.1681   26.4645 O   0  0  0  0  0  0  0  0  0  0  0  0
   35.5125   32.5734   25.5077 C   0  0  0  0  0  0  0  0  0  0  0  0
   34.3738   32.3720   24.7432 C   0  0  0  0  0  0  0  0  0  0  0  0
   34.1693   33.4987   23.9074 N   0  0  0  0  0  0  0  0  0  0  0  0
   36.1326   31.7037   26.5440 C   0  0  0  0  0  0  0  0  0  0  0  0
   36.2343   32.4110   27.8301 N   0  0  0  0  0  0  0  0  0  0  0  0
  1  2  1  0  0  0  0
  1  7  1  0  0  0  0
  2  3  1  0  0  0  0
  2  4  2  0  0  0  0
  4  5  1  0  0  0  0
  5  6  2  0  0  0  0
  5 11  1  0  0  0  0
  6  7  1  0  0  0  0
  6  9  1  0  0  0  0
  7  8  2  0  0  0  0
  9 10  2  0  0  0  0
  9 12  1  0  0  0  0
 10 11  1  0  0  0  0
 12 13  1  0  0  0  0
M  END
>  <CHROM.1>
56.69649618,36.08150106,34.23018401,25.10698343,-1.44006397,0.64890314,2.50482024

>  <Name>
ligand

>  <RI>
0

>  <Rbt.Current_Directory>
/home/itssahil/PROJECTS/Mol_Feturizer/Test_systems_manuscript/rnas/3q50

>  <Rbt.Executable>
rbdock ($Id: //depot/dev/client3/rdock/2013.1/src/exe/rbdock.cxx#4 $)

>  <Rbt.Library>
libRbt.so (2013.1, Build901 2013/11/27)

>  <Rbt.Parameter_File>
/export/apps/rDock/src/rDock_2013.1_src/data/scripts/dock_solv.prm

>  <Rbt.Receptor>
prm/blind_docking_60.prm

>  <SCORE>
-14.8844

>  <SCORE.INTER>
-15.638

>  <SCORE.INTER.CONST>
1

>  <SCORE.INTER.POLAR>
0

>  <SCORE.INTER.ROT>
1

>  <SCORE.INTER.SOLV>
15.7218

>  <SCORE.INTER.VDW>
-19.9326

>  <SCORE.INTER.norm>
-1.20293

>  <SCORE.INTRA>
0.753607

>  <SCORE.INTRA.DIHEDRAL>
0.0348112

>  <SCORE.INTRA.DIHEDRAL.0>
1.65305

>  <SCORE.INTRA.POLAR>
0

>  <SCORE.INTRA.POLAR.0>
0

>  <SCORE.INTRA.REPUL>
0

>  <SCORE.INTRA.REPUL.0>
0

>  <SCORE.INTRA.SOLV>
1.87112

>  <SCORE.INTRA.SOLV.lig_0>
-46.9527

>  <SCORE.INTRA.VDW>
-0.199358

>  <SCORE.INTRA.VDW.0>
-0.177978

>  <SCORE.INTRA.norm>
0.0579698

>  <SCORE.RESTR>
0

>  <SCORE.RESTR.CAVITY>
0

>  <SCORE.RESTR.norm>
0

>  <SCORE.SYSTEM>
0

>  <SCORE.SYSTEM.CONST>
0

>  <SCORE.SYSTEM.DIHEDRAL>
0

>  <SCORE.SYSTEM.SOLV>
0

>  <SCORE.SYSTEM.norm>
0

>  <SCORE.heavy>
13

>  <SCORE.norm>
-1.14496

>  <RMSD>
3.791

$$$$
ligand
 OpenBabel02271912143D
libRbt.so/2013.1/901 2013/11/27
 13 14  0  0  0  0  0  0  0  0999 V2000
   37.3308   35.8341   25.1195 N   0  0  0  0  0  0  0  0  0  0  0  0
   36.4357   36.3125   24.1453 C   0  0  0  0  0  0  0  0  0  0  0  0
   36.6900   37.5795   23.6373 N   0  0  0  0  0  0  0  0  0  0  0  0
   35.3399   35.6588   23.6895 N   0  0  0  0  0  0  0  0  0  0  0  0
   35.1819   34.4172   24.2977 C   0  0  0  0  0  0  0  0  0  0  0  0
   36.0275   33.8541   25.2613 C   0  0  0  0  0  0  0  0  0  0  0  0
   37.1536   34.5511   25.7230 C   0  0  0  0  0  0  0  0  0  0  0  0
   37.9546   34.1780   26.5675 O   0  0  0  0  0  0  0  0  0  0  0  0
   35.5254   32.5840   25.6266 C   0  0  0  0  0  0  0  0  0  0  0  0
   34.3795   32.3846   24.8725 C   0  0  0  0  0  0  0  0  0  0  0  0
   34.1646   33.5153   24.0447 N   0  0  0  0  0  0  0  0  0  0  0  0
   36.1573   31.7100   26.6520 C   0  0  0  0  0  0  0  0  0  0  0  0
   36.3124   32.4258   27.9279 N   0  0  0  0  0  0  0  0  0  0  0  0
  1  2  1  0  0  0  0
  1  7  1  0  0  0  0
  2  3  1  0  0  0  0
  2  4  2  0  0  0  0
  4  5  1  0  0  0  0
  5  6  2  0  0  0  0
  5 11  1  0  0  0  0
  6  7  1  0  0  0  0
  6  9  1  0  0  0  0
  7  8  2  0  0  0  0
  9 10  2  0  0  0  0
  9 12  1  0  0  0  0
 10 11  1  0  0  0  0
 12 13  1  0  0  0  0
M  END
>  <CHROM.1>
54.77519507,36.09083667,34.24512913,25.22790153,-1.45326395,0.64173140,2.51827110

>  <Name>
ligand

>  <RI>
0

>  <Rbt.Current_Directory>
/home/itssahil/PROJECTS/Mol_Feturizer/Test_systems_manuscript/rnas/3q50

>  <Rbt.Executable>
rbdock ($Id: //depot/dev/client3/rdock/2013.1/src/exe/rbdock.cxx#4 $)

>  <Rbt.Library>
libRbt.so (2013.1, Build901 2013/11/27)

>  <Rbt.Parameter_File>
/export/apps/rDock/src/rDock_2013.1_src/data/scripts/dock_solv.prm

>  <Rbt.Receptor>
prm/blind_docking_60.prm

>  <SCORE>
-14.8017

>  <SCORE.INTER>
-15.6185

>  <SCORE.INTER.CONST>
1

>  <SCORE.INTER.POLAR>
0

>  <SCORE.INTER.ROT>
1

>  <SCORE.INTER.SOLV>
15.5441

>  <SCORE.INTER.VDW>
-19.8603

>  <SCORE.INTER.norm>
-1.20142

>  <SCORE.INTRA>
0.816779

>  <SCORE.INTRA.DIHEDRAL>
0.0404021

>  <SCORE.INTRA.DIHEDRAL.0>
1.65305

>  <SCORE.INTRA.POLAR>
0

>  <SCORE.INTRA.POLAR.0>
0

>  <SCORE.INTRA.REPUL>
0

>  <SCORE.INTRA.REPUL.0>
0

>  <SCORE.INTRA.SOLV>
1.92598

>  <SCORE.INTRA.SOLV.lig_0>
-46.9527

>  <SCORE.INTRA.VDW>
-0.166412

>  <SCORE.INTRA.VDW.0>
-0.177978

>  <SCORE.INTRA.norm>
0.0628292

>  <SCORE.RESTR>
0

>  <SCORE.RESTR.CAVITY>
0

>  <SCORE.RESTR.norm>
0

>  <SCORE.SYSTEM>
0

>  <SCORE.SYSTEM.CONST>
0

>  <SCORE.SYSTEM.DIHEDRAL>
0

>  <SCORE.SYSTEM.SOLV>
0

>  <SCORE.SYSTEM.norm>
0

>  <SCORE.heavy>
13

>  <SCORE.norm>
-1.13859

>  <RMSD>
3.792

$$$$
ligand
 OpenBabel02271912143D
libRbt.so/2013.1/901 2013/11/27
 13 14  0  0  0  0  0  0  0  0999 V2000
   37.3337   35.7878   25.0178 N   0  0  0  0  0  0  0  0  0  0  0  0
   36.4641   36.2899   24.0323 C   0  0  0  0  0  0  0  0  0  0  0  0
   36.7554   37.5520   23.5320 N   0  0  0  0  0  0  0  0  0  0  0  0
   35.3600   35.6635   23.5588 N   0  0  0  0  0  0  0  0  0  0  0  0
   35.1640   34.4243   24.1609 C   0  0  0  0  0  0  0  0  0  0  0  0
   35.9822   33.8387   25.1346 C   0  0  0  0  0  0  0  0  0  0  0  0
   37.1177   34.5077   25.6146 C   0  0  0  0  0  0  0  0  0  0  0  0
   37.8974   34.1134   26.4693 O   0  0  0  0  0  0  0  0  0  0  0  0
   35.4452   32.5797   25.4888 C   0  0  0  0  0  0  0  0  0  0  0  0
   34.3058   32.4095   24.7177 C   0  0  0  0  0  0  0  0  0  0  0  0
   34.1295   33.5473   23.8905 N   0  0  0  0  0  0  0  0  0  0  0  0
   36.0416   31.6882   26.5204 C   0  0  0  0  0  0  0  0  0  0  0  0
   36.1887   32.3945   27.8025 N   0  0  0  0  0  0  0  0  0  0  0  0
  1  2  1  0  0  0  0
  1  7  1  0  0  0  0
  2  3  1  0  0  0  0
  2  4  2  0  0  0  0
  4  5  1  0  0  0  0
  5  6  2  0  0  0  0
  5 11  1  0  0  0  0
  6  7  1  0  0  0  0
  6  9  1  0  0  0  0
  7  8  2  0  0  0  0
  9 10  2  0  0  0  0
  9 12  1  0  0  0  0
 10 11  1  0  0  0  0
 12 13  1  0  0  0  0
M  END
>  <CHROM.1>
55.06406358,36.05469703,34.22802776,25.10357588,-1.41840978,0.63940392,2.50036674

>  <Name>
ligand

>  <RI>
0

>  <Rbt.Current_Directory>
/home/itssahil/PROJECTS/Mol_Feturizer/Test_systems_manuscript/rnas/3q50

>  <Rbt.Executable>
rbdock ($Id: //depot/dev/client3/rdock/2013.1/src/exe/rbdock.cxx#4 $)

>  <Rbt.Library>
libRbt.so (2013.1, Build901 2013/11/27)

>  <Rbt.Parameter_File>
/export/apps/rDock/src/rDock_2013.1_src/data/scripts/dock_solv.prm

>  <Rbt.Receptor>
prm/blind_docking_100.prm

>  <SCORE>
-14.8549

>  <SCORE.INTER>
-15.6616

>  <SCORE.INTER.CONST>
1

>  <SCORE.INTER.POLAR>
0

>  <SCORE.INTER.ROT>
1

>  <SCORE.INTER.SOLV>
15.7145

>  <SCORE.INTER.VDW>
-19.9459

>  <SCORE.INTER.norm>
-1.20474

>  <SCORE.INTRA>
0.806706

>  <SCORE.INTRA.DIHEDRAL>
0.0395688

>  <SCORE.INTRA.DIHEDRAL.0>
1.65305

>  <SCORE.INTRA.POLAR>
0

>  <SCORE.INTRA.POLAR.0>
0

>  <SCORE.INTRA.REPUL>
0

>  <SCORE.INTRA.REPUL.0>
0

>  <SCORE.INTRA.SOLV>
1.91778

>  <SCORE.INTRA.SOLV.lig_0>
-46.9527

>  <SCORE.INTRA.VDW>
-0.171967

>  <SCORE.INTRA.VDW.0>
-0.177978

>  <SCORE.INTRA.norm>
0.0620543

>  <SCORE.RESTR>
0

>  <SCORE.RESTR.CAVITY>
0

>  <SCORE.RESTR.norm>
0

>  <SCORE.SYSTEM>
0

>  <SCORE.SYSTEM.CONST>
0

>  <SCORE.SYSTEM.DIHEDRAL>
0

>  <SCORE.SYSTEM.SOLV>
0

>  <SCORE.SYSTEM.norm>
0

>  <SCORE.heavy>
13

>  <SCORE.norm>
-1.14269

>  <RMSD>
3.813

$$$$
ligand
 OpenBabel02271912143D
libRbt.so/2013.1/901 2013/11/27
 13 14  0  0  0  0  0  0  0  0999 V2000
   37.3649   35.8199   24.9844 N   0  0  0  0  0  0  0  0  0  0  0  0
   36.4770   36.3254   24.0172 C   0  0  0  0  0  0  0  0  0  0  0  0
   36.7599   37.5884   23.5144 N   0  0  0  0  0  0  0  0  0  0  0  0
   35.3632   35.7014   23.5636 N   0  0  0  0  0  0  0  0  0  0  0  0
   35.1775   34.4609   24.1663 C   0  0  0  0  0  0  0  0  0  0  0  0
   36.0138   33.8720   25.1226 C   0  0  0  0  0  0  0  0  0  0  0  0
   37.1591   34.5385   25.5822 C   0  0  0  0  0  0  0  0  0  0  0  0
   37.9548   34.1413   26.4206 O   0  0  0  0  0  0  0  0  0  0  0  0
   35.4823   32.6127   25.4839 C   0  0  0  0  0  0  0  0  0  0  0  0
   34.3280   32.4456   24.7347 C   0  0  0  0  0  0  0  0  0  0  0  0
   34.1370   33.5857   23.9138 N   0  0  0  0  0  0  0  0  0  0  0  0
   36.0976   31.7180   26.5016 C   0  0  0  0  0  0  0  0  0  0  0  0
   36.2217   32.4042   27.7970 N   0  0  0  0  0  0  0  0  0  0  0  0
  1  2  1  0  0  0  0
  1  7  1  0  0  0  0
  2  3  1  0  0  0  0
  2  4  2  0  0  0  0
  4  5  1  0  0  0  0
  5  6  2  0  0  0  0
  5 11  1  0  0  0  0
  6  7  1  0  0  0  0
  6  9  1  0  0  0  0
  7  8  2  0  0  0  0
  9 10  2  0  0  0  0
  9 12  1  0  0  0  0
 10 11  1  0  0  0  0
 12 13  1  0  0  0  0
M  END
>  <CHROM.1>
57.29077873,36.08212242,34.25995073,25.09227571,-1.42699298,0.62322649,2.50762263

>  <Name>
ligand

>  <RI>
0

>  <Rbt.Current_Directory>
/home/itssahil/PROJECTS/Mol_Feturizer/Test_systems_manuscript/rnas/3q50

>  <Rbt.Executable>
rbdock ($Id: //depot/dev/client3/rdock/2013.1/src/exe/rbdock.cxx#4 $)

>  <Rbt.Library>
libRbt.so (2013.1, Build901 2013/11/27)

>  <Rbt.Parameter_File>
/export/apps/rDock/src/rDock_2013.1_src/data/scripts/dock_solv.prm

>  <Rbt.Receptor>
prm/blind_docking_80.prm

>  <SCORE>
-14.849

>  <SCORE.INTER>
-15.5848

>  <SCORE.INTER.CONST>
1

>  <SCORE.INTER.POLAR>
0

>  <SCORE.INTER.ROT>
1

>  <SCORE.INTER.SOLV>
15.6021

>  <SCORE.INTER.VDW>
-19.8572

>  <SCORE.INTER.norm>
-1.19883

>  <SCORE.INTRA>
0.735752

>  <SCORE.INTRA.DIHEDRAL>
0.0330631

>  <SCORE.INTRA.DIHEDRAL.0>
1.65305

>  <SCORE.INTRA.POLAR>
0

>  <SCORE.INTRA.POLAR.0>
0

>  <SCORE.INTRA.REPUL>
0

>  <SCORE.INTRA.REPUL.0>
0

>  <SCORE.INTRA.SOLV>
1.85401

>  <SCORE.INTRA.SOLV.lig_0>
-46.9527

>  <SCORE.INTRA.VDW>
-0.207786

>  <SCORE.INTRA.VDW.0>
-0.177978

>  <SCORE.INTRA.norm>
0.0565963

>  <SCORE.RESTR>
0

>  <SCORE.RESTR.CAVITY>
0

>  <SCORE.RESTR.norm>
0

>  <SCORE.SYSTEM>
0

>  <SCORE.SYSTEM.CONST>
0

>  <SCORE.SYSTEM.DIHEDRAL>
0

>  <SCORE.SYSTEM.SOLV>
0

>  <SCORE.SYSTEM.norm>
0

>  <SCORE.heavy>
13

>  <SCORE.norm>
-1.14223

>  <RMSD>
3.813

$$$$
ligand
 OpenBabel02271912143D
libRbt.so/2013.1/901 2013/11/27
 13 14  0  0  0  0  0  0  0  0999 V2000
   37.3716   35.8370   25.0623 N   0  0  0  0  0  0  0  0  0  0  0  0
   36.4902   36.3268   24.0812 C   0  0  0  0  0  0  0  0  0  0  0  0
   36.7564   37.5962   23.5854 N   0  0  0  0  0  0  0  0  0  0  0  0
   35.3967   35.6817   23.6078 N   0  0  0  0  0  0  0  0  0  0  0  0
   35.2257   34.4365   24.2051 C   0  0  0  0  0  0  0  0  0  0  0  0
   36.0573   33.8623   25.1743 C   0  0  0  0  0  0  0  0  0  0  0  0
   37.1812   34.5506   25.6543 C   0  0  0  0  0  0  0  0  0  0  0  0
   37.9705   34.1675   26.5053 O   0  0  0  0  0  0  0  0  0  0  0  0
   35.5450   32.5921   25.5245 C   0  0  0  0  0  0  0  0  0  0  0  0
   34.4070   32.4037   24.7556 C   0  0  0  0  0  0  0  0  0  0  0  0
   34.2072   33.5414   23.9337 N   0  0  0  0  0  0  0  0  0  0  0  0
   36.1607   31.7076   26.5508 C   0  0  0  0  0  0  0  0  0  0  0  0
   36.2696   32.4010   27.8438 N   0  0  0  0  0  0  0  0  0  0  0  0
  1  2  1  0  0  0  0
  1  7  1  0  0  0  0
  2  3  1  0  0  0  0
  2  4  2  0  0  0  0
  4  5  1  0  0  0  0
  5  6  2  0  0  0  0
  5 11  1  0  0  0  0
  6  7  1  0  0  0  0
  6  9  1  0  0  0  0
  7  8  2  0  0  0  0
  9 10  2  0  0  0  0
  9 12  1  0  0  0  0
 10 11  1  0  0  0  0
 12 13  1  0  0  0  0
M  END
>  <CHROM.1>
56.36683968,36.12006664,34.25230046,25.14538562,-1.43654681,0.64850614,2.51530851

>  <Name>
ligand

>  <RI>
0

>  <Rbt.Current_Directory>
/home/itssahil/PROJECTS/Mol_Feturizer/Test_systems_manuscript/rnas/3q50

>  <Rbt.Executable>
rbdock ($Id: //depot/dev/client3/rdock/2013.1/src/exe/rbdock.cxx#4 $)

>  <Rbt.Library>
libRbt.so (2013.1, Build901 2013/11/27)

>  <Rbt.Parameter_File>
/export/apps/rDock/src/rDock_2013.1_src/data/scripts/dock_solv.prm

>  <Rbt.Receptor>
prm/blind_docking_100.prm

>  <SCORE>
-14.8053

>  <SCORE.INTER>
-15.5691

>  <SCORE.INTER.CONST>
1

>  <SCORE.INTER.POLAR>
0

>  <SCORE.INTER.ROT>
1

>  <SCORE.INTER.SOLV>
15.4284

>  <SCORE.INTER.VDW>
-19.7889

>  <SCORE.INTER.norm>
-1.19762

>  <SCORE.INTRA>
0.763835

>  <SCORE.INTRA.DIHEDRAL>
0.0357777

>  <SCORE.INTRA.DIHEDRAL.0>
1.65305

>  <SCORE.INTRA.POLAR>
0

>  <SCORE.INTRA.POLAR.0>
0

>  <SCORE.INTRA.REPUL>
0

>  <SCORE.INTRA.REPUL.0>
0

>  <SCORE.INTRA.SOLV>
1.88058

>  <SCORE.INTRA.SOLV.lig_0>
-46.9527

>  <SCORE.INTRA.VDW>
-0.194345

>  <SCORE.INTRA.VDW.0>
-0.177978

>  <SCORE.INTRA.norm>
0.0587565

>  <SCORE.RESTR>
0

>  <SCORE.RESTR.CAVITY>
0

>  <SCORE.RESTR.norm>
0

>  <SCORE.SYSTEM>
0

>  <SCORE.SYSTEM.CONST>
0

>  <SCORE.SYSTEM.DIHEDRAL>
0

>  <SCORE.SYSTEM.SOLV>
0

>  <SCORE.SYSTEM.norm>
0

>  <SCORE.heavy>
13

>  <SCORE.norm>
-1.13887

>  <RMSD>
3.814

$$$$
ligand
 OpenBabel02271912143D
libRbt.so/2013.1/901 2013/11/27
 13 14  0  0  0  0  0  0  0  0999 V2000
   37.6098   34.0107   27.2352 N   0  0  0  0  0  0  0  0  0  0  0  0
   36.8864   32.8177   27.0545 C   0  0  0  0  0  0  0  0  0  0  0  0
   37.0989   31.8148   27.9910 N   0  0  0  0  0  0  0  0  0  0  0  0
   36.0321   32.5577   26.0355 N   0  0  0  0  0  0  0  0  0  0  0  0
   35.9310   33.6288   25.1528 C   0  0  0  0  0  0  0  0  0  0  0  0
   36.5975   34.8555   25.2602 C   0  0  0  0  0  0  0  0  0  0  0  0
   37.4819   35.1011   26.3207 C   0  0  0  0  0  0  0  0  0  0  0  0
   38.1325   36.1172   26.5158 O   0  0  0  0  0  0  0  0  0  0  0  0
   36.2282   35.6756   24.1695 C   0  0  0  0  0  0  0  0  0  0  0  0
   35.3316   34.9384   23.4116 C   0  0  0  0  0  0  0  0  0  0  0  0
   35.1409   33.6715   24.0187 N   0  0  0  0  0  0  0  0  0  0  0  0
   36.7687   37.0439   23.9449 C   0  0  0  0  0  0  0  0  0  0  0  0
   37.4523   37.1310   22.6450 N   0  0  0  0  0  0  0  0  0  0  0  0
  1  2  1  0  0  0  0
  1  7  1  0  0  0  0
  2  3  1  0  0  0  0
  2  4  2  0  0  0  0
  4  5  1  0  0  0  0
  5  6  2  0  0  0  0
  5 11  1  0  0  0  0
  6  7  1  0  0  0  0
  6  9  1  0  0  0  0
  7  8  2  0  0  0  0
  9 10  2  0  0  0  0
  9 12  1  0  0  0  0
 10 11  1  0  0  0  0
 12 13  1  0  0  0  0
M  END
>  <CHROM.1>
120.69950473,36.70359726,34.58912600,25.38852074,-1.51569910,-0.83699981
-0.73252213

>  <Name>
ligand

>  <RI>
0

>  <Rbt.Current_Directory>
/home/itssahil/PROJECTS/Mol_Feturizer/Test_systems_manuscript/rnas/3q50

>  <Rbt.Executable>
rbdock ($Id: //depot/dev/client3/rdock/2013.1/src/exe/rbdock.cxx#4 $)

>  <Rbt.Library>
libRbt.so (2013.1, Build901 2013/11/27)

>  <Rbt.Parameter_File>
/export/apps/rDock/src/rDock_2013.1_src/data/scripts/dock_solv.prm

>  <Rbt.Receptor>
prm/pocket_docking_8.prm

>  <SCORE>
-11.2868

>  <SCORE.INTER>
-11.289

>  <SCORE.INTER.CONST>
1

>  <SCORE.INTER.POLAR>
0

>  <SCORE.INTER.ROT>
1

>  <SCORE.INTER.SOLV>
18.7695

>  <SCORE.INTER.VDW>
-18.0492

>  <SCORE.INTER.norm>
-0.868385

>  <SCORE.INTRA>
0.00223709

>  <SCORE.INTRA.DIHEDRAL>
0.0309307

>  <SCORE.INTRA.DIHEDRAL.0>
1.65305

>  <SCORE.INTRA.POLAR>
0

>  <SCORE.INTRA.POLAR.0>
0

>  <SCORE.INTRA.REPUL>
0

>  <SCORE.INTRA.REPUL.0>
0

>  <SCORE.INTRA.SOLV>
0.216089

>  <SCORE.INTRA.SOLV.lig_0>
-46.9527

>  <SCORE.INTRA.VDW>
-0.121273

>  <SCORE.INTRA.VDW.0>
-0.177978

>  <SCORE.INTRA.norm>
0.000172084

>  <SCORE.RESTR>
0

>  <SCORE.RESTR.CAVITY>
0

>  <SCORE.RESTR.norm>
0

>  <SCORE.SYSTEM>
0

>  <SCORE.SYSTEM.CONST>
0

>  <SCORE.SYSTEM.DIHEDRAL>
0

>  <SCORE.SYSTEM.SOLV>
0

>  <SCORE.SYSTEM.norm>
0

>  <SCORE.heavy>
13

>  <SCORE.norm>
-0.868213

>  <RMSD>
3.817

$$$$
ligand
 OpenBabel02271912143D
libRbt.so/2013.1/901 2013/11/27
 13 14  0  0  0  0  0  0  0  0999 V2000
   37.3690   35.8296   25.0052 N   0  0  0  0  0  0  0  0  0  0  0  0
   36.4954   36.3237   24.0193 C   0  0  0  0  0  0  0  0  0  0  0  0
   36.7769   37.5874   23.5173 N   0  0  0  0  0  0  0  0  0  0  0  0
   35.3959   35.6883   23.5469 N   0  0  0  0  0  0  0  0  0  0  0  0
   35.2096   34.4484   24.1506 C   0  0  0  0  0  0  0  0  0  0  0  0
   36.0325   33.8703   25.1249 C   0  0  0  0  0  0  0  0  0  0  0  0
   37.1629   34.5486   25.6038 C   0  0  0  0  0  0  0  0  0  0  0  0
   37.9458   34.1614   26.4588 O   0  0  0  0  0  0  0  0  0  0  0  0
   35.5052   32.6077   25.4807 C   0  0  0  0  0  0  0  0  0  0  0  0
   34.3670   32.4278   24.7102 C   0  0  0  0  0  0  0  0  0  0  0  0
   34.1818   33.5632   23.8815 N   0  0  0  0  0  0  0  0  0  0  0  0
   36.1086   31.7221   26.5133 C   0  0  0  0  0  0  0  0  0  0  0  0
   36.1837   32.4072   27.8131 N   0  0  0  0  0  0  0  0  0  0  0  0
  1  2  1  0  0  0  0
  1  7  1  0  0  0  0
  2  3  1  0  0  0  0
  2  4  2  0  0  0  0
  4  5  1  0  0  0  0
  5  6  2  0  0  0  0
  5 11  1  0  0  0  0
  6  7  1  0  0  0  0
  6  9  1  0  0  0  0
  7  8  2  0  0  0  0
  9 10  2  0  0  0  0
  9 12  1  0  0  0  0
 10 11  1  0  0  0  0
 12 13  1  0  0  0  0
M  END
>  <CHROM.1>
58.12943783,36.09653175,34.25822590,25.09480898,-1.41983949,0.64378356,2.49965406

>  <Name>
ligand

>  <RI>
0

>  <Rbt.Current_Directory>
/home/itssahil/PROJECTS/Mol_Feturizer/Test_systems_manuscript/rnas/3q50

>  <Rbt.Executable>
rbdock ($Id: //depot/dev/client3/rdock/2013.1/src/exe/rbdock.cxx#4 $)

>  <Rbt.Library>
libRbt.so (2013.1, Build901 2013/11/27)

>  <Rbt.Parameter_File>
/export/apps/rDock/src/rDock_2013.1_src/data/scripts/dock_solv.prm

>  <Rbt.Receptor>
prm/blind_docking_100.prm

>  <SCORE>
-14.8456

>  <SCORE.INTER>
-15.5573

>  <SCORE.INTER.CONST>
1

>  <SCORE.INTER.POLAR>
0

>  <SCORE.INTER.ROT>
1

>  <SCORE.INTER.SOLV>
15.6591

>  <SCORE.INTER.VDW>
-19.8579

>  <SCORE.INTER.norm>
-1.19672

>  <SCORE.INTRA>
0.711755

>  <SCORE.INTRA.DIHEDRAL>
0.0305865

>  <SCORE.INTRA.DIHEDRAL.0>
1.65305

>  <SCORE.INTRA.POLAR>
0

>  <SCORE.INTRA.POLAR.0>
0

>  <SCORE.INTRA.REPUL>
0

>  <SCORE.INTRA.REPUL.0>
0

>  <SCORE.INTRA.SOLV>
1.82977

>  <SCORE.INTRA.SOLV.lig_0>
-46.9527

>  <SCORE.INTRA.VDW>
-0.218423

>  <SCORE.INTRA.VDW.0>
-0.177978

>  <SCORE.INTRA.norm>
0.0547504

>  <SCORE.RESTR>
0

>  <SCORE.RESTR.CAVITY>
0

>  <SCORE.RESTR.norm>
0

>  <SCORE.SYSTEM>
0

>  <SCORE.SYSTEM.CONST>
0

>  <SCORE.SYSTEM.DIHEDRAL>
0

>  <SCORE.SYSTEM.SOLV>
0

>  <SCORE.SYSTEM.norm>
0

>  <SCORE.heavy>
13

>  <SCORE.norm>
-1.14197

>  <RMSD>
3.820

$$$$
ligand
 OpenBabel02271912143D
libRbt.so/2013.1/901 2013/11/27
 13 14  0  0  0  0  0  0  0  0999 V2000
   37.3315   35.8336   25.0686 N   0  0  0  0  0  0  0  0  0  0  0  0
   36.4606   36.3279   24.0804 C   0  0  0  0  0  0  0  0  0  0  0  0
   36.7313   37.6001   23.5943 N   0  0  0  0  0  0  0  0  0  0  0  0
   35.3729   35.6846   23.5917 N   0  0  0  0  0  0  0  0  0  0  0  0
   35.1963   34.4362   24.1805 C   0  0  0  0  0  0  0  0  0  0  0  0
   36.0176   33.8574   25.1557 C   0  0  0  0  0  0  0  0  0  0  0  0
   37.1357   34.5439   25.6516 C   0  0  0  0  0  0  0  0  0  0  0  0
   37.9158   34.1568   26.5093 O   0  0  0  0  0  0  0  0  0  0  0  0
   35.5024   32.5850   25.4935 C   0  0  0  0  0  0  0  0  0  0  0  0
   34.3731   32.3999   24.7112 C   0  0  0  0  0  0  0  0  0  0  0  0
   34.1815   33.5418   23.8931 N   0  0  0  0  0  0  0  0  0  0  0  0
   36.1075   31.6955   26.5219 C   0  0  0  0  0  0  0  0  0  0  0  0
   36.2018   32.3822   27.8195 N   0  0  0  0  0  0  0  0  0  0  0  0
  1  2  1  0  0  0  0
  1  7  1  0  0  0  0
  2  3  1  0  0  0  0
  2  4  2  0  0  0  0
  4  5  1  0  0  0  0
  5  6  2  0  0  0  0
  5 11  1  0  0  0  0
  6  7  1  0  0  0  0
  6  9  1  0  0  0  0
  7  8  2  0  0  0  0
  9 10  2  0  0  0  0
  9 12  1  0  0  0  0
 10 11  1  0  0  0  0
 12 13  1  0  0  0  0
M  END
>  <CHROM.1>
56.35589969,36.08039275,34.24758467,25.12954796,-1.42918613,0.65784076,2.51611388

>  <Name>
ligand

>  <RI>
0

>  <Rbt.Current_Directory>
/home/itssahil/PROJECTS/Mol_Feturizer/Test_systems_manuscript/rnas/3q50

>  <Rbt.Executable>
rbdock ($Id: //depot/dev/client3/rdock/2013.1/src/exe/rbdock.cxx#4 $)

>  <Rbt.Library>
libRbt.so (2013.1, Build901 2013/11/27)

>  <Rbt.Parameter_File>
/export/apps/rDock/src/rDock_2013.1_src/data/scripts/dock_solv.prm

>  <Rbt.Receptor>
prm/blind_docking_100.prm

>  <SCORE>
-14.8634

>  <SCORE.INTER>
-15.6276

>  <SCORE.INTER.CONST>
1

>  <SCORE.INTER.POLAR>
0

>  <SCORE.INTER.ROT>
1

>  <SCORE.INTER.SOLV>
15.5391

>  <SCORE.INTER.VDW>
-19.8648

>  <SCORE.INTER.norm>
-1.20212

>  <SCORE.INTRA>
0.764178

>  <SCORE.INTRA.DIHEDRAL>
0.0358097

>  <SCORE.INTRA.DIHEDRAL.0>
1.65305

>  <SCORE.INTRA.POLAR>
0

>  <SCORE.INTRA.POLAR.0>
0

>  <SCORE.INTRA.REPUL>
0

>  <SCORE.INTRA.REPUL.0>
0

>  <SCORE.INTRA.SOLV>
1.88089

>  <SCORE.INTRA.SOLV.lig_0>
-46.9527

>  <SCORE.INTRA.VDW>
-0.194174

>  <SCORE.INTRA.VDW.0>
-0.177978

>  <SCORE.INTRA.norm>
0.058783

>  <SCORE.RESTR>
0

>  <SCORE.RESTR.CAVITY>
0

>  <SCORE.RESTR.norm>
0

>  <SCORE.SYSTEM>
0

>  <SCORE.SYSTEM.CONST>
0

>  <SCORE.SYSTEM.DIHEDRAL>
0

>  <SCORE.SYSTEM.SOLV>
0

>  <SCORE.SYSTEM.norm>
0

>  <SCORE.heavy>
13

>  <SCORE.norm>
-1.14334

>  <RMSD>
3.820

$$$$
ligand
 OpenBabel02271912143D
libRbt.so/2013.1/901 2013/11/27
 13 14  0  0  0  0  0  0  0  0999 V2000
   37.3515   35.8230   25.0596 N   0  0  0  0  0  0  0  0  0  0  0  0
   36.4814   36.3191   24.0716 C   0  0  0  0  0  0  0  0  0  0  0  0
   36.7587   37.5879   23.5804 N   0  0  0  0  0  0  0  0  0  0  0  0
   35.3889   35.6806   23.5874 N   0  0  0  0  0  0  0  0  0  0  0  0
   35.2060   34.4353   24.1811 C   0  0  0  0  0  0  0  0  0  0  0  0
   36.0259   33.8551   25.1566 C   0  0  0  0  0  0  0  0  0  0  0  0
   37.1492   34.5366   25.6477 C   0  0  0  0  0  0  0  0  0  0  0  0
   37.9288   34.1479   26.5050 O   0  0  0  0  0  0  0  0  0  0  0  0
   35.5039   32.5870   25.5000 C   0  0  0  0  0  0  0  0  0  0  0  0
   34.3717   32.4059   24.7208 C   0  0  0  0  0  0  0  0  0  0  0  0
   34.1852   33.5460   23.8990 N   0  0  0  0  0  0  0  0  0  0  0  0
   36.1058   31.6976   26.5303 C   0  0  0  0  0  0  0  0  0  0  0  0
   36.2120   32.3901   27.8239 N   0  0  0  0  0  0  0  0  0  0  0  0
  1  2  1  0  0  0  0
  1  7  1  0  0  0  0
  2  3  1  0  0  0  0
  2  4  2  0  0  0  0
  4  5  1  0  0  0  0
  5  6  2  0  0  0  0
  5 11  1  0  0  0  0
  6  7  1  0  0  0  0
  6  9  1  0  0  0  0
  7  8  2  0  0  0  0
  9 10  2  0  0  0  0
  9 12  1  0  0  0  0
 10 11  1  0  0  0  0
 12 13  1  0  0  0  0
M  END
>  <CHROM.1>
56.12759111,36.09141958,34.24494639,25.12879067,-1.42513374,0.65258353,2.51010284

>  <Name>
ligand

>  <RI>
0

>  <Rbt.Current_Directory>
/home/itssahil/PROJECTS/Mol_Feturizer/Test_systems_manuscript/rnas/3q50

>  <Rbt.Executable>
rbdock ($Id: //depot/dev/client3/rdock/2013.1/src/exe/rbdock.cxx#4 $)

>  <Rbt.Library>
libRbt.so (2013.1, Build901 2013/11/27)

>  <Rbt.Parameter_File>
/export/apps/rDock/src/rDock_2013.1_src/data/scripts/dock_solv.prm

>  <Rbt.Receptor>
prm/blind_docking_100.prm

>  <SCORE>
-14.8664

>  <SCORE.INTER>
-15.6378

>  <SCORE.INTER.CONST>
1

>  <SCORE.INTER.POLAR>
0

>  <SCORE.INTER.ROT>
1

>  <SCORE.INTER.SOLV>
15.5445

>  <SCORE.INTER.VDW>
-19.8734

>  <SCORE.INTER.norm>
-1.20291

>  <SCORE.INTRA>
0.771409

>  <SCORE.INTRA.DIHEDRAL>
0.0364775

>  <SCORE.INTRA.DIHEDRAL.0>
1.65305

>  <SCORE.INTRA.POLAR>
0

>  <SCORE.INTRA.POLAR.0>
0

>  <SCORE.INTRA.REPUL>
0

>  <SCORE.INTRA.REPUL.0>
0

>  <SCORE.INTRA.SOLV>
1.88744

>  <SCORE.INTRA.SOLV.lig_0>
-46.9527

>  <SCORE.INTRA.VDW>
-0.190548

>  <SCORE.INTRA.VDW.0>
-0.177978

>  <SCORE.INTRA.norm>
0.0593391

>  <SCORE.RESTR>
0

>  <SCORE.RESTR.CAVITY>
0

>  <SCORE.RESTR.norm>
0

>  <SCORE.SYSTEM>
0

>  <SCORE.SYSTEM.CONST>
0

>  <SCORE.SYSTEM.DIHEDRAL>
0

>  <SCORE.SYSTEM.SOLV>
0

>  <SCORE.SYSTEM.norm>
0

>  <SCORE.heavy>
13

>  <SCORE.norm>
-1.14357

>  <RMSD>
3.821

$$$$
ligand
 OpenBabel02271912143D
libRbt.so/2013.1/901 2013/11/27
 13 14  0  0  0  0  0  0  0  0999 V2000
   37.3392   35.8347   25.0054 N   0  0  0  0  0  0  0  0  0  0  0  0
   36.4715   36.3326   24.0161 C   0  0  0  0  0  0  0  0  0  0  0  0
   36.7609   37.5946   23.5145 N   0  0  0  0  0  0  0  0  0  0  0  0
   35.3707   35.7022   23.5401 N   0  0  0  0  0  0  0  0  0  0  0  0
   35.1763   34.4635   24.1437 C   0  0  0  0  0  0  0  0  0  0  0  0
   35.9929   33.8820   25.1212 C   0  0  0  0  0  0  0  0  0  0  0  0
   37.1249   34.5550   25.6038 C   0  0  0  0  0  0  0  0  0  0  0  0
   37.9029   34.1645   26.4618 O   0  0  0  0  0  0  0  0  0  0  0  0
   35.4584   32.6221   25.4758 C   0  0  0  0  0  0  0  0  0  0  0  0
   34.3220   32.4473   24.7013 C   0  0  0  0  0  0  0  0  0  0  0  0
   34.1453   33.5831   23.8714 N   0  0  0  0  0  0  0  0  0  0  0  0
   36.0538   31.7341   26.5110 C   0  0  0  0  0  0  0  0  0  0  0  0
   36.1456   32.4262   27.8060 N   0  0  0  0  0  0  0  0  0  0  0  0
  1  2  1  0  0  0  0
  1  7  1  0  0  0  0
  2  3  1  0  0  0  0
  2  4  2  0  0  0  0
  4  5  1  0  0  0  0
  5  6  2  0  0  0  0
  5 11  1  0  0  0  0
  6  7  1  0  0  0  0
  6  9  1  0  0  0  0
  7  8  2  0  0  0  0
  9 10  2  0  0  0  0
  9 12  1  0  0  0  0
 10 11  1  0  0  0  0
 12 13  1  0  0  0  0
M  END
>  <CHROM.1>
57.30220653,36.06041958,34.27010076,25.09079834,-1.41409854,0.64379817,2.49576687

>  <Name>
ligand

>  <RI>
0

>  <Rbt.Current_Directory>
/home/itssahil/PROJECTS/Mol_Feturizer/Test_systems_manuscript/rnas/3q50

>  <Rbt.Executable>
rbdock ($Id: //depot/dev/client3/rdock/2013.1/src/exe/rbdock.cxx#4 $)

>  <Rbt.Library>
libRbt.so (2013.1, Build901 2013/11/27)

>  <Rbt.Parameter_File>
/export/apps/rDock/src/rDock_2013.1_src/data/scripts/dock_solv.prm

>  <Rbt.Receptor>
prm/blind_docking_80.prm

>  <SCORE>
-14.8713

>  <SCORE.INTER>
-15.6067

>  <SCORE.INTER.CONST>
1

>  <SCORE.INTER.POLAR>
0

>  <SCORE.INTER.ROT>
1

>  <SCORE.INTER.SOLV>
15.7216

>  <SCORE.INTER.VDW>
-19.9116

>  <SCORE.INTER.norm>
-1.20051

>  <SCORE.INTRA>
0.735416

>  <SCORE.INTRA.DIHEDRAL>
0.0330294

>  <SCORE.INTRA.DIHEDRAL.0>
1.65305

>  <SCORE.INTRA.POLAR>
0

>  <SCORE.INTRA.POLAR.0>
0

>  <SCORE.INTRA.REPUL>
0

>  <SCORE.INTRA.REPUL.0>
0

>  <SCORE.INTRA.SOLV>
1.85368

>  <SCORE.INTRA.SOLV.lig_0>
-46.9527

>  <SCORE.INTRA.VDW>
-0.20794

>  <SCORE.INTRA.VDW.0>
-0.177978

>  <SCORE.INTRA.norm>
0.0565705

>  <SCORE.RESTR>
0

>  <SCORE.RESTR.CAVITY>
0

>  <SCORE.RESTR.norm>
0

>  <SCORE.SYSTEM>
0

>  <SCORE.SYSTEM.CONST>
0

>  <SCORE.SYSTEM.DIHEDRAL>
0

>  <SCORE.SYSTEM.SOLV>
0

>  <SCORE.SYSTEM.norm>
0

>  <SCORE.heavy>
13

>  <SCORE.norm>
-1.14394

>  <RMSD>
3.822

$$$$
ligand
 OpenBabel02271912143D
libRbt.so/2013.1/901 2013/11/27
 13 14  0  0  0  0  0  0  0  0999 V2000
   37.2605   35.8264   25.0513 N   0  0  0  0  0  0  0  0  0  0  0  0
   36.4249   36.3294   24.0374 C   0  0  0  0  0  0  0  0  0  0  0  0
   36.7195   37.6011   23.5640 N   0  0  0  0  0  0  0  0  0  0  0  0
   35.3490   35.6949   23.5124 N   0  0  0  0  0  0  0  0  0  0  0  0
   35.1453   34.4461   24.0915 C   0  0  0  0  0  0  0  0  0  0  0  0
   35.9312   33.8591   25.0907 C   0  0  0  0  0  0  0  0  0  0  0  0
   37.0375   34.5365   25.6240 C   0  0  0  0  0  0  0  0  0  0  0  0
   37.7873   34.1418   26.5049 O   0  0  0  0  0  0  0  0  0  0  0  0
   35.3970   32.5892   25.4081 C   0  0  0  0  0  0  0  0  0  0  0  0
   34.2919   32.4140   24.5897 C   0  0  0  0  0  0  0  0  0  0  0  0
   34.1341   33.5595   23.7693 N   0  0  0  0  0  0  0  0  0  0  0  0
   35.9629   31.6928   26.4526 C   0  0  0  0  0  0  0  0  0  0  0  0
   36.0550   32.3874   27.7463 N   0  0  0  0  0  0  0  0  0  0  0  0
  1  2  1  0  0  0  0
  1  7  1  0  0  0  0
  2  3  1  0  0  0  0
  2  4  2  0  0  0  0
  4  5  1  0  0  0  0
  5  6  2  0  0  0  0
  5 11  1  0  0  0  0
  6  7  1  0  0  0  0
  6  9  1  0  0  0  0
  7  8  2  0  0  0  0
  9 10  2  0  0  0  0
  9 12  1  0  0  0  0
 10 11  1  0  0  0  0
 12 13  1  0  0  0  0
M  END
>  <CHROM.1>
54.79358079,36.00022987,34.24984976,25.06701733,-1.40153455,0.67948375,2.50196575

>  <Name>
ligand

>  <RI>
0

>  <Rbt.Current_Directory>
/home/itssahil/PROJECTS/Mol_Feturizer/Test_systems_manuscript/rnas/3q50

>  <Rbt.Executable>
rbdock ($Id: //depot/dev/client3/rdock/2013.1/src/exe/rbdock.cxx#4 $)

>  <Rbt.Library>
libRbt.so (2013.1, Build901 2013/11/27)

>  <Rbt.Parameter_File>
/export/apps/rDock/src/rDock_2013.1_src/data/scripts/dock_solv.prm

>  <Rbt.Receptor>
prm/blind_docking_100.prm

>  <SCORE>
-14.8465

>  <SCORE.INTER>
-15.6626

>  <SCORE.INTER.CONST>
1

>  <SCORE.INTER.POLAR>
0

>  <SCORE.INTER.ROT>
1

>  <SCORE.INTER.SOLV>
15.732

>  <SCORE.INTER.VDW>
-19.9524

>  <SCORE.INTER.norm>
-1.20482

>  <SCORE.INTRA>
0.816132

>  <SCORE.INTRA.DIHEDRAL>
0.0403492

>  <SCORE.INTRA.DIHEDRAL.0>
1.65305

>  <SCORE.INTRA.POLAR>
0

>  <SCORE.INTRA.POLAR.0>
0

>  <SCORE.INTRA.REPUL>
0

>  <SCORE.INTRA.REPUL.0>
0

>  <SCORE.INTRA.SOLV>
1.92546

>  <SCORE.INTRA.SOLV.lig_0>
-46.9527

>  <SCORE.INTRA.VDW>
-0.166772

>  <SCORE.INTRA.VDW.0>
-0.177978

>  <SCORE.INTRA.norm>
0.0627794

>  <SCORE.RESTR>
0

>  <SCORE.RESTR.CAVITY>
0

>  <SCORE.RESTR.norm>
0

>  <SCORE.SYSTEM>
0

>  <SCORE.SYSTEM.CONST>
0

>  <SCORE.SYSTEM.DIHEDRAL>
0

>  <SCORE.SYSTEM.SOLV>
0

>  <SCORE.SYSTEM.norm>
0

>  <SCORE.heavy>
13

>  <SCORE.norm>
-1.14204

>  <RMSD>
3.837

$$$$
ligand
 OpenBabel02271912143D
libRbt.so/2013.1/901 2013/11/27
 13 14  0  0  0  0  0  0  0  0999 V2000
   37.2376   35.8474   25.1447 N   0  0  0  0  0  0  0  0  0  0  0  0
   36.3959   36.3619   24.1417 C   0  0  0  0  0  0  0  0  0  0  0  0
   36.6725   37.6485   23.6987 N   0  0  0  0  0  0  0  0  0  0  0  0
   35.3300   35.7244   23.6002 N   0  0  0  0  0  0  0  0  0  0  0  0
   35.1438   34.4595   24.1496 C   0  0  0  0  0  0  0  0  0  0  0  0
   35.9370   33.8606   25.1359 C   0  0  0  0  0  0  0  0  0  0  0  0
   37.0327   34.5413   25.6866 C   0  0  0  0  0  0  0  0  0  0  0  0
   37.7871   34.1369   26.5591 O   0  0  0  0  0  0  0  0  0  0  0  0
   35.4208   32.5760   25.4226 C   0  0  0  0  0  0  0  0  0  0  0  0
   34.3194   32.4041   24.5986 C   0  0  0  0  0  0  0  0  0  0  0  0
   34.1460   33.5661   23.8051 N   0  0  0  0  0  0  0  0  0  0  0  0
   35.9986   31.6636   26.4466 C   0  0  0  0  0  0  0  0  0  0  0  0
   36.1063   32.3384   27.7495 N   0  0  0  0  0  0  0  0  0  0  0  0
  1  2  1  0  0  0  0
  1  7  1  0  0  0  0
  2  3  1  0  0  0  0
  2  4  2  0  0  0  0
  4  5  1  0  0  0  0
  5  6  2  0  0  0  0
  5 11  1  0  0  0  0
  6  7  1  0  0  0  0
  6  9  1  0  0  0  0
  7  8  2  0  0  0  0
  9 10  2  0  0  0  0
  9 12  1  0  0  0  0
 10 11  1  0  0  0  0
 12 13  1  0  0  0  0
M  END
>  <CHROM.1>
53.55360562,36.00254898,34.25354983,25.12094067,-1.41840696,0.68895354,2.53624830

>  <Name>
ligand

>  <RI>
0

>  <Rbt.Current_Directory>
/home/itssahil/PROJECTS/Mol_Feturizer/Test_systems_manuscript/rnas/3q50

>  <Rbt.Executable>
rbdock ($Id: //depot/dev/client3/rdock/2013.1/src/exe/rbdock.cxx#4 $)

>  <Rbt.Library>
libRbt.so (2013.1, Build901 2013/11/27)

>  <Rbt.Parameter_File>
/export/apps/rDock/src/rDock_2013.1_src/data/scripts/dock_solv.prm

>  <Rbt.Receptor>
prm/blind_docking_100.prm

>  <SCORE>
-14.8375

>  <SCORE.INTER>
-15.6994

>  <SCORE.INTER.CONST>
1

>  <SCORE.INTER.POLAR>
0

>  <SCORE.INTER.ROT>
1

>  <SCORE.INTER.SOLV>
15.409

>  <SCORE.INTER.VDW>
-19.8692

>  <SCORE.INTER.norm>
-1.20765

>  <SCORE.INTRA>
0.861894

>  <SCORE.INTRA.DIHEDRAL>
0.0438897

>  <SCORE.INTRA.DIHEDRAL.0>
1.65305

>  <SCORE.INTRA.POLAR>
0

>  <SCORE.INTRA.POLAR.0>
0

>  <SCORE.INTRA.REPUL>
0

>  <SCORE.INTRA.REPUL.0>
0

>  <SCORE.INTRA.SOLV>
1.96048

>  <SCORE.INTRA.SOLV.lig_0>
-46.9527

>  <SCORE.INTRA.VDW>
-0.140293

>  <SCORE.INTRA.VDW.0>
-0.177978

>  <SCORE.INTRA.norm>
0.0662995

>  <SCORE.RESTR>
0

>  <SCORE.RESTR.CAVITY>
0

>  <SCORE.RESTR.norm>
0

>  <SCORE.SYSTEM>
0

>  <SCORE.SYSTEM.CONST>
0

>  <SCORE.SYSTEM.DIHEDRAL>
0

>  <SCORE.SYSTEM.SOLV>
0

>  <SCORE.SYSTEM.norm>
0

>  <SCORE.heavy>
13

>  <SCORE.norm>
-1.14135

>  <RMSD>
3.846

$$$$
ligand
 OpenBabel02271912143D
libRbt.so/2013.1/901 2013/11/27
 13 14  0  0  0  0  0  0  0  0999 V2000
   37.2833   35.7962   25.0331 N   0  0  0  0  0  0  0  0  0  0  0  0
   36.4566   36.3180   24.0214 C   0  0  0  0  0  0  0  0  0  0  0  0
   36.7767   37.5841   23.5495 N   0  0  0  0  0  0  0  0  0  0  0  0
   35.3669   35.7069   23.4972 N   0  0  0  0  0  0  0  0  0  0  0  0
   35.1383   34.4616   24.0747 C   0  0  0  0  0  0  0  0  0  0  0  0
   35.9135   33.8568   25.0716 C   0  0  0  0  0  0  0  0  0  0  0  0
   37.0345   34.5102   25.6041 C   0  0  0  0  0  0  0  0  0  0  0  0
   37.7774   34.0986   26.4831 O   0  0  0  0  0  0  0  0  0  0  0  0
   35.3536   32.5977   25.3879 C   0  0  0  0  0  0  0  0  0  0  0  0
   34.2438   32.4468   24.5711 C   0  0  0  0  0  0  0  0  0  0  0  0
   34.1084   33.5966   23.7528 N   0  0  0  0  0  0  0  0  0  0  0  0
   35.9026   31.6881   26.4300 C   0  0  0  0  0  0  0  0  0  0  0  0
   36.0451   32.3888   27.7157 N   0  0  0  0  0  0  0  0  0  0  0  0
  1  2  1  0  0  0  0
  1  7  1  0  0  0  0
  2  3  1  0  0  0  0
  2  4  2  0  0  0  0
  4  5  1  0  0  0  0
  5  6  2  0  0  0  0
  5 11  1  0  0  0  0
  6  7  1  0  0  0  0
  6  9  1  0  0  0  0
  7  8  2  0  0  0  0
  9 10  2  0  0  0  0
  9 12  1  0  0  0  0
 10 11  1  0  0  0  0
 12 13  1  0  0  0  0
M  END
>  <CHROM.1>
53.26813760,35.99335148,34.24687872,25.04768251,-1.38485300,0.66560736,2.49337076

>  <Name>
ligand

>  <RI>
0

>  <Rbt.Current_Directory>
/home/itssahil/PROJECTS/Mol_Feturizer/Test_systems_manuscript/rnas/3q50

>  <Rbt.Executable>
rbdock ($Id: //depot/dev/client3/rdock/2013.1/src/exe/rbdock.cxx#4 $)

>  <Rbt.Library>
libRbt.so (2013.1, Build901 2013/11/27)

>  <Rbt.Parameter_File>
/export/apps/rDock/src/rDock_2013.1_src/data/scripts/dock_solv.prm

>  <Rbt.Receptor>
prm/pocket_docking_6.prm

>  <SCORE>
-14.8381

>  <SCORE.INTER>
-15.7112

>  <SCORE.INTER.CONST>
1

>  <SCORE.INTER.POLAR>
0

>  <SCORE.INTER.ROT>
1

>  <SCORE.INTER.SOLV>
15.7114

>  <SCORE.INTER.VDW>
-19.9779

>  <SCORE.INTER.norm>
-1.20855

>  <SCORE.INTRA>
0.873061

>  <SCORE.INTRA.DIHEDRAL>
0.0446952

>  <SCORE.INTRA.DIHEDRAL.0>
1.65305

>  <SCORE.INTRA.POLAR>
0

>  <SCORE.INTRA.POLAR.0>
0

>  <SCORE.INTRA.REPUL>
0

>  <SCORE.INTRA.REPUL.0>
0

>  <SCORE.INTRA.SOLV>
1.9685

>  <SCORE.INTRA.SOLV.lig_0>
-46.9527

>  <SCORE.INTRA.VDW>
-0.133537

>  <SCORE.INTRA.VDW.0>
-0.177978

>  <SCORE.INTRA.norm>
0.0671585

>  <SCORE.RESTR>
0

>  <SCORE.RESTR.CAVITY>
0

>  <SCORE.RESTR.norm>
0

>  <SCORE.SYSTEM>
0

>  <SCORE.SYSTEM.CONST>
0

>  <SCORE.SYSTEM.DIHEDRAL>
0

>  <SCORE.SYSTEM.SOLV>
0

>  <SCORE.SYSTEM.norm>
0

>  <SCORE.heavy>
13

>  <SCORE.norm>
-1.14139

>  <RMSD>
3.850

$$$$
ligand
 OpenBabel02271912143D
libRbt.so/2013.1/901 2013/11/27
 13 14  0  0  0  0  0  0  0  0999 V2000
   37.2852   35.8293   25.1132 N   0  0  0  0  0  0  0  0  0  0  0  0
   36.4658   36.3661   24.1033 C   0  0  0  0  0  0  0  0  0  0  0  0
   36.7873   37.6402   23.6546 N   0  0  0  0  0  0  0  0  0  0  0  0
   35.3817   35.7615   23.5602 N   0  0  0  0  0  0  0  0  0  0  0  0
   35.1507   34.5066   24.1156 C   0  0  0  0  0  0  0  0  0  0  0  0
   35.9189   33.8871   25.1089 C   0  0  0  0  0  0  0  0  0  0  0  0
   37.0342   34.5338   25.6612 C   0  0  0  0  0  0  0  0  0  0  0  0
   37.7706   34.1093   26.5395 O   0  0  0  0  0  0  0  0  0  0  0  0
   35.3588   32.6221   25.4001 C   0  0  0  0  0  0  0  0  0  0  0  0
   34.2560   32.4824   24.5718 C   0  0  0  0  0  0  0  0  0  0  0  0
   34.1252   33.6451   23.7712 N   0  0  0  0  0  0  0  0  0  0  0  0
   35.9010   31.6966   26.4318 C   0  0  0  0  0  0  0  0  0  0  0  0
   36.0577   32.3842   27.7230 N   0  0  0  0  0  0  0  0  0  0  0  0
  1  2  1  0  0  0  0
  1  7  1  0  0  0  0
  2  3  1  0  0  0  0
  2  4  2  0  0  0  0
  4  5  1  0  0  0  0
  5  6  2  0  0  0  0
  5 11  1  0  0  0  0
  6  7  1  0  0  0  0
  6  9  1  0  0  0  0
  7  8  2  0  0  0  0
  9 10  2  0  0  0  0
  9 12  1  0  0  0  0
 10 11  1  0  0  0  0
 12 13  1  0  0  0  0
M  END
>  <CHROM.1>
52.09953191,36.00030107,34.27828617,25.09143079,-1.38296290,0.67321018,2.50862457

>  <Name>
ligand

>  <RI>
0

>  <Rbt.Current_Directory>
/home/itssahil/PROJECTS/Mol_Feturizer/Test_systems_manuscript/rnas/3q50

>  <Rbt.Executable>
rbdock ($Id: //depot/dev/client3/rdock/2013.1/src/exe/rbdock.cxx#4 $)

>  <Rbt.Library>
libRbt.so (2013.1, Build901 2013/11/27)

>  <Rbt.Parameter_File>
/export/apps/rDock/src/rDock_2013.1_src/data/scripts/dock_solv.prm

>  <Rbt.Receptor>
prm/blind_docking_100.prm

>  <SCORE>
-14.8463

>  <SCORE.INTER>
-15.7678

>  <SCORE.INTER.CONST>
1

>  <SCORE.INTER.POLAR>
0

>  <SCORE.INTER.ROT>
1

>  <SCORE.INTER.SOLV>
15.4265

>  <SCORE.INTER.VDW>
-19.9207

>  <SCORE.INTER.norm>
-1.2129

>  <SCORE.INTRA>
0.921481

>  <SCORE.INTRA.DIHEDRAL>
0.0479495

>  <SCORE.INTRA.DIHEDRAL.0>
1.65305

>  <SCORE.INTRA.POLAR>
0

>  <SCORE.INTRA.POLAR.0>
0

>  <SCORE.INTRA.REPUL>
0

>  <SCORE.INTRA.REPUL.0>
0

>  <SCORE.INTRA.SOLV>
2.00113

>  <SCORE.INTRA.SOLV.lig_0>
-46.9527

>  <SCORE.INTRA.VDW>
-0.103061

>  <SCORE.INTRA.VDW.0>
-0.177978

>  <SCORE.INTRA.norm>
0.0708831

>  <SCORE.RESTR>
0

>  <SCORE.RESTR.CAVITY>
0

>  <SCORE.RESTR.norm>
0

>  <SCORE.SYSTEM>
0

>  <SCORE.SYSTEM.CONST>
0

>  <SCORE.SYSTEM.DIHEDRAL>
0

>  <SCORE.SYSTEM.SOLV>
0

>  <SCORE.SYSTEM.norm>
0

>  <SCORE.heavy>
13

>  <SCORE.norm>
-1.14202

>  <RMSD>
3.872

$$$$
ligand
 OpenBabel02271912143D
libRbt.so/2013.1/901 2013/11/27
 13 14  0  0  0  0  0  0  0  0999 V2000
   37.7661   33.8054   27.0573 N   0  0  0  0  0  0  0  0  0  0  0  0
   37.2248   32.7379   27.7968 C   0  0  0  0  0  0  0  0  0  0  0  0
   37.9154   32.3622   28.9413 N   0  0  0  0  0  0  0  0  0  0  0  0
   36.1143   32.0333   27.4709 N   0  0  0  0  0  0  0  0  0  0  0  0
   35.5347   32.4887   26.2906 C   0  0  0  0  0  0  0  0  0  0  0  0
   35.9919   33.5499   25.4997 C   0  0  0  0  0  0  0  0  0  0  0  0
   37.1473   34.2622   25.8532 C   0  0  0  0  0  0  0  0  0  0  0  0
   37.6548   35.1910   25.2418 O   0  0  0  0  0  0  0  0  0  0  0  0
   35.1306   33.6986   24.3885 C   0  0  0  0  0  0  0  0  0  0  0  0
   34.1506   32.7270   24.5204 C   0  0  0  0  0  0  0  0  0  0  0  0
   34.3939   31.9777   25.6991 N   0  0  0  0  0  0  0  0  0  0  0  0
   35.3304   34.7138   23.3189 C   0  0  0  0  0  0  0  0  0  0  0  0
   35.5621   36.0466   23.8972 N   0  0  0  0  0  0  0  0  0  0  0  0
  1  2  1  0  0  0  0
  1  7  1  0  0  0  0
  2  3  1  0  0  0  0
  2  4  2  0  0  0  0
  4  5  1  0  0  0  0
  5  6  2  0  0  0  0
  5 11  1  0  0  0  0
  6  7  1  0  0  0  0
  6  9  1  0  0  0  0
  7  8  2  0  0  0  0
  9 10  2  0  0  0  0
  9 12  1  0  0  0  0
 10 11  1  0  0  0  0
 12 13  1  0  0  0  0
M  END
>  <CHROM.1>
-49.22754140,36.18458475,33.54521251,25.84532136,-1.06794130,-0.61496760
-0.78517907

>  <Name>
ligand

>  <RI>
0

>  <Rbt.Current_Directory>
/home/itssahil/PROJECTS/Mol_Feturizer/Test_systems_manuscript/rnas/3q50

>  <Rbt.Executable>
rbdock ($Id: //depot/dev/client3/rdock/2013.1/src/exe/rbdock.cxx#4 $)

>  <Rbt.Library>
libRbt.so (2013.1, Build901 2013/11/27)

>  <Rbt.Parameter_File>
/export/apps/rDock/src/rDock_2013.1_src/data/scripts/dock_solv.prm

>  <Rbt.Receptor>
prm/blind_docking_100.prm

>  <SCORE>
-14.9786

>  <SCORE.INTER>
-16.0421

>  <SCORE.INTER.CONST>
1

>  <SCORE.INTER.POLAR>
0

>  <SCORE.INTER.ROT>
1

>  <SCORE.INTER.SOLV>
18.9214

>  <SCORE.INTER.VDW>
-21.2685

>  <SCORE.INTER.norm>
-1.23401

>  <SCORE.INTRA>
1.06351

>  <SCORE.INTRA.DIHEDRAL>
-0.00490913

>  <SCORE.INTRA.DIHEDRAL.0>
1.65305

>  <SCORE.INTRA.POLAR>
0

>  <SCORE.INTRA.POLAR.0>
0

>  <SCORE.INTRA.REPUL>
0

>  <SCORE.INTRA.REPUL.0>
0

>  <SCORE.INTRA.SOLV>
2.08678

>  <SCORE.INTRA.SOLV.lig_0>
-46.9527

>  <SCORE.INTRA.VDW>
0.0225715

>  <SCORE.INTRA.VDW.0>
-0.177978

>  <SCORE.INTRA.norm>
0.0818083

>  <SCORE.RESTR>
0

>  <SCORE.RESTR.CAVITY>
0

>  <SCORE.RESTR.norm>
0

>  <SCORE.SYSTEM>
0

>  <SCORE.SYSTEM.CONST>
0

>  <SCORE.SYSTEM.DIHEDRAL>
0

>  <SCORE.SYSTEM.SOLV>
0

>  <SCORE.SYSTEM.norm>
0

>  <SCORE.heavy>
13

>  <SCORE.norm>
-1.1522

>  <RMSD>
3.918

$$$$
ligand
 OpenBabel02271912143D
libRbt.so/2013.1/901 2013/11/27
 13 14  0  0  0  0  0  0  0  0999 V2000
   37.7367   33.8376   27.0788 N   0  0  0  0  0  0  0  0  0  0  0  0
   37.2016   32.7599   27.8079 C   0  0  0  0  0  0  0  0  0  0  0  0
   37.8803   32.3937   28.9626 N   0  0  0  0  0  0  0  0  0  0  0  0
   36.1084   32.0376   27.4634 N   0  0  0  0  0  0  0  0  0  0  0  0
   35.5399   32.4854   26.2748 C   0  0  0  0  0  0  0  0  0  0  0  0
   35.9918   33.5555   25.4930 C   0  0  0  0  0  0  0  0  0  0  0  0
   37.1294   34.2863   25.8657 C   0  0  0  0  0  0  0  0  0  0  0  0
   37.6309   35.2245   25.2639 O   0  0  0  0  0  0  0  0  0  0  0  0
   35.1458   33.6918   24.3685 C   0  0  0  0  0  0  0  0  0  0  0  0
   34.1802   32.7038   24.4833 C   0  0  0  0  0  0  0  0  0  0  0  0
   34.4173   31.9565   25.6646 N   0  0  0  0  0  0  0  0  0  0  0  0
   35.3454   34.7122   23.3037 C   0  0  0  0  0  0  0  0  0  0  0  0
   35.5371   36.0489   23.8875 N   0  0  0  0  0  0  0  0  0  0  0  0
  1  2  1  0  0  0  0
  1  7  1  0  0  0  0
  2  3  1  0  0  0  0
  2  4  2  0  0  0  0
  4  5  1  0  0  0  0
  5  6  2  0  0  0  0
  5 11  1  0  0  0  0
  6  7  1  0  0  0  0
  6  9  1  0  0  0  0
  7  8  2  0  0  0  0
  9 10  2  0  0  0  0
  9 12  1  0  0  0  0
 10 11  1  0  0  0  0
 12 13  1  0  0  0  0
M  END
>  <CHROM.1>
-49.59380324,36.17834559,33.55346327,25.84151125,-1.06641009,-0.63786910
-0.78244927

>  <Name>
ligand

>  <RI>
0

>  <Rbt.Current_Directory>
/home/itssahil/PROJECTS/Mol_Feturizer/Test_systems_manuscript/rnas/3q50

>  <Rbt.Executable>
rbdock ($Id: //depot/dev/client3/rdock/2013.1/src/exe/rbdock.cxx#4 $)

>  <Rbt.Library>
libRbt.so (2013.1, Build901 2013/11/27)

>  <Rbt.Parameter_File>
/export/apps/rDock/src/rDock_2013.1_src/data/scripts/dock_solv.prm

>  <Rbt.Receptor>
prm/blind_docking_60.prm

>  <SCORE>
-14.9905

>  <SCORE.INTER>
-16.0339

>  <SCORE.INTER.CONST>
1

>  <SCORE.INTER.POLAR>
0

>  <SCORE.INTER.ROT>
1

>  <SCORE.INTER.SOLV>
19.131

>  <SCORE.INTER.VDW>
-21.333

>  <SCORE.INTER.norm>
-1.23338

>  <SCORE.INTRA>
1.04344

>  <SCORE.INTRA.DIHEDRAL>
-0.00400587

>  <SCORE.INTRA.DIHEDRAL.0>
1.65305

>  <SCORE.INTRA.POLAR>
0

>  <SCORE.INTRA.POLAR.0>
0

>  <SCORE.INTRA.REPUL>
0

>  <SCORE.INTRA.REPUL.0>
0

>  <SCORE.INTRA.SOLV>
2.07684

>  <SCORE.INTRA.SOLV.lig_0>
-46.9527

>  <SCORE.INTRA.VDW>
0.00701929

>  <SCORE.INTRA.VDW.0>
-0.177978

>  <SCORE.INTRA.norm>
0.0802645

>  <SCORE.RESTR>
0

>  <SCORE.RESTR.CAVITY>
0

>  <SCORE.RESTR.norm>
0

>  <SCORE.SYSTEM>
0

>  <SCORE.SYSTEM.CONST>
0

>  <SCORE.SYSTEM.DIHEDRAL>
0

>  <SCORE.SYSTEM.SOLV>
0

>  <SCORE.SYSTEM.norm>
0

>  <SCORE.heavy>
13

>  <SCORE.norm>
-1.15311

>  <RMSD>
3.918

$$$$
ligand
 OpenBabel02271912143D
libRbt.so/2013.1/901 2013/11/27
 13 14  0  0  0  0  0  0  0  0999 V2000
   37.7667   33.8000   27.0596 N   0  0  0  0  0  0  0  0  0  0  0  0
   37.2273   32.7304   27.7974 C   0  0  0  0  0  0  0  0  0  0  0  0
   37.9193   32.3534   28.9406 N   0  0  0  0  0  0  0  0  0  0  0  0
   36.1176   32.0250   27.4709 N   0  0  0  0  0  0  0  0  0  0  0  0
   35.5365   32.4819   26.2919 C   0  0  0  0  0  0  0  0  0  0  0  0
   35.9918   33.5453   25.5028 C   0  0  0  0  0  0  0  0  0  0  0  0
   37.1465   34.2584   25.8567 C   0  0  0  0  0  0  0  0  0  0  0  0
   37.6523   35.1890   25.2468 O   0  0  0  0  0  0  0  0  0  0  0  0
   35.1295   33.6949   24.3924 C   0  0  0  0  0  0  0  0  0  0  0  0
   34.1509   32.7218   24.5231 C   0  0  0  0  0  0  0  0  0  0  0  0
   34.3960   31.9705   25.7002 N   0  0  0  0  0  0  0  0  0  0  0  0
   35.3272   34.7124   23.3246 C   0  0  0  0  0  0  0  0  0  0  0  0
   35.5541   36.0450   23.9053 N   0  0  0  0  0  0  0  0  0  0  0  0
  1  2  1  0  0  0  0
  1  7  1  0  0  0  0
  2  3  1  0  0  0  0
  2  4  2  0  0  0  0
  4  5  1  0  0  0  0
  5  6  2  0  0  0  0
  5 11  1  0  0  0  0
  6  7  1  0  0  0  0
  6  9  1  0  0  0  0
  7  8  2  0  0  0  0
  9 10  2  0  0  0  0
  9 12  1  0  0  0  0
 10 11  1  0  0  0  0
 12 13  1  0  0  0  0
M  END
>  <CHROM.1>
-49.37848890,36.18441901,33.54015470,25.84819250,-1.06590077,-0.61536902
-0.78201736

>  <Name>
ligand

>  <RI>
0

>  <Rbt.Current_Directory>
/home/itssahil/PROJECTS/Mol_Feturizer/Test_systems_manuscript/rnas/3q50

>  <Rbt.Executable>
rbdock ($Id: //depot/dev/client3/rdock/2013.1/src/exe/rbdock.cxx#4 $)

>  <Rbt.Library>
libRbt.so (2013.1, Build901 2013/11/27)

>  <Rbt.Parameter_File>
/export/apps/rDock/src/rDock_2013.1_src/data/scripts/dock_solv.prm

>  <Rbt.Receptor>
prm/blind_docking_80.prm

>  <SCORE>
-14.978

>  <SCORE.INTER>
-16.0331

>  <SCORE.INTER.CONST>
1

>  <SCORE.INTER.POLAR>
0

>  <SCORE.INTER.ROT>
1

>  <SCORE.INTER.SOLV>
18.9146

>  <SCORE.INTER.VDW>
-21.2603

>  <SCORE.INTER.norm>
-1.23332

>  <SCORE.INTRA>
1.05516

>  <SCORE.INTRA.DIHEDRAL>
-0.00453827

>  <SCORE.INTRA.DIHEDRAL.0>
1.65305

>  <SCORE.INTRA.POLAR>
0

>  <SCORE.INTRA.POLAR.0>
0

>  <SCORE.INTRA.REPUL>
0

>  <SCORE.INTRA.REPUL.0>
0

>  <SCORE.INTRA.SOLV>
2.08269

>  <SCORE.INTRA.SOLV.lig_0>
-46.9527

>  <SCORE.INTRA.VDW>
0.0160799

>  <SCORE.INTRA.VDW.0>
-0.177978

>  <SCORE.INTRA.norm>
0.0811659

>  <SCORE.RESTR>
0

>  <SCORE.RESTR.CAVITY>
0

>  <SCORE.RESTR.norm>
0

>  <SCORE.SYSTEM>
0

>  <SCORE.SYSTEM.CONST>
0

>  <SCORE.SYSTEM.DIHEDRAL>
0

>  <SCORE.SYSTEM.SOLV>
0

>  <SCORE.SYSTEM.norm>
0

>  <SCORE.heavy>
13

>  <SCORE.norm>
-1.15215

>  <RMSD>
3.919

$$$$
ligand
 OpenBabel02271912143D
libRbt.so/2013.1/901 2013/11/27
 13 14  0  0  0  0  0  0  0  0999 V2000
   37.7886   33.8063   27.0522 N   0  0  0  0  0  0  0  0  0  0  0  0
   37.2418   32.7562   27.8123 C   0  0  0  0  0  0  0  0  0  0  0  0
   37.9420   32.3851   28.9525 N   0  0  0  0  0  0  0  0  0  0  0  0
   36.1173   32.0637   27.5098 N   0  0  0  0  0  0  0  0  0  0  0  0
   35.5287   32.5124   26.3314 C   0  0  0  0  0  0  0  0  0  0  0  0
   35.9907   33.5568   25.5211 C   0  0  0  0  0  0  0  0  0  0  0  0
   37.1607   34.2568   25.8504 C   0  0  0  0  0  0  0  0  0  0  0  0
   37.6733   35.1703   25.2207 O   0  0  0  0  0  0  0  0  0  0  0  0
   35.1171   33.7038   24.4193 C   0  0  0  0  0  0  0  0  0  0  0  0
   34.1252   32.7482   24.5763 C   0  0  0  0  0  0  0  0  0  0  0  0
   34.3732   32.0105   25.7613 N   0  0  0  0  0  0  0  0  0  0  0  0
   35.3173   34.7024   23.3342 C   0  0  0  0  0  0  0  0  0  0  0  0
   35.5699   36.0400   23.8923 N   0  0  0  0  0  0  0  0  0  0  0  0
  1  2  1  0  0  0  0
  1  7  1  0  0  0  0
  2  3  1  0  0  0  0
  2  4  2  0  0  0  0
  4  5  1  0  0  0  0
  5  6  2  0  0  0  0
  5 11  1  0  0  0  0
  6  7  1  0  0  0  0
  6  9  1  0  0  0  0
  7  8  2  0  0  0  0
  9 10  2  0  0  0  0
  9 12  1  0  0  0  0
 10 11  1  0  0  0  0
 12 13  1  0  0  0  0
M  END
>  <CHROM.1>
-49.47295728,36.18732486,33.55378104,25.86421030,-1.06847702,-0.59556740
-0.79815063

>  <Name>
ligand

>  <RI>
0

>  <Rbt.Current_Directory>
/home/itssahil/PROJECTS/Mol_Feturizer/Test_systems_manuscript/rnas/3q50

>  <Rbt.Executable>
rbdock ($Id: //depot/dev/client3/rdock/2013.1/src/exe/rbdock.cxx#4 $)

>  <Rbt.Library>
libRbt.so (2013.1, Build901 2013/11/27)

>  <Rbt.Parameter_File>
/export/apps/rDock/src/rDock_2013.1_src/data/scripts/dock_solv.prm

>  <Rbt.Receptor>
prm/blind_docking_80.prm

>  <SCORE>
-14.9795

>  <SCORE.INTER>
-16.0295

>  <SCORE.INTER.CONST>
1

>  <SCORE.INTER.POLAR>
0

>  <SCORE.INTER.ROT>
1

>  <SCORE.INTER.SOLV>
18.9084

>  <SCORE.INTER.VDW>
-21.2558

>  <SCORE.INTER.norm>
-1.23304

>  <SCORE.INTRA>
1.04999

>  <SCORE.INTRA.DIHEDRAL>
-0.00430517

>  <SCORE.INTRA.DIHEDRAL.0>
1.65305

>  <SCORE.INTRA.POLAR>
0

>  <SCORE.INTRA.POLAR.0>
0

>  <SCORE.INTRA.REPUL>
0

>  <SCORE.INTRA.REPUL.0>
0

>  <SCORE.INTRA.SOLV>
2.08013

>  <SCORE.INTRA.SOLV.lig_0>
-46.9527

>  <SCORE.INTRA.VDW>
0.012076

>  <SCORE.INTRA.VDW.0>
-0.177978

>  <SCORE.INTRA.norm>
0.0807682

>  <SCORE.RESTR>
0

>  <SCORE.RESTR.CAVITY>
0

>  <SCORE.RESTR.norm>
0

>  <SCORE.SYSTEM>
0

>  <SCORE.SYSTEM.CONST>
0

>  <SCORE.SYSTEM.DIHEDRAL>
0

>  <SCORE.SYSTEM.SOLV>
0

>  <SCORE.SYSTEM.norm>
0

>  <SCORE.heavy>
13

>  <SCORE.norm>
-1.15227

>  <RMSD>
3.926

$$$$
ligand
 OpenBabel02271912143D
libRbt.so/2013.1/901 2013/11/27
 13 14  0  0  0  0  0  0  0  0999 V2000
   37.7673   33.9754   27.2924 N   0  0  0  0  0  0  0  0  0  0  0  0
   37.1397   32.9240   27.9852 C   0  0  0  0  0  0  0  0  0  0  0  0
   37.7303   32.5262   29.1772 N   0  0  0  0  0  0  0  0  0  0  0  0
   36.0364   32.2538   27.5739 N   0  0  0  0  0  0  0  0  0  0  0  0
   35.5615   32.7278   26.3548 C   0  0  0  0  0  0  0  0  0  0  0  0
   36.1090   33.7756   25.6044 C   0  0  0  0  0  0  0  0  0  0  0  0
   37.2553   34.4522   26.0464 C   0  0  0  0  0  0  0  0  0  0  0  0
   37.8353   35.3658   25.4784 O   0  0  0  0  0  0  0  0  0  0  0  0
   35.3391   33.9515   24.4318 C   0  0  0  0  0  0  0  0  0  0  0  0
   34.3231   33.0099   24.4859 C   0  0  0  0  0  0  0  0  0  0  0  0
   34.4539   32.2523   25.6771 N   0  0  0  0  0  0  0  0  0  0  0  0
   35.6496   34.9614   23.3837 C   0  0  0  0  0  0  0  0  0  0  0  0
   35.8239   36.2964   23.9769 N   0  0  0  0  0  0  0  0  0  0  0  0
  1  2  1  0  0  0  0
  1  7  1  0  0  0  0
  2  3  1  0  0  0  0
  2  4  2  0  0  0  0
  4  5  1  0  0  0  0
  5  6  2  0  0  0  0
  5 11  1  0  0  0  0
  6  7  1  0  0  0  0
  6  9  1  0  0  0  0
  7  8  2  0  0  0  0
  9 10  2  0  0  0  0
  9 12  1  0  0  0  0
 10 11  1  0  0  0  0
 12 13  1  0  0  0  0
M  END
>  <CHROM.1>
-51.50022348,36.27047608,33.76549877,25.96302488,-1.15700422,-0.64499850
-0.83461356

>  <Name>
ligand

>  <RI>
0

>  <Rbt.Current_Directory>
/home/itssahil/PROJECTS/Mol_Feturizer/Test_systems_manuscript/rnas/3q50

>  <Rbt.Executable>
rbdock ($Id: //depot/dev/client3/rdock/2013.1/src/exe/rbdock.cxx#4 $)

>  <Rbt.Library>
libRbt.so (2013.1, Build901 2013/11/27)

>  <Rbt.Parameter_File>
/export/apps/rDock/src/rDock_2013.1_src/data/scripts/dock_solv.prm

>  <Rbt.Receptor>
prm/blind_docking_80.prm

>  <SCORE>
-14.9482

>  <SCORE.INTER>
-15.8972

>  <SCORE.INTER.CONST>
1

>  <SCORE.INTER.POLAR>
0

>  <SCORE.INTER.ROT>
1

>  <SCORE.INTER.SOLV>
19.6534

>  <SCORE.INTER.VDW>
-21.4159

>  <SCORE.INTER.norm>
-1.22286

>  <SCORE.INTRA>
0.949015

>  <SCORE.INTRA.DIHEDRAL>
0.000871808

>  <SCORE.INTRA.DIHEDRAL.0>
1.65305

>  <SCORE.INTRA.POLAR>
0

>  <SCORE.INTRA.POLAR.0>
0

>  <SCORE.INTRA.REPUL>
0

>  <SCORE.INTRA.REPUL.0>
0

>  <SCORE.INTRA.SOLV>
2.02455

>  <SCORE.INTRA.SOLV.lig_0>
-46.9527

>  <SCORE.INTRA.VDW>
-0.0636968

>  <SCORE.INTRA.VDW.0>
-0.177978

>  <SCORE.INTRA.norm>
0.0730012

>  <SCORE.RESTR>
0

>  <SCORE.RESTR.CAVITY>
0

>  <SCORE.RESTR.norm>
0

>  <SCORE.SYSTEM>
0

>  <SCORE.SYSTEM.CONST>
0

>  <SCORE.SYSTEM.DIHEDRAL>
0

>  <SCORE.SYSTEM.SOLV>
0

>  <SCORE.SYSTEM.norm>
0

>  <SCORE.heavy>
13

>  <SCORE.norm>
-1.14986

>  <RMSD>
3.928

$$$$
ligand
 OpenBabel02271912143D
libRbt.so/2013.1/901 2013/11/27
 13 14  0  0  0  0  0  0  0  0999 V2000
   37.7511   33.7765   27.0887 N   0  0  0  0  0  0  0  0  0  0  0  0
   37.2003   32.7267   27.8461 C   0  0  0  0  0  0  0  0  0  0  0  0
   37.8933   32.3572   28.9912 N   0  0  0  0  0  0  0  0  0  0  0  0
   36.0783   32.0329   27.5369 N   0  0  0  0  0  0  0  0  0  0  0  0
   35.4971   32.4800   26.3542 C   0  0  0  0  0  0  0  0  0  0  0  0
   35.9635   33.5240   25.5460 C   0  0  0  0  0  0  0  0  0  0  0  0
   37.1307   34.2253   25.8823 C   0  0  0  0  0  0  0  0  0  0  0  0
   37.6467   35.1387   25.2551 O   0  0  0  0  0  0  0  0  0  0  0  0
   35.0970   33.6692   24.4384 C   0  0  0  0  0  0  0  0  0  0  0  0
   34.1049   32.7130   24.5897 C   0  0  0  0  0  0  0  0  0  0  0  0
   34.3457   31.9765   25.7771 N   0  0  0  0  0  0  0  0  0  0  0  0
   35.3035   34.6670   23.3537 C   0  0  0  0  0  0  0  0  0  0  0  0
   35.5571   36.0042   23.9122 N   0  0  0  0  0  0  0  0  0  0  0  0
  1  2  1  0  0  0  0
  1  7  1  0  0  0  0
  2  3  1  0  0  0  0
  2  4  2  0  0  0  0
  4  5  1  0  0  0  0
  5  6  2  0  0  0  0
  5 11  1  0  0  0  0
  6  7  1  0  0  0  0
  6  9  1  0  0  0  0
  7  8  2  0  0  0  0
  9 10  2  0  0  0  0
  9 12  1  0  0  0  0
 10 11  1  0  0  0  0
 12 13  1  0  0  0  0
M  END
>  <CHROM.1>
-49.22473222,36.15834734,33.52138751,25.89040270,-1.07392615,-0.60077878
-0.80226740

>  <Name>
ligand

>  <RI>
0

>  <Rbt.Current_Directory>
/home/itssahil/PROJECTS/Mol_Feturizer/Test_systems_manuscript/rnas/3q50

>  <Rbt.Executable>
rbdock ($Id: //depot/dev/client3/rdock/2013.1/src/exe/rbdock.cxx#4 $)

>  <Rbt.Library>
libRbt.so (2013.1, Build901 2013/11/27)

>  <Rbt.Parameter_File>
/export/apps/rDock/src/rDock_2013.1_src/data/scripts/dock_solv.prm

>  <Rbt.Receptor>
prm/blind_docking_100.prm

>  <SCORE>
-14.9752

>  <SCORE.INTER>
-16.0389

>  <SCORE.INTER.CONST>
1

>  <SCORE.INTER.POLAR>
0

>  <SCORE.INTER.ROT>
1

>  <SCORE.INTER.SOLV>
19.2827

>  <SCORE.INTER.VDW>
-21.3868

>  <SCORE.INTER.norm>
-1.23376

>  <SCORE.INTRA>
1.06366

>  <SCORE.INTRA.DIHEDRAL>
-0.00491601

>  <SCORE.INTRA.DIHEDRAL.0>
1.65305

>  <SCORE.INTRA.POLAR>
0

>  <SCORE.INTRA.POLAR.0>
0

>  <SCORE.INTRA.REPUL>
0

>  <SCORE.INTRA.REPUL.0>
0

>  <SCORE.INTRA.SOLV>
2.08686

>  <SCORE.INTRA.SOLV.lig_0>
-46.9527

>  <SCORE.INTRA.VDW>
0.0226934

>  <SCORE.INTRA.VDW.0>
-0.177978

>  <SCORE.INTRA.norm>
0.0818204

>  <SCORE.RESTR>
0

>  <SCORE.RESTR.CAVITY>
0

>  <SCORE.RESTR.norm>
0

>  <SCORE.SYSTEM>
0

>  <SCORE.SYSTEM.CONST>
0

>  <SCORE.SYSTEM.DIHEDRAL>
0

>  <SCORE.SYSTEM.SOLV>
0

>  <SCORE.SYSTEM.norm>
0

>  <SCORE.heavy>
13

>  <SCORE.norm>
-1.15194

>  <RMSD>
3.929

$$$$
ligand
 OpenBabel02271912143D
libRbt.so/2013.1/901 2013/11/27
 13 14  0  0  0  0  0  0  0  0999 V2000
   37.7409   33.8794   27.1390 N   0  0  0  0  0  0  0  0  0  0  0  0
   37.1394   32.8689   27.9112 C   0  0  0  0  0  0  0  0  0  0  0  0
   37.7914   32.5129   29.0843 N   0  0  0  0  0  0  0  0  0  0  0  0
   36.0052   32.1998   27.5925 N   0  0  0  0  0  0  0  0  0  0  0  0
   35.4682   32.6291   26.3825 C   0  0  0  0  0  0  0  0  0  0  0  0
   35.9865   33.6348   25.5575 C   0  0  0  0  0  0  0  0  0  0  0  0
   37.1654   34.3108   25.9044 C   0  0  0  0  0  0  0  0  0  0  0  0
   37.7247   35.1898   25.2652 O   0  0  0  0  0  0  0  0  0  0  0  0
   35.1534   33.7730   24.4237 C   0  0  0  0  0  0  0  0  0  0  0  0
   34.1292   32.8513   24.5760 C   0  0  0  0  0  0  0  0  0  0  0  0
   34.3172   32.1432   25.7898 N   0  0  0  0  0  0  0  0  0  0  0  0
   35.4176   34.7320   23.3168 C   0  0  0  0  0  0  0  0  0  0  0  0
   35.6112   36.0942   23.8379 N   0  0  0  0  0  0  0  0  0  0  0  0
  1  2  1  0  0  0  0
  1  7  1  0  0  0  0
  2  3  1  0  0  0  0
  2  4  2  0  0  0  0
  4  5  1  0  0  0  0
  5  6  2  0  0  0  0
  5 11  1  0  0  0  0
  6  7  1  0  0  0  0
  6  9  1  0  0  0  0
  7  8  2  0  0  0  0
  9 10  2  0  0  0  0
  9 12  1  0  0  0  0
 10 11  1  0  0  0  0
 12 13  1  0  0  0  0
M  END
>  <CHROM.1>
-52.89142811,36.16531263,33.63785797,25.90639285,-1.11445124,-0.59578883
-0.85264360

>  <Name>
ligand

>  <RI>
0

>  <Rbt.Current_Directory>
/home/itssahil/PROJECTS/Mol_Feturizer/Test_systems_manuscript/rnas/3q50

>  <Rbt.Executable>
rbdock ($Id: //depot/dev/client3/rdock/2013.1/src/exe/rbdock.cxx#4 $)

>  <Rbt.Library>
libRbt.so (2013.1, Build901 2013/11/27)

>  <Rbt.Parameter_File>
/export/apps/rDock/src/rDock_2013.1_src/data/scripts/dock_solv.prm

>  <Rbt.Receptor>
prm/blind_docking_60.prm

>  <SCORE>
-14.9124

>  <SCORE.INTER>
-15.802

>  <SCORE.INTER.CONST>
1

>  <SCORE.INTER.POLAR>
0

>  <SCORE.INTER.ROT>
1

>  <SCORE.INTER.SOLV>
19.9036

>  <SCORE.INTER.VDW>
-21.4358

>  <SCORE.INTER.norm>
-1.21554

>  <SCORE.INTRA>
0.88954

>  <SCORE.INTRA.DIHEDRAL>
0.00459802

>  <SCORE.INTRA.DIHEDRAL.0>
1.65305

>  <SCORE.INTRA.POLAR>
0

>  <SCORE.INTRA.POLAR.0>
0

>  <SCORE.INTRA.REPUL>
0

>  <SCORE.INTRA.REPUL.0>
0

>  <SCORE.INTRA.SOLV>
1.98583

>  <SCORE.INTRA.SOLV.lig_0>
-46.9527

>  <SCORE.INTRA.VDW>
-0.105674

>  <SCORE.INTRA.VDW.0>
-0.177978

>  <SCORE.INTRA.norm>
0.0684261

>  <SCORE.RESTR>
0

>  <SCORE.RESTR.CAVITY>
0

>  <SCORE.RESTR.norm>
0

>  <SCORE.SYSTEM>
0

>  <SCORE.SYSTEM.CONST>
0

>  <SCORE.SYSTEM.DIHEDRAL>
0

>  <SCORE.SYSTEM.SOLV>
0

>  <SCORE.SYSTEM.norm>
0

>  <SCORE.heavy>
13

>  <SCORE.norm>
-1.14711

>  <RMSD>
3.929

$$$$
ligand
 OpenBabel02271912143D
libRbt.so/2013.1/901 2013/11/27
 13 14  0  0  0  0  0  0  0  0999 V2000
   37.7766   33.8371   27.0800 N   0  0  0  0  0  0  0  0  0  0  0  0
   37.2375   32.7846   27.8422 C   0  0  0  0  0  0  0  0  0  0  0  0
   37.9351   32.4275   28.9884 N   0  0  0  0  0  0  0  0  0  0  0  0
   36.1229   32.0775   27.5366 N   0  0  0  0  0  0  0  0  0  0  0  0
   35.5363   32.5134   26.3524 C   0  0  0  0  0  0  0  0  0  0  0  0
   35.9909   33.5589   25.5395 C   0  0  0  0  0  0  0  0  0  0  0  0
   37.1507   34.2741   25.8721 C   0  0  0  0  0  0  0  0  0  0  0  0
   37.6564   35.1903   25.2407 O   0  0  0  0  0  0  0  0  0  0  0  0
   35.1223   33.6901   24.4318 C   0  0  0  0  0  0  0  0  0  0  0  0
   34.1406   32.7238   24.5878 C   0  0  0  0  0  0  0  0  0  0  0  0
   34.3900   31.9951   25.7781 N   0  0  0  0  0  0  0  0  0  0  0  0
   35.3174   34.6854   23.3427 C   0  0  0  0  0  0  0  0  0  0  0  0
   35.5503   36.0288   23.8954 N   0  0  0  0  0  0  0  0  0  0  0  0
  1  2  1  0  0  0  0
  1  7  1  0  0  0  0
  2  3  1  0  0  0  0
  2  4  2  0  0  0  0
  4  5  1  0  0  0  0
  5  6  2  0  0  0  0
  5 11  1  0  0  0  0
  6  7  1  0  0  0  0
  6  9  1  0  0  0  0
  7  8  2  0  0  0  0
  9 10  2  0  0  0  0
  9 12  1  0  0  0  0
 10 11  1  0  0  0  0
 12 13  1  0  0  0  0
M  END
>  <CHROM.1>
-49.50696613,36.18542705,33.55991728,25.88377246,-1.06377078,-0.60807087
-0.80060698

>  <Name>
ligand

>  <RI>
0

>  <Rbt.Current_Directory>
/home/itssahil/PROJECTS/Mol_Feturizer/Test_systems_manuscript/rnas/3q50

>  <Rbt.Executable>
rbdock ($Id: //depot/dev/client3/rdock/2013.1/src/exe/rbdock.cxx#4 $)

>  <Rbt.Library>
libRbt.so (2013.1, Build901 2013/11/27)

>  <Rbt.Parameter_File>
/export/apps/rDock/src/rDock_2013.1_src/data/scripts/dock_solv.prm

>  <Rbt.Receptor>
prm/blind_docking_80.prm

>  <SCORE>
-14.9424

>  <SCORE.INTER>
-15.9906

>  <SCORE.INTER.CONST>
1

>  <SCORE.INTER.POLAR>
0

>  <SCORE.INTER.ROT>
1

>  <SCORE.INTER.SOLV>
19.0866

>  <SCORE.INTER.VDW>
-21.2893

>  <SCORE.INTER.norm>
-1.23004

>  <SCORE.INTRA>
1.04814

>  <SCORE.INTRA.DIHEDRAL>
-0.00422107

>  <SCORE.INTRA.DIHEDRAL.0>
1.65305

>  <SCORE.INTRA.POLAR>
0

>  <SCORE.INTRA.POLAR.0>
0

>  <SCORE.INTRA.REPUL>
0

>  <SCORE.INTRA.REPUL.0>
0

>  <SCORE.INTRA.SOLV>
2.0792

>  <SCORE.INTRA.SOLV.lig_0>
-46.9527

>  <SCORE.INTRA.VDW>
0.0106455

>  <SCORE.INTRA.VDW.0>
-0.177978

>  <SCORE.INTRA.norm>
0.0806259

>  <SCORE.RESTR>
0

>  <SCORE.RESTR.CAVITY>
0

>  <SCORE.RESTR.norm>
0

>  <SCORE.SYSTEM>
0

>  <SCORE.SYSTEM.CONST>
0

>  <SCORE.SYSTEM.DIHEDRAL>
0

>  <SCORE.SYSTEM.SOLV>
0

>  <SCORE.SYSTEM.norm>
0

>  <SCORE.heavy>
13

>  <SCORE.norm>
-1.14942

>  <RMSD>
3.934

$$$$
ligand
 OpenBabel02271912143D
libRbt.so/2013.1/901 2013/11/27
 13 14  0  0  0  0  0  0  0  0999 V2000
   37.6390   33.9567   26.8811 N   0  0  0  0  0  0  0  0  0  0  0  0
   37.4101   32.7335   27.5375 C   0  0  0  0  0  0  0  0  0  0  0  0
   38.2673   32.4206   28.5841 N   0  0  0  0  0  0  0  0  0  0  0  0
   36.4521   31.8310   27.2161 N   0  0  0  0  0  0  0  0  0  0  0  0
   35.6823   32.2492   26.1348 C   0  0  0  0  0  0  0  0  0  0  0  0
   35.8261   33.4521   25.4326 C   0  0  0  0  0  0  0  0  0  0  0  0
   36.8287   34.3697   25.7791 C   0  0  0  0  0  0  0  0  0  0  0  0
   37.0663   35.4392   25.2372 O   0  0  0  0  0  0  0  0  0  0  0  0
   34.8549   33.5036   24.4066 C   0  0  0  0  0  0  0  0  0  0  0  0
   34.1231   32.3300   24.5013 C   0  0  0  0  0  0  0  0  0  0  0  0
   34.6289   31.5515   25.5729 N   0  0  0  0  0  0  0  0  0  0  0  0
   34.7327   34.6292   23.4409 C   0  0  0  0  0  0  0  0  0  0  0  0
   36.0311   34.9287   22.8172 N   0  0  0  0  0  0  0  0  0  0  0  0
  1  2  1  0  0  0  0
  1  7  1  0  0  0  0
  2  3  1  0  0  0  0
  2  4  2  0  0  0  0
  4  5  1  0  0  0  0
  5  6  2  0  0  0  0
  5 11  1  0  0  0  0
  6  7  1  0  0  0  0
  6  9  1  0  0  0  0
  7  8  2  0  0  0  0
  9 10  2  0  0  0  0
  9 12  1  0  0  0  0
 10 11  1  0  0  0  0
 12 13  1  0  0  0  0
M  END
>  <CHROM.1>
51.00417392,36.15251948,33.37867872,25.65364466,-0.92327857,-0.68138023,-0.74109456

>  <Name>
ligand

>  <RI>
0

>  <Rbt.Current_Directory>
/home/itssahil/PROJECTS/Mol_Feturizer/Test_systems_manuscript/rnas/3q50

>  <Rbt.Executable>
rbdock ($Id: //depot/dev/client3/rdock/2013.1/src/exe/rbdock.cxx#4 $)

>  <Rbt.Library>
libRbt.so (2013.1, Build901 2013/11/27)

>  <Rbt.Parameter_File>
/export/apps/rDock/src/rDock_2013.1_src/data/scripts/dock_solv.prm

>  <Rbt.Receptor>
prm/blind_docking_100.prm

>  <SCORE>
-15.2727

>  <SCORE.INTER>
-16.2439

>  <SCORE.INTER.CONST>
1

>  <SCORE.INTER.POLAR>
0

>  <SCORE.INTER.ROT>
1

>  <SCORE.INTER.SOLV>
18.6964

>  <SCORE.INTER.VDW>
-21.328

>  <SCORE.INTER.norm>
-1.24953

>  <SCORE.INTRA>
0.971177

>  <SCORE.INTRA.DIHEDRAL>
0.0509287

>  <SCORE.INTRA.DIHEDRAL.0>
1.65305

>  <SCORE.INTRA.POLAR>
0

>  <SCORE.INTRA.POLAR.0>
0

>  <SCORE.INTRA.REPUL>
0

>  <SCORE.INTRA.REPUL.0>
0

>  <SCORE.INTRA.SOLV>
2.03144

>  <SCORE.INTRA.SOLV.lig_0>
-46.9527

>  <SCORE.INTRA.VDW>
-0.0700045

>  <SCORE.INTRA.VDW.0>
-0.177978

>  <SCORE.INTRA.norm>
0.074706

>  <SCORE.RESTR>
0

>  <SCORE.RESTR.CAVITY>
0

>  <SCORE.RESTR.norm>
0

>  <SCORE.SYSTEM>
0

>  <SCORE.SYSTEM.CONST>
0

>  <SCORE.SYSTEM.DIHEDRAL>
0

>  <SCORE.SYSTEM.SOLV>
0

>  <SCORE.SYSTEM.norm>
0

>  <SCORE.heavy>
13

>  <SCORE.norm>
-1.17482

>  <RMSD>
3.950

$$$$
ligand
 OpenBabel02271912143D
libRbt.so/2013.1/901 2013/11/27
 13 14  0  0  0  0  0  0  0  0999 V2000
   37.6675   33.9889   26.8673 N   0  0  0  0  0  0  0  0  0  0  0  0
   37.4509   32.7640   27.5245 C   0  0  0  0  0  0  0  0  0  0  0  0
   38.3150   32.4575   28.5673 N   0  0  0  0  0  0  0  0  0  0  0  0
   36.4985   31.8541   27.2070 N   0  0  0  0  0  0  0  0  0  0  0  0
   35.7208   32.2665   26.1292 C   0  0  0  0  0  0  0  0  0  0  0  0
   35.8523   33.4706   25.4266 C   0  0  0  0  0  0  0  0  0  0  0  0
   36.8493   34.3958   25.7689 C   0  0  0  0  0  0  0  0  0  0  0  0
   37.0763   35.4672   25.2261 O   0  0  0  0  0  0  0  0  0  0  0  0
   34.8763   33.5147   24.4047 C   0  0  0  0  0  0  0  0  0  0  0  0
   34.1541   32.3355   24.5024 C   0  0  0  0  0  0  0  0  0  0  0  0
   34.6704   31.5608   25.5717 N   0  0  0  0  0  0  0  0  0  0  0  0
   34.7413   34.6395   23.4398 C   0  0  0  0  0  0  0  0  0  0  0  0
   36.0379   34.9599   22.8227 N   0  0  0  0  0  0  0  0  0  0  0  0
  1  2  1  0  0  0  0
  1  7  1  0  0  0  0
  2  3  1  0  0  0  0
  2  4  2  0  0  0  0
  4  5  1  0  0  0  0
  5  6  2  0  0  0  0
  5 11  1  0  0  0  0
  6  7  1  0  0  0  0
  6  9  1  0  0  0  0
  7  8  2  0  0  0  0
  9 10  2  0  0  0  0
  9 12  1  0  0  0  0
 10 11  1  0  0  0  0
 12 13  1  0  0  0  0
M  END
>  <CHROM.1>
50.30993027,36.18049570,33.40052196,25.64716242,-0.91232300,-0.68310493,-0.73290061

>  <Name>
ligand

>  <RI>
0

>  <Rbt.Current_Directory>
/home/itssahil/PROJECTS/Mol_Feturizer/Test_systems_manuscript/rnas/3q50

>  <Rbt.Executable>
rbdock ($Id: //depot/dev/client3/rdock/2013.1/src/exe/rbdock.cxx#4 $)

>  <Rbt.Library>
libRbt.so (2013.1, Build901 2013/11/27)

>  <Rbt.Parameter_File>
/export/apps/rDock/src/rDock_2013.1_src/data/scripts/dock_solv.prm

>  <Rbt.Receptor>
prm/blind_docking_80.prm

>  <SCORE>
-15.295

>  <SCORE.INTER>
-16.3

>  <SCORE.INTER.CONST>
1

>  <SCORE.INTER.POLAR>
0

>  <SCORE.INTER.ROT>
1

>  <SCORE.INTER.SOLV>
18.4143

>  <SCORE.INTER.VDW>
-21.2715

>  <SCORE.INTER.norm>
-1.25385

>  <SCORE.INTRA>
1.00506

>  <SCORE.INTRA.DIHEDRAL>
0.0527768

>  <SCORE.INTRA.DIHEDRAL.0>
1.65305

>  <SCORE.INTRA.POLAR>
0

>  <SCORE.INTRA.POLAR.0>
0

>  <SCORE.INTRA.REPUL>
0

>  <SCORE.INTRA.REPUL.0>
0

>  <SCORE.INTRA.SOLV>
2.05049

>  <SCORE.INTRA.SOLV.lig_0>
-46.9527

>  <SCORE.INTRA.VDW>
-0.0465709

>  <SCORE.INTRA.VDW.0>
-0.177978

>  <SCORE.INTRA.norm>
0.0773125

>  <SCORE.RESTR>
0

>  <SCORE.RESTR.CAVITY>
0

>  <SCORE.RESTR.norm>
0

>  <SCORE.SYSTEM>
0

>  <SCORE.SYSTEM.CONST>
0

>  <SCORE.SYSTEM.DIHEDRAL>
0

>  <SCORE.SYSTEM.SOLV>
0

>  <SCORE.SYSTEM.norm>
0

>  <SCORE.heavy>
13

>  <SCORE.norm>
-1.17653

>  <RMSD>
3.953

$$$$
ligand
 OpenBabel02271912143D
libRbt.so/2013.1/901 2013/11/27
 13 14  0  0  0  0  0  0  0  0999 V2000
   37.6899   33.9047   26.8818 N   0  0  0  0  0  0  0  0  0  0  0  0
   37.4521   32.6772   27.5269 C   0  0  0  0  0  0  0  0  0  0  0  0
   38.3146   32.3427   28.5624 N   0  0  0  0  0  0  0  0  0  0  0  0
   36.4806   31.7896   27.2041 N   0  0  0  0  0  0  0  0  0  0  0  0
   35.7066   32.2288   26.1343 C   0  0  0  0  0  0  0  0  0  0  0  0
   35.8586   33.4375   25.4439 C   0  0  0  0  0  0  0  0  0  0  0  0
   36.8750   34.3394   25.7915 C   0  0  0  0  0  0  0  0  0  0  0  0
   37.1207   35.4118   25.2592 O   0  0  0  0  0  0  0  0  0  0  0  0
   34.8792   33.5117   24.4271 C   0  0  0  0  0  0  0  0  0  0  0  0
   34.1343   32.3460   24.5155 C   0  0  0  0  0  0  0  0  0  0  0  0
   34.6400   31.5498   25.5741 N   0  0  0  0  0  0  0  0  0  0  0  0
   34.7621   34.6493   23.4748 C   0  0  0  0  0  0  0  0  0  0  0  0
   36.0594   34.9429   22.8461 N   0  0  0  0  0  0  0  0  0  0  0  0
  1  2  1  0  0  0  0
  1  7  1  0  0  0  0
  2  3  1  0  0  0  0
  2  4  2  0  0  0  0
  4  5  1  0  0  0  0
  5  6  2  0  0  0  0
  5 11  1  0  0  0  0
  6  7  1  0  0  0  0
  6  9  1  0  0  0  0
  7  8  2  0  0  0  0
  9 10  2  0  0  0  0
  9 12  1  0  0  0  0
 10 11  1  0  0  0  0
 12 13  1  0  0  0  0
M  END
>  <CHROM.1>
50.82752199,36.18608951,33.35805358,25.66151706,-0.92706878,-0.66685101,-0.73225169

>  <Name>
ligand

>  <RI>
0

>  <Rbt.Current_Directory>
/home/itssahil/PROJECTS/Mol_Feturizer/Test_systems_manuscript/rnas/3q50

>  <Rbt.Executable>
rbdock ($Id: //depot/dev/client3/rdock/2013.1/src/exe/rbdock.cxx#4 $)

>  <Rbt.Library>
libRbt.so (2013.1, Build901 2013/11/27)

>  <Rbt.Parameter_File>
/export/apps/rDock/src/rDock_2013.1_src/data/scripts/dock_solv.prm

>  <Rbt.Receptor>
prm/blind_docking_80.prm

>  <SCORE>
-15.2768

>  <SCORE.INTER>
-16.2564

>  <SCORE.INTER.CONST>
1

>  <SCORE.INTER.POLAR>
0

>  <SCORE.INTER.ROT>
1

>  <SCORE.INTER.SOLV>
18.5426

>  <SCORE.INTER.VDW>
-21.2852

>  <SCORE.INTER.norm>
-1.2505

>  <SCORE.INTRA>
0.979616

>  <SCORE.INTRA.DIHEDRAL>
0.0514021

>  <SCORE.INTRA.DIHEDRAL.0>
1.65305

>  <SCORE.INTRA.POLAR>
0

>  <SCORE.INTRA.POLAR.0>
0

>  <SCORE.INTRA.REPUL>
0

>  <SCORE.INTRA.REPUL.0>
0

>  <SCORE.INTRA.SOLV>
2.03629

>  <SCORE.INTRA.SOLV.lig_0>
-46.9527

>  <SCORE.INTRA.VDW>
-0.0642322

>  <SCORE.INTRA.VDW.0>
-0.177978

>  <SCORE.INTRA.norm>
0.0753551

>  <SCORE.RESTR>
0

>  <SCORE.RESTR.CAVITY>
0

>  <SCORE.RESTR.norm>
0

>  <SCORE.SYSTEM>
0

>  <SCORE.SYSTEM.CONST>
0

>  <SCORE.SYSTEM.DIHEDRAL>
0

>  <SCORE.SYSTEM.SOLV>
0

>  <SCORE.SYSTEM.norm>
0

>  <SCORE.heavy>
13

>  <SCORE.norm>
-1.17514

>  <RMSD>
3.954

$$$$
ligand
 OpenBabel02271912143D
libRbt.so/2013.1/901 2013/11/27
 13 14  0  0  0  0  0  0  0  0999 V2000
   37.8037   34.0568   26.6773 N   0  0  0  0  0  0  0  0  0  0  0  0
   37.6472   32.8520   27.3867 C   0  0  0  0  0  0  0  0  0  0  0  0
   38.5811   32.5909   28.3806 N   0  0  0  0  0  0  0  0  0  0  0  0
   36.6892   31.9207   27.1617 N   0  0  0  0  0  0  0  0  0  0  0  0
   35.8378   32.2876   26.1238 C   0  0  0  0  0  0  0  0  0  0  0  0
   35.9067   33.4690   25.3753 C   0  0  0  0  0  0  0  0  0  0  0  0
   36.9106   34.4170   25.6216 C   0  0  0  0  0  0  0  0  0  0  0  0
   37.0870   35.4722   25.0307 O   0  0  0  0  0  0  0  0  0  0  0  0
   34.8662   33.4673   24.4182 C   0  0  0  0  0  0  0  0  0  0  0  0
   34.1684   32.2835   24.6010 C   0  0  0  0  0  0  0  0  0  0  0  0
   34.7636   31.5512   25.6591 N   0  0  0  0  0  0  0  0  0  0  0  0
   34.6534   34.5575   23.4279 C   0  0  0  0  0  0  0  0  0  0  0  0
   35.9083   34.8897   22.7355 N   0  0  0  0  0  0  0  0  0  0  0  0
  1  2  1  0  0  0  0
  1  7  1  0  0  0  0
  2  3  1  0  0  0  0
  2  4  2  0  0  0  0
  4  5  1  0  0  0  0
  5  6  2  0  0  0  0
  5 11  1  0  0  0  0
  6  7  1  0  0  0  0
  6  9  1  0  0  0  0
  7  8  2  0  0  0  0
  9 10  2  0  0  0  0
  9 12  1  0  0  0  0
 10 11  1  0  0  0  0
 12 13  1  0  0  0  0
M  END
>  <CHROM.1>
49.25265329,36.24985359,33.41165755,25.57766972,-0.84549425,-0.64286364,-0.72311659

>  <Name>
ligand

>  <RI>
0

>  <Rbt.Current_Directory>
/home/itssahil/PROJECTS/Mol_Feturizer/Test_systems_manuscript/rnas/3q50

>  <Rbt.Executable>
rbdock ($Id: //depot/dev/client3/rdock/2013.1/src/exe/rbdock.cxx#4 $)

>  <Rbt.Library>
libRbt.so (2013.1, Build901 2013/11/27)

>  <Rbt.Parameter_File>
/export/apps/rDock/src/rDock_2013.1_src/data/scripts/dock_solv.prm

>  <Rbt.Receptor>
prm/blind_docking_100.prm

>  <SCORE>
-15.2524

>  <SCORE.INTER>
-16.313

>  <SCORE.INTER.CONST>
1

>  <SCORE.INTER.POLAR>
0

>  <SCORE.INTER.ROT>
1

>  <SCORE.INTER.SOLV>
16.8873

>  <SCORE.INTER.VDW>
-20.7711

>  <SCORE.INTER.norm>
-1.25484

>  <SCORE.INTRA>
1.06058

>  <SCORE.INTRA.DIHEDRAL>
0.0555248

>  <SCORE.INTRA.DIHEDRAL.0>
1.65305

>  <SCORE.INTRA.POLAR>
0

>  <SCORE.INTRA.POLAR.0>
0

>  <SCORE.INTRA.REPUL>
0

>  <SCORE.INTRA.REPUL.0>
0

>  <SCORE.INTRA.SOLV>
2.07927

>  <SCORE.INTRA.SOLV.lig_0>
-46.9527

>  <SCORE.INTRA.VDW>
-0.0068219

>  <SCORE.INTRA.VDW.0>
-0.177978

>  <SCORE.INTRA.norm>
0.0815829

>  <SCORE.RESTR>
0

>  <SCORE.RESTR.CAVITY>
0

>  <SCORE.RESTR.norm>
0

>  <SCORE.SYSTEM>
0

>  <SCORE.SYSTEM.CONST>
0

>  <SCORE.SYSTEM.DIHEDRAL>
0

>  <SCORE.SYSTEM.SOLV>
0

>  <SCORE.SYSTEM.norm>
0

>  <SCORE.heavy>
13

>  <SCORE.norm>
-1.17326

>  <RMSD>
3.978

$$$$
ligand
 OpenBabel02271912143D
libRbt.so/2013.1/901 2013/11/27
 13 14  0  0  0  0  0  0  0  0999 V2000
   36.9358   35.1363   24.4394 N   0  0  0  0  0  0  0  0  0  0  0  0
   37.4024   34.9244   25.7496 C   0  0  0  0  0  0  0  0  0  0  0  0
   38.5044   35.6712   26.1447 N   0  0  0  0  0  0  0  0  0  0  0  0
   36.8902   34.0386   26.6377 N   0  0  0  0  0  0  0  0  0  0  0  0
   35.8119   33.3345   26.1102 C   0  0  0  0  0  0  0  0  0  0  0  0
   35.2702   33.4890   24.8283 C   0  0  0  0  0  0  0  0  0  0  0  0
   35.8201   34.4083   23.9229 C   0  0  0  0  0  0  0  0  0  0  0  0
   35.4515   34.6233   22.7776 O   0  0  0  0  0  0  0  0  0  0  0  0
   34.1864   32.5938   24.6770 C   0  0  0  0  0  0  0  0  0  0  0  0
   34.0757   31.9074   25.8763 C   0  0  0  0  0  0  0  0  0  0  0  0
   35.0775   32.3654   26.7688 N   0  0  0  0  0  0  0  0  0  0  0  0
   33.3912   32.4638   23.4259 C   0  0  0  0  0  0  0  0  0  0  0  0
   32.9044   33.7768   22.9748 N   0  0  0  0  0  0  0  0  0  0  0  0
  1  2  1  0  0  0  0
  1  7  1  0  0  0  0
  2  3  1  0  0  0  0
  2  4  2  0  0  0  0
  4  5  1  0  0  0  0
  5  6  2  0  0  0  0
  5 11  1  0  0  0  0
  6  7  1  0  0  0  0
  6  9  1  0  0  0  0
  7  8  2  0  0  0  0
  9 10  2  0  0  0  0
  9 12  1  0  0  0  0
 10 11  1  0  0  0  0
 12 13  1  0  0  0  0
M  END
>  <CHROM.1>
-52.18470429,35.52226465,33.77992925,24.90630632,-0.14842390,-0.61741507
-1.03433742

>  <Name>
ligand

>  <RI>
0

>  <Rbt.Current_Directory>
/home/itssahil/PROJECTS/Mol_Feturizer/Test_systems_manuscript/rnas/3q50

>  <Rbt.Executable>
rbdock ($Id: //depot/dev/client3/rdock/2013.1/src/exe/rbdock.cxx#4 $)

>  <Rbt.Library>
libRbt.so (2013.1, Build901 2013/11/27)

>  <Rbt.Parameter_File>
/export/apps/rDock/src/rDock_2013.1_src/data/scripts/dock_solv.prm

>  <Rbt.Receptor>
prm/blind_docking_100.prm

>  <SCORE>
-14.6215

>  <SCORE.INTER>
-15.5403

>  <SCORE.INTER.CONST>
1

>  <SCORE.INTER.POLAR>
0

>  <SCORE.INTER.ROT>
1

>  <SCORE.INTER.SOLV>
19.8894

>  <SCORE.INTER.VDW>
-21.2567

>  <SCORE.INTER.norm>
-1.19541

>  <SCORE.INTRA>
0.918843

>  <SCORE.INTRA.DIHEDRAL>
0.00268905

>  <SCORE.INTRA.DIHEDRAL.0>
1.65305

>  <SCORE.INTRA.POLAR>
0

>  <SCORE.INTRA.POLAR.0>
0

>  <SCORE.INTRA.REPUL>
0

>  <SCORE.INTRA.REPUL.0>
0

>  <SCORE.INTRA.SOLV>
2.00556

>  <SCORE.INTRA.SOLV.lig_0>
-46.9527

>  <SCORE.INTRA.VDW>
-0.08528

>  <SCORE.INTRA.VDW.0>
-0.177978

>  <SCORE.INTRA.norm>
0.0706802

>  <SCORE.RESTR>
0

>  <SCORE.RESTR.CAVITY>
0

>  <SCORE.RESTR.norm>
0

>  <SCORE.SYSTEM>
0

>  <SCORE.SYSTEM.CONST>
0

>  <SCORE.SYSTEM.DIHEDRAL>
0

>  <SCORE.SYSTEM.SOLV>
0

>  <SCORE.SYSTEM.norm>
0

>  <SCORE.heavy>
13

>  <SCORE.norm>
-1.12473

>  <RMSD>
4.056

$$$$
ligand
 OpenBabel02271912143D
libRbt.so/2013.1/901 2013/11/27
 13 14  0  0  0  0  0  0  0  0999 V2000
   37.4027   35.0351   24.9331 N   0  0  0  0  0  0  0  0  0  0  0  0
   37.7356   34.4324   26.1600 C   0  0  0  0  0  0  0  0  0  0  0  0
   38.9099   34.8615   26.7641 N   0  0  0  0  0  0  0  0  0  0  0  0
   37.0289   33.4560   26.7787 N   0  0  0  0  0  0  0  0  0  0  0  0
   35.8940   33.0962   26.0581 C   0  0  0  0  0  0  0  0  0  0  0  0
   35.4761   33.6498   24.8418 C   0  0  0  0  0  0  0  0  0  0  0  0
   36.2264   34.6561   24.2159 C   0  0  0  0  0  0  0  0  0  0  0  0
   35.9787   35.2046   23.1521 O   0  0  0  0  0  0  0  0  0  0  0  0
   34.2790   33.0162   24.4363 C   0  0  0  0  0  0  0  0  0  0  0  0
   33.9769   32.0856   25.4184 C   0  0  0  0  0  0  0  0  0  0  0  0
   34.9718   32.1342   26.4273 N   0  0  0  0  0  0  0  0  0  0  0  0
   33.5646   33.3337   23.1700 C   0  0  0  0  0  0  0  0  0  0  0  0
   32.8475   32.1537   22.6622 N   0  0  0  0  0  0  0  0  0  0  0  0
  1  2  1  0  0  0  0
  1  7  1  0  0  0  0
  2  3  1  0  0  0  0
  2  4  2  0  0  0  0
  4  5  1  0  0  0  0
  5  6  2  0  0  0  0
  5 11  1  0  0  0  0
  6  7  1  0  0  0  0
  6  9  1  0  0  0  0
  7  8  2  0  0  0  0
  9 10  2  0  0  0  0
  9 12  1  0  0  0  0
 10 11  1  0  0  0  0
 12 13  1  0  0  0  0
M  END
>  <CHROM.1>
150.02441489,35.72569197,33.65186149,24.96675195,-0.21314971,-0.60341928
-0.98058327

>  <Name>
ligand

>  <RI>
0

>  <Rbt.Current_Directory>
/home/itssahil/PROJECTS/Mol_Feturizer/Test_systems_manuscript/rnas/3q50

>  <Rbt.Executable>
rbdock ($Id: //depot/dev/client3/rdock/2013.1/src/exe/rbdock.cxx#4 $)

>  <Rbt.Library>
libRbt.so (2013.1, Build901 2013/11/27)

>  <Rbt.Parameter_File>
/export/apps/rDock/src/rDock_2013.1_src/data/scripts/dock_solv.prm

>  <Rbt.Receptor>
prm/pocket_docking_4.prm

>  <SCORE>
-17.3069

>  <SCORE.INTER>
-17.3087

>  <SCORE.INTER.CONST>
1

>  <SCORE.INTER.POLAR>
0

>  <SCORE.INTER.ROT>
1

>  <SCORE.INTER.SOLV>
18.2703

>  <SCORE.INTER.VDW>
-21.8959

>  <SCORE.INTER.norm>
-1.33144

>  <SCORE.INTRA>
0.00184675

>  <SCORE.INTRA.DIHEDRAL>
0.0835315

>  <SCORE.INTRA.DIHEDRAL.0>
1.65305

>  <SCORE.INTRA.POLAR>
0

>  <SCORE.INTRA.POLAR.0>
0

>  <SCORE.INTRA.REPUL>
0

>  <SCORE.INTRA.REPUL.0>
0

>  <SCORE.INTRA.SOLV>
0.0014468

>  <SCORE.INTRA.SOLV.lig_0>
-46.9527

>  <SCORE.INTRA.VDW>
-0.0406424

>  <SCORE.INTRA.VDW.0>
-0.177978

>  <SCORE.INTRA.norm>
0.000142057

>  <SCORE.RESTR>
0

>  <SCORE.RESTR.CAVITY>
0

>  <SCORE.RESTR.norm>
0

>  <SCORE.SYSTEM>
0

>  <SCORE.SYSTEM.CONST>
0

>  <SCORE.SYSTEM.DIHEDRAL>
0

>  <SCORE.SYSTEM.SOLV>
0

>  <SCORE.SYSTEM.norm>
0

>  <SCORE.heavy>
13

>  <SCORE.norm>
-1.3313

>  <RMSD>
4.207

$$$$
ligand
 OpenBabel02271912143D
libRbt.so/2013.1/901 2013/11/27
 13 14  0  0  0  0  0  0  0  0999 V2000
   37.3694   35.0336   24.9425 N   0  0  0  0  0  0  0  0  0  0  0  0
   37.6819   34.4405   26.1794 C   0  0  0  0  0  0  0  0  0  0  0  0
   38.8472   34.8728   26.7985 N   0  0  0  0  0  0  0  0  0  0  0  0
   36.9640   33.4701   26.7947 N   0  0  0  0  0  0  0  0  0  0  0  0
   35.8402   33.1060   26.0591 C   0  0  0  0  0  0  0  0  0  0  0  0
   35.4424   33.6504   24.8319 C   0  0  0  0  0  0  0  0  0  0  0  0
   36.2040   34.6505   24.2099 C   0  0  0  0  0  0  0  0  0  0  0  0
   35.9740   35.1907   23.1379 O   0  0  0  0  0  0  0  0  0  0  0  0
   34.2509   33.0152   24.4126 C   0  0  0  0  0  0  0  0  0  0  0  0
   33.9318   32.0930   25.3973 C   0  0  0  0  0  0  0  0  0  0  0  0
   34.9107   32.1483   26.4214 N   0  0  0  0  0  0  0  0  0  0  0  0
   33.5571   33.3234   23.1327 C   0  0  0  0  0  0  0  0  0  0  0  0
   32.8147   32.1514   22.6429 N   0  0  0  0  0  0  0  0  0  0  0  0
  1  2  1  0  0  0  0
  1  7  1  0  0  0  0
  2  3  1  0  0  0  0
  2  4  2  0  0  0  0
  4  5  1  0  0  0  0
  5  6  2  0  0  0  0
  5 11  1  0  0  0  0
  6  7  1  0  0  0  0
  6  9  1  0  0  0  0
  7  8  2  0  0  0  0
  9 10  2  0  0  0  0
  9 12  1  0  0  0  0
 10 11  1  0  0  0  0
 12 13  1  0  0  0  0
M  END
>  <CHROM.1>
151.64755131,35.68740557,33.65401603,24.96238742,-0.22791363,-0.60873142
-0.99688018

>  <Name>
ligand

>  <RI>
0

>  <Rbt.Current_Directory>
/home/itssahil/PROJECTS/Mol_Feturizer/Test_systems_manuscript/rnas/3q50

>  <Rbt.Executable>
rbdock ($Id: //depot/dev/client3/rdock/2013.1/src/exe/rbdock.cxx#4 $)

>  <Rbt.Library>
libRbt.so (2013.1, Build901 2013/11/27)

>  <Rbt.Parameter_File>
/export/apps/rDock/src/rDock_2013.1_src/data/scripts/dock_solv.prm

>  <Rbt.Receptor>
prm/pocket_docking_2.prm

>  <SCORE>
-17.3802

>  <SCORE.INTER>
-17.3862

>  <SCORE.INTER.CONST>
1

>  <SCORE.INTER.POLAR>
0

>  <SCORE.INTER.ROT>
1

>  <SCORE.INTER.SOLV>
18.4952

>  <SCORE.INTER.VDW>
-22.0226

>  <SCORE.INTER.norm>
-1.3374

>  <SCORE.INTRA>
0.00608185

>  <SCORE.INTRA.DIHEDRAL>
0.0831592

>  <SCORE.INTRA.DIHEDRAL.0>
1.65305

>  <SCORE.INTRA.POLAR>
0

>  <SCORE.INTRA.POLAR.0>
0

>  <SCORE.INTRA.REPUL>
0

>  <SCORE.INTRA.REPUL.0>
0

>  <SCORE.INTRA.SOLV>
0.00159756

>  <SCORE.INTRA.SOLV.lig_0>
-46.9527

>  <SCORE.INTRA.VDW>
-0.0362965

>  <SCORE.INTRA.VDW.0>
-0.177978

>  <SCORE.INTRA.norm>
0.000467835

>  <SCORE.RESTR>
0

>  <SCORE.RESTR.CAVITY>
0

>  <SCORE.RESTR.norm>
0

>  <SCORE.SYSTEM>
0

>  <SCORE.SYSTEM.CONST>
0

>  <SCORE.SYSTEM.DIHEDRAL>
0

>  <SCORE.SYSTEM.SOLV>
0

>  <SCORE.SYSTEM.norm>
0

>  <SCORE.heavy>
13

>  <SCORE.norm>
-1.33693

>  <RMSD>
4.208

$$$$
ligand
 OpenBabel02271912143D
libRbt.so/2013.1/901 2013/11/27
 13 14  0  0  0  0  0  0  0  0999 V2000
   37.3794   35.0213   24.9432 N   0  0  0  0  0  0  0  0  0  0  0  0
   37.6890   34.4275   26.1805 C   0  0  0  0  0  0  0  0  0  0  0  0
   38.8559   34.8551   26.7998 N   0  0  0  0  0  0  0  0  0  0  0  0
   36.9666   33.4605   26.7961 N   0  0  0  0  0  0  0  0  0  0  0  0
   35.8415   33.1009   26.0604 C   0  0  0  0  0  0  0  0  0  0  0  0
   35.4465   33.6463   24.8327 C   0  0  0  0  0  0  0  0  0  0  0  0
   36.2127   34.6427   24.2104 C   0  0  0  0  0  0  0  0  0  0  0  0
   35.9854   35.1833   23.1380 O   0  0  0  0  0  0  0  0  0  0  0  0
   34.2525   33.0160   24.4134 C   0  0  0  0  0  0  0  0  0  0  0  0
   33.9290   32.0958   25.3985 C   0  0  0  0  0  0  0  0  0  0  0  0
   34.9078   32.1475   26.4229 N   0  0  0  0  0  0  0  0  0  0  0  0
   33.5604   33.3265   23.1330 C   0  0  0  0  0  0  0  0  0  0  0  0
   32.8247   32.1532   22.6364 N   0  0  0  0  0  0  0  0  0  0  0  0
  1  2  1  0  0  0  0
  1  7  1  0  0  0  0
  2  3  1  0  0  0  0
  2  4  2  0  0  0  0
  4  5  1  0  0  0  0
  5  6  2  0  0  0  0
  5 11  1  0  0  0  0
  6  7  1  0  0  0  0
  6  9  1  0  0  0  0
  7  8  2  0  0  0  0
  9 10  2  0  0  0  0
  9 12  1  0  0  0  0
 10 11  1  0  0  0  0
 12 13  1  0  0  0  0
M  END
>  <CHROM.1>
151.04887587,35.69244190,33.64859549,24.96269640,-0.23196866,-0.60608438
-0.99986443

>  <Name>
ligand

>  <RI>
0

>  <Rbt.Current_Directory>
/home/itssahil/PROJECTS/Mol_Feturizer/Test_systems_manuscript/rnas/3q50

>  <Rbt.Executable>
rbdock ($Id: //depot/dev/client3/rdock/2013.1/src/exe/rbdock.cxx#4 $)

>  <Rbt.Library>
libRbt.so (2013.1, Build901 2013/11/27)

>  <Rbt.Parameter_File>
/export/apps/rDock/src/rDock_2013.1_src/data/scripts/dock_solv.prm

>  <Rbt.Receptor>
prm/pocket_docking_2.prm

>  <SCORE>
-17.3822

>  <SCORE.INTER>
-17.3868

>  <SCORE.INTER.CONST>
1

>  <SCORE.INTER.POLAR>
0

>  <SCORE.INTER.ROT>
1

>  <SCORE.INTER.SOLV>
18.4559

>  <SCORE.INTER.VDW>
-22.0098

>  <SCORE.INTER.norm>
-1.33745

>  <SCORE.INTRA>
0.00455463

>  <SCORE.INTRA.DIHEDRAL>
0.083344

>  <SCORE.INTRA.DIHEDRAL.0>
1.65305

>  <SCORE.INTRA.POLAR>
0

>  <SCORE.INTRA.POLAR.0>
0

>  <SCORE.INTRA.REPUL>
0

>  <SCORE.INTRA.REPUL.0>
0

>  <SCORE.INTRA.SOLV>
0.00154283

>  <SCORE.INTRA.SOLV.lig_0>
-46.9527

>  <SCORE.INTRA.VDW>
-0.0378888

>  <SCORE.INTRA.VDW.0>
-0.177978

>  <SCORE.INTRA.norm>
0.000350356

>  <SCORE.RESTR>
0

>  <SCORE.RESTR.CAVITY>
0

>  <SCORE.RESTR.norm>
0

>  <SCORE.SYSTEM>
0

>  <SCORE.SYSTEM.CONST>
0

>  <SCORE.SYSTEM.DIHEDRAL>
0

>  <SCORE.SYSTEM.SOLV>
0

>  <SCORE.SYSTEM.norm>
0

>  <SCORE.heavy>
13

>  <SCORE.norm>
-1.33709

>  <RMSD>
4.208

$$$$
ligand
 OpenBabel02271912143D
libRbt.so/2013.1/901 2013/11/27
 13 14  0  0  0  0  0  0  0  0999 V2000
   37.3784   35.0288   24.9507 N   0  0  0  0  0  0  0  0  0  0  0  0
   37.6971   34.4276   26.1820 C   0  0  0  0  0  0  0  0  0  0  0  0
   38.8638   34.8581   26.7996 N   0  0  0  0  0  0  0  0  0  0  0  0
   36.9836   33.4513   26.7933 N   0  0  0  0  0  0  0  0  0  0  0  0
   35.8577   33.0901   26.0595 C   0  0  0  0  0  0  0  0  0  0  0  0
   35.4539   33.6423   24.8378 C   0  0  0  0  0  0  0  0  0  0  0  0
   36.2110   34.6484   24.2199 C   0  0  0  0  0  0  0  0  0  0  0  0
   35.9756   35.1957   23.1527 O   0  0  0  0  0  0  0  0  0  0  0  0
   34.2621   33.0075   24.4187 C   0  0  0  0  0  0  0  0  0  0  0  0
   33.9489   32.0778   25.3980 C   0  0  0  0  0  0  0  0  0  0  0  0
   34.9317   32.1279   26.4187 N   0  0  0  0  0  0  0  0  0  0  0  0
   33.5627   33.3233   23.1437 C   0  0  0  0  0  0  0  0  0  0  0  0
   32.8225   32.1526   22.6475 N   0  0  0  0  0  0  0  0  0  0  0  0
  1  2  1  0  0  0  0
  1  7  1  0  0  0  0
  2  3  1  0  0  0  0
  2  4  2  0  0  0  0
  4  5  1  0  0  0  0
  5  6  2  0  0  0  0
  5 11  1  0  0  0  0
  6  7  1  0  0  0  0
  6  9  1  0  0  0  0
  7  8  2  0  0  0  0
  9 10  2  0  0  0  0
  9 12  1  0  0  0  0
 10 11  1  0  0  0  0
 12 13  1  0  0  0  0
M  END
>  <CHROM.1>
151.56026903,35.69956077,33.64544921,24.96724853,-0.22262803,-0.60848465
-0.98680655

>  <Name>
ligand

>  <RI>
0

>  <Rbt.Current_Directory>
/home/itssahil/PROJECTS/Mol_Feturizer/Test_systems_manuscript/rnas/3q50

>  <Rbt.Executable>
rbdock ($Id: //depot/dev/client3/rdock/2013.1/src/exe/rbdock.cxx#4 $)

>  <Rbt.Library>
libRbt.so (2013.1, Build901 2013/11/27)

>  <Rbt.Parameter_File>
/export/apps/rDock/src/rDock_2013.1_src/data/scripts/dock_solv.prm

>  <Rbt.Receptor>
prm/pocket_docking_2.prm

>  <SCORE>
-17.3741

>  <SCORE.INTER>
-17.38

>  <SCORE.INTER.CONST>
1

>  <SCORE.INTER.POLAR>
0

>  <SCORE.INTER.ROT>
1

>  <SCORE.INTER.SOLV>
18.4102

>  <SCORE.INTER.VDW>
-21.99

>  <SCORE.INTER.norm>
-1.33692

>  <SCORE.INTRA>
0.00586178

>  <SCORE.INTRA.DIHEDRAL>
0.0831896

>  <SCORE.INTRA.DIHEDRAL.0>
1.65305

>  <SCORE.INTRA.POLAR>
0

>  <SCORE.INTRA.POLAR.0>
0

>  <SCORE.INTRA.REPUL>
0

>  <SCORE.INTRA.REPUL.0>
0

>  <SCORE.INTRA.SOLV>
0.00158965

>  <SCORE.INTRA.SOLV.lig_0>
-46.9527

>  <SCORE.INTRA.VDW>
-0.0365278

>  <SCORE.INTRA.VDW.0>
-0.177978

>  <SCORE.INTRA.norm>
0.000450906

>  <SCORE.RESTR>
0

>  <SCORE.RESTR.CAVITY>
0

>  <SCORE.RESTR.norm>
0

>  <SCORE.SYSTEM>
0

>  <SCORE.SYSTEM.CONST>
0

>  <SCORE.SYSTEM.DIHEDRAL>
0

>  <SCORE.SYSTEM.SOLV>
0

>  <SCORE.SYSTEM.norm>
0

>  <SCORE.heavy>
13

>  <SCORE.norm>
-1.33647

>  <RMSD>
4.208

$$$$
ligand
 OpenBabel02271912143D
libRbt.so/2013.1/901 2013/11/27
 13 14  0  0  0  0  0  0  0  0999 V2000
   37.3559   34.9899   24.9474 N   0  0  0  0  0  0  0  0  0  0  0  0
   37.6801   34.3584   26.1621 C   0  0  0  0  0  0  0  0  0  0  0  0
   38.8469   34.7772   26.7875 N   0  0  0  0  0  0  0  0  0  0  0  0
   36.9718   33.3642   26.7499 N   0  0  0  0  0  0  0  0  0  0  0  0
   35.8452   33.0177   26.0100 C   0  0  0  0  0  0  0  0  0  0  0  0
   35.4362   33.5996   24.8039 C   0  0  0  0  0  0  0  0  0  0  0  0
   36.1879   34.6240   24.2101 C   0  0  0  0  0  0  0  0  0  0  0  0
   35.9478   35.1976   23.1579 O   0  0  0  0  0  0  0  0  0  0  0  0
   34.2456   32.9714   24.3718 C   0  0  0  0  0  0  0  0  0  0  0  0
   33.9383   32.0157   25.3277 C   0  0  0  0  0  0  0  0  0  0  0  0
   34.9237   32.0432   26.3467 N   0  0  0  0  0  0  0  0  0  0  0  0
   33.5416   33.3172   23.1071 C   0  0  0  0  0  0  0  0  0  0  0  0
   32.8051   32.1566   22.5825 N   0  0  0  0  0  0  0  0  0  0  0  0
  1  2  1  0  0  0  0
  1  7  1  0  0  0  0
  2  3  1  0  0  0  0
  2  4  2  0  0  0  0
  4  5  1  0  0  0  0
  5  6  2  0  0  0  0
  5 11  1  0  0  0  0
  6  7  1  0  0  0  0
  6  9  1  0  0  0  0
  7  8  2  0  0  0  0
  9 10  2  0  0  0  0
  9 12  1  0  0  0  0
 10 11  1  0  0  0  0
 12 13  1  0  0  0  0
M  END
>  <CHROM.1>
151.52460131,35.68223932,33.60032262,24.93275185,-0.21751523,-0.61007314
-0.95821603

>  <Name>
ligand

>  <RI>
0

>  <Rbt.Current_Directory>
/home/itssahil/PROJECTS/Mol_Feturizer/Test_systems_manuscript/rnas/3q50

>  <Rbt.Executable>
rbdock ($Id: //depot/dev/client3/rdock/2013.1/src/exe/rbdock.cxx#4 $)

>  <Rbt.Library>
libRbt.so (2013.1, Build901 2013/11/27)

>  <Rbt.Parameter_File>
/export/apps/rDock/src/rDock_2013.1_src/data/scripts/dock_solv.prm

>  <Rbt.Receptor>
prm/pocket_docking_3.prm

>  <SCORE>
-17.3491

>  <SCORE.INTER>
-17.3549

>  <SCORE.INTER.CONST>
1

>  <SCORE.INTER.POLAR>
0

>  <SCORE.INTER.ROT>
1

>  <SCORE.INTER.SOLV>
18.4348

>  <SCORE.INTER.VDW>
-21.9815

>  <SCORE.INTER.norm>
-1.33499

>  <SCORE.INTRA>
0.0057716

>  <SCORE.INTRA.DIHEDRAL>
0.0832017

>  <SCORE.INTRA.DIHEDRAL.0>
1.65305

>  <SCORE.INTRA.POLAR>
0

>  <SCORE.INTRA.POLAR.0>
0

>  <SCORE.INTRA.REPUL>
0

>  <SCORE.INTRA.REPUL.0>
0

>  <SCORE.INTRA.SOLV>
0.00158641

>  <SCORE.INTRA.SOLV.lig_0>
-46.9527

>  <SCORE.INTRA.VDW>
-0.0366224

>  <SCORE.INTRA.VDW.0>
-0.177978

>  <SCORE.INTRA.norm>
0.000443969

>  <SCORE.RESTR>
0

>  <SCORE.RESTR.CAVITY>
0

>  <SCORE.RESTR.norm>
0

>  <SCORE.SYSTEM>
0

>  <SCORE.SYSTEM.CONST>
0

>  <SCORE.SYSTEM.DIHEDRAL>
0

>  <SCORE.SYSTEM.SOLV>
0

>  <SCORE.SYSTEM.norm>
0

>  <SCORE.heavy>
13

>  <SCORE.norm>
-1.33454

>  <RMSD>
4.208

$$$$
ligand
 OpenBabel02271912143D
libRbt.so/2013.1/901 2013/11/27
 13 14  0  0  0  0  0  0  0  0999 V2000
   37.3816   35.0155   24.9449 N   0  0  0  0  0  0  0  0  0  0  0  0
   37.6915   34.4205   26.1815 C   0  0  0  0  0  0  0  0  0  0  0  0
   38.8595   34.8461   26.8001 N   0  0  0  0  0  0  0  0  0  0  0  0
   36.9683   33.4541   26.7971 N   0  0  0  0  0  0  0  0  0  0  0  0
   35.8420   33.0966   26.0621 C   0  0  0  0  0  0  0  0  0  0  0  0
   35.4467   33.6433   24.8352 C   0  0  0  0  0  0  0  0  0  0  0  0
   36.2137   34.6391   24.2129 C   0  0  0  0  0  0  0  0  0  0  0  0
   35.9863   35.1807   23.1411 O   0  0  0  0  0  0  0  0  0  0  0  0
   34.2514   33.0150   24.4165 C   0  0  0  0  0  0  0  0  0  0  0  0
   33.9276   32.0946   25.4013 C   0  0  0  0  0  0  0  0  0  0  0  0
   34.9073   32.1442   26.4249 N   0  0  0  0  0  0  0  0  0  0  0  0
   33.5587   33.3273   23.1370 C   0  0  0  0  0  0  0  0  0  0  0  0
   32.8288   32.1525   22.6353 N   0  0  0  0  0  0  0  0  0  0  0  0
  1  2  1  0  0  0  0
  1  7  1  0  0  0  0
  2  3  1  0  0  0  0
  2  4  2  0  0  0  0
  4  5  1  0  0  0  0
  5  6  2  0  0  0  0
  5 11  1  0  0  0  0
  6  7  1  0  0  0  0
  6  9  1  0  0  0  0
  7  8  2  0  0  0  0
  9 10  2  0  0  0  0
  9 12  1  0  0  0  0
 10 11  1  0  0  0  0
 12 13  1  0  0  0  0
M  END
>  <CHROM.1>
150.64421672,35.69339707,33.64496019,24.96456898,-0.23257330,-0.60497146
-0.99960106

>  <Name>
ligand

>  <RI>
0

>  <Rbt.Current_Directory>
/home/itssahil/PROJECTS/Mol_Feturizer/Test_systems_manuscript/rnas/3q50

>  <Rbt.Executable>
rbdock ($Id: //depot/dev/client3/rdock/2013.1/src/exe/rbdock.cxx#4 $)

>  <Rbt.Library>
libRbt.so (2013.1, Build901 2013/11/27)

>  <Rbt.Parameter_File>
/export/apps/rDock/src/rDock_2013.1_src/data/scripts/dock_solv.prm

>  <Rbt.Receptor>
prm/pocket_docking_3.prm

>  <SCORE>
-17.3814

>  <SCORE.INTER>
-17.3849

>  <SCORE.INTER.CONST>
1

>  <SCORE.INTER.POLAR>
0

>  <SCORE.INTER.ROT>
1

>  <SCORE.INTER.SOLV>
18.4364

>  <SCORE.INTER.VDW>
-22.0021

>  <SCORE.INTER.norm>
-1.3373

>  <SCORE.INTRA>
0.00349909

>  <SCORE.INTRA.DIHEDRAL>
0.0834375

>  <SCORE.INTRA.DIHEDRAL.0>
1.65305

>  <SCORE.INTRA.POLAR>
0

>  <SCORE.INTRA.POLAR.0>
0

>  <SCORE.INTRA.REPUL>
0

>  <SCORE.INTRA.REPUL.0>
0

>  <SCORE.INTRA.SOLV>
0.00150524

>  <SCORE.INTRA.SOLV.lig_0>
-46.9527

>  <SCORE.INTRA.VDW>
-0.0389723

>  <SCORE.INTRA.VDW.0>
-0.177978

>  <SCORE.INTRA.norm>
0.000269161

>  <SCORE.RESTR>
0

>  <SCORE.RESTR.CAVITY>
0

>  <SCORE.RESTR.norm>
0

>  <SCORE.SYSTEM>
0

>  <SCORE.SYSTEM.CONST>
0

>  <SCORE.SYSTEM.DIHEDRAL>
0

>  <SCORE.SYSTEM.SOLV>
0

>  <SCORE.SYSTEM.norm>
0

>  <SCORE.heavy>
13

>  <SCORE.norm>
-1.33703

>  <RMSD>
4.208

$$$$
ligand
 OpenBabel02271912143D
libRbt.so/2013.1/901 2013/11/27
 13 14  0  0  0  0  0  0  0  0999 V2000
   37.3705   35.0327   24.9411 N   0  0  0  0  0  0  0  0  0  0  0  0
   37.6794   34.4420   26.1800 C   0  0  0  0  0  0  0  0  0  0  0  0
   38.8437   34.8744   26.8009 N   0  0  0  0  0  0  0  0  0  0  0  0
   36.9588   33.4739   26.7958 N   0  0  0  0  0  0  0  0  0  0  0  0
   35.8363   33.1095   26.0584 C   0  0  0  0  0  0  0  0  0  0  0  0
   35.4420   33.6515   24.8291 C   0  0  0  0  0  0  0  0  0  0  0  0
   36.2064   34.6493   24.2066 C   0  0  0  0  0  0  0  0  0  0  0  0
   35.9795   35.1873   23.1329 O   0  0  0  0  0  0  0  0  0  0  0  0
   34.2508   33.0168   24.4085 C   0  0  0  0  0  0  0  0  0  0  0  0
   33.9283   32.0973   25.3945 C   0  0  0  0  0  0  0  0  0  0  0  0
   34.9049   32.1537   26.4207 N   0  0  0  0  0  0  0  0  0  0  0  0
   33.5604   33.3229   23.1262 C   0  0  0  0  0  0  0  0  0  0  0  0
   32.8159   32.1514   22.6385 N   0  0  0  0  0  0  0  0  0  0  0  0
  1  2  1  0  0  0  0
  1  7  1  0  0  0  0
  2  3  1  0  0  0  0
  2  4  2  0  0  0  0
  4  5  1  0  0  0  0
  5  6  2  0  0  0  0
  5 11  1  0  0  0  0
  6  7  1  0  0  0  0
  6  9  1  0  0  0  0
  7  8  2  0  0  0  0
  9 10  2  0  0  0  0
  9 12  1  0  0  0  0
 10 11  1  0  0  0  0
 12 13  1  0  0  0  0
M  END
>  <CHROM.1>
151.74361791,35.68663862,33.65520334,24.96023966,-0.23098698,-0.60886951
-1.00091222

>  <Name>
ligand

>  <RI>
0

>  <Rbt.Current_Directory>
/home/itssahil/PROJECTS/Mol_Feturizer/Test_systems_manuscript/rnas/3q50

>  <Rbt.Executable>
rbdock ($Id: //depot/dev/client3/rdock/2013.1/src/exe/rbdock.cxx#4 $)

>  <Rbt.Library>
libRbt.so (2013.1, Build901 2013/11/27)

>  <Rbt.Parameter_File>
/export/apps/rDock/src/rDock_2013.1_src/data/scripts/dock_solv.prm

>  <Rbt.Receptor>
prm/pocket_docking_3.prm

>  <SCORE>
-17.3813

>  <SCORE.INTER>
-17.3876

>  <SCORE.INTER.CONST>
1

>  <SCORE.INTER.POLAR>
0

>  <SCORE.INTER.ROT>
1

>  <SCORE.INTER.SOLV>
18.5101

>  <SCORE.INTER.VDW>
-22.0285

>  <SCORE.INTER.norm>
-1.33751

>  <SCORE.INTRA>
0.00632304

>  <SCORE.INTRA.DIHEDRAL>
0.0831244

>  <SCORE.INTRA.DIHEDRAL.0>
1.65305

>  <SCORE.INTRA.POLAR>
0

>  <SCORE.INTRA.POLAR.0>
0

>  <SCORE.INTRA.REPUL>
0

>  <SCORE.INTRA.REPUL.0>
0

>  <SCORE.INTRA.SOLV>
0.00160623

>  <SCORE.INTRA.SOLV.lig_0>
-46.9527

>  <SCORE.INTRA.VDW>
-0.0360423

>  <SCORE.INTRA.VDW.0>
-0.177978

>  <SCORE.INTRA.norm>
0.000486388

>  <SCORE.RESTR>
0

>  <SCORE.RESTR.CAVITY>
0

>  <SCORE.RESTR.norm>
0

>  <SCORE.SYSTEM>
0

>  <SCORE.SYSTEM.CONST>
0

>  <SCORE.SYSTEM.DIHEDRAL>
0

>  <SCORE.SYSTEM.SOLV>
0

>  <SCORE.SYSTEM.norm>
0

>  <SCORE.heavy>
13

>  <SCORE.norm>
-1.33702

>  <RMSD>
4.208

$$$$
ligand
 OpenBabel02271912143D
libRbt.so/2013.1/901 2013/11/27
 13 14  0  0  0  0  0  0  0  0999 V2000
   37.3789   35.0226   24.9432 N   0  0  0  0  0  0  0  0  0  0  0  0
   37.6874   34.4301   26.1814 C   0  0  0  0  0  0  0  0  0  0  0  0
   38.8533   34.8590   26.8017 N   0  0  0  0  0  0  0  0  0  0  0  0
   36.9650   33.4631   26.7969 N   0  0  0  0  0  0  0  0  0  0  0  0
   35.8410   33.1022   26.0601 C   0  0  0  0  0  0  0  0  0  0  0  0
   35.4471   33.6462   24.8315 C   0  0  0  0  0  0  0  0  0  0  0  0
   36.2133   34.6427   24.2093 C   0  0  0  0  0  0  0  0  0  0  0  0
   35.9870   35.1823   23.1362 O   0  0  0  0  0  0  0  0  0  0  0  0
   34.2540   33.0148   24.4113 C   0  0  0  0  0  0  0  0  0  0  0  0
   33.9300   32.0952   25.3967 C   0  0  0  0  0  0  0  0  0  0  0  0
   34.9075   32.1484   26.4222 N   0  0  0  0  0  0  0  0  0  0  0  0
   33.5633   33.3238   23.1298 C   0  0  0  0  0  0  0  0  0  0  0  0
   32.8219   32.1522   22.6377 N   0  0  0  0  0  0  0  0  0  0  0  0
  1  2  1  0  0  0  0
  1  7  1  0  0  0  0
  2  3  1  0  0  0  0
  2  4  2  0  0  0  0
  4  5  1  0  0  0  0
  5  6  2  0  0  0  0
  5 11  1  0  0  0  0
  6  7  1  0  0  0  0
  6  9  1  0  0  0  0
  7  8  2  0  0  0  0
  9 10  2  0  0  0  0
  9 12  1  0  0  0  0
 10 11  1  0  0  0  0
 12 13  1  0  0  0  0
M  END
>  <CHROM.1>
151.41673525,35.69228750,33.64904435,24.96213158,-0.23224967,-0.60682175
-1.00079185

>  <Name>
ligand

>  <RI>
0

>  <Rbt.Current_Directory>
/home/itssahil/PROJECTS/Mol_Feturizer/Test_systems_manuscript/rnas/3q50

>  <Rbt.Executable>
rbdock ($Id: //depot/dev/client3/rdock/2013.1/src/exe/rbdock.cxx#4 $)

>  <Rbt.Library>
libRbt.so (2013.1, Build901 2013/11/27)

>  <Rbt.Parameter_File>
/export/apps/rDock/src/rDock_2013.1_src/data/scripts/dock_solv.prm

>  <Rbt.Receptor>
prm/pocket_docking_4.prm

>  <SCORE>
-17.382

>  <SCORE.INTER>
-17.3875

>  <SCORE.INTER.CONST>
1

>  <SCORE.INTER.POLAR>
0

>  <SCORE.INTER.ROT>
1

>  <SCORE.INTER.SOLV>
18.4677

>  <SCORE.INTER.VDW>
-22.0142

>  <SCORE.INTER.norm>
-1.3375

>  <SCORE.INTRA>
0.00549795

>  <SCORE.INTRA.DIHEDRAL>
0.083237

>  <SCORE.INTRA.DIHEDRAL.0>
1.65305

>  <SCORE.INTRA.POLAR>
0

>  <SCORE.INTRA.POLAR.0>
0

>  <SCORE.INTRA.REPUL>
0

>  <SCORE.INTRA.REPUL.0>
0

>  <SCORE.INTRA.SOLV>
0.00157659

>  <SCORE.INTRA.SOLV.lig_0>
-46.9527

>  <SCORE.INTRA.VDW>
-0.0369088

>  <SCORE.INTRA.VDW.0>
-0.177978

>  <SCORE.INTRA.norm>
0.000422919

>  <SCORE.RESTR>
0

>  <SCORE.RESTR.CAVITY>
0

>  <SCORE.RESTR.norm>
0

>  <SCORE.SYSTEM>
0

>  <SCORE.SYSTEM.CONST>
0

>  <SCORE.SYSTEM.DIHEDRAL>
0

>  <SCORE.SYSTEM.SOLV>
0

>  <SCORE.SYSTEM.norm>
0

>  <SCORE.heavy>
13

>  <SCORE.norm>
-1.33708

>  <RMSD>
4.208

$$$$
ligand
 OpenBabel02271912143D
libRbt.so/2013.1/901 2013/11/27
 13 14  0  0  0  0  0  0  0  0999 V2000
   37.3699   35.0394   24.9416 N   0  0  0  0  0  0  0  0  0  0  0  0
   37.6851   34.4449   26.1772 C   0  0  0  0  0  0  0  0  0  0  0  0
   38.8494   34.8798   26.7963 N   0  0  0  0  0  0  0  0  0  0  0  0
   36.9705   33.4712   26.7912 N   0  0  0  0  0  0  0  0  0  0  0  0
   35.8474   33.1050   26.0557 C   0  0  0  0  0  0  0  0  0  0  0  0
   35.4471   33.6503   24.8297 C   0  0  0  0  0  0  0  0  0  0  0  0
   36.2052   34.6539   24.2091 C   0  0  0  0  0  0  0  0  0  0  0  0
   35.9728   35.1954   23.1382 O   0  0  0  0  0  0  0  0  0  0  0  0
   34.2573   33.0122   24.4101 C   0  0  0  0  0  0  0  0  0  0  0  0
   33.9418   32.0873   25.3933 C   0  0  0  0  0  0  0  0  0  0  0  0
   34.9212   32.1438   26.4168 N   0  0  0  0  0  0  0  0  0  0  0  0
   33.5617   33.3206   23.1311 C   0  0  0  0  0  0  0  0  0  0  0  0
   32.8169   32.1493   22.6434 N   0  0  0  0  0  0  0  0  0  0  0  0
  1  2  1  0  0  0  0
  1  7  1  0  0  0  0
  2  3  1  0  0  0  0
  2  4  2  0  0  0  0
  4  5  1  0  0  0  0
  5  6  2  0  0  0  0
  5 11  1  0  0  0  0
  6  7  1  0  0  0  0
  6  9  1  0  0  0  0
  7  8  2  0  0  0  0
  9 10  2  0  0  0  0
  9 12  1  0  0  0  0
 10 11  1  0  0  0  0
 12 13  1  0  0  0  0
M  END
>  <CHROM.1>
151.94484976,35.69173157,33.65467365,24.96037269,-0.22477122,-0.61057724
-0.99322909

>  <Name>
ligand

>  <RI>
0

>  <Rbt.Current_Directory>
/home/itssahil/PROJECTS/Mol_Feturizer/Test_systems_manuscript/rnas/3q50

>  <Rbt.Executable>
rbdock ($Id: //depot/dev/client3/rdock/2013.1/src/exe/rbdock.cxx#4 $)

>  <Rbt.Library>
libRbt.so (2013.1, Build901 2013/11/27)

>  <Rbt.Parameter_File>
/export/apps/rDock/src/rDock_2013.1_src/data/scripts/dock_solv.prm

>  <Rbt.Receptor>
prm/pocket_docking_5.prm

>  <SCORE>
-17.3767

>  <SCORE.INTER>
-17.3836

>  <SCORE.INTER.CONST>
1

>  <SCORE.INTER.POLAR>
0

>  <SCORE.INTER.ROT>
1

>  <SCORE.INTER.SOLV>
18.4857

>  <SCORE.INTER.VDW>
-22.0176

>  <SCORE.INTER.norm>
-1.3372

>  <SCORE.INTRA>
0.00682476

>  <SCORE.INTRA.DIHEDRAL>
0.0830469

>  <SCORE.INTRA.DIHEDRAL.0>
1.65305

>  <SCORE.INTRA.POLAR>
0

>  <SCORE.INTRA.POLAR.0>
0

>  <SCORE.INTRA.REPUL>
0

>  <SCORE.INTRA.REPUL.0>
0

>  <SCORE.INTRA.SOLV>
0.00162431

>  <SCORE.INTRA.SOLV.lig_0>
-46.9527

>  <SCORE.INTRA.VDW>
-0.0355109

>  <SCORE.INTRA.VDW.0>
-0.177978

>  <SCORE.INTRA.norm>
0.000524981

>  <SCORE.RESTR>
0

>  <SCORE.RESTR.CAVITY>
0

>  <SCORE.RESTR.norm>
0

>  <SCORE.SYSTEM>
0

>  <SCORE.SYSTEM.CONST>
0

>  <SCORE.SYSTEM.DIHEDRAL>
0

>  <SCORE.SYSTEM.SOLV>
0

>  <SCORE.SYSTEM.norm>
0

>  <SCORE.heavy>
13

>  <SCORE.norm>
-1.33667

>  <RMSD>
4.208

$$$$
ligand
 OpenBabel02271912143D
libRbt.so/2013.1/901 2013/11/27
 13 14  0  0  0  0  0  0  0  0999 V2000
   37.3763   35.0535   24.9577 N   0  0  0  0  0  0  0  0  0  0  0  0
   37.7025   34.4578   26.1897 C   0  0  0  0  0  0  0  0  0  0  0  0
   38.8682   34.8975   26.8027 N   0  0  0  0  0  0  0  0  0  0  0  0
   36.9971   33.4787   26.8058 N   0  0  0  0  0  0  0  0  0  0  0  0
   35.8714   33.1082   26.0764 C   0  0  0  0  0  0  0  0  0  0  0  0
   35.4604   33.6543   24.8543 C   0  0  0  0  0  0  0  0  0  0  0  0
   36.2092   34.6635   24.2314 C   0  0  0  0  0  0  0  0  0  0  0  0
   35.9672   35.2063   23.1634 O   0  0  0  0  0  0  0  0  0  0  0  0
   34.2716   33.0107   24.4406 C   0  0  0  0  0  0  0  0  0  0  0  0
   33.9672   32.0817   25.4234 C   0  0  0  0  0  0  0  0  0  0  0  0
   34.9526   32.1411   26.4410 N   0  0  0  0  0  0  0  0  0  0  0  0
   33.5663   33.3184   23.1668 C   0  0  0  0  0  0  0  0  0  0  0  0
   32.8359   32.1403   22.6737 N   0  0  0  0  0  0  0  0  0  0  0  0
  1  2  1  0  0  0  0
  1  7  1  0  0  0  0
  2  3  1  0  0  0  0
  2  4  2  0  0  0  0
  4  5  1  0  0  0  0
  5  6  2  0  0  0  0
  5 11  1  0  0  0  0
  6  7  1  0  0  0  0
  6  9  1  0  0  0  0
  7  8  2  0  0  0  0
  9 10  2  0  0  0  0
  9 12  1  0  0  0  0
 10 11  1  0  0  0  0
 12 13  1  0  0  0  0
M  END
>  <CHROM.1>
151.37112227,35.70675803,33.65933186,24.98287928,-0.21553861,-0.61247699
-0.98556198

>  <Name>
ligand

>  <RI>
0

>  <Rbt.Current_Directory>
/home/itssahil/PROJECTS/Mol_Feturizer/Test_systems_manuscript/rnas/3q50

>  <Rbt.Executable>
rbdock ($Id: //depot/dev/client3/rdock/2013.1/src/exe/rbdock.cxx#4 $)

>  <Rbt.Library>
libRbt.so (2013.1, Build901 2013/11/27)

>  <Rbt.Parameter_File>
/export/apps/rDock/src/rDock_2013.1_src/data/scripts/dock_solv.prm

>  <Rbt.Receptor>
prm/pocket_docking_5.prm

>  <SCORE>
-17.3406

>  <SCORE.INTER>
-17.346

>  <SCORE.INTER.CONST>
1

>  <SCORE.INTER.POLAR>
0

>  <SCORE.INTER.ROT>
1

>  <SCORE.INTER.SOLV>
18.3815

>  <SCORE.INTER.VDW>
-21.9578

>  <SCORE.INTER.norm>
-1.33431

>  <SCORE.INTRA>
0.00538183

>  <SCORE.INTRA.DIHEDRAL>
0.0832514

>  <SCORE.INTRA.DIHEDRAL.0>
1.65305

>  <SCORE.INTRA.POLAR>
0

>  <SCORE.INTRA.POLAR.0>
0

>  <SCORE.INTRA.REPUL>
0

>  <SCORE.INTRA.REPUL.0>
0

>  <SCORE.INTRA.SOLV>
0.00157243

>  <SCORE.INTRA.SOLV.lig_0>
-46.9527

>  <SCORE.INTRA.VDW>
-0.0370301

>  <SCORE.INTRA.VDW.0>
-0.177978

>  <SCORE.INTRA.norm>
0.000413987

>  <SCORE.RESTR>
0

>  <SCORE.RESTR.CAVITY>
0

>  <SCORE.RESTR.norm>
0

>  <SCORE.SYSTEM>
0

>  <SCORE.SYSTEM.CONST>
0

>  <SCORE.SYSTEM.DIHEDRAL>
0

>  <SCORE.SYSTEM.SOLV>
0

>  <SCORE.SYSTEM.norm>
0

>  <SCORE.heavy>
13

>  <SCORE.norm>
-1.3339

>  <RMSD>
4.208

$$$$
ligand
 OpenBabel02271912143D
libRbt.so/2013.1/901 2013/11/27
 13 14  0  0  0  0  0  0  0  0999 V2000
   37.3874   35.0274   24.9533 N   0  0  0  0  0  0  0  0  0  0  0  0
   37.6995   34.4250   26.1858 C   0  0  0  0  0  0  0  0  0  0  0  0
   38.8678   34.8483   26.8056 N   0  0  0  0  0  0  0  0  0  0  0  0
   36.9784   33.4539   26.7962 N   0  0  0  0  0  0  0  0  0  0  0  0
   35.8517   33.0995   26.0604 C   0  0  0  0  0  0  0  0  0  0  0  0
   35.4541   33.6534   24.8374 C   0  0  0  0  0  0  0  0  0  0  0  0
   36.2190   34.6541   24.2204 C   0  0  0  0  0  0  0  0  0  0  0  0
   35.9895   35.2021   23.1523 O   0  0  0  0  0  0  0  0  0  0  0  0
   34.2591   33.0261   24.4163 C   0  0  0  0  0  0  0  0  0  0  0  0
   33.9377   32.0991   25.3957 C   0  0  0  0  0  0  0  0  0  0  0  0
   34.9187   32.1436   26.4183 N   0  0  0  0  0  0  0  0  0  0  0  0
   33.5644   33.3454   23.1396 C   0  0  0  0  0  0  0  0  0  0  0  0
   32.8107   32.1818   22.6471 N   0  0  0  0  0  0  0  0  0  0  0  0
  1  2  1  0  0  0  0
  1  7  1  0  0  0  0
  2  3  1  0  0  0  0
  2  4  2  0  0  0  0
  4  5  1  0  0  0  0
  5  6  2  0  0  0  0
  5 11  1  0  0  0  0
  6  7  1  0  0  0  0
  6  9  1  0  0  0  0
  7  8  2  0  0  0  0
  9 10  2  0  0  0  0
  9 12  1  0  0  0  0
 10 11  1  0  0  0  0
 12 13  1  0  0  0  0
M  END
>  <CHROM.1>
151.92128983,35.69896043,33.65525072,24.96775712,-0.22861884,-0.60370164
-0.99090292

>  <Name>
ligand

>  <RI>
0

>  <Rbt.Current_Directory>
/home/itssahil/PROJECTS/Mol_Feturizer/Test_systems_manuscript/rnas/3q50

>  <Rbt.Executable>
rbdock ($Id: //depot/dev/client3/rdock/2013.1/src/exe/rbdock.cxx#4 $)

>  <Rbt.Library>
libRbt.so (2013.1, Build901 2013/11/27)

>  <Rbt.Parameter_File>
/export/apps/rDock/src/rDock_2013.1_src/data/scripts/dock_solv.prm

>  <Rbt.Receptor>
prm/pocket_docking_6.prm

>  <SCORE>
-17.3427

>  <SCORE.INTER>
-17.3495

>  <SCORE.INTER.CONST>
1

>  <SCORE.INTER.POLAR>
0

>  <SCORE.INTER.ROT>
1

>  <SCORE.INTER.SOLV>
18.4053

>  <SCORE.INTER.VDW>
-21.9681

>  <SCORE.INTER.norm>
-1.33458

>  <SCORE.INTRA>
0.00676626

>  <SCORE.INTRA.DIHEDRAL>
0.0830563

>  <SCORE.INTRA.DIHEDRAL.0>
1.65305

>  <SCORE.INTRA.POLAR>
0

>  <SCORE.INTRA.POLAR.0>
0

>  <SCORE.INTRA.REPUL>
0

>  <SCORE.INTRA.REPUL.0>
0

>  <SCORE.INTRA.SOLV>
0.0016222

>  <SCORE.INTRA.SOLV.lig_0>
-46.9527

>  <SCORE.INTRA.VDW>
-0.035573

>  <SCORE.INTRA.VDW.0>
-0.177978

>  <SCORE.INTRA.norm>
0.000520482

>  <SCORE.RESTR>
0

>  <SCORE.RESTR.CAVITY>
0

>  <SCORE.RESTR.norm>
0

>  <SCORE.SYSTEM>
0

>  <SCORE.SYSTEM.CONST>
0

>  <SCORE.SYSTEM.DIHEDRAL>
0

>  <SCORE.SYSTEM.SOLV>
0

>  <SCORE.SYSTEM.norm>
0

>  <SCORE.heavy>
13

>  <SCORE.norm>
-1.33406

>  <RMSD>
4.208

$$$$
ligand
 OpenBabel02271912143D
libRbt.so/2013.1/901 2013/11/27
 13 14  0  0  0  0  0  0  0  0999 V2000
   37.3758   35.0339   24.9466 N   0  0  0  0  0  0  0  0  0  0  0  0
   37.6824   34.4409   26.1850 C   0  0  0  0  0  0  0  0  0  0  0  0
   38.8460   34.8715   26.8084 N   0  0  0  0  0  0  0  0  0  0  0  0
   36.9602   33.4722   26.7981 N   0  0  0  0  0  0  0  0  0  0  0  0
   35.8387   33.1098   26.0583 C   0  0  0  0  0  0  0  0  0  0  0  0
   35.4467   33.6541   24.8292 C   0  0  0  0  0  0  0  0  0  0  0  0
   36.2126   34.6524   24.2096 C   0  0  0  0  0  0  0  0  0  0  0  0
   35.9878   35.1923   23.1364 O   0  0  0  0  0  0  0  0  0  0  0  0
   34.2557   33.0208   24.4057 C   0  0  0  0  0  0  0  0  0  0  0  0
   33.9311   32.0999   25.3897 C   0  0  0  0  0  0  0  0  0  0  0  0
   34.9060   32.1541   26.4176 N   0  0  0  0  0  0  0  0  0  0  0  0
   33.5675   33.3295   23.1228 C   0  0  0  0  0  0  0  0  0  0  0  0
   32.8326   32.1557   22.6261 N   0  0  0  0  0  0  0  0  0  0  0  0
  1  2  1  0  0  0  0
  1  7  1  0  0  0  0
  2  3  1  0  0  0  0
  2  4  2  0  0  0  0
  4  5  1  0  0  0  0
  5  6  2  0  0  0  0
  5 11  1  0  0  0  0
  6  7  1  0  0  0  0
  6  9  1  0  0  0  0
  7  8  2  0  0  0  0
  9 10  2  0  0  0  0
  9 12  1  0  0  0  0
 10 11  1  0  0  0  0
 12 13  1  0  0  0  0
M  END
>  <CHROM.1>
151.25038388,35.69184248,33.65712195,24.96030242,-0.23372424,-0.60983984
-1.00091356

>  <Name>
ligand

>  <RI>
0

>  <Rbt.Current_Directory>
/home/itssahil/PROJECTS/Mol_Feturizer/Test_systems_manuscript/rnas/3q50

>  <Rbt.Executable>
rbdock ($Id: //depot/dev/client3/rdock/2013.1/src/exe/rbdock.cxx#4 $)

>  <Rbt.Library>
libRbt.so (2013.1, Build901 2013/11/27)

>  <Rbt.Parameter_File>
/export/apps/rDock/src/rDock_2013.1_src/data/scripts/dock_solv.prm

>  <Rbt.Receptor>
prm/pocket_docking_7.prm

>  <SCORE>
-17.379

>  <SCORE.INTER>
-17.3841

>  <SCORE.INTER.CONST>
1

>  <SCORE.INTER.POLAR>
0

>  <SCORE.INTER.ROT>
1

>  <SCORE.INTER.SOLV>
18.4763

>  <SCORE.INTER.VDW>
-22.0148

>  <SCORE.INTER.norm>
-1.33724

>  <SCORE.INTRA>
0.0050733

>  <SCORE.INTRA.DIHEDRAL>
0.083288

>  <SCORE.INTRA.DIHEDRAL.0>
1.65305

>  <SCORE.INTRA.POLAR>
0

>  <SCORE.INTRA.POLAR.0>
0

>  <SCORE.INTRA.REPUL>
0

>  <SCORE.INTRA.REPUL.0>
0

>  <SCORE.INTRA.SOLV>
0.00156137

>  <SCORE.INTRA.SOLV.lig_0>
-46.9527

>  <SCORE.INTRA.VDW>
-0.0373514

>  <SCORE.INTRA.VDW.0>
-0.177978

>  <SCORE.INTRA.norm>
0.000390254

>  <SCORE.RESTR>
0

>  <SCORE.RESTR.CAVITY>
0

>  <SCORE.RESTR.norm>
0

>  <SCORE.SYSTEM>
0

>  <SCORE.SYSTEM.CONST>
0

>  <SCORE.SYSTEM.DIHEDRAL>
0

>  <SCORE.SYSTEM.SOLV>
0

>  <SCORE.SYSTEM.norm>
0

>  <SCORE.heavy>
13

>  <SCORE.norm>
-1.33685

>  <RMSD>
4.208

$$$$
ligand
 OpenBabel02271912143D
libRbt.so/2013.1/901 2013/11/27
 13 14  0  0  0  0  0  0  0  0999 V2000
   37.3721   35.0254   24.9410 N   0  0  0  0  0  0  0  0  0  0  0  0
   37.6786   34.4350   26.1806 C   0  0  0  0  0  0  0  0  0  0  0  0
   38.8429   34.8659   26.8026 N   0  0  0  0  0  0  0  0  0  0  0  0
   36.9557   33.4685   26.7962 N   0  0  0  0  0  0  0  0  0  0  0  0
   35.8335   33.1055   26.0578 C   0  0  0  0  0  0  0  0  0  0  0  0
   35.4415   33.6473   24.8276 C   0  0  0  0  0  0  0  0  0  0  0  0
   36.2082   34.6434   24.2053 C   0  0  0  0  0  0  0  0  0  0  0  0
   35.9835   35.1811   23.1309 O   0  0  0  0  0  0  0  0  0  0  0  0
   34.2498   33.0142   24.4060 C   0  0  0  0  0  0  0  0  0  0  0  0
   33.9246   32.0959   25.3922 C   0  0  0  0  0  0  0  0  0  0  0  0
   34.9000   32.1515   26.4196 N   0  0  0  0  0  0  0  0  0  0  0  0
   33.5614   33.3206   23.1227 C   0  0  0  0  0  0  0  0  0  0  0  0
   32.8183   32.1489   22.6332 N   0  0  0  0  0  0  0  0  0  0  0  0
  1  2  1  0  0  0  0
  1  7  1  0  0  0  0
  2  3  1  0  0  0  0
  2  4  2  0  0  0  0
  4  5  1  0  0  0  0
  5  6  2  0  0  0  0
  5 11  1  0  0  0  0
  6  7  1  0  0  0  0
  6  9  1  0  0  0  0
  7  8  2  0  0  0  0
  9 10  2  0  0  0  0
  9 12  1  0  0  0  0
 10 11  1  0  0  0  0
 12 13  1  0  0  0  0
M  END
>  <CHROM.1>
151.59898934,35.68619565,33.65057715,24.95888326,-0.23347972,-0.60831421
-1.00303959

>  <Name>
ligand

>  <RI>
0

>  <Rbt.Current_Directory>
/home/itssahil/PROJECTS/Mol_Feturizer/Test_systems_manuscript/rnas/3q50

>  <Rbt.Executable>
rbdock ($Id: //depot/dev/client3/rdock/2013.1/src/exe/rbdock.cxx#4 $)

>  <Rbt.Library>
libRbt.so (2013.1, Build901 2013/11/27)

>  <Rbt.Parameter_File>
/export/apps/rDock/src/rDock_2013.1_src/data/scripts/dock_solv.prm

>  <Rbt.Receptor>
prm/pocket_docking_7.prm

>  <SCORE>
-17.3793

>  <SCORE.INTER>
-17.3852

>  <SCORE.INTER.CONST>
1

>  <SCORE.INTER.POLAR>
0

>  <SCORE.INTER.ROT>
1

>  <SCORE.INTER.SOLV>
18.5115

>  <SCORE.INTER.VDW>
-22.0273

>  <SCORE.INTER.norm>
-1.33733

>  <SCORE.INTRA>
0.00595952

>  <SCORE.INTRA.DIHEDRAL>
0.0831763

>  <SCORE.INTRA.DIHEDRAL.0>
1.65305

>  <SCORE.INTRA.POLAR>
0

>  <SCORE.INTRA.POLAR.0>
0

>  <SCORE.INTRA.REPUL>
0

>  <SCORE.INTRA.REPUL.0>
0

>  <SCORE.INTRA.SOLV>
0.00159316

>  <SCORE.INTRA.SOLV.lig_0>
-46.9527

>  <SCORE.INTRA.VDW>
-0.0364252

>  <SCORE.INTRA.VDW.0>
-0.177978

>  <SCORE.INTRA.norm>
0.000458425

>  <SCORE.RESTR>
0

>  <SCORE.RESTR.CAVITY>
0

>  <SCORE.RESTR.norm>
0

>  <SCORE.SYSTEM>
0

>  <SCORE.SYSTEM.CONST>
0

>  <SCORE.SYSTEM.DIHEDRAL>
0

>  <SCORE.SYSTEM.SOLV>
0

>  <SCORE.SYSTEM.norm>
0

>  <SCORE.heavy>
13

>  <SCORE.norm>
-1.33687

>  <RMSD>
4.208

$$$$
ligand
 OpenBabel02271912143D
libRbt.so/2013.1/901 2013/11/27
 13 14  0  0  0  0  0  0  0  0999 V2000
   37.3776   35.0347   24.9505 N   0  0  0  0  0  0  0  0  0  0  0  0
   37.6948   34.4339   26.1825 C   0  0  0  0  0  0  0  0  0  0  0  0
   38.8612   34.8640   26.8010 N   0  0  0  0  0  0  0  0  0  0  0  0
   36.9801   33.4583   26.7935 N   0  0  0  0  0  0  0  0  0  0  0  0
   35.8547   33.0974   26.0589 C   0  0  0  0  0  0  0  0  0  0  0  0
   35.4524   33.6491   24.8365 C   0  0  0  0  0  0  0  0  0  0  0  0
   36.2106   34.6545   24.2189 C   0  0  0  0  0  0  0  0  0  0  0  0
   35.9766   35.2014   23.1511 O   0  0  0  0  0  0  0  0  0  0  0  0
   34.2607   33.0148   24.4167 C   0  0  0  0  0  0  0  0  0  0  0  0
   33.9460   32.0858   25.3962 C   0  0  0  0  0  0  0  0  0  0  0  0
   34.9278   32.1359   26.4177 N   0  0  0  0  0  0  0  0  0  0  0  0
   33.5626   33.3304   23.1408 C   0  0  0  0  0  0  0  0  0  0  0  0
   32.8339   32.1557   22.6371 N   0  0  0  0  0  0  0  0  0  0  0  0
  1  2  1  0  0  0  0
  1  7  1  0  0  0  0
  2  3  1  0  0  0  0
  2  4  2  0  0  0  0
  4  5  1  0  0  0  0
  5  6  2  0  0  0  0
  5 11  1  0  0  0  0
  6  7  1  0  0  0  0
  6  9  1  0  0  0  0
  7  8  2  0  0  0  0
  9 10  2  0  0  0  0
  9 12  1  0  0  0  0
 10 11  1  0  0  0  0
 12 13  1  0  0  0  0
M  END
>  <CHROM.1>
150.95780391,35.69890027,33.65192641,24.96562753,-0.22481457,-0.60933341
-0.98863594

>  <Name>
ligand

>  <RI>
0

>  <Rbt.Current_Directory>
/home/itssahil/PROJECTS/Mol_Feturizer/Test_systems_manuscript/rnas/3q50

>  <Rbt.Executable>
rbdock ($Id: //depot/dev/client3/rdock/2013.1/src/exe/rbdock.cxx#4 $)

>  <Rbt.Library>
libRbt.so (2013.1, Build901 2013/11/27)

>  <Rbt.Parameter_File>
/export/apps/rDock/src/rDock_2013.1_src/data/scripts/dock_solv.prm

>  <Rbt.Receptor>
prm/pocket_docking_7.prm

>  <SCORE>
-17.3764

>  <SCORE.INTER>
-17.3807

>  <SCORE.INTER.CONST>
1

>  <SCORE.INTER.POLAR>
0

>  <SCORE.INTER.ROT>
1

>  <SCORE.INTER.SOLV>
18.4103

>  <SCORE.INTER.VDW>
-21.9906

>  <SCORE.INTER.norm>
-1.33698

>  <SCORE.INTRA>
0.0043187

>  <SCORE.INTRA.DIHEDRAL>
0.0833672

>  <SCORE.INTRA.DIHEDRAL.0>
1.65305

>  <SCORE.INTRA.POLAR>
0

>  <SCORE.INTRA.POLAR.0>
0

>  <SCORE.INTRA.REPUL>
0

>  <SCORE.INTRA.REPUL.0>
0

>  <SCORE.INTRA.SOLV>
0.00153441

>  <SCORE.INTRA.SOLV.lig_0>
-46.9527

>  <SCORE.INTRA.VDW>
-0.0381321

>  <SCORE.INTRA.VDW.0>
-0.177978

>  <SCORE.INTRA.norm>
0.000332207

>  <SCORE.RESTR>
0

>  <SCORE.RESTR.CAVITY>
0

>  <SCORE.RESTR.norm>
0

>  <SCORE.SYSTEM>
0

>  <SCORE.SYSTEM.CONST>
0

>  <SCORE.SYSTEM.DIHEDRAL>
0

>  <SCORE.SYSTEM.SOLV>
0

>  <SCORE.SYSTEM.norm>
0

>  <SCORE.heavy>
13

>  <SCORE.norm>
-1.33665

>  <RMSD>
4.208

$$$$
ligand
 OpenBabel02271912143D
libRbt.so/2013.1/901 2013/11/27
 13 14  0  0  0  0  0  0  0  0999 V2000
   37.3701   35.0342   24.9405 N   0  0  0  0  0  0  0  0  0  0  0  0
   37.6826   34.4420   26.1779 C   0  0  0  0  0  0  0  0  0  0  0  0
   38.8478   34.8749   26.7968 N   0  0  0  0  0  0  0  0  0  0  0  0
   36.9646   33.4721   26.7939 N   0  0  0  0  0  0  0  0  0  0  0  0
   35.8408   33.1075   26.0585 C   0  0  0  0  0  0  0  0  0  0  0  0
   35.4431   33.6508   24.8308 C   0  0  0  0  0  0  0  0  0  0  0  0
   36.2048   34.6504   24.2081 C   0  0  0  0  0  0  0  0  0  0  0  0
   35.9750   35.1898   23.1356 O   0  0  0  0  0  0  0  0  0  0  0  0
   34.2517   33.0153   24.4119 C   0  0  0  0  0  0  0  0  0  0  0  0
   33.9325   32.0940   25.3973 C   0  0  0  0  0  0  0  0  0  0  0  0
   34.9113   32.1501   26.4214 N   0  0  0  0  0  0  0  0  0  0  0  0
   33.5581   33.3225   23.1316 C   0  0  0  0  0  0  0  0  0  0  0  0
   32.8133   32.1510   22.6443 N   0  0  0  0  0  0  0  0  0  0  0  0
  1  2  1  0  0  0  0
  1  7  1  0  0  0  0
  2  3  1  0  0  0  0
  2  4  2  0  0  0  0
  4  5  1  0  0  0  0
  5  6  2  0  0  0  0
  5 11  1  0  0  0  0
  6  7  1  0  0  0  0
  6  9  1  0  0  0  0
  7  8  2  0  0  0  0
  9 10  2  0  0  0  0
  9 12  1  0  0  0  0
 10 11  1  0  0  0  0
 12 13  1  0  0  0  0
M  END
>  <CHROM.1>
151.77199039,35.68797227,33.65465544,24.96144514,-0.22785082,-0.60862067
-0.99764759

>  <Name>
ligand

>  <RI>
0

>  <Rbt.Current_Directory>
/home/itssahil/PROJECTS/Mol_Feturizer/Test_systems_manuscript/rnas/3q50

>  <Rbt.Executable>
rbdock ($Id: //depot/dev/client3/rdock/2013.1/src/exe/rbdock.cxx#4 $)

>  <Rbt.Library>
libRbt.so (2013.1, Build901 2013/11/27)

>  <Rbt.Parameter_File>
/export/apps/rDock/src/rDock_2013.1_src/data/scripts/dock_solv.prm

>  <Rbt.Receptor>
prm/pocket_docking_8.prm

>  <SCORE>
-17.3806

>  <SCORE.INTER>
-17.387

>  <SCORE.INTER.CONST>
1

>  <SCORE.INTER.POLAR>
0

>  <SCORE.INTER.ROT>
1

>  <SCORE.INTER.SOLV>
18.4992

>  <SCORE.INTER.VDW>
-22.0244

>  <SCORE.INTER.norm>
-1.33746

>  <SCORE.INTRA>
0.00639407

>  <SCORE.INTRA.DIHEDRAL>
0.0831139

>  <SCORE.INTRA.DIHEDRAL.0>
1.65305

>  <SCORE.INTRA.POLAR>
0

>  <SCORE.INTRA.POLAR.0>
0

>  <SCORE.INTRA.REPUL>
0

>  <SCORE.INTRA.REPUL.0>
0

>  <SCORE.INTRA.SOLV>
0.00160879

>  <SCORE.INTRA.SOLV.lig_0>
-46.9527

>  <SCORE.INTRA.VDW>
-0.0359673

>  <SCORE.INTRA.VDW.0>
-0.177978

>  <SCORE.INTRA.norm>
0.000491852

>  <SCORE.RESTR>
0

>  <SCORE.RESTR.CAVITY>
0

>  <SCORE.RESTR.norm>
0

>  <SCORE.SYSTEM>
0

>  <SCORE.SYSTEM.CONST>
0

>  <SCORE.SYSTEM.DIHEDRAL>
0

>  <SCORE.SYSTEM.SOLV>
0

>  <SCORE.SYSTEM.norm>
0

>  <SCORE.heavy>
13

>  <SCORE.norm>
-1.33697

>  <RMSD>
4.208

$$$$
ligand
 OpenBabel02271912143D
libRbt.so/2013.1/901 2013/11/27
 13 14  0  0  0  0  0  0  0  0999 V2000
   37.3694   34.9787   24.9542 N   0  0  0  0  0  0  0  0  0  0  0  0
   37.6823   34.3476   26.1721 C   0  0  0  0  0  0  0  0  0  0  0  0
   38.8497   34.7578   26.8020 N   0  0  0  0  0  0  0  0  0  0  0  0
   36.9626   33.3610   26.7590 N   0  0  0  0  0  0  0  0  0  0  0  0
   35.8366   33.0224   26.0146 C   0  0  0  0  0  0  0  0  0  0  0  0
   35.4384   33.6047   24.8050 C   0  0  0  0  0  0  0  0  0  0  0  0
   36.2019   34.6210   24.2123 C   0  0  0  0  0  0  0  0  0  0  0  0
   35.9717   35.1940   23.1575 O   0  0  0  0  0  0  0  0  0  0  0  0
   34.2445   32.9857   24.3688 C   0  0  0  0  0  0  0  0  0  0  0  0
   33.9244   32.0351   25.3256 C   0  0  0  0  0  0  0  0  0  0  0  0
   34.9051   32.0568   26.3493 N   0  0  0  0  0  0  0  0  0  0  0  0
   33.5496   33.3343   23.0998 C   0  0  0  0  0  0  0  0  0  0  0  0
   32.7828   32.1872   22.5894 N   0  0  0  0  0  0  0  0  0  0  0  0
  1  2  1  0  0  0  0
  1  7  1  0  0  0  0
  2  3  1  0  0  0  0
  2  4  2  0  0  0  0
  4  5  1  0  0  0  0
  5  6  2  0  0  0  0
  5 11  1  0  0  0  0
  6  7  1  0  0  0  0
  6  9  1  0  0  0  0
  7  8  2  0  0  0  0
  9 10  2  0  0  0  0
  9 12  1  0  0  0  0
 10 11  1  0  0  0  0
 12 13  1  0  0  0  0
M  END
>  <CHROM.1>
152.70916647,35.68199911,33.60429715,24.93626189,-0.22669466,-0.60409846
-0.96583837

>  <Name>
ligand

>  <RI>
0

>  <Rbt.Current_Directory>
/home/itssahil/PROJECTS/Mol_Feturizer/Test_systems_manuscript/rnas/3q50

>  <Rbt.Executable>
rbdock ($Id: //depot/dev/client3/rdock/2013.1/src/exe/rbdock.cxx#4 $)

>  <Rbt.Library>
libRbt.so (2013.1, Build901 2013/11/27)

>  <Rbt.Parameter_File>
/export/apps/rDock/src/rDock_2013.1_src/data/scripts/dock_solv.prm

>  <Rbt.Receptor>
prm/pocket_docking_2.prm

>  <SCORE>
-17.3252

>  <SCORE.INTER>
-17.3339

>  <SCORE.INTER.CONST>
1

>  <SCORE.INTER.POLAR>
0

>  <SCORE.INTER.ROT>
1

>  <SCORE.INTER.SOLV>
18.4235

>  <SCORE.INTER.VDW>
-21.9638

>  <SCORE.INTER.norm>
-1.33338

>  <SCORE.INTRA>
0.00868646

>  <SCORE.INTRA.DIHEDRAL>
0.082696

>  <SCORE.INTRA.DIHEDRAL.0>
1.65305

>  <SCORE.INTRA.POLAR>
0

>  <SCORE.INTRA.POLAR.0>
0

>  <SCORE.INTRA.REPUL>
0

>  <SCORE.INTRA.REPUL.0>
0

>  <SCORE.INTRA.SOLV>
0.00169169

>  <SCORE.INTRA.SOLV.lig_0>
-46.9527

>  <SCORE.INTRA.VDW>
-0.0335074

>  <SCORE.INTRA.VDW.0>
-0.177978

>  <SCORE.INTRA.norm>
0.00066819

>  <SCORE.RESTR>
0

>  <SCORE.RESTR.CAVITY>
0

>  <SCORE.RESTR.norm>
0

>  <SCORE.SYSTEM>
0

>  <SCORE.SYSTEM.CONST>
0

>  <SCORE.SYSTEM.DIHEDRAL>
0

>  <SCORE.SYSTEM.SOLV>
0

>  <SCORE.SYSTEM.norm>
0

>  <SCORE.heavy>
13

>  <SCORE.norm>
-1.33271

>  <RMSD>
4.209

$$$$
ligand
 OpenBabel02271912143D
libRbt.so/2013.1/901 2013/11/27
 13 14  0  0  0  0  0  0  0  0999 V2000
   37.3702   35.0239   24.9498 N   0  0  0  0  0  0  0  0  0  0  0  0
   37.6741   34.4326   26.1897 C   0  0  0  0  0  0  0  0  0  0  0  0
   38.8364   34.8639   26.8151 N   0  0  0  0  0  0  0  0  0  0  0  0
   36.9504   33.4649   26.8025 N   0  0  0  0  0  0  0  0  0  0  0  0
   35.8304   33.1016   26.0608 C   0  0  0  0  0  0  0  0  0  0  0  0
   35.4412   33.6442   24.8301 C   0  0  0  0  0  0  0  0  0  0  0  0
   36.2086   34.6415   24.2108 C   0  0  0  0  0  0  0  0  0  0  0  0
   35.9863   35.1800   23.1363 O   0  0  0  0  0  0  0  0  0  0  0  0
   34.2511   33.0105   24.4049 C   0  0  0  0  0  0  0  0  0  0  0  0
   33.9241   32.0910   25.3894 C   0  0  0  0  0  0  0  0  0  0  0  0
   34.8969   32.1464   26.4194 N   0  0  0  0  0  0  0  0  0  0  0  0
   33.5657   33.3175   23.1201 C   0  0  0  0  0  0  0  0  0  0  0  0
   32.8135   32.1500   22.6347 N   0  0  0  0  0  0  0  0  0  0  0  0
  1  2  1  0  0  0  0
  1  7  1  0  0  0  0
  2  3  1  0  0  0  0
  2  4  2  0  0  0  0
  4  5  1  0  0  0  0
  5  6  2  0  0  0  0
  5 11  1  0  0  0  0
  6  7  1  0  0  0  0
  6  9  1  0  0  0  0
  7  8  2  0  0  0  0
  9 10  2  0  0  0  0
  9 12  1  0  0  0  0
 10 11  1  0  0  0  0
 12 13  1  0  0  0  0
M  END
>  <CHROM.1>
152.19182226,35.68458479,33.64793796,24.96265353,-0.23474491,-0.60963275
-1.00274596

>  <Name>
ligand

>  <RI>
0

>  <Rbt.Current_Directory>
/home/itssahil/PROJECTS/Mol_Feturizer/Test_systems_manuscript/rnas/3q50

>  <Rbt.Executable>
rbdock ($Id: //depot/dev/client3/rdock/2013.1/src/exe/rbdock.cxx#4 $)

>  <Rbt.Library>
libRbt.so (2013.1, Build901 2013/11/27)

>  <Rbt.Parameter_File>
/export/apps/rDock/src/rDock_2013.1_src/data/scripts/dock_solv.prm

>  <Rbt.Receptor>
prm/pocket_docking_2.prm

>  <SCORE>
-17.3766

>  <SCORE.INTER>
-17.384

>  <SCORE.INTER.CONST>
1

>  <SCORE.INTER.POLAR>
0

>  <SCORE.INTER.ROT>
1

>  <SCORE.INTER.SOLV>
18.5177

>  <SCORE.INTER.VDW>
-22.0286

>  <SCORE.INTER.norm>
-1.33723

>  <SCORE.INTRA>
0.00743397

>  <SCORE.INTRA.DIHEDRAL>
0.0829433

>  <SCORE.INTRA.DIHEDRAL.0>
1.65305

>  <SCORE.INTRA.POLAR>
0

>  <SCORE.INTRA.POLAR.0>
0

>  <SCORE.INTRA.REPUL>
0

>  <SCORE.INTRA.REPUL.0>
0

>  <SCORE.INTRA.SOLV>
0.00164631

>  <SCORE.INTRA.SOLV.lig_0>
-46.9527

>  <SCORE.INTRA.VDW>
-0.0348608

>  <SCORE.INTRA.VDW.0>
-0.177978

>  <SCORE.INTRA.norm>
0.000571844

>  <SCORE.RESTR>
0

>  <SCORE.RESTR.CAVITY>
0

>  <SCORE.RESTR.norm>
0

>  <SCORE.SYSTEM>
0

>  <SCORE.SYSTEM.CONST>
0

>  <SCORE.SYSTEM.DIHEDRAL>
0

>  <SCORE.SYSTEM.SOLV>
0

>  <SCORE.SYSTEM.norm>
0

>  <SCORE.heavy>
13

>  <SCORE.norm>
-1.33666

>  <RMSD>
4.209

$$$$
ligand
 OpenBabel02271912143D
libRbt.so/2013.1/901 2013/11/27
 13 14  0  0  0  0  0  0  0  0999 V2000
   37.3829   35.0295   24.9581 N   0  0  0  0  0  0  0  0  0  0  0  0
   37.7036   34.4225   26.1861 C   0  0  0  0  0  0  0  0  0  0  0  0
   38.8727   34.8483   26.8025 N   0  0  0  0  0  0  0  0  0  0  0  0
   36.9899   33.4450   26.7950 N   0  0  0  0  0  0  0  0  0  0  0  0
   35.8615   33.0889   26.0627 C   0  0  0  0  0  0  0  0  0  0  0  0
   35.4556   33.6469   24.8443 C   0  0  0  0  0  0  0  0  0  0  0  0
   36.2129   34.6542   24.2288 C   0  0  0  0  0  0  0  0  0  0  0  0
   35.9759   35.2064   23.1644 O   0  0  0  0  0  0  0  0  0  0  0  0
   34.2617   33.0160   24.4256 C   0  0  0  0  0  0  0  0  0  0  0  0
   33.9492   32.0827   25.4019 C   0  0  0  0  0  0  0  0  0  0  0  0
   34.9347   32.1268   26.4201 N   0  0  0  0  0  0  0  0  0  0  0  0
   33.5595   33.3384   23.1537 C   0  0  0  0  0  0  0  0  0  0  0  0
   32.7971   32.1782   22.6667 N   0  0  0  0  0  0  0  0  0  0  0  0
  1  2  1  0  0  0  0
  1  7  1  0  0  0  0
  2  3  1  0  0  0  0
  2  4  2  0  0  0  0
  4  5  1  0  0  0  0
  5  6  2  0  0  0  0
  5 11  1  0  0  0  0
  6  7  1  0  0  0  0
  6  9  1  0  0  0  0
  7  8  2  0  0  0  0
  9 10  2  0  0  0  0
  9 12  1  0  0  0  0
 10 11  1  0  0  0  0
 12 13  1  0  0  0  0
M  END
>  <CHROM.1>
152.54051449,35.70008638,33.64966524,24.97416427,-0.21989312,-0.60422671
-0.98090441

>  <Name>
ligand

>  <RI>
0

>  <Rbt.Current_Directory>
/home/itssahil/PROJECTS/Mol_Feturizer/Test_systems_manuscript/rnas/3q50

>  <Rbt.Executable>
rbdock ($Id: //depot/dev/client3/rdock/2013.1/src/exe/rbdock.cxx#4 $)

>  <Rbt.Library>
libRbt.so (2013.1, Build901 2013/11/27)

>  <Rbt.Parameter_File>
/export/apps/rDock/src/rDock_2013.1_src/data/scripts/dock_solv.prm

>  <Rbt.Receptor>
prm/pocket_docking_2.prm

>  <SCORE>
-17.331

>  <SCORE.INTER>
-17.3393

>  <SCORE.INTER.CONST>
1

>  <SCORE.INTER.POLAR>
0

>  <SCORE.INTER.ROT>
1

>  <SCORE.INTER.SOLV>
18.3898

>  <SCORE.INTER.VDW>
-21.9561

>  <SCORE.INTER.norm>
-1.33379

>  <SCORE.INTRA>
0.0082817

>  <SCORE.INTRA.DIHEDRAL>
0.0827811

>  <SCORE.INTRA.DIHEDRAL.0>
1.65305

>  <SCORE.INTRA.POLAR>
0

>  <SCORE.INTRA.POLAR.0>
0

>  <SCORE.INTRA.REPUL>
0

>  <SCORE.INTRA.REPUL.0>
0

>  <SCORE.INTRA.SOLV>
0.001677

>  <SCORE.INTRA.SOLV.lig_0>
-46.9527

>  <SCORE.INTRA.VDW>
-0.0339474

>  <SCORE.INTRA.VDW.0>
-0.177978

>  <SCORE.INTRA.norm>
0.000637054

>  <SCORE.RESTR>
0

>  <SCORE.RESTR.CAVITY>
0

>  <SCORE.RESTR.norm>
0

>  <SCORE.SYSTEM>
0

>  <SCORE.SYSTEM.CONST>
0

>  <SCORE.SYSTEM.DIHEDRAL>
0

>  <SCORE.SYSTEM.SOLV>
0

>  <SCORE.SYSTEM.norm>
0

>  <SCORE.heavy>
13

>  <SCORE.norm>
-1.33315

>  <RMSD>
4.209

$$$$
ligand
 OpenBabel02271912143D
libRbt.so/2013.1/901 2013/11/27
 13 14  0  0  0  0  0  0  0  0999 V2000
   37.3861   35.0438   24.9652 N   0  0  0  0  0  0  0  0  0  0  0  0
   37.7043   34.4340   26.1924 C   0  0  0  0  0  0  0  0  0  0  0  0
   38.8699   34.8615   26.8143 N   0  0  0  0  0  0  0  0  0  0  0  0
   36.9915   33.4524   26.7958 N   0  0  0  0  0  0  0  0  0  0  0  0
   35.8668   33.0951   26.0583 C   0  0  0  0  0  0  0  0  0  0  0  0
   35.4635   33.6556   24.8402 C   0  0  0  0  0  0  0  0  0  0  0  0
   36.2198   34.6672   24.2305 C   0  0  0  0  0  0  0  0  0  0  0  0
   35.9848   35.2220   23.1671 O   0  0  0  0  0  0  0  0  0  0  0  0
   34.2730   33.0224   24.4154 C   0  0  0  0  0  0  0  0  0  0  0  0
   33.9600   32.0851   25.3876 C   0  0  0  0  0  0  0  0  0  0  0  0
   34.9417   32.1291   26.4095 N   0  0  0  0  0  0  0  0  0  0  0  0
   33.5743   33.3465   23.1420 C   0  0  0  0  0  0  0  0  0  0  0  0
   32.8052   32.1901   22.6565 N   0  0  0  0  0  0  0  0  0  0  0  0
  1  2  1  0  0  0  0
  1  7  1  0  0  0  0
  2  3  1  0  0  0  0
  2  4  2  0  0  0  0
  4  5  1  0  0  0  0
  5  6  2  0  0  0  0
  5 11  1  0  0  0  0
  6  7  1  0  0  0  0
  6  9  1  0  0  0  0
  7  8  2  0  0  0  0
  9 10  2  0  0  0  0
  9 12  1  0  0  0  0
 10 11  1  0  0  0  0
 12 13  1  0  0  0  0
M  END
>  <CHROM.1>
153.17071929,35.70651854,33.65912701,24.97160860,-0.22052760,-0.60791544
-0.97808752

>  <Name>
ligand

>  <RI>
0

>  <Rbt.Current_Directory>
/home/itssahil/PROJECTS/Mol_Feturizer/Test_systems_manuscript/rnas/3q50

>  <Rbt.Executable>
rbdock ($Id: //depot/dev/client3/rdock/2013.1/src/exe/rbdock.cxx#4 $)

>  <Rbt.Library>
libRbt.so (2013.1, Build901 2013/11/27)

>  <Rbt.Parameter_File>
/export/apps/rDock/src/rDock_2013.1_src/data/scripts/dock_solv.prm

>  <Rbt.Receptor>
prm/pocket_docking_3.prm

>  <SCORE>
-17.3329

>  <SCORE.INTER>
-17.3427

>  <SCORE.INTER.CONST>
1

>  <SCORE.INTER.POLAR>
0

>  <SCORE.INTER.ROT>
1

>  <SCORE.INTER.SOLV>
18.3763

>  <SCORE.INTER.VDW>
-21.9539

>  <SCORE.INTER.norm>
-1.33405

>  <SCORE.INTRA>
0.00977649

>  <SCORE.INTRA.DIHEDRAL>
0.0824407

>  <SCORE.INTRA.DIHEDRAL.0>
1.65305

>  <SCORE.INTRA.POLAR>
0

>  <SCORE.INTRA.POLAR.0>
0

>  <SCORE.INTRA.REPUL>
0

>  <SCORE.INTRA.REPUL.0>
0

>  <SCORE.INTRA.SOLV>
0.00173134

>  <SCORE.INTRA.SOLV.lig_0>
-46.9527

>  <SCORE.INTRA.VDW>
-0.0323096

>  <SCORE.INTRA.VDW.0>
-0.177978

>  <SCORE.INTRA.norm>
0.000752038

>  <SCORE.RESTR>
0

>  <SCORE.RESTR.CAVITY>
0

>  <SCORE.RESTR.norm>
0

>  <SCORE.SYSTEM>
0

>  <SCORE.SYSTEM.CONST>
0

>  <SCORE.SYSTEM.DIHEDRAL>
0

>  <SCORE.SYSTEM.SOLV>
0

>  <SCORE.SYSTEM.norm>
0

>  <SCORE.heavy>
13

>  <SCORE.norm>
-1.3333

>  <RMSD>
4.209

$$$$
ligand
 OpenBabel02271912143D
libRbt.so/2013.1/901 2013/11/27
 13 14  0  0  0  0  0  0  0  0999 V2000
   37.3856   35.0425   24.9699 N   0  0  0  0  0  0  0  0  0  0  0  0
   37.7090   34.4282   26.1936 C   0  0  0  0  0  0  0  0  0  0  0  0
   38.8762   34.8548   26.8130 N   0  0  0  0  0  0  0  0  0  0  0  0
   36.9997   33.4432   26.7955 N   0  0  0  0  0  0  0  0  0  0  0  0
   35.8729   33.0872   26.0606 C   0  0  0  0  0  0  0  0  0  0  0  0
   35.4645   33.6521   24.8462 C   0  0  0  0  0  0  0  0  0  0  0  0
   36.2173   34.6672   24.2378 C   0  0  0  0  0  0  0  0  0  0  0  0
   35.9778   35.2258   23.1775 O   0  0  0  0  0  0  0  0  0  0  0  0
   34.2734   33.0188   24.4230 C   0  0  0  0  0  0  0  0  0  0  0  0
   33.9651   32.0772   25.3925 C   0  0  0  0  0  0  0  0  0  0  0  0
   34.9504   32.1185   26.4111 N   0  0  0  0  0  0  0  0  0  0  0  0
   33.5698   33.3471   23.1534 C   0  0  0  0  0  0  0  0  0  0  0  0
   32.8068   32.1892   22.6619 N   0  0  0  0  0  0  0  0  0  0  0  0
  1  2  1  0  0  0  0
  1  7  1  0  0  0  0
  2  3  1  0  0  0  0
  2  4  2  0  0  0  0
  4  5  1  0  0  0  0
  5  6  2  0  0  0  0
  5 11  1  0  0  0  0
  6  7  1  0  0  0  0
  6  9  1  0  0  0  0
  7  8  2  0  0  0  0
  9 10  2  0  0  0  0
  9 12  1  0  0  0  0
 10 11  1  0  0  0  0
 12 13  1  0  0  0  0
M  END
>  <CHROM.1>
152.84903504,35.70848750,33.65519670,24.97637102,-0.21644528,-0.60754144
-0.97178752

>  <Name>
ligand

>  <RI>
0

>  <Rbt.Current_Directory>
/home/itssahil/PROJECTS/Mol_Feturizer/Test_systems_manuscript/rnas/3q50

>  <Rbt.Executable>
rbdock ($Id: //depot/dev/client3/rdock/2013.1/src/exe/rbdock.cxx#4 $)

>  <Rbt.Library>
libRbt.so (2013.1, Build901 2013/11/27)

>  <Rbt.Parameter_File>
/export/apps/rDock/src/rDock_2013.1_src/data/scripts/dock_solv.prm

>  <Rbt.Receptor>
prm/pocket_docking_3.prm

>  <SCORE>
-17.3258

>  <SCORE.INTER>
-17.3348

>  <SCORE.INTER.CONST>
1

>  <SCORE.INTER.POLAR>
0

>  <SCORE.INTER.ROT>
1

>  <SCORE.INTER.SOLV>
18.3437

>  <SCORE.INTER.VDW>
-21.9378

>  <SCORE.INTER.norm>
-1.33345

>  <SCORE.INTRA>
0.00901953

>  <SCORE.INTRA.DIHEDRAL>
0.082622

>  <SCORE.INTRA.DIHEDRAL.0>
1.65305

>  <SCORE.INTRA.POLAR>
0

>  <SCORE.INTRA.POLAR.0>
0

>  <SCORE.INTRA.REPUL>
0

>  <SCORE.INTRA.REPUL.0>
0

>  <SCORE.INTRA.SOLV>
0.00170379

>  <SCORE.INTRA.SOLV.lig_0>
-46.9527

>  <SCORE.INTRA.VDW>
-0.0331434

>  <SCORE.INTRA.VDW.0>
-0.177978

>  <SCORE.INTRA.norm>
0.00069381

>  <SCORE.RESTR>
0

>  <SCORE.RESTR.CAVITY>
0

>  <SCORE.RESTR.norm>
0

>  <SCORE.SYSTEM>
0

>  <SCORE.SYSTEM.CONST>
0

>  <SCORE.SYSTEM.DIHEDRAL>
0

>  <SCORE.SYSTEM.SOLV>
0

>  <SCORE.SYSTEM.norm>
0

>  <SCORE.heavy>
13

>  <SCORE.norm>
-1.33275

>  <RMSD>
4.209

$$$$
ligand
 OpenBabel02271912143D
libRbt.so/2013.1/901 2013/11/27
 13 14  0  0  0  0  0  0  0  0999 V2000
   37.4008   35.0039   24.9533 N   0  0  0  0  0  0  0  0  0  0  0  0
   37.7047   34.4038   26.1890 C   0  0  0  0  0  0  0  0  0  0  0  0
   38.8741   34.8208   26.8108 N   0  0  0  0  0  0  0  0  0  0  0  0
   36.9746   33.4402   26.8007 N   0  0  0  0  0  0  0  0  0  0  0  0
   35.8476   33.0914   26.0627 C   0  0  0  0  0  0  0  0  0  0  0  0
   35.4578   33.6436   24.8364 C   0  0  0  0  0  0  0  0  0  0  0  0
   36.2320   34.6364   24.2181 C   0  0  0  0  0  0  0  0  0  0  0  0
   36.0098   35.1821   23.1473 O   0  0  0  0  0  0  0  0  0  0  0  0
   34.2596   33.0235   24.4139 C   0  0  0  0  0  0  0  0  0  0  0  0
   33.9284   32.1026   25.3956 C   0  0  0  0  0  0  0  0  0  0  0  0
   34.9065   32.1437   26.4212 N   0  0  0  0  0  0  0  0  0  0  0  0
   33.5712   33.3433   23.1338 C   0  0  0  0  0  0  0  0  0  0  0  0
   32.8156   32.1815   22.6401 N   0  0  0  0  0  0  0  0  0  0  0  0
  1  2  1  0  0  0  0
  1  7  1  0  0  0  0
  2  3  1  0  0  0  0
  2  4  2  0  0  0  0
  4  5  1  0  0  0  0
  5  6  2  0  0  0  0
  5 11  1  0  0  0  0
  6  7  1  0  0  0  0
  6  9  1  0  0  0  0
  7  8  2  0  0  0  0
  9 10  2  0  0  0  0
  9 12  1  0  0  0  0
 10 11  1  0  0  0  0
 12 13  1  0  0  0  0
M  END
>  <CHROM.1>
151.65855570,35.70272783,33.64401107,24.96726534,-0.23699657,-0.59959345
-0.99937379

>  <Name>
ligand

>  <RI>
0

>  <Rbt.Current_Directory>
/home/itssahil/PROJECTS/Mol_Feturizer/Test_systems_manuscript/rnas/3q50

>  <Rbt.Executable>
rbdock ($Id: //depot/dev/client3/rdock/2013.1/src/exe/rbdock.cxx#4 $)

>  <Rbt.Library>
libRbt.so (2013.1, Build901 2013/11/27)

>  <Rbt.Parameter_File>
/export/apps/rDock/src/rDock_2013.1_src/data/scripts/dock_solv.prm

>  <Rbt.Receptor>
prm/pocket_docking_3.prm

>  <SCORE>
-17.3169

>  <SCORE.INTER>
-17.323

>  <SCORE.INTER.CONST>
1

>  <SCORE.INTER.POLAR>
0

>  <SCORE.INTER.ROT>
1

>  <SCORE.INTER.SOLV>
18.3778

>  <SCORE.INTER.VDW>
-21.9413

>  <SCORE.INTER.norm>
-1.33254

>  <SCORE.INTRA>
0.00610954

>  <SCORE.INTRA.DIHEDRAL>
0.0831553

>  <SCORE.INTRA.DIHEDRAL.0>
1.65305

>  <SCORE.INTRA.POLAR>
0

>  <SCORE.INTRA.POLAR.0>
0

>  <SCORE.INTRA.REPUL>
0

>  <SCORE.INTRA.REPUL.0>
0

>  <SCORE.INTRA.SOLV>
0.00159855

>  <SCORE.INTRA.SOLV.lig_0>
-46.9527

>  <SCORE.INTRA.VDW>
-0.0362674

>  <SCORE.INTRA.VDW.0>
-0.177978

>  <SCORE.INTRA.norm>
0.000469964

>  <SCORE.RESTR>
0

>  <SCORE.RESTR.CAVITY>
0

>  <SCORE.RESTR.norm>
0

>  <SCORE.SYSTEM>
0

>  <SCORE.SYSTEM.CONST>
0

>  <SCORE.SYSTEM.DIHEDRAL>
0

>  <SCORE.SYSTEM.SOLV>
0

>  <SCORE.SYSTEM.norm>
0

>  <SCORE.heavy>
13

>  <SCORE.norm>
-1.33207

>  <RMSD>
4.209

$$$$
ligand
 OpenBabel02271912143D
libRbt.so/2013.1/901 2013/11/27
 13 14  0  0  0  0  0  0  0  0999 V2000
   37.3696   35.0363   24.9468 N   0  0  0  0  0  0  0  0  0  0  0  0
   37.6790   34.4442   26.1849 C   0  0  0  0  0  0  0  0  0  0  0  0
   38.8412   34.8792   26.8080 N   0  0  0  0  0  0  0  0  0  0  0  0
   36.9609   33.4726   26.7981 N   0  0  0  0  0  0  0  0  0  0  0  0
   35.8404   33.1060   26.0587 C   0  0  0  0  0  0  0  0  0  0  0  0
   35.4458   33.6491   24.8299 C   0  0  0  0  0  0  0  0  0  0  0  0
   36.2076   34.6505   24.2102 C   0  0  0  0  0  0  0  0  0  0  0  0
   35.9802   35.1899   23.1372 O   0  0  0  0  0  0  0  0  0  0  0  0
   34.2571   33.0113   24.4067 C   0  0  0  0  0  0  0  0  0  0  0  0
   33.9365   32.0889   25.3906 C   0  0  0  0  0  0  0  0  0  0  0  0
   34.9116   32.1465   26.4181 N   0  0  0  0  0  0  0  0  0  0  0  0
   33.5672   33.3176   23.1242 C   0  0  0  0  0  0  0  0  0  0  0  0
   32.8174   32.1482   22.6395 N   0  0  0  0  0  0  0  0  0  0  0  0
  1  2  1  0  0  0  0
  1  7  1  0  0  0  0
  2  3  1  0  0  0  0
  2  4  2  0  0  0  0
  4  5  1  0  0  0  0
  5  6  2  0  0  0  0
  5 11  1  0  0  0  0
  6  7  1  0  0  0  0
  6  9  1  0  0  0  0
  7  8  2  0  0  0  0
  9 10  2  0  0  0  0
  9 12  1  0  0  0  0
 10 11  1  0  0  0  0
 12 13  1  0  0  0  0
M  END
>  <CHROM.1>
152.24088044,35.68942723,33.65360514,24.96184094,-0.22933298,-0.61154167
-0.99799197

>  <Name>
ligand

>  <RI>
0

>  <Rbt.Current_Directory>
/home/itssahil/PROJECTS/Mol_Feturizer/Test_systems_manuscript/rnas/3q50

>  <Rbt.Executable>
rbdock ($Id: //depot/dev/client3/rdock/2013.1/src/exe/rbdock.cxx#4 $)

>  <Rbt.Library>
libRbt.so (2013.1, Build901 2013/11/27)

>  <Rbt.Parameter_File>
/export/apps/rDock/src/rDock_2013.1_src/data/scripts/dock_solv.prm

>  <Rbt.Receptor>
prm/pocket_docking_3.prm

>  <SCORE>
-17.3764

>  <SCORE.INTER>
-17.384

>  <SCORE.INTER.CONST>
1

>  <SCORE.INTER.POLAR>
0

>  <SCORE.INTER.ROT>
1

>  <SCORE.INTER.SOLV>
18.5043

>  <SCORE.INTER.VDW>
-22.0241

>  <SCORE.INTER.norm>
-1.33723

>  <SCORE.INTRA>
0.00755411

>  <SCORE.INTRA.DIHEDRAL>
0.0829216

>  <SCORE.INTRA.DIHEDRAL.0>
1.65305

>  <SCORE.INTRA.POLAR>
0

>  <SCORE.INTRA.POLAR.0>
0

>  <SCORE.INTRA.REPUL>
0

>  <SCORE.INTRA.REPUL.0>
0

>  <SCORE.INTRA.SOLV>
0.00165065

>  <SCORE.INTRA.SOLV.lig_0>
-46.9527

>  <SCORE.INTRA.VDW>
-0.034732

>  <SCORE.INTRA.VDW.0>
-0.177978

>  <SCORE.INTRA.norm>
0.000581086

>  <SCORE.RESTR>
0

>  <SCORE.RESTR.CAVITY>
0

>  <SCORE.RESTR.norm>
0

>  <SCORE.SYSTEM>
0

>  <SCORE.SYSTEM.CONST>
0

>  <SCORE.SYSTEM.DIHEDRAL>
0

>  <SCORE.SYSTEM.SOLV>
0

>  <SCORE.SYSTEM.norm>
0

>  <SCORE.heavy>
13

>  <SCORE.norm>
-1.33665

>  <RMSD>
4.209

$$$$
ligand
 OpenBabel02271912143D
libRbt.so/2013.1/901 2013/11/27
 13 14  0  0  0  0  0  0  0  0999 V2000
   37.3741   35.0214   24.9409 N   0  0  0  0  0  0  0  0  0  0  0  0
   37.6805   34.4323   26.1812 C   0  0  0  0  0  0  0  0  0  0  0  0
   38.8451   34.8634   26.8025 N   0  0  0  0  0  0  0  0  0  0  0  0
   36.9572   33.4669   26.7980 N   0  0  0  0  0  0  0  0  0  0  0  0
   35.8347   33.1036   26.0602 C   0  0  0  0  0  0  0  0  0  0  0  0
   35.4428   33.6442   24.8294 C   0  0  0  0  0  0  0  0  0  0  0  0
   36.2099   34.6392   24.2059 C   0  0  0  0  0  0  0  0  0  0  0  0
   35.9854   35.1757   23.1309 O   0  0  0  0  0  0  0  0  0  0  0  0
   34.2507   33.0112   24.4088 C   0  0  0  0  0  0  0  0  0  0  0  0
   33.9252   32.0943   25.3961 C   0  0  0  0  0  0  0  0  0  0  0  0
   34.9008   32.1505   26.4233 N   0  0  0  0  0  0  0  0  0  0  0  0
   33.5622   33.3165   23.1252 C   0  0  0  0  0  0  0  0  0  0  0  0
   32.8105   32.1477   22.6422 N   0  0  0  0  0  0  0  0  0  0  0  0
  1  2  1  0  0  0  0
  1  7  1  0  0  0  0
  2  3  1  0  0  0  0
  2  4  2  0  0  0  0
  4  5  1  0  0  0  0
  5  6  2  0  0  0  0
  5 11  1  0  0  0  0
  6  7  1  0  0  0  0
  6  9  1  0  0  0  0
  7  8  2  0  0  0  0
  9 10  2  0  0  0  0
  9 12  1  0  0  0  0
 10 11  1  0  0  0  0
 12 13  1  0  0  0  0
M  END
>  <CHROM.1>
152.01115010,35.68689059,33.64776378,24.96107260,-0.23307637,-0.60724381
-1.00390953

>  <Name>
ligand

>  <RI>
0

>  <Rbt.Current_Directory>
/home/itssahil/PROJECTS/Mol_Feturizer/Test_systems_manuscript/rnas/3q50

>  <Rbt.Executable>
rbdock ($Id: //depot/dev/client3/rdock/2013.1/src/exe/rbdock.cxx#4 $)

>  <Rbt.Library>
libRbt.so (2013.1, Build901 2013/11/27)

>  <Rbt.Parameter_File>
/export/apps/rDock/src/rDock_2013.1_src/data/scripts/dock_solv.prm

>  <Rbt.Receptor>
prm/pocket_docking_5.prm

>  <SCORE>
-17.3802

>  <SCORE.INTER>
-17.3872

>  <SCORE.INTER.CONST>
1

>  <SCORE.INTER.POLAR>
0

>  <SCORE.INTER.ROT>
1

>  <SCORE.INTER.SOLV>
18.5109

>  <SCORE.INTER.VDW>
-22.0285

>  <SCORE.INTER.norm>
-1.33748

>  <SCORE.INTRA>
0.00698901

>  <SCORE.INTRA.DIHEDRAL>
0.08302

>  <SCORE.INTRA.DIHEDRAL.0>
1.65305

>  <SCORE.INTRA.POLAR>
0

>  <SCORE.INTRA.POLAR.0>
0

>  <SCORE.INTRA.REPUL>
0

>  <SCORE.INTRA.REPUL.0>
0

>  <SCORE.INTRA.SOLV>
0.00163023

>  <SCORE.INTRA.SOLV.lig_0>
-46.9527

>  <SCORE.INTRA.VDW>
-0.0353361

>  <SCORE.INTRA.VDW.0>
-0.177978

>  <SCORE.INTRA.norm>
0.000537616

>  <SCORE.RESTR>
0

>  <SCORE.RESTR.CAVITY>
0

>  <SCORE.RESTR.norm>
0

>  <SCORE.SYSTEM>
0

>  <SCORE.SYSTEM.CONST>
0

>  <SCORE.SYSTEM.DIHEDRAL>
0

>  <SCORE.SYSTEM.SOLV>
0

>  <SCORE.SYSTEM.norm>
0

>  <SCORE.heavy>
13

>  <SCORE.norm>
-1.33694

>  <RMSD>
4.209

$$$$
ligand
 OpenBabel02271912143D
libRbt.so/2013.1/901 2013/11/27
 13 14  0  0  0  0  0  0  0  0999 V2000
   37.3669   34.9947   24.9672 N   0  0  0  0  0  0  0  0  0  0  0  0
   37.6849   34.3537   26.1786 C   0  0  0  0  0  0  0  0  0  0  0  0
   38.8488   34.7671   26.8129 N   0  0  0  0  0  0  0  0  0  0  0  0
   36.9733   33.3553   26.7552 N   0  0  0  0  0  0  0  0  0  0  0  0
   35.8502   33.0151   26.0072 C   0  0  0  0  0  0  0  0  0  0  0  0
   35.4473   33.6064   24.8036 C   0  0  0  0  0  0  0  0  0  0  0  0
   36.2024   34.6351   24.2214 C   0  0  0  0  0  0  0  0  0  0  0  0
   35.9676   35.2169   23.1725 O   0  0  0  0  0  0  0  0  0  0  0  0
   34.2586   32.9822   24.3608 C   0  0  0  0  0  0  0  0  0  0  0  0
   33.9462   32.0192   25.3079 C   0  0  0  0  0  0  0  0  0  0  0  0
   34.9266   32.0385   26.3319 N   0  0  0  0  0  0  0  0  0  0  0  0
   33.5609   33.3381   23.0954 C   0  0  0  0  0  0  0  0  0  0  0  0
   32.7961   32.1927   22.5780 N   0  0  0  0  0  0  0  0  0  0  0  0
  1  2  1  0  0  0  0
  1  7  1  0  0  0  0
  2  3  1  0  0  0  0
  2  4  2  0  0  0  0
  4  5  1  0  0  0  0
  5  6  2  0  0  0  0
  5 11  1  0  0  0  0
  6  7  1  0  0  0  0
  6  9  1  0  0  0  0
  7  8  2  0  0  0  0
  9 10  2  0  0  0  0
  9 12  1  0  0  0  0
 10 11  1  0  0  0  0
 12 13  1  0  0  0  0
M  END
>  <CHROM.1>
153.09538806,35.69025783,33.60695972,24.93526691,-0.22053110,-0.61037148
-0.95200815

>  <Name>
ligand

>  <RI>
0

>  <Rbt.Current_Directory>
/home/itssahil/PROJECTS/Mol_Feturizer/Test_systems_manuscript/rnas/3q50

>  <Rbt.Executable>
rbdock ($Id: //depot/dev/client3/rdock/2013.1/src/exe/rbdock.cxx#4 $)

>  <Rbt.Library>
libRbt.so (2013.1, Build901 2013/11/27)

>  <Rbt.Parameter_File>
/export/apps/rDock/src/rDock_2013.1_src/data/scripts/dock_solv.prm

>  <Rbt.Receptor>
prm/pocket_docking_6.prm

>  <SCORE>
-17.3078

>  <SCORE.INTER>
-17.3174

>  <SCORE.INTER.CONST>
1

>  <SCORE.INTER.POLAR>
0

>  <SCORE.INTER.ROT>
1

>  <SCORE.INTER.SOLV>
18.381

>  <SCORE.INTER.VDW>
-21.9386

>  <SCORE.INTER.norm>
-1.33211

>  <SCORE.INTRA>
0.00960037

>  <SCORE.INTRA.DIHEDRAL>
0.0824846

>  <SCORE.INTRA.DIHEDRAL.0>
1.65305

>  <SCORE.INTRA.POLAR>
0

>  <SCORE.INTRA.POLAR.0>
0

>  <SCORE.INTRA.REPUL>
0

>  <SCORE.INTRA.REPUL.0>
0

>  <SCORE.INTRA.SOLV>
0.00172493

>  <SCORE.INTRA.SOLV.lig_0>
-46.9527

>  <SCORE.INTRA.VDW>
-0.0325044

>  <SCORE.INTRA.VDW.0>
-0.177978

>  <SCORE.INTRA.norm>
0.00073849

>  <SCORE.RESTR>
0

>  <SCORE.RESTR.CAVITY>
0

>  <SCORE.RESTR.norm>
0

>  <SCORE.SYSTEM>
0

>  <SCORE.SYSTEM.CONST>
0

>  <SCORE.SYSTEM.DIHEDRAL>
0

>  <SCORE.SYSTEM.SOLV>
0

>  <SCORE.SYSTEM.norm>
0

>  <SCORE.heavy>
13

>  <SCORE.norm>
-1.33137

>  <RMSD>
4.209

$$$$
ligand
 OpenBabel02271912143D
libRbt.so/2013.1/901 2013/11/27
 13 14  0  0  0  0  0  0  0  0999 V2000
   37.3980   35.0532   24.9684 N   0  0  0  0  0  0  0  0  0  0  0  0
   37.7099   34.4421   26.1967 C   0  0  0  0  0  0  0  0  0  0  0  0
   38.8706   34.8713   26.8266 N   0  0  0  0  0  0  0  0  0  0  0  0
   36.9956   33.4578   26.7939 N   0  0  0  0  0  0  0  0  0  0  0  0
   35.8764   33.0991   26.0488 C   0  0  0  0  0  0  0  0  0  0  0  0
   35.4795   33.6607   24.8290 C   0  0  0  0  0  0  0  0  0  0  0  0
   36.2374   34.6750   24.2258 C   0  0  0  0  0  0  0  0  0  0  0  0
   36.0078   35.2310   23.1618 O   0  0  0  0  0  0  0  0  0  0  0  0
   34.2933   33.0254   24.3956 C   0  0  0  0  0  0  0  0  0  0  0  0
   33.9763   32.0858   25.3643 C   0  0  0  0  0  0  0  0  0  0  0  0
   34.9514   32.1303   26.3925 N   0  0  0  0  0  0  0  0  0  0  0  0
   33.6019   33.3500   23.1184 C   0  0  0  0  0  0  0  0  0  0  0  0
   32.8193   32.2003   22.6385 N   0  0  0  0  0  0  0  0  0  0  0  0
  1  2  1  0  0  0  0
  1  7  1  0  0  0  0
  2  3  1  0  0  0  0
  2  4  2  0  0  0  0
  4  5  1  0  0  0  0
  5  6  2  0  0  0  0
  5 11  1  0  0  0  0
  6  7  1  0  0  0  0
  6  9  1  0  0  0  0
  7  8  2  0  0  0  0
  9 10  2  0  0  0  0
  9 12  1  0  0  0  0
 10 11  1  0  0  0  0
 12 13  1  0  0  0  0
M  END
>  <CHROM.1>
154.17976546,35.72016524,33.66516313,24.96297226,-0.22401642,-0.61198590
-0.97829886

>  <Name>
ligand

>  <RI>
0

>  <Rbt.Current_Directory>
/home/itssahil/PROJECTS/Mol_Feturizer/Test_systems_manuscript/rnas/3q50

>  <Rbt.Executable>
rbdock ($Id: //depot/dev/client3/rdock/2013.1/src/exe/rbdock.cxx#4 $)

>  <Rbt.Library>
libRbt.so (2013.1, Build901 2013/11/27)

>  <Rbt.Parameter_File>
/export/apps/rDock/src/rDock_2013.1_src/data/scripts/dock_solv.prm

>  <Rbt.Receptor>
prm/pocket_docking_2.prm

>  <SCORE>
-17.3578

>  <SCORE.INTER>
-17.3699

>  <SCORE.INTER.CONST>
1

>  <SCORE.INTER.POLAR>
0

>  <SCORE.INTER.ROT>
1

>  <SCORE.INTER.SOLV>
18.3475

>  <SCORE.INTER.VDW>
-21.9624

>  <SCORE.INTER.norm>
-1.33614

>  <SCORE.INTRA>
0.0120675

>  <SCORE.INTRA.DIHEDRAL>
0.0817702

>  <SCORE.INTRA.DIHEDRAL.0>
1.65305

>  <SCORE.INTRA.POLAR>
0

>  <SCORE.INTRA.POLAR.0>
0

>  <SCORE.INTRA.REPUL>
0

>  <SCORE.INTRA.REPUL.0>
0

>  <SCORE.INTRA.SOLV>
0.00181507

>  <SCORE.INTRA.SOLV.lig_0>
-46.9527

>  <SCORE.INTRA.VDW>
-0.0297251

>  <SCORE.INTRA.VDW.0>
-0.177978

>  <SCORE.INTRA.norm>
0.000928267

>  <SCORE.RESTR>
0

>  <SCORE.RESTR.CAVITY>
0

>  <SCORE.RESTR.norm>
0

>  <SCORE.SYSTEM>
0

>  <SCORE.SYSTEM.CONST>
0

>  <SCORE.SYSTEM.DIHEDRAL>
0

>  <SCORE.SYSTEM.SOLV>
0

>  <SCORE.SYSTEM.norm>
0

>  <SCORE.heavy>
13

>  <SCORE.norm>
-1.33521

>  <RMSD>
4.210

$$$$
ligand
 OpenBabel02271912143D
libRbt.so/2013.1/901 2013/11/27
 13 14  0  0  0  0  0  0  0  0999 V2000
   37.3973   35.0497   24.9647 N   0  0  0  0  0  0  0  0  0  0  0  0
   37.7118   34.4348   26.1904 C   0  0  0  0  0  0  0  0  0  0  0  0
   38.8746   34.8608   26.8183 N   0  0  0  0  0  0  0  0  0  0  0  0
   36.9978   33.4498   26.7868 N   0  0  0  0  0  0  0  0  0  0  0  0
   35.8761   33.0946   26.0437 C   0  0  0  0  0  0  0  0  0  0  0  0
   35.4766   33.6601   24.8267 C   0  0  0  0  0  0  0  0  0  0  0  0
   36.2341   34.6752   24.2241 C   0  0  0  0  0  0  0  0  0  0  0  0
   36.0024   35.2344   23.1623 O   0  0  0  0  0  0  0  0  0  0  0  0
   34.2883   33.0275   24.3947 C   0  0  0  0  0  0  0  0  0  0  0  0
   33.9728   32.0856   25.3617 C   0  0  0  0  0  0  0  0  0  0  0  0
   34.9508   32.1261   26.3873 N   0  0  0  0  0  0  0  0  0  0  0  0
   33.5939   33.3566   23.1203 C   0  0  0  0  0  0  0  0  0  0  0  0
   32.8097   32.2088   22.6387 N   0  0  0  0  0  0  0  0  0  0  0  0
  1  2  1  0  0  0  0
  1  7  1  0  0  0  0
  2  3  1  0  0  0  0
  2  4  2  0  0  0  0
  4  5  1  0  0  0  0
  5  6  2  0  0  0  0
  5 11  1  0  0  0  0
  6  7  1  0  0  0  0
  6  9  1  0  0  0  0
  7  8  2  0  0  0  0
  9 10  2  0  0  0  0
  9 12  1  0  0  0  0
 10 11  1  0  0  0  0
 12 13  1  0  0  0  0
M  END
>  <CHROM.1>
154.12112824,35.71770661,33.66387665,24.95988291,-0.22221151,-0.60946482
-0.97449680

>  <Name>
ligand

>  <RI>
0

>  <Rbt.Current_Directory>
/home/itssahil/PROJECTS/Mol_Feturizer/Test_systems_manuscript/rnas/3q50

>  <Rbt.Executable>
rbdock ($Id: //depot/dev/client3/rdock/2013.1/src/exe/rbdock.cxx#4 $)

>  <Rbt.Library>
libRbt.so (2013.1, Build901 2013/11/27)

>  <Rbt.Parameter_File>
/export/apps/rDock/src/rDock_2013.1_src/data/scripts/dock_solv.prm

>  <Rbt.Receptor>
prm/pocket_docking_4.prm

>  <SCORE>
-17.3563

>  <SCORE.INTER>
-17.3683

>  <SCORE.INTER.CONST>
1

>  <SCORE.INTER.POLAR>
0

>  <SCORE.INTER.ROT>
1

>  <SCORE.INTER.SOLV>
18.3473

>  <SCORE.INTER.VDW>
-21.9613

>  <SCORE.INTER.norm>
-1.33602

>  <SCORE.INTRA>
0.0119378

>  <SCORE.INTRA.DIHEDRAL>
0.0818133

>  <SCORE.INTRA.DIHEDRAL.0>
1.65305

>  <SCORE.INTRA.POLAR>
0

>  <SCORE.INTRA.POLAR.0>
0

>  <SCORE.INTRA.REPUL>
0

>  <SCORE.INTRA.REPUL.0>
0

>  <SCORE.INTRA.SOLV>
0.00181032

>  <SCORE.INTRA.SOLV.lig_0>
-46.9527

>  <SCORE.INTRA.VDW>
-0.029874

>  <SCORE.INTRA.VDW.0>
-0.177978

>  <SCORE.INTRA.norm>
0.000918296

>  <SCORE.RESTR>
0

>  <SCORE.RESTR.CAVITY>
0

>  <SCORE.RESTR.norm>
0

>  <SCORE.SYSTEM>
0

>  <SCORE.SYSTEM.CONST>
0

>  <SCORE.SYSTEM.DIHEDRAL>
0

>  <SCORE.SYSTEM.SOLV>
0

>  <SCORE.SYSTEM.norm>
0

>  <SCORE.heavy>
13

>  <SCORE.norm>
-1.3351

>  <RMSD>
4.210

$$$$
ligand
 OpenBabel02271912143D
libRbt.so/2013.1/901 2013/11/27
 13 14  0  0  0  0  0  0  0  0999 V2000
   37.4174   35.0232   24.9724 N   0  0  0  0  0  0  0  0  0  0  0  0
   37.7261   34.4349   26.2125 C   0  0  0  0  0  0  0  0  0  0  0  0
   38.8935   34.8640   26.8298 N   0  0  0  0  0  0  0  0  0  0  0  0
   37.0024   33.4719   26.8327 N   0  0  0  0  0  0  0  0  0  0  0  0
   35.8769   33.1103   26.0986 C   0  0  0  0  0  0  0  0  0  0  0  0
   35.4826   33.6503   24.8683 C   0  0  0  0  0  0  0  0  0  0  0  0
   36.2501   34.6427   24.2413 C   0  0  0  0  0  0  0  0  0  0  0  0
   36.0236   35.1785   23.1664 O   0  0  0  0  0  0  0  0  0  0  0  0
   34.2878   33.0196   24.4520 C   0  0  0  0  0  0  0  0  0  0  0  0
   33.9631   32.1046   25.4415 C   0  0  0  0  0  0  0  0  0  0  0  0
   34.9419   32.1598   26.4657 N   0  0  0  0  0  0  0  0  0  0  0  0
   33.5962   33.3248   23.1701 C   0  0  0  0  0  0  0  0  0  0  0  0
   32.8536   32.1521   22.6825 N   0  0  0  0  0  0  0  0  0  0  0  0
  1  2  1  0  0  0  0
  1  7  1  0  0  0  0
  2  3  1  0  0  0  0
  2  4  2  0  0  0  0
  4  5  1  0  0  0  0
  5  6  2  0  0  0  0
  5 11  1  0  0  0  0
  6  7  1  0  0  0  0
  6  9  1  0  0  0  0
  7  8  2  0  0  0  0
  9 10  2  0  0  0  0
  9 12  1  0  0  0  0
 10 11  1  0  0  0  0
 12 13  1  0  0  0  0
M  END
>  <CHROM.1>
151.32548566,35.72812023,33.65303035,24.99862273,-0.23249006,-0.60462460
-1.00491272

>  <Name>
ligand

>  <RI>
0

>  <Rbt.Current_Directory>
/home/itssahil/PROJECTS/Mol_Feturizer/Test_systems_manuscript/rnas/3q50

>  <Rbt.Executable>
rbdock ($Id: //depot/dev/client3/rdock/2013.1/src/exe/rbdock.cxx#4 $)

>  <Rbt.Library>
libRbt.so (2013.1, Build901 2013/11/27)

>  <Rbt.Parameter_File>
/export/apps/rDock/src/rDock_2013.1_src/data/scripts/dock_solv.prm

>  <Rbt.Receptor>
prm/pocket_docking_5.prm

>  <SCORE>
-17.3739

>  <SCORE.INTER>
-17.3791

>  <SCORE.INTER.CONST>
1

>  <SCORE.INTER.POLAR>
0

>  <SCORE.INTER.ROT>
1

>  <SCORE.INTER.SOLV>
18.259

>  <SCORE.INTER.VDW>
-21.9391

>  <SCORE.INTER.norm>
-1.33686

>  <SCORE.INTRA>
0.00526541

>  <SCORE.INTRA.DIHEDRAL>
0.0832655

>  <SCORE.INTRA.DIHEDRAL.0>
1.65305

>  <SCORE.INTRA.POLAR>
0

>  <SCORE.INTRA.POLAR.0>
0

>  <SCORE.INTRA.REPUL>
0

>  <SCORE.INTRA.REPUL.0>
0

>  <SCORE.INTRA.SOLV>
0.00156825

>  <SCORE.INTRA.SOLV.lig_0>
-46.9527

>  <SCORE.INTRA.VDW>
-0.0371515

>  <SCORE.INTRA.VDW.0>
-0.177978

>  <SCORE.INTRA.norm>
0.000405032

>  <SCORE.RESTR>
0

>  <SCORE.RESTR.CAVITY>
0

>  <SCORE.RESTR.norm>
0

>  <SCORE.SYSTEM>
0

>  <SCORE.SYSTEM.CONST>
0

>  <SCORE.SYSTEM.DIHEDRAL>
0

>  <SCORE.SYSTEM.SOLV>
0

>  <SCORE.SYSTEM.norm>
0

>  <SCORE.heavy>
13

>  <SCORE.norm>
-1.33645

>  <RMSD>
4.210

$$$$
ligand
 OpenBabel02271912143D
libRbt.so/2013.1/901 2013/11/27
 13 14  0  0  0  0  0  0  0  0999 V2000
   37.4368   35.0243   24.9949 N   0  0  0  0  0  0  0  0  0  0  0  0
   37.7449   34.4233   26.2290 C   0  0  0  0  0  0  0  0  0  0  0  0
   38.9141   34.8430   26.8493 N   0  0  0  0  0  0  0  0  0  0  0  0
   37.0189   33.4565   26.8407 N   0  0  0  0  0  0  0  0  0  0  0  0
   35.8916   33.1053   26.1042 C   0  0  0  0  0  0  0  0  0  0  0  0
   35.4978   33.6582   24.8795 C   0  0  0  0  0  0  0  0  0  0  0  0
   36.2678   34.6543   24.2613 C   0  0  0  0  0  0  0  0  0  0  0  0
   36.0419   35.2010   23.1917 O   0  0  0  0  0  0  0  0  0  0  0  0
   34.3007   33.0351   24.4583 C   0  0  0  0  0  0  0  0  0  0  0  0
   33.9742   32.1116   25.4393 C   0  0  0  0  0  0  0  0  0  0  0  0
   34.9541   32.1541   26.4630 N   0  0  0  0  0  0  0  0  0  0  0  0
   33.6089   33.3546   23.1800 C   0  0  0  0  0  0  0  0  0  0  0  0
   32.8428   32.1963   22.6943 N   0  0  0  0  0  0  0  0  0  0  0  0
  1  2  1  0  0  0  0
  1  7  1  0  0  0  0
  2  3  1  0  0  0  0
  2  4  2  0  0  0  0
  4  5  1  0  0  0  0
  5  6  2  0  0  0  0
  5 11  1  0  0  0  0
  6  7  1  0  0  0  0
  6  9  1  0  0  0  0
  7  8  2  0  0  0  0
  9 10  2  0  0  0  0
  9 12  1  0  0  0  0
 10 11  1  0  0  0  0
 12 13  1  0  0  0  0
M  END
>  <CHROM.1>
152.34151682,35.74189365,33.65959388,25.01059074,-0.23209259,-0.60024488
-0.99496513

>  <Name>
ligand

>  <RI>
0

>  <Rbt.Current_Directory>
/home/itssahil/PROJECTS/Mol_Feturizer/Test_systems_manuscript/rnas/3q50

>  <Rbt.Executable>
rbdock ($Id: //depot/dev/client3/rdock/2013.1/src/exe/rbdock.cxx#4 $)

>  <Rbt.Library>
libRbt.so (2013.1, Build901 2013/11/27)

>  <Rbt.Parameter_File>
/export/apps/rDock/src/rDock_2013.1_src/data/scripts/dock_solv.prm

>  <Rbt.Receptor>
prm/pocket_docking_3.prm

>  <SCORE>
-17.3368

>  <SCORE.INTER>
-17.3446

>  <SCORE.INTER.CONST>
1

>  <SCORE.INTER.POLAR>
0

>  <SCORE.INTER.ROT>
1

>  <SCORE.INTER.SOLV>
18.1502

>  <SCORE.INTER.VDW>
-21.8798

>  <SCORE.INTER.norm>
-1.3342

>  <SCORE.INTRA>
0.00779968

>  <SCORE.INTRA.DIHEDRAL>
0.082876

>  <SCORE.INTRA.DIHEDRAL.0>
1.65305

>  <SCORE.INTRA.POLAR>
0

>  <SCORE.INTRA.POLAR.0>
0

>  <SCORE.INTRA.REPUL>
0

>  <SCORE.INTRA.REPUL.0>
0

>  <SCORE.INTRA.SOLV>
0.00165954

>  <SCORE.INTRA.SOLV.lig_0>
-46.9527

>  <SCORE.INTRA.VDW>
-0.0344681

>  <SCORE.INTRA.VDW.0>
-0.177978

>  <SCORE.INTRA.norm>
0.000599976

>  <SCORE.RESTR>
0

>  <SCORE.RESTR.CAVITY>
0

>  <SCORE.RESTR.norm>
0

>  <SCORE.SYSTEM>
0

>  <SCORE.SYSTEM.CONST>
0

>  <SCORE.SYSTEM.DIHEDRAL>
0

>  <SCORE.SYSTEM.SOLV>
0

>  <SCORE.SYSTEM.norm>
0

>  <SCORE.heavy>
13

>  <SCORE.norm>
-1.3336

>  <RMSD>
4.211

$$$$
ligand
 OpenBabel02271912143D
libRbt.so/2013.1/901 2013/11/27
 13 14  0  0  0  0  0  0  0  0999 V2000
   37.3944   35.0555   24.9640 N   0  0  0  0  0  0  0  0  0  0  0  0
   37.7047   34.4468   26.1939 C   0  0  0  0  0  0  0  0  0  0  0  0
   38.8646   34.8770   26.8244 N   0  0  0  0  0  0  0  0  0  0  0  0
   36.9894   33.4639   26.7922 N   0  0  0  0  0  0  0  0  0  0  0  0
   35.8711   33.1038   26.0464 C   0  0  0  0  0  0  0  0  0  0  0  0
   35.4759   33.6630   24.8250 C   0  0  0  0  0  0  0  0  0  0  0  0
   36.2346   34.6760   24.2207 C   0  0  0  0  0  0  0  0  0  0  0  0
   36.0065   35.2299   23.1553 O   0  0  0  0  0  0  0  0  0  0  0  0
   34.2900   33.0271   24.3914 C   0  0  0  0  0  0  0  0  0  0  0  0
   33.9716   32.0895   25.3616 C   0  0  0  0  0  0  0  0  0  0  0  0
   34.9455   32.1359   26.3909 N   0  0  0  0  0  0  0  0  0  0  0  0
   33.6003   33.3492   23.1126 C   0  0  0  0  0  0  0  0  0  0  0  0
   32.8044   32.2045   22.6430 N   0  0  0  0  0  0  0  0  0  0  0  0
  1  2  1  0  0  0  0
  1  7  1  0  0  0  0
  2  3  1  0  0  0  0
  2  4  2  0  0  0  0
  4  5  1  0  0  0  0
  5  6  2  0  0  0  0
  5 11  1  0  0  0  0
  6  7  1  0  0  0  0
  6  9  1  0  0  0  0
  7  8  2  0  0  0  0
  9 10  2  0  0  0  0
  9 12  1  0  0  0  0
 10 11  1  0  0  0  0
 12 13  1  0  0  0  0
M  END
>  <CHROM.1>
154.90226380,35.71519103,33.66821957,24.95996937,-0.22448111,-0.61151653
-0.98047084

>  <Name>
ligand

>  <RI>
0

>  <Rbt.Current_Directory>
/home/itssahil/PROJECTS/Mol_Feturizer/Test_systems_manuscript/rnas/3q50

>  <Rbt.Executable>
rbdock ($Id: //depot/dev/client3/rdock/2013.1/src/exe/rbdock.cxx#4 $)

>  <Rbt.Library>
libRbt.so (2013.1, Build901 2013/11/27)

>  <Rbt.Parameter_File>
/export/apps/rDock/src/rDock_2013.1_src/data/scripts/dock_solv.prm

>  <Rbt.Receptor>
prm/pocket_docking_4.prm

>  <SCORE>
-17.356

>  <SCORE.INTER>
-17.3696

>  <SCORE.INTER.CONST>
1

>  <SCORE.INTER.POLAR>
0

>  <SCORE.INTER.ROT>
1

>  <SCORE.INTER.SOLV>
18.3905

>  <SCORE.INTER.VDW>
-21.9766

>  <SCORE.INTER.norm>
-1.33612

>  <SCORE.INTRA>
0.0136284

>  <SCORE.INTRA.DIHEDRAL>
0.0811959

>  <SCORE.INTRA.DIHEDRAL.0>
1.65305

>  <SCORE.INTRA.POLAR>
0

>  <SCORE.INTRA.POLAR.0>
0

>  <SCORE.INTRA.REPUL>
0

>  <SCORE.INTRA.REPUL.0>
0

>  <SCORE.INTRA.SOLV>
0.00187232

>  <SCORE.INTRA.SOLV.lig_0>
-46.9527

>  <SCORE.INTRA.VDW>
-0.0279057

>  <SCORE.INTRA.VDW.0>
-0.177978

>  <SCORE.INTRA.norm>
0.00104834

>  <SCORE.RESTR>
0

>  <SCORE.RESTR.CAVITY>
0

>  <SCORE.RESTR.norm>
0

>  <SCORE.SYSTEM>
0

>  <SCORE.SYSTEM.CONST>
0

>  <SCORE.SYSTEM.DIHEDRAL>
0

>  <SCORE.SYSTEM.SOLV>
0

>  <SCORE.SYSTEM.norm>
0

>  <SCORE.heavy>
13

>  <SCORE.norm>
-1.33507

>  <RMSD>
4.211

$$$$
ligand
 OpenBabel02271912143D
libRbt.so/2013.1/901 2013/11/27
 13 14  0  0  0  0  0  0  0  0999 V2000
   37.3948   35.0566   24.9700 N   0  0  0  0  0  0  0  0  0  0  0  0
   37.7104   34.4430   26.1961 C   0  0  0  0  0  0  0  0  0  0  0  0
   38.8715   34.8728   26.8247 N   0  0  0  0  0  0  0  0  0  0  0  0
   36.9991   33.4559   26.7923 N   0  0  0  0  0  0  0  0  0  0  0  0
   35.8791   33.0969   26.0486 C   0  0  0  0  0  0  0  0  0  0  0  0
   35.4786   33.6608   24.8311 C   0  0  0  0  0  0  0  0  0  0  0  0
   36.2333   34.6781   24.2288 C   0  0  0  0  0  0  0  0  0  0  0  0
   36.0005   35.2363   23.1667 O   0  0  0  0  0  0  0  0  0  0  0  0
   34.2926   33.0244   24.3986 C   0  0  0  0  0  0  0  0  0  0  0  0
   33.9794   32.0817   25.3655 C   0  0  0  0  0  0  0  0  0  0  0  0
   34.9566   32.1256   26.3918 N   0  0  0  0  0  0  0  0  0  0  0  0
   33.5980   33.3509   23.1236 C   0  0  0  0  0  0  0  0  0  0  0  0
   32.7945   32.2102   22.6569 N   0  0  0  0  0  0  0  0  0  0  0  0
  1  2  1  0  0  0  0
  1  7  1  0  0  0  0
  2  3  1  0  0  0  0
  2  4  2  0  0  0  0
  4  5  1  0  0  0  0
  5  6  2  0  0  0  0
  5 11  1  0  0  0  0
  6  7  1  0  0  0  0
  6  9  1  0  0  0  0
  7  8  2  0  0  0  0
  9 10  2  0  0  0  0
  9 12  1  0  0  0  0
 10 11  1  0  0  0  0
 12 13  1  0  0  0  0
M  END
>  <CHROM.1>
155.34916242,35.71768631,33.66619922,24.96573934,-0.21912615,-0.61073531
-0.97281624

>  <Name>
ligand

>  <RI>
0

>  <Rbt.Current_Directory>
/home/itssahil/PROJECTS/Mol_Feturizer/Test_systems_manuscript/rnas/3q50

>  <Rbt.Executable>
rbdock ($Id: //depot/dev/client3/rdock/2013.1/src/exe/rbdock.cxx#4 $)

>  <Rbt.Library>
libRbt.so (2013.1, Build901 2013/11/27)

>  <Rbt.Parameter_File>
/export/apps/rDock/src/rDock_2013.1_src/data/scripts/dock_solv.prm

>  <Rbt.Receptor>
prm/pocket_docking_6.prm

>  <SCORE>
-17.3564

>  <SCORE.INTER>
-17.3709

>  <SCORE.INTER.CONST>
1

>  <SCORE.INTER.POLAR>
0

>  <SCORE.INTER.ROT>
1

>  <SCORE.INTER.SOLV>
18.364

>  <SCORE.INTER.VDW>
-21.9686

>  <SCORE.INTER.norm>
-1.33623

>  <SCORE.INTRA>
0.01456

>  <SCORE.INTRA.DIHEDRAL>
0.0808018

>  <SCORE.INTRA.DIHEDRAL.0>
1.65305

>  <SCORE.INTRA.POLAR>
0

>  <SCORE.INTRA.POLAR.0>
0

>  <SCORE.INTRA.REPUL>
0

>  <SCORE.INTRA.REPUL.0>
0

>  <SCORE.INTRA.SOLV>
0.00190652

>  <SCORE.INTRA.SOLV.lig_0>
-46.9527

>  <SCORE.INTRA.VDW>
-0.0267942

>  <SCORE.INTRA.VDW.0>
-0.177978

>  <SCORE.INTRA.norm>
0.00112

>  <SCORE.RESTR>
0

>  <SCORE.RESTR.CAVITY>
0

>  <SCORE.RESTR.norm>
0

>  <SCORE.SYSTEM>
0

>  <SCORE.SYSTEM.CONST>
0

>  <SCORE.SYSTEM.DIHEDRAL>
0

>  <SCORE.SYSTEM.SOLV>
0

>  <SCORE.SYSTEM.norm>
0

>  <SCORE.heavy>
13

>  <SCORE.norm>
-1.33511

>  <RMSD>
4.211

$$$$
ligand
 OpenBabel02271912143D
libRbt.so/2013.1/901 2013/11/27
 13 14  0  0  0  0  0  0  0  0999 V2000
   37.3907   35.0506   24.9595 N   0  0  0  0  0  0  0  0  0  0  0  0
   37.6901   34.4484   26.1952 C   0  0  0  0  0  0  0  0  0  0  0  0
   38.8474   34.8780   26.8310 N   0  0  0  0  0  0  0  0  0  0  0  0
   36.9669   33.4720   26.7947 N   0  0  0  0  0  0  0  0  0  0  0  0
   35.8523   33.1117   26.0434 C   0  0  0  0  0  0  0  0  0  0  0  0
   35.4677   33.6648   24.8159 C   0  0  0  0  0  0  0  0  0  0  0  0
   36.2346   34.6711   24.2105 C   0  0  0  0  0  0  0  0  0  0  0  0
   36.0159   35.2192   23.1401 O   0  0  0  0  0  0  0  0  0  0  0  0
   34.2823   33.0308   24.3781 C   0  0  0  0  0  0  0  0  0  0  0  0
   33.9536   32.1005   25.3519 C   0  0  0  0  0  0  0  0  0  0  0  0
   34.9206   32.1496   26.3876 N   0  0  0  0  0  0  0  0  0  0  0  0
   33.6027   33.3477   23.0926 C   0  0  0  0  0  0  0  0  0  0  0  0
   32.8030   32.2043   22.6262 N   0  0  0  0  0  0  0  0  0  0  0  0
  1  2  1  0  0  0  0
  1  7  1  0  0  0  0
  2  3  1  0  0  0  0
  2  4  2  0  0  0  0
  4  5  1  0  0  0  0
  5  6  2  0  0  0  0
  5 11  1  0  0  0  0
  6  7  1  0  0  0  0
  6  9  1  0  0  0  0
  7  8  2  0  0  0  0
  9 10  2  0  0  0  0
  9 12  1  0  0  0  0
 10 11  1  0  0  0  0
 12 13  1  0  0  0  0
M  END
>  <CHROM.1>
155.03252088,35.70588654,33.67000037,24.95260551,-0.23395020,-0.61184193
-0.99210952

>  <Name>
ligand

>  <RI>
0

>  <Rbt.Current_Directory>
/home/itssahil/PROJECTS/Mol_Feturizer/Test_systems_manuscript/rnas/3q50

>  <Rbt.Executable>
rbdock ($Id: //depot/dev/client3/rdock/2013.1/src/exe/rbdock.cxx#4 $)

>  <Rbt.Library>
libRbt.so (2013.1, Build901 2013/11/27)

>  <Rbt.Parameter_File>
/export/apps/rDock/src/rDock_2013.1_src/data/scripts/dock_solv.prm

>  <Rbt.Receptor>
prm/pocket_docking_7.prm

>  <SCORE>
-17.3443

>  <SCORE.INTER>
-17.3582

>  <SCORE.INTER.CONST>
1

>  <SCORE.INTER.POLAR>
0

>  <SCORE.INTER.ROT>
1

>  <SCORE.INTER.SOLV>
18.4612

>  <SCORE.INTER.VDW>
-21.9925

>  <SCORE.INTER.norm>
-1.33525

>  <SCORE.INTRA>
0.0139026

>  <SCORE.INTRA.DIHEDRAL>
0.0810841

>  <SCORE.INTRA.DIHEDRAL.0>
1.65305

>  <SCORE.INTRA.POLAR>
0

>  <SCORE.INTRA.POLAR.0>
0

>  <SCORE.INTRA.REPUL>
0

>  <SCORE.INTRA.REPUL.0>
0

>  <SCORE.INTRA.SOLV>
0.00188238

>  <SCORE.INTRA.SOLV.lig_0>
-46.9527

>  <SCORE.INTRA.VDW>
-0.0275806

>  <SCORE.INTRA.VDW.0>
-0.177978

>  <SCORE.INTRA.norm>
0.00106943

>  <SCORE.RESTR>
0

>  <SCORE.RESTR.CAVITY>
0

>  <SCORE.RESTR.norm>
0

>  <SCORE.SYSTEM>
0

>  <SCORE.SYSTEM.CONST>
0

>  <SCORE.SYSTEM.DIHEDRAL>
0

>  <SCORE.SYSTEM.SOLV>
0

>  <SCORE.SYSTEM.norm>
0

>  <SCORE.heavy>
13

>  <SCORE.norm>
-1.33418

>  <RMSD>
4.211

$$$$
ligand
 OpenBabel02271912143D
libRbt.so/2013.1/901 2013/11/27
 13 14  0  0  0  0  0  0  0  0999 V2000
   37.4030   35.0555   24.9643 N   0  0  0  0  0  0  0  0  0  0  0  0
   37.7168   34.4417   26.1908 C   0  0  0  0  0  0  0  0  0  0  0  0
   38.8756   34.8734   26.8225 N   0  0  0  0  0  0  0  0  0  0  0  0
   37.0061   33.4528   26.7846 N   0  0  0  0  0  0  0  0  0  0  0  0
   35.8886   33.0921   26.0379 C   0  0  0  0  0  0  0  0  0  0  0  0
   35.4900   33.6560   24.8198 C   0  0  0  0  0  0  0  0  0  0  0  0
   36.2441   34.6752   24.2201 C   0  0  0  0  0  0  0  0  0  0  0  0
   36.0127   35.2337   23.1577 O   0  0  0  0  0  0  0  0  0  0  0  0
   34.3063   33.0175   24.3840 C   0  0  0  0  0  0  0  0  0  0  0  0
   33.9926   32.0736   25.3495 C   0  0  0  0  0  0  0  0  0  0  0  0
   34.9672   32.1187   26.3782 N   0  0  0  0  0  0  0  0  0  0  0  0
   33.6142   33.3435   23.1075 C   0  0  0  0  0  0  0  0  0  0  0  0
   32.8092   32.2037   22.6413 N   0  0  0  0  0  0  0  0  0  0  0  0
  1  2  1  0  0  0  0
  1  7  1  0  0  0  0
  2  3  1  0  0  0  0
  2  4  2  0  0  0  0
  4  5  1  0  0  0  0
  5  6  2  0  0  0  0
  5 11  1  0  0  0  0
  6  7  1  0  0  0  0
  6  9  1  0  0  0  0
  7  8  2  0  0  0  0
  9 10  2  0  0  0  0
  9 12  1  0  0  0  0
 10 11  1  0  0  0  0
 12 13  1  0  0  0  0
M  END
>  <CHROM.1>
155.60411243,35.72832279,33.66193195,24.95529306,-0.21989332,-0.61337988
-0.97254032

>  <Name>
ligand

>  <RI>
0

>  <Rbt.Current_Directory>
/home/itssahil/PROJECTS/Mol_Feturizer/Test_systems_manuscript/rnas/3q50

>  <Rbt.Executable>
rbdock ($Id: //depot/dev/client3/rdock/2013.1/src/exe/rbdock.cxx#4 $)

>  <Rbt.Library>
libRbt.so (2013.1, Build901 2013/11/27)

>  <Rbt.Parameter_File>
/export/apps/rDock/src/rDock_2013.1_src/data/scripts/dock_solv.prm

>  <Rbt.Receptor>
prm/pocket_docking_2.prm

>  <SCORE>
-17.3713

>  <SCORE.INTER>
-17.3864

>  <SCORE.INTER.CONST>
1

>  <SCORE.INTER.POLAR>
0

>  <SCORE.INTER.ROT>
1

>  <SCORE.INTER.SOLV>
18.3404

>  <SCORE.INTER.VDW>
-21.971

>  <SCORE.INTER.norm>
-1.33741

>  <SCORE.INTRA>
0.0150796

>  <SCORE.INTRA.DIHEDRAL>
0.0805637

>  <SCORE.INTRA.DIHEDRAL.0>
1.65305

>  <SCORE.INTRA.POLAR>
0

>  <SCORE.INTRA.POLAR.0>
0

>  <SCORE.INTRA.REPUL>
0

>  <SCORE.INTRA.REPUL.0>
0

>  <SCORE.INTRA.SOLV>
0.0019256

>  <SCORE.INTRA.SOLV.lig_0>
-46.9527

>  <SCORE.INTRA.VDW>
-0.026165

>  <SCORE.INTRA.VDW.0>
-0.177978

>  <SCORE.INTRA.norm>
0.00115997

>  <SCORE.RESTR>
0

>  <SCORE.RESTR.CAVITY>
0

>  <SCORE.RESTR.norm>
0

>  <SCORE.SYSTEM>
0

>  <SCORE.SYSTEM.CONST>
0

>  <SCORE.SYSTEM.DIHEDRAL>
0

>  <SCORE.SYSTEM.SOLV>
0

>  <SCORE.SYSTEM.norm>
0

>  <SCORE.heavy>
13

>  <SCORE.norm>
-1.33625

>  <RMSD>
4.212

$$$$
ligand
 OpenBabel02271912143D
libRbt.so/2013.1/901 2013/11/27
 13 14  0  0  0  0  0  0  0  0999 V2000
   37.3996   35.0452   24.9528 N   0  0  0  0  0  0  0  0  0  0  0  0
   37.7088   34.4427   26.1859 C   0  0  0  0  0  0  0  0  0  0  0  0
   38.8678   34.8767   26.8157 N   0  0  0  0  0  0  0  0  0  0  0  0
   36.9936   33.4622   26.7882 N   0  0  0  0  0  0  0  0  0  0  0  0
   35.8763   33.0979   26.0429 C   0  0  0  0  0  0  0  0  0  0  0  0
   35.4820   33.6509   24.8184 C   0  0  0  0  0  0  0  0  0  0  0  0
   36.2408   34.6614   24.2100 C   0  0  0  0  0  0  0  0  0  0  0  0
   36.0135   35.2100   23.1417 O   0  0  0  0  0  0  0  0  0  0  0  0
   34.2970   33.0121   24.3866 C   0  0  0  0  0  0  0  0  0  0  0  0
   33.9782   32.0790   25.3610 C   0  0  0  0  0  0  0  0  0  0  0  0
   34.9509   32.1311   26.3911 N   0  0  0  0  0  0  0  0  0  0  0  0
   33.6086   33.3276   23.1055 C   0  0  0  0  0  0  0  0  0  0  0  0
   32.8030   32.1849   22.6476 N   0  0  0  0  0  0  0  0  0  0  0  0
  1  2  1  0  0  0  0
  1  7  1  0  0  0  0
  2  3  1  0  0  0  0
  2  4  2  0  0  0  0
  4  5  1  0  0  0  0
  5  6  2  0  0  0  0
  5 11  1  0  0  0  0
  6  7  1  0  0  0  0
  6  9  1  0  0  0  0
  7  8  2  0  0  0  0
  9 10  2  0  0  0  0
  9 12  1  0  0  0  0
 10 11  1  0  0  0  0
 12 13  1  0  0  0  0
M  END
>  <CHROM.1>
155.47717987,35.72030667,33.65726336,24.95420153,-0.22443501,-0.61183527
-0.98521125

>  <Name>
ligand

>  <RI>
0

>  <Rbt.Current_Directory>
/home/itssahil/PROJECTS/Mol_Feturizer/Test_systems_manuscript/rnas/3q50

>  <Rbt.Executable>
rbdock ($Id: //depot/dev/client3/rdock/2013.1/src/exe/rbdock.cxx#4 $)

>  <Rbt.Library>
libRbt.so (2013.1, Build901 2013/11/27)

>  <Rbt.Parameter_File>
/export/apps/rDock/src/rDock_2013.1_src/data/scripts/dock_solv.prm

>  <Rbt.Receptor>
prm/pocket_docking_4.prm

>  <SCORE>
-17.3776

>  <SCORE.INTER>
-17.3924

>  <SCORE.INTER.CONST>
1

>  <SCORE.INTER.POLAR>
0

>  <SCORE.INTER.ROT>
1

>  <SCORE.INTER.SOLV>
18.4038

>  <SCORE.INTER.VDW>
-21.9962

>  <SCORE.INTER.norm>
-1.33788

>  <SCORE.INTRA>
0.014822

>  <SCORE.INTRA.DIHEDRAL>
0.0806834

>  <SCORE.INTRA.DIHEDRAL.0>
1.65305

>  <SCORE.INTRA.POLAR>
0

>  <SCORE.INTRA.POLAR.0>
0

>  <SCORE.INTRA.REPUL>
0

>  <SCORE.INTRA.REPUL.0>
0

>  <SCORE.INTRA.SOLV>
0.00191614

>  <SCORE.INTRA.SOLV.lig_0>
-46.9527

>  <SCORE.INTRA.VDW>
-0.0264778

>  <SCORE.INTRA.VDW.0>
-0.177978

>  <SCORE.INTRA.norm>
0.00114015

>  <SCORE.RESTR>
0

>  <SCORE.RESTR.CAVITY>
0

>  <SCORE.RESTR.norm>
0

>  <SCORE.SYSTEM>
0

>  <SCORE.SYSTEM.CONST>
0

>  <SCORE.SYSTEM.DIHEDRAL>
0

>  <SCORE.SYSTEM.SOLV>
0

>  <SCORE.SYSTEM.norm>
0

>  <SCORE.heavy>
13

>  <SCORE.norm>
-1.33674

>  <RMSD>
4.212

$$$$
ligand
 OpenBabel02271912143D
libRbt.so/2013.1/901 2013/11/27
 13 14  0  0  0  0  0  0  0  0999 V2000
   37.4261   35.0270   24.9788 N   0  0  0  0  0  0  0  0  0  0  0  0
   37.7257   34.4148   26.2095 C   0  0  0  0  0  0  0  0  0  0  0  0
   38.8875   34.8333   26.8445 N   0  0  0  0  0  0  0  0  0  0  0  0
   36.9986   33.4388   26.8048 N   0  0  0  0  0  0  0  0  0  0  0  0
   35.8795   33.0902   26.0547 C   0  0  0  0  0  0  0  0  0  0  0  0
   35.4943   33.6538   24.8322 C   0  0  0  0  0  0  0  0  0  0  0  0
   36.2653   34.6594   24.2310 C   0  0  0  0  0  0  0  0  0  0  0  0
   36.0466   35.2159   23.1650 O   0  0  0  0  0  0  0  0  0  0  0  0
   34.3038   33.0298   24.3939 C   0  0  0  0  0  0  0  0  0  0  0  0
   33.9725   32.0950   25.3626 C   0  0  0  0  0  0  0  0  0  0  0  0
   34.9430   32.1314   26.3955 N   0  0  0  0  0  0  0  0  0  0  0  0
   33.6220   33.3593   23.1128 C   0  0  0  0  0  0  0  0  0  0  0  0
   32.8117   32.2248   22.6428 N   0  0  0  0  0  0  0  0  0  0  0  0
  1  2  1  0  0  0  0
  1  7  1  0  0  0  0
  2  3  1  0  0  0  0
  2  4  2  0  0  0  0
  4  5  1  0  0  0  0
  5  6  2  0  0  0  0
  5 11  1  0  0  0  0
  6  7  1  0  0  0  0
  6  9  1  0  0  0  0
  7  8  2  0  0  0  0
  9 10  2  0  0  0  0
  9 12  1  0  0  0  0
 10 11  1  0  0  0  0
 12 13  1  0  0  0  0
M  END
>  <CHROM.1>
155.15572054,35.73275377,33.65668959,24.96824627,-0.23459239,-0.60491944
-0.98582376

>  <Name>
ligand

>  <RI>
0

>  <Rbt.Current_Directory>
/home/itssahil/PROJECTS/Mol_Feturizer/Test_systems_manuscript/rnas/3q50

>  <Rbt.Executable>
rbdock ($Id: //depot/dev/client3/rdock/2013.1/src/exe/rbdock.cxx#4 $)

>  <Rbt.Library>
libRbt.so (2013.1, Build901 2013/11/27)

>  <Rbt.Parameter_File>
/export/apps/rDock/src/rDock_2013.1_src/data/scripts/dock_solv.prm

>  <Rbt.Receptor>
prm/pocket_docking_4.prm

>  <SCORE>
-17.3649

>  <SCORE.INTER>
-17.3791

>  <SCORE.INTER.CONST>
1

>  <SCORE.INTER.POLAR>
0

>  <SCORE.INTER.ROT>
1

>  <SCORE.INTER.SOLV>
18.2705

>  <SCORE.INTER.VDW>
-21.9429

>  <SCORE.INTER.norm>
-1.33685

>  <SCORE.INTRA>
0.01416

>  <SCORE.INTRA.DIHEDRAL>
0.080976

>  <SCORE.INTRA.DIHEDRAL.0>
1.65305

>  <SCORE.INTRA.POLAR>
0

>  <SCORE.INTRA.POLAR.0>
0

>  <SCORE.INTRA.REPUL>
0

>  <SCORE.INTRA.REPUL.0>
0

>  <SCORE.INTRA.SOLV>
0.00189183

>  <SCORE.INTRA.SOLV.lig_0>
-46.9527

>  <SCORE.INTRA.VDW>
-0.027274

>  <SCORE.INTRA.VDW.0>
-0.177978

>  <SCORE.INTRA.norm>
0.00108923

>  <SCORE.RESTR>
0

>  <SCORE.RESTR.CAVITY>
0

>  <SCORE.RESTR.norm>
0

>  <SCORE.SYSTEM>
0

>  <SCORE.SYSTEM.CONST>
0

>  <SCORE.SYSTEM.DIHEDRAL>
0

>  <SCORE.SYSTEM.SOLV>
0

>  <SCORE.SYSTEM.norm>
0

>  <SCORE.heavy>
13

>  <SCORE.norm>
-1.33576

>  <RMSD>
4.212

$$$$
ligand
 OpenBabel02271912143D
libRbt.so/2013.1/901 2013/11/27
 13 14  0  0  0  0  0  0  0  0999 V2000
   37.4250   35.0181   24.9856 N   0  0  0  0  0  0  0  0  0  0  0  0
   37.7133   34.4075   26.2198 C   0  0  0  0  0  0  0  0  0  0  0  0
   38.8723   34.8226   26.8620 N   0  0  0  0  0  0  0  0  0  0  0  0
   36.9779   33.4360   26.8121 N   0  0  0  0  0  0  0  0  0  0  0  0
   35.8627   33.0903   26.0549 C   0  0  0  0  0  0  0  0  0  0  0  0
   35.4885   33.6526   24.8284 C   0  0  0  0  0  0  0  0  0  0  0  0
   36.2680   34.6536   24.2304 C   0  0  0  0  0  0  0  0  0  0  0  0
   36.0592   35.2086   23.1617 O   0  0  0  0  0  0  0  0  0  0  0  0
   34.2985   33.0326   24.3832 C   0  0  0  0  0  0  0  0  0  0  0  0
   33.9566   32.1014   25.3515 C   0  0  0  0  0  0  0  0  0  0  0  0
   34.9199   32.1362   26.3912 N   0  0  0  0  0  0  0  0  0  0  0  0
   33.6273   33.3619   23.0965 C   0  0  0  0  0  0  0  0  0  0  0  0
   32.8207   32.2275   22.6201 N   0  0  0  0  0  0  0  0  0  0  0  0
  1  2  1  0  0  0  0
  1  7  1  0  0  0  0
  2  3  1  0  0  0  0
  2  4  2  0  0  0  0
  4  5  1  0  0  0  0
  5  6  2  0  0  0  0
  5 11  1  0  0  0  0
  6  7  1  0  0  0  0
  6  9  1  0  0  0  0
  7  8  2  0  0  0  0
  9 10  2  0  0  0  0
  9 12  1  0  0  0  0
 10 11  1  0  0  0  0
 12 13  1  0  0  0  0
M  END
>  <CHROM.1>
154.88551680,35.72646804,33.65466877,24.96590308,-0.24491813,-0.60570097
-0.99402580

>  <Name>
ligand

>  <RI>
0

>  <Rbt.Current_Directory>
/home/itssahil/PROJECTS/Mol_Feturizer/Test_systems_manuscript/rnas/3q50

>  <Rbt.Executable>
rbdock ($Id: //depot/dev/client3/rdock/2013.1/src/exe/rbdock.cxx#4 $)

>  <Rbt.Library>
libRbt.so (2013.1, Build901 2013/11/27)

>  <Rbt.Parameter_File>
/export/apps/rDock/src/rDock_2013.1_src/data/scripts/dock_solv.prm

>  <Rbt.Receptor>
prm/pocket_docking_4.prm

>  <SCORE>
-17.3899

>  <SCORE.INTER>
-17.4035

>  <SCORE.INTER.CONST>
1

>  <SCORE.INTER.POLAR>
0

>  <SCORE.INTER.ROT>
1

>  <SCORE.INTER.SOLV>
18.2952

>  <SCORE.INTER.VDW>
-21.9674

>  <SCORE.INTER.norm>
-1.33873

>  <SCORE.INTRA>
0.013593

>  <SCORE.INTRA.DIHEDRAL>
0.0812101

>  <SCORE.INTRA.DIHEDRAL.0>
1.65305

>  <SCORE.INTRA.POLAR>
0

>  <SCORE.INTRA.POLAR.0>
0

>  <SCORE.INTRA.REPUL>
0

>  <SCORE.INTRA.REPUL.0>
0

>  <SCORE.INTRA.SOLV>
0.00187102

>  <SCORE.INTRA.SOLV.lig_0>
-46.9527

>  <SCORE.INTRA.VDW>
-0.0279476

>  <SCORE.INTRA.VDW.0>
-0.177978

>  <SCORE.INTRA.norm>
0.00104561

>  <SCORE.RESTR>
0

>  <SCORE.RESTR.CAVITY>
0

>  <SCORE.RESTR.norm>
0

>  <SCORE.SYSTEM>
0

>  <SCORE.SYSTEM.CONST>
0

>  <SCORE.SYSTEM.DIHEDRAL>
0

>  <SCORE.SYSTEM.SOLV>
0

>  <SCORE.SYSTEM.norm>
0

>  <SCORE.heavy>
13

>  <SCORE.norm>
-1.33769

>  <RMSD>
4.212

$$$$
ligand
 OpenBabel02271912143D
libRbt.so/2013.1/901 2013/11/27
 13 14  0  0  0  0  0  0  0  0999 V2000
   37.4334   35.0292   24.9912 N   0  0  0  0  0  0  0  0  0  0  0  0
   37.7337   34.4125   26.2195 C   0  0  0  0  0  0  0  0  0  0  0  0
   38.8952   34.8296   26.8561 N   0  0  0  0  0  0  0  0  0  0  0  0
   37.0076   33.4335   26.8110 N   0  0  0  0  0  0  0  0  0  0  0  0
   35.8888   33.0867   26.0597 C   0  0  0  0  0  0  0  0  0  0  0  0
   35.5030   33.6546   24.8393 C   0  0  0  0  0  0  0  0  0  0  0  0
   36.2730   34.6634   24.2421 C   0  0  0  0  0  0  0  0  0  0  0  0
   36.0536   35.2238   23.1782 O   0  0  0  0  0  0  0  0  0  0  0  0
   34.3130   33.0312   24.3987 C   0  0  0  0  0  0  0  0  0  0  0  0
   33.9828   32.0923   25.3637 C   0  0  0  0  0  0  0  0  0  0  0  0
   34.9533   32.1257   26.3967 N   0  0  0  0  0  0  0  0  0  0  0  0
   33.6309   33.3650   23.1189 C   0  0  0  0  0  0  0  0  0  0  0  0
   32.8222   32.2313   22.6442 N   0  0  0  0  0  0  0  0  0  0  0  0
  1  2  1  0  0  0  0
  1  7  1  0  0  0  0
  2  3  1  0  0  0  0
  2  4  2  0  0  0  0
  4  5  1  0  0  0  0
  5  6  2  0  0  0  0
  5 11  1  0  0  0  0
  6  7  1  0  0  0  0
  6  9  1  0  0  0  0
  7  8  2  0  0  0  0
  9 10  2  0  0  0  0
  9 12  1  0  0  0  0
 10 11  1  0  0  0  0
 12 13  1  0  0  0  0
M  END
>  <CHROM.1>
155.12629872,35.74149579,33.65724228,24.97538240,-0.23389878,-0.60575807
-0.98152746

>  <Name>
ligand

>  <RI>
0

>  <Rbt.Current_Directory>
/home/itssahil/PROJECTS/Mol_Feturizer/Test_systems_manuscript/rnas/3q50

>  <Rbt.Executable>
rbdock ($Id: //depot/dev/client3/rdock/2013.1/src/exe/rbdock.cxx#4 $)

>  <Rbt.Library>
libRbt.so (2013.1, Build901 2013/11/27)

>  <Rbt.Parameter_File>
/export/apps/rDock/src/rDock_2013.1_src/data/scripts/dock_solv.prm

>  <Rbt.Receptor>
prm/pocket_docking_5.prm

>  <SCORE>
-17.4041

>  <SCORE.INTER>
-17.4182

>  <SCORE.INTER.CONST>
1

>  <SCORE.INTER.POLAR>
0

>  <SCORE.INTER.ROT>
1

>  <SCORE.INTER.SOLV>
18.2084

>  <SCORE.INTER.VDW>
-21.9482

>  <SCORE.INTER.norm>
-1.33986

>  <SCORE.INTRA>
0.0140987

>  <SCORE.INTRA.DIHEDRAL>
0.081002

>  <SCORE.INTRA.DIHEDRAL.0>
1.65305

>  <SCORE.INTRA.POLAR>
0

>  <SCORE.INTRA.POLAR.0>
0

>  <SCORE.INTRA.REPUL>
0

>  <SCORE.INTRA.REPUL.0>
0

>  <SCORE.INTRA.SOLV>
0.00188958

>  <SCORE.INTRA.SOLV.lig_0>
-46.9527

>  <SCORE.INTRA.VDW>
-0.0273471

>  <SCORE.INTRA.VDW.0>
-0.177978

>  <SCORE.INTRA.norm>
0.00108451

>  <SCORE.RESTR>
0

>  <SCORE.RESTR.CAVITY>
0

>  <SCORE.RESTR.norm>
0

>  <SCORE.SYSTEM>
0

>  <SCORE.SYSTEM.CONST>
0

>  <SCORE.SYSTEM.DIHEDRAL>
0

>  <SCORE.SYSTEM.SOLV>
0

>  <SCORE.SYSTEM.norm>
0

>  <SCORE.heavy>
13

>  <SCORE.norm>
-1.33877

>  <RMSD>
4.212

$$$$
ligand
 OpenBabel02271912143D
libRbt.so/2013.1/901 2013/11/27
 13 14  0  0  0  0  0  0  0  0999 V2000
   37.4266   35.0274   24.9950 N   0  0  0  0  0  0  0  0  0  0  0  0
   37.7299   34.4082   26.2214 C   0  0  0  0  0  0  0  0  0  0  0  0
   38.8918   34.8254   26.8569 N   0  0  0  0  0  0  0  0  0  0  0  0
   37.0061   33.4268   26.8118 N   0  0  0  0  0  0  0  0  0  0  0  0
   35.8865   33.0802   26.0616 C   0  0  0  0  0  0  0  0  0  0  0  0
   35.4978   33.6505   24.8432 C   0  0  0  0  0  0  0  0  0  0  0  0
   36.2654   34.6617   24.2470 C   0  0  0  0  0  0  0  0  0  0  0  0
   36.0434   35.2243   23.1849 O   0  0  0  0  0  0  0  0  0  0  0  0
   34.3080   33.0264   24.4032 C   0  0  0  0  0  0  0  0  0  0  0  0
   33.9807   32.0849   25.3666 C   0  0  0  0  0  0  0  0  0  0  0  0
   34.9529   32.1171   26.3979 N   0  0  0  0  0  0  0  0  0  0  0  0
   33.6232   33.3623   23.1254 C   0  0  0  0  0  0  0  0  0  0  0  0
   32.8134   32.2295   22.6506 N   0  0  0  0  0  0  0  0  0  0  0  0
  1  2  1  0  0  0  0
  1  7  1  0  0  0  0
  2  3  1  0  0  0  0
  2  4  2  0  0  0  0
  4  5  1  0  0  0  0
  5  6  2  0  0  0  0
  5 11  1  0  0  0  0
  6  7  1  0  0  0  0
  6  9  1  0  0  0  0
  7  8  2  0  0  0  0
  9 10  2  0  0  0  0
  9 12  1  0  0  0  0
 10 11  1  0  0  0  0
 12 13  1  0  0  0  0
M  END
>  <CHROM.1>
155.22329006,35.73639591,33.65319010,24.97897907,-0.23110324,-0.60579694
-0.97756219

>  <Name>
ligand

>  <RI>
0

>  <Rbt.Current_Directory>
/home/itssahil/PROJECTS/Mol_Feturizer/Test_systems_manuscript/rnas/3q50

>  <Rbt.Executable>
rbdock ($Id: //depot/dev/client3/rdock/2013.1/src/exe/rbdock.cxx#4 $)

>  <Rbt.Library>
libRbt.so (2013.1, Build901 2013/11/27)

>  <Rbt.Parameter_File>
/export/apps/rDock/src/rDock_2013.1_src/data/scripts/dock_solv.prm

>  <Rbt.Receptor>
prm/pocket_docking_8.prm

>  <SCORE>
-17.37

>  <SCORE.INTER>
-17.3843

>  <SCORE.INTER.CONST>
1

>  <SCORE.INTER.POLAR>
0

>  <SCORE.INTER.ROT>
1

>  <SCORE.INTER.SOLV>
18.2201

>  <SCORE.INTER.VDW>
-21.9295

>  <SCORE.INTER.norm>
-1.33725

>  <SCORE.INTRA>
0.0143003

>  <SCORE.INTRA.DIHEDRAL>
0.0809158

>  <SCORE.INTRA.DIHEDRAL.0>
1.65305

>  <SCORE.INTRA.POLAR>
0

>  <SCORE.INTRA.POLAR.0>
0

>  <SCORE.INTRA.REPUL>
0

>  <SCORE.INTRA.REPUL.0>
0

>  <SCORE.INTRA.SOLV>
0.00189698

>  <SCORE.INTRA.SOLV.lig_0>
-46.9527

>  <SCORE.INTRA.VDW>
-0.0271061

>  <SCORE.INTRA.VDW.0>
-0.177978

>  <SCORE.INTRA.norm>
0.00110002

>  <SCORE.RESTR>
0

>  <SCORE.RESTR.CAVITY>
0

>  <SCORE.RESTR.norm>
0

>  <SCORE.SYSTEM>
0

>  <SCORE.SYSTEM.CONST>
0

>  <SCORE.SYSTEM.DIHEDRAL>
0

>  <SCORE.SYSTEM.SOLV>
0

>  <SCORE.SYSTEM.norm>
0

>  <SCORE.heavy>
13

>  <SCORE.norm>
-1.33615

>  <RMSD>
4.212

$$$$
ligand
 OpenBabel02271912143D
libRbt.so/2013.1/901 2013/11/27
 13 14  0  0  0  0  0  0  0  0999 V2000
   37.3971   35.0501   24.9666 N   0  0  0  0  0  0  0  0  0  0  0  0
   37.7049   34.4411   26.1970 C   0  0  0  0  0  0  0  0  0  0  0  0
   38.8647   34.8695   26.8289 N   0  0  0  0  0  0  0  0  0  0  0  0
   36.9873   33.4594   26.7945 N   0  0  0  0  0  0  0  0  0  0  0  0
   35.8693   33.1011   26.0473 C   0  0  0  0  0  0  0  0  0  0  0  0
   35.4765   33.6608   24.8254 C   0  0  0  0  0  0  0  0  0  0  0  0
   36.2376   34.6725   24.2219 C   0  0  0  0  0  0  0  0  0  0  0  0
   36.0117   35.2266   23.1562 O   0  0  0  0  0  0  0  0  0  0  0  0
   34.2901   33.0267   24.3904 C   0  0  0  0  0  0  0  0  0  0  0  0
   33.9691   32.0897   25.3603 C   0  0  0  0  0  0  0  0  0  0  0  0
   34.9417   32.1347   26.3908 N   0  0  0  0  0  0  0  0  0  0  0  0
   33.6025   33.3498   23.1107 C   0  0  0  0  0  0  0  0  0  0  0  0
   32.7860   32.2149   22.6528 N   0  0  0  0  0  0  0  0  0  0  0  0
  1  2  1  0  0  0  0
  1  7  1  0  0  0  0
  2  3  1  0  0  0  0
  2  4  2  0  0  0  0
  4  5  1  0  0  0  0
  5  6  2  0  0  0  0
  5 11  1  0  0  0  0
  6  7  1  0  0  0  0
  6  9  1  0  0  0  0
  7  8  2  0  0  0  0
  9 10  2  0  0  0  0
  9 12  1  0  0  0  0
 10 11  1  0  0  0  0
 12 13  1  0  0  0  0
M  END
>  <CHROM.1>
155.93016931,35.71405489,33.66628886,24.96168763,-0.22551962,-0.60940360
-0.98099892

>  <Name>
ligand

>  <RI>
0

>  <Rbt.Current_Directory>
/home/itssahil/PROJECTS/Mol_Feturizer/Test_systems_manuscript/rnas/3q50

>  <Rbt.Executable>
rbdock ($Id: //depot/dev/client3/rdock/2013.1/src/exe/rbdock.cxx#4 $)

>  <Rbt.Library>
libRbt.so (2013.1, Build901 2013/11/27)

>  <Rbt.Parameter_File>
/export/apps/rDock/src/rDock_2013.1_src/data/scripts/dock_solv.prm

>  <Rbt.Receptor>
prm/pocket_docking_8.prm

>  <SCORE>
-17.3544

>  <SCORE.INTER>
-17.3702

>  <SCORE.INTER.CONST>
1

>  <SCORE.INTER.POLAR>
0

>  <SCORE.INTER.ROT>
1

>  <SCORE.INTER.SOLV>
18.4006

>  <SCORE.INTER.VDW>
-21.9803

>  <SCORE.INTER.norm>
-1.33617

>  <SCORE.INTRA>
0.0157316

>  <SCORE.INTRA.DIHEDRAL>
0.0802453

>  <SCORE.INTRA.DIHEDRAL.0>
1.65305

>  <SCORE.INTRA.POLAR>
0

>  <SCORE.INTRA.POLAR.0>
0

>  <SCORE.INTRA.REPUL>
0

>  <SCORE.INTRA.REPUL.0>
0

>  <SCORE.INTRA.SOLV>
0.00194952

>  <SCORE.INTRA.SOLV.lig_0>
-46.9527

>  <SCORE.INTRA.VDW>
-0.0253658

>  <SCORE.INTRA.VDW.0>
-0.177978

>  <SCORE.INTRA.norm>
0.00121013

>  <SCORE.RESTR>
0

>  <SCORE.RESTR.CAVITY>
0

>  <SCORE.RESTR.norm>
0

>  <SCORE.SYSTEM>
0

>  <SCORE.SYSTEM.CONST>
0

>  <SCORE.SYSTEM.DIHEDRAL>
0

>  <SCORE.SYSTEM.SOLV>
0

>  <SCORE.SYSTEM.norm>
0

>  <SCORE.heavy>
13

>  <SCORE.norm>
-1.33496

>  <RMSD>
4.212

$$$$
ligand
 OpenBabel02271912143D
libRbt.so/2013.1/901 2013/11/27
 13 14  0  0  0  0  0  0  0  0999 V2000
   37.4551   35.0849   24.9336 N   0  0  0  0  0  0  0  0  0  0  0  0
   37.7923   34.4624   26.1494 C   0  0  0  0  0  0  0  0  0  0  0  0
   38.9626   34.8900   26.7622 N   0  0  0  0  0  0  0  0  0  0  0  0
   37.0932   33.4689   26.7494 N   0  0  0  0  0  0  0  0  0  0  0  0
   35.9619   33.1132   26.0213 C   0  0  0  0  0  0  0  0  0  0  0  0
   35.5401   33.6857   24.8151 C   0  0  0  0  0  0  0  0  0  0  0  0
   36.2825   34.7096   24.2086 C   0  0  0  0  0  0  0  0  0  0  0  0
   36.0309   35.2756   23.1549 O   0  0  0  0  0  0  0  0  0  0  0  0
   34.3486   33.0498   24.3970 C   0  0  0  0  0  0  0  0  0  0  0  0
   34.0535   32.0988   25.3615 C   0  0  0  0  0  0  0  0  0  0  0  0
   35.0474   32.1369   26.3719 N   0  0  0  0  0  0  0  0  0  0  0  0
   33.6324   33.3848   23.1363 C   0  0  0  0  0  0  0  0  0  0  0  0
   32.8000   32.2567   22.6902 N   0  0  0  0  0  0  0  0  0  0  0  0
  1  2  1  0  0  0  0
  1  7  1  0  0  0  0
  2  3  1  0  0  0  0
  2  4  2  0  0  0  0
  4  5  1  0  0  0  0
  5  6  2  0  0  0  0
  5 11  1  0  0  0  0
  6  7  1  0  0  0  0
  6  9  1  0  0  0  0
  7  8  2  0  0  0  0
  9 10  2  0  0  0  0
  9 12  1  0  0  0  0
 10 11  1  0  0  0  0
 12 13  1  0  0  0  0
M  END
>  <CHROM.1>
156.63295803,35.77943211,33.69145984,24.94713818,-0.19949766,-0.60140373
-0.95347888

>  <Name>
ligand

>  <RI>
0

>  <Rbt.Current_Directory>
/home/itssahil/PROJECTS/Mol_Feturizer/Test_systems_manuscript/rnas/3q50

>  <Rbt.Executable>
rbdock ($Id: //depot/dev/client3/rdock/2013.1/src/exe/rbdock.cxx#4 $)

>  <Rbt.Library>
libRbt.so (2013.1, Build901 2013/11/27)

>  <Rbt.Parameter_File>
/export/apps/rDock/src/rDock_2013.1_src/data/scripts/dock_solv.prm

>  <Rbt.Receptor>
prm/pocket_docking_2.prm

>  <SCORE>
-17.3985

>  <SCORE.INTER>
-17.4156

>  <SCORE.INTER.CONST>
1

>  <SCORE.INTER.POLAR>
0

>  <SCORE.INTER.ROT>
1

>  <SCORE.INTER.SOLV>
18.1175

>  <SCORE.INTER.VDW>
-21.9162

>  <SCORE.INTER.norm>
-1.33966

>  <SCORE.INTRA>
0.0170883

>  <SCORE.INTRA.DIHEDRAL>
0.0795064

>  <SCORE.INTRA.DIHEDRAL.0>
1.65305

>  <SCORE.INTRA.POLAR>
0

>  <SCORE.INTRA.POLAR.0>
0

>  <SCORE.INTRA.REPUL>
0

>  <SCORE.INTRA.REPUL.0>
0

>  <SCORE.INTRA.SOLV>
0.00199924

>  <SCORE.INTRA.SOLV.lig_0>
-46.9527

>  <SCORE.INTRA.VDW>
-0.0236645

>  <SCORE.INTRA.VDW.0>
-0.177978

>  <SCORE.INTRA.norm>
0.00131449

>  <SCORE.RESTR>
0

>  <SCORE.RESTR.CAVITY>
0

>  <SCORE.RESTR.norm>
0

>  <SCORE.SYSTEM>
0

>  <SCORE.SYSTEM.CONST>
0

>  <SCORE.SYSTEM.DIHEDRAL>
0

>  <SCORE.SYSTEM.SOLV>
0

>  <SCORE.SYSTEM.norm>
0

>  <SCORE.heavy>
13

>  <SCORE.norm>
-1.33835

>  <RMSD>
4.213

$$$$
ligand
 OpenBabel02271912143D
libRbt.so/2013.1/901 2013/11/27
 13 14  0  0  0  0  0  0  0  0999 V2000
   37.4485   35.0170   24.9971 N   0  0  0  0  0  0  0  0  0  0  0  0
   37.7466   34.3947   26.2231 C   0  0  0  0  0  0  0  0  0  0  0  0
   38.9119   34.8019   26.8589 N   0  0  0  0  0  0  0  0  0  0  0  0
   37.0147   33.4189   26.8128 N   0  0  0  0  0  0  0  0  0  0  0  0
   35.8924   33.0819   26.0623 C   0  0  0  0  0  0  0  0  0  0  0  0
   35.5085   33.6561   24.8443 C   0  0  0  0  0  0  0  0  0  0  0  0
   36.2844   34.6614   24.2487 C   0  0  0  0  0  0  0  0  0  0  0  0
   36.0672   35.2265   23.1869 O   0  0  0  0  0  0  0  0  0  0  0  0
   34.3136   33.0421   24.4037 C   0  0  0  0  0  0  0  0  0  0  0  0
   33.9785   32.1027   25.3664 C   0  0  0  0  0  0  0  0  0  0  0  0
   34.9509   32.1263   26.3980 N   0  0  0  0  0  0  0  0  0  0  0  0
   33.6317   33.3844   23.1260 C   0  0  0  0  0  0  0  0  0  0  0  0
   32.7999   32.2644   22.6589 N   0  0  0  0  0  0  0  0  0  0  0  0
  1  2  1  0  0  0  0
  1  7  1  0  0  0  0
  2  3  1  0  0  0  0
  2  4  2  0  0  0  0
  4  5  1  0  0  0  0
  5  6  2  0  0  0  0
  5 11  1  0  0  0  0
  6  7  1  0  0  0  0
  6  9  1  0  0  0  0
  7  8  2  0  0  0  0
  9 10  2  0  0  0  0
  9 12  1  0  0  0  0
 10 11  1  0  0  0  0
 12 13  1  0  0  0  0
M  END
>  <CHROM.1>
155.90885468,35.74606680,33.65726472,24.98069824,-0.23589688,-0.59807956
-0.97953122

>  <Name>
ligand

>  <RI>
0

>  <Rbt.Current_Directory>
/home/itssahil/PROJECTS/Mol_Feturizer/Test_systems_manuscript/rnas/3q50

>  <Rbt.Executable>
rbdock ($Id: //depot/dev/client3/rdock/2013.1/src/exe/rbdock.cxx#4 $)

>  <Rbt.Library>
libRbt.so (2013.1, Build901 2013/11/27)

>  <Rbt.Parameter_File>
/export/apps/rDock/src/rDock_2013.1_src/data/scripts/dock_solv.prm

>  <Rbt.Receptor>
prm/pocket_docking_2.prm

>  <SCORE>
-17.3737

>  <SCORE.INTER>
-17.3894

>  <SCORE.INTER.CONST>
1

>  <SCORE.INTER.POLAR>
0

>  <SCORE.INTER.ROT>
1

>  <SCORE.INTER.SOLV>
18.1542

>  <SCORE.INTER.VDW>
-21.911

>  <SCORE.INTER.norm>
-1.33765

>  <SCORE.INTRA>
0.0156895

>  <SCORE.INTRA.DIHEDRAL>
0.0802666

>  <SCORE.INTRA.DIHEDRAL.0>
1.65305

>  <SCORE.INTRA.POLAR>
0

>  <SCORE.INTRA.POLAR.0>
0

>  <SCORE.INTRA.REPUL>
0

>  <SCORE.INTRA.REPUL.0>
0

>  <SCORE.INTRA.SOLV>
0.00194798

>  <SCORE.INTRA.SOLV.lig_0>
-46.9527

>  <SCORE.INTRA.VDW>
-0.0254178

>  <SCORE.INTRA.VDW.0>
-0.177978

>  <SCORE.INTRA.norm>
0.00120688

>  <SCORE.RESTR>
0

>  <SCORE.RESTR.CAVITY>
0

>  <SCORE.RESTR.norm>
0

>  <SCORE.SYSTEM>
0

>  <SCORE.SYSTEM.CONST>
0

>  <SCORE.SYSTEM.DIHEDRAL>
0

>  <SCORE.SYSTEM.SOLV>
0

>  <SCORE.SYSTEM.norm>
0

>  <SCORE.heavy>
13

>  <SCORE.norm>
-1.33644

>  <RMSD>
4.213

$$$$
ligand
 OpenBabel02271912143D
libRbt.so/2013.1/901 2013/11/27
 13 14  0  0  0  0  0  0  0  0999 V2000
   37.4341   35.0208   24.9921 N   0  0  0  0  0  0  0  0  0  0  0  0
   37.7291   34.4059   26.2226 C   0  0  0  0  0  0  0  0  0  0  0  0
   38.8904   34.8203   26.8611 N   0  0  0  0  0  0  0  0  0  0  0  0
   36.9979   33.4309   26.8145 N   0  0  0  0  0  0  0  0  0  0  0  0
   35.8798   33.0864   26.0611 C   0  0  0  0  0  0  0  0  0  0  0  0
   35.4991   33.6529   24.8385 C   0  0  0  0  0  0  0  0  0  0  0  0
   36.2743   34.6575   24.2408 C   0  0  0  0  0  0  0  0  0  0  0  0
   36.0597   35.2162   23.1752 O   0  0  0  0  0  0  0  0  0  0  0  0
   34.3081   33.0327   24.3962 C   0  0  0  0  0  0  0  0  0  0  0  0
   33.9720   32.0973   25.3625 C   0  0  0  0  0  0  0  0  0  0  0  0
   34.9399   32.1295   26.3979 N   0  0  0  0  0  0  0  0  0  0  0  0
   33.6304   33.3661   23.1139 C   0  0  0  0  0  0  0  0  0  0  0  0
   32.7980   32.2438   22.6532 N   0  0  0  0  0  0  0  0  0  0  0  0
  1  2  1  0  0  0  0
  1  7  1  0  0  0  0
  2  3  1  0  0  0  0
  2  4  2  0  0  0  0
  4  5  1  0  0  0  0
  5  6  2  0  0  0  0
  5 11  1  0  0  0  0
  6  7  1  0  0  0  0
  6  9  1  0  0  0  0
  7  8  2  0  0  0  0
  9 10  2  0  0  0  0
  9 12  1  0  0  0  0
 10 11  1  0  0  0  0
 12 13  1  0  0  0  0
M  END
>  <CHROM.1>
156.23344894,35.73560378,33.65575858,24.97619568,-0.23752548,-0.60259102
-0.98568715

>  <Name>
ligand

>  <RI>
0

>  <Rbt.Current_Directory>
/home/itssahil/PROJECTS/Mol_Feturizer/Test_systems_manuscript/rnas/3q50

>  <Rbt.Executable>
rbdock ($Id: //depot/dev/client3/rdock/2013.1/src/exe/rbdock.cxx#4 $)

>  <Rbt.Library>
libRbt.so (2013.1, Build901 2013/11/27)

>  <Rbt.Parameter_File>
/export/apps/rDock/src/rDock_2013.1_src/data/scripts/dock_solv.prm

>  <Rbt.Receptor>
prm/pocket_docking_2.prm

>  <SCORE>
-17.4048

>  <SCORE.INTER>
-17.4211

>  <SCORE.INTER.CONST>
1

>  <SCORE.INTER.POLAR>
0

>  <SCORE.INTER.ROT>
1

>  <SCORE.INTER.SOLV>
18.2434

>  <SCORE.INTER.VDW>
-21.9618

>  <SCORE.INTER.norm>
-1.34008

>  <SCORE.INTRA>
0.0163253

>  <SCORE.INTRA.DIHEDRAL>
0.0799353

>  <SCORE.INTRA.DIHEDRAL.0>
1.65305

>  <SCORE.INTRA.POLAR>
0

>  <SCORE.INTRA.POLAR.0>
0

>  <SCORE.INTRA.REPUL>
0

>  <SCORE.INTRA.REPUL.0>
0

>  <SCORE.INTRA.SOLV>
0.00197129

>  <SCORE.INTRA.SOLV.lig_0>
-46.9527

>  <SCORE.INTRA.VDW>
-0.024628

>  <SCORE.INTRA.VDW.0>
-0.177978

>  <SCORE.INTRA.norm>
0.00125579

>  <SCORE.RESTR>
0

>  <SCORE.RESTR.CAVITY>
0

>  <SCORE.RESTR.norm>
0

>  <SCORE.SYSTEM>
0

>  <SCORE.SYSTEM.CONST>
0

>  <SCORE.SYSTEM.DIHEDRAL>
0

>  <SCORE.SYSTEM.SOLV>
0

>  <SCORE.SYSTEM.norm>
0

>  <SCORE.heavy>
13

>  <SCORE.norm>
-1.33883

>  <RMSD>
4.213

$$$$
ligand
 OpenBabel02271912143D
libRbt.so/2013.1/901 2013/11/27
 13 14  0  0  0  0  0  0  0  0999 V2000
   37.4384   35.0275   24.9993 N   0  0  0  0  0  0  0  0  0  0  0  0
   37.7412   34.4048   26.2240 C   0  0  0  0  0  0  0  0  0  0  0  0
   38.9041   34.8184   26.8600 N   0  0  0  0  0  0  0  0  0  0  0  0
   37.0158   33.4233   26.8123 N   0  0  0  0  0  0  0  0  0  0  0  0
   35.8953   33.0806   26.0617 C   0  0  0  0  0  0  0  0  0  0  0  0
   35.5071   33.6545   24.8449 C   0  0  0  0  0  0  0  0  0  0  0  0
   36.2762   34.6658   24.2509 C   0  0  0  0  0  0  0  0  0  0  0  0
   36.0549   35.2315   23.1903 O   0  0  0  0  0  0  0  0  0  0  0  0
   34.3159   33.0337   24.4039 C   0  0  0  0  0  0  0  0  0  0  0  0
   33.9874   32.0904   25.3651 C   0  0  0  0  0  0  0  0  0  0  0  0
   34.9601   32.1183   26.3961 N   0  0  0  0  0  0  0  0  0  0  0  0
   33.6312   33.3740   23.1272 C   0  0  0  0  0  0  0  0  0  0  0  0
   32.8127   32.2466   22.6542 N   0  0  0  0  0  0  0  0  0  0  0  0
  1  2  1  0  0  0  0
  1  7  1  0  0  0  0
  2  3  1  0  0  0  0
  2  4  2  0  0  0  0
  4  5  1  0  0  0  0
  5  6  2  0  0  0  0
  5 11  1  0  0  0  0
  6  7  1  0  0  0  0
  6  9  1  0  0  0  0
  7  8  2  0  0  0  0
  9 10  2  0  0  0  0
  9 12  1  0  0  0  0
 10 11  1  0  0  0  0
 12 13  1  0  0  0  0
M  END
>  <CHROM.1>
155.56810869,35.74523420,33.65669881,24.98093392,-0.23146162,-0.60358006
-0.97524158

>  <Name>
ligand

>  <RI>
0

>  <Rbt.Current_Directory>
/home/itssahil/PROJECTS/Mol_Feturizer/Test_systems_manuscript/rnas/3q50

>  <Rbt.Executable>
rbdock ($Id: //depot/dev/client3/rdock/2013.1/src/exe/rbdock.cxx#4 $)

>  <Rbt.Library>
libRbt.so (2013.1, Build901 2013/11/27)

>  <Rbt.Parameter_File>
/export/apps/rDock/src/rDock_2013.1_src/data/scripts/dock_solv.prm

>  <Rbt.Receptor>
prm/pocket_docking_3.prm

>  <SCORE>
-17.4067

>  <SCORE.INTER>
-17.4217

>  <SCORE.INTER.CONST>
1

>  <SCORE.INTER.POLAR>
0

>  <SCORE.INTER.ROT>
1

>  <SCORE.INTER.SOLV>
18.1675

>  <SCORE.INTER.VDW>
-21.9369

>  <SCORE.INTER.norm>
-1.34013

>  <SCORE.INTRA>
0.0150068

>  <SCORE.INTRA.DIHEDRAL>
0.0805979

>  <SCORE.INTRA.DIHEDRAL.0>
1.65305

>  <SCORE.INTRA.POLAR>
0

>  <SCORE.INTRA.POLAR.0>
0

>  <SCORE.INTRA.REPUL>
0

>  <SCORE.INTRA.REPUL.0>
0

>  <SCORE.INTRA.SOLV>
0.00192292

>  <SCORE.INTRA.SOLV.lig_0>
-46.9527

>  <SCORE.INTRA.VDW>
-0.0262536

>  <SCORE.INTRA.VDW.0>
-0.177978

>  <SCORE.INTRA.norm>
0.00115437

>  <SCORE.RESTR>
0

>  <SCORE.RESTR.CAVITY>
0

>  <SCORE.RESTR.norm>
0

>  <SCORE.SYSTEM>
0

>  <SCORE.SYSTEM.CONST>
0

>  <SCORE.SYSTEM.DIHEDRAL>
0

>  <SCORE.SYSTEM.SOLV>
0

>  <SCORE.SYSTEM.norm>
0

>  <SCORE.heavy>
13

>  <SCORE.norm>
-1.33897

>  <RMSD>
4.213

$$$$
ligand
 OpenBabel02271912143D
libRbt.so/2013.1/901 2013/11/27
 13 14  0  0  0  0  0  0  0  0999 V2000
   37.4521   35.0910   24.9683 N   0  0  0  0  0  0  0  0  0  0  0  0
   37.7840   34.4534   26.1777 C   0  0  0  0  0  0  0  0  0  0  0  0
   38.9512   34.8738   26.8013 N   0  0  0  0  0  0  0  0  0  0  0  0
   37.0828   33.4519   26.7618 N   0  0  0  0  0  0  0  0  0  0  0  0
   35.9551   33.1047   26.0241 C   0  0  0  0  0  0  0  0  0  0  0  0
   35.5386   33.6922   24.8233 C   0  0  0  0  0  0  0  0  0  0  0  0
   36.2831   34.7241   24.2332 C   0  0  0  0  0  0  0  0  0  0  0  0
   36.0361   35.3032   23.1856 O   0  0  0  0  0  0  0  0  0  0  0  0
   34.3494   33.0610   24.3917 C   0  0  0  0  0  0  0  0  0  0  0  0
   34.0505   32.0977   25.3427 C   0  0  0  0  0  0  0  0  0  0  0  0
   35.0396   32.1236   26.3581 N   0  0  0  0  0  0  0  0  0  0  0  0
   33.6388   33.4114   23.1320 C   0  0  0  0  0  0  0  0  0  0  0  0
   32.7968   32.2943   22.6764 N   0  0  0  0  0  0  0  0  0  0  0  0
  1  2  1  0  0  0  0
  1  7  1  0  0  0  0
  2  3  1  0  0  0  0
  2  4  2  0  0  0  0
  4  5  1  0  0  0  0
  5  6  2  0  0  0  0
  5 11  1  0  0  0  0
  6  7  1  0  0  0  0
  6  9  1  0  0  0  0
  7  8  2  0  0  0  0
  9 10  2  0  0  0  0
  9 12  1  0  0  0  0
 10 11  1  0  0  0  0
 12 13  1  0  0  0  0
M  END
>  <CHROM.1>
157.30801649,35.77625612,33.69691732,24.95719401,-0.20284549,-0.60361895
-0.94264944

>  <Name>
ligand

>  <RI>
0

>  <Rbt.Current_Directory>
/home/itssahil/PROJECTS/Mol_Feturizer/Test_systems_manuscript/rnas/3q50

>  <Rbt.Executable>
rbdock ($Id: //depot/dev/client3/rdock/2013.1/src/exe/rbdock.cxx#4 $)

>  <Rbt.Library>
libRbt.so (2013.1, Build901 2013/11/27)

>  <Rbt.Parameter_File>
/export/apps/rDock/src/rDock_2013.1_src/data/scripts/dock_solv.prm

>  <Rbt.Receptor>
prm/pocket_docking_3.prm

>  <SCORE>
-17.3502

>  <SCORE.INTER>
-17.3686

>  <SCORE.INTER.CONST>
1

>  <SCORE.INTER.POLAR>
0

>  <SCORE.INTER.ROT>
1

>  <SCORE.INTER.SOLV>
18.0802

>  <SCORE.INTER.VDW>
-21.8724

>  <SCORE.INTER.norm>
-1.33604

>  <SCORE.INTRA>
0.0183279

>  <SCORE.INTRA.DIHEDRAL>
0.0787296

>  <SCORE.INTRA.DIHEDRAL.0>
1.65305

>  <SCORE.INTRA.POLAR>
0

>  <SCORE.INTRA.POLAR.0>
0

>  <SCORE.INTRA.REPUL>
0

>  <SCORE.INTRA.REPUL.0>
0

>  <SCORE.INTRA.SOLV>
0.00204449

>  <SCORE.INTRA.SOLV.lig_0>
-46.9527

>  <SCORE.INTRA.VDW>
-0.0220592

>  <SCORE.INTRA.VDW.0>
-0.177978

>  <SCORE.INTRA.norm>
0.00140984

>  <SCORE.RESTR>
0

>  <SCORE.RESTR.CAVITY>
0

>  <SCORE.RESTR.norm>
0

>  <SCORE.SYSTEM>
0

>  <SCORE.SYSTEM.CONST>
0

>  <SCORE.SYSTEM.DIHEDRAL>
0

>  <SCORE.SYSTEM.SOLV>
0

>  <SCORE.SYSTEM.norm>
0

>  <SCORE.heavy>
13

>  <SCORE.norm>
-1.33463

>  <RMSD>
4.213

$$$$
ligand
 OpenBabel02271912143D
libRbt.so/2013.1/901 2013/11/27
 13 14  0  0  0  0  0  0  0  0999 V2000
   37.4384   35.0210   24.9978 N   0  0  0  0  0  0  0  0  0  0  0  0
   37.7348   34.4009   26.2254 C   0  0  0  0  0  0  0  0  0  0  0  0
   38.8978   34.8112   26.8634 N   0  0  0  0  0  0  0  0  0  0  0  0
   37.0033   33.4246   26.8149 N   0  0  0  0  0  0  0  0  0  0  0  0
   35.8834   33.0846   26.0622 C   0  0  0  0  0  0  0  0  0  0  0  0
   35.5012   33.6563   24.8424 C   0  0  0  0  0  0  0  0  0  0  0  0
   36.2767   34.6621   24.2473 C   0  0  0  0  0  0  0  0  0  0  0  0
   36.0610   35.2253   23.1842 O   0  0  0  0  0  0  0  0  0  0  0  0
   34.3085   33.0395   24.4000 C   0  0  0  0  0  0  0  0  0  0  0  0
   33.9729   32.1008   25.3633 C   0  0  0  0  0  0  0  0  0  0  0  0
   34.9428   32.1277   26.3970 N   0  0  0  0  0  0  0  0  0  0  0  0
   33.6290   33.3787   23.1202 C   0  0  0  0  0  0  0  0  0  0  0  0
   32.8026   32.2555   22.6513 N   0  0  0  0  0  0  0  0  0  0  0  0
  1  2  1  0  0  0  0
  1  7  1  0  0  0  0
  2  3  1  0  0  0  0
  2  4  2  0  0  0  0
  4  5  1  0  0  0  0
  5  6  2  0  0  0  0
  5 11  1  0  0  0  0
  6  7  1  0  0  0  0
  6  9  1  0  0  0  0
  7  8  2  0  0  0  0
  9 10  2  0  0  0  0
  9 12  1  0  0  0  0
 10 11  1  0  0  0  0
 12 13  1  0  0  0  0
M  END
>  <CHROM.1>
155.78910878,35.73867942,33.65798401,24.97931108,-0.23715622,-0.60106162
-0.98170845

>  <Name>
ligand

>  <RI>
0

>  <Rbt.Current_Directory>
/home/itssahil/PROJECTS/Mol_Feturizer/Test_systems_manuscript/rnas/3q50

>  <Rbt.Executable>
rbdock ($Id: //depot/dev/client3/rdock/2013.1/src/exe/rbdock.cxx#4 $)

>  <Rbt.Library>
libRbt.so (2013.1, Build901 2013/11/27)

>  <Rbt.Parameter_File>
/export/apps/rDock/src/rDock_2013.1_src/data/scripts/dock_solv.prm

>  <Rbt.Receptor>
prm/pocket_docking_3.prm

>  <SCORE>
-17.4075

>  <SCORE.INTER>
-17.423

>  <SCORE.INTER.CONST>
1

>  <SCORE.INTER.POLAR>
0

>  <SCORE.INTER.ROT>
1

>  <SCORE.INTER.SOLV>
18.2003

>  <SCORE.INTER.VDW>
-21.9488

>  <SCORE.INTER.norm>
-1.34023

>  <SCORE.INTRA>
0.0154513

>  <SCORE.INTRA.DIHEDRAL>
0.080385

>  <SCORE.INTRA.DIHEDRAL.0>
1.65305

>  <SCORE.INTRA.POLAR>
0

>  <SCORE.INTRA.POLAR.0>
0

>  <SCORE.INTRA.REPUL>
0

>  <SCORE.INTRA.REPUL.0>
0

>  <SCORE.INTRA.SOLV>
0.00193924

>  <SCORE.INTRA.SOLV.lig_0>
-46.9527

>  <SCORE.INTRA.VDW>
-0.0257108

>  <SCORE.INTRA.VDW.0>
-0.177978

>  <SCORE.INTRA.norm>
0.00118856

>  <SCORE.RESTR>
0

>  <SCORE.RESTR.CAVITY>
0

>  <SCORE.RESTR.norm>
0

>  <SCORE.SYSTEM>
0

>  <SCORE.SYSTEM.CONST>
0

>  <SCORE.SYSTEM.DIHEDRAL>
0

>  <SCORE.SYSTEM.SOLV>
0

>  <SCORE.SYSTEM.norm>
0

>  <SCORE.heavy>
13

>  <SCORE.norm>
-1.33904

>  <RMSD>
4.213

$$$$
ligand
 OpenBabel02271912143D
libRbt.so/2013.1/901 2013/11/27
 13 14  0  0  0  0  0  0  0  0999 V2000
   37.4536   35.0136   25.0071 N   0  0  0  0  0  0  0  0  0  0  0  0
   37.7561   34.3835   26.2280 C   0  0  0  0  0  0  0  0  0  0  0  0
   38.9234   34.7870   26.8625 N   0  0  0  0  0  0  0  0  0  0  0  0
   37.0265   33.4036   26.8140 N   0  0  0  0  0  0  0  0  0  0  0  0
   35.9017   33.0712   26.0651 C   0  0  0  0  0  0  0  0  0  0  0  0
   35.5135   33.6531   24.8521 C   0  0  0  0  0  0  0  0  0  0  0  0
   36.2870   34.6624   24.2605 C   0  0  0  0  0  0  0  0  0  0  0  0
   36.0660   35.2342   23.2031 O   0  0  0  0  0  0  0  0  0  0  0  0
   34.3173   33.0415   24.4118 C   0  0  0  0  0  0  0  0  0  0  0  0
   33.9858   32.0958   25.3696 C   0  0  0  0  0  0  0  0  0  0  0  0
   34.9617   32.1131   26.3979 N   0  0  0  0  0  0  0  0  0  0  0  0
   33.6309   33.3918   23.1386 C   0  0  0  0  0  0  0  0  0  0  0  0
   32.7883   32.2790   22.6735 N   0  0  0  0  0  0  0  0  0  0  0  0
  1  2  1  0  0  0  0
  1  7  1  0  0  0  0
  2  3  1  0  0  0  0
  2  4  2  0  0  0  0
  4  5  1  0  0  0  0
  5  6  2  0  0  0  0
  5 11  1  0  0  0  0
  6  7  1  0  0  0  0
  6  9  1  0  0  0  0
  7  8  2  0  0  0  0
  9 10  2  0  0  0  0
  9 12  1  0  0  0  0
 10 11  1  0  0  0  0
 12 13  1  0  0  0  0
M  END
>  <CHROM.1>
156.42178819,35.75073298,33.65375383,24.98830235,-0.23161732,-0.59568950
-0.97058993

>  <Name>
ligand

>  <RI>
0

>  <Rbt.Current_Directory>
/home/itssahil/PROJECTS/Mol_Feturizer/Test_systems_manuscript/rnas/3q50

>  <Rbt.Executable>
rbdock ($Id: //depot/dev/client3/rdock/2013.1/src/exe/rbdock.cxx#4 $)

>  <Rbt.Library>
libRbt.so (2013.1, Build901 2013/11/27)

>  <Rbt.Parameter_File>
/export/apps/rDock/src/rDock_2013.1_src/data/scripts/dock_solv.prm

>  <Rbt.Receptor>
prm/pocket_docking_4.prm

>  <SCORE>
-17.3726

>  <SCORE.INTER>
-17.3893

>  <SCORE.INTER.CONST>
1

>  <SCORE.INTER.POLAR>
0

>  <SCORE.INTER.ROT>
1

>  <SCORE.INTER.SOLV>
18.0993

>  <SCORE.INTER.VDW>
-21.8926

>  <SCORE.INTER.norm>
-1.33764

>  <SCORE.INTRA>
0.0166877

>  <SCORE.INTRA.DIHEDRAL>
0.079736

>  <SCORE.INTRA.DIHEDRAL.0>
1.65305

>  <SCORE.INTRA.POLAR>
0

>  <SCORE.INTRA.POLAR.0>
0

>  <SCORE.INTRA.REPUL>
0

>  <SCORE.INTRA.REPUL.0>
0

>  <SCORE.INTRA.SOLV>
0.00198457

>  <SCORE.INTRA.SOLV.lig_0>
-46.9527

>  <SCORE.INTRA.VDW>
-0.0241726

>  <SCORE.INTRA.VDW.0>
-0.177978

>  <SCORE.INTRA.norm>
0.00128367

>  <SCORE.RESTR>
0

>  <SCORE.RESTR.CAVITY>
0

>  <SCORE.RESTR.norm>
0

>  <SCORE.SYSTEM>
0

>  <SCORE.SYSTEM.CONST>
0

>  <SCORE.SYSTEM.DIHEDRAL>
0

>  <SCORE.SYSTEM.SOLV>
0

>  <SCORE.SYSTEM.norm>
0

>  <SCORE.heavy>
13

>  <SCORE.norm>
-1.33635

>  <RMSD>
4.213

$$$$
ligand
 OpenBabel02271912143D
libRbt.so/2013.1/901 2013/11/27
 13 14  0  0  0  0  0  0  0  0999 V2000
   37.4348   35.0339   24.9902 N   0  0  0  0  0  0  0  0  0  0  0  0
   37.7361   34.4148   26.2171 C   0  0  0  0  0  0  0  0  0  0  0  0
   38.8976   34.8313   26.8540 N   0  0  0  0  0  0  0  0  0  0  0  0
   37.0108   33.4341   26.8070 N   0  0  0  0  0  0  0  0  0  0  0  0
   35.8918   33.0882   26.0554 C   0  0  0  0  0  0  0  0  0  0  0  0
   35.5051   33.6585   24.8364 C   0  0  0  0  0  0  0  0  0  0  0  0
   36.2743   34.6689   24.2409 C   0  0  0  0  0  0  0  0  0  0  0  0
   36.0541   35.2314   23.1783 O   0  0  0  0  0  0  0  0  0  0  0  0
   34.3154   33.0352   24.3951 C   0  0  0  0  0  0  0  0  0  0  0  0
   33.9861   32.0942   25.3582 C   0  0  0  0  0  0  0  0  0  0  0  0
   34.9571   32.1260   26.3908 N   0  0  0  0  0  0  0  0  0  0  0  0
   33.6325   33.3713   23.1162 C   0  0  0  0  0  0  0  0  0  0  0  0
   32.8091   32.2450   22.6494 N   0  0  0  0  0  0  0  0  0  0  0  0
  1  2  1  0  0  0  0
  1  7  1  0  0  0  0
  2  3  1  0  0  0  0
  2  4  2  0  0  0  0
  4  5  1  0  0  0  0
  5  6  2  0  0  0  0
  5 11  1  0  0  0  0
  6  7  1  0  0  0  0
  6  9  1  0  0  0  0
  7  8  2  0  0  0  0
  9 10  2  0  0  0  0
  9 12  1  0  0  0  0
 10 11  1  0  0  0  0
 12 13  1  0  0  0  0
M  END
>  <CHROM.1>
155.92979126,35.74249451,33.66151029,24.97314306,-0.23202889,-0.60485026
-0.97824069

>  <Name>
ligand

>  <RI>
0

>  <Rbt.Current_Directory>
/home/itssahil/PROJECTS/Mol_Feturizer/Test_systems_manuscript/rnas/3q50

>  <Rbt.Executable>
rbdock ($Id: //depot/dev/client3/rdock/2013.1/src/exe/rbdock.cxx#4 $)

>  <Rbt.Library>
libRbt.so (2013.1, Build901 2013/11/27)

>  <Rbt.Parameter_File>
/export/apps/rDock/src/rDock_2013.1_src/data/scripts/dock_solv.prm

>  <Rbt.Receptor>
prm/pocket_docking_5.prm

>  <SCORE>
-17.399

>  <SCORE.INTER>
-17.4147

>  <SCORE.INTER.CONST>
1

>  <SCORE.INTER.POLAR>
0

>  <SCORE.INTER.ROT>
1

>  <SCORE.INTER.SOLV>
18.2122

>  <SCORE.INTER.VDW>
-21.9472

>  <SCORE.INTER.norm>
-1.33959

>  <SCORE.INTRA>
0.0157309

>  <SCORE.INTRA.DIHEDRAL>
0.0802457

>  <SCORE.INTRA.DIHEDRAL.0>
1.65305

>  <SCORE.INTRA.POLAR>
0

>  <SCORE.INTRA.POLAR.0>
0

>  <SCORE.INTRA.REPUL>
0

>  <SCORE.INTRA.REPUL.0>
0

>  <SCORE.INTRA.SOLV>
0.0019495

>  <SCORE.INTRA.SOLV.lig_0>
-46.9527

>  <SCORE.INTRA.VDW>
-0.0253667

>  <SCORE.INTRA.VDW.0>
-0.177978

>  <SCORE.INTRA.norm>
0.00121007

>  <SCORE.RESTR>
0

>  <SCORE.RESTR.CAVITY>
0

>  <SCORE.RESTR.norm>
0

>  <SCORE.SYSTEM>
0

>  <SCORE.SYSTEM.CONST>
0

>  <SCORE.SYSTEM.DIHEDRAL>
0

>  <SCORE.SYSTEM.SOLV>
0

>  <SCORE.SYSTEM.norm>
0

>  <SCORE.heavy>
13

>  <SCORE.norm>
-1.33838

>  <RMSD>
4.213

$$$$
ligand
 OpenBabel02271912143D
libRbt.so/2013.1/901 2013/11/27
 13 14  0  0  0  0  0  0  0  0999 V2000
   37.4384   35.0299   24.9975 N   0  0  0  0  0  0  0  0  0  0  0  0
   37.7422   34.4077   26.2221 C   0  0  0  0  0  0  0  0  0  0  0  0
   38.9044   34.8233   26.8583 N   0  0  0  0  0  0  0  0  0  0  0  0
   37.0187   33.4247   26.8103 N   0  0  0  0  0  0  0  0  0  0  0  0
   35.8988   33.0800   26.0596 C   0  0  0  0  0  0  0  0  0  0  0  0
   35.5096   33.6534   24.8429 C   0  0  0  0  0  0  0  0  0  0  0  0
   36.2769   34.6662   24.2490 C   0  0  0  0  0  0  0  0  0  0  0  0
   36.0546   35.2315   23.1884 O   0  0  0  0  0  0  0  0  0  0  0  0
   34.3197   33.0304   24.4017 C   0  0  0  0  0  0  0  0  0  0  0  0
   33.9928   32.0864   25.3627 C   0  0  0  0  0  0  0  0  0  0  0  0
   34.9654   32.1160   26.3938 N   0  0  0  0  0  0  0  0  0  0  0  0
   33.6344   33.3696   23.1250 C   0  0  0  0  0  0  0  0  0  0  0  0
   32.7991   32.2495   22.6643 N   0  0  0  0  0  0  0  0  0  0  0  0
  1  2  1  0  0  0  0
  1  7  1  0  0  0  0
  2  3  1  0  0  0  0
  2  4  2  0  0  0  0
  4  5  1  0  0  0  0
  5  6  2  0  0  0  0
  5 11  1  0  0  0  0
  6  7  1  0  0  0  0
  6  9  1  0  0  0  0
  7  8  2  0  0  0  0
  9 10  2  0  0  0  0
  9 12  1  0  0  0  0
 10 11  1  0  0  0  0
 12 13  1  0  0  0  0
M  END
>  <CHROM.1>
156.58097482,35.74621809,33.65668964,24.97990058,-0.22901306,-0.60369234
-0.97354809

>  <Name>
ligand

>  <RI>
0

>  <Rbt.Current_Directory>
/home/itssahil/PROJECTS/Mol_Feturizer/Test_systems_manuscript/rnas/3q50

>  <Rbt.Executable>
rbdock ($Id: //depot/dev/client3/rdock/2013.1/src/exe/rbdock.cxx#4 $)

>  <Rbt.Library>
libRbt.so (2013.1, Build901 2013/11/27)

>  <Rbt.Parameter_File>
/export/apps/rDock/src/rDock_2013.1_src/data/scripts/dock_solv.prm

>  <Rbt.Receptor>
prm/pocket_docking_6.prm

>  <SCORE>
-17.402

>  <SCORE.INTER>
-17.419

>  <SCORE.INTER.CONST>
1

>  <SCORE.INTER.POLAR>
0

>  <SCORE.INTER.ROT>
1

>  <SCORE.INTER.SOLV>
18.182

>  <SCORE.INTER.VDW>
-21.94

>  <SCORE.INTER.norm>
-1.33992

>  <SCORE.INTRA>
0.0169903

>  <SCORE.INTRA.DIHEDRAL>
0.0795635

>  <SCORE.INTRA.DIHEDRAL.0>
1.65305

>  <SCORE.INTRA.POLAR>
0

>  <SCORE.INTRA.POLAR.0>
0

>  <SCORE.INTRA.REPUL>
0

>  <SCORE.INTRA.REPUL.0>
0

>  <SCORE.INTRA.SOLV>
0.00199565

>  <SCORE.INTRA.SOLV.lig_0>
-46.9527

>  <SCORE.INTRA.VDW>
-0.0237893

>  <SCORE.INTRA.VDW.0>
-0.177978

>  <SCORE.INTRA.norm>
0.00130694

>  <SCORE.RESTR>
0

>  <SCORE.RESTR.CAVITY>
0

>  <SCORE.RESTR.norm>
0

>  <SCORE.SYSTEM>
0

>  <SCORE.SYSTEM.CONST>
0

>  <SCORE.SYSTEM.DIHEDRAL>
0

>  <SCORE.SYSTEM.SOLV>
0

>  <SCORE.SYSTEM.norm>
0

>  <SCORE.heavy>
13

>  <SCORE.norm>
-1.33862

>  <RMSD>
4.213

$$$$
ligand
 OpenBabel02271912143D
libRbt.so/2013.1/901 2013/11/27
 13 14  0  0  0  0  0  0  0  0999 V2000
   37.4205   35.0355   24.9954 N   0  0  0  0  0  0  0  0  0  0  0  0
   37.7286   34.4146   26.2197 C   0  0  0  0  0  0  0  0  0  0  0  0
   38.8906   34.8343   26.8536 N   0  0  0  0  0  0  0  0  0  0  0  0
   37.0095   33.4294   26.8095 N   0  0  0  0  0  0  0  0  0  0  0  0
   35.8894   33.0807   26.0609 C   0  0  0  0  0  0  0  0  0  0  0  0
   35.4960   33.6524   24.8448 C   0  0  0  0  0  0  0  0  0  0  0  0
   36.2589   34.6676   24.2491 C   0  0  0  0  0  0  0  0  0  0  0  0
   36.0327   35.2318   23.1888 O   0  0  0  0  0  0  0  0  0  0  0  0
   34.3073   33.0253   24.4060 C   0  0  0  0  0  0  0  0  0  0  0  0
   33.9854   32.0805   25.3679 C   0  0  0  0  0  0  0  0  0  0  0  0
   34.9598   32.1137   26.3972 N   0  0  0  0  0  0  0  0  0  0  0  0
   33.6186   33.3618   23.1304 C   0  0  0  0  0  0  0  0  0  0  0  0
   32.7903   32.2369   22.6689 N   0  0  0  0  0  0  0  0  0  0  0  0
  1  2  1  0  0  0  0
  1  7  1  0  0  0  0
  2  3  1  0  0  0  0
  2  4  2  0  0  0  0
  4  5  1  0  0  0  0
  5  6  2  0  0  0  0
  5 11  1  0  0  0  0
  6  7  1  0  0  0  0
  6  9  1  0  0  0  0
  7  8  2  0  0  0  0
  9 10  2  0  0  0  0
  9 12  1  0  0  0  0
 10 11  1  0  0  0  0
 12 13  1  0  0  0  0
M  END
>  <CHROM.1>
156.36122079,35.73319654,33.65640816,24.98113108,-0.22514802,-0.60573157
-0.97171835

>  <Name>
ligand

>  <RI>
0

>  <Rbt.Current_Directory>
/home/itssahil/PROJECTS/Mol_Feturizer/Test_systems_manuscript/rnas/3q50

>  <Rbt.Executable>
rbdock ($Id: //depot/dev/client3/rdock/2013.1/src/exe/rbdock.cxx#4 $)

>  <Rbt.Library>
libRbt.so (2013.1, Build901 2013/11/27)

>  <Rbt.Parameter_File>
/export/apps/rDock/src/rDock_2013.1_src/data/scripts/dock_solv.prm

>  <Rbt.Receptor>
prm/pocket_docking_6.prm

>  <SCORE>
-17.3684

>  <SCORE.INTER>
-17.385

>  <SCORE.INTER.CONST>
1

>  <SCORE.INTER.POLAR>
0

>  <SCORE.INTER.ROT>
1

>  <SCORE.INTER.SOLV>
18.2465

>  <SCORE.INTER.VDW>
-21.9388

>  <SCORE.INTER.norm>
-1.33731

>  <SCORE.INTRA>
0.0165717

>  <SCORE.INTRA.DIHEDRAL>
0.0798006

>  <SCORE.INTRA.DIHEDRAL.0>
1.65305

>  <SCORE.INTRA.POLAR>
0

>  <SCORE.INTRA.POLAR.0>
0

>  <SCORE.INTRA.REPUL>
0

>  <SCORE.INTRA.REPUL.0>
0

>  <SCORE.INTRA.SOLV>
0.00198032

>  <SCORE.INTRA.SOLV.lig_0>
-46.9527

>  <SCORE.INTRA.VDW>
-0.0243188

>  <SCORE.INTRA.VDW.0>
-0.177978

>  <SCORE.INTRA.norm>
0.00127475

>  <SCORE.RESTR>
0

>  <SCORE.RESTR.CAVITY>
0

>  <SCORE.RESTR.norm>
0

>  <SCORE.SYSTEM>
0

>  <SCORE.SYSTEM.CONST>
0

>  <SCORE.SYSTEM.DIHEDRAL>
0

>  <SCORE.SYSTEM.SOLV>
0

>  <SCORE.SYSTEM.norm>
0

>  <SCORE.heavy>
13

>  <SCORE.norm>
-1.33603

>  <RMSD>
4.213

$$$$
ligand
 OpenBabel02271912143D
libRbt.so/2013.1/901 2013/11/27
 13 14  0  0  0  0  0  0  0  0999 V2000
   37.4395   35.0269   24.9994 N   0  0  0  0  0  0  0  0  0  0  0  0
   37.7431   34.4041   26.2238 C   0  0  0  0  0  0  0  0  0  0  0  0
   38.9062   34.8179   26.8593 N   0  0  0  0  0  0  0  0  0  0  0  0
   37.0183   33.4222   26.8123 N   0  0  0  0  0  0  0  0  0  0  0  0
   35.8975   33.0793   26.0622 C   0  0  0  0  0  0  0  0  0  0  0  0
   35.5085   33.6534   24.8458 C   0  0  0  0  0  0  0  0  0  0  0  0
   36.2771   34.6650   24.2515 C   0  0  0  0  0  0  0  0  0  0  0  0
   36.0550   35.2308   23.1911 O   0  0  0  0  0  0  0  0  0  0  0  0
   34.3174   33.0323   24.4052 C   0  0  0  0  0  0  0  0  0  0  0  0
   33.9896   32.0886   25.3663 C   0  0  0  0  0  0  0  0  0  0  0  0
   34.9628   32.1167   26.3969 N   0  0  0  0  0  0  0  0  0  0  0  0
   33.6319   33.3726   23.1289 C   0  0  0  0  0  0  0  0  0  0  0  0
   32.8162   32.2439   22.6544 N   0  0  0  0  0  0  0  0  0  0  0  0
  1  2  1  0  0  0  0
  1  7  1  0  0  0  0
  2  3  1  0  0  0  0
  2  4  2  0  0  0  0
  4  5  1  0  0  0  0
  5  6  2  0  0  0  0
  5 11  1  0  0  0  0
  6  7  1  0  0  0  0
  6  9  1  0  0  0  0
  7  8  2  0  0  0  0
  9 10  2  0  0  0  0
  9 12  1  0  0  0  0
 10 11  1  0  0  0  0
 12 13  1  0  0  0  0
M  END
>  <CHROM.1>
155.42648426,35.74696835,33.65548595,24.98147969,-0.23093041,-0.60374827
-0.97477117

>  <Name>
ligand

>  <RI>
0

>  <Rbt.Current_Directory>
/home/itssahil/PROJECTS/Mol_Feturizer/Test_systems_manuscript/rnas/3q50

>  <Rbt.Executable>
rbdock ($Id: //depot/dev/client3/rdock/2013.1/src/exe/rbdock.cxx#4 $)

>  <Rbt.Library>
libRbt.so (2013.1, Build901 2013/11/27)

>  <Rbt.Parameter_File>
/export/apps/rDock/src/rDock_2013.1_src/data/scripts/dock_solv.prm

>  <Rbt.Receptor>
prm/pocket_docking_6.prm

>  <SCORE>
-17.4069

>  <SCORE.INTER>
-17.4216

>  <SCORE.INTER.CONST>
1

>  <SCORE.INTER.POLAR>
0

>  <SCORE.INTER.ROT>
1

>  <SCORE.INTER.SOLV>
18.1569

>  <SCORE.INTER.VDW>
-21.9334

>  <SCORE.INTER.norm>
-1.34012

>  <SCORE.INTRA>
0.0147185

>  <SCORE.INTRA.DIHEDRAL>
0.0807306

>  <SCORE.INTRA.DIHEDRAL.0>
1.65305

>  <SCORE.INTRA.POLAR>
0

>  <SCORE.INTRA.POLAR.0>
0

>  <SCORE.INTRA.REPUL>
0

>  <SCORE.INTRA.REPUL.0>
0

>  <SCORE.INTRA.SOLV>
0.00191234

>  <SCORE.INTRA.SOLV.lig_0>
-46.9527

>  <SCORE.INTRA.VDW>
-0.026603

>  <SCORE.INTRA.VDW.0>
-0.177978

>  <SCORE.INTRA.norm>
0.00113219

>  <SCORE.RESTR>
0

>  <SCORE.RESTR.CAVITY>
0

>  <SCORE.RESTR.norm>
0

>  <SCORE.SYSTEM>
0

>  <SCORE.SYSTEM.CONST>
0

>  <SCORE.SYSTEM.DIHEDRAL>
0

>  <SCORE.SYSTEM.SOLV>
0

>  <SCORE.SYSTEM.norm>
0

>  <SCORE.heavy>
13

>  <SCORE.norm>
-1.33899

>  <RMSD>
4.213

$$$$
ligand
 OpenBabel02271912143D
libRbt.so/2013.1/901 2013/11/27
 13 14  0  0  0  0  0  0  0  0999 V2000
   37.4358   35.0303   24.9943 N   0  0  0  0  0  0  0  0  0  0  0  0
   37.7372   34.4107   26.2209 C   0  0  0  0  0  0  0  0  0  0  0  0
   38.8992   34.8262   26.8574 N   0  0  0  0  0  0  0  0  0  0  0  0
   37.0115   33.4303   26.8106 N   0  0  0  0  0  0  0  0  0  0  0  0
   35.8921   33.0853   26.0594 C   0  0  0  0  0  0  0  0  0  0  0  0
   35.5052   33.6562   24.8408 C   0  0  0  0  0  0  0  0  0  0  0  0
   36.2747   34.6663   24.2453 C   0  0  0  0  0  0  0  0  0  0  0  0
   36.0544   35.2294   23.1830 O   0  0  0  0  0  0  0  0  0  0  0  0
   34.3149   33.0338   24.3998 C   0  0  0  0  0  0  0  0  0  0  0  0
   33.9854   32.0927   25.3628 C   0  0  0  0  0  0  0  0  0  0  0  0
   34.9569   32.1235   26.3950 N   0  0  0  0  0  0  0  0  0  0  0  0
   33.6316   33.3707   23.1213 C   0  0  0  0  0  0  0  0  0  0  0  0
   32.8124   32.2428   22.6512 N   0  0  0  0  0  0  0  0  0  0  0  0
  1  2  1  0  0  0  0
  1  7  1  0  0  0  0
  2  3  1  0  0  0  0
  2  4  2  0  0  0  0
  4  5  1  0  0  0  0
  5  6  2  0  0  0  0
  5 11  1  0  0  0  0
  6  7  1  0  0  0  0
  6  9  1  0  0  0  0
  7  8  2  0  0  0  0
  9 10  2  0  0  0  0
  9 12  1  0  0  0  0
 10 11  1  0  0  0  0
 12 13  1  0  0  0  0
M  END
>  <CHROM.1>
155.66365739,35.74301529,33.65883516,24.97719013,-0.23234281,-0.60448499
-0.97812691

>  <Name>
ligand

>  <RI>
0

>  <Rbt.Current_Directory>
/home/itssahil/PROJECTS/Mol_Feturizer/Test_systems_manuscript/rnas/3q50

>  <Rbt.Executable>
rbdock ($Id: //depot/dev/client3/rdock/2013.1/src/exe/rbdock.cxx#4 $)

>  <Rbt.Library>
libRbt.so (2013.1, Build901 2013/11/27)

>  <Rbt.Parameter_File>
/export/apps/rDock/src/rDock_2013.1_src/data/scripts/dock_solv.prm

>  <Rbt.Receptor>
prm/pocket_docking_6.prm

>  <SCORE>
-17.4043

>  <SCORE.INTER>
-17.4195

>  <SCORE.INTER.CONST>
1

>  <SCORE.INTER.POLAR>
0

>  <SCORE.INTER.ROT>
1

>  <SCORE.INTER.SOLV>
18.1961

>  <SCORE.INTER.VDW>
-21.9451

>  <SCORE.INTER.norm>
-1.33996

>  <SCORE.INTRA>
0.0151998

>  <SCORE.INTRA.DIHEDRAL>
0.0805067

>  <SCORE.INTRA.DIHEDRAL.0>
1.65305

>  <SCORE.INTRA.POLAR>
0

>  <SCORE.INTRA.POLAR.0>
0

>  <SCORE.INTRA.REPUL>
0

>  <SCORE.INTRA.REPUL.0>
0

>  <SCORE.INTRA.SOLV>
0.00193001

>  <SCORE.INTRA.SOLV.lig_0>
-46.9527

>  <SCORE.INTRA.VDW>
-0.0260186

>  <SCORE.INTRA.VDW.0>
-0.177978

>  <SCORE.INTRA.norm>
0.00116921

>  <SCORE.RESTR>
0

>  <SCORE.RESTR.CAVITY>
0

>  <SCORE.RESTR.norm>
0

>  <SCORE.SYSTEM>
0

>  <SCORE.SYSTEM.CONST>
0

>  <SCORE.SYSTEM.DIHEDRAL>
0

>  <SCORE.SYSTEM.SOLV>
0

>  <SCORE.SYSTEM.norm>
0

>  <SCORE.heavy>
13

>  <SCORE.norm>
-1.3388

>  <RMSD>
4.213

$$$$
ligand
 OpenBabel02271912143D
libRbt.so/2013.1/901 2013/11/27
 13 14  0  0  0  0  0  0  0  0999 V2000
   37.4558   35.0876   24.9344 N   0  0  0  0  0  0  0  0  0  0  0  0
   37.7933   34.4657   26.1503 C   0  0  0  0  0  0  0  0  0  0  0  0
   38.9636   34.8939   26.7628 N   0  0  0  0  0  0  0  0  0  0  0  0
   37.0947   33.4723   26.7508 N   0  0  0  0  0  0  0  0  0  0  0  0
   35.9633   33.1158   26.0231 C   0  0  0  0  0  0  0  0  0  0  0  0
   35.5412   33.6878   24.8168 C   0  0  0  0  0  0  0  0  0  0  0  0
   36.2831   34.7116   24.2097 C   0  0  0  0  0  0  0  0  0  0  0  0
   36.0312   35.2772   23.1559 O   0  0  0  0  0  0  0  0  0  0  0  0
   34.3498   33.0514   24.3992 C   0  0  0  0  0  0  0  0  0  0  0  0
   34.0552   32.1007   25.3641 C   0  0  0  0  0  0  0  0  0  0  0  0
   35.0492   32.1395   26.3743 N   0  0  0  0  0  0  0  0  0  0  0  0
   33.6332   33.3856   23.1384 C   0  0  0  0  0  0  0  0  0  0  0  0
   32.7926   32.2611   22.6989 N   0  0  0  0  0  0  0  0  0  0  0  0
  1  2  1  0  0  0  0
  1  7  1  0  0  0  0
  2  3  1  0  0  0  0
  2  4  2  0  0  0  0
  4  5  1  0  0  0  0
  5  6  2  0  0  0  0
  5 11  1  0  0  0  0
  6  7  1  0  0  0  0
  6  9  1  0  0  0  0
  7  8  2  0  0  0  0
  9 10  2  0  0  0  0
  9 12  1  0  0  0  0
 10 11  1  0  0  0  0
 12 13  1  0  0  0  0
M  END
>  <CHROM.1>
157.09943748,35.77981971,33.69399455,24.94925927,-0.19855964,-0.60086249
-0.95328291

>  <Name>
ligand

>  <RI>
0

>  <Rbt.Current_Directory>
/home/itssahil/PROJECTS/Mol_Feturizer/Test_systems_manuscript/rnas/3q50

>  <Rbt.Executable>
rbdock ($Id: //depot/dev/client3/rdock/2013.1/src/exe/rbdock.cxx#4 $)

>  <Rbt.Library>
libRbt.so (2013.1, Build901 2013/11/27)

>  <Rbt.Parameter_File>
/export/apps/rDock/src/rDock_2013.1_src/data/scripts/dock_solv.prm

>  <Rbt.Receptor>
prm/pocket_docking_6.prm

>  <SCORE>
-17.3986

>  <SCORE.INTER>
-17.4166

>  <SCORE.INTER.CONST>
1

>  <SCORE.INTER.POLAR>
0

>  <SCORE.INTER.ROT>
1

>  <SCORE.INTER.SOLV>
18.1189

>  <SCORE.INTER.VDW>
-21.9174

>  <SCORE.INTER.norm>
-1.33974

>  <SCORE.INTRA>
0.0179516

>  <SCORE.INTRA.DIHEDRAL>
0.0789766

>  <SCORE.INTRA.DIHEDRAL.0>
1.65305

>  <SCORE.INTRA.POLAR>
0

>  <SCORE.INTRA.POLAR.0>
0

>  <SCORE.INTRA.REPUL>
0

>  <SCORE.INTRA.REPUL.0>
0

>  <SCORE.INTRA.SOLV>
0.00203077

>  <SCORE.INTRA.SOLV.lig_0>
-46.9527

>  <SCORE.INTRA.VDW>
-0.0225521

>  <SCORE.INTRA.VDW.0>
-0.177978

>  <SCORE.INTRA.norm>
0.00138089

>  <SCORE.RESTR>
0

>  <SCORE.RESTR.CAVITY>
0

>  <SCORE.RESTR.norm>
0

>  <SCORE.SYSTEM>
0

>  <SCORE.SYSTEM.CONST>
0

>  <SCORE.SYSTEM.DIHEDRAL>
0

>  <SCORE.SYSTEM.SOLV>
0

>  <SCORE.SYSTEM.norm>
0

>  <SCORE.heavy>
13

>  <SCORE.norm>
-1.33836

>  <RMSD>
4.213

$$$$
ligand
 OpenBabel02271912143D
libRbt.so/2013.1/901 2013/11/27
 13 14  0  0  0  0  0  0  0  0999 V2000
   37.4305   35.0404   24.9869 N   0  0  0  0  0  0  0  0  0  0  0  0
   37.7352   34.4189   26.2118 C   0  0  0  0  0  0  0  0  0  0  0  0
   38.8961   34.8373   26.8483 N   0  0  0  0  0  0  0  0  0  0  0  0
   37.0136   33.4344   26.7998 N   0  0  0  0  0  0  0  0  0  0  0  0
   35.8948   33.0871   26.0486 C   0  0  0  0  0  0  0  0  0  0  0  0
   35.5049   33.6595   24.8317 C   0  0  0  0  0  0  0  0  0  0  0  0
   36.2701   34.6739   24.2380 C   0  0  0  0  0  0  0  0  0  0  0  0
   36.0470   35.2386   23.1772 O   0  0  0  0  0  0  0  0  0  0  0  0
   34.3165   33.0337   24.3901 C   0  0  0  0  0  0  0  0  0  0  0  0
   33.9913   32.0891   25.3511 C   0  0  0  0  0  0  0  0  0  0  0  0
   34.9635   32.1210   26.3826 N   0  0  0  0  0  0  0  0  0  0  0  0
   33.6310   33.3712   23.1130 C   0  0  0  0  0  0  0  0  0  0  0  0
   32.7873   32.2544   22.6595 N   0  0  0  0  0  0  0  0  0  0  0  0
  1  2  1  0  0  0  0
  1  7  1  0  0  0  0
  2  3  1  0  0  0  0
  2  4  2  0  0  0  0
  4  5  1  0  0  0  0
  5  6  2  0  0  0  0
  5 11  1  0  0  0  0
  6  7  1  0  0  0  0
  6  9  1  0  0  0  0
  7  8  2  0  0  0  0
  9 10  2  0  0  0  0
  9 12  1  0  0  0  0
 10 11  1  0  0  0  0
 12 13  1  0  0  0  0
M  END
>  <CHROM.1>
157.17527642,35.74049782,33.66372676,24.96938529,-0.22716299,-0.60493485
-0.97251626

>  <Name>
ligand

>  <RI>
0

>  <Rbt.Current_Directory>
/home/itssahil/PROJECTS/Mol_Feturizer/Test_systems_manuscript/rnas/3q50

>  <Rbt.Executable>
rbdock ($Id: //depot/dev/client3/rdock/2013.1/src/exe/rbdock.cxx#4 $)

>  <Rbt.Library>
libRbt.so (2013.1, Build901 2013/11/27)

>  <Rbt.Parameter_File>
/export/apps/rDock/src/rDock_2013.1_src/data/scripts/dock_solv.prm

>  <Rbt.Receptor>
prm/pocket_docking_7.prm

>  <SCORE>
-17.3896

>  <SCORE.INTER>
-17.4077

>  <SCORE.INTER.CONST>
1

>  <SCORE.INTER.POLAR>
0

>  <SCORE.INTER.ROT>
1

>  <SCORE.INTER.SOLV>
18.2409

>  <SCORE.INTER.VDW>
-21.9521

>  <SCORE.INTER.norm>
-1.33906

>  <SCORE.INTRA>
0.0180891

>  <SCORE.INTRA.DIHEDRAL>
0.0788875

>  <SCORE.INTRA.DIHEDRAL.0>
1.65305

>  <SCORE.INTRA.POLAR>
0

>  <SCORE.INTRA.POLAR.0>
0

>  <SCORE.INTRA.REPUL>
0

>  <SCORE.INTRA.REPUL.0>
0

>  <SCORE.INTRA.SOLV>
0.00203579

>  <SCORE.INTRA.SOLV.lig_0>
-46.9527

>  <SCORE.INTRA.VDW>
-0.0223726

>  <SCORE.INTRA.VDW.0>
-0.177978

>  <SCORE.INTRA.norm>
0.00139147

>  <SCORE.RESTR>
0

>  <SCORE.RESTR.CAVITY>
0

>  <SCORE.RESTR.norm>
0

>  <SCORE.SYSTEM>
0

>  <SCORE.SYSTEM.CONST>
0

>  <SCORE.SYSTEM.DIHEDRAL>
0

>  <SCORE.SYSTEM.SOLV>
0

>  <SCORE.SYSTEM.norm>
0

>  <SCORE.heavy>
13

>  <SCORE.norm>
-1.33767

>  <RMSD>
4.213

$$$$
ligand
 OpenBabel02271912143D
libRbt.so/2013.1/901 2013/11/27
 13 14  0  0  0  0  0  0  0  0999 V2000
   37.4459   35.0557   24.9614 N   0  0  0  0  0  0  0  0  0  0  0  0
   37.7617   34.4457   26.1892 C   0  0  0  0  0  0  0  0  0  0  0  0
   38.9268   34.8719   26.8128 N   0  0  0  0  0  0  0  0  0  0  0  0
   37.0469   33.4649   26.7916 N   0  0  0  0  0  0  0  0  0  0  0  0
   35.9229   33.1087   26.0524 C   0  0  0  0  0  0  0  0  0  0  0  0
   35.5220   33.6696   24.8337 C   0  0  0  0  0  0  0  0  0  0  0  0
   36.2804   34.6803   24.2250 C   0  0  0  0  0  0  0  0  0  0  0  0
   36.0476   35.2353   23.1612 O   0  0  0  0  0  0  0  0  0  0  0  0
   34.3315   33.0376   24.4071 C   0  0  0  0  0  0  0  0  0  0  0  0
   34.0159   32.1008   25.3789 C   0  0  0  0  0  0  0  0  0  0  0  0
   34.9962   32.1438   26.4023 N   0  0  0  0  0  0  0  0  0  0  0  0
   33.6351   33.3625   23.1326 C   0  0  0  0  0  0  0  0  0  0  0  0
   32.8177   32.2271   22.6773 N   0  0  0  0  0  0  0  0  0  0  0  0
  1  2  1  0  0  0  0
  1  7  1  0  0  0  0
  2  3  1  0  0  0  0
  2  4  2  0  0  0  0
  4  5  1  0  0  0  0
  5  6  2  0  0  0  0
  5 11  1  0  0  0  0
  6  7  1  0  0  0  0
  6  9  1  0  0  0  0
  7  8  2  0  0  0  0
  9 10  2  0  0  0  0
  9 12  1  0  0  0  0
 10 11  1  0  0  0  0
 12 13  1  0  0  0  0
M  END
>  <CHROM.1>
155.69253864,35.76095170,33.67450484,24.96795521,-0.21954674,-0.60428897
-0.97722416

>  <Name>
ligand

>  <RI>
0

>  <Rbt.Current_Directory>
/home/itssahil/PROJECTS/Mol_Feturizer/Test_systems_manuscript/rnas/3q50

>  <Rbt.Executable>
rbdock ($Id: //depot/dev/client3/rdock/2013.1/src/exe/rbdock.cxx#4 $)

>  <Rbt.Library>
libRbt.so (2013.1, Build901 2013/11/27)

>  <Rbt.Parameter_File>
/export/apps/rDock/src/rDock_2013.1_src/data/scripts/dock_solv.prm

>  <Rbt.Receptor>
prm/pocket_docking_7.prm

>  <SCORE>
-17.3389

>  <SCORE.INTER>
-17.3541

>  <SCORE.INTER.CONST>
1

>  <SCORE.INTER.POLAR>
0

>  <SCORE.INTER.ROT>
1

>  <SCORE.INTER.SOLV>
18.1759

>  <SCORE.INTER.VDW>
-21.8947

>  <SCORE.INTER.norm>
-1.33493

>  <SCORE.INTRA>
0.0152579

>  <SCORE.INTRA.DIHEDRAL>
0.0804789

>  <SCORE.INTRA.DIHEDRAL.0>
1.65305

>  <SCORE.INTRA.POLAR>
0

>  <SCORE.INTRA.POLAR.0>
0

>  <SCORE.INTRA.REPUL>
0

>  <SCORE.INTRA.REPUL.0>
0

>  <SCORE.INTRA.SOLV>
0.00193214

>  <SCORE.INTRA.SOLV.lig_0>
-46.9527

>  <SCORE.INTRA.VDW>
-0.0259477

>  <SCORE.INTRA.VDW.0>
-0.177978

>  <SCORE.INTRA.norm>
0.00117368

>  <SCORE.RESTR>
0

>  <SCORE.RESTR.CAVITY>
0

>  <SCORE.RESTR.norm>
0

>  <SCORE.SYSTEM>
0

>  <SCORE.SYSTEM.CONST>
0

>  <SCORE.SYSTEM.DIHEDRAL>
0

>  <SCORE.SYSTEM.SOLV>
0

>  <SCORE.SYSTEM.norm>
0

>  <SCORE.heavy>
13

>  <SCORE.norm>
-1.33376

>  <RMSD>
4.213

$$$$
ligand
 OpenBabel02271912143D
libRbt.so/2013.1/901 2013/11/27
 13 14  0  0  0  0  0  0  0  0999 V2000
   37.4368   35.0242   24.9842 N   0  0  0  0  0  0  0  0  0  0  0  0
   37.7298   34.4106   26.2158 C   0  0  0  0  0  0  0  0  0  0  0  0
   38.8925   34.8222   26.8536 N   0  0  0  0  0  0  0  0  0  0  0  0
   36.9953   33.4391   26.8095 N   0  0  0  0  0  0  0  0  0  0  0  0
   35.8760   33.0969   26.0568 C   0  0  0  0  0  0  0  0  0  0  0  0
   35.4972   33.6625   24.8331 C   0  0  0  0  0  0  0  0  0  0  0  0
   36.2757   34.6634   24.2336 C   0  0  0  0  0  0  0  0  0  0  0  0
   36.0630   35.2209   23.1670 O   0  0  0  0  0  0  0  0  0  0  0  0
   34.3041   33.0455   24.3921 C   0  0  0  0  0  0  0  0  0  0  0  0
   33.9649   32.1130   25.3601 C   0  0  0  0  0  0  0  0  0  0  0  0
   34.9330   32.1439   26.3954 N   0  0  0  0  0  0  0  0  0  0  0  0
   33.6275   33.3788   23.1091 C   0  0  0  0  0  0  0  0  0  0  0  0
   32.7884   32.2599   22.6525 N   0  0  0  0  0  0  0  0  0  0  0  0
  1  2  1  0  0  0  0
  1  7  1  0  0  0  0
  2  3  1  0  0  0  0
  2  4  2  0  0  0  0
  4  5  1  0  0  0  0
  5  6  2  0  0  0  0
  5 11  1  0  0  0  0
  6  7  1  0  0  0  0
  6  9  1  0  0  0  0
  7  8  2  0  0  0  0
  9 10  2  0  0  0  0
  9 12  1  0  0  0  0
 10 11  1  0  0  0  0
 12 13  1  0  0  0  0
M  END
>  <CHROM.1>
156.39469018,35.73350194,33.66491572,24.97101385,-0.23954377,-0.59954175
-0.98862366

>  <Name>
ligand

>  <RI>
0

>  <Rbt.Current_Directory>
/home/itssahil/PROJECTS/Mol_Feturizer/Test_systems_manuscript/rnas/3q50

>  <Rbt.Executable>
rbdock ($Id: //depot/dev/client3/rdock/2013.1/src/exe/rbdock.cxx#4 $)

>  <Rbt.Library>
libRbt.so (2013.1, Build901 2013/11/27)

>  <Rbt.Parameter_File>
/export/apps/rDock/src/rDock_2013.1_src/data/scripts/dock_solv.prm

>  <Rbt.Receptor>
prm/pocket_docking_7.prm

>  <SCORE>
-17.4013

>  <SCORE.INTER>
-17.4179

>  <SCORE.INTER.CONST>
1

>  <SCORE.INTER.POLAR>
0

>  <SCORE.INTER.ROT>
1

>  <SCORE.INTER.SOLV>
18.2616

>  <SCORE.INTER.VDW>
-21.9658

>  <SCORE.INTER.norm>
-1.33984

>  <SCORE.INTRA>
0.0166359

>  <SCORE.INTRA.DIHEDRAL>
0.079765

>  <SCORE.INTRA.DIHEDRAL.0>
1.65305

>  <SCORE.INTRA.POLAR>
0

>  <SCORE.INTRA.POLAR.0>
0

>  <SCORE.INTRA.REPUL>
0

>  <SCORE.INTRA.REPUL.0>
0

>  <SCORE.INTRA.SOLV>
0.00198267

>  <SCORE.INTRA.SOLV.lig_0>
-46.9527

>  <SCORE.INTRA.VDW>
-0.024238

>  <SCORE.INTRA.VDW.0>
-0.177978

>  <SCORE.INTRA.norm>
0.00127968

>  <SCORE.RESTR>
0

>  <SCORE.RESTR.CAVITY>
0

>  <SCORE.RESTR.norm>
0

>  <SCORE.SYSTEM>
0

>  <SCORE.SYSTEM.CONST>
0

>  <SCORE.SYSTEM.DIHEDRAL>
0

>  <SCORE.SYSTEM.SOLV>
0

>  <SCORE.SYSTEM.norm>
0

>  <SCORE.heavy>
13

>  <SCORE.norm>
-1.33856

>  <RMSD>
4.213

$$$$
ligand
 OpenBabel02271912143D
libRbt.so/2013.1/901 2013/11/27
 13 14  0  0  0  0  0  0  0  0999 V2000
   37.4125   35.0147   24.9736 N   0  0  0  0  0  0  0  0  0  0  0  0
   37.7228   34.4073   26.2041 C   0  0  0  0  0  0  0  0  0  0  0  0
   38.8873   34.8318   26.8299 N   0  0  0  0  0  0  0  0  0  0  0  0
   37.0032   33.4304   26.8072 N   0  0  0  0  0  0  0  0  0  0  0  0
   35.8803   33.0756   26.0658 C   0  0  0  0  0  0  0  0  0  0  0  0
   35.4848   33.6341   24.8442 C   0  0  0  0  0  0  0  0  0  0  0  0
   36.2481   34.6407   24.2349 C   0  0  0  0  0  0  0  0  0  0  0  0
   36.0201   35.1933   23.1687 O   0  0  0  0  0  0  0  0  0  0  0  0
   34.2936   33.0045   24.4159 C   0  0  0  0  0  0  0  0  0  0  0  0
   33.9724   32.0714   25.3895 C   0  0  0  0  0  0  0  0  0  0  0  0
   34.9497   32.1144   26.4157 N   0  0  0  0  0  0  0  0  0  0  0  0
   33.6020   33.3277   23.1384 C   0  0  0  0  0  0  0  0  0  0  0  0
   32.7924   32.1891   22.6775 N   0  0  0  0  0  0  0  0  0  0  0  0
  1  2  1  0  0  0  0
  1  7  1  0  0  0  0
  2  3  1  0  0  0  0
  2  4  2  0  0  0  0
  4  5  1  0  0  0  0
  5  6  2  0  0  0  0
  5 11  1  0  0  0  0
  6  7  1  0  0  0  0
  6  9  1  0  0  0  0
  7  8  2  0  0  0  0
  9 10  2  0  0  0  0
  9 12  1  0  0  0  0
 10 11  1  0  0  0  0
 12 13  1  0  0  0  0
M  END
>  <CHROM.1>
155.16939700,35.72415498,33.63829552,24.97865924,-0.22525291,-0.60416413
-0.98345325

>  <Name>
ligand

>  <RI>
0

>  <Rbt.Current_Directory>
/home/itssahil/PROJECTS/Mol_Feturizer/Test_systems_manuscript/rnas/3q50

>  <Rbt.Executable>
rbdock ($Id: //depot/dev/client3/rdock/2013.1/src/exe/rbdock.cxx#4 $)

>  <Rbt.Library>
libRbt.so (2013.1, Build901 2013/11/27)

>  <Rbt.Parameter_File>
/export/apps/rDock/src/rDock_2013.1_src/data/scripts/dock_solv.prm

>  <Rbt.Receptor>
prm/pocket_docking_7.prm

>  <SCORE>
-17.3341

>  <SCORE.INTER>
-17.3483

>  <SCORE.INTER.CONST>
1

>  <SCORE.INTER.POLAR>
0

>  <SCORE.INTER.ROT>
1

>  <SCORE.INTER.SOLV>
18.3057

>  <SCORE.INTER.VDW>
-21.9341

>  <SCORE.INTER.norm>
-1.33449

>  <SCORE.INTRA>
0.0141884

>  <SCORE.INTRA.DIHEDRAL>
0.0809639

>  <SCORE.INTRA.DIHEDRAL.0>
1.65305

>  <SCORE.INTRA.POLAR>
0

>  <SCORE.INTRA.POLAR.0>
0

>  <SCORE.INTRA.REPUL>
0

>  <SCORE.INTRA.REPUL.0>
0

>  <SCORE.INTRA.SOLV>
0.00189288

>  <SCORE.INTRA.SOLV.lig_0>
-46.9527

>  <SCORE.INTRA.VDW>
-0.02724

>  <SCORE.INTRA.VDW.0>
-0.177978

>  <SCORE.INTRA.norm>
0.00109142

>  <SCORE.RESTR>
0

>  <SCORE.RESTR.CAVITY>
0

>  <SCORE.RESTR.norm>
0

>  <SCORE.SYSTEM>
0

>  <SCORE.SYSTEM.CONST>
0

>  <SCORE.SYSTEM.DIHEDRAL>
0

>  <SCORE.SYSTEM.SOLV>
0

>  <SCORE.SYSTEM.norm>
0

>  <SCORE.heavy>
13

>  <SCORE.norm>
-1.33339

>  <RMSD>
4.213

$$$$
ligand
 OpenBabel02271912143D
libRbt.so/2013.1/901 2013/11/27
 13 14  0  0  0  0  0  0  0  0999 V2000
   37.4144   35.0438   24.9856 N   0  0  0  0  0  0  0  0  0  0  0  0
   37.7253   34.4257   26.2106 C   0  0  0  0  0  0  0  0  0  0  0  0
   38.8865   34.8496   26.8429 N   0  0  0  0  0  0  0  0  0  0  0  0
   37.0094   33.4393   26.8024 N   0  0  0  0  0  0  0  0  0  0  0  0
   35.8897   33.0863   26.0553 C   0  0  0  0  0  0  0  0  0  0  0  0
   35.4938   33.6550   24.8386 C   0  0  0  0  0  0  0  0  0  0  0  0
   36.2533   34.6715   24.2408 C   0  0  0  0  0  0  0  0  0  0  0  0
   36.0247   35.2335   23.1798 O   0  0  0  0  0  0  0  0  0  0  0  0
   34.3066   33.0239   24.4016 C   0  0  0  0  0  0  0  0  0  0  0  0
   33.9881   32.0796   25.3652 C   0  0  0  0  0  0  0  0  0  0  0  0
   34.9632   32.1171   26.3937 N   0  0  0  0  0  0  0  0  0  0  0  0
   33.6159   33.3565   23.1261 C   0  0  0  0  0  0  0  0  0  0  0  0
   32.7664   32.2400   22.6829 N   0  0  0  0  0  0  0  0  0  0  0  0
  1  2  1  0  0  0  0
  1  7  1  0  0  0  0
  2  3  1  0  0  0  0
  2  4  2  0  0  0  0
  4  5  1  0  0  0  0
  5  6  2  0  0  0  0
  5 11  1  0  0  0  0
  6  7  1  0  0  0  0
  6  9  1  0  0  0  0
  7  8  2  0  0  0  0
  9 10  2  0  0  0  0
  9 12  1  0  0  0  0
 10 11  1  0  0  0  0
 12 13  1  0  0  0  0
M  END
>  <CHROM.1>
157.65789913,35.72912386,33.66083955,24.97602347,-0.22084481,-0.60578238
-0.97051863

>  <Name>
ligand

>  <RI>
0

>  <Rbt.Current_Directory>
/home/itssahil/PROJECTS/Mol_Feturizer/Test_systems_manuscript/rnas/3q50

>  <Rbt.Executable>
rbdock ($Id: //depot/dev/client3/rdock/2013.1/src/exe/rbdock.cxx#4 $)

>  <Rbt.Library>
libRbt.so (2013.1, Build901 2013/11/27)

>  <Rbt.Parameter_File>
/export/apps/rDock/src/rDock_2013.1_src/data/scripts/dock_solv.prm

>  <Rbt.Receptor>
prm/pocket_docking_8.prm

>  <SCORE>
-17.3599

>  <SCORE.INTER>
-17.3789

>  <SCORE.INTER.CONST>
1

>  <SCORE.INTER.POLAR>
0

>  <SCORE.INTER.ROT>
1

>  <SCORE.INTER.SOLV>
18.3019

>  <SCORE.INTER.VDW>
-21.9532

>  <SCORE.INTER.norm>
-1.33684

>  <SCORE.INTRA>
0.0189454

>  <SCORE.INTRA.DIHEDRAL>
0.0783015

>  <SCORE.INTRA.DIHEDRAL.0>
1.65305

>  <SCORE.INTRA.POLAR>
0

>  <SCORE.INTRA.POLAR.0>
0

>  <SCORE.INTRA.REPUL>
0

>  <SCORE.INTRA.REPUL.0>
0

>  <SCORE.INTRA.SOLV>
0.00206693

>  <SCORE.INTRA.SOLV.lig_0>
-46.9527

>  <SCORE.INTRA.VDW>
-0.0212388

>  <SCORE.INTRA.VDW.0>
-0.177978

>  <SCORE.INTRA.norm>
0.00145734

>  <SCORE.RESTR>
0

>  <SCORE.RESTR.CAVITY>
0

>  <SCORE.RESTR.norm>
0

>  <SCORE.SYSTEM>
0

>  <SCORE.SYSTEM.CONST>
0

>  <SCORE.SYSTEM.DIHEDRAL>
0

>  <SCORE.SYSTEM.SOLV>
0

>  <SCORE.SYSTEM.norm>
0

>  <SCORE.heavy>
13

>  <SCORE.norm>
-1.33538

>  <RMSD>
4.213

$$$$
ligand
 OpenBabel02271912143D
libRbt.so/2013.1/901 2013/11/27
 13 14  0  0  0  0  0  0  0  0999 V2000
   37.4342   35.0823   24.9407 N   0  0  0  0  0  0  0  0  0  0  0  0
   37.7642   34.4653   26.1613 C   0  0  0  0  0  0  0  0  0  0  0  0
   38.9280   34.8995   26.7818 N   0  0  0  0  0  0  0  0  0  0  0  0
   37.0643   33.4711   26.7592 N   0  0  0  0  0  0  0  0  0  0  0  0
   35.9401   33.1085   26.0235 C   0  0  0  0  0  0  0  0  0  0  0  0
   35.5256   33.6752   24.8121 C   0  0  0  0  0  0  0  0  0  0  0  0
   36.2687   34.6999   24.2079 C   0  0  0  0  0  0  0  0  0  0  0  0
   36.0232   35.2613   23.1503 O   0  0  0  0  0  0  0  0  0  0  0  0
   34.3399   33.0333   24.3870 C   0  0  0  0  0  0  0  0  0  0  0  0
   34.0409   32.0845   25.3524 C   0  0  0  0  0  0  0  0  0  0  0  0
   35.0266   32.1299   26.3704 N   0  0  0  0  0  0  0  0  0  0  0  0
   33.6322   33.3611   23.1195 C   0  0  0  0  0  0  0  0  0  0  0  0
   32.7947   32.2344   22.6797 N   0  0  0  0  0  0  0  0  0  0  0  0
  1  2  1  0  0  0  0
  1  7  1  0  0  0  0
  2  3  1  0  0  0  0
  2  4  2  0  0  0  0
  4  5  1  0  0  0  0
  5  6  2  0  0  0  0
  5 11  1  0  0  0  0
  6  7  1  0  0  0  0
  6  9  1  0  0  0  0
  7  8  2  0  0  0  0
  9 10  2  0  0  0  0
  9 12  1  0  0  0  0
 10 11  1  0  0  0  0
 12 13  1  0  0  0  0
M  END
>  <CHROM.1>
157.33896876,35.76275107,33.68286749,24.94672176,-0.20372012,-0.60805478
-0.95921643

>  <Name>
ligand

>  <RI>
0

>  <Rbt.Current_Directory>
/home/itssahil/PROJECTS/Mol_Feturizer/Test_systems_manuscript/rnas/3q50

>  <Rbt.Executable>
rbdock ($Id: //depot/dev/client3/rdock/2013.1/src/exe/rbdock.cxx#4 $)

>  <Rbt.Library>
libRbt.so (2013.1, Build901 2013/11/27)

>  <Rbt.Parameter_File>
/export/apps/rDock/src/rDock_2013.1_src/data/scripts/dock_solv.prm

>  <Rbt.Receptor>
prm/pocket_docking_8.prm

>  <SCORE>
-17.339

>  <SCORE.INTER>
-17.3574

>  <SCORE.INTER.CONST>
1

>  <SCORE.INTER.POLAR>
0

>  <SCORE.INTER.ROT>
1

>  <SCORE.INTER.SOLV>
18.2238

>  <SCORE.INTER.VDW>
-21.9129

>  <SCORE.INTER.norm>
-1.33518

>  <SCORE.INTRA>
0.0183832

>  <SCORE.INTRA.DIHEDRAL>
0.0786925

>  <SCORE.INTRA.DIHEDRAL.0>
1.65305

>  <SCORE.INTRA.POLAR>
0

>  <SCORE.INTRA.POLAR.0>
0

>  <SCORE.INTRA.REPUL>
0

>  <SCORE.INTRA.REPUL.0>
0

>  <SCORE.INTRA.SOLV>
0.0020465

>  <SCORE.INTRA.SOLV.lig_0>
-46.9527

>  <SCORE.INTRA.VDW>
-0.0219863

>  <SCORE.INTRA.VDW.0>
-0.177978

>  <SCORE.INTRA.norm>
0.00141409

>  <SCORE.RESTR>
0

>  <SCORE.RESTR.CAVITY>
0

>  <SCORE.RESTR.norm>
0

>  <SCORE.SYSTEM>
0

>  <SCORE.SYSTEM.CONST>
0

>  <SCORE.SYSTEM.DIHEDRAL>
0

>  <SCORE.SYSTEM.SOLV>
0

>  <SCORE.SYSTEM.norm>
0

>  <SCORE.heavy>
13

>  <SCORE.norm>
-1.33377

>  <RMSD>
4.213

$$$$
ligand
 OpenBabel02271912143D
libRbt.so/2013.1/901 2013/11/27
 13 14  0  0  0  0  0  0  0  0999 V2000
   37.4375   35.0893   24.9345 N   0  0  0  0  0  0  0  0  0  0  0  0
   37.7723   34.4654   26.1503 C   0  0  0  0  0  0  0  0  0  0  0  0
   38.9378   34.8971   26.7693 N   0  0  0  0  0  0  0  0  0  0  0  0
   37.0754   33.4670   26.7447 N   0  0  0  0  0  0  0  0  0  0  0  0
   35.9491   33.1076   26.0107 C   0  0  0  0  0  0  0  0  0  0  0  0
   35.5299   33.6811   24.8041 C   0  0  0  0  0  0  0  0  0  0  0  0
   36.2699   34.7101   24.2034 C   0  0  0  0  0  0  0  0  0  0  0  0
   36.0203   35.2775   23.1500 O   0  0  0  0  0  0  0  0  0  0  0  0
   34.3434   33.0405   24.3792 C   0  0  0  0  0  0  0  0  0  0  0  0
   34.0486   32.0857   25.3399 C   0  0  0  0  0  0  0  0  0  0  0  0
   35.0378   32.1260   26.3548 N   0  0  0  0  0  0  0  0  0  0  0  0
   33.6311   33.3752   23.1161 C   0  0  0  0  0  0  0  0  0  0  0  0
   32.7882   32.2526   22.6759 N   0  0  0  0  0  0  0  0  0  0  0  0
  1  2  1  0  0  0  0
  1  7  1  0  0  0  0
  2  3  1  0  0  0  0
  2  4  2  0  0  0  0
  4  5  1  0  0  0  0
  5  6  2  0  0  0  0
  5 11  1  0  0  0  0
  6  7  1  0  0  0  0
  6  9  1  0  0  0  0
  7  8  2  0  0  0  0
  9 10  2  0  0  0  0
  9 12  1  0  0  0  0
 10 11  1  0  0  0  0
 12 13  1  0  0  0  0
M  END
>  <CHROM.1>
157.60988962,35.76712934,33.68838939,24.93819881,-0.19932178,-0.60649031
-0.95073441

>  <Name>
ligand

>  <RI>
0

>  <Rbt.Current_Directory>
/home/itssahil/PROJECTS/Mol_Feturizer/Test_systems_manuscript/rnas/3q50

>  <Rbt.Executable>
rbdock ($Id: //depot/dev/client3/rdock/2013.1/src/exe/rbdock.cxx#4 $)

>  <Rbt.Library>
libRbt.so (2013.1, Build901 2013/11/27)

>  <Rbt.Parameter_File>
/export/apps/rDock/src/rDock_2013.1_src/data/scripts/dock_solv.prm

>  <Rbt.Receptor>
prm/pocket_docking_8.prm

>  <SCORE>
-17.359

>  <SCORE.INTER>
-17.3779

>  <SCORE.INTER.CONST>
1

>  <SCORE.INTER.POLAR>
0

>  <SCORE.INTER.ROT>
1

>  <SCORE.INTER.SOLV>
18.2025

>  <SCORE.INTER.VDW>
-21.9194

>  <SCORE.INTER.norm>
-1.33676

>  <SCORE.INTRA>
0.0188617

>  <SCORE.INTRA.DIHEDRAL>
0.0783613

>  <SCORE.INTRA.DIHEDRAL.0>
1.65305

>  <SCORE.INTRA.POLAR>
0

>  <SCORE.INTRA.POLAR.0>
0

>  <SCORE.INTRA.REPUL>
0

>  <SCORE.INTRA.REPUL.0>
0

>  <SCORE.INTRA.SOLV>
0.0020639

>  <SCORE.INTRA.SOLV.lig_0>
-46.9527

>  <SCORE.INTRA.VDW>
-0.0213509

>  <SCORE.INTRA.VDW.0>
-0.177978

>  <SCORE.INTRA.norm>
0.0014509

>  <SCORE.RESTR>
0

>  <SCORE.RESTR.CAVITY>
0

>  <SCORE.RESTR.norm>
0

>  <SCORE.SYSTEM>
0

>  <SCORE.SYSTEM.CONST>
0

>  <SCORE.SYSTEM.DIHEDRAL>
0

>  <SCORE.SYSTEM.SOLV>
0

>  <SCORE.SYSTEM.norm>
0

>  <SCORE.heavy>
13

>  <SCORE.norm>
-1.33531

>  <RMSD>
4.213

$$$$
ligand
 OpenBabel02271912143D
libRbt.so/2013.1/901 2013/11/27
 13 14  0  0  0  0  0  0  0  0999 V2000
   37.4222   35.0149   24.9722 N   0  0  0  0  0  0  0  0  0  0  0  0
   37.7217   34.4097   26.2064 C   0  0  0  0  0  0  0  0  0  0  0  0
   38.8852   34.8291   26.8375 N   0  0  0  0  0  0  0  0  0  0  0  0
   36.9927   33.4393   26.8086 N   0  0  0  0  0  0  0  0  0  0  0  0
   35.8719   33.0888   26.0619 C   0  0  0  0  0  0  0  0  0  0  0  0
   35.4868   33.6457   24.8362 C   0  0  0  0  0  0  0  0  0  0  0  0
   36.2597   34.6456   24.2280 C   0  0  0  0  0  0  0  0  0  0  0  0
   36.0413   35.1960   23.1587 O   0  0  0  0  0  0  0  0  0  0  0  0
   34.2942   33.0220   24.4032 C   0  0  0  0  0  0  0  0  0  0  0  0
   33.9617   32.0942   25.3780 C   0  0  0  0  0  0  0  0  0  0  0  0
   34.9334   32.1346   26.4096 N   0  0  0  0  0  0  0  0  0  0  0  0
   33.6119   33.3452   23.1207 C   0  0  0  0  0  0  0  0  0  0  0  0
   32.7929   32.2124   22.6622 N   0  0  0  0  0  0  0  0  0  0  0  0
  1  2  1  0  0  0  0
  1  7  1  0  0  0  0
  2  3  1  0  0  0  0
  2  4  2  0  0  0  0
  4  5  1  0  0  0  0
  5  6  2  0  0  0  0
  5 11  1  0  0  0  0
  6  7  1  0  0  0  0
  6  9  1  0  0  0  0
  7  8  2  0  0  0  0
  9 10  2  0  0  0  0
  9 12  1  0  0  0  0
 10 11  1  0  0  0  0
 12 13  1  0  0  0  0
M  END
>  <CHROM.1>
155.43968792,35.72501938,33.64906743,24.97231661,-0.23481358,-0.60180170
-0.99213522

>  <Name>
ligand

>  <RI>
0

>  <Rbt.Current_Directory>
/home/itssahil/PROJECTS/Mol_Feturizer/Test_systems_manuscript/rnas/3q50

>  <Rbt.Executable>
rbdock ($Id: //depot/dev/client3/rdock/2013.1/src/exe/rbdock.cxx#4 $)

>  <Rbt.Library>
libRbt.so (2013.1, Build901 2013/11/27)

>  <Rbt.Parameter_File>
/export/apps/rDock/src/rDock_2013.1_src/data/scripts/dock_solv.prm

>  <Rbt.Receptor>
prm/pocket_docking_8.prm

>  <SCORE>
-17.3379

>  <SCORE.INTER>
-17.3527

>  <SCORE.INTER.CONST>
1

>  <SCORE.INTER.POLAR>
0

>  <SCORE.INTER.ROT>
1

>  <SCORE.INTER.SOLV>
18.3163

>  <SCORE.INTER.VDW>
-21.9405

>  <SCORE.INTER.norm>
-1.33482

>  <SCORE.INTRA>
0.0147455

>  <SCORE.INTRA.DIHEDRAL>
0.0807183

>  <SCORE.INTRA.DIHEDRAL.0>
1.65305

>  <SCORE.INTRA.POLAR>
0

>  <SCORE.INTRA.POLAR.0>
0

>  <SCORE.INTRA.REPUL>
0

>  <SCORE.INTRA.REPUL.0>
0

>  <SCORE.INTRA.SOLV>
0.00191333

>  <SCORE.INTRA.SOLV.lig_0>
-46.9527

>  <SCORE.INTRA.VDW>
-0.0265703

>  <SCORE.INTRA.VDW.0>
-0.177978

>  <SCORE.INTRA.norm>
0.00113427

>  <SCORE.RESTR>
0

>  <SCORE.RESTR.CAVITY>
0

>  <SCORE.RESTR.norm>
0

>  <SCORE.SYSTEM>
0

>  <SCORE.SYSTEM.CONST>
0

>  <SCORE.SYSTEM.DIHEDRAL>
0

>  <SCORE.SYSTEM.SOLV>
0

>  <SCORE.SYSTEM.norm>
0

>  <SCORE.heavy>
13

>  <SCORE.norm>
-1.33369

>  <RMSD>
4.213

$$$$
ligand
 OpenBabel02271912143D
libRbt.so/2013.1/901 2013/11/27
 13 14  0  0  0  0  0  0  0  0999 V2000
   37.4081   35.0571   24.9765 N   0  0  0  0  0  0  0  0  0  0  0  0
   37.7246   34.4333   26.1971 C   0  0  0  0  0  0  0  0  0  0  0  0
   38.8888   34.8542   26.8260 N   0  0  0  0  0  0  0  0  0  0  0  0
   37.0112   33.4445   26.7879 N   0  0  0  0  0  0  0  0  0  0  0  0
   35.8880   33.0951   26.0443 C   0  0  0  0  0  0  0  0  0  0  0  0
   35.4865   33.6694   24.8321 C   0  0  0  0  0  0  0  0  0  0  0  0
   36.2434   34.6884   24.2354 C   0  0  0  0  0  0  0  0  0  0  0  0
   36.0100   35.2553   23.1780 O   0  0  0  0  0  0  0  0  0  0  0  0
   34.2971   33.0405   24.3979 C   0  0  0  0  0  0  0  0  0  0  0  0
   33.9829   32.0919   25.3586 C   0  0  0  0  0  0  0  0  0  0  0  0
   34.9628   32.1246   26.3827 N   0  0  0  0  0  0  0  0  0  0  0  0
   33.6005   33.3790   23.1271 C   0  0  0  0  0  0  0  0  0  0  0  0
   32.7115   32.2841   22.7084 N   0  0  0  0  0  0  0  0  0  0  0  0
  1  2  1  0  0  0  0
  1  7  1  0  0  0  0
  2  3  1  0  0  0  0
  2  4  2  0  0  0  0
  4  5  1  0  0  0  0
  5  6  2  0  0  0  0
  5 11  1  0  0  0  0
  6  7  1  0  0  0  0
  6  9  1  0  0  0  0
  7  8  2  0  0  0  0
  9 10  2  0  0  0  0
  9 12  1  0  0  0  0
 10 11  1  0  0  0  0
 12 13  1  0  0  0  0
M  END
>  <CHROM.1>
159.70195391,35.71944287,33.67613887,24.97056097,-0.21403289,-0.59990804
-0.96172928

>  <Name>
ligand

>  <RI>
0

>  <Rbt.Current_Directory>
/home/itssahil/PROJECTS/Mol_Feturizer/Test_systems_manuscript/rnas/3q50

>  <Rbt.Executable>
rbdock ($Id: //depot/dev/client3/rdock/2013.1/src/exe/rbdock.cxx#4 $)

>  <Rbt.Library>
libRbt.so (2013.1, Build901 2013/11/27)

>  <Rbt.Parameter_File>
/export/apps/rDock/src/rDock_2013.1_src/data/scripts/dock_solv.prm

>  <Rbt.Receptor>
prm/pocket_docking_3.prm

>  <SCORE>
-17.2984

>  <SCORE.INTER>
-17.3206

>  <SCORE.INTER.CONST>
1

>  <SCORE.INTER.POLAR>
0

>  <SCORE.INTER.ROT>
1

>  <SCORE.INTER.SOLV>
18.3544

>  <SCORE.INTER.VDW>
-21.9318

>  <SCORE.INTER.norm>
-1.33235

>  <SCORE.INTRA>
0.0222055

>  <SCORE.INTRA.DIHEDRAL>
0.075461

>  <SCORE.INTRA.DIHEDRAL.0>
1.65305

>  <SCORE.INTRA.POLAR>
0

>  <SCORE.INTRA.POLAR.0>
0

>  <SCORE.INTRA.REPUL>
0

>  <SCORE.INTRA.REPUL.0>
0

>  <SCORE.INTRA.SOLV>
0.00218341

>  <SCORE.INTRA.SOLV.lig_0>
-46.9527

>  <SCORE.INTRA.VDW>
-0.0166167

>  <SCORE.INTRA.VDW.0>
-0.177978

>  <SCORE.INTRA.norm>
0.00170812

>  <SCORE.RESTR>
0

>  <SCORE.RESTR.CAVITY>
0

>  <SCORE.RESTR.norm>
0

>  <SCORE.SYSTEM>
0

>  <SCORE.SYSTEM.CONST>
0

>  <SCORE.SYSTEM.DIHEDRAL>
0

>  <SCORE.SYSTEM.SOLV>
0

>  <SCORE.SYSTEM.norm>
0

>  <SCORE.heavy>
13

>  <SCORE.norm>
-1.33064

>  <RMSD>
4.214

$$$$
ligand
 OpenBabel02271912143D
libRbt.so/2013.1/901 2013/11/27
 13 14  0  0  0  0  0  0  0  0999 V2000
   37.4504   35.0935   24.9677 N   0  0  0  0  0  0  0  0  0  0  0  0
   37.7792   34.4588   26.1794 C   0  0  0  0  0  0  0  0  0  0  0  0
   38.9448   34.8806   26.8050 N   0  0  0  0  0  0  0  0  0  0  0  0
   37.0764   33.4587   26.7641 N   0  0  0  0  0  0  0  0  0  0  0  0
   35.9506   33.1099   26.0242 C   0  0  0  0  0  0  0  0  0  0  0  0
   35.5372   33.6946   24.8210 C   0  0  0  0  0  0  0  0  0  0  0  0
   36.2833   34.7250   24.2304 C   0  0  0  0  0  0  0  0  0  0  0  0
   36.0390   35.3017   23.1808 O   0  0  0  0  0  0  0  0  0  0  0  0
   34.3491   33.0624   24.3878 C   0  0  0  0  0  0  0  0  0  0  0  0
   34.0477   32.1013   25.3403 C   0  0  0  0  0  0  0  0  0  0  0  0
   35.0342   32.1295   26.3581 N   0  0  0  0  0  0  0  0  0  0  0  0
   33.6418   33.4099   23.1254 C   0  0  0  0  0  0  0  0  0  0  0  0
   32.7658   32.3091   22.6948 N   0  0  0  0  0  0  0  0  0  0  0  0
  1  2  1  0  0  0  0
  1  7  1  0  0  0  0
  2  3  1  0  0  0  0
  2  4  2  0  0  0  0
  4  5  1  0  0  0  0
  5  6  2  0  0  0  0
  5 11  1  0  0  0  0
  6  7  1  0  0  0  0
  6  9  1  0  0  0  0
  7  8  2  0  0  0  0
  9 10  2  0  0  0  0
  9 12  1  0  0  0  0
 10 11  1  0  0  0  0
 12 13  1  0  0  0  0
M  END
>  <CHROM.1>
159.23549862,35.77167444,33.70096926,24.95747030,-0.20324669,-0.60223465
-0.94488368

>  <Name>
ligand

>  <RI>
0

>  <Rbt.Current_Directory>
/home/itssahil/PROJECTS/Mol_Feturizer/Test_systems_manuscript/rnas/3q50

>  <Rbt.Executable>
rbdock ($Id: //depot/dev/client3/rdock/2013.1/src/exe/rbdock.cxx#4 $)

>  <Rbt.Library>
libRbt.so (2013.1, Build901 2013/11/27)

>  <Rbt.Parameter_File>
/export/apps/rDock/src/rDock_2013.1_src/data/scripts/dock_solv.prm

>  <Rbt.Receptor>
prm/pocket_docking_3.prm

>  <SCORE>
-17.3436

>  <SCORE.INTER>
-17.3651

>  <SCORE.INTER.CONST>
1

>  <SCORE.INTER.POLAR>
0

>  <SCORE.INTER.ROT>
1

>  <SCORE.INTER.SOLV>
18.1304

>  <SCORE.INTER.VDW>
-21.8869

>  <SCORE.INTER.norm>
-1.33578

>  <SCORE.INTRA>
0.0215146

>  <SCORE.INTRA.DIHEDRAL>
0.0761594

>  <SCORE.INTRA.DIHEDRAL.0>
1.65305

>  <SCORE.INTRA.POLAR>
0

>  <SCORE.INTRA.POLAR.0>
0

>  <SCORE.INTRA.REPUL>
0

>  <SCORE.INTRA.REPUL.0>
0

>  <SCORE.INTRA.SOLV>
0.00215912

>  <SCORE.INTRA.SOLV.lig_0>
-46.9527

>  <SCORE.INTRA.VDW>
-0.0176446

>  <SCORE.INTRA.VDW.0>
-0.177978

>  <SCORE.INTRA.norm>
0.00165497

>  <SCORE.RESTR>
0

>  <SCORE.RESTR.CAVITY>
0

>  <SCORE.RESTR.norm>
0

>  <SCORE.SYSTEM>
0

>  <SCORE.SYSTEM.CONST>
0

>  <SCORE.SYSTEM.DIHEDRAL>
0

>  <SCORE.SYSTEM.SOLV>
0

>  <SCORE.SYSTEM.norm>
0

>  <SCORE.heavy>
13

>  <SCORE.norm>
-1.33412

>  <RMSD>
4.214

$$$$
ligand
 OpenBabel02271912143D
libRbt.so/2013.1/901 2013/11/27
 13 14  0  0  0  0  0  0  0  0999 V2000
   37.4578   35.0864   24.9349 N   0  0  0  0  0  0  0  0  0  0  0  0
   37.7941   34.4656   26.1518 C   0  0  0  0  0  0  0  0  0  0  0  0
   38.9638   34.8943   26.7650 N   0  0  0  0  0  0  0  0  0  0  0  0
   37.0948   33.4726   26.7524 N   0  0  0  0  0  0  0  0  0  0  0  0
   35.9642   33.1156   26.0239 C   0  0  0  0  0  0  0  0  0  0  0  0
   35.5433   33.6864   24.8166 C   0  0  0  0  0  0  0  0  0  0  0  0
   36.2858   34.7097   24.2094 C   0  0  0  0  0  0  0  0  0  0  0  0
   36.0350   35.2743   23.1548 O   0  0  0  0  0  0  0  0  0  0  0  0
   34.3523   33.0497   24.3984 C   0  0  0  0  0  0  0  0  0  0  0  0
   34.0567   32.0998   25.3639 C   0  0  0  0  0  0  0  0  0  0  0  0
   35.0497   32.1395   26.3750 N   0  0  0  0  0  0  0  0  0  0  0  0
   33.6370   33.3828   23.1366 C   0  0  0  0  0  0  0  0  0  0  0  0
   32.7899   32.2612   22.7020 N   0  0  0  0  0  0  0  0  0  0  0  0
  1  2  1  0  0  0  0
  1  7  1  0  0  0  0
  2  3  1  0  0  0  0
  2  4  2  0  0  0  0
  4  5  1  0  0  0  0
  5  6  2  0  0  0  0
  5 11  1  0  0  0  0
  6  7  1  0  0  0  0
  6  9  1  0  0  0  0
  7  8  2  0  0  0  0
  9 10  2  0  0  0  0
  9 12  1  0  0  0  0
 10 11  1  0  0  0  0
 12 13  1  0  0  0  0
M  END
>  <CHROM.1>
157.47349292,35.78121923,33.69303221,24.94972809,-0.19912801,-0.60089298
-0.95444293

>  <Name>
ligand

>  <RI>
0

>  <Rbt.Current_Directory>
/home/itssahil/PROJECTS/Mol_Feturizer/Test_systems_manuscript/rnas/3q50

>  <Rbt.Executable>
rbdock ($Id: //depot/dev/client3/rdock/2013.1/src/exe/rbdock.cxx#4 $)

>  <Rbt.Library>
libRbt.so (2013.1, Build901 2013/11/27)

>  <Rbt.Parameter_File>
/export/apps/rDock/src/rDock_2013.1_src/data/scripts/dock_solv.prm

>  <Rbt.Receptor>
prm/pocket_docking_4.prm

>  <SCORE>
-17.3981

>  <SCORE.INTER>
-17.4167

>  <SCORE.INTER.CONST>
1

>  <SCORE.INTER.POLAR>
0

>  <SCORE.INTER.ROT>
1

>  <SCORE.INTER.SOLV>
18.1184

>  <SCORE.INTER.VDW>
-21.9172

>  <SCORE.INTER.norm>
-1.33974

>  <SCORE.INTRA>
0.0186221

>  <SCORE.INTRA.DIHEDRAL>
0.0785293

>  <SCORE.INTRA.DIHEDRAL.0>
1.65305

>  <SCORE.INTRA.POLAR>
0

>  <SCORE.INTRA.POLAR.0>
0

>  <SCORE.INTRA.REPUL>
0

>  <SCORE.INTRA.REPUL.0>
0

>  <SCORE.INTRA.SOLV>
0.00205519

>  <SCORE.INTRA.SOLV.lig_0>
-46.9527

>  <SCORE.INTRA.VDW>
-0.0216702

>  <SCORE.INTRA.VDW.0>
-0.177978

>  <SCORE.INTRA.norm>
0.00143247

>  <SCORE.RESTR>
0

>  <SCORE.RESTR.CAVITY>
0

>  <SCORE.RESTR.norm>
0

>  <SCORE.SYSTEM>
0

>  <SCORE.SYSTEM.CONST>
0

>  <SCORE.SYSTEM.DIHEDRAL>
0

>  <SCORE.SYSTEM.SOLV>
0

>  <SCORE.SYSTEM.norm>
0

>  <SCORE.heavy>
13

>  <SCORE.norm>
-1.33831

>  <RMSD>
4.214

$$$$
ligand
 OpenBabel02271912143D
libRbt.so/2013.1/901 2013/11/27
 13 14  0  0  0  0  0  0  0  0999 V2000
   37.4370   35.0794   24.9613 N   0  0  0  0  0  0  0  0  0  0  0  0
   37.7539   34.4651   26.1866 C   0  0  0  0  0  0  0  0  0  0  0  0
   38.9183   34.8909   26.8119 N   0  0  0  0  0  0  0  0  0  0  0  0
   37.0409   33.4806   26.7852 N   0  0  0  0  0  0  0  0  0  0  0  0
   35.9175   33.1254   26.0447 C   0  0  0  0  0  0  0  0  0  0  0  0
   35.5156   33.6903   24.8281 C   0  0  0  0  0  0  0  0  0  0  0  0
   36.2722   34.7048   24.2234 C   0  0  0  0  0  0  0  0  0  0  0  0
   36.0384   35.2635   23.1618 O   0  0  0  0  0  0  0  0  0  0  0  0
   34.3262   33.0579   24.3991 C   0  0  0  0  0  0  0  0  0  0  0  0
   34.0124   32.1167   25.3672 C   0  0  0  0  0  0  0  0  0  0  0  0
   34.9926   32.1574   26.3908 N   0  0  0  0  0  0  0  0  0  0  0  0
   33.6292   33.3865   23.1259 C   0  0  0  0  0  0  0  0  0  0  0  0
   32.7713   32.2718   22.6947 N   0  0  0  0  0  0  0  0  0  0  0  0
  1  2  1  0  0  0  0
  1  7  1  0  0  0  0
  2  3  1  0  0  0  0
  2  4  2  0  0  0  0
  4  5  1  0  0  0  0
  5  6  2  0  0  0  0
  5 11  1  0  0  0  0
  6  7  1  0  0  0  0
  6  9  1  0  0  0  0
  7  8  2  0  0  0  0
  9 10  2  0  0  0  0
  9 12  1  0  0  0  0
 10 11  1  0  0  0  0
 12 13  1  0  0  0  0
M  END
>  <CHROM.1>
157.99420292,35.75110546,33.69678008,24.96477291,-0.21553917,-0.60241857
-0.97060486

>  <Name>
ligand

>  <RI>
0

>  <Rbt.Current_Directory>
/home/itssahil/PROJECTS/Mol_Feturizer/Test_systems_manuscript/rnas/3q50

>  <Rbt.Executable>
rbdock ($Id: //depot/dev/client3/rdock/2013.1/src/exe/rbdock.cxx#4 $)

>  <Rbt.Library>
libRbt.so (2013.1, Build901 2013/11/27)

>  <Rbt.Parameter_File>
/export/apps/rDock/src/rDock_2013.1_src/data/scripts/dock_solv.prm

>  <Rbt.Receptor>
prm/pocket_docking_5.prm

>  <SCORE>
-17.3421

>  <SCORE.INTER>
-17.3616

>  <SCORE.INTER.CONST>
1

>  <SCORE.INTER.POLAR>
0

>  <SCORE.INTER.ROT>
1

>  <SCORE.INTER.SOLV>
18.2549

>  <SCORE.INTER.VDW>
-21.926

>  <SCORE.INTER.norm>
-1.33551

>  <SCORE.INTRA>
0.0195229

>  <SCORE.INTRA.DIHEDRAL>
0.0778738

>  <SCORE.INTRA.DIHEDRAL.0>
1.65305

>  <SCORE.INTRA.POLAR>
0

>  <SCORE.INTRA.POLAR.0>
0

>  <SCORE.INTRA.REPUL>
0

>  <SCORE.INTRA.REPUL.0>
0

>  <SCORE.INTRA.SOLV>
0.00208784

>  <SCORE.INTRA.SOLV.lig_0>
-46.9527

>  <SCORE.INTRA.VDW>
-0.020458

>  <SCORE.INTRA.VDW.0>
-0.177978

>  <SCORE.INTRA.norm>
0.00150176

>  <SCORE.RESTR>
0

>  <SCORE.RESTR.CAVITY>
0

>  <SCORE.RESTR.norm>
0

>  <SCORE.SYSTEM>
0

>  <SCORE.SYSTEM.CONST>
0

>  <SCORE.SYSTEM.DIHEDRAL>
0

>  <SCORE.SYSTEM.SOLV>
0

>  <SCORE.SYSTEM.norm>
0

>  <SCORE.heavy>
13

>  <SCORE.norm>
-1.33401

>  <RMSD>
4.214

$$$$
ligand
 OpenBabel02271912143D
libRbt.so/2013.1/901 2013/11/27
 13 14  0  0  0  0  0  0  0  0999 V2000
   37.4380   35.0332   24.9958 N   0  0  0  0  0  0  0  0  0  0  0  0
   37.7429   34.4082   26.2188 C   0  0  0  0  0  0  0  0  0  0  0  0
   38.9059   34.8220   26.8545 N   0  0  0  0  0  0  0  0  0  0  0  0
   37.0196   33.4243   26.8058 N   0  0  0  0  0  0  0  0  0  0  0  0
   35.8987   33.0817   26.0556 C   0  0  0  0  0  0  0  0  0  0  0  0
   35.5083   33.6578   24.8405 C   0  0  0  0  0  0  0  0  0  0  0  0
   36.2754   34.6715   24.2479 C   0  0  0  0  0  0  0  0  0  0  0  0
   36.0522   35.2391   23.1887 O   0  0  0  0  0  0  0  0  0  0  0  0
   34.3176   33.0363   24.3994 C   0  0  0  0  0  0  0  0  0  0  0  0
   33.9914   32.0904   25.3589 C   0  0  0  0  0  0  0  0  0  0  0  0
   34.9652   32.1175   26.3889 N   0  0  0  0  0  0  0  0  0  0  0  0
   33.6310   33.3784   23.1242 C   0  0  0  0  0  0  0  0  0  0  0  0
   32.7569   32.2785   22.6875 N   0  0  0  0  0  0  0  0  0  0  0  0
  1  2  1  0  0  0  0
  1  7  1  0  0  0  0
  2  3  1  0  0  0  0
  2  4  2  0  0  0  0
  4  5  1  0  0  0  0
  5  6  2  0  0  0  0
  5 11  1  0  0  0  0
  6  7  1  0  0  0  0
  6  9  1  0  0  0  0
  7  8  2  0  0  0  0
  9 10  2  0  0  0  0
  9 12  1  0  0  0  0
 10 11  1  0  0  0  0
 12 13  1  0  0  0  0
M  END
>  <CHROM.1>
158.63244172,35.74203121,33.66225527,24.97934660,-0.22576911,-0.59968369
-0.96924191

>  <Name>
ligand

>  <RI>
0

>  <Rbt.Current_Directory>
/home/itssahil/PROJECTS/Mol_Feturizer/Test_systems_manuscript/rnas/3q50

>  <Rbt.Executable>
rbdock ($Id: //depot/dev/client3/rdock/2013.1/src/exe/rbdock.cxx#4 $)

>  <Rbt.Library>
libRbt.so (2013.1, Build901 2013/11/27)

>  <Rbt.Parameter_File>
/export/apps/rDock/src/rDock_2013.1_src/data/scripts/dock_solv.prm

>  <Rbt.Receptor>
prm/pocket_docking_5.prm

>  <SCORE>
-17.3935

>  <SCORE.INTER>
-17.4141

>  <SCORE.INTER.CONST>
1

>  <SCORE.INTER.POLAR>
0

>  <SCORE.INTER.ROT>
1

>  <SCORE.INTER.SOLV>
18.2142

>  <SCORE.INTER.VDW>
-21.9475

>  <SCORE.INTER.norm>
-1.33955

>  <SCORE.INTRA>
0.0205746

>  <SCORE.INTRA.DIHEDRAL>
0.0770187

>  <SCORE.INTRA.DIHEDRAL.0>
1.65305

>  <SCORE.INTRA.POLAR>
0

>  <SCORE.INTRA.POLAR.0>
0

>  <SCORE.INTRA.REPUL>
0

>  <SCORE.INTRA.REPUL.0>
0

>  <SCORE.INTRA.SOLV>
0.00212567

>  <SCORE.INTRA.SOLV.lig_0>
-46.9527

>  <SCORE.INTRA.VDW>
-0.0189976

>  <SCORE.INTRA.VDW.0>
-0.177978

>  <SCORE.INTRA.norm>
0.00158266

>  <SCORE.RESTR>
0

>  <SCORE.RESTR.CAVITY>
0

>  <SCORE.RESTR.norm>
0

>  <SCORE.SYSTEM>
0

>  <SCORE.SYSTEM.CONST>
0

>  <SCORE.SYSTEM.DIHEDRAL>
0

>  <SCORE.SYSTEM.SOLV>
0

>  <SCORE.SYSTEM.norm>
0

>  <SCORE.heavy>
13

>  <SCORE.norm>
-1.33796

>  <RMSD>
4.214

$$$$
ligand
 OpenBabel02271912143D
libRbt.so/2013.1/901 2013/11/27
 13 14  0  0  0  0  0  0  0  0999 V2000
   37.4259   35.0672   24.9850 N   0  0  0  0  0  0  0  0  0  0  0  0
   37.7433   34.4317   26.1994 C   0  0  0  0  0  0  0  0  0  0  0  0
   38.9022   34.8543   26.8369 N   0  0  0  0  0  0  0  0  0  0  0  0
   37.0358   33.4304   26.7762 N   0  0  0  0  0  0  0  0  0  0  0  0
   35.9178   33.0810   26.0250 C   0  0  0  0  0  0  0  0  0  0  0  0
   35.5157   33.6663   24.8182 C   0  0  0  0  0  0  0  0  0  0  0  0
   36.2664   34.6980   24.2359 C   0  0  0  0  0  0  0  0  0  0  0  0
   36.0320   35.2754   23.1844 O   0  0  0  0  0  0  0  0  0  0  0  0
   34.3326   33.0332   24.3728 C   0  0  0  0  0  0  0  0  0  0  0  0
   34.0228   32.0711   25.3214 C   0  0  0  0  0  0  0  0  0  0  0  0
   34.9991   32.0994   26.3490 N   0  0  0  0  0  0  0  0  0  0  0  0
   33.6375   33.3810   23.1037 C   0  0  0  0  0  0  0  0  0  0  0  0
   32.7854   32.2705   22.6509 N   0  0  0  0  0  0  0  0  0  0  0  0
  1  2  1  0  0  0  0
  1  7  1  0  0  0  0
  2  3  1  0  0  0  0
  2  4  2  0  0  0  0
  4  5  1  0  0  0  0
  5  6  2  0  0  0  0
  5 11  1  0  0  0  0
  6  7  1  0  0  0  0
  6  9  1  0  0  0  0
  7  8  2  0  0  0  0
  9 10  2  0  0  0  0
  9 12  1  0  0  0  0
 10 11  1  0  0  0  0
 12 13  1  0  0  0  0
M  END
>  <CHROM.1>
158.22338225,35.75028504,33.67207194,24.95597337,-0.21340950,-0.61037602
-0.95001653

>  <Name>
ligand

>  <RI>
0

>  <Rbt.Current_Directory>
/home/itssahil/PROJECTS/Mol_Feturizer/Test_systems_manuscript/rnas/3q50

>  <Rbt.Executable>
rbdock ($Id: //depot/dev/client3/rdock/2013.1/src/exe/rbdock.cxx#4 $)

>  <Rbt.Library>
libRbt.so (2013.1, Build901 2013/11/27)

>  <Rbt.Parameter_File>
/export/apps/rDock/src/rDock_2013.1_src/data/scripts/dock_solv.prm

>  <Rbt.Receptor>
prm/pocket_docking_6.prm

>  <SCORE>
-17.3334

>  <SCORE.INTER>
-17.3533

>  <SCORE.INTER.CONST>
1

>  <SCORE.INTER.POLAR>
0

>  <SCORE.INTER.ROT>
1

>  <SCORE.INTER.SOLV>
18.2152

>  <SCORE.INTER.VDW>
-21.9073

>  <SCORE.INTER.norm>
-1.33487

>  <SCORE.INTRA>
0.0199072

>  <SCORE.INTRA.DIHEDRAL>
0.0775732

>  <SCORE.INTRA.DIHEDRAL.0>
1.65305

>  <SCORE.INTRA.POLAR>
0

>  <SCORE.INTRA.POLAR.0>
0

>  <SCORE.INTRA.REPUL>
0

>  <SCORE.INTRA.REPUL.0>
0

>  <SCORE.INTRA.SOLV>
0.00210171

>  <SCORE.INTRA.SOLV.lig_0>
-46.9527

>  <SCORE.INTRA.VDW>
-0.0199303

>  <SCORE.INTRA.VDW.0>
-0.177978

>  <SCORE.INTRA.norm>
0.00153132

>  <SCORE.RESTR>
0

>  <SCORE.RESTR.CAVITY>
0

>  <SCORE.RESTR.norm>
0

>  <SCORE.SYSTEM>
0

>  <SCORE.SYSTEM.CONST>
0

>  <SCORE.SYSTEM.DIHEDRAL>
0

>  <SCORE.SYSTEM.SOLV>
0

>  <SCORE.SYSTEM.norm>
0

>  <SCORE.heavy>
13

>  <SCORE.norm>
-1.33334

>  <RMSD>
4.214

$$$$
ligand
 OpenBabel02271912143D
libRbt.so/2013.1/901 2013/11/27
 13 14  0  0  0  0  0  0  0  0999 V2000
   37.4361   35.0289   24.9926 N   0  0  0  0  0  0  0  0  0  0  0  0
   37.7374   34.4096   26.2194 C   0  0  0  0  0  0  0  0  0  0  0  0
   38.8996   34.8248   26.8556 N   0  0  0  0  0  0  0  0  0  0  0  0
   37.0113   33.4297   26.8097 N   0  0  0  0  0  0  0  0  0  0  0  0
   35.8916   33.0850   26.0587 C   0  0  0  0  0  0  0  0  0  0  0  0
   35.5048   33.6557   24.8399 C   0  0  0  0  0  0  0  0  0  0  0  0
   36.2747   34.6652   24.2439 C   0  0  0  0  0  0  0  0  0  0  0  0
   36.0546   35.2279   23.1815 O   0  0  0  0  0  0  0  0  0  0  0  0
   34.3141   33.0337   24.3993 C   0  0  0  0  0  0  0  0  0  0  0  0
   33.9844   32.0931   25.3627 C   0  0  0  0  0  0  0  0  0  0  0  0
   34.9559   32.1238   26.3947 N   0  0  0  0  0  0  0  0  0  0  0  0
   33.6309   33.3705   23.1208 C   0  0  0  0  0  0  0  0  0  0  0  0
   32.7654   32.2649   22.6814 N   0  0  0  0  0  0  0  0  0  0  0  0
  1  2  1  0  0  0  0
  1  7  1  0  0  0  0
  2  3  1  0  0  0  0
  2  4  2  0  0  0  0
  4  5  1  0  0  0  0
  5  6  2  0  0  0  0
  5 11  1  0  0  0  0
  6  7  1  0  0  0  0
  6  9  1  0  0  0  0
  7  8  2  0  0  0  0
  9 10  2  0  0  0  0
  9 12  1  0  0  0  0
 10 11  1  0  0  0  0
 12 13  1  0  0  0  0
M  END
>  <CHROM.1>
158.12572220,35.73893768,33.66004767,24.97874054,-0.22959012,-0.60046057
-0.97647815

>  <Name>
ligand

>  <RI>
0

>  <Rbt.Current_Directory>
/home/itssahil/PROJECTS/Mol_Feturizer/Test_systems_manuscript/rnas/3q50

>  <Rbt.Executable>
rbdock ($Id: //depot/dev/client3/rdock/2013.1/src/exe/rbdock.cxx#4 $)

>  <Rbt.Library>
libRbt.so (2013.1, Build901 2013/11/27)

>  <Rbt.Parameter_File>
/export/apps/rDock/src/rDock_2013.1_src/data/scripts/dock_solv.prm

>  <Rbt.Receptor>
prm/pocket_docking_7.prm

>  <SCORE>
-17.3992

>  <SCORE.INTER>
-17.419

>  <SCORE.INTER.CONST>
1

>  <SCORE.INTER.POLAR>
0

>  <SCORE.INTER.ROT>
1

>  <SCORE.INTER.SOLV>
18.2386

>  <SCORE.INTER.VDW>
-21.9589

>  <SCORE.INTER.norm>
-1.33992

>  <SCORE.INTRA>
0.0197443

>  <SCORE.INTRA.DIHEDRAL>
0.0777022

>  <SCORE.INTRA.DIHEDRAL.0>
1.65305

>  <SCORE.INTRA.POLAR>
0

>  <SCORE.INTRA.POLAR.0>
0

>  <SCORE.INTRA.REPUL>
0

>  <SCORE.INTRA.REPUL.0>
0

>  <SCORE.INTRA.SOLV>
0.00209584

>  <SCORE.INTRA.SOLV.lig_0>
-46.9527

>  <SCORE.INTRA.VDW>
-0.0201547

>  <SCORE.INTRA.VDW.0>
-0.177978

>  <SCORE.INTRA.norm>
0.00151879

>  <SCORE.RESTR>
0

>  <SCORE.RESTR.CAVITY>
0

>  <SCORE.RESTR.norm>
0

>  <SCORE.SYSTEM>
0

>  <SCORE.SYSTEM.CONST>
0

>  <SCORE.SYSTEM.DIHEDRAL>
0

>  <SCORE.SYSTEM.SOLV>
0

>  <SCORE.SYSTEM.norm>
0

>  <SCORE.heavy>
13

>  <SCORE.norm>
-1.3384

>  <RMSD>
4.214

$$$$
ligand
 OpenBabel02271912143D
libRbt.so/2013.1/901 2013/11/27
 13 14  0  0  0  0  0  0  0  0999 V2000
   37.4644   35.0943   24.9617 N   0  0  0  0  0  0  0  0  0  0  0  0
   37.8046   34.4565   26.1687 C   0  0  0  0  0  0  0  0  0  0  0  0
   38.9763   34.8764   26.7841 N   0  0  0  0  0  0  0  0  0  0  0  0
   37.1070   33.4555   26.7578 N   0  0  0  0  0  0  0  0  0  0  0  0
   35.9740   33.1088   26.0281 C   0  0  0  0  0  0  0  0  0  0  0  0
   35.5492   33.6965   24.8302 C   0  0  0  0  0  0  0  0  0  0  0  0
   36.2900   34.7280   24.2349 C   0  0  0  0  0  0  0  0  0  0  0  0
   36.0359   35.3073   23.1891 O   0  0  0  0  0  0  0  0  0  0  0  0
   34.3568   33.0659   24.4071 C   0  0  0  0  0  0  0  0  0  0  0  0
   34.0641   32.1028   25.3602 C   0  0  0  0  0  0  0  0  0  0  0  0
   35.0604   32.1281   26.3686 N   0  0  0  0  0  0  0  0  0  0  0  0
   33.6375   33.4166   23.1524 C   0  0  0  0  0  0  0  0  0  0  0  0
   32.7721   32.3095   22.7167 N   0  0  0  0  0  0  0  0  0  0  0  0
  1  2  1  0  0  0  0
  1  7  1  0  0  0  0
  2  3  1  0  0  0  0
  2  4  2  0  0  0  0
  4  5  1  0  0  0  0
  5  6  2  0  0  0  0
  5 11  1  0  0  0  0
  6  7  1  0  0  0  0
  6  9  1  0  0  0  0
  7  8  2  0  0  0  0
  9 10  2  0  0  0  0
  9 12  1  0  0  0  0
 10 11  1  0  0  0  0
 12 13  1  0  0  0  0
M  END
>  <CHROM.1>
158.38374417,35.78626850,33.70186731,24.96360509,-0.19505178,-0.59745528
-0.93807121

>  <Name>
ligand

>  <RI>
0

>  <Rbt.Current_Directory>
/home/itssahil/PROJECTS/Mol_Feturizer/Test_systems_manuscript/rnas/3q50

>  <Rbt.Executable>
rbdock ($Id: //depot/dev/client3/rdock/2013.1/src/exe/rbdock.cxx#4 $)

>  <Rbt.Library>
libRbt.so (2013.1, Build901 2013/11/27)

>  <Rbt.Parameter_File>
/export/apps/rDock/src/rDock_2013.1_src/data/scripts/dock_solv.prm

>  <Rbt.Receptor>
prm/pocket_docking_7.prm

>  <SCORE>
-17.3451

>  <SCORE.INTER>
-17.3653

>  <SCORE.INTER.CONST>
1

>  <SCORE.INTER.POLAR>
0

>  <SCORE.INTER.ROT>
1

>  <SCORE.INTER.SOLV>
18.0298

>  <SCORE.INTER.VDW>
-21.8535

>  <SCORE.INTER.norm>
-1.33579

>  <SCORE.INTRA>
0.0201717

>  <SCORE.INTRA.DIHEDRAL>
0.0773586

>  <SCORE.INTRA.DIHEDRAL.0>
1.65305

>  <SCORE.INTRA.POLAR>
0

>  <SCORE.INTRA.POLAR.0>
0

>  <SCORE.INTRA.REPUL>
0

>  <SCORE.INTRA.REPUL.0>
0

>  <SCORE.INTRA.SOLV>
0.00211123

>  <SCORE.INTRA.SOLV.lig_0>
-46.9527

>  <SCORE.INTRA.VDW>
-0.0195632

>  <SCORE.INTRA.VDW.0>
-0.177978

>  <SCORE.INTRA.norm>
0.00155167

>  <SCORE.RESTR>
0

>  <SCORE.RESTR.CAVITY>
0

>  <SCORE.RESTR.norm>
0

>  <SCORE.SYSTEM>
0

>  <SCORE.SYSTEM.CONST>
0

>  <SCORE.SYSTEM.DIHEDRAL>
0

>  <SCORE.SYSTEM.SOLV>
0

>  <SCORE.SYSTEM.norm>
0

>  <SCORE.heavy>
13

>  <SCORE.norm>
-1.33424

>  <RMSD>
4.214

$$$$
ligand
 OpenBabel02271912143D
libRbt.so/2013.1/901 2013/11/27
 13 14  0  0  0  0  0  0  0  0999 V2000
   37.4326   35.0306   24.9947 N   0  0  0  0  0  0  0  0  0  0  0  0
   37.7334   34.4102   26.2210 C   0  0  0  0  0  0  0  0  0  0  0  0
   38.8949   34.8255   26.8585 N   0  0  0  0  0  0  0  0  0  0  0  0
   37.0075   33.4292   26.8097 N   0  0  0  0  0  0  0  0  0  0  0  0
   35.8886   33.0846   26.0576 C   0  0  0  0  0  0  0  0  0  0  0  0
   35.5023   33.6563   24.8391 C   0  0  0  0  0  0  0  0  0  0  0  0
   36.2720   34.6669   24.2447 C   0  0  0  0  0  0  0  0  0  0  0  0
   36.0523   35.2306   23.1827 O   0  0  0  0  0  0  0  0  0  0  0  0
   34.3124   33.0340   24.3969 C   0  0  0  0  0  0  0  0  0  0  0  0
   33.9825   32.0921   25.3591 C   0  0  0  0  0  0  0  0  0  0  0  0
   34.9533   32.1224   26.3919 N   0  0  0  0  0  0  0  0  0  0  0  0
   33.6298   33.3717   23.1183 C   0  0  0  0  0  0  0  0  0  0  0  0
   32.7695   32.2639   22.6744 N   0  0  0  0  0  0  0  0  0  0  0  0
  1  2  1  0  0  0  0
  1  7  1  0  0  0  0
  2  3  1  0  0  0  0
  2  4  2  0  0  0  0
  4  5  1  0  0  0  0
  5  6  2  0  0  0  0
  5 11  1  0  0  0  0
  6  7  1  0  0  0  0
  6  9  1  0  0  0  0
  7  8  2  0  0  0  0
  9 10  2  0  0  0  0
  9 12  1  0  0  0  0
 10 11  1  0  0  0  0
 12 13  1  0  0  0  0
M  END
>  <CHROM.1>
157.90220560,35.73669069,33.66048498,24.97785863,-0.23012833,-0.60172759
-0.97576559

>  <Name>
ligand

>  <RI>
0

>  <Rbt.Current_Directory>
/home/itssahil/PROJECTS/Mol_Feturizer/Test_systems_manuscript/rnas/3q50

>  <Rbt.Executable>
rbdock ($Id: //depot/dev/client3/rdock/2013.1/src/exe/rbdock.cxx#4 $)

>  <Rbt.Library>
libRbt.so (2013.1, Build901 2013/11/27)

>  <Rbt.Parameter_File>
/export/apps/rDock/src/rDock_2013.1_src/data/scripts/dock_solv.prm

>  <Rbt.Receptor>
prm/pocket_docking_8.prm

>  <SCORE>
-17.3985

>  <SCORE.INTER>
-17.4179

>  <SCORE.INTER.CONST>
1

>  <SCORE.INTER.POLAR>
0

>  <SCORE.INTER.ROT>
1

>  <SCORE.INTER.SOLV>
18.246

>  <SCORE.INTER.VDW>
-21.9606

>  <SCORE.INTER.norm>
-1.33984

>  <SCORE.INTRA>
0.0193665

>  <SCORE.INTRA.DIHEDRAL>
0.0779924

>  <SCORE.INTRA.DIHEDRAL.0>
1.65305

>  <SCORE.INTRA.POLAR>
0

>  <SCORE.INTRA.POLAR.0>
0

>  <SCORE.INTRA.REPUL>
0

>  <SCORE.INTRA.REPUL.0>
0

>  <SCORE.INTRA.SOLV>
0.00208219

>  <SCORE.INTRA.SOLV.lig_0>
-46.9527

>  <SCORE.INTRA.VDW>
-0.0206708

>  <SCORE.INTRA.VDW.0>
-0.177978

>  <SCORE.INTRA.norm>
0.00148973

>  <SCORE.RESTR>
0

>  <SCORE.RESTR.CAVITY>
0

>  <SCORE.RESTR.norm>
0

>  <SCORE.SYSTEM>
0

>  <SCORE.SYSTEM.CONST>
0

>  <SCORE.SYSTEM.DIHEDRAL>
0

>  <SCORE.SYSTEM.SOLV>
0

>  <SCORE.SYSTEM.norm>
0

>  <SCORE.heavy>
13

>  <SCORE.norm>
-1.33835

>  <RMSD>
4.214

$$$$
ligand
 OpenBabel02271912143D
libRbt.so/2013.1/901 2013/11/27
 13 14  0  0  0  0  0  0  0  0999 V2000
   37.4375   35.0221   25.0013 N   0  0  0  0  0  0  0  0  0  0  0  0
   37.7355   34.3981   26.2265 C   0  0  0  0  0  0  0  0  0  0  0  0
   38.8986   34.8073   26.8650 N   0  0  0  0  0  0  0  0  0  0  0  0
   37.0055   33.4189   26.8131 N   0  0  0  0  0  0  0  0  0  0  0  0
   35.8853   33.0804   26.0601 C   0  0  0  0  0  0  0  0  0  0  0  0
   35.5016   33.6560   24.8427 C   0  0  0  0  0  0  0  0  0  0  0  0
   36.2756   34.6646   24.2504 C   0  0  0  0  0  0  0  0  0  0  0  0
   36.0584   35.2313   23.1895 O   0  0  0  0  0  0  0  0  0  0  0  0
   34.3092   33.0395   24.3991 C   0  0  0  0  0  0  0  0  0  0  0  0
   33.9753   32.0971   25.3593 C   0  0  0  0  0  0  0  0  0  0  0  0
   34.9460   32.1214   26.3924 N   0  0  0  0  0  0  0  0  0  0  0  0
   33.6283   33.3824   23.1210 C   0  0  0  0  0  0  0  0  0  0  0  0
   32.7586   32.2816   22.6781 N   0  0  0  0  0  0  0  0  0  0  0  0
  1  2  1  0  0  0  0
  1  7  1  0  0  0  0
  2  3  1  0  0  0  0
  2  4  2  0  0  0  0
  4  5  1  0  0  0  0
  5  6  2  0  0  0  0
  5 11  1  0  0  0  0
  6  7  1  0  0  0  0
  6  9  1  0  0  0  0
  7  8  2  0  0  0  0
  9 10  2  0  0  0  0
  9 12  1  0  0  0  0
 10 11  1  0  0  0  0
 12 13  1  0  0  0  0
M  END
>  <CHROM.1>
158.17037343,35.73555978,33.65916989,24.98177859,-0.23281587,-0.59805590
-0.97528768

>  <Name>
ligand

>  <RI>
0

>  <Rbt.Current_Directory>
/home/itssahil/PROJECTS/Mol_Feturizer/Test_systems_manuscript/rnas/3q50

>  <Rbt.Executable>
rbdock ($Id: //depot/dev/client3/rdock/2013.1/src/exe/rbdock.cxx#4 $)

>  <Rbt.Library>
libRbt.so (2013.1, Build901 2013/11/27)

>  <Rbt.Parameter_File>
/export/apps/rDock/src/rDock_2013.1_src/data/scripts/dock_solv.prm

>  <Rbt.Receptor>
prm/pocket_docking_8.prm

>  <SCORE>
-17.399

>  <SCORE.INTER>
-17.4188

>  <SCORE.INTER.CONST>
1

>  <SCORE.INTER.POLAR>
0

>  <SCORE.INTER.ROT>
1

>  <SCORE.INTER.SOLV>
18.2248

>  <SCORE.INTER.VDW>
-21.9541

>  <SCORE.INTER.norm>
-1.33991

>  <SCORE.INTRA>
0.019819

>  <SCORE.INTRA.DIHEDRAL>
0.0776434

>  <SCORE.INTRA.DIHEDRAL.0>
1.65305

>  <SCORE.INTRA.POLAR>
0

>  <SCORE.INTRA.POLAR.0>
0

>  <SCORE.INTRA.REPUL>
0

>  <SCORE.INTRA.REPUL.0>
0

>  <SCORE.INTRA.SOLV>
0.00209853

>  <SCORE.INTRA.SOLV.lig_0>
-46.9527

>  <SCORE.INTRA.VDW>
-0.020052

>  <SCORE.INTRA.VDW.0>
-0.177978

>  <SCORE.INTRA.norm>
0.00152454

>  <SCORE.RESTR>
0

>  <SCORE.RESTR.CAVITY>
0

>  <SCORE.RESTR.norm>
0

>  <SCORE.SYSTEM>
0

>  <SCORE.SYSTEM.CONST>
0

>  <SCORE.SYSTEM.DIHEDRAL>
0

>  <SCORE.SYSTEM.SOLV>
0

>  <SCORE.SYSTEM.norm>
0

>  <SCORE.heavy>
13

>  <SCORE.norm>
-1.33838

>  <RMSD>
4.214

$$$$
ligand
 OpenBabel02271912143D
libRbt.so/2013.1/901 2013/11/27
 13 14  0  0  0  0  0  0  0  0999 V2000
   37.4419   35.0288   25.0005 N   0  0  0  0  0  0  0  0  0  0  0  0
   37.7459   34.4025   26.2230 C   0  0  0  0  0  0  0  0  0  0  0  0
   38.9101   34.8135   26.8586 N   0  0  0  0  0  0  0  0  0  0  0  0
   37.0208   33.4198   26.8097 N   0  0  0  0  0  0  0  0  0  0  0  0
   35.8990   33.0799   26.0597 C   0  0  0  0  0  0  0  0  0  0  0  0
   35.5094   33.6575   24.8451 C   0  0  0  0  0  0  0  0  0  0  0  0
   36.2784   34.6699   24.2527 C   0  0  0  0  0  0  0  0  0  0  0  0
   36.0560   35.2386   23.1940 O   0  0  0  0  0  0  0  0  0  0  0  0
   34.3173   33.0386   24.4040 C   0  0  0  0  0  0  0  0  0  0  0  0
   33.9894   32.0929   25.3630 C   0  0  0  0  0  0  0  0  0  0  0  0
   34.9636   32.1174   26.3928 N   0  0  0  0  0  0  0  0  0  0  0  0
   33.6310   33.3829   23.1292 C   0  0  0  0  0  0  0  0  0  0  0  0
   32.7430   32.2912   22.7000 N   0  0  0  0  0  0  0  0  0  0  0  0
  1  2  1  0  0  0  0
  1  7  1  0  0  0  0
  2  3  1  0  0  0  0
  2  4  2  0  0  0  0
  4  5  1  0  0  0  0
  5  6  2  0  0  0  0
  5 11  1  0  0  0  0
  6  7  1  0  0  0  0
  6  9  1  0  0  0  0
  7  8  2  0  0  0  0
  9 10  2  0  0  0  0
  9 12  1  0  0  0  0
 10 11  1  0  0  0  0
 12 13  1  0  0  0  0
M  END
>  <CHROM.1>
159.26507693,35.74222932,33.66184111,24.98446142,-0.22614422,-0.59686693
-0.96876092

>  <Name>
ligand

>  <RI>
0

>  <Rbt.Current_Directory>
/home/itssahil/PROJECTS/Mol_Feturizer/Test_systems_manuscript/rnas/3q50

>  <Rbt.Executable>
rbdock ($Id: //depot/dev/client3/rdock/2013.1/src/exe/rbdock.cxx#4 $)

>  <Rbt.Library>
libRbt.so (2013.1, Build901 2013/11/27)

>  <Rbt.Parameter_File>
/export/apps/rDock/src/rDock_2013.1_src/data/scripts/dock_solv.prm

>  <Rbt.Receptor>
prm/pocket_docking_2.prm

>  <SCORE>
-17.3942

>  <SCORE.INTER>
-17.4158

>  <SCORE.INTER.CONST>
1

>  <SCORE.INTER.POLAR>
0

>  <SCORE.INTER.ROT>
1

>  <SCORE.INTER.SOLV>
18.2008

>  <SCORE.INTER.VDW>
-21.9441

>  <SCORE.INTER.norm>
-1.33967

>  <SCORE.INTRA>
0.0215594

>  <SCORE.INTRA.DIHEDRAL>
0.0761159

>  <SCORE.INTRA.DIHEDRAL.0>
1.65305

>  <SCORE.INTRA.POLAR>
0

>  <SCORE.INTRA.POLAR.0>
0

>  <SCORE.INTRA.REPUL>
0

>  <SCORE.INTRA.REPUL.0>
0

>  <SCORE.INTRA.SOLV>
0.0021607

>  <SCORE.INTRA.SOLV.lig_0>
-46.9527

>  <SCORE.INTRA.VDW>
-0.0175789

>  <SCORE.INTRA.VDW.0>
-0.177978

>  <SCORE.INTRA.norm>
0.00165841

>  <SCORE.RESTR>
0

>  <SCORE.RESTR.CAVITY>
0

>  <SCORE.RESTR.norm>
0

>  <SCORE.SYSTEM>
0

>  <SCORE.SYSTEM.CONST>
0

>  <SCORE.SYSTEM.DIHEDRAL>
0

>  <SCORE.SYSTEM.SOLV>
0

>  <SCORE.SYSTEM.norm>
0

>  <SCORE.heavy>
13

>  <SCORE.norm>
-1.33801

>  <RMSD>
4.215

$$$$
ligand
 OpenBabel02271912143D
libRbt.so/2013.1/901 2013/11/27
 13 14  0  0  0  0  0  0  0  0999 V2000
   37.4289   35.0318   24.9835 N   0  0  0  0  0  0  0  0  0  0  0  0
   37.7254   34.4208   26.2156 C   0  0  0  0  0  0  0  0  0  0  0  0
   38.8851   34.8405   26.8535 N   0  0  0  0  0  0  0  0  0  0  0  0
   36.9972   33.4448   26.8096 N   0  0  0  0  0  0  0  0  0  0  0  0
   35.8805   33.0949   26.0566 C   0  0  0  0  0  0  0  0  0  0  0  0
   35.4984   33.6572   24.8324 C   0  0  0  0  0  0  0  0  0  0  0  0
   36.2705   34.6628   24.2327 C   0  0  0  0  0  0  0  0  0  0  0  0
   36.0545   35.2183   23.1656 O   0  0  0  0  0  0  0  0  0  0  0  0
   34.3096   33.0320   24.3913 C   0  0  0  0  0  0  0  0  0  0  0  0
   33.9762   32.0979   25.3597 C   0  0  0  0  0  0  0  0  0  0  0  0
   34.9437   32.1358   26.3954 N   0  0  0  0  0  0  0  0  0  0  0  0
   33.6313   33.3601   23.1079 C   0  0  0  0  0  0  0  0  0  0  0  0
   32.7587   32.2561   22.6786 N   0  0  0  0  0  0  0  0  0  0  0  0
  1  2  1  0  0  0  0
  1  7  1  0  0  0  0
  2  3  1  0  0  0  0
  2  4  2  0  0  0  0
  4  5  1  0  0  0  0
  5  6  2  0  0  0  0
  5 11  1  0  0  0  0
  6  7  1  0  0  0  0
  6  9  1  0  0  0  0
  7  8  2  0  0  0  0
  9 10  2  0  0  0  0
  9 12  1  0  0  0  0
 10 11  1  0  0  0  0
 12 13  1  0  0  0  0
M  END
>  <CHROM.1>
158.61471083,35.73129097,33.66293068,24.97262245,-0.23285487,-0.60206570
-0.98496435

>  <Name>
ligand

>  <RI>
0

>  <Rbt.Current_Directory>
/home/itssahil/PROJECTS/Mol_Feturizer/Test_systems_manuscript/rnas/3q50

>  <Rbt.Executable>
rbdock ($Id: //depot/dev/client3/rdock/2013.1/src/exe/rbdock.cxx#4 $)

>  <Rbt.Library>
libRbt.so (2013.1, Build901 2013/11/27)

>  <Rbt.Parameter_File>
/export/apps/rDock/src/rDock_2013.1_src/data/scripts/dock_solv.prm

>  <Rbt.Receptor>
prm/pocket_docking_3.prm

>  <SCORE>
-17.393

>  <SCORE.INTER>
-17.4136

>  <SCORE.INTER.CONST>
1

>  <SCORE.INTER.POLAR>
0

>  <SCORE.INTER.ROT>
1

>  <SCORE.INTER.SOLV>
18.3156

>  <SCORE.INTER.VDW>
-21.9809

>  <SCORE.INTER.norm>
-1.3395

>  <SCORE.INTRA>
0.0205462

>  <SCORE.INTRA.DIHEDRAL>
0.0770432

>  <SCORE.INTRA.DIHEDRAL.0>
1.65305

>  <SCORE.INTRA.POLAR>
0

>  <SCORE.INTRA.POLAR.0>
0

>  <SCORE.INTRA.REPUL>
0

>  <SCORE.INTRA.REPUL.0>
0

>  <SCORE.INTRA.SOLV>
0.00212466

>  <SCORE.INTRA.SOLV.lig_0>
-46.9527

>  <SCORE.INTRA.VDW>
-0.0190378

>  <SCORE.INTRA.VDW.0>
-0.177978

>  <SCORE.INTRA.norm>
0.00158047

>  <SCORE.RESTR>
0

>  <SCORE.RESTR.CAVITY>
0

>  <SCORE.RESTR.norm>
0

>  <SCORE.SYSTEM>
0

>  <SCORE.SYSTEM.CONST>
0

>  <SCORE.SYSTEM.DIHEDRAL>
0

>  <SCORE.SYSTEM.SOLV>
0

>  <SCORE.SYSTEM.norm>
0

>  <SCORE.heavy>
13

>  <SCORE.norm>
-1.33792

>  <RMSD>
4.215

$$$$
ligand
 OpenBabel02271912143D
libRbt.so/2013.1/901 2013/11/27
 13 14  0  0  0  0  0  0  0  0999 V2000
   37.4393   35.0226   24.9997 N   0  0  0  0  0  0  0  0  0  0  0  0
   37.7415   34.4011   26.2252 C   0  0  0  0  0  0  0  0  0  0  0  0
   38.9041   34.8154   26.8614 N   0  0  0  0  0  0  0  0  0  0  0  0
   37.0160   33.4200   26.8141 N   0  0  0  0  0  0  0  0  0  0  0  0
   35.8958   33.0765   26.0633 C   0  0  0  0  0  0  0  0  0  0  0  0
   35.5081   33.6492   24.8458 C   0  0  0  0  0  0  0  0  0  0  0  0
   36.2775   34.6600   24.2511 C   0  0  0  0  0  0  0  0  0  0  0  0
   36.0566   35.2245   23.1898 O   0  0  0  0  0  0  0  0  0  0  0  0
   34.3173   33.0278   24.4048 C   0  0  0  0  0  0  0  0  0  0  0  0
   33.9884   32.0854   25.3667 C   0  0  0  0  0  0  0  0  0  0  0  0
   34.9606   32.1144   26.3982 N   0  0  0  0  0  0  0  0  0  0  0  0
   33.6331   33.3667   23.1274 C   0  0  0  0  0  0  0  0  0  0  0  0
   32.7417   32.2756   22.7042 N   0  0  0  0  0  0  0  0  0  0  0  0
  1  2  1  0  0  0  0
  1  7  1  0  0  0  0
  2  3  1  0  0  0  0
  2  4  2  0  0  0  0
  4  5  1  0  0  0  0
  5  6  2  0  0  0  0
  5 11  1  0  0  0  0
  6  7  1  0  0  0  0
  6  9  1  0  0  0  0
  7  8  2  0  0  0  0
  9 10  2  0  0  0  0
  9 12  1  0  0  0  0
 10 11  1  0  0  0  0
 12 13  1  0  0  0  0
M  END
>  <CHROM.1>
159.55032722,35.74027617,33.65449727,24.98588260,-0.22718602,-0.59814838
-0.97301800

>  <Name>
ligand

>  <RI>
0

>  <Rbt.Current_Directory>
/home/itssahil/PROJECTS/Mol_Feturizer/Test_systems_manuscript/rnas/3q50

>  <Rbt.Executable>
rbdock ($Id: //depot/dev/client3/rdock/2013.1/src/exe/rbdock.cxx#4 $)

>  <Rbt.Library>
libRbt.so (2013.1, Build901 2013/11/27)

>  <Rbt.Parameter_File>
/export/apps/rDock/src/rDock_2013.1_src/data/scripts/dock_solv.prm

>  <Rbt.Receptor>
prm/pocket_docking_4.prm

>  <SCORE>
-17.3945

>  <SCORE.INTER>
-17.4165

>  <SCORE.INTER.CONST>
1

>  <SCORE.INTER.POLAR>
0

>  <SCORE.INTER.ROT>
1

>  <SCORE.INTER.SOLV>
18.2257

>  <SCORE.INTER.VDW>
-21.9529

>  <SCORE.INTER.norm>
-1.33973

>  <SCORE.INTRA>
0.0219844

>  <SCORE.INTRA.DIHEDRAL>
0.0756912

>  <SCORE.INTRA.DIHEDRAL.0>
1.65305

>  <SCORE.INTRA.POLAR>
0

>  <SCORE.INTRA.POLAR.0>
0

>  <SCORE.INTRA.REPUL>
0

>  <SCORE.INTRA.REPUL.0>
0

>  <SCORE.INTRA.SOLV>
0.00217567

>  <SCORE.INTRA.SOLV.lig_0>
-46.9527

>  <SCORE.INTRA.VDW>
-0.016949

>  <SCORE.INTRA.VDW.0>
-0.177978

>  <SCORE.INTRA.norm>
0.00169111

>  <SCORE.RESTR>
0

>  <SCORE.RESTR.CAVITY>
0

>  <SCORE.RESTR.norm>
0

>  <SCORE.SYSTEM>
0

>  <SCORE.SYSTEM.CONST>
0

>  <SCORE.SYSTEM.DIHEDRAL>
0

>  <SCORE.SYSTEM.SOLV>
0

>  <SCORE.SYSTEM.norm>
0

>  <SCORE.heavy>
13

>  <SCORE.norm>
-1.33804

>  <RMSD>
4.215

$$$$
ligand
 OpenBabel02271912143D
libRbt.so/2013.1/901 2013/11/27
 13 14  0  0  0  0  0  0  0  0999 V2000
   37.4563   35.0743   24.9667 N   0  0  0  0  0  0  0  0  0  0  0  0
   37.7880   34.4274   26.1712 C   0  0  0  0  0  0  0  0  0  0  0  0
   38.9559   34.8419   26.7974 N   0  0  0  0  0  0  0  0  0  0  0  0
   37.0859   33.4225   26.7481 N   0  0  0  0  0  0  0  0  0  0  0  0
   35.9575   33.0820   26.0083 C   0  0  0  0  0  0  0  0  0  0  0  0
   35.5412   33.6789   24.8120 C   0  0  0  0  0  0  0  0  0  0  0  0
   36.2866   34.7142   24.2293 C   0  0  0  0  0  0  0  0  0  0  0  0
   36.0398   35.3014   23.1862 O   0  0  0  0  0  0  0  0  0  0  0  0
   34.3512   33.0522   24.3763 C   0  0  0  0  0  0  0  0  0  0  0  0
   34.0515   32.0822   25.3202 C   0  0  0  0  0  0  0  0  0  0  0  0
   35.0411   32.0994   26.3353 N   0  0  0  0  0  0  0  0  0  0  0  0
   33.6405   33.4127   23.1194 C   0  0  0  0  0  0  0  0  0  0  0  0
   32.7325   32.3330   22.7019 N   0  0  0  0  0  0  0  0  0  0  0  0
  1  2  1  0  0  0  0
  1  7  1  0  0  0  0
  2  3  1  0  0  0  0
  2  4  2  0  0  0  0
  4  5  1  0  0  0  0
  5  6  2  0  0  0  0
  5 11  1  0  0  0  0
  6  7  1  0  0  0  0
  6  9  1  0  0  0  0
  7  8  2  0  0  0  0
  9 10  2  0  0  0  0
  9 12  1  0  0  0  0
 10 11  1  0  0  0  0
 12 13  1  0  0  0  0
M  END
>  <CHROM.1>
160.88732962,35.77367885,33.68498169,24.94961486,-0.19934892,-0.59712747
-0.93259693

>  <Name>
ligand

>  <RI>
0

>  <Rbt.Current_Directory>
/home/itssahil/PROJECTS/Mol_Feturizer/Test_systems_manuscript/rnas/3q50

>  <Rbt.Executable>
rbdock ($Id: //depot/dev/client3/rdock/2013.1/src/exe/rbdock.cxx#4 $)

>  <Rbt.Library>
libRbt.so (2013.1, Build901 2013/11/27)

>  <Rbt.Parameter_File>
/export/apps/rDock/src/rDock_2013.1_src/data/scripts/dock_solv.prm

>  <Rbt.Receptor>
prm/pocket_docking_5.prm

>  <SCORE>
-17.3104

>  <SCORE.INTER>
-17.3342

>  <SCORE.INTER.CONST>
1

>  <SCORE.INTER.POLAR>
0

>  <SCORE.INTER.ROT>
1

>  <SCORE.INTER.SOLV>
18.1037

>  <SCORE.INTER.VDW>
-21.8574

>  <SCORE.INTER.norm>
-1.3334

>  <SCORE.INTRA>
0.0238168

>  <SCORE.INTRA.DIHEDRAL>
0.073557

>  <SCORE.INTRA.DIHEDRAL.0>
1.65305

>  <SCORE.INTRA.POLAR>
0

>  <SCORE.INTRA.POLAR.0>
0

>  <SCORE.INTRA.REPUL>
0

>  <SCORE.INTRA.REPUL.0>
0

>  <SCORE.INTRA.SOLV>
0.00223864

>  <SCORE.INTRA.SOLV.lig_0>
-46.9527

>  <SCORE.INTRA.VDW>
-0.014081

>  <SCORE.INTRA.VDW.0>
-0.177978

>  <SCORE.INTRA.norm>
0.00183206

>  <SCORE.RESTR>
0

>  <SCORE.RESTR.CAVITY>
0

>  <SCORE.RESTR.norm>
0

>  <SCORE.SYSTEM>
0

>  <SCORE.SYSTEM.CONST>
0

>  <SCORE.SYSTEM.DIHEDRAL>
0

>  <SCORE.SYSTEM.SOLV>
0

>  <SCORE.SYSTEM.norm>
0

>  <SCORE.heavy>
13

>  <SCORE.norm>
-1.33157

>  <RMSD>
4.215

$$$$
ligand
 OpenBabel02271912143D
libRbt.so/2013.1/901 2013/11/27
 13 14  0  0  0  0  0  0  0  0999 V2000
   37.4364   35.0205   24.9891 N   0  0  0  0  0  0  0  0  0  0  0  0
   37.7343   34.4066   26.2195 C   0  0  0  0  0  0  0  0  0  0  0  0
   38.8960   34.8230   26.8560 N   0  0  0  0  0  0  0  0  0  0  0  0
   37.0054   33.4308   26.8131 N   0  0  0  0  0  0  0  0  0  0  0  0
   35.8866   33.0843   26.0616 C   0  0  0  0  0  0  0  0  0  0  0  0
   35.5032   33.6496   24.8393 C   0  0  0  0  0  0  0  0  0  0  0  0
   36.2759   34.6550   24.2399 C   0  0  0  0  0  0  0  0  0  0  0  0
   36.0588   35.2129   23.1743 O   0  0  0  0  0  0  0  0  0  0  0  0
   34.3123   33.0275   24.3994 C   0  0  0  0  0  0  0  0  0  0  0  0
   33.9792   32.0921   25.3667 C   0  0  0  0  0  0  0  0  0  0  0  0
   34.9487   32.1263   26.4005 N   0  0  0  0  0  0  0  0  0  0  0  0
   33.6322   33.3591   23.1179 C   0  0  0  0  0  0  0  0  0  0  0  0
   32.7486   32.2619   22.6937 N   0  0  0  0  0  0  0  0  0  0  0  0
  1  2  1  0  0  0  0
  1  7  1  0  0  0  0
  2  3  1  0  0  0  0
  2  4  2  0  0  0  0
  4  5  1  0  0  0  0
  5  6  2  0  0  0  0
  5 11  1  0  0  0  0
  6  7  1  0  0  0  0
  6  9  1  0  0  0  0
  7  8  2  0  0  0  0
  9 10  2  0  0  0  0
  9 12  1  0  0  0  0
 10 11  1  0  0  0  0
 12 13  1  0  0  0  0
M  END
>  <CHROM.1>
159.06431594,35.73566346,33.65503812,24.97950202,-0.23159428,-0.59881525
-0.98227331

>  <Name>
ligand

>  <RI>
0

>  <Rbt.Current_Directory>
/home/itssahil/PROJECTS/Mol_Feturizer/Test_systems_manuscript/rnas/3q50

>  <Rbt.Executable>
rbdock ($Id: //depot/dev/client3/rdock/2013.1/src/exe/rbdock.cxx#4 $)

>  <Rbt.Library>
libRbt.so (2013.1, Build901 2013/11/27)

>  <Rbt.Parameter_File>
/export/apps/rDock/src/rDock_2013.1_src/data/scripts/dock_solv.prm

>  <Rbt.Receptor>
prm/pocket_docking_5.prm

>  <SCORE>
-17.395

>  <SCORE.INTER>
-17.4163

>  <SCORE.INTER.CONST>
1

>  <SCORE.INTER.POLAR>
0

>  <SCORE.INTER.ROT>
1

>  <SCORE.INTER.SOLV>
18.2731

>  <SCORE.INTER.VDW>
-21.9686

>  <SCORE.INTER.norm>
-1.33971

>  <SCORE.INTRA>
0.0212531

>  <SCORE.INTRA.DIHEDRAL>
0.0764083

>  <SCORE.INTRA.DIHEDRAL.0>
1.65305

>  <SCORE.INTRA.POLAR>
0

>  <SCORE.INTRA.POLAR.0>
0

>  <SCORE.INTRA.REPUL>
0

>  <SCORE.INTRA.REPUL.0>
0

>  <SCORE.INTRA.SOLV>
0.00214986

>  <SCORE.INTRA.SOLV.lig_0>
-46.9527

>  <SCORE.INTRA.VDW>
-0.0180259

>  <SCORE.INTRA.VDW.0>
-0.177978

>  <SCORE.INTRA.norm>
0.00163486

>  <SCORE.RESTR>
0

>  <SCORE.RESTR.CAVITY>
0

>  <SCORE.RESTR.norm>
0

>  <SCORE.SYSTEM>
0

>  <SCORE.SYSTEM.CONST>
0

>  <SCORE.SYSTEM.DIHEDRAL>
0

>  <SCORE.SYSTEM.SOLV>
0

>  <SCORE.SYSTEM.norm>
0

>  <SCORE.heavy>
13

>  <SCORE.norm>
-1.33808

>  <RMSD>
4.215

$$$$
ligand
 OpenBabel02271912143D
libRbt.so/2013.1/901 2013/11/27
 13 14  0  0  0  0  0  0  0  0999 V2000
   37.4342   35.0208   24.9879 N   0  0  0  0  0  0  0  0  0  0  0  0
   37.7323   34.4088   26.2191 C   0  0  0  0  0  0  0  0  0  0  0  0
   38.8928   34.8278   26.8559 N   0  0  0  0  0  0  0  0  0  0  0  0
   37.0047   33.4324   26.8132 N   0  0  0  0  0  0  0  0  0  0  0  0
   35.8870   33.0831   26.0614 C   0  0  0  0  0  0  0  0  0  0  0  0
   35.5034   33.6465   24.8383 C   0  0  0  0  0  0  0  0  0  0  0  0
   36.2748   34.6526   24.2383 C   0  0  0  0  0  0  0  0  0  0  0  0
   36.0574   35.2090   23.1720 O   0  0  0  0  0  0  0  0  0  0  0  0
   34.3139   33.0219   24.3982 C   0  0  0  0  0  0  0  0  0  0  0  0
   33.9817   32.0869   25.3662 C   0  0  0  0  0  0  0  0  0  0  0  0
   34.9505   32.1238   26.4006 N   0  0  0  0  0  0  0  0  0  0  0  0
   33.6340   33.3510   23.1160 C   0  0  0  0  0  0  0  0  0  0  0  0
   32.7633   32.2461   22.6851 N   0  0  0  0  0  0  0  0  0  0  0  0
  1  2  1  0  0  0  0
  1  7  1  0  0  0  0
  2  3  1  0  0  0  0
  2  4  2  0  0  0  0
  4  5  1  0  0  0  0
  5  6  2  0  0  0  0
  5 11  1  0  0  0  0
  6  7  1  0  0  0  0
  6  9  1  0  0  0  0
  7  8  2  0  0  0  0
  9 10  2  0  0  0  0
  9 12  1  0  0  0  0
 10 11  1  0  0  0  0
 12 13  1  0  0  0  0
M  END
>  <CHROM.1>
158.47269266,35.73662604,33.65201968,24.97800637,-0.23176115,-0.60147044
-0.98352933

>  <Name>
ligand

>  <RI>
0

>  <Rbt.Current_Directory>
/home/itssahil/PROJECTS/Mol_Feturizer/Test_systems_manuscript/rnas/3q50

>  <Rbt.Executable>
rbdock ($Id: //depot/dev/client3/rdock/2013.1/src/exe/rbdock.cxx#4 $)

>  <Rbt.Library>
libRbt.so (2013.1, Build901 2013/11/27)

>  <Rbt.Parameter_File>
/export/apps/rDock/src/rDock_2013.1_src/data/scripts/dock_solv.prm

>  <Rbt.Receptor>
prm/pocket_docking_6.prm

>  <SCORE>
-17.3934

>  <SCORE.INTER>
-17.4138

>  <SCORE.INTER.CONST>
1

>  <SCORE.INTER.POLAR>
0

>  <SCORE.INTER.ROT>
1

>  <SCORE.INTER.SOLV>
18.2749

>  <SCORE.INTER.VDW>
-21.9675

>  <SCORE.INTER.norm>
-1.33952

>  <SCORE.INTRA>
0.0203168

>  <SCORE.INTRA.DIHEDRAL>
0.077238

>  <SCORE.INTRA.DIHEDRAL.0>
1.65305

>  <SCORE.INTRA.POLAR>
0

>  <SCORE.INTRA.POLAR.0>
0

>  <SCORE.INTRA.REPUL>
0

>  <SCORE.INTRA.REPUL.0>
0

>  <SCORE.INTRA.SOLV>
0.00211644

>  <SCORE.INTRA.SOLV.lig_0>
-46.9527

>  <SCORE.INTRA.VDW>
-0.0193604

>  <SCORE.INTRA.VDW.0>
-0.177978

>  <SCORE.INTRA.norm>
0.00156283

>  <SCORE.RESTR>
0

>  <SCORE.RESTR.CAVITY>
0

>  <SCORE.RESTR.norm>
0

>  <SCORE.SYSTEM>
0

>  <SCORE.SYSTEM.CONST>
0

>  <SCORE.SYSTEM.DIHEDRAL>
0

>  <SCORE.SYSTEM.SOLV>
0

>  <SCORE.SYSTEM.norm>
0

>  <SCORE.heavy>
13

>  <SCORE.norm>
-1.33796

>  <RMSD>
4.215

$$$$
ligand
 OpenBabel02271912143D
libRbt.so/2013.1/901 2013/11/27
 13 14  0  0  0  0  0  0  0  0999 V2000
   37.4423   35.0292   24.9898 N   0  0  0  0  0  0  0  0  0  0  0  0
   37.7353   34.4113   26.2193 C   0  0  0  0  0  0  0  0  0  0  0  0
   38.8981   34.8206   26.8584 N   0  0  0  0  0  0  0  0  0  0  0  0
   37.0007   33.4380   26.8098 N   0  0  0  0  0  0  0  0  0  0  0  0
   35.8813   33.0986   26.0559 C   0  0  0  0  0  0  0  0  0  0  0  0
   35.5025   33.6683   24.8342 C   0  0  0  0  0  0  0  0  0  0  0  0
   36.2812   34.6710   24.2380 C   0  0  0  0  0  0  0  0  0  0  0  0
   36.0685   35.2322   23.1733 O   0  0  0  0  0  0  0  0  0  0  0  0
   34.3093   33.0530   24.3911 C   0  0  0  0  0  0  0  0  0  0  0  0
   33.9700   32.1173   25.3560 C   0  0  0  0  0  0  0  0  0  0  0  0
   34.9382   32.1445   26.3913 N   0  0  0  0  0  0  0  0  0  0  0  0
   33.6327   33.3907   23.1094 C   0  0  0  0  0  0  0  0  0  0  0  0
   32.7178   32.3139   22.6995 N   0  0  0  0  0  0  0  0  0  0  0  0
  1  2  1  0  0  0  0
  1  7  1  0  0  0  0
  2  3  1  0  0  0  0
  2  4  2  0  0  0  0
  4  5  1  0  0  0  0
  5  6  2  0  0  0  0
  5 11  1  0  0  0  0
  6  7  1  0  0  0  0
  6  9  1  0  0  0  0
  7  8  2  0  0  0  0
  9 10  2  0  0  0  0
  9 12  1  0  0  0  0
 10 11  1  0  0  0  0
 12 13  1  0  0  0  0
M  END
>  <CHROM.1>
160.54255758,35.73266515,33.67349354,24.97618140,-0.23483602,-0.59332249
-0.98168207

>  <Name>
ligand

>  <RI>
0

>  <Rbt.Current_Directory>
/home/itssahil/PROJECTS/Mol_Feturizer/Test_systems_manuscript/rnas/3q50

>  <Rbt.Executable>
rbdock ($Id: //depot/dev/client3/rdock/2013.1/src/exe/rbdock.cxx#4 $)

>  <Rbt.Library>
libRbt.so (2013.1, Build901 2013/11/27)

>  <Rbt.Parameter_File>
/export/apps/rDock/src/rDock_2013.1_src/data/scripts/dock_solv.prm

>  <Rbt.Receptor>
prm/pocket_docking_8.prm

>  <SCORE>
-17.3822

>  <SCORE.INTER>
-17.4055

>  <SCORE.INTER.CONST>
1

>  <SCORE.INTER.POLAR>
0

>  <SCORE.INTER.ROT>
1

>  <SCORE.INTER.SOLV>
18.2843

>  <SCORE.INTER.VDW>
-21.9651

>  <SCORE.INTER.norm>
-1.33889

>  <SCORE.INTRA>
0.0233697

>  <SCORE.INTRA.DIHEDRAL>
0.0741297

>  <SCORE.INTRA.DIHEDRAL.0>
1.65305

>  <SCORE.INTRA.POLAR>
0

>  <SCORE.INTRA.POLAR.0>
0

>  <SCORE.INTRA.REPUL>
0

>  <SCORE.INTRA.REPUL.0>
0

>  <SCORE.INTRA.SOLV>
0.00222356

>  <SCORE.INTRA.SOLV.lig_0>
-46.9527

>  <SCORE.INTRA.VDW>
-0.0148069

>  <SCORE.INTRA.VDW.0>
-0.177978

>  <SCORE.INTRA.norm>
0.00179767

>  <SCORE.RESTR>
0

>  <SCORE.RESTR.CAVITY>
0

>  <SCORE.RESTR.norm>
0

>  <SCORE.SYSTEM>
0

>  <SCORE.SYSTEM.CONST>
0

>  <SCORE.SYSTEM.DIHEDRAL>
0

>  <SCORE.SYSTEM.SOLV>
0

>  <SCORE.SYSTEM.norm>
0

>  <SCORE.heavy>
13

>  <SCORE.norm>
-1.33709

>  <RMSD>
4.215

$$$$
ligand
 OpenBabel02271912143D
libRbt.so/2013.1/901 2013/11/27
 13 14  0  0  0  0  0  0  0  0999 V2000
   37.4381   35.0218   24.9966 N   0  0  0  0  0  0  0  0  0  0  0  0
   37.7383   34.4020   26.2234 C   0  0  0  0  0  0  0  0  0  0  0  0
   38.9004   34.8166   26.8604 N   0  0  0  0  0  0  0  0  0  0  0  0
   37.0114   33.4224   26.8130 N   0  0  0  0  0  0  0  0  0  0  0  0
   35.8920   33.0783   26.0613 C   0  0  0  0  0  0  0  0  0  0  0  0
   35.5062   33.6494   24.8425 C   0  0  0  0  0  0  0  0  0  0  0  0
   36.2770   34.6587   24.2471 C   0  0  0  0  0  0  0  0  0  0  0  0
   36.0578   35.2218   23.1847 O   0  0  0  0  0  0  0  0  0  0  0  0
   34.3155   33.0281   24.4010 C   0  0  0  0  0  0  0  0  0  0  0  0
   33.9848   32.0874   25.3639 C   0  0  0  0  0  0  0  0  0  0  0  0
   34.9557   32.1175   26.3966 N   0  0  0  0  0  0  0  0  0  0  0  0
   33.6332   33.3655   23.1222 C   0  0  0  0  0  0  0  0  0  0  0  0
   32.7524   32.2683   22.6922 N   0  0  0  0  0  0  0  0  0  0  0  0
  1  2  1  0  0  0  0
  1  7  1  0  0  0  0
  2  3  1  0  0  0  0
  2  4  2  0  0  0  0
  4  5  1  0  0  0  0
  5  6  2  0  0  0  0
  5 11  1  0  0  0  0
  6  7  1  0  0  0  0
  6  9  1  0  0  0  0
  7  8  2  0  0  0  0
  9 10  2  0  0  0  0
  9 12  1  0  0  0  0
 10 11  1  0  0  0  0
 12 13  1  0  0  0  0
M  END
>  <CHROM.1>
158.95228286,35.73905732,33.65430770,24.98223537,-0.22954650,-0.59919766
-0.97605405

>  <Name>
ligand

>  <RI>
0

>  <Rbt.Current_Directory>
/home/itssahil/PROJECTS/Mol_Feturizer/Test_systems_manuscript/rnas/3q50

>  <Rbt.Executable>
rbdock ($Id: //depot/dev/client3/rdock/2013.1/src/exe/rbdock.cxx#4 $)

>  <Rbt.Library>
libRbt.so (2013.1, Build901 2013/11/27)

>  <Rbt.Parameter_File>
/export/apps/rDock/src/rDock_2013.1_src/data/scripts/dock_solv.prm

>  <Rbt.Receptor>
prm/pocket_docking_8.prm

>  <SCORE>
-17.3956

>  <SCORE.INTER>
-17.4167

>  <SCORE.INTER.CONST>
1

>  <SCORE.INTER.POLAR>
0

>  <SCORE.INTER.ROT>
1

>  <SCORE.INTER.SOLV>
18.2362

>  <SCORE.INTER.VDW>
-21.9565

>  <SCORE.INTER.norm>
-1.33975

>  <SCORE.INTRA>
0.0210797

>  <SCORE.INTRA.DIHEDRAL>
0.0765691

>  <SCORE.INTRA.DIHEDRAL.0>
1.65305

>  <SCORE.INTRA.POLAR>
0

>  <SCORE.INTRA.POLAR.0>
0

>  <SCORE.INTRA.REPUL>
0

>  <SCORE.INTRA.REPUL.0>
0

>  <SCORE.INTRA.SOLV>
0.0021437

>  <SCORE.INTRA.SOLV.lig_0>
-46.9527

>  <SCORE.INTRA.VDW>
-0.0182767

>  <SCORE.INTRA.VDW.0>
-0.177978

>  <SCORE.INTRA.norm>
0.00162152

>  <SCORE.RESTR>
0

>  <SCORE.RESTR.CAVITY>
0

>  <SCORE.RESTR.norm>
0

>  <SCORE.SYSTEM>
0

>  <SCORE.SYSTEM.CONST>
0

>  <SCORE.SYSTEM.DIHEDRAL>
0

>  <SCORE.SYSTEM.SOLV>
0

>  <SCORE.SYSTEM.norm>
0

>  <SCORE.heavy>
13

>  <SCORE.norm>
-1.33813

>  <RMSD>
4.215

$$$$
ligand
 OpenBabel02271912143D
libRbt.so/2013.1/901 2013/11/27
 13 14  0  0  0  0  0  0  0  0999 V2000
   37.4215   35.0771   24.9847 N   0  0  0  0  0  0  0  0  0  0  0  0
   37.7390   34.4398   26.1981 C   0  0  0  0  0  0  0  0  0  0  0  0
   38.8954   34.8647   26.8385 N   0  0  0  0  0  0  0  0  0  0  0  0
   37.0340   33.4348   26.7713 N   0  0  0  0  0  0  0  0  0  0  0  0
   35.9183   33.0834   26.0174 C   0  0  0  0  0  0  0  0  0  0  0  0
   35.5163   33.6703   24.8113 C   0  0  0  0  0  0  0  0  0  0  0  0
   36.2645   34.7059   24.2328 C   0  0  0  0  0  0  0  0  0  0  0  0
   36.0298   35.2850   23.1823 O   0  0  0  0  0  0  0  0  0  0  0  0
   34.3361   33.0343   24.3624 C   0  0  0  0  0  0  0  0  0  0  0  0
   34.0279   32.0688   25.3082 C   0  0  0  0  0  0  0  0  0  0  0  0
   35.0025   32.0980   26.3375 N   0  0  0  0  0  0  0  0  0  0  0  0
   33.6419   33.3829   23.0931 C   0  0  0  0  0  0  0  0  0  0  0  0
   32.7151   32.3133   22.6912 N   0  0  0  0  0  0  0  0  0  0  0  0
  1  2  1  0  0  0  0
  1  7  1  0  0  0  0
  2  3  1  0  0  0  0
  2  4  2  0  0  0  0
  4  5  1  0  0  0  0
  5  6  2  0  0  0  0
  5 11  1  0  0  0  0
  6  7  1  0  0  0  0
  6  9  1  0  0  0  0
  7  8  2  0  0  0  0
  9 10  2  0  0  0  0
  9 12  1  0  0  0  0
 10 11  1  0  0  0  0
 12 13  1  0  0  0  0
M  END
>  <CHROM.1>
162.62076073,35.74418875,33.67997463,24.95401585,-0.20798821,-0.60742147
-0.94361761

>  <Name>
ligand

>  <RI>
0

>  <Rbt.Current_Directory>
/home/itssahil/PROJECTS/Mol_Feturizer/Test_systems_manuscript/rnas/3q50

>  <Rbt.Executable>
rbdock ($Id: //depot/dev/client3/rdock/2013.1/src/exe/rbdock.cxx#4 $)

>  <Rbt.Library>
libRbt.so (2013.1, Build901 2013/11/27)

>  <Rbt.Parameter_File>
/export/apps/rDock/src/rDock_2013.1_src/data/scripts/dock_solv.prm

>  <Rbt.Receptor>
prm/pocket_docking_4.prm

>  <SCORE>
-17.3679

>  <SCORE.INTER>
-17.3937

>  <SCORE.INTER.CONST>
1

>  <SCORE.INTER.POLAR>
0

>  <SCORE.INTER.ROT>
1

>  <SCORE.INTER.SOLV>
18.2932

>  <SCORE.INTER.VDW>
-21.9602

>  <SCORE.INTER.norm>
-1.33798

>  <SCORE.INTRA>
0.0257923

>  <SCORE.INTRA.DIHEDRAL>
0.0704519

>  <SCORE.INTRA.DIHEDRAL.0>
1.65305

>  <SCORE.INTRA.POLAR>
0

>  <SCORE.INTRA.POLAR.0>
0

>  <SCORE.INTRA.REPUL>
0

>  <SCORE.INTRA.REPUL.0>
0

>  <SCORE.INTRA.SOLV>
0.00230172

>  <SCORE.INTRA.SOLV.lig_0>
-46.9527

>  <SCORE.INTRA.VDW>
-0.0105845

>  <SCORE.INTRA.VDW.0>
-0.177978

>  <SCORE.INTRA.norm>
0.00198402

>  <SCORE.RESTR>
0

>  <SCORE.RESTR.CAVITY>
0

>  <SCORE.RESTR.norm>
0

>  <SCORE.SYSTEM>
0

>  <SCORE.SYSTEM.CONST>
0

>  <SCORE.SYSTEM.DIHEDRAL>
0

>  <SCORE.SYSTEM.SOLV>
0

>  <SCORE.SYSTEM.norm>
0

>  <SCORE.heavy>
13

>  <SCORE.norm>
-1.33599

>  <RMSD>
4.216

$$$$
ligand
 OpenBabel02271912143D
libRbt.so/2013.1/901 2013/11/27
 13 14  0  0  0  0  0  0  0  0999 V2000
   37.4396   35.0308   25.0024 N   0  0  0  0  0  0  0  0  0  0  0  0
   37.7450   34.4047   26.2247 C   0  0  0  0  0  0  0  0  0  0  0  0
   38.9085   34.8176   26.8602 N   0  0  0  0  0  0  0  0  0  0  0  0
   37.0218   33.4204   26.8112 N   0  0  0  0  0  0  0  0  0  0  0  0
   35.9005   33.0787   26.0612 C   0  0  0  0  0  0  0  0  0  0  0  0
   35.5096   33.6560   24.8469 C   0  0  0  0  0  0  0  0  0  0  0  0
   36.2767   34.6701   24.2548 C   0  0  0  0  0  0  0  0  0  0  0  0
   36.0530   35.2387   23.1963 O   0  0  0  0  0  0  0  0  0  0  0  0
   34.3185   33.0352   24.4058 C   0  0  0  0  0  0  0  0  0  0  0  0
   33.9926   32.0885   25.3646 C   0  0  0  0  0  0  0  0  0  0  0  0
   34.9669   32.1144   26.3942 N   0  0  0  0  0  0  0  0  0  0  0  0
   33.6314   33.3786   23.1312 C   0  0  0  0  0  0  0  0  0  0  0  0
   32.7122   32.3042   22.7248 N   0  0  0  0  0  0  0  0  0  0  0  0
  1  2  1  0  0  0  0
  1  7  1  0  0  0  0
  2  3  1  0  0  0  0
  2  4  2  0  0  0  0
  4  5  1  0  0  0  0
  5  6  2  0  0  0  0
  5 11  1  0  0  0  0
  6  7  1  0  0  0  0
  6  9  1  0  0  0  0
  7  8  2  0  0  0  0
  9 10  2  0  0  0  0
  9 12  1  0  0  0  0
 10 11  1  0  0  0  0
 12 13  1  0  0  0  0
M  END
>  <CHROM.1>
161.11736698,35.73977377,33.66232156,24.98811542,-0.22272621,-0.59549993
-0.96606490

>  <Name>
ligand

>  <RI>
0

>  <Rbt.Current_Directory>
/home/itssahil/PROJECTS/Mol_Feturizer/Test_systems_manuscript/rnas/3q50

>  <Rbt.Executable>
rbdock ($Id: //depot/dev/client3/rdock/2013.1/src/exe/rbdock.cxx#4 $)

>  <Rbt.Library>
libRbt.so (2013.1, Build901 2013/11/27)

>  <Rbt.Parameter_File>
/export/apps/rDock/src/rDock_2013.1_src/data/scripts/dock_solv.prm

>  <Rbt.Receptor>
prm/pocket_docking_7.prm

>  <SCORE>
-17.3859

>  <SCORE.INTER>
-17.41

>  <SCORE.INTER.CONST>
1

>  <SCORE.INTER.POLAR>
0

>  <SCORE.INTER.ROT>
1

>  <SCORE.INTER.SOLV>
18.2256

>  <SCORE.INTER.VDW>
-21.9485

>  <SCORE.INTER.norm>
-1.33923

>  <SCORE.INTRA>
0.0241052

>  <SCORE.INTRA.DIHEDRAL>
0.0731665

>  <SCORE.INTRA.DIHEDRAL.0>
1.65305

>  <SCORE.INTRA.POLAR>
0

>  <SCORE.INTRA.POLAR.0>
0

>  <SCORE.INTRA.REPUL>
0

>  <SCORE.INTRA.REPUL.0>
0

>  <SCORE.INTRA.SOLV>
0.00224825

>  <SCORE.INTRA.SOLV.lig_0>
-46.9527

>  <SCORE.INTRA.VDW>
-0.0136022

>  <SCORE.INTRA.VDW.0>
-0.177978

>  <SCORE.INTRA.norm>
0.00185425

>  <SCORE.RESTR>
0

>  <SCORE.RESTR.CAVITY>
0

>  <SCORE.RESTR.norm>
0

>  <SCORE.SYSTEM>
0

>  <SCORE.SYSTEM.CONST>
0

>  <SCORE.SYSTEM.DIHEDRAL>
0

>  <SCORE.SYSTEM.SOLV>
0

>  <SCORE.SYSTEM.norm>
0

>  <SCORE.heavy>
13

>  <SCORE.norm>
-1.33738

>  <RMSD>
4.216

$$$$
ligand
 OpenBabel02271912143D
libRbt.so/2013.1/901 2013/11/27
 13 14  0  0  0  0  0  0  0  0999 V2000
   36.9112   34.9592   24.6898 N   0  0  0  0  0  0  0  0  0  0  0  0
   37.2046   34.4331   25.9612 C   0  0  0  0  0  0  0  0  0  0  0  0
   38.3479   34.9157   26.5841 N   0  0  0  0  0  0  0  0  0  0  0  0
   36.4885   33.4817   26.6075 N   0  0  0  0  0  0  0  0  0  0  0  0
   35.3882   33.0623   25.8659 C   0  0  0  0  0  0  0  0  0  0  0  0
   35.0102   33.5387   24.6046 C   0  0  0  0  0  0  0  0  0  0  0  0
   35.7696   34.5202   23.9511 C   0  0  0  0  0  0  0  0  0  0  0  0
   35.5558   35.0030   22.8488 O   0  0  0  0  0  0  0  0  0  0  0  0
   33.8394   32.8629   24.1907 C   0  0  0  0  0  0  0  0  0  0  0  0
   33.5127   31.9848   25.2124 C   0  0  0  0  0  0  0  0  0  0  0  0
   34.4664   32.1075   26.2542 N   0  0  0  0  0  0  0  0  0  0  0  0
   33.1706   33.0956   22.8818 C   0  0  0  0  0  0  0  0  0  0  0  0
   32.6627   31.8341   22.3206 N   0  0  0  0  0  0  0  0  0  0  0  0
  1  2  1  0  0  0  0
  1  7  1  0  0  0  0
  2  3  1  0  0  0  0
  2  4  2  0  0  0  0
  4  5  1  0  0  0  0
  5  6  2  0  0  0  0
  5 11  1  0  0  0  0
  6  7  1  0  0  0  0
  6  9  1  0  0  0  0
  7  8  2  0  0  0  0
  9 10  2  0  0  0  0
  9 12  1  0  0  0  0
 10 11  1  0  0  0  0
 12 13  1  0  0  0  0
M  END
>  <CHROM.1>
141.65971866,35.26863297,33.54860589,24.73099350,-0.25756599,-0.64732550
-1.06452633

>  <Name>
ligand

>  <RI>
0

>  <Rbt.Current_Directory>
/home/itssahil/PROJECTS/Mol_Feturizer/Test_systems_manuscript/rnas/3q50

>  <Rbt.Executable>
rbdock ($Id: //depot/dev/client3/rdock/2013.1/src/exe/rbdock.cxx#4 $)

>  <Rbt.Library>
libRbt.so (2013.1, Build901 2013/11/27)

>  <Rbt.Parameter_File>
/export/apps/rDock/src/rDock_2013.1_src/data/scripts/dock_solv.prm

>  <Rbt.Receptor>
prm/blind_docking_100.prm

>  <SCORE>
-16.1955

>  <SCORE.INTER>
-16.4607

>  <SCORE.INTER.CONST>
1

>  <SCORE.INTER.POLAR>
0

>  <SCORE.INTER.ROT>
1

>  <SCORE.INTER.SOLV>
20.5808

>  <SCORE.INTER.VDW>
-22.1007

>  <SCORE.INTER.norm>
-1.26621

>  <SCORE.INTRA>
-0.0241377

>  <SCORE.INTRA.DIHEDRAL>
0.0790309

>  <SCORE.INTRA.DIHEDRAL.0>
1.65305

>  <SCORE.INTRA.POLAR>
0

>  <SCORE.INTRA.POLAR.0>
0

>  <SCORE.INTRA.REPUL>
0

>  <SCORE.INTRA.REPUL.0>
0

>  <SCORE.INTRA.SOLV>
0.000614833

>  <SCORE.INTRA.SOLV.lig_0>
-46.9527

>  <SCORE.INTRA.VDW>
-0.0639606

>  <SCORE.INTRA.VDW.0>
-0.177978

>  <SCORE.INTRA.norm>
-0.00185675

>  <SCORE.RESTR>
0.289329

>  <SCORE.RESTR.CAVITY>
0.289329

>  <SCORE.RESTR.norm>
0.0222561

>  <SCORE.SYSTEM>
0

>  <SCORE.SYSTEM.CONST>
0

>  <SCORE.SYSTEM.DIHEDRAL>
0

>  <SCORE.SYSTEM.SOLV>
0

>  <SCORE.SYSTEM.norm>
0

>  <SCORE.heavy>
13

>  <SCORE.norm>
-1.24581

>  <RMSD>
4.217

$$$$
ligand
 OpenBabel02271912143D
libRbt.so/2013.1/901 2013/11/27
 13 14  0  0  0  0  0  0  0  0999 V2000
   37.4935   35.0761   24.9766 N   0  0  0  0  0  0  0  0  0  0  0  0
   37.8164   34.4604   26.1997 C   0  0  0  0  0  0  0  0  0  0  0  0
   38.9878   34.8802   26.8159 N   0  0  0  0  0  0  0  0  0  0  0  0
   37.1028   33.4800   26.8039 N   0  0  0  0  0  0  0  0  0  0  0  0
   35.9719   33.1306   26.0721 C   0  0  0  0  0  0  0  0  0  0  0  0
   35.5637   33.6973   24.8585 C   0  0  0  0  0  0  0  0  0  0  0  0
   36.3210   34.7076   24.2478 C   0  0  0  0  0  0  0  0  0  0  0  0
   36.0821   35.2673   23.1878 O   0  0  0  0  0  0  0  0  0  0  0  0
   34.3677   33.0712   24.4388 C   0  0  0  0  0  0  0  0  0  0  0  0
   34.0563   32.1319   25.4095 C   0  0  0  0  0  0  0  0  0  0  0  0
   35.0445   32.1676   26.4255 N   0  0  0  0  0  0  0  0  0  0  0  0
   33.6627   33.4032   23.1709 C   0  0  0  0  0  0  0  0  0  0  0  0
   32.7689   32.3073   22.7651 N   0  0  0  0  0  0  0  0  0  0  0  0
  1  2  1  0  0  0  0
  1  7  1  0  0  0  0
  2  3  1  0  0  0  0
  2  4  2  0  0  0  0
  4  5  1  0  0  0  0
  5  6  2  0  0  0  0
  5 11  1  0  0  0  0
  6  7  1  0  0  0  0
  6  9  1  0  0  0  0
  7  8  2  0  0  0  0
  9 10  2  0  0  0  0
  9 12  1  0  0  0  0
 10 11  1  0  0  0  0
 12 13  1  0  0  0  0
M  END
>  <CHROM.1>
159.47563816,35.79808897,33.70373539,24.99486034,-0.20993679,-0.59149116
-0.96743702

>  <Name>
ligand

>  <RI>
0

>  <Rbt.Current_Directory>
/home/itssahil/PROJECTS/Mol_Feturizer/Test_systems_manuscript/rnas/3q50

>  <Rbt.Executable>
rbdock ($Id: //depot/dev/client3/rdock/2013.1/src/exe/rbdock.cxx#4 $)

>  <Rbt.Library>
libRbt.so (2013.1, Build901 2013/11/27)

>  <Rbt.Parameter_File>
/export/apps/rDock/src/rDock_2013.1_src/data/scripts/dock_solv.prm

>  <Rbt.Receptor>
prm/pocket_docking_4.prm

>  <SCORE>
-17.3218

>  <SCORE.INTER>
-17.3437

>  <SCORE.INTER.CONST>
1

>  <SCORE.INTER.POLAR>
0

>  <SCORE.INTER.ROT>
1

>  <SCORE.INTER.SOLV>
17.9892

>  <SCORE.INTER.VDW>
-21.8255

>  <SCORE.INTER.norm>
-1.33413

>  <SCORE.INTRA>
0.0218743

>  <SCORE.INTRA.DIHEDRAL>
0.0758035

>  <SCORE.INTRA.DIHEDRAL.0>
1.65305

>  <SCORE.INTRA.POLAR>
0

>  <SCORE.INTRA.POLAR.0>
0

>  <SCORE.INTRA.REPUL>
0

>  <SCORE.INTRA.REPUL.0>
0

>  <SCORE.INTRA.SOLV>
0.0021718

>  <SCORE.INTRA.SOLV.lig_0>
-46.9527

>  <SCORE.INTRA.VDW>
-0.0171133

>  <SCORE.INTRA.VDW.0>
-0.177978

>  <SCORE.INTRA.norm>
0.00168264

>  <SCORE.RESTR>
0

>  <SCORE.RESTR.CAVITY>
0

>  <SCORE.RESTR.norm>
0

>  <SCORE.SYSTEM>
0

>  <SCORE.SYSTEM.CONST>
0

>  <SCORE.SYSTEM.DIHEDRAL>
0

>  <SCORE.SYSTEM.SOLV>
0

>  <SCORE.SYSTEM.norm>
0

>  <SCORE.heavy>
13

>  <SCORE.norm>
-1.33245

>  <RMSD>
4.217

$$$$
ligand
 OpenBabel02271912143D
libRbt.so/2013.1/901 2013/11/27
 13 14  0  0  0  0  0  0  0  0999 V2000
   37.4488   35.0430   24.9881 N   0  0  0  0  0  0  0  0  0  0  0  0
   37.7474   34.4172   26.2122 C   0  0  0  0  0  0  0  0  0  0  0  0
   38.9087   34.8284   26.8528 N   0  0  0  0  0  0  0  0  0  0  0  0
   37.0197   33.4347   26.7960 N   0  0  0  0  0  0  0  0  0  0  0  0
   35.9012   33.0945   26.0412 C   0  0  0  0  0  0  0  0  0  0  0  0
   35.5170   33.6717   24.8246 C   0  0  0  0  0  0  0  0  0  0  0  0
   36.2886   34.6839   24.2353 C   0  0  0  0  0  0  0  0  0  0  0  0
   36.0708   35.2522   23.1754 O   0  0  0  0  0  0  0  0  0  0  0  0
   34.3268   33.0527   24.3785 C   0  0  0  0  0  0  0  0  0  0  0  0
   33.9947   32.1073   25.3364 C   0  0  0  0  0  0  0  0  0  0  0  0
   34.9644   32.1321   26.3704 N   0  0  0  0  0  0  0  0  0  0  0  0
   33.6462   33.3965   23.1005 C   0  0  0  0  0  0  0  0  0  0  0  0
   32.6728   32.3579   22.7287 N   0  0  0  0  0  0  0  0  0  0  0  0
  1  2  1  0  0  0  0
  1  7  1  0  0  0  0
  2  3  1  0  0  0  0
  2  4  2  0  0  0  0
  4  5  1  0  0  0  0
  5  6  2  0  0  0  0
  5 11  1  0  0  0  0
  6  7  1  0  0  0  0
  6  9  1  0  0  0  0
  7  8  2  0  0  0  0
  9 10  2  0  0  0  0
  9 12  1  0  0  0  0
 10 11  1  0  0  0  0
 12 13  1  0  0  0  0
M  END
>  <CHROM.1>
164.22879757,35.74210145,33.68043887,24.96999871,-0.22550648,-0.59186214
-0.96752099

>  <Name>
ligand

>  <RI>
0

>  <Rbt.Current_Directory>
/home/itssahil/PROJECTS/Mol_Feturizer/Test_systems_manuscript/rnas/3q50

>  <Rbt.Executable>
rbdock ($Id: //depot/dev/client3/rdock/2013.1/src/exe/rbdock.cxx#4 $)

>  <Rbt.Library>
libRbt.so (2013.1, Build901 2013/11/27)

>  <Rbt.Parameter_File>
/export/apps/rDock/src/rDock_2013.1_src/data/scripts/dock_solv.prm

>  <Rbt.Receptor>
prm/pocket_docking_6.prm

>  <SCORE>
-17.3265

>  <SCORE.INTER>
-17.3537

>  <SCORE.INTER.CONST>
1

>  <SCORE.INTER.POLAR>
0

>  <SCORE.INTER.ROT>
1

>  <SCORE.INTER.SOLV>
18.2726

>  <SCORE.INTER.VDW>
-21.9267

>  <SCORE.INTER.norm>
-1.3349

>  <SCORE.INTRA>
0.0272109

>  <SCORE.INTRA.DIHEDRAL>
0.0672506

>  <SCORE.INTRA.DIHEDRAL.0>
1.65305

>  <SCORE.INTRA.POLAR>
0

>  <SCORE.INTRA.POLAR.0>
0

>  <SCORE.INTRA.REPUL>
0

>  <SCORE.INTRA.REPUL.0>
0

>  <SCORE.INTRA.SOLV>
0.00234017

>  <SCORE.INTRA.SOLV.lig_0>
-46.9527

>  <SCORE.INTRA.VDW>
-0.00758447

>  <SCORE.INTRA.VDW.0>
-0.177978

>  <SCORE.INTRA.norm>
0.00209315

>  <SCORE.RESTR>
0

>  <SCORE.RESTR.CAVITY>
0

>  <SCORE.RESTR.norm>
0

>  <SCORE.SYSTEM>
0

>  <SCORE.SYSTEM.CONST>
0

>  <SCORE.SYSTEM.DIHEDRAL>
0

>  <SCORE.SYSTEM.SOLV>
0

>  <SCORE.SYSTEM.norm>
0

>  <SCORE.heavy>
13

>  <SCORE.norm>
-1.33281

>  <RMSD>
4.217

$$$$
ligand
 OpenBabel02271912143D
libRbt.so/2013.1/901 2013/11/27
 13 14  0  0  0  0  0  0  0  0999 V2000
   37.4426   35.0735   24.9601 N   0  0  0  0  0  0  0  0  0  0  0  0
   37.7704   34.4447   26.1752 C   0  0  0  0  0  0  0  0  0  0  0  0
   38.9356   34.8696   26.7995 N   0  0  0  0  0  0  0  0  0  0  0  0
   37.0670   33.4478   26.7644 N   0  0  0  0  0  0  0  0  0  0  0  0
   35.9417   33.0954   26.0255 C   0  0  0  0  0  0  0  0  0  0  0  0
   35.5292   33.6741   24.8190 C   0  0  0  0  0  0  0  0  0  0  0  0
   36.2759   34.7014   24.2238 C   0  0  0  0  0  0  0  0  0  0  0  0
   36.0325   35.2729   23.1712 O   0  0  0  0  0  0  0  0  0  0  0  0
   34.3414   33.0399   24.3882 C   0  0  0  0  0  0  0  0  0  0  0  0
   34.0391   32.0837   25.3452 C   0  0  0  0  0  0  0  0  0  0  0  0
   35.0249   32.1169   26.3636 N   0  0  0  0  0  0  0  0  0  0  0  0
   33.6351   33.3812   23.1235 C   0  0  0  0  0  0  0  0  0  0  0  0
   32.6230   32.3645   22.7971 N   0  0  0  0  0  0  0  0  0  0  0  0
  1  2  1  0  0  0  0
  1  7  1  0  0  0  0
  2  3  1  0  0  0  0
  2  4  2  0  0  0  0
  4  5  1  0  0  0  0
  5  6  2  0  0  0  0
  5 11  1  0  0  0  0
  6  7  1  0  0  0  0
  6  9  1  0  0  0  0
  7  8  2  0  0  0  0
  9 10  2  0  0  0  0
  9 12  1  0  0  0  0
 10 11  1  0  0  0  0
 12 13  1  0  0  0  0
M  END
>  <CHROM.1>
167.12873252,35.75255771,33.68813701,24.96371276,-0.19667794,-0.59030007
-0.94440461

>  <Name>
ligand

>  <RI>
0

>  <Rbt.Current_Directory>
/home/itssahil/PROJECTS/Mol_Feturizer/Test_systems_manuscript/rnas/3q50

>  <Rbt.Executable>
rbdock ($Id: //depot/dev/client3/rdock/2013.1/src/exe/rbdock.cxx#4 $)

>  <Rbt.Library>
libRbt.so (2013.1, Build901 2013/11/27)

>  <Rbt.Parameter_File>
/export/apps/rDock/src/rDock_2013.1_src/data/scripts/dock_solv.prm

>  <Rbt.Receptor>
prm/pocket_docking_4.prm

>  <SCORE>
-17.2736

>  <SCORE.INTER>
-17.3024

>  <SCORE.INTER.CONST>
1

>  <SCORE.INTER.POLAR>
0

>  <SCORE.INTER.ROT>
1

>  <SCORE.INTER.SOLV>
18.2711

>  <SCORE.INTER.VDW>
-21.892

>  <SCORE.INTER.norm>
-1.33095

>  <SCORE.INTRA>
0.0287381

>  <SCORE.INTRA.DIHEDRAL>
0.0607724

>  <SCORE.INTRA.DIHEDRAL.0>
1.65305

>  <SCORE.INTRA.POLAR>
0

>  <SCORE.INTRA.POLAR.0>
0

>  <SCORE.INTRA.REPUL>
0

>  <SCORE.INTRA.REPUL.0>
0

>  <SCORE.INTRA.SOLV>
0.00235688

>  <SCORE.INTRA.SOLV.lig_0>
-46.9527

>  <SCORE.INTRA.VDW>
-0.0028265

>  <SCORE.INTRA.VDW.0>
-0.177978

>  <SCORE.INTRA.norm>
0.00221063

>  <SCORE.RESTR>
0

>  <SCORE.RESTR.CAVITY>
0

>  <SCORE.RESTR.norm>
0

>  <SCORE.SYSTEM>
0

>  <SCORE.SYSTEM.CONST>
0

>  <SCORE.SYSTEM.DIHEDRAL>
0

>  <SCORE.SYSTEM.SOLV>
0

>  <SCORE.SYSTEM.norm>
0

>  <SCORE.heavy>
13

>  <SCORE.norm>
-1.32874

>  <RMSD>
4.218

$$$$
ligand
 OpenBabel02271912143D
libRbt.so/2013.1/901 2013/11/27
 13 14  0  0  0  0  0  0  0  0999 V2000
   37.4693   35.0122   25.0015 N   0  0  0  0  0  0  0  0  0  0  0  0
   37.7638   34.3859   26.2263 C   0  0  0  0  0  0  0  0  0  0  0  0
   38.9277   34.7904   26.8665 N   0  0  0  0  0  0  0  0  0  0  0  0
   37.0296   33.4089   26.8113 N   0  0  0  0  0  0  0  0  0  0  0  0
   35.9090   33.0751   26.0567 C   0  0  0  0  0  0  0  0  0  0  0  0
   35.5287   33.6533   24.8395 C   0  0  0  0  0  0  0  0  0  0  0  0
   36.3069   34.6597   24.2490 C   0  0  0  0  0  0  0  0  0  0  0  0
   36.0929   35.2282   23.1884 O   0  0  0  0  0  0  0  0  0  0  0  0
   34.3345   33.0415   24.3940 C   0  0  0  0  0  0  0  0  0  0  0  0
   33.9962   32.0994   25.3530 C   0  0  0  0  0  0  0  0  0  0  0  0
   34.9659   32.1192   26.3871 N   0  0  0  0  0  0  0  0  0  0  0  0
   33.6562   33.3882   23.1156 C   0  0  0  0  0  0  0  0  0  0  0  0
   32.6978   32.3409   22.7294 N   0  0  0  0  0  0  0  0  0  0  0  0
  1  2  1  0  0  0  0
  1  7  1  0  0  0  0
  2  3  1  0  0  0  0
  2  4  2  0  0  0  0
  4  5  1  0  0  0  0
  5  6  2  0  0  0  0
  5 11  1  0  0  0  0
  6  7  1  0  0  0  0
  6  9  1  0  0  0  0
  7  8  2  0  0  0  0
  9 10  2  0  0  0  0
  9 12  1  0  0  0  0
 10 11  1  0  0  0  0
 12 13  1  0  0  0  0
M  END
>  <CHROM.1>
162.96119034,35.75555834,33.65956661,24.98359905,-0.23121235,-0.58848174
-0.97225008

>  <Name>
ligand

>  <RI>
0

>  <Rbt.Current_Directory>
/home/itssahil/PROJECTS/Mol_Feturizer/Test_systems_manuscript/rnas/3q50

>  <Rbt.Executable>
rbdock ($Id: //depot/dev/client3/rdock/2013.1/src/exe/rbdock.cxx#4 $)

>  <Rbt.Library>
libRbt.so (2013.1, Build901 2013/11/27)

>  <Rbt.Parameter_File>
/export/apps/rDock/src/rDock_2013.1_src/data/scripts/dock_solv.prm

>  <Rbt.Receptor>
prm/pocket_docking_5.prm

>  <SCORE>
-17.3697

>  <SCORE.INTER>
-17.3959

>  <SCORE.INTER.CONST>
1

>  <SCORE.INTER.POLAR>
0

>  <SCORE.INTER.ROT>
1

>  <SCORE.INTER.SOLV>
18.1568

>  <SCORE.INTER.VDW>
-21.9162

>  <SCORE.INTER.norm>
-1.33814

>  <SCORE.INTRA>
0.0261262

>  <SCORE.INTRA.DIHEDRAL>
0.0697992

>  <SCORE.INTRA.DIHEDRAL.0>
1.65305

>  <SCORE.INTRA.POLAR>
0

>  <SCORE.INTRA.POLAR.0>
0

>  <SCORE.INTRA.REPUL>
0

>  <SCORE.INTRA.REPUL.0>
0

>  <SCORE.INTRA.SOLV>
0.00231152

>  <SCORE.INTRA.SOLV.lig_0>
-46.9527

>  <SCORE.INTRA.VDW>
-0.00992917

>  <SCORE.INTRA.VDW.0>
-0.177978

>  <SCORE.INTRA.norm>
0.00200971

>  <SCORE.RESTR>
0

>  <SCORE.RESTR.CAVITY>
0

>  <SCORE.RESTR.norm>
0

>  <SCORE.SYSTEM>
0

>  <SCORE.SYSTEM.CONST>
0

>  <SCORE.SYSTEM.DIHEDRAL>
0

>  <SCORE.SYSTEM.SOLV>
0

>  <SCORE.SYSTEM.norm>
0

>  <SCORE.heavy>
13

>  <SCORE.norm>
-1.33613

>  <RMSD>
4.218

$$$$
ligand
 OpenBabel02271912143D
libRbt.so/2013.1/901 2013/11/27
 13 14  0  0  0  0  0  0  0  0999 V2000
   37.4022   35.0633   24.9862 N   0  0  0  0  0  0  0  0  0  0  0  0
   37.7195   34.4383   26.2060 C   0  0  0  0  0  0  0  0  0  0  0  0
   38.8815   34.8620   26.8370 N   0  0  0  0  0  0  0  0  0  0  0  0
   37.0091   33.4456   26.7940 N   0  0  0  0  0  0  0  0  0  0  0  0
   35.8880   33.0937   26.0485 C   0  0  0  0  0  0  0  0  0  0  0  0
   35.4858   33.6690   24.8369 C   0  0  0  0  0  0  0  0  0  0  0  0
   36.2397   34.6919   24.2431 C   0  0  0  0  0  0  0  0  0  0  0  0
   36.0055   35.2600   23.1866 O   0  0  0  0  0  0  0  0  0  0  0  0
   34.2992   33.0367   24.4000 C   0  0  0  0  0  0  0  0  0  0  0  0
   33.9873   32.0850   25.3585 C   0  0  0  0  0  0  0  0  0  0  0  0
   34.9659   32.1192   26.3838 N   0  0  0  0  0  0  0  0  0  0  0  0
   33.6028   33.3752   23.1291 C   0  0  0  0  0  0  0  0  0  0  0  0
   32.5129   32.4247   22.8589 N   0  0  0  0  0  0  0  0  0  0  0  0
  1  2  1  0  0  0  0
  1  7  1  0  0  0  0
  2  3  1  0  0  0  0
  2  4  2  0  0  0  0
  4  5  1  0  0  0  0
  5  6  2  0  0  0  0
  5 11  1  0  0  0  0
  6  7  1  0  0  0  0
  6  9  1  0  0  0  0
  7  8  2  0  0  0  0
  9 10  2  0  0  0  0
  9 12  1  0  0  0  0
 10 11  1  0  0  0  0
 12 13  1  0  0  0  0
M  END
>  <CHROM.1>
172.00402339,35.70184798,33.68820873,24.98797804,-0.20226517,-0.58420470
-0.94975489

>  <Name>
ligand

>  <RI>
0

>  <Rbt.Current_Directory>
/home/itssahil/PROJECTS/Mol_Feturizer/Test_systems_manuscript/rnas/3q50

>  <Rbt.Executable>
rbdock ($Id: //depot/dev/client3/rdock/2013.1/src/exe/rbdock.cxx#4 $)

>  <Rbt.Library>
libRbt.so (2013.1, Build901 2013/11/27)

>  <Rbt.Parameter_File>
/export/apps/rDock/src/rDock_2013.1_src/data/scripts/dock_solv.prm

>  <Rbt.Receptor>
prm/pocket_docking_6.prm

>  <SCORE>
-17.2328

>  <SCORE.INTER>
-17.261

>  <SCORE.INTER.CONST>
1

>  <SCORE.INTER.POLAR>
0

>  <SCORE.INTER.ROT>
1

>  <SCORE.INTER.SOLV>
18.4537

>  <SCORE.INTER.VDW>
-21.9253

>  <SCORE.INTER.norm>
-1.32777

>  <SCORE.INTRA>
0.0282671

>  <SCORE.INTRA.DIHEDRAL>
0.0482122

>  <SCORE.INTRA.DIHEDRAL.0>
1.65305

>  <SCORE.INTRA.POLAR>
0

>  <SCORE.INTRA.POLAR.0>
0

>  <SCORE.INTRA.REPUL>
0

>  <SCORE.INTRA.REPUL.0>
0

>  <SCORE.INTRA.SOLV>
0.00221884

>  <SCORE.INTRA.SOLV.lig_0>
-46.9527

>  <SCORE.INTRA.VDW>
0.0030516

>  <SCORE.INTRA.VDW.0>
-0.177978

>  <SCORE.INTRA.norm>
0.00217439

>  <SCORE.RESTR>
0

>  <SCORE.RESTR.CAVITY>
0

>  <SCORE.RESTR.norm>
0

>  <SCORE.SYSTEM>
0

>  <SCORE.SYSTEM.CONST>
0

>  <SCORE.SYSTEM.DIHEDRAL>
0

>  <SCORE.SYSTEM.SOLV>
0

>  <SCORE.SYSTEM.norm>
0

>  <SCORE.heavy>
13

>  <SCORE.norm>
-1.3256

>  <RMSD>
4.218

$$$$
ligand
 OpenBabel02271912143D
libRbt.so/2013.1/901 2013/11/27
 13 14  0  0  0  0  0  0  0  0999 V2000
   37.4452   35.0952   24.9429 N   0  0  0  0  0  0  0  0  0  0  0  0
   37.7787   34.4705   26.1586 C   0  0  0  0  0  0  0  0  0  0  0  0
   38.9436   34.9016   26.7792 N   0  0  0  0  0  0  0  0  0  0  0  0
   37.0810   33.4718   26.7516 N   0  0  0  0  0  0  0  0  0  0  0  0
   35.9554   33.1130   26.0162 C   0  0  0  0  0  0  0  0  0  0  0  0
   35.5375   33.6874   24.8096 C   0  0  0  0  0  0  0  0  0  0  0  0
   36.2783   34.7167   24.2104 C   0  0  0  0  0  0  0  0  0  0  0  0
   36.0299   35.2849   23.1571 O   0  0  0  0  0  0  0  0  0  0  0  0
   34.3513   33.0473   24.3830 C   0  0  0  0  0  0  0  0  0  0  0  0
   34.0555   32.0918   25.3428 C   0  0  0  0  0  0  0  0  0  0  0  0
   35.0436   32.1314   26.3587 N   0  0  0  0  0  0  0  0  0  0  0  0
   33.6404   33.3829   23.1194 C   0  0  0  0  0  0  0  0  0  0  0  0
   32.5195   32.4588   22.8868 N   0  0  0  0  0  0  0  0  0  0  0  0
  1  2  1  0  0  0  0
  1  7  1  0  0  0  0
  2  3  1  0  0  0  0
  2  4  2  0  0  0  0
  4  5  1  0  0  0  0
  5  6  2  0  0  0  0
  5 11  1  0  0  0  0
  6  7  1  0  0  0  0
  6  9  1  0  0  0  0
  7  8  2  0  0  0  0
  9 10  2  0  0  0  0
  9 12  1  0  0  0  0
 10 11  1  0  0  0  0
 12 13  1  0  0  0  0
M  END
>  <CHROM.1>
174.36789199,35.75195628,33.71066901,24.96095621,-0.18661020,-0.58054059
-0.93860091

>  <Name>
ligand

>  <RI>
0

>  <Rbt.Current_Directory>
/home/itssahil/PROJECTS/Mol_Feturizer/Test_systems_manuscript/rnas/3q50

>  <Rbt.Executable>
rbdock ($Id: //depot/dev/client3/rdock/2013.1/src/exe/rbdock.cxx#4 $)

>  <Rbt.Library>
libRbt.so (2013.1, Build901 2013/11/27)

>  <Rbt.Parameter_File>
/export/apps/rDock/src/rDock_2013.1_src/data/scripts/dock_solv.prm

>  <Rbt.Receptor>
prm/pocket_docking_2.prm

>  <SCORE>
-17.3199

>  <SCORE.INTER>
-17.3466

>  <SCORE.INTER.CONST>
1

>  <SCORE.INTER.POLAR>
0

>  <SCORE.INTER.ROT>
1

>  <SCORE.INTER.SOLV>
18.3094

>  <SCORE.INTER.VDW>
-21.9342

>  <SCORE.INTER.norm>
-1.33435

>  <SCORE.INTRA>
0.0266757

>  <SCORE.INTRA.DIHEDRAL>
0.0415718

>  <SCORE.INTRA.DIHEDRAL.0>
1.65305

>  <SCORE.INTRA.POLAR>
0

>  <SCORE.INTRA.POLAR.0>
0

>  <SCORE.INTRA.REPUL>
0

>  <SCORE.INTRA.REPUL.0>
0

>  <SCORE.INTRA.SOLV>
0.00207201

>  <SCORE.INTRA.SOLV.lig_0>
-46.9527

>  <SCORE.INTRA.VDW>
0.00485384

>  <SCORE.INTRA.VDW.0>
-0.177978

>  <SCORE.INTRA.norm>
0.00205198

>  <SCORE.RESTR>
0

>  <SCORE.RESTR.CAVITY>
0

>  <SCORE.RESTR.norm>
0

>  <SCORE.SYSTEM>
0

>  <SCORE.SYSTEM.CONST>
0

>  <SCORE.SYSTEM.DIHEDRAL>
0

>  <SCORE.SYSTEM.SOLV>
0

>  <SCORE.SYSTEM.norm>
0

>  <SCORE.heavy>
13

>  <SCORE.norm>
-1.3323

>  <RMSD>
4.219

$$$$
ligand
 OpenBabel02271912143D
libRbt.so/2013.1/901 2013/11/27
 13 14  0  0  0  0  0  0  0  0999 V2000
   37.4429   35.0753   24.9633 N   0  0  0  0  0  0  0  0  0  0  0  0
   37.7678   34.4468   26.1793 C   0  0  0  0  0  0  0  0  0  0  0  0
   38.9312   34.8721   26.8067 N   0  0  0  0  0  0  0  0  0  0  0  0
   37.0633   33.4496   26.7667 N   0  0  0  0  0  0  0  0  0  0  0  0
   35.9400   33.0967   26.0249 C   0  0  0  0  0  0  0  0  0  0  0  0
   35.5305   33.6752   24.8174 C   0  0  0  0  0  0  0  0  0  0  0  0
   36.2783   34.7028   24.2240 C   0  0  0  0  0  0  0  0  0  0  0  0
   36.0374   35.2741   23.1707 O   0  0  0  0  0  0  0  0  0  0  0  0
   34.3440   33.0406   24.3835 C   0  0  0  0  0  0  0  0  0  0  0  0
   34.0396   32.0843   25.3398 C   0  0  0  0  0  0  0  0  0  0  0  0
   35.0227   32.1179   26.3608 N   0  0  0  0  0  0  0  0  0  0  0  0
   33.6408   33.3815   23.1170 C   0  0  0  0  0  0  0  0  0  0  0  0
   32.5136   32.4662   22.8800 N   0  0  0  0  0  0  0  0  0  0  0  0
  1  2  1  0  0  0  0
  1  7  1  0  0  0  0
  2  3  1  0  0  0  0
  2  4  2  0  0  0  0
  4  5  1  0  0  0  0
  5  6  2  0  0  0  0
  5 11  1  0  0  0  0
  6  7  1  0  0  0  0
  6  9  1  0  0  0  0
  7  8  2  0  0  0  0
  9 10  2  0  0  0  0
  9 12  1  0  0  0  0
 10 11  1  0  0  0  0
 12 13  1  0  0  0  0
M  END
>  <CHROM.1>
174.63170898,35.74391904,33.69765795,24.97014394,-0.19410124,-0.57996500
-0.94055427

>  <Name>
ligand

>  <RI>
0

>  <Rbt.Current_Directory>
/home/itssahil/PROJECTS/Mol_Feturizer/Test_systems_manuscript/rnas/3q50

>  <Rbt.Executable>
rbdock ($Id: //depot/dev/client3/rdock/2013.1/src/exe/rbdock.cxx#4 $)

>  <Rbt.Library>
libRbt.so (2013.1, Build901 2013/11/27)

>  <Rbt.Parameter_File>
/export/apps/rDock/src/rDock_2013.1_src/data/scripts/dock_solv.prm

>  <Rbt.Receptor>
prm/pocket_docking_5.prm

>  <SCORE>
-17.2731

>  <SCORE.INTER>
-17.2996

>  <SCORE.INTER.CONST>
1

>  <SCORE.INTER.POLAR>
0

>  <SCORE.INTER.ROT>
1

>  <SCORE.INTER.SOLV>
18.312

>  <SCORE.INTER.VDW>
-21.9037

>  <SCORE.INTER.norm>
-1.33074

>  <SCORE.INTRA>
0.0264441

>  <SCORE.INTRA.DIHEDRAL>
0.0408149

>  <SCORE.INTRA.DIHEDRAL.0>
1.65305

>  <SCORE.INTRA.POLAR>
0

>  <SCORE.INTRA.POLAR.0>
0

>  <SCORE.INTRA.REPUL>
0

>  <SCORE.INTRA.REPUL.0>
0

>  <SCORE.INTRA.SOLV>
0.00205228

>  <SCORE.INTRA.SOLV.lig_0>
-46.9527

>  <SCORE.INTRA.VDW>
0.00501048

>  <SCORE.INTRA.VDW.0>
-0.177978

>  <SCORE.INTRA.norm>
0.00203416

>  <SCORE.RESTR>
0

>  <SCORE.RESTR.CAVITY>
0

>  <SCORE.RESTR.norm>
0

>  <SCORE.SYSTEM>
0

>  <SCORE.SYSTEM.CONST>
0

>  <SCORE.SYSTEM.DIHEDRAL>
0

>  <SCORE.SYSTEM.SOLV>
0

>  <SCORE.SYSTEM.norm>
0

>  <SCORE.heavy>
13

>  <SCORE.norm>
-1.3287

>  <RMSD>
4.219

$$$$
ligand
 OpenBabel02271912143D
libRbt.so/2013.1/901 2013/11/27
 13 14  0  0  0  0  0  0  0  0999 V2000
   37.4455   35.0680   24.9596 N   0  0  0  0  0  0  0  0  0  0  0  0
   37.7745   34.4226   26.1656 C   0  0  0  0  0  0  0  0  0  0  0  0
   38.9398   34.8395   26.7951 N   0  0  0  0  0  0  0  0  0  0  0  0
   37.0723   33.4170   26.7412 N   0  0  0  0  0  0  0  0  0  0  0  0
   35.9467   33.0741   25.9982 C   0  0  0  0  0  0  0  0  0  0  0  0
   35.5330   33.6694   24.8003 C   0  0  0  0  0  0  0  0  0  0  0  0
   36.2786   34.7055   24.2190 C   0  0  0  0  0  0  0  0  0  0  0  0
   36.0340   35.2915   23.1746 O   0  0  0  0  0  0  0  0  0  0  0  0
   34.3454   33.0404   24.3614 C   0  0  0  0  0  0  0  0  0  0  0  0
   34.0444   32.0707   25.3051 C   0  0  0  0  0  0  0  0  0  0  0  0
   35.0308   32.0903   26.3233 N   0  0  0  0  0  0  0  0  0  0  0  0
   33.6379   33.3989   23.1021 C   0  0  0  0  0  0  0  0  0  0  0  0
   32.4673   32.5325   22.8932 N   0  0  0  0  0  0  0  0  0  0  0  0
  1  2  1  0  0  0  0
  1  7  1  0  0  0  0
  2  3  1  0  0  0  0
  2  4  2  0  0  0  0
  4  5  1  0  0  0  0
  5  6  2  0  0  0  0
  5 11  1  0  0  0  0
  6  7  1  0  0  0  0
  6  9  1  0  0  0  0
  7  8  2  0  0  0  0
  9 10  2  0  0  0  0
  9 12  1  0  0  0  0
 10 11  1  0  0  0  0
 12 13  1  0  0  0  0
M  END
>  <CHROM.1>
177.68221534,35.74349313,33.69347089,24.95567241,-0.18934202,-0.57328328
-0.92263122

>  <Name>
ligand

>  <RI>
0

>  <Rbt.Current_Directory>
/home/itssahil/PROJECTS/Mol_Feturizer/Test_systems_manuscript/rnas/3q50

>  <Rbt.Executable>
rbdock ($Id: //depot/dev/client3/rdock/2013.1/src/exe/rbdock.cxx#4 $)

>  <Rbt.Library>
libRbt.so (2013.1, Build901 2013/11/27)

>  <Rbt.Parameter_File>
/export/apps/rDock/src/rDock_2013.1_src/data/scripts/dock_solv.prm

>  <Rbt.Receptor>
prm/pocket_docking_5.prm

>  <SCORE>
-17.2645

>  <SCORE.INTER>
-17.2875

>  <SCORE.INTER.CONST>
1

>  <SCORE.INTER.POLAR>
0

>  <SCORE.INTER.ROT>
1

>  <SCORE.INTER.SOLV>
18.2822

>  <SCORE.INTER.VDW>
-21.8857

>  <SCORE.INTER.norm>
-1.32981

>  <SCORE.INTRA>
0.0230005

>  <SCORE.INTRA.DIHEDRAL>
0.0319083

>  <SCORE.INTRA.DIHEDRAL.0>
1.65305

>  <SCORE.INTRA.POLAR>
0

>  <SCORE.INTRA.POLAR.0>
0

>  <SCORE.INTRA.REPUL>
0

>  <SCORE.INTRA.REPUL.0>
0

>  <SCORE.INTRA.SOLV>
0.00177492

>  <SCORE.INTRA.SOLV.lig_0>
-46.9527

>  <SCORE.INTRA.VDW>
0.00615889

>  <SCORE.INTRA.VDW.0>
-0.177978

>  <SCORE.INTRA.norm>
0.00176927

>  <SCORE.RESTR>
0

>  <SCORE.RESTR.CAVITY>
0

>  <SCORE.RESTR.norm>
0

>  <SCORE.SYSTEM>
0

>  <SCORE.SYSTEM.CONST>
0

>  <SCORE.SYSTEM.DIHEDRAL>
0

>  <SCORE.SYSTEM.SOLV>
0

>  <SCORE.SYSTEM.norm>
0

>  <SCORE.heavy>
13

>  <SCORE.norm>
-1.32804

>  <RMSD>
4.219

$$$$
ligand
 OpenBabel02271912143D
libRbt.so/2013.1/901 2013/11/27
 13 14  0  0  0  0  0  0  0  0999 V2000
   37.4574   35.0846   24.9591 N   0  0  0  0  0  0  0  0  0  0  0  0
   37.7892   34.4543   26.1723 C   0  0  0  0  0  0  0  0  0  0  0  0
   38.9565   34.8784   26.7934 N   0  0  0  0  0  0  0  0  0  0  0  0
   37.0879   33.4566   26.7625 N   0  0  0  0  0  0  0  0  0  0  0  0
   35.9602   33.1050   26.0269 C   0  0  0  0  0  0  0  0  0  0  0  0
   35.5437   33.6853   24.8225 C   0  0  0  0  0  0  0  0  0  0  0  0
   36.2883   34.7134   24.2262 C   0  0  0  0  0  0  0  0  0  0  0  0
   36.0414   35.2862   23.1751 O   0  0  0  0  0  0  0  0  0  0  0  0
   34.3545   33.0515   24.3948 C   0  0  0  0  0  0  0  0  0  0  0  0
   34.0555   32.0941   25.3516 C   0  0  0  0  0  0  0  0  0  0  0  0
   35.0446   32.1260   26.3668 N   0  0  0  0  0  0  0  0  0  0  0  0
   33.6440   33.3944   23.1329 C   0  0  0  0  0  0  0  0  0  0  0  0
   32.5853   32.4144   22.8441 N   0  0  0  0  0  0  0  0  0  0  0  0
  1  2  1  0  0  0  0
  1  7  1  0  0  0  0
  2  3  1  0  0  0  0
  2  4  2  0  0  0  0
  4  5  1  0  0  0  0
  5  6  2  0  0  0  0
  5 11  1  0  0  0  0
  6  7  1  0  0  0  0
  6  9  1  0  0  0  0
  7  8  2  0  0  0  0
  9 10  2  0  0  0  0
  9 12  1  0  0  0  0
 10 11  1  0  0  0  0
 12 13  1  0  0  0  0
M  END
>  <CHROM.1>
169.97888946,35.76379381,33.70210160,24.96940374,-0.19135584,-0.58384506
-0.93933175

>  <Name>
ligand

>  <RI>
0

>  <Rbt.Current_Directory>
/home/itssahil/PROJECTS/Mol_Feturizer/Test_systems_manuscript/rnas/3q50

>  <Rbt.Executable>
rbdock ($Id: //depot/dev/client3/rdock/2013.1/src/exe/rbdock.cxx#4 $)

>  <Rbt.Library>
libRbt.so (2013.1, Build901 2013/11/27)

>  <Rbt.Parameter_File>
/export/apps/rDock/src/rDock_2013.1_src/data/scripts/dock_solv.prm

>  <Rbt.Receptor>
prm/pocket_docking_5.prm

>  <SCORE>
-17.2932

>  <SCORE.INTER>
-17.3221

>  <SCORE.INTER.CONST>
1

>  <SCORE.INTER.POLAR>
0

>  <SCORE.INTER.ROT>
1

>  <SCORE.INTER.SOLV>
18.213

>  <SCORE.INTER.VDW>
-21.8857

>  <SCORE.INTER.norm>
-1.33247

>  <SCORE.INTRA>
0.0289262

>  <SCORE.INTRA.DIHEDRAL>
0.0536461

>  <SCORE.INTRA.DIHEDRAL.0>
1.65305

>  <SCORE.INTRA.POLAR>
0

>  <SCORE.INTRA.POLAR.0>
0

>  <SCORE.INTRA.REPUL>
0

>  <SCORE.INTRA.REPUL.0>
0

>  <SCORE.INTRA.SOLV>
0.00230254

>  <SCORE.INTRA.SOLV.lig_0>
-46.9527

>  <SCORE.INTRA.VDW>
0.000951853

>  <SCORE.INTRA.VDW.0>
-0.177978

>  <SCORE.INTRA.norm>
0.00222509

>  <SCORE.RESTR>
0

>  <SCORE.RESTR.CAVITY>
0

>  <SCORE.RESTR.norm>
0

>  <SCORE.SYSTEM>
0

>  <SCORE.SYSTEM.CONST>
0

>  <SCORE.SYSTEM.DIHEDRAL>
0

>  <SCORE.SYSTEM.SOLV>
0

>  <SCORE.SYSTEM.norm>
0

>  <SCORE.heavy>
13

>  <SCORE.norm>
-1.33025

>  <RMSD>
4.219

$$$$
ligand
 OpenBabel02271912143D
libRbt.so/2013.1/901 2013/11/27
 13 14  0  0  0  0  0  0  0  0999 V2000
   37.4301   35.0601   24.9950 N   0  0  0  0  0  0  0  0  0  0  0  0
   37.7426   34.4163   26.2062 C   0  0  0  0  0  0  0  0  0  0  0  0
   38.8991   34.8343   26.8511 N   0  0  0  0  0  0  0  0  0  0  0  0
   37.0328   33.4113   26.7735 N   0  0  0  0  0  0  0  0  0  0  0  0
   35.9176   33.0671   26.0155 C   0  0  0  0  0  0  0  0  0  0  0  0
   35.5203   33.6607   24.8112 C   0  0  0  0  0  0  0  0  0  0  0  0
   36.2735   34.6962   24.2389 C   0  0  0  0  0  0  0  0  0  0  0  0
   36.0432   35.2808   23.1904 O   0  0  0  0  0  0  0  0  0  0  0  0
   34.3389   33.0309   24.3569 C   0  0  0  0  0  0  0  0  0  0  0  0
   34.0252   32.0624   25.2977 C   0  0  0  0  0  0  0  0  0  0  0  0
   34.9976   32.0836   26.3293 N   0  0  0  0  0  0  0  0  0  0  0  0
   33.6488   33.3875   23.0875 C   0  0  0  0  0  0  0  0  0  0  0  0
   32.4482   32.5597   22.8927 N   0  0  0  0  0  0  0  0  0  0  0  0
  1  2  1  0  0  0  0
  1  7  1  0  0  0  0
  2  3  1  0  0  0  0
  2  4  2  0  0  0  0
  4  5  1  0  0  0  0
  5  6  2  0  0  0  0
  5 11  1  0  0  0  0
  6  7  1  0  0  0  0
  6  9  1  0  0  0  0
  7  8  2  0  0  0  0
  9 10  2  0  0  0  0
  9 12  1  0  0  0  0
 10 11  1  0  0  0  0
 12 13  1  0  0  0  0
M  END
>  <CHROM.1>
-179.86000884,35.72589987,33.68826060,24.97182083,-0.20136667,-0.57767643
-0.92936382

>  <Name>
ligand

>  <RI>
0

>  <Rbt.Current_Directory>
/home/itssahil/PROJECTS/Mol_Feturizer/Test_systems_manuscript/rnas/3q50

>  <Rbt.Executable>
rbdock ($Id: //depot/dev/client3/rdock/2013.1/src/exe/rbdock.cxx#4 $)

>  <Rbt.Library>
libRbt.so (2013.1, Build901 2013/11/27)

>  <Rbt.Parameter_File>
/export/apps/rDock/src/rDock_2013.1_src/data/scripts/dock_solv.prm

>  <Rbt.Receptor>
prm/pocket_docking_6.prm

>  <SCORE>
-17.2708

>  <SCORE.INTER>
-17.29

>  <SCORE.INTER.CONST>
1

>  <SCORE.INTER.POLAR>
0

>  <SCORE.INTER.ROT>
1

>  <SCORE.INTER.SOLV>
18.3592

>  <SCORE.INTER.VDW>
-21.9131

>  <SCORE.INTER.norm>
-1.33

>  <SCORE.INTRA>
0.0192445

>  <SCORE.INTRA.DIHEDRAL>
0.0246298

>  <SCORE.INTRA.DIHEDRAL.0>
1.65305

>  <SCORE.INTRA.POLAR>
0

>  <SCORE.INTRA.POLAR.0>
0

>  <SCORE.INTRA.REPUL>
0

>  <SCORE.INTRA.REPUL.0>
0

>  <SCORE.INTRA.SOLV>
0.00148524

>  <SCORE.INTRA.SOLV.lig_0>
-46.9527

>  <SCORE.INTRA.VDW>
0.00618699

>  <SCORE.INTRA.VDW.0>
-0.177978

>  <SCORE.INTRA.norm>
0.00148034

>  <SCORE.RESTR>
0

>  <SCORE.RESTR.CAVITY>
0

>  <SCORE.RESTR.norm>
0

>  <SCORE.SYSTEM>
0

>  <SCORE.SYSTEM.CONST>
0

>  <SCORE.SYSTEM.DIHEDRAL>
0

>  <SCORE.SYSTEM.SOLV>
0

>  <SCORE.SYSTEM.norm>
0

>  <SCORE.heavy>
13

>  <SCORE.norm>
-1.32852

>  <RMSD>
4.219

$$$$
ligand
 OpenBabel02271912143D
libRbt.so/2013.1/901 2013/11/27
 13 14  0  0  0  0  0  0  0  0999 V2000
   37.4370   35.0224   24.9940 N   0  0  0  0  0  0  0  0  0  0  0  0
   37.7362   34.4051   26.2223 C   0  0  0  0  0  0  0  0  0  0  0  0
   38.8982   34.8204   26.8590 N   0  0  0  0  0  0  0  0  0  0  0  0
   37.0085   33.4271   26.8136 N   0  0  0  0  0  0  0  0  0  0  0  0
   35.8893   33.0821   26.0621 C   0  0  0  0  0  0  0  0  0  0  0  0
   35.5044   33.6508   24.8418 C   0  0  0  0  0  0  0  0  0  0  0  0
   36.2760   34.6585   24.2447 C   0  0  0  0  0  0  0  0  0  0  0  0
   36.0577   35.2194   23.1810 O   0  0  0  0  0  0  0  0  0  0  0  0
   34.3136   33.0292   24.4010 C   0  0  0  0  0  0  0  0  0  0  0  0
   33.9818   32.0908   25.3658 C   0  0  0  0  0  0  0  0  0  0  0  0
   34.9523   32.1225   26.3989 N   0  0  0  0  0  0  0  0  0  0  0  0
   33.6321   33.3643   23.1211 C   0  0  0  0  0  0  0  0  0  0  0  0
   32.4482   32.5146   22.9191 N   0  0  0  0  0  0  0  0  0  0  0  0
  1  2  1  0  0  0  0
  1  7  1  0  0  0  0
  2  3  1  0  0  0  0
  2  4  2  0  0  0  0
  4  5  1  0  0  0  0
  5  6  2  0  0  0  0
  5 11  1  0  0  0  0
  6  7  1  0  0  0  0
  6  9  1  0  0  0  0
  7  8  2  0  0  0  0
  9 10  2  0  0  0  0
  9 12  1  0  0  0  0
 10 11  1  0  0  0  0
 12 13  1  0  0  0  0
M  END
>  <CHROM.1>
177.87635272,35.71256646,33.67605675,25.00005503,-0.21602489,-0.56916678
-0.96431244

>  <Name>
ligand

>  <RI>
0

>  <Rbt.Current_Directory>
/home/itssahil/PROJECTS/Mol_Feturizer/Test_systems_manuscript/rnas/3q50

>  <Rbt.Executable>
rbdock ($Id: //depot/dev/client3/rdock/2013.1/src/exe/rbdock.cxx#4 $)

>  <Rbt.Library>
libRbt.so (2013.1, Build901 2013/11/27)

>  <Rbt.Parameter_File>
/export/apps/rDock/src/rDock_2013.1_src/data/scripts/dock_solv.prm

>  <Rbt.Receptor>
prm/pocket_docking_2.prm

>  <SCORE>
-17.3089

>  <SCORE.INTER>
-17.3316

>  <SCORE.INTER.CONST>
1

>  <SCORE.INTER.POLAR>
0

>  <SCORE.INTER.ROT>
1

>  <SCORE.INTER.SOLV>
18.3949

>  <SCORE.INTER.VDW>
-21.9527

>  <SCORE.INTER.norm>
-1.3332

>  <SCORE.INTRA>
0.0227348

>  <SCORE.INTRA.DIHEDRAL>
0.0313348

>  <SCORE.INTRA.DIHEDRAL.0>
1.65305

>  <SCORE.INTRA.POLAR>
0

>  <SCORE.INTRA.POLAR.0>
0

>  <SCORE.INTRA.REPUL>
0

>  <SCORE.INTRA.REPUL.0>
0

>  <SCORE.INTRA.SOLV>
0.00175419

>  <SCORE.INTRA.SOLV.lig_0>
-46.9527

>  <SCORE.INTRA.VDW>
0.00619033

>  <SCORE.INTRA.VDW.0>
-0.177978

>  <SCORE.INTRA.norm>
0.00174883

>  <SCORE.RESTR>
0

>  <SCORE.RESTR.CAVITY>
0

>  <SCORE.RESTR.norm>
0

>  <SCORE.SYSTEM>
0

>  <SCORE.SYSTEM.CONST>
0

>  <SCORE.SYSTEM.DIHEDRAL>
0

>  <SCORE.SYSTEM.SOLV>
0

>  <SCORE.SYSTEM.norm>
0

>  <SCORE.heavy>
13

>  <SCORE.norm>
-1.33145

>  <RMSD>
4.220

$$$$
ligand
 OpenBabel02271912143D
libRbt.so/2013.1/901 2013/11/27
 13 14  0  0  0  0  0  0  0  0999 V2000
   37.4347   35.0222   24.9911 N   0  0  0  0  0  0  0  0  0  0  0  0
   37.7300   34.4064   26.2211 C   0  0  0  0  0  0  0  0  0  0  0  0
   38.8919   34.8198   26.8592 N   0  0  0  0  0  0  0  0  0  0  0  0
   36.9986   33.4315   26.8129 N   0  0  0  0  0  0  0  0  0  0  0  0
   35.8799   33.0880   26.0600 C   0  0  0  0  0  0  0  0  0  0  0  0
   35.4988   33.6554   24.8379 C   0  0  0  0  0  0  0  0  0  0  0  0
   36.2742   34.6598   24.2404 C   0  0  0  0  0  0  0  0  0  0  0  0
   36.0593   35.2193   23.1751 O   0  0  0  0  0  0  0  0  0  0  0  0
   34.3072   33.0361   24.3960 C   0  0  0  0  0  0  0  0  0  0  0  0
   33.9711   32.1003   25.3620 C   0  0  0  0  0  0  0  0  0  0  0  0
   34.9398   32.1315   26.3969 N   0  0  0  0  0  0  0  0  0  0  0  0
   33.6290   33.3705   23.1143 C   0  0  0  0  0  0  0  0  0  0  0  0
   32.4545   32.5101   22.9022 N   0  0  0  0  0  0  0  0  0  0  0  0
  1  2  1  0  0  0  0
  1  7  1  0  0  0  0
  2  3  1  0  0  0  0
  2  4  2  0  0  0  0
  4  5  1  0  0  0  0
  5  6  2  0  0  0  0
  5 11  1  0  0  0  0
  6  7  1  0  0  0  0
  6  9  1  0  0  0  0
  7  8  2  0  0  0  0
  9 10  2  0  0  0  0
  9 12  1  0  0  0  0
 10 11  1  0  0  0  0
 12 13  1  0  0  0  0
M  END
>  <CHROM.1>
177.04131191,35.70764854,33.67925997,24.99572965,-0.21996713,-0.56941321
-0.96873900

>  <Name>
ligand

>  <RI>
0

>  <Rbt.Current_Directory>
/home/itssahil/PROJECTS/Mol_Feturizer/Test_systems_manuscript/rnas/3q50

>  <Rbt.Executable>
rbdock ($Id: //depot/dev/client3/rdock/2013.1/src/exe/rbdock.cxx#4 $)

>  <Rbt.Library>
libRbt.so (2013.1, Build901 2013/11/27)

>  <Rbt.Parameter_File>
/export/apps/rDock/src/rDock_2013.1_src/data/scripts/dock_solv.prm

>  <Rbt.Receptor>
prm/pocket_docking_3.prm

>  <SCORE>
-17.3103

>  <SCORE.INTER>
-17.3341

>  <SCORE.INTER.CONST>
1

>  <SCORE.INTER.POLAR>
0

>  <SCORE.INTER.ROT>
1

>  <SCORE.INTER.SOLV>
18.419

>  <SCORE.INTER.VDW>
-21.9624

>  <SCORE.INTER.norm>
-1.33339

>  <SCORE.INTRA>
0.0238388

>  <SCORE.INTRA.DIHEDRAL>
0.0337977

>  <SCORE.INTRA.DIHEDRAL.0>
1.65305

>  <SCORE.INTRA.POLAR>
0

>  <SCORE.INTRA.POLAR.0>
0

>  <SCORE.INTRA.REPUL>
0

>  <SCORE.INTRA.REPUL.0>
0

>  <SCORE.INTRA.SOLV>
0.00184075

>  <SCORE.INTRA.SOLV.lig_0>
-46.9527

>  <SCORE.INTRA.VDW>
0.00601957

>  <SCORE.INTRA.VDW.0>
-0.177978

>  <SCORE.INTRA.norm>
0.00183375

>  <SCORE.RESTR>
0

>  <SCORE.RESTR.CAVITY>
0

>  <SCORE.RESTR.norm>
0

>  <SCORE.SYSTEM>
0

>  <SCORE.SYSTEM.CONST>
0

>  <SCORE.SYSTEM.DIHEDRAL>
0

>  <SCORE.SYSTEM.SOLV>
0

>  <SCORE.SYSTEM.norm>
0

>  <SCORE.heavy>
13

>  <SCORE.norm>
-1.33156

>  <RMSD>
4.220

$$$$
ligand
 OpenBabel02271912143D
libRbt.so/2013.1/901 2013/11/27
 13 14  0  0  0  0  0  0  0  0999 V2000
   37.4384   35.0230   24.9873 N   0  0  0  0  0  0  0  0  0  0  0  0
   37.7350   34.4081   26.2175 C   0  0  0  0  0  0  0  0  0  0  0  0
   38.8974   34.8222   26.8542 N   0  0  0  0  0  0  0  0  0  0  0  0
   37.0044   33.4334   26.8107 N   0  0  0  0  0  0  0  0  0  0  0  0
   35.8850   33.0892   26.0590 C   0  0  0  0  0  0  0  0  0  0  0  0
   35.5026   33.6557   24.8369 C   0  0  0  0  0  0  0  0  0  0  0  0
   36.2772   34.6599   24.2379 C   0  0  0  0  0  0  0  0  0  0  0  0
   36.0612   35.2186   23.1725 O   0  0  0  0  0  0  0  0  0  0  0  0
   34.3107   33.0359   24.3966 C   0  0  0  0  0  0  0  0  0  0  0  0
   33.9757   32.1008   25.3635 C   0  0  0  0  0  0  0  0  0  0  0  0
   34.9453   32.1328   26.3974 N   0  0  0  0  0  0  0  0  0  0  0  0
   33.6312   33.3693   23.1152 C   0  0  0  0  0  0  0  0  0  0  0  0
   32.4361   32.5333   22.9222 N   0  0  0  0  0  0  0  0  0  0  0  0
  1  2  1  0  0  0  0
  1  7  1  0  0  0  0
  2  3  1  0  0  0  0
  2  4  2  0  0  0  0
  4  5  1  0  0  0  0
  5  6  2  0  0  0  0
  5 11  1  0  0  0  0
  6  7  1  0  0  0  0
  6  9  1  0  0  0  0
  7  8  2  0  0  0  0
  9 10  2  0  0  0  0
  9 12  1  0  0  0  0
 10 11  1  0  0  0  0
 12 13  1  0  0  0  0
M  END
>  <CHROM.1>
178.56730166,35.70991476,33.68176266,24.99592519,-0.21828313,-0.56653142
-0.96778614

>  <Name>
ligand

>  <RI>
0

>  <Rbt.Current_Directory>
/home/itssahil/PROJECTS/Mol_Feturizer/Test_systems_manuscript/rnas/3q50

>  <Rbt.Executable>
rbdock ($Id: //depot/dev/client3/rdock/2013.1/src/exe/rbdock.cxx#4 $)

>  <Rbt.Library>
libRbt.so (2013.1, Build901 2013/11/27)

>  <Rbt.Parameter_File>
/export/apps/rDock/src/rDock_2013.1_src/data/scripts/dock_solv.prm

>  <Rbt.Receptor>
prm/pocket_docking_3.prm

>  <SCORE>
-17.3094

>  <SCORE.INTER>
-17.3311

>  <SCORE.INTER.CONST>
1

>  <SCORE.INTER.POLAR>
0

>  <SCORE.INTER.ROT>
1

>  <SCORE.INTER.SOLV>
18.4172

>  <SCORE.INTER.VDW>
-21.9598

>  <SCORE.INTER.norm>
-1.33316

>  <SCORE.INTRA>
0.0217454

>  <SCORE.INTRA.DIHEDRAL>
0.0292904

>  <SCORE.INTRA.DIHEDRAL.0>
1.65305

>  <SCORE.INTRA.POLAR>
0

>  <SCORE.INTRA.POLAR.0>
0

>  <SCORE.INTRA.REPUL>
0

>  <SCORE.INTRA.REPUL.0>
0

>  <SCORE.INTRA.SOLV>
0.00167741

>  <SCORE.INTRA.SOLV.lig_0>
-46.9527

>  <SCORE.INTRA.VDW>
0.00626157

>  <SCORE.INTRA.VDW.0>
-0.177978

>  <SCORE.INTRA.norm>
0.00167273

>  <SCORE.RESTR>
0

>  <SCORE.RESTR.CAVITY>
0

>  <SCORE.RESTR.norm>
0

>  <SCORE.SYSTEM>
0

>  <SCORE.SYSTEM.CONST>
0

>  <SCORE.SYSTEM.DIHEDRAL>
0

>  <SCORE.SYSTEM.SOLV>
0

>  <SCORE.SYSTEM.norm>
0

>  <SCORE.heavy>
13

>  <SCORE.norm>
-1.33149

>  <RMSD>
4.220

$$$$
ligand
 OpenBabel02271912143D
libRbt.so/2013.1/901 2013/11/27
 13 14  0  0  0  0  0  0  0  0999 V2000
   37.4270   35.0397   24.9960 N   0  0  0  0  0  0  0  0  0  0  0  0
   37.7215   34.4233   26.2259 C   0  0  0  0  0  0  0  0  0  0  0  0
   38.8794   34.8412   26.8682 N   0  0  0  0  0  0  0  0  0  0  0  0
   36.9929   33.4440   26.8139 N   0  0  0  0  0  0  0  0  0  0  0  0
   35.8781   33.0965   26.0569 C   0  0  0  0  0  0  0  0  0  0  0  0
   35.4981   33.6640   24.8346 C   0  0  0  0  0  0  0  0  0  0  0  0
   36.2705   34.6731   24.2411 C   0  0  0  0  0  0  0  0  0  0  0  0
   36.0563   35.2333   23.1761 O   0  0  0  0  0  0  0  0  0  0  0  0
   34.3107   33.0399   24.3881 C   0  0  0  0  0  0  0  0  0  0  0  0
   33.9761   32.1010   25.3515 C   0  0  0  0  0  0  0  0  0  0  0  0
   34.9414   32.1350   26.3894 N   0  0  0  0  0  0  0  0  0  0  0  0
   33.6349   33.3731   23.1048 C   0  0  0  0  0  0  0  0  0  0  0  0
   32.4746   32.4969   22.8799 N   0  0  0  0  0  0  0  0  0  0  0  0
  1  2  1  0  0  0  0
  1  7  1  0  0  0  0
  2  3  1  0  0  0  0
  2  4  2  0  0  0  0
  4  5  1  0  0  0  0
  5  6  2  0  0  0  0
  5 11  1  0  0  0  0
  6  7  1  0  0  0  0
  6  9  1  0  0  0  0
  7  8  2  0  0  0  0
  9 10  2  0  0  0  0
  9 12  1  0  0  0  0
 10 11  1  0  0  0  0
 12 13  1  0  0  0  0
M  END
>  <CHROM.1>
176.36509006,35.70707273,33.68778843,24.99249904,-0.22011925,-0.57614085
-0.96751318

>  <Name>
ligand

>  <RI>
0

>  <Rbt.Current_Directory>
/home/itssahil/PROJECTS/Mol_Feturizer/Test_systems_manuscript/rnas/3q50

>  <Rbt.Executable>
rbdock ($Id: //depot/dev/client3/rdock/2013.1/src/exe/rbdock.cxx#4 $)

>  <Rbt.Library>
libRbt.so (2013.1, Build901 2013/11/27)

>  <Rbt.Parameter_File>
/export/apps/rDock/src/rDock_2013.1_src/data/scripts/dock_solv.prm

>  <Rbt.Receptor>
prm/pocket_docking_5.prm

>  <SCORE>
-17.2704

>  <SCORE.INTER>
-17.2951

>  <SCORE.INTER.CONST>
1

>  <SCORE.INTER.POLAR>
0

>  <SCORE.INTER.ROT>
1

>  <SCORE.INTER.SOLV>
18.44

>  <SCORE.INTER.VDW>
-21.9434

>  <SCORE.INTER.norm>
-1.33039

>  <SCORE.INTRA>
0.0246579

>  <SCORE.INTRA.DIHEDRAL>
0.0357828

>  <SCORE.INTRA.DIHEDRAL.0>
1.65305

>  <SCORE.INTRA.POLAR>
0

>  <SCORE.INTRA.POLAR.0>
0

>  <SCORE.INTRA.REPUL>
0

>  <SCORE.INTRA.REPUL.0>
0

>  <SCORE.INTRA.SOLV>
0.00190584

>  <SCORE.INTRA.SOLV.lig_0>
-46.9527

>  <SCORE.INTRA.VDW>
0.00581355

>  <SCORE.INTRA.VDW.0>
-0.177978

>  <SCORE.INTRA.norm>
0.00189676

>  <SCORE.RESTR>
0

>  <SCORE.RESTR.CAVITY>
0

>  <SCORE.RESTR.norm>
0

>  <SCORE.SYSTEM>
0

>  <SCORE.SYSTEM.CONST>
0

>  <SCORE.SYSTEM.DIHEDRAL>
0

>  <SCORE.SYSTEM.SOLV>
0

>  <SCORE.SYSTEM.norm>
0

>  <SCORE.heavy>
13

>  <SCORE.norm>
-1.32849

>  <RMSD>
4.220

$$$$
ligand
 OpenBabel02271912143D
libRbt.so/2013.1/901 2013/11/27
 13 14  0  0  0  0  0  0  0  0999 V2000
   37.4202   35.0254   24.9947 N   0  0  0  0  0  0  0  0  0  0  0  0
   37.7099   34.4125   26.2275 C   0  0  0  0  0  0  0  0  0  0  0  0
   38.8678   34.8287   26.8709 N   0  0  0  0  0  0  0  0  0  0  0  0
   36.9768   33.4376   26.8173 N   0  0  0  0  0  0  0  0  0  0  0  0
   35.8625   33.0911   26.0591 C   0  0  0  0  0  0  0  0  0  0  0  0
   35.4871   33.6556   24.8339 C   0  0  0  0  0  0  0  0  0  0  0  0
   36.2643   34.6600   24.2385 C   0  0  0  0  0  0  0  0  0  0  0  0
   36.0542   35.2171   23.1711 O   0  0  0  0  0  0  0  0  0  0  0  0
   34.2987   33.0338   24.3869 C   0  0  0  0  0  0  0  0  0  0  0  0
   33.9589   32.0994   25.3529 C   0  0  0  0  0  0  0  0  0  0  0  0
   34.9220   32.1339   26.3928 N   0  0  0  0  0  0  0  0  0  0  0  0
   33.6269   33.3647   23.1009 C   0  0  0  0  0  0  0  0  0  0  0  0
   32.4409   32.5186   22.8957 N   0  0  0  0  0  0  0  0  0  0  0  0
  1  2  1  0  0  0  0
  1  7  1  0  0  0  0
  2  3  1  0  0  0  0
  2  4  2  0  0  0  0
  4  5  1  0  0  0  0
  5  6  2  0  0  0  0
  5 11  1  0  0  0  0
  6  7  1  0  0  0  0
  6  9  1  0  0  0  0
  7  8  2  0  0  0  0
  9 10  2  0  0  0  0
  9 12  1  0  0  0  0
 10 11  1  0  0  0  0
 12 13  1  0  0  0  0
M  END
>  <CHROM.1>
178.05406472,35.69397272,33.68141744,24.99370884,-0.22378782,-0.57191967
-0.97224862

>  <Name>
ligand

>  <RI>
0

>  <Rbt.Current_Directory>
/home/itssahil/PROJECTS/Mol_Feturizer/Test_systems_manuscript/rnas/3q50

>  <Rbt.Executable>
rbdock ($Id: //depot/dev/client3/rdock/2013.1/src/exe/rbdock.cxx#4 $)

>  <Rbt.Library>
libRbt.so (2013.1, Build901 2013/11/27)

>  <Rbt.Parameter_File>
/export/apps/rDock/src/rDock_2013.1_src/data/scripts/dock_solv.prm

>  <Rbt.Receptor>
prm/pocket_docking_5.prm

>  <SCORE>
-17.2718

>  <SCORE.INTER>
-17.2943

>  <SCORE.INTER.CONST>
1

>  <SCORE.INTER.POLAR>
0

>  <SCORE.INTER.ROT>
1

>  <SCORE.INTER.SOLV>
18.5033

>  <SCORE.INTER.VDW>
-21.964

>  <SCORE.INTER.norm>
-1.33033

>  <SCORE.INTRA>
0.0224869

>  <SCORE.INTRA.DIHEDRAL>
0.0308094

>  <SCORE.INTRA.DIHEDRAL.0>
1.65305

>  <SCORE.INTRA.POLAR>
0

>  <SCORE.INTRA.POLAR.0>
0

>  <SCORE.INTRA.REPUL>
0

>  <SCORE.INTRA.REPUL.0>
0

>  <SCORE.INTRA.SOLV>
0.00173489

>  <SCORE.INTRA.SOLV.lig_0>
-46.9527

>  <SCORE.INTRA.VDW>
0.00621472

>  <SCORE.INTRA.VDW.0>
-0.177978

>  <SCORE.INTRA.norm>
0.00172976

>  <SCORE.RESTR>
0

>  <SCORE.RESTR.CAVITY>
0

>  <SCORE.RESTR.norm>
0

>  <SCORE.SYSTEM>
0

>  <SCORE.SYSTEM.CONST>
0

>  <SCORE.SYSTEM.DIHEDRAL>
0

>  <SCORE.SYSTEM.SOLV>
0

>  <SCORE.SYSTEM.norm>
0

>  <SCORE.heavy>
13

>  <SCORE.norm>
-1.3286

>  <RMSD>
4.220

$$$$
ligand
 OpenBabel02271912143D
libRbt.so/2013.1/901 2013/11/27
 13 14  0  0  0  0  0  0  0  0999 V2000
   37.4324   35.0189   24.9892 N   0  0  0  0  0  0  0  0  0  0  0  0
   37.7271   34.4036   26.2196 C   0  0  0  0  0  0  0  0  0  0  0  0
   38.8879   34.8182   26.8589 N   0  0  0  0  0  0  0  0  0  0  0  0
   36.9959   33.4281   26.8108 N   0  0  0  0  0  0  0  0  0  0  0  0
   35.8783   33.0834   26.0567 C   0  0  0  0  0  0  0  0  0  0  0  0
   35.4980   33.6502   24.8341 C   0  0  0  0  0  0  0  0  0  0  0  0
   36.2731   34.6553   24.2372 C   0  0  0  0  0  0  0  0  0  0  0  0
   36.0588   35.2144   23.1717 O   0  0  0  0  0  0  0  0  0  0  0  0
   34.3074   33.0298   24.3911 C   0  0  0  0  0  0  0  0  0  0  0  0
   33.9712   32.0939   25.3569 C   0  0  0  0  0  0  0  0  0  0  0  0
   34.9387   32.1261   26.3927 N   0  0  0  0  0  0  0  0  0  0  0  0
   33.6303   33.3633   23.1085 C   0  0  0  0  0  0  0  0  0  0  0  0
   32.5095   32.4451   22.8528 N   0  0  0  0  0  0  0  0  0  0  0  0
  1  2  1  0  0  0  0
  1  7  1  0  0  0  0
  2  3  1  0  0  0  0
  2  4  2  0  0  0  0
  4  5  1  0  0  0  0
  5  6  2  0  0  0  0
  5 11  1  0  0  0  0
  6  7  1  0  0  0  0
  6  9  1  0  0  0  0
  7  8  2  0  0  0  0
  9 10  2  0  0  0  0
  9 12  1  0  0  0  0
 10 11  1  0  0  0  0
 12 13  1  0  0  0  0
M  END
>  <CHROM.1>
173.36227719,35.71094950,33.66974241,24.98870318,-0.22228193,-0.57677742
-0.97178918

>  <Name>
ligand

>  <RI>
0

>  <Rbt.Current_Directory>
/home/itssahil/PROJECTS/Mol_Feturizer/Test_systems_manuscript/rnas/3q50

>  <Rbt.Executable>
rbdock ($Id: //depot/dev/client3/rdock/2013.1/src/exe/rbdock.cxx#4 $)

>  <Rbt.Library>
libRbt.so (2013.1, Build901 2013/11/27)

>  <Rbt.Parameter_File>
/export/apps/rDock/src/rDock_2013.1_src/data/scripts/dock_solv.prm

>  <Rbt.Receptor>
prm/pocket_docking_5.prm

>  <SCORE>
-17.3279

>  <SCORE.INTER>
-17.3553

>  <SCORE.INTER.CONST>
1

>  <SCORE.INTER.POLAR>
0

>  <SCORE.INTER.ROT>
1

>  <SCORE.INTER.SOLV>
18.418

>  <SCORE.INTER.VDW>
-21.9762

>  <SCORE.INTER.norm>
-1.33503

>  <SCORE.INTRA>
0.0274598

>  <SCORE.INTRA.DIHEDRAL>
0.04443

>  <SCORE.INTRA.DIHEDRAL.0>
1.65305

>  <SCORE.INTRA.POLAR>
0

>  <SCORE.INTRA.POLAR.0>
0

>  <SCORE.INTRA.REPUL>
0

>  <SCORE.INTRA.REPUL.0>
0

>  <SCORE.INTRA.SOLV>
0.00214103

>  <SCORE.INTRA.SOLV.lig_0>
-46.9527

>  <SCORE.INTRA.VDW>
0.00417427

>  <SCORE.INTRA.VDW.0>
-0.177978

>  <SCORE.INTRA.norm>
0.00211229

>  <SCORE.RESTR>
0

>  <SCORE.RESTR.CAVITY>
0

>  <SCORE.RESTR.norm>
0

>  <SCORE.SYSTEM>
0

>  <SCORE.SYSTEM.CONST>
0

>  <SCORE.SYSTEM.DIHEDRAL>
0

>  <SCORE.SYSTEM.SOLV>
0

>  <SCORE.SYSTEM.norm>
0

>  <SCORE.heavy>
13

>  <SCORE.norm>
-1.33291

>  <RMSD>
4.220

$$$$
ligand
 OpenBabel02271912143D
libRbt.so/2013.1/901 2013/11/27
 13 14  0  0  0  0  0  0  0  0999 V2000
   37.4385   35.0223   24.9971 N   0  0  0  0  0  0  0  0  0  0  0  0
   37.7359   34.4025   26.2246 C   0  0  0  0  0  0  0  0  0  0  0  0
   38.8988   34.8139   26.8622 N   0  0  0  0  0  0  0  0  0  0  0  0
   37.0055   33.4256   26.8144 N   0  0  0  0  0  0  0  0  0  0  0  0
   35.8856   33.0845   26.0621 C   0  0  0  0  0  0  0  0  0  0  0  0
   35.5025   33.6559   24.8425 C   0  0  0  0  0  0  0  0  0  0  0  0
   36.2769   34.6624   24.2470 C   0  0  0  0  0  0  0  0  0  0  0  0
   36.0602   35.2253   23.1840 O   0  0  0  0  0  0  0  0  0  0  0  0
   34.3102   33.0380   24.4005 C   0  0  0  0  0  0  0  0  0  0  0  0
   33.9758   32.0990   25.3640 C   0  0  0  0  0  0  0  0  0  0  0  0
   34.9461   32.1268   26.3973 N   0  0  0  0  0  0  0  0  0  0  0  0
   33.6299   33.3765   23.1210 C   0  0  0  0  0  0  0  0  0  0  0  0
   32.4394   32.5355   22.9213 N   0  0  0  0  0  0  0  0  0  0  0  0
  1  2  1  0  0  0  0
  1  7  1  0  0  0  0
  2  3  1  0  0  0  0
  2  4  2  0  0  0  0
  4  5  1  0  0  0  0
  5  6  2  0  0  0  0
  5 11  1  0  0  0  0
  6  7  1  0  0  0  0
  6  9  1  0  0  0  0
  7  8  2  0  0  0  0
  9 10  2  0  0  0  0
  9 12  1  0  0  0  0
 10 11  1  0  0  0  0
 12 13  1  0  0  0  0
M  END
>  <CHROM.1>
178.20621232,35.71032529,33.68079936,25.00117235,-0.21786440,-0.56665195
-0.96376282

>  <Name>
ligand

>  <RI>
0

>  <Rbt.Current_Directory>
/home/itssahil/PROJECTS/Mol_Feturizer/Test_systems_manuscript/rnas/3q50

>  <Rbt.Executable>
rbdock ($Id: //depot/dev/client3/rdock/2013.1/src/exe/rbdock.cxx#4 $)

>  <Rbt.Library>
libRbt.so (2013.1, Build901 2013/11/27)

>  <Rbt.Parameter_File>
/export/apps/rDock/src/rDock_2013.1_src/data/scripts/dock_solv.prm

>  <Rbt.Receptor>
prm/pocket_docking_5.prm

>  <SCORE>
-17.3128

>  <SCORE.INTER>
-17.335

>  <SCORE.INTER.CONST>
1

>  <SCORE.INTER.POLAR>
0

>  <SCORE.INTER.ROT>
1

>  <SCORE.INTER.SOLV>
18.3872

>  <SCORE.INTER.VDW>
-21.9524

>  <SCORE.INTER.norm>
-1.33346

>  <SCORE.INTRA>
0.022271

>  <SCORE.INTRA.DIHEDRAL>
0.0303593

>  <SCORE.INTRA.DIHEDRAL.0>
1.65305

>  <SCORE.INTRA.POLAR>
0

>  <SCORE.INTRA.POLAR.0>
0

>  <SCORE.INTRA.REPUL>
0

>  <SCORE.INTRA.REPUL.0>
0

>  <SCORE.INTRA.SOLV>
0.00171812

>  <SCORE.INTRA.SOLV.lig_0>
-46.9527

>  <SCORE.INTRA.VDW>
0.00623226

>  <SCORE.INTRA.VDW.0>
-0.177978

>  <SCORE.INTRA.norm>
0.00171315

>  <SCORE.RESTR>
0

>  <SCORE.RESTR.CAVITY>
0

>  <SCORE.RESTR.norm>
0

>  <SCORE.SYSTEM>
0

>  <SCORE.SYSTEM.CONST>
0

>  <SCORE.SYSTEM.DIHEDRAL>
0

>  <SCORE.SYSTEM.SOLV>
0

>  <SCORE.SYSTEM.norm>
0

>  <SCORE.heavy>
13

>  <SCORE.norm>
-1.33175

>  <RMSD>
4.220

$$$$
ligand
 OpenBabel02271912143D
libRbt.so/2013.1/901 2013/11/27
 13 14  0  0  0  0  0  0  0  0999 V2000
   37.4384   35.0247   24.9940 N   0  0  0  0  0  0  0  0  0  0  0  0
   37.7331   34.4054   26.2224 C   0  0  0  0  0  0  0  0  0  0  0  0
   38.8951   34.8162   26.8618 N   0  0  0  0  0  0  0  0  0  0  0  0
   37.0008   33.4294   26.8114 N   0  0  0  0  0  0  0  0  0  0  0  0
   35.8820   33.0888   26.0572 C   0  0  0  0  0  0  0  0  0  0  0  0
   35.5016   33.6598   24.8366 C   0  0  0  0  0  0  0  0  0  0  0  0
   36.2778   34.6653   24.2420 C   0  0  0  0  0  0  0  0  0  0  0  0
   36.0636   35.2278   23.1782 O   0  0  0  0  0  0  0  0  0  0  0  0
   34.3096   33.0426   24.3928 C   0  0  0  0  0  0  0  0  0  0  0  0
   33.9726   32.1045   25.3562 C   0  0  0  0  0  0  0  0  0  0  0  0
   34.9410   32.1321   26.3913 N   0  0  0  0  0  0  0  0  0  0  0  0
   33.6319   33.3810   23.1118 C   0  0  0  0  0  0  0  0  0  0  0  0
   32.4628   32.5152   22.8922 N   0  0  0  0  0  0  0  0  0  0  0  0
  1  2  1  0  0  0  0
  1  7  1  0  0  0  0
  2  3  1  0  0  0  0
  2  4  2  0  0  0  0
  4  5  1  0  0  0  0
  5  6  2  0  0  0  0
  5 11  1  0  0  0  0
  6  7  1  0  0  0  0
  6  9  1  0  0  0  0
  7  8  2  0  0  0  0
  9 10  2  0  0  0  0
  9 12  1  0  0  0  0
 10 11  1  0  0  0  0
 12 13  1  0  0  0  0
M  END
>  <CHROM.1>
176.61278075,35.71087886,33.68254588,24.99417741,-0.22088219,-0.56961836
-0.96671976

>  <Name>
ligand

>  <RI>
0

>  <Rbt.Current_Directory>
/home/itssahil/PROJECTS/Mol_Feturizer/Test_systems_manuscript/rnas/3q50

>  <Rbt.Executable>
rbdock ($Id: //depot/dev/client3/rdock/2013.1/src/exe/rbdock.cxx#4 $)

>  <Rbt.Library>
libRbt.so (2013.1, Build901 2013/11/27)

>  <Rbt.Parameter_File>
/export/apps/rDock/src/rDock_2013.1_src/data/scripts/dock_solv.prm

>  <Rbt.Receptor>
prm/pocket_docking_5.prm

>  <SCORE>
-17.3093

>  <SCORE.INTER>
-17.3337

>  <SCORE.INTER.CONST>
1

>  <SCORE.INTER.POLAR>
0

>  <SCORE.INTER.ROT>
1

>  <SCORE.INTER.SOLV>
18.3914

>  <SCORE.INTER.VDW>
-21.9529

>  <SCORE.INTER.norm>
-1.33336

>  <SCORE.INTRA>
0.0243657

>  <SCORE.INTRA.DIHEDRAL>
0.0350569

>  <SCORE.INTRA.DIHEDRAL.0>
1.65305

>  <SCORE.INTRA.POLAR>
0

>  <SCORE.INTRA.POLAR.0>
0

>  <SCORE.INTRA.REPUL>
0

>  <SCORE.INTRA.REPUL.0>
0

>  <SCORE.INTRA.SOLV>
0.00188252

>  <SCORE.INTRA.SOLV.lig_0>
-46.9527

>  <SCORE.INTRA.VDW>
0.00589603

>  <SCORE.INTRA.VDW.0>
-0.177978

>  <SCORE.INTRA.norm>
0.00187429

>  <SCORE.RESTR>
0

>  <SCORE.RESTR.CAVITY>
0

>  <SCORE.RESTR.norm>
0

>  <SCORE.SYSTEM>
0

>  <SCORE.SYSTEM.CONST>
0

>  <SCORE.SYSTEM.DIHEDRAL>
0

>  <SCORE.SYSTEM.SOLV>
0

>  <SCORE.SYSTEM.norm>
0

>  <SCORE.heavy>
13

>  <SCORE.norm>
-1.33148

>  <RMSD>
4.220

$$$$
ligand
 OpenBabel02271912143D
libRbt.so/2013.1/901 2013/11/27
 13 14  0  0  0  0  0  0  0  0999 V2000
   37.4396   35.0248   24.9914 N   0  0  0  0  0  0  0  0  0  0  0  0
   37.7354   34.4082   26.2209 C   0  0  0  0  0  0  0  0  0  0  0  0
   38.8973   34.8214   26.8589 N   0  0  0  0  0  0  0  0  0  0  0  0
   37.0043   33.4327   26.8121 N   0  0  0  0  0  0  0  0  0  0  0  0
   35.8855   33.0895   26.0592 C   0  0  0  0  0  0  0  0  0  0  0  0
   35.5040   33.6577   24.8376 C   0  0  0  0  0  0  0  0  0  0  0  0
   36.2790   34.6628   24.2406 C   0  0  0  0  0  0  0  0  0  0  0  0
   36.0637   35.2230   23.1758 O   0  0  0  0  0  0  0  0  0  0  0  0
   34.3124   33.0385   24.3956 C   0  0  0  0  0  0  0  0  0  0  0  0
   33.9768   32.1020   25.3610 C   0  0  0  0  0  0  0  0  0  0  0  0
   34.9456   32.1326   26.3956 N   0  0  0  0  0  0  0  0  0  0  0  0
   33.6338   33.3737   23.1143 C   0  0  0  0  0  0  0  0  0  0  0  0
   32.4422   32.5337   22.9163 N   0  0  0  0  0  0  0  0  0  0  0  0
  1  2  1  0  0  0  0
  1  7  1  0  0  0  0
  2  3  1  0  0  0  0
  2  4  2  0  0  0  0
  4  5  1  0  0  0  0
  5  6  2  0  0  0  0
  5 11  1  0  0  0  0
  6  7  1  0  0  0  0
  6  9  1  0  0  0  0
  7  8  2  0  0  0  0
  9 10  2  0  0  0  0
  9 12  1  0  0  0  0
 10 11  1  0  0  0  0
 12 13  1  0  0  0  0
M  END
>  <CHROM.1>
178.31436388,35.71144060,33.68320238,24.99660434,-0.21905306,-0.56736198
-0.96691515

>  <Name>
ligand

>  <RI>
0

>  <Rbt.Current_Directory>
/home/itssahil/PROJECTS/Mol_Feturizer/Test_systems_manuscript/rnas/3q50

>  <Rbt.Executable>
rbdock ($Id: //depot/dev/client3/rdock/2013.1/src/exe/rbdock.cxx#4 $)

>  <Rbt.Library>
libRbt.so (2013.1, Build901 2013/11/27)

>  <Rbt.Parameter_File>
/export/apps/rDock/src/rDock_2013.1_src/data/scripts/dock_solv.prm

>  <Rbt.Receptor>
prm/pocket_docking_5.prm

>  <SCORE>
-17.3106

>  <SCORE.INTER>
-17.3327

>  <SCORE.INTER.CONST>
1

>  <SCORE.INTER.POLAR>
0

>  <SCORE.INTER.ROT>
1

>  <SCORE.INTER.SOLV>
18.4033

>  <SCORE.INTER.VDW>
-21.9562

>  <SCORE.INTER.norm>
-1.33329

>  <SCORE.INTRA>
0.0221155

>  <SCORE.INTRA.DIHEDRAL>
0.0300393

>  <SCORE.INTRA.DIHEDRAL.0>
1.65305

>  <SCORE.INTRA.POLAR>
0

>  <SCORE.INTRA.POLAR.0>
0

>  <SCORE.INTRA.REPUL>
0

>  <SCORE.INTRA.REPUL.0>
0

>  <SCORE.INTRA.SOLV>
0.00170606

>  <SCORE.INTRA.SOLV.lig_0>
-46.9527

>  <SCORE.INTRA.VDW>
0.00624286

>  <SCORE.INTRA.VDW.0>
-0.177978

>  <SCORE.INTRA.norm>
0.00170119

>  <SCORE.RESTR>
0

>  <SCORE.RESTR.CAVITY>
0

>  <SCORE.RESTR.norm>
0

>  <SCORE.SYSTEM>
0

>  <SCORE.SYSTEM.CONST>
0

>  <SCORE.SYSTEM.DIHEDRAL>
0

>  <SCORE.SYSTEM.SOLV>
0

>  <SCORE.SYSTEM.norm>
0

>  <SCORE.heavy>
13

>  <SCORE.norm>
-1.33158

>  <RMSD>
4.220

$$$$
ligand
 OpenBabel02271912143D
libRbt.so/2013.1/901 2013/11/27
 13 14  0  0  0  0  0  0  0  0999 V2000
   37.4407   35.0300   24.9997 N   0  0  0  0  0  0  0  0  0  0  0  0
   37.7440   34.4048   26.2230 C   0  0  0  0  0  0  0  0  0  0  0  0
   38.9066   34.8181   26.8599 N   0  0  0  0  0  0  0  0  0  0  0  0
   37.0197   33.4212   26.8091 N   0  0  0  0  0  0  0  0  0  0  0  0
   35.8995   33.0791   26.0578 C   0  0  0  0  0  0  0  0  0  0  0  0
   35.5107   33.6554   24.8423 C   0  0  0  0  0  0  0  0  0  0  0  0
   36.2788   34.6688   24.2505 C   0  0  0  0  0  0  0  0  0  0  0  0
   36.0568   35.2367   23.1912 O   0  0  0  0  0  0  0  0  0  0  0  0
   34.3201   33.0344   24.3999 C   0  0  0  0  0  0  0  0  0  0  0  0
   33.9925   32.0886   25.3590 C   0  0  0  0  0  0  0  0  0  0  0  0
   34.9653   32.1152   26.3900 N   0  0  0  0  0  0  0  0  0  0  0  0
   33.6350   33.3769   23.1240 C   0  0  0  0  0  0  0  0  0  0  0  0
   32.5121   32.4611   22.8692 N   0  0  0  0  0  0  0  0  0  0  0  0
  1  2  1  0  0  0  0
  1  7  1  0  0  0  0
  2  3  1  0  0  0  0
  2  4  2  0  0  0  0
  4  5  1  0  0  0  0
  5  6  2  0  0  0  0
  5 11  1  0  0  0  0
  6  7  1  0  0  0  0
  6  9  1  0  0  0  0
  7  8  2  0  0  0  0
  9 10  2  0  0  0  0
  9 12  1  0  0  0  0
 10 11  1  0  0  0  0
 12 13  1  0  0  0  0
M  END
>  <CHROM.1>
173.65303580,35.72396795,33.67472647,24.99627830,-0.21441534,-0.57646657
-0.95835825

>  <Name>
ligand

>  <RI>
0

>  <Rbt.Current_Directory>
/home/itssahil/PROJECTS/Mol_Feturizer/Test_systems_manuscript/rnas/3q50

>  <Rbt.Executable>
rbdock ($Id: //depot/dev/client3/rdock/2013.1/src/exe/rbdock.cxx#4 $)

>  <Rbt.Library>
libRbt.so (2013.1, Build901 2013/11/27)

>  <Rbt.Parameter_File>
/export/apps/rDock/src/rDock_2013.1_src/data/scripts/dock_solv.prm

>  <Rbt.Receptor>
prm/pocket_docking_6.prm

>  <SCORE>
-17.3339

>  <SCORE.INTER>
-17.3612

>  <SCORE.INTER.CONST>
1

>  <SCORE.INTER.POLAR>
0

>  <SCORE.INTER.ROT>
1

>  <SCORE.INTER.SOLV>
18.3239

>  <SCORE.INTER.VDW>
-21.9487

>  <SCORE.INTER.norm>
-1.33547

>  <SCORE.INTRA>
0.0272493

>  <SCORE.INTRA.DIHEDRAL>
0.0436082

>  <SCORE.INTRA.DIHEDRAL.0>
1.65305

>  <SCORE.INTRA.POLAR>
0

>  <SCORE.INTRA.POLAR.0>
0

>  <SCORE.INTRA.REPUL>
0

>  <SCORE.INTRA.REPUL.0>
0

>  <SCORE.INTRA.SOLV>
0.00212207

>  <SCORE.INTRA.SOLV.lig_0>
-46.9527

>  <SCORE.INTRA.VDW>
0.00438413

>  <SCORE.INTRA.VDW.0>
-0.177978

>  <SCORE.INTRA.norm>
0.0020961

>  <SCORE.RESTR>
0

>  <SCORE.RESTR.CAVITY>
0

>  <SCORE.RESTR.norm>
0

>  <SCORE.SYSTEM>
0

>  <SCORE.SYSTEM.CONST>
0

>  <SCORE.SYSTEM.DIHEDRAL>
0

>  <SCORE.SYSTEM.SOLV>
0

>  <SCORE.SYSTEM.norm>
0

>  <SCORE.heavy>
13

>  <SCORE.norm>
-1.33338

>  <RMSD>
4.220

$$$$
ligand
 OpenBabel02271912143D
libRbt.so/2013.1/901 2013/11/27
 13 14  0  0  0  0  0  0  0  0999 V2000
   37.4398   35.0505   24.9846 N   0  0  0  0  0  0  0  0  0  0  0  0
   37.7432   34.4263   26.2084 C   0  0  0  0  0  0  0  0  0  0  0  0
   38.9010   34.8465   26.8495 N   0  0  0  0  0  0  0  0  0  0  0  0
   37.0234   33.4375   26.7913 N   0  0  0  0  0  0  0  0  0  0  0  0
   35.9078   33.0887   26.0360 C   0  0  0  0  0  0  0  0  0  0  0  0
   35.5193   33.6635   24.8198 C   0  0  0  0  0  0  0  0  0  0  0  0
   36.2827   34.6824   24.2313 C   0  0  0  0  0  0  0  0  0  0  0  0
   36.0606   35.2496   23.1717 O   0  0  0  0  0  0  0  0  0  0  0  0
   34.3343   33.0352   24.3730 C   0  0  0  0  0  0  0  0  0  0  0  0
   34.0097   32.0864   25.3301 C   0  0  0  0  0  0  0  0  0  0  0  0
   34.9788   32.1185   26.3644 N   0  0  0  0  0  0  0  0  0  0  0  0
   33.6511   33.3743   23.0951 C   0  0  0  0  0  0  0  0  0  0  0  0
   32.4693   32.5224   22.8899 N   0  0  0  0  0  0  0  0  0  0  0  0
  1  2  1  0  0  0  0
  1  7  1  0  0  0  0
  2  3  1  0  0  0  0
  2  4  2  0  0  0  0
  4  5  1  0  0  0  0
  5  6  2  0  0  0  0
  5 11  1  0  0  0  0
  6  7  1  0  0  0  0
  6  9  1  0  0  0  0
  7  8  2  0  0  0  0
  9 10  2  0  0  0  0
  9 12  1  0  0  0  0
 10 11  1  0  0  0  0
 12 13  1  0  0  0  0
M  END
>  <CHROM.1>
178.27292115,35.72658003,33.68985225,24.97884270,-0.21092977,-0.57610993
-0.95360872

>  <Name>
ligand

>  <RI>
0

>  <Rbt.Current_Directory>
/home/itssahil/PROJECTS/Mol_Feturizer/Test_systems_manuscript/rnas/3q50

>  <Rbt.Executable>
rbdock ($Id: //depot/dev/client3/rdock/2013.1/src/exe/rbdock.cxx#4 $)

>  <Rbt.Library>
libRbt.so (2013.1, Build901 2013/11/27)

>  <Rbt.Parameter_File>
/export/apps/rDock/src/rDock_2013.1_src/data/scripts/dock_solv.prm

>  <Rbt.Receptor>
prm/pocket_docking_6.prm

>  <SCORE>
-17.2826

>  <SCORE.INTER>
-17.3047

>  <SCORE.INTER.CONST>
1

>  <SCORE.INTER.POLAR>
0

>  <SCORE.INTER.ROT>
1

>  <SCORE.INTER.SOLV>
18.3789

>  <SCORE.INTER.VDW>
-21.9295

>  <SCORE.INTER.norm>
-1.33113

>  <SCORE.INTRA>
0.0221753

>  <SCORE.INTRA.DIHEDRAL>
0.0301619

>  <SCORE.INTRA.DIHEDRAL.0>
1.65305

>  <SCORE.INTRA.POLAR>
0

>  <SCORE.INTRA.POLAR.0>
0

>  <SCORE.INTRA.REPUL>
0

>  <SCORE.INTRA.REPUL.0>
0

>  <SCORE.INTRA.SOLV>
0.00171069

>  <SCORE.INTRA.SOLV.lig_0>
-46.9527

>  <SCORE.INTRA.VDW>
0.00623898

>  <SCORE.INTRA.VDW.0>
-0.177978

>  <SCORE.INTRA.norm>
0.00170579

>  <SCORE.RESTR>
0

>  <SCORE.RESTR.CAVITY>
0

>  <SCORE.RESTR.norm>
0

>  <SCORE.SYSTEM>
0

>  <SCORE.SYSTEM.CONST>
0

>  <SCORE.SYSTEM.DIHEDRAL>
0

>  <SCORE.SYSTEM.SOLV>
0

>  <SCORE.SYSTEM.norm>
0

>  <SCORE.heavy>
13

>  <SCORE.norm>
-1.32943

>  <RMSD>
4.220

$$$$
ligand
 OpenBabel02271912143D
libRbt.so/2013.1/901 2013/11/27
 13 14  0  0  0  0  0  0  0  0999 V2000
   37.4385   35.0295   24.9883 N   0  0  0  0  0  0  0  0  0  0  0  0
   37.7348   34.4122   26.2173 C   0  0  0  0  0  0  0  0  0  0  0  0
   38.8964   34.8258   26.8558 N   0  0  0  0  0  0  0  0  0  0  0  0
   37.0046   33.4356   26.8078 N   0  0  0  0  0  0  0  0  0  0  0  0
   35.8860   33.0921   26.0546 C   0  0  0  0  0  0  0  0  0  0  0  0
   35.5040   33.6610   24.8335 C   0  0  0  0  0  0  0  0  0  0  0  0
   36.2782   34.6672   24.2373 C   0  0  0  0  0  0  0  0  0  0  0  0
   36.0624   35.2280   23.1730 O   0  0  0  0  0  0  0  0  0  0  0  0
   34.3129   33.0412   24.3910 C   0  0  0  0  0  0  0  0  0  0  0  0
   33.9781   32.1036   25.3556 C   0  0  0  0  0  0  0  0  0  0  0  0
   34.9469   32.1341   26.3903 N   0  0  0  0  0  0  0  0  0  0  0  0
   33.6340   33.3768   23.1100 C   0  0  0  0  0  0  0  0  0  0  0  0
   32.5141   32.4579   22.8533 N   0  0  0  0  0  0  0  0  0  0  0  0
  1  2  1  0  0  0  0
  1  7  1  0  0  0  0
  2  3  1  0  0  0  0
  2  4  2  0  0  0  0
  4  5  1  0  0  0  0
  5  6  2  0  0  0  0
  5 11  1  0  0  0  0
  6  7  1  0  0  0  0
  6  9  1  0  0  0  0
  7  8  2  0  0  0  0
  9 10  2  0  0  0  0
  9 12  1  0  0  0  0
 10 11  1  0  0  0  0
 12 13  1  0  0  0  0
M  END
>  <CHROM.1>
173.28968333,35.71720681,33.68016569,24.98779517,-0.22094643,-0.57622352
-0.96937941

>  <Name>
ligand

>  <RI>
0

>  <Rbt.Current_Directory>
/home/itssahil/PROJECTS/Mol_Feturizer/Test_systems_manuscript/rnas/3q50

>  <Rbt.Executable>
rbdock ($Id: //depot/dev/client3/rdock/2013.1/src/exe/rbdock.cxx#4 $)

>  <Rbt.Library>
libRbt.so (2013.1, Build901 2013/11/27)

>  <Rbt.Parameter_File>
/export/apps/rDock/src/rDock_2013.1_src/data/scripts/dock_solv.prm

>  <Rbt.Receptor>
prm/pocket_docking_7.prm

>  <SCORE>
-17.331

>  <SCORE.INTER>
-17.3585

>  <SCORE.INTER.CONST>
1

>  <SCORE.INTER.POLAR>
0

>  <SCORE.INTER.ROT>
1

>  <SCORE.INTER.SOLV>
18.3874

>  <SCORE.INTER.VDW>
-21.9681

>  <SCORE.INTER.norm>
-1.33527

>  <SCORE.INTRA>
0.0275103

>  <SCORE.INTRA.DIHEDRAL>
0.0446345

>  <SCORE.INTRA.DIHEDRAL.0>
1.65305

>  <SCORE.INTRA.POLAR>
0

>  <SCORE.INTRA.POLAR.0>
0

>  <SCORE.INTRA.REPUL>
0

>  <SCORE.INTRA.REPUL.0>
0

>  <SCORE.INTRA.SOLV>
0.00214563

>  <SCORE.INTRA.SOLV.lig_0>
-46.9527

>  <SCORE.INTRA.VDW>
0.00412019

>  <SCORE.INTRA.VDW.0>
-0.177978

>  <SCORE.INTRA.norm>
0.00211618

>  <SCORE.RESTR>
0

>  <SCORE.RESTR.CAVITY>
0

>  <SCORE.RESTR.norm>
0

>  <SCORE.SYSTEM>
0

>  <SCORE.SYSTEM.CONST>
0

>  <SCORE.SYSTEM.DIHEDRAL>
0

>  <SCORE.SYSTEM.SOLV>
0

>  <SCORE.SYSTEM.norm>
0

>  <SCORE.heavy>
13

>  <SCORE.norm>
-1.33315

>  <RMSD>
4.220

$$$$
ligand
 OpenBabel02271912143D
libRbt.so/2013.1/901 2013/11/27
 13 14  0  0  0  0  0  0  0  0999 V2000
   37.4201   35.0396   24.9801 N   0  0  0  0  0  0  0  0  0  0  0  0
   37.7146   34.4265   26.2116 C   0  0  0  0  0  0  0  0  0  0  0  0
   38.8727   34.8459   26.8527 N   0  0  0  0  0  0  0  0  0  0  0  0
   36.9859   33.4489   26.8023 N   0  0  0  0  0  0  0  0  0  0  0  0
   35.8710   33.0995   26.0464 C   0  0  0  0  0  0  0  0  0  0  0  0
   35.4910   33.6639   24.8226 C   0  0  0  0  0  0  0  0  0  0  0  0
   36.2635   34.6713   24.2263 C   0  0  0  0  0  0  0  0  0  0  0  0
   36.0493   35.2286   23.1598 O   0  0  0  0  0  0  0  0  0  0  0  0
   34.3035   33.0388   24.3779 C   0  0  0  0  0  0  0  0  0  0  0  0
   33.9688   32.1025   25.3438 C   0  0  0  0  0  0  0  0  0  0  0  0
   34.9342   32.1391   26.3815 N   0  0  0  0  0  0  0  0  0  0  0  0
   33.6275   33.3687   23.0937 C   0  0  0  0  0  0  0  0  0  0  0  0
   32.4518   32.5097   22.8839 N   0  0  0  0  0  0  0  0  0  0  0  0
  1  2  1  0  0  0  0
  1  7  1  0  0  0  0
  2  3  1  0  0  0  0
  2  4  2  0  0  0  0
  4  5  1  0  0  0  0
  5  6  2  0  0  0  0
  5 11  1  0  0  0  0
  6  7  1  0  0  0  0
  6  9  1  0  0  0  0
  7  8  2  0  0  0  0
  9 10  2  0  0  0  0
  9 12  1  0  0  0  0
 10 11  1  0  0  0  0
 12 13  1  0  0  0  0
M  END
>  <CHROM.1>
177.46950315,35.69872279,33.68947581,24.98141410,-0.21963737,-0.57413335
-0.96940818

>  <Name>
ligand

>  <RI>
0

>  <Rbt.Current_Directory>
/home/itssahil/PROJECTS/Mol_Feturizer/Test_systems_manuscript/rnas/3q50

>  <Rbt.Executable>
rbdock ($Id: //depot/dev/client3/rdock/2013.1/src/exe/rbdock.cxx#4 $)

>  <Rbt.Library>
libRbt.so (2013.1, Build901 2013/11/27)

>  <Rbt.Parameter_File>
/export/apps/rDock/src/rDock_2013.1_src/data/scripts/dock_solv.prm

>  <Rbt.Receptor>
prm/pocket_docking_7.prm

>  <SCORE>
-17.2932

>  <SCORE.INTER>
-17.3165

>  <SCORE.INTER.CONST>
1

>  <SCORE.INTER.POLAR>
0

>  <SCORE.INTER.ROT>
1

>  <SCORE.INTER.SOLV>
18.5095

>  <SCORE.INTER.VDW>
-21.9808

>  <SCORE.INTER.norm>
-1.33203

>  <SCORE.INTRA>
0.0232854

>  <SCORE.INTRA.DIHEDRAL>
0.0325361

>  <SCORE.INTRA.DIHEDRAL.0>
1.65305

>  <SCORE.INTRA.POLAR>
0

>  <SCORE.INTRA.POLAR.0>
0

>  <SCORE.INTRA.REPUL>
0

>  <SCORE.INTRA.REPUL.0>
0

>  <SCORE.INTRA.SOLV>
0.00179722

>  <SCORE.INTRA.SOLV.lig_0>
-46.9527

>  <SCORE.INTRA.VDW>
0.00611869

>  <SCORE.INTRA.VDW.0>
-0.177978

>  <SCORE.INTRA.norm>
0.00179118

>  <SCORE.RESTR>
0

>  <SCORE.RESTR.CAVITY>
0

>  <SCORE.RESTR.norm>
0

>  <SCORE.SYSTEM>
0

>  <SCORE.SYSTEM.CONST>
0

>  <SCORE.SYSTEM.DIHEDRAL>
0

>  <SCORE.SYSTEM.SOLV>
0

>  <SCORE.SYSTEM.norm>
0

>  <SCORE.heavy>
13

>  <SCORE.norm>
-1.33024

>  <RMSD>
4.220

$$$$
ligand
 OpenBabel02271912143D
libRbt.so/2013.1/901 2013/11/27
 13 14  0  0  0  0  0  0  0  0999 V2000
   37.4700   35.0970   24.9631 N   0  0  0  0  0  0  0  0  0  0  0  0
   37.8035   34.4616   26.1732 C   0  0  0  0  0  0  0  0  0  0  0  0
   38.9714   34.8834   26.7945 N   0  0  0  0  0  0  0  0  0  0  0  0
   37.1032   33.4612   26.7600 N   0  0  0  0  0  0  0  0  0  0  0  0
   35.9746   33.1124   26.0244 C   0  0  0  0  0  0  0  0  0  0  0  0
   35.5564   33.6977   24.8230 C   0  0  0  0  0  0  0  0  0  0  0  0
   36.3000   34.7286   24.2301 C   0  0  0  0  0  0  0  0  0  0  0  0
   36.0516   35.3058   23.1818 O   0  0  0  0  0  0  0  0  0  0  0  0
   34.3669   33.0655   24.3941 C   0  0  0  0  0  0  0  0  0  0  0  0
   34.0693   32.1039   25.3473 C   0  0  0  0  0  0  0  0  0  0  0  0
   35.0597   32.1318   26.3613 N   0  0  0  0  0  0  0  0  0  0  0  0
   33.6546   33.4135   23.1347 C   0  0  0  0  0  0  0  0  0  0  0  0
   32.5183   32.5072   22.9070 N   0  0  0  0  0  0  0  0  0  0  0  0
  1  2  1  0  0  0  0
  1  7  1  0  0  0  0
  2  3  1  0  0  0  0
  2  4  2  0  0  0  0
  4  5  1  0  0  0  0
  5  6  2  0  0  0  0
  5 11  1  0  0  0  0
  6  7  1  0  0  0  0
  6  9  1  0  0  0  0
  7  8  2  0  0  0  0
  9 10  2  0  0  0  0
  9 12  1  0  0  0  0
 10 11  1  0  0  0  0
 12 13  1  0  0  0  0
M  END
>  <CHROM.1>
175.14718790,35.77039709,33.71988949,24.97491199,-0.18694551,-0.57483389
-0.93083835

>  <Name>
ligand

>  <RI>
0

>  <Rbt.Current_Directory>
/home/itssahil/PROJECTS/Mol_Feturizer/Test_systems_manuscript/rnas/3q50

>  <Rbt.Executable>
rbdock ($Id: //depot/dev/client3/rdock/2013.1/src/exe/rbdock.cxx#4 $)

>  <Rbt.Library>
libRbt.so (2013.1, Build901 2013/11/27)

>  <Rbt.Parameter_File>
/export/apps/rDock/src/rDock_2013.1_src/data/scripts/dock_solv.prm

>  <Rbt.Receptor>
prm/pocket_docking_7.prm

>  <SCORE>
-17.2885

>  <SCORE.INTER>
-17.3145

>  <SCORE.INTER.CONST>
1

>  <SCORE.INTER.POLAR>
0

>  <SCORE.INTER.ROT>
1

>  <SCORE.INTER.SOLV>
18.1562

>  <SCORE.INTER.VDW>
-21.8617

>  <SCORE.INTER.norm>
-1.33188

>  <SCORE.INTRA>
0.0259606

>  <SCORE.INTRA.DIHEDRAL>
0.0393285

>  <SCORE.INTRA.DIHEDRAL.0>
1.65305

>  <SCORE.INTRA.POLAR>
0

>  <SCORE.INTRA.POLAR.0>
0

>  <SCORE.INTRA.REPUL>
0

>  <SCORE.INTRA.REPUL.0>
0

>  <SCORE.INTRA.SOLV>
0.00201179

>  <SCORE.INTRA.SOLV.lig_0>
-46.9527

>  <SCORE.INTRA.VDW>
0.00529042

>  <SCORE.INTRA.VDW.0>
-0.177978

>  <SCORE.INTRA.norm>
0.00199697

>  <SCORE.RESTR>
0

>  <SCORE.RESTR.CAVITY>
0

>  <SCORE.RESTR.norm>
0

>  <SCORE.SYSTEM>
0

>  <SCORE.SYSTEM.CONST>
0

>  <SCORE.SYSTEM.DIHEDRAL>
0

>  <SCORE.SYSTEM.SOLV>
0

>  <SCORE.SYSTEM.norm>
0

>  <SCORE.heavy>
13

>  <SCORE.norm>
-1.32989

>  <RMSD>
4.220

$$$$
ligand
 OpenBabel02271912143D
libRbt.so/2013.1/901 2013/11/27
 13 14  0  0  0  0  0  0  0  0999 V2000
   37.4400   35.0248   24.9908 N   0  0  0  0  0  0  0  0  0  0  0  0
   37.7340   34.4086   26.2208 C   0  0  0  0  0  0  0  0  0  0  0  0
   38.8958   34.8209   26.8598 N   0  0  0  0  0  0  0  0  0  0  0  0
   37.0015   33.4341   26.8119 N   0  0  0  0  0  0  0  0  0  0  0  0
   35.8830   33.0916   26.0581 C   0  0  0  0  0  0  0  0  0  0  0  0
   35.5032   33.6596   24.8359 C   0  0  0  0  0  0  0  0  0  0  0  0
   36.2798   34.6636   24.2391 C   0  0  0  0  0  0  0  0  0  0  0  0
   36.0660   35.2234   23.1738 O   0  0  0  0  0  0  0  0  0  0  0  0
   34.3114   33.0413   24.3931 C   0  0  0  0  0  0  0  0  0  0  0  0
   33.9740   32.1056   25.3586 C   0  0  0  0  0  0  0  0  0  0  0  0
   34.9419   32.1357   26.3941 N   0  0  0  0  0  0  0  0  0  0  0  0
   33.6343   33.3765   23.1109 C   0  0  0  0  0  0  0  0  0  0  0  0
   32.4460   32.5330   22.9090 N   0  0  0  0  0  0  0  0  0  0  0  0
  1  2  1  0  0  0  0
  1  7  1  0  0  0  0
  2  3  1  0  0  0  0
  2  4  2  0  0  0  0
  4  5  1  0  0  0  0
  5  6  2  0  0  0  0
  5 11  1  0  0  0  0
  6  7  1  0  0  0  0
  6  9  1  0  0  0  0
  7  8  2  0  0  0  0
  9 10  2  0  0  0  0
  9 12  1  0  0  0  0
 10 11  1  0  0  0  0
 12 13  1  0  0  0  0
M  END
>  <CHROM.1>
178.02824441,35.71084903,33.68455536,24.99477693,-0.22074084,-0.56755905
-0.96845616

>  <Name>
ligand

>  <RI>
0

>  <Rbt.Current_Directory>
/home/itssahil/PROJECTS/Mol_Feturizer/Test_systems_manuscript/rnas/3q50

>  <Rbt.Executable>
rbdock ($Id: //depot/dev/client3/rdock/2013.1/src/exe/rbdock.cxx#4 $)

>  <Rbt.Library>
libRbt.so (2013.1, Build901 2013/11/27)

>  <Rbt.Parameter_File>
/export/apps/rDock/src/rDock_2013.1_src/data/scripts/dock_solv.prm

>  <Rbt.Receptor>
prm/pocket_docking_7.prm

>  <SCORE>
-17.31

>  <SCORE.INTER>
-17.3325

>  <SCORE.INTER.CONST>
1

>  <SCORE.INTER.POLAR>
0

>  <SCORE.INTER.ROT>
1

>  <SCORE.INTER.SOLV>
18.4066

>  <SCORE.INTER.VDW>
-21.9572

>  <SCORE.INTER.norm>
-1.33327

>  <SCORE.INTRA>
0.0225232

>  <SCORE.INTRA.DIHEDRAL>
0.0308858

>  <SCORE.INTRA.DIHEDRAL.0>
1.65305

>  <SCORE.INTRA.POLAR>
0

>  <SCORE.INTRA.POLAR.0>
0

>  <SCORE.INTRA.REPUL>
0

>  <SCORE.INTRA.REPUL.0>
0

>  <SCORE.INTRA.SOLV>
0.00173771

>  <SCORE.INTRA.SOLV.lig_0>
-46.9527

>  <SCORE.INTRA.VDW>
0.00621143

>  <SCORE.INTRA.VDW.0>
-0.177978

>  <SCORE.INTRA.norm>
0.00173255

>  <SCORE.RESTR>
0

>  <SCORE.RESTR.CAVITY>
0

>  <SCORE.RESTR.norm>
0

>  <SCORE.SYSTEM>
0

>  <SCORE.SYSTEM.CONST>
0

>  <SCORE.SYSTEM.DIHEDRAL>
0

>  <SCORE.SYSTEM.SOLV>
0

>  <SCORE.SYSTEM.norm>
0

>  <SCORE.heavy>
13

>  <SCORE.norm>
-1.33154

>  <RMSD>
4.220

$$$$
ligand
 OpenBabel02271912143D
libRbt.so/2013.1/901 2013/11/27
 13 14  0  0  0  0  0  0  0  0999 V2000
   37.4314   35.0437   24.9709 N   0  0  0  0  0  0  0  0  0  0  0  0
   37.7371   34.4202   26.1945 C   0  0  0  0  0  0  0  0  0  0  0  0
   38.8938   34.8437   26.8352 N   0  0  0  0  0  0  0  0  0  0  0  0
   37.0203   33.4292   26.7776 N   0  0  0  0  0  0  0  0  0  0  0  0
   35.9055   33.0774   26.0226 C   0  0  0  0  0  0  0  0  0  0  0  0
   35.5149   33.6512   24.8066 C   0  0  0  0  0  0  0  0  0  0  0  0
   36.2752   34.6723   24.2180 C   0  0  0  0  0  0  0  0  0  0  0  0
   36.0510   35.2391   23.1586 O   0  0  0  0  0  0  0  0  0  0  0  0
   34.3315   33.0195   24.3601 C   0  0  0  0  0  0  0  0  0  0  0  0
   34.0100   32.0697   25.3172 C   0  0  0  0  0  0  0  0  0  0  0  0
   34.9794   32.1044   26.3512 N   0  0  0  0  0  0  0  0  0  0  0  0
   33.6470   33.3568   23.0825 C   0  0  0  0  0  0  0  0  0  0  0  0
   32.4296   32.5488   22.9104 N   0  0  0  0  0  0  0  0  0  0  0  0
  1  2  1  0  0  0  0
  1  7  1  0  0  0  0
  2  3  1  0  0  0  0
  2  4  2  0  0  0  0
  4  5  1  0  0  0  0
  5  6  2  0  0  0  0
  5 11  1  0  0  0  0
  6  7  1  0  0  0  0
  6  9  1  0  0  0  0
  7  8  2  0  0  0  0
  9 10  2  0  0  0  0
  9 12  1  0  0  0  0
 10 11  1  0  0  0  0
 12 13  1  0  0  0  0
M  END
>  <CHROM.1>
-178.85305085,35.71907417,33.68195977,24.96823836,-0.20760018,-0.57352788
-0.95022746

>  <Name>
ligand

>  <RI>
0

>  <Rbt.Current_Directory>
/home/itssahil/PROJECTS/Mol_Feturizer/Test_systems_manuscript/rnas/3q50

>  <Rbt.Executable>
rbdock ($Id: //depot/dev/client3/rdock/2013.1/src/exe/rbdock.cxx#4 $)

>  <Rbt.Library>
libRbt.so (2013.1, Build901 2013/11/27)

>  <Rbt.Parameter_File>
/export/apps/rDock/src/rDock_2013.1_src/data/scripts/dock_solv.prm

>  <Rbt.Receptor>
prm/pocket_docking_8.prm

>  <SCORE>
-17.258

>  <SCORE.INTER>
-17.2755

>  <SCORE.INTER.CONST>
1

>  <SCORE.INTER.POLAR>
0

>  <SCORE.INTER.ROT>
1

>  <SCORE.INTER.SOLV>
18.4545

>  <SCORE.INTER.VDW>
-21.9352

>  <SCORE.INTER.norm>
-1.32888

>  <SCORE.INTRA>
0.0174677

>  <SCORE.INTRA.DIHEDRAL>
0.021652

>  <SCORE.INTRA.DIHEDRAL.0>
1.65305

>  <SCORE.INTRA.POLAR>
0

>  <SCORE.INTRA.POLAR.0>
0

>  <SCORE.INTRA.REPUL>
0

>  <SCORE.INTRA.REPUL.0>
0

>  <SCORE.INTRA.SOLV>
0.00134955

>  <SCORE.INTRA.SOLV.lig_0>
-46.9527

>  <SCORE.INTRA.VDW>
0.0059669

>  <SCORE.INTRA.VDW.0>
-0.177978

>  <SCORE.INTRA.norm>
0.00134367

>  <SCORE.RESTR>
0

>  <SCORE.RESTR.CAVITY>
0

>  <SCORE.RESTR.norm>
0

>  <SCORE.SYSTEM>
0

>  <SCORE.SYSTEM.CONST>
0

>  <SCORE.SYSTEM.DIHEDRAL>
0

>  <SCORE.SYSTEM.SOLV>
0

>  <SCORE.SYSTEM.norm>
0

>  <SCORE.heavy>
13

>  <SCORE.norm>
-1.32754

>  <RMSD>
4.220

$$$$
ligand
 OpenBabel02271912143D
libRbt.so/2013.1/901 2013/11/27
 13 14  0  0  0  0  0  0  0  0999 V2000
   37.4505   35.0489   24.9786 N   0  0  0  0  0  0  0  0  0  0  0  0
   37.7490   34.4356   26.2090 C   0  0  0  0  0  0  0  0  0  0  0  0
   38.9104   34.8531   26.8453 N   0  0  0  0  0  0  0  0  0  0  0  0
   37.0211   33.4593   26.8030 N   0  0  0  0  0  0  0  0  0  0  0  0
   35.9024   33.1117   26.0517 C   0  0  0  0  0  0  0  0  0  0  0  0
   35.5184   33.6764   24.8293 C   0  0  0  0  0  0  0  0  0  0  0  0
   36.2902   34.6822   24.2296 C   0  0  0  0  0  0  0  0  0  0  0  0
   36.0725   35.2397   23.1639 O   0  0  0  0  0  0  0  0  0  0  0  0
   34.3280   33.0531   24.3896 C   0  0  0  0  0  0  0  0  0  0  0  0
   33.9957   32.1177   25.3572 C   0  0  0  0  0  0  0  0  0  0  0  0
   34.9654   32.1529   26.3909 N   0  0  0  0  0  0  0  0  0  0  0  0
   33.6474   33.3839   23.1082 C   0  0  0  0  0  0  0  0  0  0  0  0
   32.4224   32.5858   22.9436 N   0  0  0  0  0  0  0  0  0  0  0  0
  1  2  1  0  0  0  0
  1  7  1  0  0  0  0
  2  3  1  0  0  0  0
  2  4  2  0  0  0  0
  4  5  1  0  0  0  0
  5  6  2  0  0  0  0
  5 11  1  0  0  0  0
  6  7  1  0  0  0  0
  6  9  1  0  0  0  0
  7  8  2  0  0  0  0
  9 10  2  0  0  0  0
  9 12  1  0  0  0  0
 10 11  1  0  0  0  0
 12 13  1  0  0  0  0
M  END
>  <CHROM.1>
-178.96649693,35.72301626,33.70642872,24.99054574,-0.21545577,-0.56458136
-0.96562775

>  <Name>
ligand

>  <RI>
0

>  <Rbt.Current_Directory>
/home/itssahil/PROJECTS/Mol_Feturizer/Test_systems_manuscript/rnas/3q50

>  <Rbt.Executable>
rbdock ($Id: //depot/dev/client3/rdock/2013.1/src/exe/rbdock.cxx#4 $)

>  <Rbt.Library>
libRbt.so (2013.1, Build901 2013/11/27)

>  <Rbt.Parameter_File>
/export/apps/rDock/src/rDock_2013.1_src/data/scripts/dock_solv.prm

>  <Rbt.Receptor>
prm/pocket_docking_8.prm

>  <SCORE>
-17.2863

>  <SCORE.INTER>
-17.3039

>  <SCORE.INTER.CONST>
1

>  <SCORE.INTER.POLAR>
0

>  <SCORE.INTER.ROT>
1

>  <SCORE.INTER.SOLV>
18.4133

>  <SCORE.INTER.VDW>
-21.9404

>  <SCORE.INTER.norm>
-1.33107

>  <SCORE.INTRA>
0.0176745

>  <SCORE.INTRA.DIHEDRAL>
0.0219869

>  <SCORE.INTRA.DIHEDRAL.0>
1.65305

>  <SCORE.INTRA.POLAR>
0

>  <SCORE.INTRA.POLAR.0>
0

>  <SCORE.INTRA.REPUL>
0

>  <SCORE.INTRA.REPUL.0>
0

>  <SCORE.INTRA.SOLV>
0.00136533

>  <SCORE.INTRA.SOLV.lig_0>
-46.9527

>  <SCORE.INTRA.VDW>
0.0059984

>  <SCORE.INTRA.VDW.0>
-0.177978

>  <SCORE.INTRA.norm>
0.00135958

>  <SCORE.RESTR>
0

>  <SCORE.RESTR.CAVITY>
0

>  <SCORE.RESTR.norm>
0

>  <SCORE.SYSTEM>
0

>  <SCORE.SYSTEM.CONST>
0

>  <SCORE.SYSTEM.DIHEDRAL>
0

>  <SCORE.SYSTEM.SOLV>
0

>  <SCORE.SYSTEM.norm>
0

>  <SCORE.heavy>
13

>  <SCORE.norm>
-1.32971

>  <RMSD>
4.220

$$$$
ligand
 OpenBabel02271912143D
libRbt.so/2013.1/901 2013/11/27
 13 14  0  0  0  0  0  0  0  0999 V2000
   37.4396   35.0233   24.9897 N   0  0  0  0  0  0  0  0  0  0  0  0
   37.7324   34.4061   26.2196 C   0  0  0  0  0  0  0  0  0  0  0  0
   38.8951   34.8158   26.8586 N   0  0  0  0  0  0  0  0  0  0  0  0
   36.9978   33.4329   26.8104 N   0  0  0  0  0  0  0  0  0  0  0  0
   35.8786   33.0931   26.0565 C   0  0  0  0  0  0  0  0  0  0  0  0
   35.5000   33.6622   24.8344 C   0  0  0  0  0  0  0  0  0  0  0  0
   36.2786   34.6647   24.2379 C   0  0  0  0  0  0  0  0  0  0  0  0
   36.0661   35.2254   23.1729 O   0  0  0  0  0  0  0  0  0  0  0  0
   34.3068   33.0466   24.3915 C   0  0  0  0  0  0  0  0  0  0  0  0
   33.9675   32.1113   25.3567 C   0  0  0  0  0  0  0  0  0  0  0  0
   34.9355   32.1391   26.3922 N   0  0  0  0  0  0  0  0  0  0  0  0
   33.6304   33.3836   23.1094 C   0  0  0  0  0  0  0  0  0  0  0  0
   32.4504   32.5306   22.8989 N   0  0  0  0  0  0  0  0  0  0  0  0
  1  2  1  0  0  0  0
  1  7  1  0  0  0  0
  2  3  1  0  0  0  0
  2  4  2  0  0  0  0
  4  5  1  0  0  0  0
  5  6  2  0  0  0  0
  5 11  1  0  0  0  0
  6  7  1  0  0  0  0
  6  9  1  0  0  0  0
  7  8  2  0  0  0  0
  9 10  2  0  0  0  0
  9 12  1  0  0  0  0
 10 11  1  0  0  0  0
 12 13  1  0  0  0  0
M  END
>  <CHROM.1>
177.28510274,35.70848722,33.68572950,24.99264874,-0.22244837,-0.56701590
-0.96943265

>  <Name>
ligand

>  <RI>
0

>  <Rbt.Current_Directory>
/home/itssahil/PROJECTS/Mol_Feturizer/Test_systems_manuscript/rnas/3q50

>  <Rbt.Executable>
rbdock ($Id: //depot/dev/client3/rdock/2013.1/src/exe/rbdock.cxx#4 $)

>  <Rbt.Library>
libRbt.so (2013.1, Build901 2013/11/27)

>  <Rbt.Parameter_File>
/export/apps/rDock/src/rDock_2013.1_src/data/scripts/dock_solv.prm

>  <Rbt.Receptor>
prm/pocket_docking_8.prm

>  <SCORE>
-17.3089

>  <SCORE.INTER>
-17.3324

>  <SCORE.INTER.CONST>
1

>  <SCORE.INTER.POLAR>
0

>  <SCORE.INTER.ROT>
1

>  <SCORE.INTER.SOLV>
18.4077

>  <SCORE.INTER.VDW>
-21.9575

>  <SCORE.INTER.norm>
-1.33326

>  <SCORE.INTRA>
0.023527

>  <SCORE.INTRA.DIHEDRAL>
0.0330798

>  <SCORE.INTRA.DIHEDRAL.0>
1.65305

>  <SCORE.INTRA.POLAR>
0

>  <SCORE.INTRA.POLAR.0>
0

>  <SCORE.INTRA.REPUL>
0

>  <SCORE.INTRA.REPUL.0>
0

>  <SCORE.INTRA.SOLV>
0.00181618

>  <SCORE.INTRA.SOLV.lig_0>
-46.9527

>  <SCORE.INTRA.VDW>
0.00607899

>  <SCORE.INTRA.VDW.0>
-0.177978

>  <SCORE.INTRA.norm>
0.00180977

>  <SCORE.RESTR>
0

>  <SCORE.RESTR.CAVITY>
0

>  <SCORE.RESTR.norm>
0

>  <SCORE.SYSTEM>
0

>  <SCORE.SYSTEM.CONST>
0

>  <SCORE.SYSTEM.DIHEDRAL>
0

>  <SCORE.SYSTEM.SOLV>
0

>  <SCORE.SYSTEM.norm>
0

>  <SCORE.heavy>
13

>  <SCORE.norm>
-1.33145

>  <RMSD>
4.220

$$$$
ligand
 OpenBabel02271912143D
libRbt.so/2013.1/901 2013/11/27
 13 14  0  0  0  0  0  0  0  0999 V2000
   36.9798   34.7464   25.1620 N   0  0  0  0  0  0  0  0  0  0  0  0
   37.1162   34.1232   26.4159 C   0  0  0  0  0  0  0  0  0  0  0  0
   38.2123   34.4999   27.1805 N   0  0  0  0  0  0  0  0  0  0  0  0
   36.2926   33.1730   26.9202 N   0  0  0  0  0  0  0  0  0  0  0  0
   35.2544   32.8645   26.0464 C   0  0  0  0  0  0  0  0  0  0  0  0
   35.0304   33.4422   24.7907 C   0  0  0  0  0  0  0  0  0  0  0  0
   35.8993   34.4204   24.2856 C   0  0  0  0  0  0  0  0  0  0  0  0
   35.8227   34.9850   23.2043 O   0  0  0  0  0  0  0  0  0  0  0  0
   33.8763   32.8608   24.2173 C   0  0  0  0  0  0  0  0  0  0  0  0
   33.4048   31.9376   25.1377 C   0  0  0  0  0  0  0  0  0  0  0  0
   34.2524   31.9391   26.2742 N   0  0  0  0  0  0  0  0  0  0  0  0
   33.3563   33.2150   22.8686 C   0  0  0  0  0  0  0  0  0  0  0  0
   32.5760   32.1054   22.2991 N   0  0  0  0  0  0  0  0  0  0  0  0
  1  2  1  0  0  0  0
  1  7  1  0  0  0  0
  2  3  1  0  0  0  0
  2  4  2  0  0  0  0
  4  5  1  0  0  0  0
  5  6  2  0  0  0  0
  5 11  1  0  0  0  0
  6  7  1  0  0  0  0
  6  9  1  0  0  0  0
  7  8  2  0  0  0  0
  9 10  2  0  0  0  0
  9 12  1  0  0  0  0
 10 11  1  0  0  0  0
 12 13  1  0  0  0  0
M  END
>  <CHROM.1>
154.62407797,35.25269851,33.43619118,24.95252692,-0.37725615,-0.63458357
-1.06619220

>  <Name>
ligand

>  <RI>
0

>  <Rbt.Current_Directory>
/home/itssahil/PROJECTS/Mol_Feturizer/Test_systems_manuscript/rnas/3q50

>  <Rbt.Executable>
rbdock ($Id: //depot/dev/client3/rdock/2013.1/src/exe/rbdock.cxx#4 $)

>  <Rbt.Library>
libRbt.so (2013.1, Build901 2013/11/27)

>  <Rbt.Parameter_File>
/export/apps/rDock/src/rDock_2013.1_src/data/scripts/dock_solv.prm

>  <Rbt.Receptor>
prm/blind_docking_80.prm

>  <SCORE>
-15.6874

>  <SCORE.INTER>
-15.8128

>  <SCORE.INTER.CONST>
1

>  <SCORE.INTER.POLAR>
0

>  <SCORE.INTER.ROT>
1

>  <SCORE.INTER.SOLV>
20.4085

>  <SCORE.INTER.VDW>
-21.6113

>  <SCORE.INTER.norm>
-1.21637

>  <SCORE.INTRA>
0.0130354

>  <SCORE.INTRA.DIHEDRAL>
0.0814262

>  <SCORE.INTRA.DIHEDRAL.0>
1.65305

>  <SCORE.INTRA.POLAR>
0

>  <SCORE.INTRA.POLAR.0>
0

>  <SCORE.INTRA.REPUL>
0

>  <SCORE.INTRA.REPUL.0>
0

>  <SCORE.INTRA.SOLV>
0.00185056

>  <SCORE.INTRA.SOLV.lig_0>
-46.9527

>  <SCORE.INTRA.VDW>
-0.028603

>  <SCORE.INTRA.VDW.0>
-0.177978

>  <SCORE.INTRA.norm>
0.00100272

>  <SCORE.RESTR>
0.11233

>  <SCORE.RESTR.CAVITY>
0.11233

>  <SCORE.RESTR.norm>
0.00864075

>  <SCORE.SYSTEM>
0

>  <SCORE.SYSTEM.CONST>
0

>  <SCORE.SYSTEM.DIHEDRAL>
0

>  <SCORE.SYSTEM.SOLV>
0

>  <SCORE.SYSTEM.norm>
0

>  <SCORE.heavy>
13

>  <SCORE.norm>
-1.20672

>  <RMSD>
4.232

$$$$
ligand
 OpenBabel02271912143D
libRbt.so/2013.1/901 2013/11/27
 13 14  0  0  0  0  0  0  0  0999 V2000
   36.9302   34.7658   25.2030 N   0  0  0  0  0  0  0  0  0  0  0  0
   37.0667   34.1193   26.4450 C   0  0  0  0  0  0  0  0  0  0  0  0
   38.1490   34.4997   27.2273 N   0  0  0  0  0  0  0  0  0  0  0  0
   36.2558   33.1444   26.9221 N   0  0  0  0  0  0  0  0  0  0  0  0
   35.2311   32.8356   26.0326 C   0  0  0  0  0  0  0  0  0  0  0  0
   35.0079   33.4351   24.7870 C   0  0  0  0  0  0  0  0  0  0  0  0
   35.8636   34.4389   24.3102 C   0  0  0  0  0  0  0  0  0  0  0  0
   35.7863   35.0244   23.2401 O   0  0  0  0  0  0  0  0  0  0  0  0
   33.8696   32.8453   24.1912 C   0  0  0  0  0  0  0  0  0  0  0  0
   33.4066   31.8950   25.0880 C   0  0  0  0  0  0  0  0  0  0  0  0
   34.2440   31.8880   26.2320 N   0  0  0  0  0  0  0  0  0  0  0  0
   33.3553   33.2180   22.8453 C   0  0  0  0  0  0  0  0  0  0  0  0
   32.5822   32.1143   22.2550 N   0  0  0  0  0  0  0  0  0  0  0  0
  1  2  1  0  0  0  0
  1  7  1  0  0  0  0
  2  3  1  0  0  0  0
  2  4  2  0  0  0  0
  4  5  1  0  0  0  0
  5  6  2  0  0  0  0
  5 11  1  0  0  0  0
  6  7  1  0  0  0  0
  6  9  1  0  0  0  0
  7  8  2  0  0  0  0
  9 10  2  0  0  0  0
  9 12  1  0  0  0  0
 10 11  1  0  0  0  0
 12 13  1  0  0  0  0
M  END
>  <CHROM.1>
155.52198368,35.22738893,33.43035196,24.95146375,-0.37473161,-0.65346031
-1.04378103

>  <Name>
ligand

>  <RI>
0

>  <Rbt.Current_Directory>
/home/itssahil/PROJECTS/Mol_Feturizer/Test_systems_manuscript/rnas/3q50

>  <Rbt.Executable>
rbdock ($Id: //depot/dev/client3/rdock/2013.1/src/exe/rbdock.cxx#4 $)

>  <Rbt.Library>
libRbt.so (2013.1, Build901 2013/11/27)

>  <Rbt.Parameter_File>
/export/apps/rDock/src/rDock_2013.1_src/data/scripts/dock_solv.prm

>  <Rbt.Receptor>
prm/blind_docking_100.prm

>  <SCORE>
-15.5068

>  <SCORE.INTER>
-15.5707

>  <SCORE.INTER.CONST>
1

>  <SCORE.INTER.POLAR>
0

>  <SCORE.INTER.ROT>
1

>  <SCORE.INTER.SOLV>
20.5723

>  <SCORE.INTER.VDW>
-21.5046

>  <SCORE.INTER.norm>
-1.19775

>  <SCORE.INTRA>
0.0149132

>  <SCORE.INTRA.DIHEDRAL>
0.0806414

>  <SCORE.INTRA.DIHEDRAL.0>
1.65305

>  <SCORE.INTRA.POLAR>
0

>  <SCORE.INTRA.POLAR.0>
0

>  <SCORE.INTRA.REPUL>
0

>  <SCORE.INTRA.REPUL.0>
0

>  <SCORE.INTRA.SOLV>
0.00191949

>  <SCORE.INTRA.SOLV.lig_0>
-46.9527

>  <SCORE.INTRA.VDW>
-0.0263673

>  <SCORE.INTRA.VDW.0>
-0.177978

>  <SCORE.INTRA.norm>
0.00114717

>  <SCORE.RESTR>
0.0490171

>  <SCORE.RESTR.CAVITY>
0.0490171

>  <SCORE.RESTR.norm>
0.00377055

>  <SCORE.SYSTEM>
0

>  <SCORE.SYSTEM.CONST>
0

>  <SCORE.SYSTEM.DIHEDRAL>
0

>  <SCORE.SYSTEM.SOLV>
0

>  <SCORE.SYSTEM.norm>
0

>  <SCORE.heavy>
13

>  <SCORE.norm>
-1.19283

>  <RMSD>
4.233

$$$$
ligand
 OpenBabel02271912143D
libRbt.so/2013.1/901 2013/11/27
 13 14  0  0  0  0  0  0  0  0999 V2000
   36.9686   34.7215   25.1752 N   0  0  0  0  0  0  0  0  0  0  0  0
   37.0704   34.1195   26.4427 C   0  0  0  0  0  0  0  0  0  0  0  0
   38.1529   34.4990   27.2251 N   0  0  0  0  0  0  0  0  0  0  0  0
   36.2259   33.1866   26.9450 N   0  0  0  0  0  0  0  0  0  0  0  0
   35.2044   32.8729   26.0535 C   0  0  0  0  0  0  0  0  0  0  0  0
   35.0146   33.4302   24.7831 C   0  0  0  0  0  0  0  0  0  0  0  0
   35.9047   34.3907   24.2806 C   0  0  0  0  0  0  0  0  0  0  0  0
   35.8581   34.9366   23.1880 O   0  0  0  0  0  0  0  0  0  0  0  0
   33.8677   32.8501   24.1941 C   0  0  0  0  0  0  0  0  0  0  0  0
   33.3663   31.9483   25.1197 C   0  0  0  0  0  0  0  0  0  0  0  0
   34.1881   31.9617   26.2749 N   0  0  0  0  0  0  0  0  0  0  0  0
   33.3819   33.1853   22.8280 C   0  0  0  0  0  0  0  0  0  0  0  0
   32.5770   32.0859   22.2730 N   0  0  0  0  0  0  0  0  0  0  0  0
  1  2  1  0  0  0  0
  1  7  1  0  0  0  0
  2  3  1  0  0  0  0
  2  4  2  0  0  0  0
  4  5  1  0  0  0  0
  5  6  2  0  0  0  0
  5 11  1  0  0  0  0
  6  7  1  0  0  0  0
  6  9  1  0  0  0  0
  7  8  2  0  0  0  0
  9 10  2  0  0  0  0
  9 12  1  0  0  0  0
 10 11  1  0  0  0  0
 12 13  1  0  0  0  0
M  END
>  <CHROM.1>
155.93716999,35.23105469,33.42595900,24.95097237,-0.40590995,-0.63453833
-1.10052235

>  <Name>
ligand

>  <RI>
0

>  <Rbt.Current_Directory>
/home/itssahil/PROJECTS/Mol_Feturizer/Test_systems_manuscript/rnas/3q50

>  <Rbt.Executable>
rbdock ($Id: //depot/dev/client3/rdock/2013.1/src/exe/rbdock.cxx#4 $)

>  <Rbt.Library>
libRbt.so (2013.1, Build901 2013/11/27)

>  <Rbt.Parameter_File>
/export/apps/rDock/src/rDock_2013.1_src/data/scripts/dock_solv.prm

>  <Rbt.Receptor>
prm/blind_docking_60.prm

>  <SCORE>
-15.4917

>  <SCORE.INTER>
-15.5603

>  <SCORE.INTER.CONST>
1

>  <SCORE.INTER.POLAR>
0

>  <SCORE.INTER.ROT>
1

>  <SCORE.INTER.SOLV>
20.6754

>  <SCORE.INTER.VDW>
-21.532

>  <SCORE.INTER.norm>
-1.19695

>  <SCORE.INTRA>
0.0157455

>  <SCORE.INTRA.DIHEDRAL>
0.0802383

>  <SCORE.INTRA.DIHEDRAL.0>
1.65305

>  <SCORE.INTRA.POLAR>
0

>  <SCORE.INTRA.POLAR.0>
0

>  <SCORE.INTRA.REPUL>
0

>  <SCORE.INTRA.REPUL.0>
0

>  <SCORE.INTRA.SOLV>
0.00195003

>  <SCORE.INTRA.SOLV.lig_0>
-46.9527

>  <SCORE.INTRA.VDW>
-0.0253487

>  <SCORE.INTRA.VDW.0>
-0.177978

>  <SCORE.INTRA.norm>
0.00121119

>  <SCORE.RESTR>
0.0528915

>  <SCORE.RESTR.CAVITY>
0.0528915

>  <SCORE.RESTR.norm>
0.00406857

>  <SCORE.SYSTEM>
0

>  <SCORE.SYSTEM.CONST>
0

>  <SCORE.SYSTEM.DIHEDRAL>
0

>  <SCORE.SYSTEM.SOLV>
0

>  <SCORE.SYSTEM.norm>
0

>  <SCORE.heavy>
13

>  <SCORE.norm>
-1.19167

>  <RMSD>
4.237

$$$$
ligand
 OpenBabel02271912143D
libRbt.so/2013.1/901 2013/11/27
 13 14  0  0  0  0  0  0  0  0999 V2000
   36.9641   34.7210   25.1798 N   0  0  0  0  0  0  0  0  0  0  0  0
   37.0650   34.1200   26.4478 C   0  0  0  0  0  0  0  0  0  0  0  0
   38.1471   34.4999   27.2306 N   0  0  0  0  0  0  0  0  0  0  0  0
   36.2199   33.1878   26.9503 N   0  0  0  0  0  0  0  0  0  0  0  0
   35.1990   32.8735   26.0584 C   0  0  0  0  0  0  0  0  0  0  0  0
   35.0102   33.4299   24.7874 C   0  0  0  0  0  0  0  0  0  0  0  0
   35.9008   34.3897   24.2847 C   0  0  0  0  0  0  0  0  0  0  0  0
   35.8550   34.9347   23.1917 O   0  0  0  0  0  0  0  0  0  0  0  0
   33.8635   32.8496   24.1981 C   0  0  0  0  0  0  0  0  0  0  0  0
   33.3612   31.9486   25.1242 C   0  0  0  0  0  0  0  0  0  0  0  0
   34.1823   31.9627   26.2798 N   0  0  0  0  0  0  0  0  0  0  0  0
   33.3786   33.1838   22.8314 C   0  0  0  0  0  0  0  0  0  0  0  0
   32.5303   32.1067   22.2978 N   0  0  0  0  0  0  0  0  0  0  0  0
  1  2  1  0  0  0  0
  1  7  1  0  0  0  0
  2  3  1  0  0  0  0
  2  4  2  0  0  0  0
  4  5  1  0  0  0  0
  5  6  2  0  0  0  0
  5 11  1  0  0  0  0
  6  7  1  0  0  0  0
  6  9  1  0  0  0  0
  7  8  2  0  0  0  0
  9 10  2  0  0  0  0
  9 12  1  0  0  0  0
 10 11  1  0  0  0  0
 12 13  1  0  0  0  0
M  END
>  <CHROM.1>
158.16190506,35.22293059,33.42752487,24.95714116,-0.40363757,-0.63173246
-1.09920266

>  <Name>
ligand

>  <RI>
0

>  <Rbt.Current_Directory>
/home/itssahil/PROJECTS/Mol_Feturizer/Test_systems_manuscript/rnas/3q50

>  <Rbt.Executable>
rbdock ($Id: //depot/dev/client3/rdock/2013.1/src/exe/rbdock.cxx#4 $)

>  <Rbt.Library>
libRbt.so (2013.1, Build901 2013/11/27)

>  <Rbt.Parameter_File>
/export/apps/rDock/src/rDock_2013.1_src/data/scripts/dock_solv.prm

>  <Rbt.Receptor>
prm/blind_docking_100.prm

>  <SCORE>
-15.4436

>  <SCORE.INTER>
-15.5105

>  <SCORE.INTER.CONST>
1

>  <SCORE.INTER.POLAR>
0

>  <SCORE.INTER.ROT>
1

>  <SCORE.INTER.SOLV>
20.709

>  <SCORE.INTER.VDW>
-21.51

>  <SCORE.INTER.norm>
-1.19312

>  <SCORE.INTRA>
0.0198048

>  <SCORE.INTRA.DIHEDRAL>
0.0776546

>  <SCORE.INTRA.DIHEDRAL.0>
1.65305

>  <SCORE.INTRA.POLAR>
0

>  <SCORE.INTRA.POLAR.0>
0

>  <SCORE.INTRA.REPUL>
0

>  <SCORE.INTRA.REPUL.0>
0

>  <SCORE.INTRA.SOLV>
0.00209802

>  <SCORE.INTRA.SOLV.lig_0>
-46.9527

>  <SCORE.INTRA.VDW>
-0.0200715

>  <SCORE.INTRA.VDW.0>
-0.177978

>  <SCORE.INTRA.norm>
0.00152345

>  <SCORE.RESTR>
0.0470786

>  <SCORE.RESTR.CAVITY>
0.0470786

>  <SCORE.RESTR.norm>
0.00362143

>  <SCORE.SYSTEM>
0

>  <SCORE.SYSTEM.CONST>
0

>  <SCORE.SYSTEM.DIHEDRAL>
0

>  <SCORE.SYSTEM.SOLV>
0

>  <SCORE.SYSTEM.norm>
0

>  <SCORE.heavy>
13

>  <SCORE.norm>
-1.18797

>  <RMSD>
4.239

$$$$
ligand
 OpenBabel02271912143D
libRbt.so/2013.1/901 2013/11/27
 13 14  0  0  0  0  0  0  0  0999 V2000
   36.9255   34.7388   25.1486 N   0  0  0  0  0  0  0  0  0  0  0  0
   37.0547   34.1128   26.4018 C   0  0  0  0  0  0  0  0  0  0  0  0
   38.1373   34.4997   27.1804 N   0  0  0  0  0  0  0  0  0  0  0  0
   36.2365   33.1512   26.8933 N   0  0  0  0  0  0  0  0  0  0  0  0
   35.2122   32.8337   26.0064 C   0  0  0  0  0  0  0  0  0  0  0  0
   34.9960   33.4132   24.7502 C   0  0  0  0  0  0  0  0  0  0  0  0
   35.8591   34.4033   24.2586 C   0  0  0  0  0  0  0  0  0  0  0  0
   35.7884   34.9708   23.1784 O   0  0  0  0  0  0  0  0  0  0  0  0
   33.8555   32.8203   24.1615 C   0  0  0  0  0  0  0  0  0  0  0  0
   33.3843   31.8884   25.0731 C   0  0  0  0  0  0  0  0  0  0  0  0
   34.2186   31.8958   26.2194 N   0  0  0  0  0  0  0  0  0  0  0  0
   33.3471   33.1732   22.8080 C   0  0  0  0  0  0  0  0  0  0  0  0
   32.4902   32.1031   22.2741 N   0  0  0  0  0  0  0  0  0  0  0  0
  1  2  1  0  0  0  0
  1  7  1  0  0  0  0
  2  3  1  0  0  0  0
  2  4  2  0  0  0  0
  4  5  1  0  0  0  0
  5  6  2  0  0  0  0
  5 11  1  0  0  0  0
  6  7  1  0  0  0  0
  6  9  1  0  0  0  0
  7  8  2  0  0  0  0
  9 10  2  0  0  0  0
  9 12  1  0  0  0  0
 10 11  1  0  0  0  0
 12 13  1  0  0  0  0
M  END
>  <CHROM.1>
159.52410121,35.20860467,33.41302431,24.91852706,-0.37598366,-0.64400392
-1.06039204

>  <Name>
ligand

>  <RI>
0

>  <Rbt.Current_Directory>
/home/itssahil/PROJECTS/Mol_Feturizer/Test_systems_manuscript/rnas/3q50

>  <Rbt.Executable>
rbdock ($Id: //depot/dev/client3/rdock/2013.1/src/exe/rbdock.cxx#4 $)

>  <Rbt.Library>
libRbt.so (2013.1, Build901 2013/11/27)

>  <Rbt.Parameter_File>
/export/apps/rDock/src/rDock_2013.1_src/data/scripts/dock_solv.prm

>  <Rbt.Receptor>
prm/blind_docking_80.prm

>  <SCORE>
-15.4444

>  <SCORE.INTER>
-15.5036

>  <SCORE.INTER.CONST>
1

>  <SCORE.INTER.POLAR>
0

>  <SCORE.INTER.ROT>
1

>  <SCORE.INTER.SOLV>
20.6688

>  <SCORE.INTER.VDW>
-21.492

>  <SCORE.INTER.norm>
-1.19259

>  <SCORE.INTRA>
0.0219458

>  <SCORE.INTRA.DIHEDRAL>
0.0757307

>  <SCORE.INTRA.DIHEDRAL.0>
1.65305

>  <SCORE.INTRA.POLAR>
0

>  <SCORE.INTRA.POLAR.0>
0

>  <SCORE.INTRA.REPUL>
0

>  <SCORE.INTRA.REPUL.0>
0

>  <SCORE.INTRA.SOLV>
0.00217431

>  <SCORE.INTRA.SOLV.lig_0>
-46.9527

>  <SCORE.INTRA.VDW>
-0.0170067

>  <SCORE.INTRA.VDW.0>
-0.177978

>  <SCORE.INTRA.norm>
0.00168814

>  <SCORE.RESTR>
0.0373294

>  <SCORE.RESTR.CAVITY>
0.0373294

>  <SCORE.RESTR.norm>
0.00287149

>  <SCORE.SYSTEM>
0

>  <SCORE.SYSTEM.CONST>
0

>  <SCORE.SYSTEM.DIHEDRAL>
0

>  <SCORE.SYSTEM.SOLV>
0

>  <SCORE.SYSTEM.norm>
0

>  <SCORE.heavy>
13

>  <SCORE.norm>
-1.18803

>  <RMSD>
4.240

$$$$
ligand
 OpenBabel02271912143D
libRbt.so/2013.1/901 2013/11/27
 13 14  0  0  0  0  0  0  0  0999 V2000
   36.8994   34.7141   25.1392 N   0  0  0  0  0  0  0  0  0  0  0  0
   37.0317   34.0715   26.3838 C   0  0  0  0  0  0  0  0  0  0  0  0
   38.1161   34.4480   27.1649 N   0  0  0  0  0  0  0  0  0  0  0  0
   36.2146   33.1034   26.8644 N   0  0  0  0  0  0  0  0  0  0  0  0
   35.1882   32.7977   25.9758 C   0  0  0  0  0  0  0  0  0  0  0  0
   34.9690   33.3937   24.7279 C   0  0  0  0  0  0  0  0  0  0  0  0
   35.8310   34.3904   24.2475 C   0  0  0  0  0  0  0  0  0  0  0  0
   35.7576   34.9722   23.1751 O   0  0  0  0  0  0  0  0  0  0  0  0
   33.8271   32.8087   24.1341 C   0  0  0  0  0  0  0  0  0  0  0  0
   33.3581   31.8648   25.0344 C   0  0  0  0  0  0  0  0  0  0  0  0
   34.1951   31.8570   26.1787 N   0  0  0  0  0  0  0  0  0  0  0  0
   33.3155   33.1795   22.7867 C   0  0  0  0  0  0  0  0  0  0  0  0
   32.5055   32.0922   22.2156 N   0  0  0  0  0  0  0  0  0  0  0  0
  1  2  1  0  0  0  0
  1  7  1  0  0  0  0
  2  3  1  0  0  0  0
  2  4  2  0  0  0  0
  4  5  1  0  0  0  0
  5  6  2  0  0  0  0
  5 11  1  0  0  0  0
  6  7  1  0  0  0  0
  6  9  1  0  0  0  0
  7  8  2  0  0  0  0
  9 10  2  0  0  0  0
  9 12  1  0  0  0  0
 10 11  1  0  0  0  0
 12 13  1  0  0  0  0
M  END
>  <CHROM.1>
157.04023532,35.18594264,33.38937881,24.89369032,-0.37672061,-0.64618533
-1.04836689

>  <Name>
ligand

>  <RI>
0

>  <Rbt.Current_Directory>
/home/itssahil/PROJECTS/Mol_Feturizer/Test_systems_manuscript/rnas/3q50

>  <Rbt.Executable>
rbdock ($Id: //depot/dev/client3/rdock/2013.1/src/exe/rbdock.cxx#4 $)

>  <Rbt.Library>
libRbt.so (2013.1, Build901 2013/11/27)

>  <Rbt.Parameter_File>
/export/apps/rDock/src/rDock_2013.1_src/data/scripts/dock_solv.prm

>  <Rbt.Receptor>
prm/blind_docking_100.prm

>  <SCORE>
-15.3326

>  <SCORE.INTER>
-15.3666

>  <SCORE.INTER.CONST>
1

>  <SCORE.INTER.POLAR>
0

>  <SCORE.INTER.ROT>
1

>  <SCORE.INTER.SOLV>
20.6396

>  <SCORE.INTER.VDW>
-21.391

>  <SCORE.INTER.norm>
-1.18205

>  <SCORE.INTRA>
0.0178437

>  <SCORE.INTRA.DIHEDRAL>
0.0790456

>  <SCORE.INTRA.DIHEDRAL.0>
1.65305

>  <SCORE.INTRA.POLAR>
0

>  <SCORE.INTRA.POLAR.0>
0

>  <SCORE.INTRA.REPUL>
0

>  <SCORE.INTRA.REPUL.0>
0

>  <SCORE.INTRA.SOLV>
0.00202684

>  <SCORE.INTRA.SOLV.lig_0>
-46.9527

>  <SCORE.INTRA.VDW>
-0.0226925

>  <SCORE.INTRA.VDW.0>
-0.177978

>  <SCORE.INTRA.norm>
0.00137259

>  <SCORE.RESTR>
0.0161473

>  <SCORE.RESTR.CAVITY>
0.0161473

>  <SCORE.RESTR.norm>
0.0012421

>  <SCORE.SYSTEM>
0

>  <SCORE.SYSTEM.CONST>
0

>  <SCORE.SYSTEM.DIHEDRAL>
0

>  <SCORE.SYSTEM.SOLV>
0

>  <SCORE.SYSTEM.norm>
0

>  <SCORE.heavy>
13

>  <SCORE.norm>
-1.17943

>  <RMSD>
4.241

$$$$
ligand
 OpenBabel02271912143D
libRbt.so/2013.1/901 2013/11/27
 13 14  0  0  0  0  0  0  0  0999 V2000
   36.9108   34.7321   25.1475 N   0  0  0  0  0  0  0  0  0  0  0  0
   37.0301   34.1144   26.4059 C   0  0  0  0  0  0  0  0  0  0  0  0
   38.1117   34.4998   27.1867 N   0  0  0  0  0  0  0  0  0  0  0  0
   36.2032   33.1619   26.9006 N   0  0  0  0  0  0  0  0  0  0  0  0
   35.1809   32.8447   26.0113 C   0  0  0  0  0  0  0  0  0  0  0  0
   34.9744   33.4163   24.7499 C   0  0  0  0  0  0  0  0  0  0  0  0
   35.8464   34.3971   24.2551 C   0  0  0  0  0  0  0  0  0  0  0  0
   35.7843   34.9571   23.1704 O   0  0  0  0  0  0  0  0  0  0  0  0
   33.8327   32.8268   24.1602 C   0  0  0  0  0  0  0  0  0  0  0  0
   33.3511   31.9047   25.0764 C   0  0  0  0  0  0  0  0  0  0  0  0
   34.1801   31.9150   26.2265 N   0  0  0  0  0  0  0  0  0  0  0  0
   33.3329   33.1731   22.8019 C   0  0  0  0  0  0  0  0  0  0  0  0
   32.5051   32.0868   22.2548 N   0  0  0  0  0  0  0  0  0  0  0  0
  1  2  1  0  0  0  0
  1  7  1  0  0  0  0
  2  3  1  0  0  0  0
  2  4  2  0  0  0  0
  4  5  1  0  0  0  0
  5  6  2  0  0  0  0
  5 11  1  0  0  0  0
  6  7  1  0  0  0  0
  6  9  1  0  0  0  0
  7  8  2  0  0  0  0
  9 10  2  0  0  0  0
  9 12  1  0  0  0  0
 10 11  1  0  0  0  0
 12 13  1  0  0  0  0
M  END
>  <CHROM.1>
157.77858058,35.18896381,33.41454753,24.91778589,-0.38738530,-0.64276239
-1.07514465

>  <Name>
ligand

>  <RI>
0

>  <Rbt.Current_Directory>
/home/itssahil/PROJECTS/Mol_Feturizer/Test_systems_manuscript/rnas/3q50

>  <Rbt.Executable>
rbdock ($Id: //depot/dev/client3/rdock/2013.1/src/exe/rbdock.cxx#4 $)

>  <Rbt.Library>
libRbt.so (2013.1, Build901 2013/11/27)

>  <Rbt.Parameter_File>
/export/apps/rDock/src/rDock_2013.1_src/data/scripts/dock_solv.prm

>  <Rbt.Receptor>
prm/blind_docking_80.prm

>  <SCORE>
-15.2995

>  <SCORE.INTER>
-15.3304

>  <SCORE.INTER.CONST>
1

>  <SCORE.INTER.POLAR>
0

>  <SCORE.INTER.ROT>
1

>  <SCORE.INTER.SOLV>
20.803

>  <SCORE.INTER.VDW>
-21.4212

>  <SCORE.INTER.norm>
-1.17926

>  <SCORE.INTRA>
0.0191545

>  <SCORE.INTRA.DIHEDRAL>
0.0781498

>  <SCORE.INTRA.DIHEDRAL.0>
1.65305

>  <SCORE.INTRA.POLAR>
0

>  <SCORE.INTRA.POLAR.0>
0

>  <SCORE.INTRA.REPUL>
0

>  <SCORE.INTRA.REPUL.0>
0

>  <SCORE.INTRA.SOLV>
0.00207451

>  <SCORE.INTRA.SOLV.lig_0>
-46.9527

>  <SCORE.INTRA.VDW>
-0.0209577

>  <SCORE.INTRA.VDW.0>
-0.177978

>  <SCORE.INTRA.norm>
0.00147342

>  <SCORE.RESTR>
0.0116932

>  <SCORE.RESTR.CAVITY>
0.0116932

>  <SCORE.RESTR.norm>
0.000899474

>  <SCORE.SYSTEM>
0

>  <SCORE.SYSTEM.CONST>
0

>  <SCORE.SYSTEM.DIHEDRAL>
0

>  <SCORE.SYSTEM.SOLV>
0

>  <SCORE.SYSTEM.norm>
0

>  <SCORE.heavy>
13

>  <SCORE.norm>
-1.17689

>  <RMSD>
4.241

$$$$
ligand
 OpenBabel02271912143D
libRbt.so/2013.1/901 2013/11/27
 13 14  0  0  0  0  0  0  0  0999 V2000
   36.9195   34.7180   25.1520 N   0  0  0  0  0  0  0  0  0  0  0  0
   37.0506   34.0866   26.4024 C   0  0  0  0  0  0  0  0  0  0  0  0
   38.1404   34.4623   27.1764 N   0  0  0  0  0  0  0  0  0  0  0  0
   36.2276   33.1296   26.8950 N   0  0  0  0  0  0  0  0  0  0  0  0
   35.1961   32.8232   26.0126 C   0  0  0  0  0  0  0  0  0  0  0  0
   34.9776   33.4087   24.7595 C   0  0  0  0  0  0  0  0  0  0  0  0
   35.8458   34.3939   24.2667 C   0  0  0  0  0  0  0  0  0  0  0  0
   35.7736   34.9657   23.1889 O   0  0  0  0  0  0  0  0  0  0  0  0
   33.8294   32.8268   24.1749 C   0  0  0  0  0  0  0  0  0  0  0  0
   33.3559   31.8954   25.0859 C   0  0  0  0  0  0  0  0  0  0  0  0
   34.1964   31.8923   26.2277 N   0  0  0  0  0  0  0  0  0  0  0  0
   33.3165   33.1884   22.8256 C   0  0  0  0  0  0  0  0  0  0  0  0
   32.4112   32.1484   22.3125 N   0  0  0  0  0  0  0  0  0  0  0  0
  1  2  1  0  0  0  0
  1  7  1  0  0  0  0
  2  3  1  0  0  0  0
  2  4  2  0  0  0  0
  4  5  1  0  0  0  0
  5  6  2  0  0  0  0
  5 11  1  0  0  0  0
  6  7  1  0  0  0  0
  6  9  1  0  0  0  0
  7  8  2  0  0  0  0
  9 10  2  0  0  0  0
  9 12  1  0  0  0  0
 10 11  1  0  0  0  0
 12 13  1  0  0  0  0
M  END
>  <CHROM.1>
161.49710781,35.18812767,33.40809053,24.92832843,-0.37235306,-0.63185514
-1.05400463

>  <Name>
ligand

>  <RI>
0

>  <Rbt.Current_Directory>
/home/itssahil/PROJECTS/Mol_Feturizer/Test_systems_manuscript/rnas/3q50

>  <Rbt.Executable>
rbdock ($Id: //depot/dev/client3/rdock/2013.1/src/exe/rbdock.cxx#4 $)

>  <Rbt.Library>
libRbt.so (2013.1, Build901 2013/11/27)

>  <Rbt.Parameter_File>
/export/apps/rDock/src/rDock_2013.1_src/data/scripts/dock_solv.prm

>  <Rbt.Receptor>
prm/blind_docking_80.prm

>  <SCORE>
-15.3406

>  <SCORE.INTER>
-15.4056

>  <SCORE.INTER.CONST>
1

>  <SCORE.INTER.POLAR>
0

>  <SCORE.INTER.ROT>
1

>  <SCORE.INTER.SOLV>
20.6005

>  <SCORE.INTER.VDW>
-21.4039

>  <SCORE.INTER.norm>
-1.18504

>  <SCORE.INTRA>
0.0245638

>  <SCORE.INTRA.DIHEDRAL>
0.0725072

>  <SCORE.INTRA.DIHEDRAL.0>
1.65305

>  <SCORE.INTRA.POLAR>
0

>  <SCORE.INTRA.POLAR.0>
0

>  <SCORE.INTRA.REPUL>
0

>  <SCORE.INTRA.REPUL.0>
0

>  <SCORE.INTRA.SOLV>
0.00226329

>  <SCORE.INTRA.SOLV.lig_0>
-46.9527

>  <SCORE.INTRA.VDW>
-0.0128214

>  <SCORE.INTRA.VDW.0>
-0.177978

>  <SCORE.INTRA.norm>
0.00188952

>  <SCORE.RESTR>
0.0404295

>  <SCORE.RESTR.CAVITY>
0.0404295

>  <SCORE.RESTR.norm>
0.00310996

>  <SCORE.SYSTEM>
0

>  <SCORE.SYSTEM.CONST>
0

>  <SCORE.SYSTEM.DIHEDRAL>
0

>  <SCORE.SYSTEM.SOLV>
0

>  <SCORE.SYSTEM.norm>
0

>  <SCORE.heavy>
13

>  <SCORE.norm>
-1.18004

>  <RMSD>
4.244

$$$$
ligand
 OpenBabel02271912143D
libRbt.so/2013.1/901 2013/11/27
 13 14  0  0  0  0  0  0  0  0999 V2000
   36.8546   35.0078   24.5647 N   0  0  0  0  0  0  0  0  0  0  0  0
   37.1184   34.5689   25.8751 C   0  0  0  0  0  0  0  0  0  0  0  0
   38.2300   35.1169   26.5014 N   0  0  0  0  0  0  0  0  0  0  0  0
   36.4033   33.6424   26.5575 N   0  0  0  0  0  0  0  0  0  0  0  0
   35.3372   33.1512   25.8101 C   0  0  0  0  0  0  0  0  0  0  0  0
   34.9895   33.5389   24.5103 C   0  0  0  0  0  0  0  0  0  0  0  0
   35.7476   34.4962   23.8202 C   0  0  0  0  0  0  0  0  0  0  0  0
   35.5587   34.9042   22.6836 O   0  0  0  0  0  0  0  0  0  0  0  0
   33.8481   32.8105   24.1038 C   0  0  0  0  0  0  0  0  0  0  0  0
   33.5082   31.9899   25.1681 C   0  0  0  0  0  0  0  0  0  0  0  0
   34.4248   32.2002   26.2290 N   0  0  0  0  0  0  0  0  0  0  0  0
   33.2169   32.9452   22.7629 C   0  0  0  0  0  0  0  0  0  0  0  0
   31.8427   32.4199   22.7748 N   0  0  0  0  0  0  0  0  0  0  0  0
  1  2  1  0  0  0  0
  1  7  1  0  0  0  0
  2  3  1  0  0  0  0
  2  4  2  0  0  0  0
  4  5  1  0  0  0  0
  5  6  2  0  0  0  0
  5 11  1  0  0  0  0
  6  7  1  0  0  0  0
  6  9  1  0  0  0  0
  7  8  2  0  0  0  0
  9 10  2  0  0  0  0
  9 12  1  0  0  0  0
 10 11  1  0  0  0  0
 12 13  1  0  0  0  0
M  END
>  <CHROM.1>
-161.69672221,35.16914816,33.62650093,24.68509756,-0.23374906,-0.59805074
-1.09065588

>  <Name>
ligand

>  <RI>
0

>  <Rbt.Current_Directory>
/home/itssahil/PROJECTS/Mol_Feturizer/Test_systems_manuscript/rnas/3q50

>  <Rbt.Executable>
rbdock ($Id: //depot/dev/client3/rdock/2013.1/src/exe/rbdock.cxx#4 $)

>  <Rbt.Library>
libRbt.so (2013.1, Build901 2013/11/27)

>  <Rbt.Parameter_File>
/export/apps/rDock/src/rDock_2013.1_src/data/scripts/dock_solv.prm

>  <Rbt.Receptor>
prm/blind_docking_80.prm

>  <SCORE>
-15.5071

>  <SCORE.INTER>
-15.6103

>  <SCORE.INTER.CONST>
1

>  <SCORE.INTER.POLAR>
0

>  <SCORE.INTER.ROT>
1

>  <SCORE.INTER.SOLV>
21.3262

>  <SCORE.INTER.VDW>
-21.7823

>  <SCORE.INTER.norm>
-1.20079

>  <SCORE.INTRA>
-0.0277722

>  <SCORE.INTRA.DIHEDRAL>
-0.0204424

>  <SCORE.INTRA.DIHEDRAL.0>
1.65305

>  <SCORE.INTRA.POLAR>
0

>  <SCORE.INTRA.POLAR.0>
0

>  <SCORE.INTRA.REPUL>
0

>  <SCORE.INTRA.REPUL.0>
0

>  <SCORE.INTRA.SOLV>
-0.00232807

>  <SCORE.INTRA.SOLV.lig_0>
-46.9527

>  <SCORE.INTRA.VDW>
-0.016387

>  <SCORE.INTRA.VDW.0>
-0.177978

>  <SCORE.INTRA.norm>
-0.00213632

>  <SCORE.RESTR>
0.130972

>  <SCORE.RESTR.CAVITY>
0.130972

>  <SCORE.RESTR.norm>
0.0100748

>  <SCORE.SYSTEM>
0

>  <SCORE.SYSTEM.CONST>
0

>  <SCORE.SYSTEM.DIHEDRAL>
0

>  <SCORE.SYSTEM.SOLV>
0

>  <SCORE.SYSTEM.norm>
0

>  <SCORE.heavy>
13

>  <SCORE.norm>
-1.19286

>  <RMSD>
4.246

$$$$
ligand
 OpenBabel02271912143D
libRbt.so/2013.1/901 2013/11/27
 13 14  0  0  0  0  0  0  0  0999 V2000
   37.6497   34.1155   26.4375 N   0  0  0  0  0  0  0  0  0  0  0  0
   37.6077   33.0218   27.3215 C   0  0  0  0  0  0  0  0  0  0  0  0
   38.6012   32.9679   28.2900 N   0  0  0  0  0  0  0  0  0  0  0  0
   36.7060   32.0112   27.2866 N   0  0  0  0  0  0  0  0  0  0  0  0
   35.7856   32.1680   26.2547 C   0  0  0  0  0  0  0  0  0  0  0  0
   35.7401   33.2274   25.3402 C   0  0  0  0  0  0  0  0  0  0  0  0
   36.6873   34.2606   25.3913 C   0  0  0  0  0  0  0  0  0  0  0  0
   36.7646   35.2253   24.6449 O   0  0  0  0  0  0  0  0  0  0  0  0
   34.6598   33.0209   24.4519 C   0  0  0  0  0  0  0  0  0  0  0  0
   34.0531   31.8372   24.8423 C   0  0  0  0  0  0  0  0  0  0  0  0
   34.7439   31.3072   25.9611 N   0  0  0  0  0  0  0  0  0  0  0  0
   34.3287   33.9376   23.3273 C   0  0  0  0  0  0  0  0  0  0  0  0
   33.2817   33.3596   22.4703 N   0  0  0  0  0  0  0  0  0  0  0  0
  1  2  1  0  0  0  0
  1  7  1  0  0  0  0
  2  3  1  0  0  0  0
  2  4  2  0  0  0  0
  4  5  1  0  0  0  0
  5  6  2  0  0  0  0
  5 11  1  0  0  0  0
  6  7  1  0  0  0  0
  6  9  1  0  0  0  0
  7  8  2  0  0  0  0
  9 10  2  0  0  0  0
  9 12  1  0  0  0  0
 10 11  1  0  0  0  0
 12 13  1  0  0  0  0
M  END
>  <CHROM.1>
171.78631060,35.91250234,33.15009025,25.52514186,-0.51420325,-0.65291003
-0.70914518

>  <Name>
ligand

>  <RI>
0

>  <Rbt.Current_Directory>
/home/itssahil/PROJECTS/Mol_Feturizer/Test_systems_manuscript/rnas/3q50

>  <Rbt.Executable>
rbdock ($Id: //depot/dev/client3/rdock/2013.1/src/exe/rbdock.cxx#4 $)

>  <Rbt.Library>
libRbt.so (2013.1, Build901 2013/11/27)

>  <Rbt.Parameter_File>
/export/apps/rDock/src/rDock_2013.1_src/data/scripts/dock_solv.prm

>  <Rbt.Receptor>
prm/blind_docking_60.prm

>  <SCORE>
-15.0532

>  <SCORE.INTER>
-15.0828

>  <SCORE.INTER.CONST>
1

>  <SCORE.INTER.POLAR>
0

>  <SCORE.INTER.ROT>
1

>  <SCORE.INTER.SOLV>
17.9406

>  <SCORE.INTER.VDW>
-20.3021

>  <SCORE.INTER.norm>
-1.16022

>  <SCORE.INTRA>
0.0283694

>  <SCORE.INTRA.DIHEDRAL>
0.0488089

>  <SCORE.INTRA.DIHEDRAL.0>
1.65305

>  <SCORE.INTRA.POLAR>
0

>  <SCORE.INTRA.POLAR.0>
0

>  <SCORE.INTRA.REPUL>
0

>  <SCORE.INTRA.REPUL.0>
0

>  <SCORE.INTRA.SOLV>
0.00222968

>  <SCORE.INTRA.SOLV.lig_0>
-46.9527

>  <SCORE.INTRA.VDW>
0.00285007

>  <SCORE.INTRA.VDW.0>
-0.177978

>  <SCORE.INTRA.norm>
0.00218226

>  <SCORE.RESTR>
0.00123777

>  <SCORE.RESTR.CAVITY>
0.00123777

>  <SCORE.RESTR.norm>
9.52129e-05

>  <SCORE.SYSTEM>
0

>  <SCORE.SYSTEM.CONST>
0

>  <SCORE.SYSTEM.DIHEDRAL>
0

>  <SCORE.SYSTEM.SOLV>
0

>  <SCORE.SYSTEM.norm>
0

>  <SCORE.heavy>
13

>  <SCORE.norm>
-1.15794

>  <RMSD>
4.247

$$$$
ligand
 OpenBabel02271912143D
libRbt.so/2013.1/901 2013/11/27
 13 14  0  0  0  0  0  0  0  0999 V2000
   37.6312   34.1116   26.4217 N   0  0  0  0  0  0  0  0  0  0  0  0
   37.6025   33.0119   27.2987 C   0  0  0  0  0  0  0  0  0  0  0  0
   38.6001   32.9607   28.2632 N   0  0  0  0  0  0  0  0  0  0  0  0
   36.7098   31.9933   27.2606 N   0  0  0  0  0  0  0  0  0  0  0  0
   35.7841   32.1485   26.2332 C   0  0  0  0  0  0  0  0  0  0  0  0
   35.7256   33.2133   25.3258 C   0  0  0  0  0  0  0  0  0  0  0  0
   36.6636   34.2547   25.3801 C   0  0  0  0  0  0  0  0  0  0  0  0
   36.7293   35.2249   24.6397 O   0  0  0  0  0  0  0  0  0  0  0  0
   34.6439   33.0028   24.4402 C   0  0  0  0  0  0  0  0  0  0  0  0
   34.0494   31.8111   24.8251 C   0  0  0  0  0  0  0  0  0  0  0  0
   34.7492   31.2801   25.9378 N   0  0  0  0  0  0  0  0  0  0  0  0
   34.3002   33.9236   23.3228 C   0  0  0  0  0  0  0  0  0  0  0  0
   33.0198   33.5444   22.7054 N   0  0  0  0  0  0  0  0  0  0  0  0
  1  2  1  0  0  0  0
  1  7  1  0  0  0  0
  2  3  1  0  0  0  0
  2  4  2  0  0  0  0
  4  5  1  0  0  0  0
  5  6  2  0  0  0  0
  5 11  1  0  0  0  0
  6  7  1  0  0  0  0
  6  9  1  0  0  0  0
  7  8  2  0  0  0  0
  9 10  2  0  0  0  0
  9 12  1  0  0  0  0
 10 11  1  0  0  0  0
 12 13  1  0  0  0  0
M  END
>  <CHROM.1>
-171.80783356,35.88022084,33.15283225,25.52904934,-0.49037048,-0.63288588
-0.67450163

>  <Name>
ligand

>  <RI>
0

>  <Rbt.Current_Directory>
/home/itssahil/PROJECTS/Mol_Feturizer/Test_systems_manuscript/rnas/3q50

>  <Rbt.Executable>
rbdock ($Id: //depot/dev/client3/rdock/2013.1/src/exe/rbdock.cxx#4 $)

>  <Rbt.Library>
libRbt.so (2013.1, Build901 2013/11/27)

>  <Rbt.Parameter_File>
/export/apps/rDock/src/rDock_2013.1_src/data/scripts/dock_solv.prm

>  <Rbt.Receptor>
prm/blind_docking_60.prm

>  <SCORE>
-15.1151

>  <SCORE.INTER>
-15.1169

>  <SCORE.INTER.CONST>
1

>  <SCORE.INTER.POLAR>
0

>  <SCORE.INTER.ROT>
1

>  <SCORE.INTER.SOLV>
18.2266

>  <SCORE.INTER.VDW>
-20.4201

>  <SCORE.INTER.norm>
-1.16284

>  <SCORE.INTRA>
0.0016827

>  <SCORE.INTRA.DIHEDRAL>
0.00168448

>  <SCORE.INTRA.DIHEDRAL.0>
1.65305

>  <SCORE.INTRA.POLAR>
0

>  <SCORE.INTRA.POLAR.0>
0

>  <SCORE.INTRA.REPUL>
0

>  <SCORE.INTRA.REPUL.0>
0

>  <SCORE.INTRA.SOLV>
0.000132768

>  <SCORE.INTRA.SOLV.lig_0>
-46.9527

>  <SCORE.INTRA.VDW>
0.000774075

>  <SCORE.INTRA.VDW.0>
-0.177978

>  <SCORE.INTRA.norm>
0.000129439

>  <SCORE.RESTR>
9.14951e-05

>  <SCORE.RESTR.CAVITY>
9.14951e-05

>  <SCORE.RESTR.norm>
7.03808e-06

>  <SCORE.SYSTEM>
0

>  <SCORE.SYSTEM.CONST>
0

>  <SCORE.SYSTEM.DIHEDRAL>
0

>  <SCORE.SYSTEM.SOLV>
0

>  <SCORE.SYSTEM.norm>
0

>  <SCORE.heavy>
13

>  <SCORE.norm>
-1.1627

>  <RMSD>
4.248

$$$$
ligand
 OpenBabel02271912143D
libRbt.so/2013.1/901 2013/11/27
 13 14  0  0  0  0  0  0  0  0999 V2000
   36.9522   34.6958   25.1517 N   0  0  0  0  0  0  0  0  0  0  0  0
   37.0610   34.0818   26.4129 C   0  0  0  0  0  0  0  0  0  0  0  0
   38.1436   34.4594   27.1960 N   0  0  0  0  0  0  0  0  0  0  0  0
   36.2229   33.1394   26.9082 N   0  0  0  0  0  0  0  0  0  0  0  0
   35.2006   32.8290   26.0165 C   0  0  0  0  0  0  0  0  0  0  0  0
   35.0042   33.3979   24.7522 C   0  0  0  0  0  0  0  0  0  0  0  0
   35.8876   34.3681   24.2568 C   0  0  0  0  0  0  0  0  0  0  0  0
   35.8349   34.9247   23.1699 O   0  0  0  0  0  0  0  0  0  0  0  0
   33.8587   32.8176   24.1607 C   0  0  0  0  0  0  0  0  0  0  0  0
   33.3648   31.9038   25.0787 C   0  0  0  0  0  0  0  0  0  0  0  0
   34.1899   31.9101   26.2316 N   0  0  0  0  0  0  0  0  0  0  0  0
   33.3671   33.1637   22.7994 C   0  0  0  0  0  0  0  0  0  0  0  0
   32.1867   32.3591   22.4476 N   0  0  0  0  0  0  0  0  0  0  0  0
  1  2  1  0  0  0  0
  1  7  1  0  0  0  0
  2  3  1  0  0  0  0
  2  4  2  0  0  0  0
  4  5  1  0  0  0  0
  5  6  2  0  0  0  0
  5 11  1  0  0  0  0
  6  7  1  0  0  0  0
  6  9  1  0  0  0  0
  7  8  2  0  0  0  0
  9 10  2  0  0  0  0
  9 12  1  0  0  0  0
 10 11  1  0  0  0  0
 12 13  1  0  0  0  0
M  END
>  <CHROM.1>
177.94943998,35.19017270,33.41707639,24.93670376,-0.37703141,-0.60643521
-1.06273861

>  <Name>
ligand

>  <RI>
0

>  <Rbt.Current_Directory>
/home/itssahil/PROJECTS/Mol_Feturizer/Test_systems_manuscript/rnas/3q50

>  <Rbt.Executable>
rbdock ($Id: //depot/dev/client3/rdock/2013.1/src/exe/rbdock.cxx#4 $)

>  <Rbt.Library>
libRbt.so (2013.1, Build901 2013/11/27)

>  <Rbt.Parameter_File>
/export/apps/rDock/src/rDock_2013.1_src/data/scripts/dock_solv.prm

>  <Rbt.Receptor>
prm/blind_docking_60.prm

>  <SCORE>
-15.2682

>  <SCORE.INTER>
-15.3345

>  <SCORE.INTER.CONST>
1

>  <SCORE.INTER.POLAR>
0

>  <SCORE.INTER.ROT>
1

>  <SCORE.INTER.SOLV>
20.7274

>  <SCORE.INTER.VDW>
-21.3988

>  <SCORE.INTER.norm>
-1.17957

>  <SCORE.INTRA>
0.0226334

>  <SCORE.INTRA.DIHEDRAL>
0.0311188

>  <SCORE.INTRA.DIHEDRAL.0>
1.65305

>  <SCORE.INTRA.POLAR>
0

>  <SCORE.INTRA.POLAR.0>
0

>  <SCORE.INTRA.REPUL>
0

>  <SCORE.INTRA.REPUL.0>
0

>  <SCORE.INTRA.SOLV>
0.00174629

>  <SCORE.INTRA.SOLV.lig_0>
-46.9527

>  <SCORE.INTRA.VDW>
0.00620087

>  <SCORE.INTRA.VDW.0>
-0.177978

>  <SCORE.INTRA.norm>
0.00174103

>  <SCORE.RESTR>
0.0436247

>  <SCORE.RESTR.CAVITY>
0.0436247

>  <SCORE.RESTR.norm>
0.00335575

>  <SCORE.SYSTEM>
0

>  <SCORE.SYSTEM.CONST>
0

>  <SCORE.SYSTEM.DIHEDRAL>
0

>  <SCORE.SYSTEM.SOLV>
0

>  <SCORE.SYSTEM.norm>
0

>  <SCORE.heavy>
13

>  <SCORE.norm>
-1.17448

>  <RMSD>
4.250

$$$$
ligand
 OpenBabel02271912143D
libRbt.so/2013.1/901 2013/11/27
 13 14  0  0  0  0  0  0  0  0999 V2000
   37.6131   34.1542   26.4805 N   0  0  0  0  0  0  0  0  0  0  0  0
   37.6074   33.0369   27.3354 C   0  0  0  0  0  0  0  0  0  0  0  0
   38.6004   32.9919   28.3049 N   0  0  0  0  0  0  0  0  0  0  0  0
   36.7415   31.9968   27.2713 N   0  0  0  0  0  0  0  0  0  0  0  0
   35.8181   32.1488   26.2413 C   0  0  0  0  0  0  0  0  0  0  0  0
   35.7376   33.2297   25.3549 C   0  0  0  0  0  0  0  0  0  0  0  0
   36.6482   34.2934   25.4358 C   0  0  0  0  0  0  0  0  0  0  0  0
   36.6934   35.2796   24.7152 O   0  0  0  0  0  0  0  0  0  0  0  0
   34.6668   33.0094   24.4584 C   0  0  0  0  0  0  0  0  0  0  0  0
   34.1008   31.7955   24.8158 C   0  0  0  0  0  0  0  0  0  0  0  0
   34.8076   31.2604   25.9223 N   0  0  0  0  0  0  0  0  0  0  0  0
   34.3062   33.9433   23.3573 C   0  0  0  0  0  0  0  0  0  0  0  0
   32.9968   33.5966   22.7830 N   0  0  0  0  0  0  0  0  0  0  0  0
  1  2  1  0  0  0  0
  1  7  1  0  0  0  0
  2  3  1  0  0  0  0
  2  4  2  0  0  0  0
  4  5  1  0  0  0  0
  5  6  2  0  0  0  0
  5 11  1  0  0  0  0
  6  7  1  0  0  0  0
  6  9  1  0  0  0  0
  7  8  2  0  0  0  0
  9 10  2  0  0  0  0
  9 12  1  0  0  0  0
 10 11  1  0  0  0  0
 12 13  1  0  0  0  0
M  END
>  <CHROM.1>
-168.06836853,35.88906634,33.17345265,25.56265715,-0.46827347,-0.64815075
-0.63754633

>  <Name>
ligand

>  <RI>
0

>  <Rbt.Current_Directory>
/home/itssahil/PROJECTS/Mol_Feturizer/Test_systems_manuscript/rnas/3q50

>  <Rbt.Executable>
rbdock ($Id: //depot/dev/client3/rdock/2013.1/src/exe/rbdock.cxx#4 $)

>  <Rbt.Library>
libRbt.so (2013.1, Build901 2013/11/27)

>  <Rbt.Parameter_File>
/export/apps/rDock/src/rDock_2013.1_src/data/scripts/dock_solv.prm

>  <Rbt.Receptor>
prm/blind_docking_100.prm

>  <SCORE>
-15.1817

>  <SCORE.INTER>
-15.1735

>  <SCORE.INTER.CONST>
1

>  <SCORE.INTER.POLAR>
0

>  <SCORE.INTER.ROT>
1

>  <SCORE.INTER.SOLV>
18.4186

>  <SCORE.INTER.VDW>
-20.5219

>  <SCORE.INTER.norm>
-1.16719

>  <SCORE.INTRA>
-0.00858295

>  <SCORE.INTRA.DIHEDRAL>
-0.00768904

>  <SCORE.INTRA.DIHEDRAL.0>
1.65305

>  <SCORE.INTRA.POLAR>
0

>  <SCORE.INTRA.POLAR.0>
0

>  <SCORE.INTRA.REPUL>
0

>  <SCORE.INTRA.REPUL.0>
0

>  <SCORE.INTRA.SOLV>
-0.000690166

>  <SCORE.INTRA.SOLV.lig_0>
-46.9527

>  <SCORE.INTRA.VDW>
-0.00439335

>  <SCORE.INTRA.VDW.0>
-0.177978

>  <SCORE.INTRA.norm>
-0.000660227

>  <SCORE.RESTR>
0.000393408

>  <SCORE.RESTR.CAVITY>
0.000393408

>  <SCORE.RESTR.norm>
3.02621e-05

>  <SCORE.SYSTEM>
0

>  <SCORE.SYSTEM.CONST>
0

>  <SCORE.SYSTEM.DIHEDRAL>
0

>  <SCORE.SYSTEM.SOLV>
0

>  <SCORE.SYSTEM.norm>
0

>  <SCORE.heavy>
13

>  <SCORE.norm>
-1.16782

>  <RMSD>
4.251

$$$$
ligand
 OpenBabel02271912143D
libRbt.so/2013.1/901 2013/11/27
 13 14  0  0  0  0  0  0  0  0999 V2000
   37.6018   34.1627   26.4866 N   0  0  0  0  0  0  0  0  0  0  0  0
   37.6047   33.0404   27.3350 C   0  0  0  0  0  0  0  0  0  0  0  0
   38.6007   32.9952   28.3014 N   0  0  0  0  0  0  0  0  0  0  0  0
   36.7441   31.9961   27.2674 N   0  0  0  0  0  0  0  0  0  0  0  0
   35.8170   32.1491   26.2410 C   0  0  0  0  0  0  0  0  0  0  0  0
   35.7280   33.2347   25.3611 C   0  0  0  0  0  0  0  0  0  0  0  0
   36.6332   34.3027   25.4456 C   0  0  0  0  0  0  0  0  0  0  0  0
   36.6710   35.2934   24.7306 O   0  0  0  0  0  0  0  0  0  0  0  0
   34.6559   33.0138   24.4665 C   0  0  0  0  0  0  0  0  0  0  0  0
   34.0975   31.7948   24.8184 C   0  0  0  0  0  0  0  0  0  0  0  0
   34.8103   31.2571   25.9197 N   0  0  0  0  0  0  0  0  0  0  0  0
   34.2870   33.9521   23.3719 C   0  0  0  0  0  0  0  0  0  0  0  0
   32.9890   33.5872   22.7833 N   0  0  0  0  0  0  0  0  0  0  0  0
  1  2  1  0  0  0  0
  1  7  1  0  0  0  0
  2  3  1  0  0  0  0
  2  4  2  0  0  0  0
  4  5  1  0  0  0  0
  5  6  2  0  0  0  0
  5 11  1  0  0  0  0
  6  7  1  0  0  0  0
  6  9  1  0  0  0  0
  7  8  2  0  0  0  0
  9 10  2  0  0  0  0
  9 12  1  0  0  0  0
 10 11  1  0  0  0  0
 12 13  1  0  0  0  0
M  END
>  <CHROM.1>
-169.08276191,35.88133385,33.17684000,25.56678858,-0.46100706,-0.65039643
-0.62839244

>  <Name>
ligand

>  <RI>
0

>  <Rbt.Current_Directory>
/home/itssahil/PROJECTS/Mol_Feturizer/Test_systems_manuscript/rnas/3q50

>  <Rbt.Executable>
rbdock ($Id: //depot/dev/client3/rdock/2013.1/src/exe/rbdock.cxx#4 $)

>  <Rbt.Library>
libRbt.so (2013.1, Build901 2013/11/27)

>  <Rbt.Parameter_File>
/export/apps/rDock/src/rDock_2013.1_src/data/scripts/dock_solv.prm

>  <Rbt.Receptor>
prm/blind_docking_80.prm

>  <SCORE>
-15.1812

>  <SCORE.INTER>
-15.1762

>  <SCORE.INTER.CONST>
1

>  <SCORE.INTER.POLAR>
0

>  <SCORE.INTER.ROT>
1

>  <SCORE.INTER.SOLV>
18.3944

>  <SCORE.INTER.VDW>
-20.5156

>  <SCORE.INTER.norm>
-1.1674

>  <SCORE.INTRA>
-0.00569994

>  <SCORE.INTRA.DIHEDRAL>
-0.00526296

>  <SCORE.INTRA.DIHEDRAL.0>
1.65305

>  <SCORE.INTRA.POLAR>
0

>  <SCORE.INTRA.POLAR.0>
0

>  <SCORE.INTRA.REPUL>
0

>  <SCORE.INTRA.REPUL.0>
0

>  <SCORE.INTRA.SOLV>
-0.000455783

>  <SCORE.INTRA.SOLV.lig_0>
-46.9527

>  <SCORE.INTRA.VDW>
-0.00284056

>  <SCORE.INTRA.VDW.0>
-0.177978

>  <SCORE.INTRA.norm>
-0.000438457

>  <SCORE.RESTR>
0.000718585

>  <SCORE.RESTR.CAVITY>
0.000718585

>  <SCORE.RESTR.norm>
5.52758e-05

>  <SCORE.SYSTEM>
0

>  <SCORE.SYSTEM.CONST>
0

>  <SCORE.SYSTEM.DIHEDRAL>
0

>  <SCORE.SYSTEM.SOLV>
0

>  <SCORE.SYSTEM.norm>
0

>  <SCORE.heavy>
13

>  <SCORE.norm>
-1.16778

>  <RMSD>
4.252

$$$$
ligand
 OpenBabel02271912143D
libRbt.so/2013.1/901 2013/11/27
 13 14  0  0  0  0  0  0  0  0999 V2000
   37.6078   34.1549   26.4881 N   0  0  0  0  0  0  0  0  0  0  0  0
   37.6054   33.0347   27.3393 C   0  0  0  0  0  0  0  0  0  0  0  0
   38.6000   32.9883   28.3072 N   0  0  0  0  0  0  0  0  0  0  0  0
   36.7412   31.9934   27.2732 N   0  0  0  0  0  0  0  0  0  0  0  0
   35.8159   32.1472   26.2452 C   0  0  0  0  0  0  0  0  0  0  0  0
   35.7322   33.2308   25.3624 C   0  0  0  0  0  0  0  0  0  0  0  0
   36.6411   34.2958   25.4454 C   0  0  0  0  0  0  0  0  0  0  0  0
   36.6835   35.2845   24.7280 O   0  0  0  0  0  0  0  0  0  0  0  0
   34.6604   33.0116   24.4669 C   0  0  0  0  0  0  0  0  0  0  0  0
   34.0971   31.7955   24.8212 C   0  0  0  0  0  0  0  0  0  0  0  0
   34.8065   31.2580   25.9248 N   0  0  0  0  0  0  0  0  0  0  0  0
   34.2965   33.9485   23.3694 C   0  0  0  0  0  0  0  0  0  0  0  0
   33.0477   33.5292   22.7143 N   0  0  0  0  0  0  0  0  0  0  0  0
  1  2  1  0  0  0  0
  1  7  1  0  0  0  0
  2  3  1  0  0  0  0
  2  4  2  0  0  0  0
  4  5  1  0  0  0  0
  5  6  2  0  0  0  0
  5 11  1  0  0  0  0
  6  7  1  0  0  0  0
  6  9  1  0  0  0  0
  7  8  2  0  0  0  0
  9 10  2  0  0  0  0
  9 12  1  0  0  0  0
 10 11  1  0  0  0  0
 12 13  1  0  0  0  0
M  END
>  <CHROM.1>
-173.27448445,35.88902226,33.16827192,25.56309850,-0.46753417,-0.65524557
-0.63899509

>  <Name>
ligand

>  <RI>
0

>  <Rbt.Current_Directory>
/home/itssahil/PROJECTS/Mol_Feturizer/Test_systems_manuscript/rnas/3q50

>  <Rbt.Executable>
rbdock ($Id: //depot/dev/client3/rdock/2013.1/src/exe/rbdock.cxx#4 $)

>  <Rbt.Library>
libRbt.so (2013.1, Build901 2013/11/27)

>  <Rbt.Parameter_File>
/export/apps/rDock/src/rDock_2013.1_src/data/scripts/dock_solv.prm

>  <Rbt.Receptor>
prm/blind_docking_80.prm

>  <SCORE>
-15.1698

>  <SCORE.INTER>
-15.1752

>  <SCORE.INTER.CONST>
1

>  <SCORE.INTER.POLAR>
0

>  <SCORE.INTER.ROT>
1

>  <SCORE.INTER.SOLV>
18.2655

>  <SCORE.INTER.VDW>
-20.472

>  <SCORE.INTER.norm>
-1.16733

>  <SCORE.INTRA>
0.00539916

>  <SCORE.INTRA.DIHEDRAL>
0.00564568

>  <SCORE.INTRA.DIHEDRAL.0>
1.65305

>  <SCORE.INTRA.POLAR>
0

>  <SCORE.INTRA.POLAR.0>
0

>  <SCORE.INTRA.REPUL>
0

>  <SCORE.INTRA.REPUL.0>
0

>  <SCORE.INTRA.SOLV>
0.000423412

>  <SCORE.INTRA.SOLV.lig_0>
-46.9527

>  <SCORE.INTRA.VDW>
0.00236462

>  <SCORE.INTRA.VDW.0>
-0.177978

>  <SCORE.INTRA.norm>
0.00041532

>  <SCORE.RESTR>
0

>  <SCORE.RESTR.CAVITY>
0

>  <SCORE.RESTR.norm>
0

>  <SCORE.SYSTEM>
0

>  <SCORE.SYSTEM.CONST>
0

>  <SCORE.SYSTEM.DIHEDRAL>
0

>  <SCORE.SYSTEM.SOLV>
0

>  <SCORE.SYSTEM.norm>
0

>  <SCORE.heavy>
13

>  <SCORE.norm>
-1.16691

>  <RMSD>
4.254

$$$$
ligand
 OpenBabel02271912143D
libRbt.so/2013.1/901 2013/11/27
 13 14  0  0  0  0  0  0  0  0999 V2000
   37.3756   35.6524   25.7967 N   0  0  0  0  0  0  0  0  0  0  0  0
   37.0991   36.4689   24.6849 C   0  0  0  0  0  0  0  0  0  0  0  0
   37.8034   37.6625   24.6007 N   0  0  0  0  0  0  0  0  0  0  0  0
   36.1893   36.2041   23.7165 N   0  0  0  0  0  0  0  0  0  0  0  0
   35.5326   34.9964   23.9330 C   0  0  0  0  0  0  0  0  0  0  0  0
   35.7523   34.1142   24.9979 C   0  0  0  0  0  0  0  0  0  0  0  0
   36.6955   34.4111   25.9926 C   0  0  0  0  0  0  0  0  0  0  0  0
   36.9660   33.7360   26.9749 O   0  0  0  0  0  0  0  0  0  0  0  0
   34.8893   33.0031   24.8590 C   0  0  0  0  0  0  0  0  0  0  0  0
   34.1565   33.2190   23.7023 C   0  0  0  0  0  0  0  0  0  0  0  0
   34.5542   34.4503   23.1226 N   0  0  0  0  0  0  0  0  0  0  0  0
   34.8294   31.8775   25.8307 C   0  0  0  0  0  0  0  0  0  0  0  0
   36.1788   31.3817   26.1429 N   0  0  0  0  0  0  0  0  0  0  0  0
  1  2  1  0  0  0  0
  1  7  1  0  0  0  0
  2  3  1  0  0  0  0
  2  4  2  0  0  0  0
  4  5  1  0  0  0  0
  5  6  2  0  0  0  0
  5 11  1  0  0  0  0
  6  7  1  0  0  0  0
  6  9  1  0  0  0  0
  7  8  2  0  0  0  0
  9 10  2  0  0  0  0
  9 12  1  0  0  0  0
 10 11  1  0  0  0  0
 12 13  1  0  0  0  0
M  END
>  <CHROM.1>
-48.62522021,36.03458229,34.39234423,24.99168188,-1.01240510,0.76912623,2.52708457

>  <Name>
ligand

>  <RI>
0

>  <Rbt.Current_Directory>
/home/itssahil/PROJECTS/Mol_Feturizer/Test_systems_manuscript/rnas/3q50

>  <Rbt.Executable>
rbdock ($Id: //depot/dev/client3/rdock/2013.1/src/exe/rbdock.cxx#4 $)

>  <Rbt.Library>
libRbt.so (2013.1, Build901 2013/11/27)

>  <Rbt.Parameter_File>
/export/apps/rDock/src/rDock_2013.1_src/data/scripts/dock_solv.prm

>  <Rbt.Receptor>
prm/blind_docking_100.prm

>  <SCORE>
-13.7571

>  <SCORE.INTER>
-14.8551

>  <SCORE.INTER.CONST>
1

>  <SCORE.INTER.POLAR>
0

>  <SCORE.INTER.ROT>
1

>  <SCORE.INTER.SOLV>
15.5236

>  <SCORE.INTER.VDW>
-19.3446

>  <SCORE.INTER.norm>
-1.1427

>  <SCORE.INTRA>
1.098

>  <SCORE.INTRA.DIHEDRAL>
-0.00636891

>  <SCORE.INTRA.DIHEDRAL.0>
1.65305

>  <SCORE.INTRA.POLAR>
0

>  <SCORE.INTRA.POLAR.0>
0

>  <SCORE.INTRA.REPUL>
0

>  <SCORE.INTRA.REPUL.0>
0

>  <SCORE.INTRA.SOLV>
2.10305

>  <SCORE.INTRA.SOLV.lig_0>
-46.9527

>  <SCORE.INTRA.VDW>
0.0496563

>  <SCORE.INTRA.VDW.0>
-0.177978

>  <SCORE.INTRA.norm>
0.0844612

>  <SCORE.RESTR>
0

>  <SCORE.RESTR.CAVITY>
0

>  <SCORE.RESTR.norm>
0

>  <SCORE.SYSTEM>
0

>  <SCORE.SYSTEM.CONST>
0

>  <SCORE.SYSTEM.DIHEDRAL>
0

>  <SCORE.SYSTEM.SOLV>
0

>  <SCORE.SYSTEM.norm>
0

>  <SCORE.heavy>
13

>  <SCORE.norm>
-1.05824

>  <RMSD>
4.351

$$$$
ligand
 OpenBabel02271912143D
libRbt.so/2013.1/901 2013/11/27
 13 14  0  0  0  0  0  0  0  0999 V2000
   37.3841   35.6552   25.7982 N   0  0  0  0  0  0  0  0  0  0  0  0
   37.1148   36.4786   24.6896 C   0  0  0  0  0  0  0  0  0  0  0  0
   37.8285   37.6670   24.6110 N   0  0  0  0  0  0  0  0  0  0  0  0
   36.2038   36.2251   23.7193 N   0  0  0  0  0  0  0  0  0  0  0  0
   35.5375   35.0217   23.9301 C   0  0  0  0  0  0  0  0  0  0  0  0
   35.7494   34.1333   24.9914 C   0  0  0  0  0  0  0  0  0  0  0  0
   36.6940   34.4185   25.9882 C   0  0  0  0  0  0  0  0  0  0  0  0
   36.9584   33.7371   26.9678 O   0  0  0  0  0  0  0  0  0  0  0  0
   34.8778   33.0295   24.8471 C   0  0  0  0  0  0  0  0  0  0  0  0
   34.1478   33.2561   23.6907 C   0  0  0  0  0  0  0  0  0  0  0  0
   34.5555   34.4867   23.1166 N   0  0  0  0  0  0  0  0  0  0  0  0
   34.8083   31.9003   25.8139 C   0  0  0  0  0  0  0  0  0  0  0  0
   36.1533   31.3899   26.1220 N   0  0  0  0  0  0  0  0  0  0  0  0
  1  2  1  0  0  0  0
  1  7  1  0  0  0  0
  2  3  1  0  0  0  0
  2  4  2  0  0  0  0
  4  5  1  0  0  0  0
  5  6  2  0  0  0  0
  5 11  1  0  0  0  0
  6  7  1  0  0  0  0
  6  9  1  0  0  0  0
  7  8  2  0  0  0  0
  9 10  2  0  0  0  0
  9 12  1  0  0  0  0
 10 11  1  0  0  0  0
 12 13  1  0  0  0  0
M  END
>  <CHROM.1>
-48.79665820,36.03381549,34.40894896,24.98637184,-1.00288787,0.76531063,2.52503107

>  <Name>
ligand

>  <RI>
0

>  <Rbt.Current_Directory>
/home/itssahil/PROJECTS/Mol_Feturizer/Test_systems_manuscript/rnas/3q50

>  <Rbt.Executable>
rbdock ($Id: //depot/dev/client3/rdock/2013.1/src/exe/rbdock.cxx#4 $)

>  <Rbt.Library>
libRbt.so (2013.1, Build901 2013/11/27)

>  <Rbt.Parameter_File>
/export/apps/rDock/src/rDock_2013.1_src/data/scripts/dock_solv.prm

>  <Rbt.Receptor>
prm/blind_docking_100.prm

>  <SCORE>
-13.732

>  <SCORE.INTER>
-14.82

>  <SCORE.INTER.CONST>
1

>  <SCORE.INTER.POLAR>
0

>  <SCORE.INTER.ROT>
1

>  <SCORE.INTER.SOLV>
15.5133

>  <SCORE.INTER.VDW>
-19.3177

>  <SCORE.INTER.norm>
-1.14

>  <SCORE.INTRA>
1.08799

>  <SCORE.INTRA.DIHEDRAL>
-0.00595672

>  <SCORE.INTRA.DIHEDRAL.0>
1.65305

>  <SCORE.INTRA.POLAR>
0

>  <SCORE.INTRA.POLAR.0>
0

>  <SCORE.INTRA.REPUL>
0

>  <SCORE.INTRA.REPUL.0>
0

>  <SCORE.INTRA.SOLV>
2.09843

>  <SCORE.INTRA.SOLV.lig_0>
-46.9527

>  <SCORE.INTRA.VDW>
0.0417513

>  <SCORE.INTRA.VDW.0>
-0.177978

>  <SCORE.INTRA.norm>
0.0836913

>  <SCORE.RESTR>
0

>  <SCORE.RESTR.CAVITY>
0

>  <SCORE.RESTR.norm>
0

>  <SCORE.SYSTEM>
0

>  <SCORE.SYSTEM.CONST>
0

>  <SCORE.SYSTEM.DIHEDRAL>
0

>  <SCORE.SYSTEM.SOLV>
0

>  <SCORE.SYSTEM.norm>
0

>  <SCORE.heavy>
13

>  <SCORE.norm>
-1.05631

>  <RMSD>
4.362

$$$$
ligand
 OpenBabel02271912143D
libRbt.so/2013.1/901 2013/11/27
 13 14  0  0  0  0  0  0  0  0999 V2000
   37.4472   35.7045   25.8619 N   0  0  0  0  0  0  0  0  0  0  0  0
   37.1611   36.5213   24.7526 C   0  0  0  0  0  0  0  0  0  0  0  0
   37.8546   37.7213   24.6698 N   0  0  0  0  0  0  0  0  0  0  0  0
   36.2516   36.2508   23.7854 N   0  0  0  0  0  0  0  0  0  0  0  0
   35.6061   35.0369   24.0003 C   0  0  0  0  0  0  0  0  0  0  0  0
   35.8359   34.1541   25.0626 C   0  0  0  0  0  0  0  0  0  0  0  0
   36.7784   34.4569   26.0561 C   0  0  0  0  0  0  0  0  0  0  0  0
   37.0569   33.7818   27.0362 O   0  0  0  0  0  0  0  0  0  0  0  0
   34.9824   33.0357   24.9228 C   0  0  0  0  0  0  0  0  0  0  0  0
   34.2454   33.2479   23.7680 C   0  0  0  0  0  0  0  0  0  0  0  0
   34.6309   34.4840   23.1906 N   0  0  0  0  0  0  0  0  0  0  0  0
   34.9345   31.9072   25.8918 C   0  0  0  0  0  0  0  0  0  0  0  0
   36.2894   31.4276   26.2059 N   0  0  0  0  0  0  0  0  0  0  0  0
  1  2  1  0  0  0  0
  1  7  1  0  0  0  0
  2  3  1  0  0  0  0
  2  4  2  0  0  0  0
  4  5  1  0  0  0  0
  5  6  2  0  0  0  0
  5 11  1  0  0  0  0
  6  7  1  0  0  0  0
  6  9  1  0  0  0  0
  7  8  2  0  0  0  0
  9 10  2  0  0  0  0
  9 12  1  0  0  0  0
 10 11  1  0  0  0  0
 12 13  1  0  0  0  0
M  END
>  <CHROM.1>
-48.30247801,36.11567195,34.43507085,25.05695724,-1.02410893,0.77244206,2.53714787

>  <Name>
ligand

>  <RI>
0

>  <Rbt.Current_Directory>
/home/itssahil/PROJECTS/Mol_Feturizer/Test_systems_manuscript/rnas/3q50

>  <Rbt.Executable>
rbdock ($Id: //depot/dev/client3/rdock/2013.1/src/exe/rbdock.cxx#4 $)

>  <Rbt.Library>
libRbt.so (2013.1, Build901 2013/11/27)

>  <Rbt.Parameter_File>
/export/apps/rDock/src/rDock_2013.1_src/data/scripts/dock_solv.prm

>  <Rbt.Receptor>
prm/blind_docking_80.prm

>  <SCORE>
-13.6536

>  <SCORE.INTER>
-14.7708

>  <SCORE.INTER.CONST>
1

>  <SCORE.INTER.POLAR>
0

>  <SCORE.INTER.ROT>
1

>  <SCORE.INTER.SOLV>
15.1211

>  <SCORE.INTER.VDW>
-19.1542

>  <SCORE.INTER.norm>
-1.13622

>  <SCORE.INTRA>
1.11726

>  <SCORE.INTRA.DIHEDRAL>
-0.00713756

>  <SCORE.INTRA.DIHEDRAL.0>
1.65305

>  <SCORE.INTRA.POLAR>
0

>  <SCORE.INTRA.POLAR.0>
0

>  <SCORE.INTRA.REPUL>
0

>  <SCORE.INTRA.REPUL.0>
0

>  <SCORE.INTRA.SOLV>
2.11172

>  <SCORE.INTRA.SOLV.lig_0>
-46.9527

>  <SCORE.INTRA.VDW>
0.0649736

>  <SCORE.INTRA.VDW.0>
-0.177978

>  <SCORE.INTRA.norm>
0.0859434

>  <SCORE.RESTR>
0

>  <SCORE.RESTR.CAVITY>
0

>  <SCORE.RESTR.norm>
0

>  <SCORE.SYSTEM>
0

>  <SCORE.SYSTEM.CONST>
0

>  <SCORE.SYSTEM.DIHEDRAL>
0

>  <SCORE.SYSTEM.SOLV>
0

>  <SCORE.SYSTEM.norm>
0

>  <SCORE.heavy>
13

>  <SCORE.norm>
-1.05027

>  <RMSD>
4.362

$$$$
ligand
 OpenBabel02271912143D
libRbt.so/2013.1/901 2013/11/27
 13 14  0  0  0  0  0  0  0  0999 V2000
   35.6950   32.3009   26.8870 N   0  0  0  0  0  0  0  0  0  0  0  0
   36.9038   33.0163   26.9659 C   0  0  0  0  0  0  0  0  0  0  0  0
   37.6889   32.7869   28.0880 N   0  0  0  0  0  0  0  0  0  0  0  0
   37.3456   33.9242   26.0625 N   0  0  0  0  0  0  0  0  0  0  0  0
   36.4560   34.0833   25.0042 C   0  0  0  0  0  0  0  0  0  0  0  0
   35.2425   33.4056   24.8342 C   0  0  0  0  0  0  0  0  0  0  0  0
   34.8018   32.4736   25.7852 C   0  0  0  0  0  0  0  0  0  0  0  0
   33.7611   31.8332   25.7603 O   0  0  0  0  0  0  0  0  0  0  0  0
   34.6347   33.8462   23.6362 C   0  0  0  0  0  0  0  0  0  0  0  0
   35.4923   34.7854   23.0848 C   0  0  0  0  0  0  0  0  0  0  0  0
   36.6240   34.9328   23.9260 N   0  0  0  0  0  0  0  0  0  0  0  0
   33.3143   33.3591   23.1525 C   0  0  0  0  0  0  0  0  0  0  0  0
   33.2532   31.8895   23.1855 N   0  0  0  0  0  0  0  0  0  0  0  0
  1  2  1  0  0  0  0
  1  7  1  0  0  0  0
  2  3  1  0  0  0  0
  2  4  2  0  0  0  0
  4  5  1  0  0  0  0
  5  6  2  0  0  0  0
  5 11  1  0  0  0  0
  6  7  1  0  0  0  0
  6  9  1  0  0  0  0
  7  8  2  0  0  0  0
  9 10  2  0  0  0  0
  9 12  1  0  0  0  0
 10 11  1  0  0  0  0
 12 13  1  0  0  0  0
M  END
>  <CHROM.1>
-48.96306214,35.45011627,33.24063725,25.12825441,0.67851366,0.57212068,2.17781011

>  <Name>
ligand

>  <RI>
0

>  <Rbt.Current_Directory>
/home/itssahil/PROJECTS/Mol_Feturizer/Test_systems_manuscript/rnas/3q50

>  <Rbt.Executable>
rbdock ($Id: //depot/dev/client3/rdock/2013.1/src/exe/rbdock.cxx#4 $)

>  <Rbt.Library>
libRbt.so (2013.1, Build901 2013/11/27)

>  <Rbt.Parameter_File>
/export/apps/rDock/src/rDock_2013.1_src/data/scripts/dock_solv.prm

>  <Rbt.Receptor>
prm/blind_docking_60.prm

>  <SCORE>
-16.7777

>  <SCORE.INTER>
-17.8561

>  <SCORE.INTER.CONST>
1

>  <SCORE.INTER.POLAR>
0

>  <SCORE.INTER.ROT>
1

>  <SCORE.INTER.SOLV>
20.5407

>  <SCORE.INTER.VDW>
-23.0176

>  <SCORE.INTER.norm>
-1.37355

>  <SCORE.INTRA>
1.07842

>  <SCORE.INTRA.DIHEDRAL>
-0.00555411

>  <SCORE.INTRA.DIHEDRAL.0>
1.65305

>  <SCORE.INTRA.POLAR>
0

>  <SCORE.INTRA.POLAR.0>
0

>  <SCORE.INTRA.REPUL>
0

>  <SCORE.INTRA.REPUL.0>
0

>  <SCORE.INTRA.SOLV>
2.09394

>  <SCORE.INTRA.SOLV.lig_0>
-46.9527

>  <SCORE.INTRA.VDW>
0.0342287

>  <SCORE.INTRA.VDW.0>
-0.177978

>  <SCORE.INTRA.norm>
0.0829554

>  <SCORE.RESTR>
0

>  <SCORE.RESTR.CAVITY>
0

>  <SCORE.RESTR.norm>
0

>  <SCORE.SYSTEM>
0

>  <SCORE.SYSTEM.CONST>
0

>  <SCORE.SYSTEM.DIHEDRAL>
0

>  <SCORE.SYSTEM.SOLV>
0

>  <SCORE.SYSTEM.norm>
0

>  <SCORE.heavy>
13

>  <SCORE.norm>
-1.29059

>  <RMSD>
4.581

$$$$
ligand
 OpenBabel02271912143D
libRbt.so/2013.1/901 2013/11/27
 13 14  0  0  0  0  0  0  0  0999 V2000
   35.7282   32.2961   26.8461 N   0  0  0  0  0  0  0  0  0  0  0  0
   36.9321   33.0199   26.9231 C   0  0  0  0  0  0  0  0  0  0  0  0
   37.7274   32.7854   28.0369 N   0  0  0  0  0  0  0  0  0  0  0  0
   37.3602   33.9400   26.0254 N   0  0  0  0  0  0  0  0  0  0  0  0
   36.4614   34.1027   24.9755 C   0  0  0  0  0  0  0  0  0  0  0  0
   35.2519   33.4174   24.8078 C   0  0  0  0  0  0  0  0  0  0  0  0
   34.8254   32.4728   25.7527 C   0  0  0  0  0  0  0  0  0  0  0  0
   33.7894   31.8247   25.7293 O   0  0  0  0  0  0  0  0  0  0  0  0
   34.6317   33.8651   23.6188 C   0  0  0  0  0  0  0  0  0  0  0  0
   35.4780   34.8162   23.0703 C   0  0  0  0  0  0  0  0  0  0  0  0
   36.6148   34.9639   23.9045 N   0  0  0  0  0  0  0  0  0  0  0  0
   33.3115   33.3727   23.1401 C   0  0  0  0  0  0  0  0  0  0  0  0
   33.2557   31.9029   23.1751 N   0  0  0  0  0  0  0  0  0  0  0  0
  1  2  1  0  0  0  0
  1  7  1  0  0  0  0
  2  3  1  0  0  0  0
  2  4  2  0  0  0  0
  4  5  1  0  0  0  0
  5  6  2  0  0  0  0
  5 11  1  0  0  0  0
  6  7  1  0  0  0  0
  6  9  1  0  0  0  0
  7  8  2  0  0  0  0
  9 10  2  0  0  0  0
  9 12  1  0  0  0  0
 10 11  1  0  0  0  0
 12 13  1  0  0  0  0
M  END
>  <CHROM.1>
-48.24478550,35.46245345,33.25116783,25.09994568,0.66508250,0.57311595,2.19474333

>  <Name>
ligand

>  <RI>
0

>  <Rbt.Current_Directory>
/home/itssahil/PROJECTS/Mol_Feturizer/Test_systems_manuscript/rnas/3q50

>  <Rbt.Executable>
rbdock ($Id: //depot/dev/client3/rdock/2013.1/src/exe/rbdock.cxx#4 $)

>  <Rbt.Library>
libRbt.so (2013.1, Build901 2013/11/27)

>  <Rbt.Parameter_File>
/export/apps/rDock/src/rDock_2013.1_src/data/scripts/dock_solv.prm

>  <Rbt.Receptor>
prm/blind_docking_80.prm

>  <SCORE>
-16.798

>  <SCORE.INTER>
-17.9188

>  <SCORE.INTER.CONST>
1

>  <SCORE.INTER.POLAR>
0

>  <SCORE.INTER.ROT>
1

>  <SCORE.INTER.SOLV>
20.2672

>  <SCORE.INTER.VDW>
-22.9683

>  <SCORE.INTER.norm>
-1.37837

>  <SCORE.INTRA>
1.12077

>  <SCORE.INTRA.DIHEDRAL>
-0.00727394

>  <SCORE.INTRA.DIHEDRAL.0>
1.65305

>  <SCORE.INTRA.POLAR>
0

>  <SCORE.INTRA.POLAR.0>
0

>  <SCORE.INTRA.REPUL>
0

>  <SCORE.INTRA.REPUL.0>
0

>  <SCORE.INTRA.SOLV>
2.11327

>  <SCORE.INTRA.SOLV.lig_0>
-46.9527

>  <SCORE.INTRA.VDW>
0.0677726

>  <SCORE.INTRA.VDW.0>
-0.177978

>  <SCORE.INTRA.norm>
0.086213

>  <SCORE.RESTR>
0

>  <SCORE.RESTR.CAVITY>
0

>  <SCORE.RESTR.norm>
0

>  <SCORE.SYSTEM>
0

>  <SCORE.SYSTEM.CONST>
0

>  <SCORE.SYSTEM.DIHEDRAL>
0

>  <SCORE.SYSTEM.SOLV>
0

>  <SCORE.SYSTEM.norm>
0

>  <SCORE.heavy>
13

>  <SCORE.norm>
-1.29215

>  <RMSD>
4.581

$$$$
ligand
 OpenBabel02271912143D
libRbt.so/2013.1/901 2013/11/27
 13 14  0  0  0  0  0  0  0  0999 V2000
   35.7277   32.2936   26.8432 N   0  0  0  0  0  0  0  0  0  0  0  0
   36.9347   33.0134   26.9106 C   0  0  0  0  0  0  0  0  0  0  0  0
   37.7347   32.7813   28.0215 N   0  0  0  0  0  0  0  0  0  0  0  0
   37.3614   33.9277   26.0064 N   0  0  0  0  0  0  0  0  0  0  0  0
   36.4579   34.0887   24.9603 C   0  0  0  0  0  0  0  0  0  0  0  0
   35.2451   33.4070   24.8020 C   0  0  0  0  0  0  0  0  0  0  0  0
   34.8201   32.4684   25.7536 C   0  0  0  0  0  0  0  0  0  0  0  0
   33.7816   31.8240   25.7384 O   0  0  0  0  0  0  0  0  0  0  0  0
   34.6205   33.8514   23.6141 C   0  0  0  0  0  0  0  0  0  0  0  0
   35.4674   34.7968   23.0567 C   0  0  0  0  0  0  0  0  0  0  0  0
   36.6090   34.9443   23.8845 N   0  0  0  0  0  0  0  0  0  0  0  0
   33.2961   33.3615   23.1444 C   0  0  0  0  0  0  0  0  0  0  0  0
   33.2462   31.8912   23.1566 N   0  0  0  0  0  0  0  0  0  0  0  0
  1  2  1  0  0  0  0
  1  7  1  0  0  0  0
  2  3  1  0  0  0  0
  2  4  2  0  0  0  0
  4  5  1  0  0  0  0
  5  6  2  0  0  0  0
  5 11  1  0  0  0  0
  6  7  1  0  0  0  0
  6  9  1  0  0  0  0
  7  8  2  0  0  0  0
  9 10  2  0  0  0  0
  9 12  1  0  0  0  0
 10 11  1  0  0  0  0
 12 13  1  0  0  0  0
M  END
>  <CHROM.1>
-49.57997689,35.45744760,33.24133893,25.09141048,0.66438129,0.56886282,2.19080201

>  <Name>
ligand

>  <RI>
0

>  <Rbt.Current_Directory>
/home/itssahil/PROJECTS/Mol_Feturizer/Test_systems_manuscript/rnas/3q50

>  <Rbt.Executable>
rbdock ($Id: //depot/dev/client3/rdock/2013.1/src/exe/rbdock.cxx#4 $)

>  <Rbt.Library>
libRbt.so (2013.1, Build901 2013/11/27)

>  <Rbt.Parameter_File>
/export/apps/rDock/src/rDock_2013.1_src/data/scripts/dock_solv.prm

>  <Rbt.Receptor>
prm/blind_docking_100.prm

>  <SCORE>
-16.7751

>  <SCORE.INTER>
-17.8193

>  <SCORE.INTER.CONST>
1

>  <SCORE.INTER.POLAR>
0

>  <SCORE.INTER.ROT>
1

>  <SCORE.INTER.SOLV>
20.2552

>  <SCORE.INTER.VDW>
-22.8979

>  <SCORE.INTER.norm>
-1.37071

>  <SCORE.INTRA>
1.04418

>  <SCORE.INTRA.DIHEDRAL>
-0.00404018

>  <SCORE.INTRA.DIHEDRAL.0>
1.65305

>  <SCORE.INTRA.POLAR>
0

>  <SCORE.INTRA.POLAR.0>
0

>  <SCORE.INTRA.REPUL>
0

>  <SCORE.INTRA.REPUL.0>
0

>  <SCORE.INTRA.SOLV>
2.07722

>  <SCORE.INTRA.SOLV.lig_0>
-46.9527

>  <SCORE.INTRA.VDW>
0.00759415

>  <SCORE.INTRA.VDW.0>
-0.177978

>  <SCORE.INTRA.norm>
0.0803219

>  <SCORE.RESTR>
0

>  <SCORE.RESTR.CAVITY>
0

>  <SCORE.RESTR.norm>
0

>  <SCORE.SYSTEM>
0

>  <SCORE.SYSTEM.CONST>
0

>  <SCORE.SYSTEM.DIHEDRAL>
0

>  <SCORE.SYSTEM.SOLV>
0

>  <SCORE.SYSTEM.norm>
0

>  <SCORE.heavy>
13

>  <SCORE.norm>
-1.29039

>  <RMSD>
4.585

$$$$
ligand
 OpenBabel02271912143D
libRbt.so/2013.1/901 2013/11/27
 13 14  0  0  0  0  0  0  0  0999 V2000
   35.6656   32.3230   26.8767 N   0  0  0  0  0  0  0  0  0  0  0  0
   36.8812   33.0284   26.9419 C   0  0  0  0  0  0  0  0  0  0  0  0
   37.6661   32.8101   28.0663 N   0  0  0  0  0  0  0  0  0  0  0  0
   37.3296   33.9173   26.0230 N   0  0  0  0  0  0  0  0  0  0  0  0
   36.4396   34.0672   24.9638 C   0  0  0  0  0  0  0  0  0  0  0  0
   35.2197   33.3981   24.8068 C   0  0  0  0  0  0  0  0  0  0  0  0
   34.7721   32.4859   25.7737 C   0  0  0  0  0  0  0  0  0  0  0  0
   33.7255   31.8547   25.7610 O   0  0  0  0  0  0  0  0  0  0  0  0
   34.6137   33.8246   23.6028 C   0  0  0  0  0  0  0  0  0  0  0  0
   35.4790   34.7466   23.0346 C   0  0  0  0  0  0  0  0  0  0  0  0
   36.6134   34.8973   23.8715 N   0  0  0  0  0  0  0  0  0  0  0  0
   33.2881   33.3418   23.1293 C   0  0  0  0  0  0  0  0  0  0  0  0
   33.2209   31.8726   23.1667 N   0  0  0  0  0  0  0  0  0  0  0  0
  1  2  1  0  0  0  0
  1  7  1  0  0  0  0
  2  3  1  0  0  0  0
  2  4  2  0  0  0  0
  4  5  1  0  0  0  0
  5  6  2  0  0  0  0
  5 11  1  0  0  0  0
  6  7  1  0  0  0  0
  6  9  1  0  0  0  0
  7  8  2  0  0  0  0
  9 10  2  0  0  0  0
  9 12  1  0  0  0  0
 10 11  1  0  0  0  0
 12 13  1  0  0  0  0
M  END
>  <CHROM.1>
-49.84451486,35.42685572,33.23591310,25.10160865,0.68412304,0.56460366,2.15866935

>  <Name>
ligand

>  <RI>
0

>  <Rbt.Current_Directory>
/home/itssahil/PROJECTS/Mol_Feturizer/Test_systems_manuscript/rnas/3q50

>  <Rbt.Executable>
rbdock ($Id: //depot/dev/client3/rdock/2013.1/src/exe/rbdock.cxx#4 $)

>  <Rbt.Library>
libRbt.so (2013.1, Build901 2013/11/27)

>  <Rbt.Parameter_File>
/export/apps/rDock/src/rDock_2013.1_src/data/scripts/dock_solv.prm

>  <Rbt.Receptor>
prm/blind_docking_60.prm

>  <SCORE>
-16.7446

>  <SCORE.INTER>
-17.7747

>  <SCORE.INTER.CONST>
1

>  <SCORE.INTER.POLAR>
0

>  <SCORE.INTER.ROT>
1

>  <SCORE.INTER.SOLV>
20.6806

>  <SCORE.INTER.VDW>
-23.01

>  <SCORE.INTER.norm>
-1.36728

>  <SCORE.INTRA>
1.03008

>  <SCORE.INTRA.DIHEDRAL>
-0.003381

>  <SCORE.INTRA.DIHEDRAL.0>
1.65305

>  <SCORE.INTRA.POLAR>
0

>  <SCORE.INTRA.POLAR.0>
0

>  <SCORE.INTRA.REPUL>
0

>  <SCORE.INTRA.REPUL.0>
0

>  <SCORE.INTRA.SOLV>
2.07002

>  <SCORE.INTRA.SOLV.lig_0>
-46.9527

>  <SCORE.INTRA.VDW>
-0.00324148

>  <SCORE.INTRA.VDW.0>
-0.177978

>  <SCORE.INTRA.norm>
0.0792368

>  <SCORE.RESTR>
0

>  <SCORE.RESTR.CAVITY>
0

>  <SCORE.RESTR.norm>
0

>  <SCORE.SYSTEM>
0

>  <SCORE.SYSTEM.CONST>
0

>  <SCORE.SYSTEM.DIHEDRAL>
0

>  <SCORE.SYSTEM.SOLV>
0

>  <SCORE.SYSTEM.norm>
0

>  <SCORE.heavy>
13

>  <SCORE.norm>
-1.28804

>  <RMSD>
4.585

$$$$
ligand
 OpenBabel02271912143D
libRbt.so/2013.1/901 2013/11/27
 13 14  0  0  0  0  0  0  0  0999 V2000
   35.7275   32.3116   26.8335 N   0  0  0  0  0  0  0  0  0  0  0  0
   36.9341   33.0330   26.8896 C   0  0  0  0  0  0  0  0  0  0  0  0
   37.7404   32.8090   27.9977 N   0  0  0  0  0  0  0  0  0  0  0  0
   37.3550   33.9417   25.9771 N   0  0  0  0  0  0  0  0  0  0  0  0
   36.4457   34.0950   24.9349 C   0  0  0  0  0  0  0  0  0  0  0  0
   35.2327   33.4112   24.7877 C   0  0  0  0  0  0  0  0  0  0  0  0
   34.8138   32.4784   25.7477 C   0  0  0  0  0  0  0  0  0  0  0  0
   33.7759   31.8329   25.7425 O   0  0  0  0  0  0  0  0  0  0  0  0
   34.6012   33.8471   23.6003 C   0  0  0  0  0  0  0  0  0  0  0  0
   35.4441   34.7896   23.0322 C   0  0  0  0  0  0  0  0  0  0  0  0
   36.5900   34.9437   23.8527 N   0  0  0  0  0  0  0  0  0  0  0  0
   33.2747   33.3528   23.1412 C   0  0  0  0  0  0  0  0  0  0  0  0
   33.2318   31.8823   23.1479 N   0  0  0  0  0  0  0  0  0  0  0  0
  1  2  1  0  0  0  0
  1  7  1  0  0  0  0
  2  3  1  0  0  0  0
  2  4  2  0  0  0  0
  4  5  1  0  0  0  0
  5  6  2  0  0  0  0
  5 11  1  0  0  0  0
  6  7  1  0  0  0  0
  6  9  1  0  0  0  0
  7  8  2  0  0  0  0
  9 10  2  0  0  0  0
  9 12  1  0  0  0  0
 10 11  1  0  0  0  0
 12 13  1  0  0  0  0
M  END
>  <CHROM.1>
-50.26088341,35.44721610,33.24753809,25.07581367,0.65933501,0.56732559,2.18715190

>  <Name>
ligand

>  <RI>
0

>  <Rbt.Current_Directory>
/home/itssahil/PROJECTS/Mol_Feturizer/Test_systems_manuscript/rnas/3q50

>  <Rbt.Executable>
rbdock ($Id: //depot/dev/client3/rdock/2013.1/src/exe/rbdock.cxx#4 $)

>  <Rbt.Library>
libRbt.so (2013.1, Build901 2013/11/27)

>  <Rbt.Parameter_File>
/export/apps/rDock/src/rDock_2013.1_src/data/scripts/dock_solv.prm

>  <Rbt.Receptor>
prm/blind_docking_60.prm

>  <SCORE>
-16.8053

>  <SCORE.INTER>
-17.8139

>  <SCORE.INTER.CONST>
1

>  <SCORE.INTER.POLAR>
0

>  <SCORE.INTER.ROT>
1

>  <SCORE.INTER.SOLV>
20.2475

>  <SCORE.INTER.VDW>
-22.8918

>  <SCORE.INTER.norm>
-1.3703

>  <SCORE.INTRA>
1.00855

>  <SCORE.INTRA.DIHEDRAL>
-0.00233174

>  <SCORE.INTRA.DIHEDRAL.0>
1.65305

>  <SCORE.INTRA.POLAR>
0

>  <SCORE.INTRA.POLAR.0>
0

>  <SCORE.INTRA.REPUL>
0

>  <SCORE.INTRA.REPUL.0>
0

>  <SCORE.INTRA.SOLV>
2.05865

>  <SCORE.INTRA.SOLV.lig_0>
-46.9527

>  <SCORE.INTRA.VDW>
-0.0196133

>  <SCORE.INTRA.VDW.0>
-0.177978

>  <SCORE.INTRA.norm>
0.0775805

>  <SCORE.RESTR>
0

>  <SCORE.RESTR.CAVITY>
0

>  <SCORE.RESTR.norm>
0

>  <SCORE.SYSTEM>
0

>  <SCORE.SYSTEM.CONST>
0

>  <SCORE.SYSTEM.DIHEDRAL>
0

>  <SCORE.SYSTEM.SOLV>
0

>  <SCORE.SYSTEM.norm>
0

>  <SCORE.heavy>
13

>  <SCORE.norm>
-1.29272

>  <RMSD>
4.589

$$$$
ligand
 OpenBabel02271912143D
libRbt.so/2013.1/901 2013/11/27
 13 14  0  0  0  0  0  0  0  0999 V2000
   35.7759   32.2954   26.8629 N   0  0  0  0  0  0  0  0  0  0  0  0
   36.9775   33.0246   26.9247 C   0  0  0  0  0  0  0  0  0  0  0  0
   37.7854   32.7975   28.0309 N   0  0  0  0  0  0  0  0  0  0  0  0
   37.3920   33.9434   26.0193 N   0  0  0  0  0  0  0  0  0  0  0  0
   36.4816   34.0985   24.9784 C   0  0  0  0  0  0  0  0  0  0  0  0
   35.2733   33.4075   24.8259 C   0  0  0  0  0  0  0  0  0  0  0  0
   34.8609   32.4644   25.7785 C   0  0  0  0  0  0  0  0  0  0  0  0
   33.8275   31.8118   25.7683 O   0  0  0  0  0  0  0  0  0  0  0  0
   34.6387   33.8484   23.6420 C   0  0  0  0  0  0  0  0  0  0  0  0
   35.4751   34.8012   23.0812 C   0  0  0  0  0  0  0  0  0  0  0  0
   36.6199   34.9567   23.9029 N   0  0  0  0  0  0  0  0  0  0  0  0
   33.3156   33.3487   23.1790 C   0  0  0  0  0  0  0  0  0  0  0  0
   33.2736   31.8782   23.2001 N   0  0  0  0  0  0  0  0  0  0  0  0
  1  2  1  0  0  0  0
  1  7  1  0  0  0  0
  2  3  1  0  0  0  0
  2  4  2  0  0  0  0
  4  5  1  0  0  0  0
  5  6  2  0  0  0  0
  5 11  1  0  0  0  0
  6  7  1  0  0  0  0
  6  9  1  0  0  0  0
  7  8  2  0  0  0  0
  9 10  2  0  0  0  0
  9 12  1  0  0  0  0
 10 11  1  0  0  0  0
 12 13  1  0  0  0  0
M  END
>  <CHROM.1>
-49.11011065,35.48821240,33.24318478,25.11476252,0.65301116,0.57149495,2.19806482

>  <Name>
ligand

>  <RI>
0

>  <Rbt.Current_Directory>
/home/itssahil/PROJECTS/Mol_Feturizer/Test_systems_manuscript/rnas/3q50

>  <Rbt.Executable>
rbdock ($Id: //depot/dev/client3/rdock/2013.1/src/exe/rbdock.cxx#4 $)

>  <Rbt.Library>
libRbt.so (2013.1, Build901 2013/11/27)

>  <Rbt.Parameter_File>
/export/apps/rDock/src/rDock_2013.1_src/data/scripts/dock_solv.prm

>  <Rbt.Receptor>
prm/blind_docking_80.prm

>  <SCORE>
-16.7839

>  <SCORE.INTER>
-17.8539

>  <SCORE.INTER.CONST>
1

>  <SCORE.INTER.POLAR>
0

>  <SCORE.INTER.ROT>
1

>  <SCORE.INTER.SOLV>
20.0354

>  <SCORE.INTER.VDW>
-22.8478

>  <SCORE.INTER.norm>
-1.37338

>  <SCORE.INTRA>
1.07008

>  <SCORE.INTRA.DIHEDRAL>
-0.00519627

>  <SCORE.INTRA.DIHEDRAL.0>
1.65305

>  <SCORE.INTRA.POLAR>
0

>  <SCORE.INTRA.POLAR.0>
0

>  <SCORE.INTRA.REPUL>
0

>  <SCORE.INTRA.REPUL.0>
0

>  <SCORE.INTRA.SOLV>
2.08996

>  <SCORE.INTRA.SOLV.lig_0>
-46.9527

>  <SCORE.INTRA.VDW>
0.0277025

>  <SCORE.INTRA.VDW.0>
-0.177978

>  <SCORE.INTRA.norm>
0.0823142

>  <SCORE.RESTR>
0

>  <SCORE.RESTR.CAVITY>
0

>  <SCORE.RESTR.norm>
0

>  <SCORE.SYSTEM>
0

>  <SCORE.SYSTEM.CONST>
0

>  <SCORE.SYSTEM.DIHEDRAL>
0

>  <SCORE.SYSTEM.SOLV>
0

>  <SCORE.SYSTEM.norm>
0

>  <SCORE.heavy>
13

>  <SCORE.norm>
-1.29107

>  <RMSD>
4.589

$$$$
ligand
 OpenBabel02271912143D
libRbt.so/2013.1/901 2013/11/27
 13 14  0  0  0  0  0  0  0  0999 V2000
   35.7877   32.3084   26.8673 N   0  0  0  0  0  0  0  0  0  0  0  0
   36.9905   33.0360   26.9228 C   0  0  0  0  0  0  0  0  0  0  0  0
   37.8017   32.8113   28.0272 N   0  0  0  0  0  0  0  0  0  0  0  0
   37.4035   33.9513   26.0132 N   0  0  0  0  0  0  0  0  0  0  0  0
   36.4899   34.1044   24.9747 C   0  0  0  0  0  0  0  0  0  0  0  0
   35.2802   33.4147   24.8283 C   0  0  0  0  0  0  0  0  0  0  0  0
   34.8695   32.4752   25.7853 C   0  0  0  0  0  0  0  0  0  0  0  0
   33.8352   31.8241   25.7804 O   0  0  0  0  0  0  0  0  0  0  0  0
   34.6424   33.8527   23.6450 C   0  0  0  0  0  0  0  0  0  0  0  0
   35.4784   34.8024   23.0785 C   0  0  0  0  0  0  0  0  0  0  0  0
   36.6261   34.9589   23.8960 N   0  0  0  0  0  0  0  0  0  0  0  0
   33.3172   33.3533   23.1878 C   0  0  0  0  0  0  0  0  0  0  0  0
   33.2723   31.8830   23.2161 N   0  0  0  0  0  0  0  0  0  0  0  0
  1  2  1  0  0  0  0
  1  7  1  0  0  0  0
  2  3  1  0  0  0  0
  2  4  2  0  0  0  0
  4  5  1  0  0  0  0
  5  6  2  0  0  0  0
  5 11  1  0  0  0  0
  6  7  1  0  0  0  0
  6  9  1  0  0  0  0
  7  8  2  0  0  0  0
  9 10  2  0  0  0  0
  9 12  1  0  0  0  0
 10 11  1  0  0  0  0
 12 13  1  0  0  0  0
M  END
>  <CHROM.1>
-49.01282430,35.49574155,33.25092042,25.11719272,0.65081204,0.56832928,2.19599768

>  <Name>
ligand

>  <RI>
0

>  <Rbt.Current_Directory>
/home/itssahil/PROJECTS/Mol_Feturizer/Test_systems_manuscript/rnas/3q50

>  <Rbt.Executable>
rbdock ($Id: //depot/dev/client3/rdock/2013.1/src/exe/rbdock.cxx#4 $)

>  <Rbt.Library>
libRbt.so (2013.1, Build901 2013/11/27)

>  <Rbt.Parameter_File>
/export/apps/rDock/src/rDock_2013.1_src/data/scripts/dock_solv.prm

>  <Rbt.Receptor>
prm/blind_docking_100.prm

>  <SCORE>
-16.7864

>  <SCORE.INTER>
-17.862

>  <SCORE.INTER.CONST>
1

>  <SCORE.INTER.POLAR>
0

>  <SCORE.INTER.ROT>
1

>  <SCORE.INTER.SOLV>
19.9586

>  <SCORE.INTER.VDW>
-22.8275

>  <SCORE.INTER.norm>
-1.374

>  <SCORE.INTRA>
1.07559

>  <SCORE.INTRA.DIHEDRAL>
-0.00543323

>  <SCORE.INTRA.DIHEDRAL.0>
1.65305

>  <SCORE.INTRA.POLAR>
0

>  <SCORE.INTRA.POLAR.0>
0

>  <SCORE.INTRA.REPUL>
0

>  <SCORE.INTRA.REPUL.0>
0

>  <SCORE.INTRA.SOLV>
2.09259

>  <SCORE.INTRA.SOLV.lig_0>
-46.9527

>  <SCORE.INTRA.VDW>
0.0320075

>  <SCORE.INTRA.VDW.0>
-0.177978

>  <SCORE.INTRA.norm>
0.0827374

>  <SCORE.RESTR>
0

>  <SCORE.RESTR.CAVITY>
0

>  <SCORE.RESTR.norm>
0

>  <SCORE.SYSTEM>
0

>  <SCORE.SYSTEM.CONST>
0

>  <SCORE.SYSTEM.DIHEDRAL>
0

>  <SCORE.SYSTEM.SOLV>
0

>  <SCORE.SYSTEM.norm>
0

>  <SCORE.heavy>
13

>  <SCORE.norm>
-1.29126

>  <RMSD>
4.590

$$$$
ligand
 OpenBabel02271912143D
libRbt.so/2013.1/901 2013/11/27
 13 14  0  0  0  0  0  0  0  0999 V2000
   35.7880   32.3035   26.8681 N   0  0  0  0  0  0  0  0  0  0  0  0
   36.9871   33.0368   26.9292 C   0  0  0  0  0  0  0  0  0  0  0  0
   37.7978   32.8102   28.0335 N   0  0  0  0  0  0  0  0  0  0  0  0
   37.3968   33.9590   26.0251 N   0  0  0  0  0  0  0  0  0  0  0  0
   36.4840   34.1131   24.9861 C   0  0  0  0  0  0  0  0  0  0  0  0
   35.2779   33.4182   24.8342 C   0  0  0  0  0  0  0  0  0  0  0  0
   34.8705   32.4716   25.7857 C   0  0  0  0  0  0  0  0  0  0  0  0
   33.8394   31.8154   25.7758 O   0  0  0  0  0  0  0  0  0  0  0  0
   34.6396   33.8593   23.6524 C   0  0  0  0  0  0  0  0  0  0  0  0
   35.4716   34.8162   23.0922 C   0  0  0  0  0  0  0  0  0  0  0  0
   36.6174   34.9740   23.9122 N   0  0  0  0  0  0  0  0  0  0  0  0
   33.3175   33.3559   23.1907 C   0  0  0  0  0  0  0  0  0  0  0  0
   33.2879   31.8850   23.1882 N   0  0  0  0  0  0  0  0  0  0  0  0
  1  2  1  0  0  0  0
  1  7  1  0  0  0  0
  2  3  1  0  0  0  0
  2  4  2  0  0  0  0
  4  5  1  0  0  0  0
  5  6  2  0  0  0  0
  5 11  1  0  0  0  0
  6  7  1  0  0  0  0
  6  9  1  0  0  0  0
  7  8  2  0  0  0  0
  9 10  2  0  0  0  0
  9 12  1  0  0  0  0
 10 11  1  0  0  0  0
 12 13  1  0  0  0  0
M  END
>  <CHROM.1>
-50.02195508,35.49446561,33.25395259,25.12074812,0.65001837,0.57440080,2.20207903

>  <Name>
ligand

>  <RI>
0

>  <Rbt.Current_Directory>
/home/itssahil/PROJECTS/Mol_Feturizer/Test_systems_manuscript/rnas/3q50

>  <Rbt.Executable>
rbdock ($Id: //depot/dev/client3/rdock/2013.1/src/exe/rbdock.cxx#4 $)

>  <Rbt.Library>
libRbt.so (2013.1, Build901 2013/11/27)

>  <Rbt.Parameter_File>
/export/apps/rDock/src/rDock_2013.1_src/data/scripts/dock_solv.prm

>  <Rbt.Receptor>
prm/blind_docking_100.prm

>  <SCORE>
-16.7806

>  <SCORE.INTER>
-17.8014

>  <SCORE.INTER.CONST>
1

>  <SCORE.INTER.POLAR>
0

>  <SCORE.INTER.ROT>
1

>  <SCORE.INTER.SOLV>
20.0173

>  <SCORE.INTER.VDW>
-22.8067

>  <SCORE.INTER.norm>
-1.36934

>  <SCORE.INTRA>
1.0208

>  <SCORE.INTRA.DIHEDRAL>
-0.00293558

>  <SCORE.INTRA.DIHEDRAL.0>
1.65305

>  <SCORE.INTRA.POLAR>
0

>  <SCORE.INTRA.POLAR.0>
0

>  <SCORE.INTRA.REPUL>
0

>  <SCORE.INTRA.REPUL.0>
0

>  <SCORE.INTRA.SOLV>
2.06518

>  <SCORE.INTRA.SOLV.lig_0>
-46.9527

>  <SCORE.INTRA.VDW>
-0.0103192

>  <SCORE.INTRA.VDW.0>
-0.177978

>  <SCORE.INTRA.norm>
0.0785234

>  <SCORE.RESTR>
0

>  <SCORE.RESTR.CAVITY>
0

>  <SCORE.RESTR.norm>
0

>  <SCORE.SYSTEM>
0

>  <SCORE.SYSTEM.CONST>
0

>  <SCORE.SYSTEM.DIHEDRAL>
0

>  <SCORE.SYSTEM.SOLV>
0

>  <SCORE.SYSTEM.norm>
0

>  <SCORE.heavy>
13

>  <SCORE.norm>
-1.29082

>  <RMSD>
4.590

$$$$
ligand
 OpenBabel02271912143D
libRbt.so/2013.1/901 2013/11/27
 13 14  0  0  0  0  0  0  0  0999 V2000
   35.6858   32.3246   26.8728 N   0  0  0  0  0  0  0  0  0  0  0  0
   36.8948   33.0416   26.9319 C   0  0  0  0  0  0  0  0  0  0  0  0
   37.6894   32.8277   28.0504 N   0  0  0  0  0  0  0  0  0  0  0  0
   37.3284   33.9375   26.0126 N   0  0  0  0  0  0  0  0  0  0  0  0
   36.4299   34.0818   24.9599 C   0  0  0  0  0  0  0  0  0  0  0  0
   35.2155   33.4013   24.8091 C   0  0  0  0  0  0  0  0  0  0  0  0
   34.7833   32.4820   25.7763 C   0  0  0  0  0  0  0  0  0  0  0  0
   33.7428   31.8408   25.7687 O   0  0  0  0  0  0  0  0  0  0  0  0
   34.5974   33.8254   23.6105 C   0  0  0  0  0  0  0  0  0  0  0  0
   35.4498   34.7574   23.0392 C   0  0  0  0  0  0  0  0  0  0  0  0
   36.5883   34.9167   23.8689 N   0  0  0  0  0  0  0  0  0  0  0  0
   33.2733   33.3311   23.1444 C   0  0  0  0  0  0  0  0  0  0  0  0
   33.2284   31.8606   23.1564 N   0  0  0  0  0  0  0  0  0  0  0  0
  1  2  1  0  0  0  0
  1  7  1  0  0  0  0
  2  3  1  0  0  0  0
  2  4  2  0  0  0  0
  4  5  1  0  0  0  0
  5  6  2  0  0  0  0
  5 11  1  0  0  0  0
  6  7  1  0  0  0  0
  6  9  1  0  0  0  0
  7  8  2  0  0  0  0
  9 10  2  0  0  0  0
  9 12  1  0  0  0  0
 10 11  1  0  0  0  0
 12 13  1  0  0  0  0
M  END
>  <CHROM.1>
-50.79647966,35.42685167,33.24026976,25.10028857,0.67236630,0.57004188,2.16816817

>  <Name>
ligand

>  <RI>
0

>  <Rbt.Current_Directory>
/home/itssahil/PROJECTS/Mol_Feturizer/Test_systems_manuscript/rnas/3q50

>  <Rbt.Executable>
rbdock ($Id: //depot/dev/client3/rdock/2013.1/src/exe/rbdock.cxx#4 $)

>  <Rbt.Library>
libRbt.so (2013.1, Build901 2013/11/27)

>  <Rbt.Parameter_File>
/export/apps/rDock/src/rDock_2013.1_src/data/scripts/dock_solv.prm

>  <Rbt.Receptor>
prm/blind_docking_100.prm

>  <SCORE>
-16.7767

>  <SCORE.INTER>
-17.7587

>  <SCORE.INTER.CONST>
1

>  <SCORE.INTER.POLAR>
0

>  <SCORE.INTER.ROT>
1

>  <SCORE.INTER.SOLV>
20.6079

>  <SCORE.INTER.VDW>
-22.9751

>  <SCORE.INTER.norm>
-1.36606

>  <SCORE.INTRA>
0.982008

>  <SCORE.INTRA.DIHEDRAL>
-0.000961635

>  <SCORE.INTRA.DIHEDRAL.0>
1.65305

>  <SCORE.INTRA.POLAR>
0

>  <SCORE.INTRA.POLAR.0>
0

>  <SCORE.INTRA.REPUL>
0

>  <SCORE.INTRA.REPUL.0>
0

>  <SCORE.INTRA.SOLV>
2.04396

>  <SCORE.INTRA.SOLV.lig_0>
-46.9527

>  <SCORE.INTRA.VDW>
-0.0394921

>  <SCORE.INTRA.VDW.0>
-0.177978

>  <SCORE.INTRA.norm>
0.0755391

>  <SCORE.RESTR>
0

>  <SCORE.RESTR.CAVITY>
0

>  <SCORE.RESTR.norm>
0

>  <SCORE.SYSTEM>
0

>  <SCORE.SYSTEM.CONST>
0

>  <SCORE.SYSTEM.DIHEDRAL>
0

>  <SCORE.SYSTEM.SOLV>
0

>  <SCORE.SYSTEM.norm>
0

>  <SCORE.heavy>
13

>  <SCORE.norm>
-1.29052

>  <RMSD>
4.590

$$$$
ligand
 OpenBabel02271912143D
libRbt.so/2013.1/901 2013/11/27
 13 14  0  0  0  0  0  0  0  0999 V2000
   35.7219   32.3177   26.8395 N   0  0  0  0  0  0  0  0  0  0  0  0
   36.9233   33.0472   26.9009 C   0  0  0  0  0  0  0  0  0  0  0  0
   37.7243   32.8316   28.0144 N   0  0  0  0  0  0  0  0  0  0  0  0
   37.3437   33.9563   25.9885 N   0  0  0  0  0  0  0  0  0  0  0  0
   36.4397   34.1007   24.9404 C   0  0  0  0  0  0  0  0  0  0  0  0
   35.2322   33.4084   24.7877 C   0  0  0  0  0  0  0  0  0  0  0  0
   34.8137   32.4755   25.7478 C   0  0  0  0  0  0  0  0  0  0  0  0
   33.7802   31.8231   25.7380 O   0  0  0  0  0  0  0  0  0  0  0  0
   34.6050   33.8370   23.5954 C   0  0  0  0  0  0  0  0  0  0  0  0
   35.4451   34.7835   23.0298 C   0  0  0  0  0  0  0  0  0  0  0  0
   36.5850   34.9474   23.8568 N   0  0  0  0  0  0  0  0  0  0  0  0
   33.2847   33.3326   23.1295 C   0  0  0  0  0  0  0  0  0  0  0  0
   33.2445   31.8623   23.1594 N   0  0  0  0  0  0  0  0  0  0  0  0
  1  2  1  0  0  0  0
  1  7  1  0  0  0  0
  2  3  1  0  0  0  0
  2  4  2  0  0  0  0
  4  5  1  0  0  0  0
  5  6  2  0  0  0  0
  5 11  1  0  0  0  0
  6  7  1  0  0  0  0
  6  9  1  0  0  0  0
  7  8  2  0  0  0  0
  9 10  2  0  0  0  0
  9 12  1  0  0  0  0
 10 11  1  0  0  0  0
 12 13  1  0  0  0  0
M  END
>  <CHROM.1>
-49.39917832,35.44547940,33.24705194,25.07915272,0.65953631,0.57521382,2.18406486

>  <Name>
ligand

>  <RI>
0

>  <Rbt.Current_Directory>
/home/itssahil/PROJECTS/Mol_Feturizer/Test_systems_manuscript/rnas/3q50

>  <Rbt.Executable>
rbdock ($Id: //depot/dev/client3/rdock/2013.1/src/exe/rbdock.cxx#4 $)

>  <Rbt.Library>
libRbt.so (2013.1, Build901 2013/11/27)

>  <Rbt.Parameter_File>
/export/apps/rDock/src/rDock_2013.1_src/data/scripts/dock_solv.prm

>  <Rbt.Receptor>
prm/blind_docking_60.prm

>  <SCORE>
-16.8055

>  <SCORE.INTER>
-17.8595

>  <SCORE.INTER.CONST>
1

>  <SCORE.INTER.POLAR>
0

>  <SCORE.INTER.ROT>
1

>  <SCORE.INTER.SOLV>
20.3577

>  <SCORE.INTER.VDW>
-22.9589

>  <SCORE.INTER.norm>
-1.37381

>  <SCORE.INTRA>
1.05402

>  <SCORE.INTRA.DIHEDRAL>
-0.00448729

>  <SCORE.INTRA.DIHEDRAL.0>
1.65305

>  <SCORE.INTRA.POLAR>
0

>  <SCORE.INTRA.POLAR.0>
0

>  <SCORE.INTRA.REPUL>
0

>  <SCORE.INTRA.REPUL.0>
0

>  <SCORE.INTRA.SOLV>
2.08213

>  <SCORE.INTRA.SOLV.lig_0>
-46.9527

>  <SCORE.INTRA.VDW>
0.0151991

>  <SCORE.INTRA.VDW.0>
-0.177978

>  <SCORE.INTRA.norm>
0.0810785

>  <SCORE.RESTR>
0

>  <SCORE.RESTR.CAVITY>
0

>  <SCORE.RESTR.norm>
0

>  <SCORE.SYSTEM>
0

>  <SCORE.SYSTEM.CONST>
0

>  <SCORE.SYSTEM.DIHEDRAL>
0

>  <SCORE.SYSTEM.SOLV>
0

>  <SCORE.SYSTEM.norm>
0

>  <SCORE.heavy>
13

>  <SCORE.norm>
-1.29273

>  <RMSD>
4.590

$$$$
ligand
 OpenBabel02271912143D
libRbt.so/2013.1/901 2013/11/27
 13 14  0  0  0  0  0  0  0  0999 V2000
   35.7264   32.3106   26.8446 N   0  0  0  0  0  0  0  0  0  0  0  0
   36.9281   33.0394   26.9068 C   0  0  0  0  0  0  0  0  0  0  0  0
   37.7283   32.8235   28.0209 N   0  0  0  0  0  0  0  0  0  0  0  0
   37.3497   33.9482   25.9946 N   0  0  0  0  0  0  0  0  0  0  0  0
   36.4465   34.0929   24.9458 C   0  0  0  0  0  0  0  0  0  0  0  0
   35.2387   33.4014   24.7924 C   0  0  0  0  0  0  0  0  0  0  0  0
   34.8190   32.4688   25.7522 C   0  0  0  0  0  0  0  0  0  0  0  0
   33.7851   31.8170   25.7419 O   0  0  0  0  0  0  0  0  0  0  0  0
   34.6126   33.8301   23.5995 C   0  0  0  0  0  0  0  0  0  0  0  0
   35.4537   34.7761   23.0344 C   0  0  0  0  0  0  0  0  0  0  0  0
   36.5931   34.9395   23.8622 N   0  0  0  0  0  0  0  0  0  0  0  0
   33.2923   33.3265   23.1328 C   0  0  0  0  0  0  0  0  0  0  0  0
   33.2584   31.8557   23.1430 N   0  0  0  0  0  0  0  0  0  0  0  0
  1  2  1  0  0  0  0
  1  7  1  0  0  0  0
  2  3  1  0  0  0  0
  2  4  2  0  0  0  0
  4  5  1  0  0  0  0
  5  6  2  0  0  0  0
  5 11  1  0  0  0  0
  6  7  1  0  0  0  0
  6  9  1  0  0  0  0
  7  8  2  0  0  0  0
  9 10  2  0  0  0  0
  9 12  1  0  0  0  0
 10 11  1  0  0  0  0
 12 13  1  0  0  0  0
M  END
>  <CHROM.1>
-50.28361777,35.45229189,33.23985685,25.08236132,0.66178345,0.57618868,2.18298172

>  <Name>
ligand

>  <RI>
0

>  <Rbt.Current_Directory>
/home/itssahil/PROJECTS/Mol_Feturizer/Test_systems_manuscript/rnas/3q50

>  <Rbt.Executable>
rbdock ($Id: //depot/dev/client3/rdock/2013.1/src/exe/rbdock.cxx#4 $)

>  <Rbt.Library>
libRbt.so (2013.1, Build901 2013/11/27)

>  <Rbt.Parameter_File>
/export/apps/rDock/src/rDock_2013.1_src/data/scripts/dock_solv.prm

>  <Rbt.Receptor>
prm/blind_docking_80.prm

>  <SCORE>
-16.7983

>  <SCORE.INTER>
-17.8057

>  <SCORE.INTER.CONST>
1

>  <SCORE.INTER.POLAR>
0

>  <SCORE.INTER.ROT>
1

>  <SCORE.INTER.SOLV>
20.3765

>  <SCORE.INTER.VDW>
-22.9293

>  <SCORE.INTER.norm>
-1.36967

>  <SCORE.INTRA>
1.00739

>  <SCORE.INTRA.DIHEDRAL>
-0.00227405

>  <SCORE.INTRA.DIHEDRAL.0>
1.65305

>  <SCORE.INTRA.POLAR>
0

>  <SCORE.INTRA.POLAR.0>
0

>  <SCORE.INTRA.REPUL>
0

>  <SCORE.INTRA.REPUL.0>
0

>  <SCORE.INTRA.SOLV>
2.05803

>  <SCORE.INTRA.SOLV.lig_0>
-46.9527

>  <SCORE.INTRA.VDW>
-0.0204837

>  <SCORE.INTRA.VDW.0>
-0.177978

>  <SCORE.INTRA.norm>
0.0774919

>  <SCORE.RESTR>
0

>  <SCORE.RESTR.CAVITY>
0

>  <SCORE.RESTR.norm>
0

>  <SCORE.SYSTEM>
0

>  <SCORE.SYSTEM.CONST>
0

>  <SCORE.SYSTEM.DIHEDRAL>
0

>  <SCORE.SYSTEM.SOLV>
0

>  <SCORE.SYSTEM.norm>
0

>  <SCORE.heavy>
13

>  <SCORE.norm>
-1.29218

>  <RMSD>
4.590

$$$$
ligand
 OpenBabel02271912143D
libRbt.so/2013.1/901 2013/11/27
 13 14  0  0  0  0  0  0  0  0999 V2000
   35.7321   32.3031   26.8350 N   0  0  0  0  0  0  0  0  0  0  0  0
   36.9377   33.0262   26.8891 C   0  0  0  0  0  0  0  0  0  0  0  0
   37.7455   32.8044   27.9966 N   0  0  0  0  0  0  0  0  0  0  0  0
   37.3565   33.9346   25.9753 N   0  0  0  0  0  0  0  0  0  0  0  0
   36.4459   34.0855   24.9338 C   0  0  0  0  0  0  0  0  0  0  0  0
   35.2337   33.3998   24.7886 C   0  0  0  0  0  0  0  0  0  0  0  0
   34.8170   32.4675   25.7500 C   0  0  0  0  0  0  0  0  0  0  0  0
   33.7801   31.8205   25.7464 O   0  0  0  0  0  0  0  0  0  0  0  0
   34.6004   33.8337   23.6014 C   0  0  0  0  0  0  0  0  0  0  0  0
   35.4415   34.7768   23.0314 C   0  0  0  0  0  0  0  0  0  0  0  0
   36.5880   34.9333   23.8506 N   0  0  0  0  0  0  0  0  0  0  0  0
   33.2741   33.3371   23.1441 C   0  0  0  0  0  0  0  0  0  0  0  0
   33.2301   31.8667   23.1611 N   0  0  0  0  0  0  0  0  0  0  0  0
  1  2  1  0  0  0  0
  1  7  1  0  0  0  0
  2  3  1  0  0  0  0
  2  4  2  0  0  0  0
  4  5  1  0  0  0  0
  5  6  2  0  0  0  0
  5 11  1  0  0  0  0
  6  7  1  0  0  0  0
  6  9  1  0  0  0  0
  7  8  2  0  0  0  0
  9 10  2  0  0  0  0
  9 12  1  0  0  0  0
 10 11  1  0  0  0  0
 12 13  1  0  0  0  0
M  END
>  <CHROM.1>
-49.87164144,35.44847664,33.23683417,25.07733482,0.65689407,0.56739595,2.18732045

>  <Name>
ligand

>  <RI>
0

>  <Rbt.Current_Directory>
/home/itssahil/PROJECTS/Mol_Feturizer/Test_systems_manuscript/rnas/3q50

>  <Rbt.Executable>
rbdock ($Id: //depot/dev/client3/rdock/2013.1/src/exe/rbdock.cxx#4 $)

>  <Rbt.Library>
libRbt.so (2013.1, Build901 2013/11/27)

>  <Rbt.Parameter_File>
/export/apps/rDock/src/rDock_2013.1_src/data/scripts/dock_solv.prm

>  <Rbt.Receptor>
prm/blind_docking_100.prm

>  <SCORE>
-16.8082

>  <SCORE.INTER>
-17.8369

>  <SCORE.INTER.CONST>
1

>  <SCORE.INTER.POLAR>
0

>  <SCORE.INTER.ROT>
1

>  <SCORE.INTER.SOLV>
20.2081

>  <SCORE.INTER.VDW>
-22.8939

>  <SCORE.INTER.norm>
-1.37207

>  <SCORE.INTRA>
1.02865

>  <SCORE.INTRA.DIHEDRAL>
-0.00331307

>  <SCORE.INTRA.DIHEDRAL.0>
1.65305

>  <SCORE.INTRA.POLAR>
0

>  <SCORE.INTRA.POLAR.0>
0

>  <SCORE.INTRA.REPUL>
0

>  <SCORE.INTRA.REPUL.0>
0

>  <SCORE.INTRA.SOLV>
2.06928

>  <SCORE.INTRA.SOLV.lig_0>
-46.9527

>  <SCORE.INTRA.VDW>
-0.00433331

>  <SCORE.INTRA.VDW.0>
-0.177978

>  <SCORE.INTRA.norm>
0.079127

>  <SCORE.RESTR>
0

>  <SCORE.RESTR.CAVITY>
0

>  <SCORE.RESTR.norm>
0

>  <SCORE.SYSTEM>
0

>  <SCORE.SYSTEM.CONST>
0

>  <SCORE.SYSTEM.DIHEDRAL>
0

>  <SCORE.SYSTEM.SOLV>
0

>  <SCORE.SYSTEM.norm>
0

>  <SCORE.heavy>
13

>  <SCORE.norm>
-1.29294

>  <RMSD>
4.591

$$$$
ligand
 OpenBabel02271912143D
libRbt.so/2013.1/901 2013/11/27
 13 14  0  0  0  0  0  0  0  0999 V2000
   35.7310   32.3104   26.8363 N   0  0  0  0  0  0  0  0  0  0  0  0
   36.9323   33.0403   26.8940 C   0  0  0  0  0  0  0  0  0  0  0  0
   37.7385   32.8223   28.0033 N   0  0  0  0  0  0  0  0  0  0  0  0
   37.3481   33.9518   25.9819 N   0  0  0  0  0  0  0  0  0  0  0  0
   36.4393   34.0983   24.9383 C   0  0  0  0  0  0  0  0  0  0  0  0
   35.2314   33.4058   24.7895 C   0  0  0  0  0  0  0  0  0  0  0  0
   34.8177   32.4703   25.7492 C   0  0  0  0  0  0  0  0  0  0  0  0
   33.7844   31.8175   25.7426 O   0  0  0  0  0  0  0  0  0  0  0  0
   34.5985   33.8369   23.6011 C   0  0  0  0  0  0  0  0  0  0  0  0
   35.4356   34.7852   23.0339 C   0  0  0  0  0  0  0  0  0  0  0  0
   36.5792   34.9477   23.8561 N   0  0  0  0  0  0  0  0  0  0  0  0
   33.2763   33.3331   23.1400 C   0  0  0  0  0  0  0  0  0  0  0  0
   33.2372   31.8626   23.1656 N   0  0  0  0  0  0  0  0  0  0  0  0
  1  2  1  0  0  0  0
  1  7  1  0  0  0  0
  2  3  1  0  0  0  0
  2  4  2  0  0  0  0
  4  5  1  0  0  0  0
  5  6  2  0  0  0  0
  5 11  1  0  0  0  0
  6  7  1  0  0  0  0
  6  9  1  0  0  0  0
  7  8  2  0  0  0  0
  9 10  2  0  0  0  0
  9 12  1  0  0  0  0
 10 11  1  0  0  0  0
 12 13  1  0  0  0  0
M  END
>  <CHROM.1>
-49.44255204,35.44607333,33.24381735,25.07944698,0.65481624,0.57297975,2.18905924

>  <Name>
ligand

>  <RI>
0

>  <Rbt.Current_Directory>
/home/itssahil/PROJECTS/Mol_Feturizer/Test_systems_manuscript/rnas/3q50

>  <Rbt.Executable>
rbdock ($Id: //depot/dev/client3/rdock/2013.1/src/exe/rbdock.cxx#4 $)

>  <Rbt.Library>
libRbt.so (2013.1, Build901 2013/11/27)

>  <Rbt.Parameter_File>
/export/apps/rDock/src/rDock_2013.1_src/data/scripts/dock_solv.prm

>  <Rbt.Receptor>
prm/blind_docking_100.prm

>  <SCORE>
-16.8122

>  <SCORE.INTER>
-17.8639

>  <SCORE.INTER.CONST>
1

>  <SCORE.INTER.POLAR>
0

>  <SCORE.INTER.ROT>
1

>  <SCORE.INTER.SOLV>
20.261

>  <SCORE.INTER.VDW>
-22.9296

>  <SCORE.INTER.norm>
-1.37414

>  <SCORE.INTRA>
1.05165

>  <SCORE.INTRA.DIHEDRAL>
-0.00438028

>  <SCORE.INTRA.DIHEDRAL.0>
1.65305

>  <SCORE.INTRA.POLAR>
0

>  <SCORE.INTRA.POLAR.0>
0

>  <SCORE.INTRA.REPUL>
0

>  <SCORE.INTRA.REPUL.0>
0

>  <SCORE.INTRA.SOLV>
2.08095

>  <SCORE.INTRA.SOLV.lig_0>
-46.9527

>  <SCORE.INTRA.VDW>
0.0133597

>  <SCORE.INTRA.VDW.0>
-0.177978

>  <SCORE.INTRA.norm>
0.0808958

>  <SCORE.RESTR>
0

>  <SCORE.RESTR.CAVITY>
0

>  <SCORE.RESTR.norm>
0

>  <SCORE.SYSTEM>
0

>  <SCORE.SYSTEM.CONST>
0

>  <SCORE.SYSTEM.DIHEDRAL>
0

>  <SCORE.SYSTEM.SOLV>
0

>  <SCORE.SYSTEM.norm>
0

>  <SCORE.heavy>
13

>  <SCORE.norm>
-1.29325

>  <RMSD>
4.591

$$$$
ligand
 OpenBabel02271912143D
libRbt.so/2013.1/901 2013/11/27
 13 14  0  0  0  0  0  0  0  0999 V2000
   35.7302   32.3084   26.8364 N   0  0  0  0  0  0  0  0  0  0  0  0
   36.9328   33.0362   26.8937 C   0  0  0  0  0  0  0  0  0  0  0  0
   37.7393   32.8163   28.0024 N   0  0  0  0  0  0  0  0  0  0  0  0
   37.3496   33.9475   25.9818 N   0  0  0  0  0  0  0  0  0  0  0  0
   36.4404   34.0961   24.9389 C   0  0  0  0  0  0  0  0  0  0  0  0
   35.2312   33.4058   24.7904 C   0  0  0  0  0  0  0  0  0  0  0  0
   34.8165   32.4705   25.7498 C   0  0  0  0  0  0  0  0  0  0  0  0
   33.7821   31.8194   25.7435 O   0  0  0  0  0  0  0  0  0  0  0  0
   34.5984   33.8386   23.6026 C   0  0  0  0  0  0  0  0  0  0  0  0
   35.4367   34.7858   23.0355 C   0  0  0  0  0  0  0  0  0  0  0  0
   36.5811   34.9459   23.8570 N   0  0  0  0  0  0  0  0  0  0  0  0
   33.2750   33.3373   23.1421 C   0  0  0  0  0  0  0  0  0  0  0  0
   33.2428   31.8665   23.1404 N   0  0  0  0  0  0  0  0  0  0  0  0
  1  2  1  0  0  0  0
  1  7  1  0  0  0  0
  2  3  1  0  0  0  0
  2  4  2  0  0  0  0
  4  5  1  0  0  0  0
  5  6  2  0  0  0  0
  5 11  1  0  0  0  0
  6  7  1  0  0  0  0
  6  9  1  0  0  0  0
  7  8  2  0  0  0  0
  9 10  2  0  0  0  0
  9 12  1  0  0  0  0
 10 11  1  0  0  0  0
 12 13  1  0  0  0  0
M  END
>  <CHROM.1>
-50.61758081,35.44657162,33.24323419,25.07800989,0.65694902,0.57264548,2.18880953

>  <Name>
ligand

>  <RI>
0

>  <Rbt.Current_Directory>
/home/itssahil/PROJECTS/Mol_Feturizer/Test_systems_manuscript/rnas/3q50

>  <Rbt.Executable>
rbdock ($Id: //depot/dev/client3/rdock/2013.1/src/exe/rbdock.cxx#4 $)

>  <Rbt.Library>
libRbt.so (2013.1, Build901 2013/11/27)

>  <Rbt.Parameter_File>
/export/apps/rDock/src/rDock_2013.1_src/data/scripts/dock_solv.prm

>  <Rbt.Receptor>
prm/blind_docking_60.prm

>  <SCORE>
-16.8128

>  <SCORE.INTER>
-17.8035

>  <SCORE.INTER.CONST>
1

>  <SCORE.INTER.POLAR>
0

>  <SCORE.INTER.ROT>
1

>  <SCORE.INTER.SOLV>
20.2877

>  <SCORE.INTER.VDW>
-22.8982

>  <SCORE.INTER.norm>
-1.3695

>  <SCORE.INTRA>
0.990731

>  <SCORE.INTRA.DIHEDRAL>
-0.00142177

>  <SCORE.INTRA.DIHEDRAL.0>
1.65305

>  <SCORE.INTRA.POLAR>
0

>  <SCORE.INTRA.POLAR.0>
0

>  <SCORE.INTRA.REPUL>
0

>  <SCORE.INTRA.REPUL.0>
0

>  <SCORE.INTRA.SOLV>
2.04888

>  <SCORE.INTRA.SOLV.lig_0>
-46.9527

>  <SCORE.INTRA.VDW>
-0.0329964

>  <SCORE.INTRA.VDW.0>
-0.177978

>  <SCORE.INTRA.norm>
0.0762101

>  <SCORE.RESTR>
0

>  <SCORE.RESTR.CAVITY>
0

>  <SCORE.RESTR.norm>
0

>  <SCORE.SYSTEM>
0

>  <SCORE.SYSTEM.CONST>
0

>  <SCORE.SYSTEM.DIHEDRAL>
0

>  <SCORE.SYSTEM.SOLV>
0

>  <SCORE.SYSTEM.norm>
0

>  <SCORE.heavy>
13

>  <SCORE.norm>
-1.29329

>  <RMSD>
4.591

$$$$
ligand
 OpenBabel02271912143D
libRbt.so/2013.1/901 2013/11/27
 13 14  0  0  0  0  0  0  0  0999 V2000
   37.4366   35.5468   25.9166 N   0  0  0  0  0  0  0  0  0  0  0  0
   37.2080   36.4513   24.8635 C   0  0  0  0  0  0  0  0  0  0  0  0
   37.9503   37.6246   24.8806 N   0  0  0  0  0  0  0  0  0  0  0  0
   36.3104   36.2879   23.8618 N   0  0  0  0  0  0  0  0  0  0  0  0
   35.6126   35.0894   23.9763 C   0  0  0  0  0  0  0  0  0  0  0  0
   35.7833   34.1247   24.9768 C   0  0  0  0  0  0  0  0  0  0  0  0
   36.7147   34.3171   26.0077 C   0  0  0  0  0  0  0  0  0  0  0  0
   36.9442   33.5633   26.9420 O   0  0  0  0  0  0  0  0  0  0  0  0
   34.8895   33.0551   24.7404 C   0  0  0  0  0  0  0  0  0  0  0  0
   34.1874   33.3790   23.5898 C   0  0  0  0  0  0  0  0  0  0  0  0
   34.6345   34.6360   23.1102 N   0  0  0  0  0  0  0  0  0  0  0  0
   34.7751   31.8637   25.6248 C   0  0  0  0  0  0  0  0  0  0  0  0
   33.3864   31.6736   26.0719 N   0  0  0  0  0  0  0  0  0  0  0  0
  1  2  1  0  0  0  0
  1  7  1  0  0  0  0
  2  3  1  0  0  0  0
  2  4  2  0  0  0  0
  4  5  1  0  0  0  0
  5  6  2  0  0  0  0
  5 11  1  0  0  0  0
  6  7  1  0  0  0  0
  6  9  1  0  0  0  0
  7  8  2  0  0  0  0
  9 10  2  0  0  0  0
  9 12  1  0  0  0  0
 10 11  1  0  0  0  0
 12 13  1  0  0  0  0
M  END
>  <CHROM.1>
125.00312774,35.85306169,34.42339132,25.00835058,-0.68364892,0.72946616,2.35060088

>  <Name>
ligand

>  <RI>
0

>  <Rbt.Current_Directory>
/home/itssahil/PROJECTS/Mol_Feturizer/Test_systems_manuscript/rnas/3q50

>  <Rbt.Executable>
rbdock ($Id: //depot/dev/client3/rdock/2013.1/src/exe/rbdock.cxx#4 $)

>  <Rbt.Library>
libRbt.so (2013.1, Build901 2013/11/27)

>  <Rbt.Parameter_File>
/export/apps/rDock/src/rDock_2013.1_src/data/scripts/dock_solv.prm

>  <Rbt.Receptor>
prm/blind_docking_80.prm

>  <SCORE>
-13.7728

>  <SCORE.INTER>
-13.7646

>  <SCORE.INTER.CONST>
1

>  <SCORE.INTER.POLAR>
0

>  <SCORE.INTER.ROT>
1

>  <SCORE.INTER.SOLV>
16.4721

>  <SCORE.INTER.VDW>
-18.9337

>  <SCORE.INTER.norm>
-1.05881

>  <SCORE.INTRA>
-0.00826271

>  <SCORE.INTRA.DIHEDRAL>
0.0434484

>  <SCORE.INTRA.DIHEDRAL.0>
1.65305

>  <SCORE.INTRA.POLAR>
0

>  <SCORE.INTRA.POLAR.0>
0

>  <SCORE.INTRA.REPUL>
0

>  <SCORE.INTRA.REPUL.0>
0

>  <SCORE.INTRA.SOLV>
0.159898

>  <SCORE.INTRA.SOLV.lig_0>
-46.9527

>  <SCORE.INTRA.VDW>
-0.109936

>  <SCORE.INTRA.VDW.0>
-0.177978

>  <SCORE.INTRA.norm>
-0.000635593

>  <SCORE.RESTR>
0

>  <SCORE.RESTR.CAVITY>
0

>  <SCORE.RESTR.norm>
0

>  <SCORE.SYSTEM>
0

>  <SCORE.SYSTEM.CONST>
0

>  <SCORE.SYSTEM.DIHEDRAL>
0

>  <SCORE.SYSTEM.SOLV>
0

>  <SCORE.SYSTEM.norm>
0

>  <SCORE.heavy>
13

>  <SCORE.norm>
-1.05945

>  <RMSD>
4.591

$$$$
ligand
 OpenBabel02271912143D
libRbt.so/2013.1/901 2013/11/27
 13 14  0  0  0  0  0  0  0  0999 V2000
   35.7300   32.3075   26.8327 N   0  0  0  0  0  0  0  0  0  0  0  0
   36.9368   33.0287   26.8862 C   0  0  0  0  0  0  0  0  0  0  0  0
   37.7445   32.8061   27.9935 N   0  0  0  0  0  0  0  0  0  0  0  0
   37.3567   33.9361   25.9719 N   0  0  0  0  0  0  0  0  0  0  0  0
   36.4460   34.0880   24.9307 C   0  0  0  0  0  0  0  0  0  0  0  0
   35.2327   33.4042   24.7860 C   0  0  0  0  0  0  0  0  0  0  0  0
   34.8149   32.4729   25.7479 C   0  0  0  0  0  0  0  0  0  0  0  0
   33.7769   31.8276   25.7450 O   0  0  0  0  0  0  0  0  0  0  0  0
   34.5998   33.8386   23.5989 C   0  0  0  0  0  0  0  0  0  0  0  0
   35.4421   34.7801   23.0283 C   0  0  0  0  0  0  0  0  0  0  0  0
   36.5891   34.9352   23.8471 N   0  0  0  0  0  0  0  0  0  0  0  0
   33.2726   33.3439   23.1421 C   0  0  0  0  0  0  0  0  0  0  0  0
   33.2319   31.8733   23.1439 N   0  0  0  0  0  0  0  0  0  0  0  0
  1  2  1  0  0  0  0
  1  7  1  0  0  0  0
  2  3  1  0  0  0  0
  2  4  2  0  0  0  0
  4  5  1  0  0  0  0
  5  6  2  0  0  0  0
  5 11  1  0  0  0  0
  6  7  1  0  0  0  0
  6  9  1  0  0  0  0
  7  8  2  0  0  0  0
  9 10  2  0  0  0  0
  9 12  1  0  0  0  0
 10 11  1  0  0  0  0
 12 13  1  0  0  0  0
M  END
>  <CHROM.1>
-50.57371469,35.44778907,33.24096358,25.07349637,0.65862100,0.56678002,2.18619986

>  <Name>
ligand

>  <RI>
0

>  <Rbt.Current_Directory>
/home/itssahil/PROJECTS/Mol_Feturizer/Test_systems_manuscript/rnas/3q50

>  <Rbt.Executable>
rbdock ($Id: //depot/dev/client3/rdock/2013.1/src/exe/rbdock.cxx#4 $)

>  <Rbt.Library>
libRbt.so (2013.1, Build901 2013/11/27)

>  <Rbt.Parameter_File>
/export/apps/rDock/src/rDock_2013.1_src/data/scripts/dock_solv.prm

>  <Rbt.Receptor>
prm/blind_docking_80.prm

>  <SCORE>
-16.8037

>  <SCORE.INTER>
-17.7966

>  <SCORE.INTER.CONST>
1

>  <SCORE.INTER.POLAR>
0

>  <SCORE.INTER.ROT>
1

>  <SCORE.INTER.SOLV>
20.2332

>  <SCORE.INTER.VDW>
-22.8755

>  <SCORE.INTER.norm>
-1.36897

>  <SCORE.INTRA>
0.992892

>  <SCORE.INTRA.DIHEDRAL>
-0.00153422

>  <SCORE.INTRA.DIHEDRAL.0>
1.65305

>  <SCORE.INTRA.POLAR>
0

>  <SCORE.INTRA.POLAR.0>
0

>  <SCORE.INTRA.REPUL>
0

>  <SCORE.INTRA.REPUL.0>
0

>  <SCORE.INTRA.SOLV>
2.05008

>  <SCORE.INTRA.SOLV.lig_0>
-46.9527

>  <SCORE.INTRA.VDW>
-0.0313818

>  <SCORE.INTRA.VDW.0>
-0.177978

>  <SCORE.INTRA.norm>
0.0763763

>  <SCORE.RESTR>
0

>  <SCORE.RESTR.CAVITY>
0

>  <SCORE.RESTR.norm>
0

>  <SCORE.SYSTEM>
0

>  <SCORE.SYSTEM.CONST>
0

>  <SCORE.SYSTEM.DIHEDRAL>
0

>  <SCORE.SYSTEM.SOLV>
0

>  <SCORE.SYSTEM.norm>
0

>  <SCORE.heavy>
13

>  <SCORE.norm>
-1.2926

>  <RMSD>
4.591

$$$$
ligand
 OpenBabel02271912143D
libRbt.so/2013.1/901 2013/11/27
 13 14  0  0  0  0  0  0  0  0999 V2000
   35.7330   32.3065   26.8340 N   0  0  0  0  0  0  0  0  0  0  0  0
   36.9352   33.0352   26.8889 C   0  0  0  0  0  0  0  0  0  0  0  0
   37.7444   32.8156   27.9958 N   0  0  0  0  0  0  0  0  0  0  0  0
   37.3494   33.9470   25.9763 N   0  0  0  0  0  0  0  0  0  0  0  0
   36.4378   34.0952   24.9354 C   0  0  0  0  0  0  0  0  0  0  0  0
   35.2288   33.4040   24.7894 C   0  0  0  0  0  0  0  0  0  0  0  0
   34.8169   32.4682   25.7495 C   0  0  0  0  0  0  0  0  0  0  0  0
   33.7830   31.8164   25.7453 O   0  0  0  0  0  0  0  0  0  0  0  0
   34.5931   33.8367   23.6031 C   0  0  0  0  0  0  0  0  0  0  0  0
   35.4295   34.7846   23.0344 C   0  0  0  0  0  0  0  0  0  0  0  0
   36.5755   34.9453   23.8535 N   0  0  0  0  0  0  0  0  0  0  0  0
   33.2691   33.3346   23.1454 C   0  0  0  0  0  0  0  0  0  0  0  0
   33.2341   31.8638   23.1545 N   0  0  0  0  0  0  0  0  0  0  0  0
  1  2  1  0  0  0  0
  1  7  1  0  0  0  0
  2  3  1  0  0  0  0
  2  4  2  0  0  0  0
  4  5  1  0  0  0  0
  5  6  2  0  0  0  0
  5 11  1  0  0  0  0
  6  7  1  0  0  0  0
  6  9  1  0  0  0  0
  7  8  2  0  0  0  0
  9 10  2  0  0  0  0
  9 12  1  0  0  0  0
 10 11  1  0  0  0  0
 12 13  1  0  0  0  0
M  END
>  <CHROM.1>
-50.12193710,35.44461537,33.24158331,25.07740160,0.65367692,0.57139121,2.19067758

>  <Name>
ligand

>  <RI>
0

>  <Rbt.Current_Directory>
/home/itssahil/PROJECTS/Mol_Feturizer/Test_systems_manuscript/rnas/3q50

>  <Rbt.Executable>
rbdock ($Id: //depot/dev/client3/rdock/2013.1/src/exe/rbdock.cxx#4 $)

>  <Rbt.Library>
libRbt.so (2013.1, Build901 2013/11/27)

>  <Rbt.Parameter_File>
/export/apps/rDock/src/rDock_2013.1_src/data/scripts/dock_solv.prm

>  <Rbt.Receptor>
prm/blind_docking_80.prm

>  <SCORE>
-16.8145

>  <SCORE.INTER>
-17.8301

>  <SCORE.INTER.CONST>
1

>  <SCORE.INTER.POLAR>
0

>  <SCORE.INTER.ROT>
1

>  <SCORE.INTER.SOLV>
20.2336

>  <SCORE.INTER.VDW>
-22.8979

>  <SCORE.INTER.norm>
-1.37155

>  <SCORE.INTRA>
1.01564

>  <SCORE.INTRA.DIHEDRAL>
-0.00268346

>  <SCORE.INTRA.DIHEDRAL.0>
1.65305

>  <SCORE.INTRA.POLAR>
0

>  <SCORE.INTRA.POLAR.0>
0

>  <SCORE.INTRA.REPUL>
0

>  <SCORE.INTRA.REPUL.0>
0

>  <SCORE.INTRA.SOLV>
2.06245

>  <SCORE.INTRA.SOLV.lig_0>
-46.9527

>  <SCORE.INTRA.VDW>
-0.0142411

>  <SCORE.INTRA.VDW.0>
-0.177978

>  <SCORE.INTRA.norm>
0.0781264

>  <SCORE.RESTR>
0

>  <SCORE.RESTR.CAVITY>
0

>  <SCORE.RESTR.norm>
0

>  <SCORE.SYSTEM>
0

>  <SCORE.SYSTEM.CONST>
0

>  <SCORE.SYSTEM.DIHEDRAL>
0

>  <SCORE.SYSTEM.SOLV>
0

>  <SCORE.SYSTEM.norm>
0

>  <SCORE.heavy>
13

>  <SCORE.norm>
-1.29342

>  <RMSD>
4.592

$$$$
ligand
 OpenBabel02271912143D
libRbt.so/2013.1/901 2013/11/27
 13 14  0  0  0  0  0  0  0  0999 V2000
   35.7302   32.3129   26.8340 N   0  0  0  0  0  0  0  0  0  0  0  0
   36.9325   33.0414   26.8888 C   0  0  0  0  0  0  0  0  0  0  0  0
   37.7407   32.8231   27.9966 N   0  0  0  0  0  0  0  0  0  0  0  0
   37.3476   33.9518   25.9753 N   0  0  0  0  0  0  0  0  0  0  0  0
   36.4368   34.0988   24.9335 C   0  0  0  0  0  0  0  0  0  0  0  0
   35.2278   33.4078   24.7875 C   0  0  0  0  0  0  0  0  0  0  0  0
   34.8149   32.4734   25.7486 C   0  0  0  0  0  0  0  0  0  0  0  0
   33.7808   31.8218   25.7445 O   0  0  0  0  0  0  0  0  0  0  0  0
   34.5931   33.8390   23.6001 C   0  0  0  0  0  0  0  0  0  0  0  0
   35.4302   34.7859   23.0307 C   0  0  0  0  0  0  0  0  0  0  0  0
   36.5756   34.9474   23.8505 N   0  0  0  0  0  0  0  0  0  0  0  0
   33.2692   33.3366   23.1421 C   0  0  0  0  0  0  0  0  0  0  0  0
   33.2359   31.8658   23.1474 N   0  0  0  0  0  0  0  0  0  0  0  0
  1  2  1  0  0  0  0
  1  7  1  0  0  0  0
  2  3  1  0  0  0  0
  2  4  2  0  0  0  0
  4  5  1  0  0  0  0
  5  6  2  0  0  0  0
  5 11  1  0  0  0  0
  6  7  1  0  0  0  0
  6  9  1  0  0  0  0
  7  8  2  0  0  0  0
  9 10  2  0  0  0  0
  9 12  1  0  0  0  0
 10 11  1  0  0  0  0
 12 13  1  0  0  0  0
M  END
>  <CHROM.1>
-50.38231325,35.44347253,33.24566701,25.07540842,0.65493367,0.57191852,2.18870298

>  <Name>
ligand

>  <RI>
0

>  <Rbt.Current_Directory>
/home/itssahil/PROJECTS/Mol_Feturizer/Test_systems_manuscript/rnas/3q50

>  <Rbt.Executable>
rbdock ($Id: //depot/dev/client3/rdock/2013.1/src/exe/rbdock.cxx#4 $)

>  <Rbt.Library>
libRbt.so (2013.1, Build901 2013/11/27)

>  <Rbt.Parameter_File>
/export/apps/rDock/src/rDock_2013.1_src/data/scripts/dock_solv.prm

>  <Rbt.Receptor>
prm/blind_docking_80.prm

>  <SCORE>
-16.8125

>  <SCORE.INTER>
-17.8149

>  <SCORE.INTER.CONST>
1

>  <SCORE.INTER.POLAR>
0

>  <SCORE.INTER.ROT>
1

>  <SCORE.INTER.SOLV>
20.2694

>  <SCORE.INTER.VDW>
-22.8997

>  <SCORE.INTER.norm>
-1.37038

>  <SCORE.INTRA>
1.00242

>  <SCORE.INTRA.DIHEDRAL>
-0.00202309

>  <SCORE.INTRA.DIHEDRAL.0>
1.65305

>  <SCORE.INTRA.POLAR>
0

>  <SCORE.INTRA.POLAR.0>
0

>  <SCORE.INTRA.REPUL>
0

>  <SCORE.INTRA.REPUL.0>
0

>  <SCORE.INTRA.SOLV>
2.05533

>  <SCORE.INTRA.SOLV.lig_0>
-46.9527

>  <SCORE.INTRA.VDW>
-0.0242347

>  <SCORE.INTRA.VDW.0>
-0.177978

>  <SCORE.INTRA.norm>
0.0771091

>  <SCORE.RESTR>
0

>  <SCORE.RESTR.CAVITY>
0

>  <SCORE.RESTR.norm>
0

>  <SCORE.SYSTEM>
0

>  <SCORE.SYSTEM.CONST>
0

>  <SCORE.SYSTEM.DIHEDRAL>
0

>  <SCORE.SYSTEM.SOLV>
0

>  <SCORE.SYSTEM.norm>
0

>  <SCORE.heavy>
13

>  <SCORE.norm>
-1.29327

>  <RMSD>
4.592

$$$$
ligand
 OpenBabel02271912143D
libRbt.so/2013.1/901 2013/11/27
 13 14  0  0  0  0  0  0  0  0999 V2000
   35.7345   32.2983   26.8345 N   0  0  0  0  0  0  0  0  0  0  0  0
   36.9387   33.0236   26.8893 C   0  0  0  0  0  0  0  0  0  0  0  0
   37.7478   32.8011   27.9956 N   0  0  0  0  0  0  0  0  0  0  0  0
   37.3550   33.9348   25.9770 N   0  0  0  0  0  0  0  0  0  0  0  0
   36.4433   34.0862   24.9366 C   0  0  0  0  0  0  0  0  0  0  0  0
   35.2323   33.3984   24.7908 C   0  0  0  0  0  0  0  0  0  0  0  0
   34.8183   32.4632   25.7505 C   0  0  0  0  0  0  0  0  0  0  0  0
   33.7826   31.8142   25.7464 O   0  0  0  0  0  0  0  0  0  0  0  0
   34.5972   33.8336   23.6051 C   0  0  0  0  0  0  0  0  0  0  0  0
   35.4360   34.7795   23.0365 C   0  0  0  0  0  0  0  0  0  0  0  0
   36.5828   34.9366   23.8551 N   0  0  0  0  0  0  0  0  0  0  0  0
   33.2716   33.3353   23.1477 C   0  0  0  0  0  0  0  0  0  0  0  0
   33.2314   31.8647   23.1591 N   0  0  0  0  0  0  0  0  0  0  0  0
  1  2  1  0  0  0  0
  1  7  1  0  0  0  0
  2  3  1  0  0  0  0
  2  4  2  0  0  0  0
  4  5  1  0  0  0  0
  5  6  2  0  0  0  0
  5 11  1  0  0  0  0
  6  7  1  0  0  0  0
  6  9  1  0  0  0  0
  7  8  2  0  0  0  0
  9 10  2  0  0  0  0
  9 12  1  0  0  0  0
 10 11  1  0  0  0  0
 12 13  1  0  0  0  0
M  END
>  <CHROM.1>
-49.98325929,35.44771649,33.23520135,25.07884899,0.65492975,0.56870234,2.19055829

>  <Name>
ligand

>  <RI>
0

>  <Rbt.Current_Directory>
/home/itssahil/PROJECTS/Mol_Feturizer/Test_systems_manuscript/rnas/3q50

>  <Rbt.Executable>
rbdock ($Id: //depot/dev/client3/rdock/2013.1/src/exe/rbdock.cxx#4 $)

>  <Rbt.Library>
libRbt.so (2013.1, Build901 2013/11/27)

>  <Rbt.Parameter_File>
/export/apps/rDock/src/rDock_2013.1_src/data/scripts/dock_solv.prm

>  <Rbt.Receptor>
prm/pocket_docking_5.prm

>  <SCORE>
-16.8129

>  <SCORE.INTER>
-17.8357

>  <SCORE.INTER.CONST>
1

>  <SCORE.INTER.POLAR>
0

>  <SCORE.INTER.ROT>
1

>  <SCORE.INTER.SOLV>
20.1958

>  <SCORE.INTER.VDW>
-22.8891

>  <SCORE.INTER.norm>
-1.37198

>  <SCORE.INTRA>
1.02281

>  <SCORE.INTRA.DIHEDRAL>
-0.00303294

>  <SCORE.INTRA.DIHEDRAL.0>
1.65305

>  <SCORE.INTRA.POLAR>
0

>  <SCORE.INTRA.POLAR.0>
0

>  <SCORE.INTRA.REPUL>
0

>  <SCORE.INTRA.REPUL.0>
0

>  <SCORE.INTRA.SOLV>
2.06624

>  <SCORE.INTRA.SOLV.lig_0>
-46.9527

>  <SCORE.INTRA.VDW>
-0.00878857

>  <SCORE.INTRA.VDW.0>
-0.177978

>  <SCORE.INTRA.norm>
0.078678

>  <SCORE.RESTR>
0

>  <SCORE.RESTR.CAVITY>
0

>  <SCORE.RESTR.norm>
0

>  <SCORE.SYSTEM>
0

>  <SCORE.SYSTEM.CONST>
0

>  <SCORE.SYSTEM.DIHEDRAL>
0

>  <SCORE.SYSTEM.SOLV>
0

>  <SCORE.SYSTEM.norm>
0

>  <SCORE.heavy>
13

>  <SCORE.norm>
-1.2933

>  <RMSD>
4.592

$$$$
ligand
 OpenBabel02271912143D
libRbt.so/2013.1/901 2013/11/27
 13 14  0  0  0  0  0  0  0  0999 V2000
   35.8131   32.2735   26.8761 N   0  0  0  0  0  0  0  0  0  0  0  0
   37.0093   33.0114   26.9369 C   0  0  0  0  0  0  0  0  0  0  0  0
   37.8245   32.7829   28.0375 N   0  0  0  0  0  0  0  0  0  0  0  0
   37.4123   33.9396   26.0359 N   0  0  0  0  0  0  0  0  0  0  0  0
   36.4954   34.0950   25.0007 C   0  0  0  0  0  0  0  0  0  0  0  0
   35.2917   33.3959   24.8494 C   0  0  0  0  0  0  0  0  0  0  0  0
   34.8914   32.4430   25.7975 C   0  0  0  0  0  0  0  0  0  0  0  0
   33.8629   31.7826   25.7878 O   0  0  0  0  0  0  0  0  0  0  0  0
   34.6478   33.8401   23.6718 C   0  0  0  0  0  0  0  0  0  0  0  0
   35.4741   34.8031   23.1135 C   0  0  0  0  0  0  0  0  0  0  0  0
   36.6218   34.9617   23.9305 N   0  0  0  0  0  0  0  0  0  0  0  0
   33.3263   33.3334   23.2119 C   0  0  0  0  0  0  0  0  0  0  0  0
   33.2968   31.8625   23.2196 N   0  0  0  0  0  0  0  0  0  0  0  0
  1  2  1  0  0  0  0
  1  7  1  0  0  0  0
  2  3  1  0  0  0  0
  2  4  2  0  0  0  0
  4  5  1  0  0  0  0
  5  6  2  0  0  0  0
  5 11  1  0  0  0  0
  6  7  1  0  0  0  0
  6  9  1  0  0  0  0
  7  8  2  0  0  0  0
  9 10  2  0  0  0  0
  9 12  1  0  0  0  0
 10 11  1  0  0  0  0
 12 13  1  0  0  0  0
M  END
>  <CHROM.1>
-49.25960172,35.50943980,33.23114233,25.13576146,0.64300068,0.57486990,2.21050017

>  <Name>
ligand

>  <RI>
0

>  <Rbt.Current_Directory>
/home/itssahil/PROJECTS/Mol_Feturizer/Test_systems_manuscript/rnas/3q50

>  <Rbt.Executable>
rbdock ($Id: //depot/dev/client3/rdock/2013.1/src/exe/rbdock.cxx#4 $)

>  <Rbt.Library>
libRbt.so (2013.1, Build901 2013/11/27)

>  <Rbt.Parameter_File>
/export/apps/rDock/src/rDock_2013.1_src/data/scripts/dock_solv.prm

>  <Rbt.Receptor>
prm/blind_docking_100.prm

>  <SCORE>
-16.8

>  <SCORE.INTER>
-17.8617

>  <SCORE.INTER.CONST>
1

>  <SCORE.INTER.POLAR>
0

>  <SCORE.INTER.ROT>
1

>  <SCORE.INTER.SOLV>
19.852

>  <SCORE.INTER.VDW>
-22.7918

>  <SCORE.INTER.norm>
-1.37398

>  <SCORE.INTRA>
1.06172

>  <SCORE.INTRA.DIHEDRAL>
-0.00483053

>  <SCORE.INTRA.DIHEDRAL.0>
1.65305

>  <SCORE.INTRA.POLAR>
0

>  <SCORE.INTRA.POLAR.0>
0

>  <SCORE.INTRA.REPUL>
0

>  <SCORE.INTRA.REPUL.0>
0

>  <SCORE.INTRA.SOLV>
2.08591

>  <SCORE.INTRA.SOLV.lig_0>
-46.9527

>  <SCORE.INTRA.VDW>
0.021183

>  <SCORE.INTRA.VDW.0>
-0.177978

>  <SCORE.INTRA.norm>
0.0816711

>  <SCORE.RESTR>
0

>  <SCORE.RESTR.CAVITY>
0

>  <SCORE.RESTR.norm>
0

>  <SCORE.SYSTEM>
0

>  <SCORE.SYSTEM.CONST>
0

>  <SCORE.SYSTEM.DIHEDRAL>
0

>  <SCORE.SYSTEM.SOLV>
0

>  <SCORE.SYSTEM.norm>
0

>  <SCORE.heavy>
13

>  <SCORE.norm>
-1.29231

>  <RMSD>
4.593

$$$$
ligand
 OpenBabel02271912143D
libRbt.so/2013.1/901 2013/11/27
 13 14  0  0  0  0  0  0  0  0999 V2000
   35.7337   32.3060   26.8340 N   0  0  0  0  0  0  0  0  0  0  0  0
   36.9352   33.0358   26.8892 C   0  0  0  0  0  0  0  0  0  0  0  0
   37.7434   32.8182   27.9972 N   0  0  0  0  0  0  0  0  0  0  0  0
   37.3496   33.9468   25.9759 N   0  0  0  0  0  0  0  0  0  0  0  0
   36.4389   34.0930   24.9339 C   0  0  0  0  0  0  0  0  0  0  0  0
   35.2307   33.4006   24.7875 C   0  0  0  0  0  0  0  0  0  0  0  0
   34.8185   32.4657   25.7483 C   0  0  0  0  0  0  0  0  0  0  0  0
   33.7851   31.8130   25.7439 O   0  0  0  0  0  0  0  0  0  0  0  0
   34.5958   33.8314   23.6000 C   0  0  0  0  0  0  0  0  0  0  0  0
   35.4320   34.7793   23.0310 C   0  0  0  0  0  0  0  0  0  0  0  0
   36.5770   34.9419   23.8511 N   0  0  0  0  0  0  0  0  0  0  0  0
   33.2726   33.3276   23.1416 C   0  0  0  0  0  0  0  0  0  0  0  0
   33.2382   31.8568   23.1542 N   0  0  0  0  0  0  0  0  0  0  0  0
  1  2  1  0  0  0  0
  1  7  1  0  0  0  0
  2  3  1  0  0  0  0
  2  4  2  0  0  0  0
  4  5  1  0  0  0  0
  5  6  2  0  0  0  0
  5 11  1  0  0  0  0
  6  7  1  0  0  0  0
  6  9  1  0  0  0  0
  7  8  2  0  0  0  0
  9 10  2  0  0  0  0
  9 12  1  0  0  0  0
 10 11  1  0  0  0  0
 12 13  1  0  0  0  0
M  END
>  <CHROM.1>
-50.04853768,35.44623813,33.23872122,25.07608066,0.65400711,0.57255762,2.18925413

>  <Name>
ligand

>  <RI>
0

>  <Rbt.Current_Directory>
/home/itssahil/PROJECTS/Mol_Feturizer/Test_systems_manuscript/rnas/3q50

>  <Rbt.Executable>
rbdock ($Id: //depot/dev/client3/rdock/2013.1/src/exe/rbdock.cxx#4 $)

>  <Rbt.Library>
libRbt.so (2013.1, Build901 2013/11/27)

>  <Rbt.Parameter_File>
/export/apps/rDock/src/rDock_2013.1_src/data/scripts/dock_solv.prm

>  <Rbt.Receptor>
prm/blind_docking_100.prm

>  <SCORE>
-16.8098

>  <SCORE.INTER>
-17.8292

>  <SCORE.INTER.CONST>
1

>  <SCORE.INTER.POLAR>
0

>  <SCORE.INTER.ROT>
1

>  <SCORE.INTER.SOLV>
20.2484

>  <SCORE.INTER.VDW>
-22.9023

>  <SCORE.INTER.norm>
-1.37148

>  <SCORE.INTRA>
1.01943

>  <SCORE.INTRA.DIHEDRAL>
-0.00286863

>  <SCORE.INTRA.DIHEDRAL.0>
1.65305

>  <SCORE.INTRA.POLAR>
0

>  <SCORE.INTRA.POLAR.0>
0

>  <SCORE.INTRA.REPUL>
0

>  <SCORE.INTRA.REPUL.0>
0

>  <SCORE.INTRA.SOLV>
2.06446

>  <SCORE.INTRA.SOLV.lig_0>
-46.9527

>  <SCORE.INTRA.VDW>
-0.0113666

>  <SCORE.INTRA.VDW.0>
-0.177978

>  <SCORE.INTRA.norm>
0.0784175

>  <SCORE.RESTR>
0

>  <SCORE.RESTR.CAVITY>
0

>  <SCORE.RESTR.norm>
0

>  <SCORE.SYSTEM>
0

>  <SCORE.SYSTEM.CONST>
0

>  <SCORE.SYSTEM.DIHEDRAL>
0

>  <SCORE.SYSTEM.SOLV>
0

>  <SCORE.SYSTEM.norm>
0

>  <SCORE.heavy>
13

>  <SCORE.norm>
-1.29306

>  <RMSD>
4.593

$$$$
ligand
 OpenBabel02271912143D
libRbt.so/2013.1/901 2013/11/27
 13 14  0  0  0  0  0  0  0  0999 V2000
   35.7332   32.3086   26.8333 N   0  0  0  0  0  0  0  0  0  0  0  0
   36.9351   33.0380   26.8860 C   0  0  0  0  0  0  0  0  0  0  0  0
   37.7450   32.8209   27.9927 N   0  0  0  0  0  0  0  0  0  0  0  0
   37.3482   33.9482   25.9713 N   0  0  0  0  0  0  0  0  0  0  0  0
   36.4359   34.0939   24.9307 C   0  0  0  0  0  0  0  0  0  0  0  0
   35.2271   33.4018   24.7868 C   0  0  0  0  0  0  0  0  0  0  0  0
   34.8162   32.4677   25.7490 C   0  0  0  0  0  0  0  0  0  0  0  0
   33.7826   31.8154   25.7468 O   0  0  0  0  0  0  0  0  0  0  0  0
   34.5904   33.8319   23.6001 C   0  0  0  0  0  0  0  0  0  0  0  0
   35.4260   34.7791   23.0289 C   0  0  0  0  0  0  0  0  0  0  0  0
   36.5725   34.9419   23.8470 N   0  0  0  0  0  0  0  0  0  0  0  0
   33.2663   33.3282   23.1442 C   0  0  0  0  0  0  0  0  0  0  0  0
   33.2351   31.8573   23.1476 N   0  0  0  0  0  0  0  0  0  0  0  0
  1  2  1  0  0  0  0
  1  7  1  0  0  0  0
  2  3  1  0  0  0  0
  2  4  2  0  0  0  0
  4  5  1  0  0  0  0
  5  6  2  0  0  0  0
  5 11  1  0  0  0  0
  6  7  1  0  0  0  0
  6  9  1  0  0  0  0
  7  8  2  0  0  0  0
  9 10  2  0  0  0  0
  9 12  1  0  0  0  0
 10 11  1  0  0  0  0
 12 13  1  0  0  0  0
M  END
>  <CHROM.1>
-50.50545360,35.44343008,33.24006192,25.07430030,0.65322781,0.57185857,2.18905508

>  <Name>
ligand

>  <RI>
0

>  <Rbt.Current_Directory>
/home/itssahil/PROJECTS/Mol_Feturizer/Test_systems_manuscript/rnas/3q50

>  <Rbt.Executable>
rbdock ($Id: //depot/dev/client3/rdock/2013.1/src/exe/rbdock.cxx#4 $)

>  <Rbt.Library>
libRbt.so (2013.1, Build901 2013/11/27)

>  <Rbt.Parameter_File>
/export/apps/rDock/src/rDock_2013.1_src/data/scripts/dock_solv.prm

>  <Rbt.Receptor>
prm/blind_docking_100.prm

>  <SCORE>
-16.8115

>  <SCORE.INTER>
-17.8078

>  <SCORE.INTER.CONST>
1

>  <SCORE.INTER.POLAR>
0

>  <SCORE.INTER.ROT>
1

>  <SCORE.INTER.SOLV>
20.2492

>  <SCORE.INTER.VDW>
-22.8882

>  <SCORE.INTER.norm>
-1.36983

>  <SCORE.INTRA>
0.99627

>  <SCORE.INTRA.DIHEDRAL>
-0.0017089

>  <SCORE.INTRA.DIHEDRAL.0>
1.65305

>  <SCORE.INTRA.POLAR>
0

>  <SCORE.INTRA.POLAR.0>
0

>  <SCORE.INTRA.REPUL>
0

>  <SCORE.INTRA.REPUL.0>
0

>  <SCORE.INTRA.SOLV>
2.05195

>  <SCORE.INTRA.SOLV.lig_0>
-46.9527

>  <SCORE.INTRA.VDW>
-0.028852

>  <SCORE.INTRA.VDW.0>
-0.177978

>  <SCORE.INTRA.norm>
0.0766362

>  <SCORE.RESTR>
0

>  <SCORE.RESTR.CAVITY>
0

>  <SCORE.RESTR.norm>
0

>  <SCORE.SYSTEM>
0

>  <SCORE.SYSTEM.CONST>
0

>  <SCORE.SYSTEM.DIHEDRAL>
0

>  <SCORE.SYSTEM.SOLV>
0

>  <SCORE.SYSTEM.norm>
0

>  <SCORE.heavy>
13

>  <SCORE.norm>
-1.29319

>  <RMSD>
4.594

$$$$
ligand
 OpenBabel02271912143D
libRbt.so/2013.1/901 2013/11/27
 13 14  0  0  0  0  0  0  0  0999 V2000
   35.8145   32.2838   26.8727 N   0  0  0  0  0  0  0  0  0  0  0  0
   37.0090   33.0247   26.9306 C   0  0  0  0  0  0  0  0  0  0  0  0
   37.8256   32.8012   28.0311 N   0  0  0  0  0  0  0  0  0  0  0  0
   37.4091   33.9514   26.0267 N   0  0  0  0  0  0  0  0  0  0  0  0
   36.4911   34.1016   24.9917 C   0  0  0  0  0  0  0  0  0  0  0  0
   35.2890   33.3991   24.8432 C   0  0  0  0  0  0  0  0  0  0  0  0
   34.8916   32.4480   25.7943 C   0  0  0  0  0  0  0  0  0  0  0  0
   33.8648   31.7851   25.7873 O   0  0  0  0  0  0  0  0  0  0  0  0
   34.6431   33.8385   23.6649 C   0  0  0  0  0  0  0  0  0  0  0  0
   35.4666   34.8019   23.1033 C   0  0  0  0  0  0  0  0  0  0  0  0
   36.6146   34.9655   23.9190 N   0  0  0  0  0  0  0  0  0  0  0  0
   33.3224   33.3273   23.2074 C   0  0  0  0  0  0  0  0  0  0  0  0
   33.2964   31.8564   23.2195 N   0  0  0  0  0  0  0  0  0  0  0  0
  1  2  1  0  0  0  0
  1  7  1  0  0  0  0
  2  3  1  0  0  0  0
  2  4  2  0  0  0  0
  4  5  1  0  0  0  0
  5  6  2  0  0  0  0
  5 11  1  0  0  0  0
  6  7  1  0  0  0  0
  6  9  1  0  0  0  0
  7  8  2  0  0  0  0
  9 10  2  0  0  0  0
  9 12  1  0  0  0  0
 10 11  1  0  0  0  0
 12 13  1  0  0  0  0
M  END
>  <CHROM.1>
-49.25358510,35.50727158,33.23575530,25.12993944,0.64056227,0.57635518,2.20900375

>  <Name>
ligand

>  <RI>
0

>  <Rbt.Current_Directory>
/home/itssahil/PROJECTS/Mol_Feturizer/Test_systems_manuscript/rnas/3q50

>  <Rbt.Executable>
rbdock ($Id: //depot/dev/client3/rdock/2013.1/src/exe/rbdock.cxx#4 $)

>  <Rbt.Library>
libRbt.so (2013.1, Build901 2013/11/27)

>  <Rbt.Parameter_File>
/export/apps/rDock/src/rDock_2013.1_src/data/scripts/dock_solv.prm

>  <Rbt.Receptor>
prm/blind_docking_100.prm

>  <SCORE>
-16.8011

>  <SCORE.INTER>
-17.8632

>  <SCORE.INTER.CONST>
1

>  <SCORE.INTER.POLAR>
0

>  <SCORE.INTER.ROT>
1

>  <SCORE.INTER.SOLV>
19.8642

>  <SCORE.INTER.VDW>
-22.7969

>  <SCORE.INTER.norm>
-1.37409

>  <SCORE.INTRA>
1.06206

>  <SCORE.INTRA.DIHEDRAL>
-0.00484528

>  <SCORE.INTRA.DIHEDRAL.0>
1.65305

>  <SCORE.INTRA.POLAR>
0

>  <SCORE.INTRA.POLAR.0>
0

>  <SCORE.INTRA.REPUL>
0

>  <SCORE.INTRA.REPUL.0>
0

>  <SCORE.INTRA.SOLV>
2.08608

>  <SCORE.INTRA.SOLV.lig_0>
-46.9527

>  <SCORE.INTRA.VDW>
0.0214431

>  <SCORE.INTRA.VDW.0>
-0.177978

>  <SCORE.INTRA.norm>
0.0816968

>  <SCORE.RESTR>
0

>  <SCORE.RESTR.CAVITY>
0

>  <SCORE.RESTR.norm>
0

>  <SCORE.SYSTEM>
0

>  <SCORE.SYSTEM.CONST>
0

>  <SCORE.SYSTEM.DIHEDRAL>
0

>  <SCORE.SYSTEM.SOLV>
0

>  <SCORE.SYSTEM.norm>
0

>  <SCORE.heavy>
13

>  <SCORE.norm>
-1.2924

>  <RMSD>
4.595

$$$$
ligand
 OpenBabel02271912143D
libRbt.so/2013.1/901 2013/11/27
 13 14  0  0  0  0  0  0  0  0999 V2000
   35.8185   32.2903   26.8633 N   0  0  0  0  0  0  0  0  0  0  0  0
   37.0112   33.0345   26.9189 C   0  0  0  0  0  0  0  0  0  0  0  0
   37.8299   32.8141   28.0185 N   0  0  0  0  0  0  0  0  0  0  0  0
   37.4076   33.9614   26.0136 N   0  0  0  0  0  0  0  0  0  0  0  0
   36.4878   34.1083   24.9797 C   0  0  0  0  0  0  0  0  0  0  0  0
   35.2873   33.4026   24.8335 C   0  0  0  0  0  0  0  0  0  0  0  0
   34.8937   32.4512   25.7860 C   0  0  0  0  0  0  0  0  0  0  0  0
   33.8686   31.7856   25.7809 O   0  0  0  0  0  0  0  0  0  0  0  0
   34.6387   33.8392   23.6557 C   0  0  0  0  0  0  0  0  0  0  0  0
   35.4589   34.8043   23.0921 C   0  0  0  0  0  0  0  0  0  0  0  0
   36.6076   34.9717   23.9061 N   0  0  0  0  0  0  0  0  0  0  0  0
   33.3187   33.3242   23.2005 C   0  0  0  0  0  0  0  0  0  0  0  0
   33.2895   31.8537   23.2338 N   0  0  0  0  0  0  0  0  0  0  0  0
  1  2  1  0  0  0  0
  1  7  1  0  0  0  0
  2  3  1  0  0  0  0
  2  4  2  0  0  0  0
  4  5  1  0  0  0  0
  5  6  2  0  0  0  0
  5 11  1  0  0  0  0
  6  7  1  0  0  0  0
  6  9  1  0  0  0  0
  7  8  2  0  0  0  0
  9 10  2  0  0  0  0
  9 12  1  0  0  0  0
 10 11  1  0  0  0  0
 12 13  1  0  0  0  0
M  END
>  <CHROM.1>
-48.36866531,35.50587639,33.24005721,25.12172544,0.63628721,0.57653542,2.21018081

>  <Name>
ligand

>  <RI>
0

>  <Rbt.Current_Directory>
/home/itssahil/PROJECTS/Mol_Feturizer/Test_systems_manuscript/rnas/3q50

>  <Rbt.Executable>
rbdock ($Id: //depot/dev/client3/rdock/2013.1/src/exe/rbdock.cxx#4 $)

>  <Rbt.Library>
libRbt.so (2013.1, Build901 2013/11/27)

>  <Rbt.Parameter_File>
/export/apps/rDock/src/rDock_2013.1_src/data/scripts/dock_solv.prm

>  <Rbt.Receptor>
prm/blind_docking_80.prm

>  <SCORE>
-16.7983

>  <SCORE.INTER>
-17.9115

>  <SCORE.INTER.CONST>
1

>  <SCORE.INTER.POLAR>
0

>  <SCORE.INTER.ROT>
1

>  <SCORE.INTER.SOLV>
19.8131

>  <SCORE.INTER.VDW>
-22.8121

>  <SCORE.INTER.norm>
-1.37781

>  <SCORE.INTRA>
1.11327

>  <SCORE.INTRA.DIHEDRAL>
-0.00698071

>  <SCORE.INTRA.DIHEDRAL.0>
1.65305

>  <SCORE.INTRA.POLAR>
0

>  <SCORE.INTRA.POLAR.0>
0

>  <SCORE.INTRA.REPUL>
0

>  <SCORE.INTRA.REPUL.0>
0

>  <SCORE.INTRA.SOLV>
2.10994

>  <SCORE.INTRA.SOLV.lig_0>
-46.9527

>  <SCORE.INTRA.VDW>
0.0617853

>  <SCORE.INTRA.VDW.0>
-0.177978

>  <SCORE.INTRA.norm>
0.0856359

>  <SCORE.RESTR>
0

>  <SCORE.RESTR.CAVITY>
0

>  <SCORE.RESTR.norm>
0

>  <SCORE.SYSTEM>
0

>  <SCORE.SYSTEM.CONST>
0

>  <SCORE.SYSTEM.DIHEDRAL>
0

>  <SCORE.SYSTEM.SOLV>
0

>  <SCORE.SYSTEM.norm>
0

>  <SCORE.heavy>
13

>  <SCORE.norm>
-1.29218

>  <RMSD>
4.595

$$$$
ligand
 OpenBabel02271912143D
libRbt.so/2013.1/901 2013/11/27
 13 14  0  0  0  0  0  0  0  0999 V2000
   37.3405   34.8082   26.5399 N   0  0  0  0  0  0  0  0  0  0  0  0
   37.6221   35.7902   25.5726 C   0  0  0  0  0  0  0  0  0  0  0  0
   38.6160   36.7067   25.8894 N   0  0  0  0  0  0  0  0  0  0  0  0
   36.9888   35.9331   24.3834 N   0  0  0  0  0  0  0  0  0  0  0  0
   35.9974   34.9737   24.2012 C   0  0  0  0  0  0  0  0  0  0  0  0
   35.6591   33.9527   25.0976 C   0  0  0  0  0  0  0  0  0  0  0  0
   36.3242   33.8268   26.3260 C   0  0  0  0  0  0  0  0  0  0  0  0
   36.1119   32.9946   27.1957 O   0  0  0  0  0  0  0  0  0  0  0  0
   34.6048   33.1888   24.5466 C   0  0  0  0  0  0  0  0  0  0  0  0
   34.3175   33.7513   23.3126 C   0  0  0  0  0  0  0  0  0  0  0  0
   35.1801   34.8546   23.0920 N   0  0  0  0  0  0  0  0  0  0  0  0
   33.9700   32.0357   25.2410 C   0  0  0  0  0  0  0  0  0  0  0  0
   34.9892   31.1151   25.7684 N   0  0  0  0  0  0  0  0  0  0  0  0
  1  2  1  0  0  0  0
  1  7  1  0  0  0  0
  2  3  1  0  0  0  0
  2  4  2  0  0  0  0
  4  5  1  0  0  0  0
  5  6  2  0  0  0  0
  5 11  1  0  0  0  0
  6  7  1  0  0  0  0
  6  9  1  0  0  0  0
  7  8  2  0  0  0  0
  9 10  2  0  0  0  0
  9 12  1  0  0  0  0
 10 11  1  0  0  0  0
 12 13  1  0  0  0  0
M  END
>  <CHROM.1>
-48.39265660,35.99551071,34.12810872,25.21267429,-0.44872737,0.76822098,2.28910382

>  <Name>
ligand

>  <RI>
0

>  <Rbt.Current_Directory>
/home/itssahil/PROJECTS/Mol_Feturizer/Test_systems_manuscript/rnas/3q50

>  <Rbt.Executable>
rbdock ($Id: //depot/dev/client3/rdock/2013.1/src/exe/rbdock.cxx#4 $)

>  <Rbt.Library>
libRbt.so (2013.1, Build901 2013/11/27)

>  <Rbt.Parameter_File>
/export/apps/rDock/src/rDock_2013.1_src/data/scripts/dock_solv.prm

>  <Rbt.Receptor>
prm/blind_docking_60.prm

>  <SCORE>
-14.2407

>  <SCORE.INTER>
-15.3534

>  <SCORE.INTER.CONST>
1

>  <SCORE.INTER.POLAR>
0

>  <SCORE.INTER.ROT>
1

>  <SCORE.INTER.SOLV>
15.5948

>  <SCORE.INTER.VDW>
-19.7005

>  <SCORE.INTER.norm>
-1.18103

>  <SCORE.INTRA>
1.11182

>  <SCORE.INTRA.DIHEDRAL>
-0.00692376

>  <SCORE.INTRA.DIHEDRAL.0>
1.65305

>  <SCORE.INTRA.POLAR>
0

>  <SCORE.INTRA.POLAR.0>
0

>  <SCORE.INTRA.REPUL>
0

>  <SCORE.INTRA.REPUL.0>
0

>  <SCORE.INTRA.SOLV>
2.1093

>  <SCORE.INTRA.SOLV.lig_0>
-46.9527

>  <SCORE.INTRA.VDW>
0.0606357

>  <SCORE.INTRA.VDW.0>
-0.177978

>  <SCORE.INTRA.norm>
0.0855249

>  <SCORE.RESTR>
0.000961102

>  <SCORE.RESTR.CAVITY>
0.000961102

>  <SCORE.RESTR.norm>
7.39309e-05

>  <SCORE.SYSTEM>
0

>  <SCORE.SYSTEM.CONST>
0

>  <SCORE.SYSTEM.DIHEDRAL>
0

>  <SCORE.SYSTEM.SOLV>
0

>  <SCORE.SYSTEM.norm>
0

>  <SCORE.heavy>
13

>  <SCORE.norm>
-1.09544

>  <RMSD>
4.647

$$$$
ligand
 OpenBabel02271912143D
libRbt.so/2013.1/901 2013/11/27
 13 14  0  0  0  0  0  0  0  0999 V2000
   36.5281   32.0929   26.8675 N   0  0  0  0  0  0  0  0  0  0  0  0
   37.4133   33.1610   27.1018 C   0  0  0  0  0  0  0  0  0  0  0  0
   38.2863   33.0205   28.1723 N   0  0  0  0  0  0  0  0  0  0  0  0
   37.4625   34.3164   26.3958 N   0  0  0  0  0  0  0  0  0  0  0  0
   36.5196   34.3438   25.3728 C   0  0  0  0  0  0  0  0  0  0  0  0
   35.6122   33.3255   25.0561 C   0  0  0  0  0  0  0  0  0  0  0  0
   35.5749   32.1396   25.8041 C   0  0  0  0  0  0  0  0  0  0  0  0
   34.8236   31.1896   25.6399 O   0  0  0  0  0  0  0  0  0  0  0  0
   34.8273   33.7363   23.9544 C   0  0  0  0  0  0  0  0  0  0  0  0
   35.2729   35.0021   23.6068 C   0  0  0  0  0  0  0  0  0  0  0  0
   36.3239   35.3813   24.4796 N   0  0  0  0  0  0  0  0  0  0  0  0
   33.7370   32.9129   23.3645 C   0  0  0  0  0  0  0  0  0  0  0  0
   32.9807   32.2136   24.4149 N   0  0  0  0  0  0  0  0  0  0  0  0
  1  2  1  0  0  0  0
  1  7  1  0  0  0  0
  2  3  1  0  0  0  0
  2  4  2  0  0  0  0
  4  5  1  0  0  0  0
  5  6  2  0  0  0  0
  5 11  1  0  0  0  0
  6  7  1  0  0  0  0
  6  9  1  0  0  0  0
  7  8  2  0  0  0  0
  9 10  2  0  0  0  0
  9 12  1  0  0  0  0
 10 11  1  0  0  0  0
 12 13  1  0  0  0  0
M  END
>  <CHROM.1>
38.64927449,35.78050920,33.24813431,25.42246406,0.37136375,0.66048408,2.51780574

>  <Name>
ligand

>  <RI>
0

>  <Rbt.Current_Directory>
/home/itssahil/PROJECTS/Mol_Feturizer/Test_systems_manuscript/rnas/3q50

>  <Rbt.Executable>
rbdock ($Id: //depot/dev/client3/rdock/2013.1/src/exe/rbdock.cxx#4 $)

>  <Rbt.Library>
libRbt.so (2013.1, Build901 2013/11/27)

>  <Rbt.Parameter_File>
/export/apps/rDock/src/rDock_2013.1_src/data/scripts/dock_solv.prm

>  <Rbt.Receptor>
prm/blind_docking_60.prm

>  <SCORE>
-14.7295

>  <SCORE.INTER>
-16.7417

>  <SCORE.INTER.CONST>
1

>  <SCORE.INTER.POLAR>
0

>  <SCORE.INTER.ROT>
1

>  <SCORE.INTER.SOLV>
17.3862

>  <SCORE.INTER.VDW>
-21.2232

>  <SCORE.INTER.norm>
-1.28782

>  <SCORE.INTRA>
2.01215

>  <SCORE.INTRA.DIHEDRAL>
0.0769954

>  <SCORE.INTRA.DIHEDRAL.0>
1.65305

>  <SCORE.INTRA.POLAR>
0

>  <SCORE.INTRA.POLAR.0>
0

>  <SCORE.INTRA.REPUL>
0

>  <SCORE.INTRA.REPUL.0>
0

>  <SCORE.INTRA.SOLV>
2.34912

>  <SCORE.INTRA.SOLV.lig_0>
-46.9527

>  <SCORE.INTRA.VDW>
0.799091

>  <SCORE.INTRA.VDW.0>
-0.177978

>  <SCORE.INTRA.norm>
0.154781

>  <SCORE.RESTR>
0

>  <SCORE.RESTR.CAVITY>
0

>  <SCORE.RESTR.norm>
0

>  <SCORE.SYSTEM>
0

>  <SCORE.SYSTEM.CONST>
0

>  <SCORE.SYSTEM.DIHEDRAL>
0

>  <SCORE.SYSTEM.SOLV>
0

>  <SCORE.SYSTEM.norm>
0

>  <SCORE.heavy>
13

>  <SCORE.norm>
-1.13304

>  <RMSD>
4.653

$$$$
ligand
 OpenBabel02271912143D
libRbt.so/2013.1/901 2013/11/27
 13 14  0  0  0  0  0  0  0  0999 V2000
   37.7134   35.3469   26.4937 N   0  0  0  0  0  0  0  0  0  0  0  0
   37.6948   36.3270   25.4845 C   0  0  0  0  0  0  0  0  0  0  0  0
   38.5090   37.4347   25.6798 N   0  0  0  0  0  0  0  0  0  0  0  0
   36.9327   36.2944   24.3648 N   0  0  0  0  0  0  0  0  0  0  0  0
   36.1429   35.1503   24.3038 C   0  0  0  0  0  0  0  0  0  0  0  0
   36.1072   34.1180   25.2492 C   0  0  0  0  0  0  0  0  0  0  0  0
   36.9008   34.1751   26.4043 C   0  0  0  0  0  0  0  0  0  0  0  0
   36.9471   33.3518   27.3064 O   0  0  0  0  0  0  0  0  0  0  0  0
   35.1805   33.1384   24.8244 C   0  0  0  0  0  0  0  0  0  0  0  0
   34.6664   33.5839   23.6166 C   0  0  0  0  0  0  0  0  0  0  0  0
   35.2623   34.8276   23.2876 N   0  0  0  0  0  0  0  0  0  0  0  0
   34.8630   31.9098   25.6019 C   0  0  0  0  0  0  0  0  0  0  0  0
   33.4279   31.8466   25.9199 N   0  0  0  0  0  0  0  0  0  0  0  0
  1  2  1  0  0  0  0
  1  7  1  0  0  0  0
  2  3  1  0  0  0  0
  2  4  2  0  0  0  0
  4  5  1  0  0  0  0
  5  6  2  0  0  0  0
  5 11  1  0  0  0  0
  6  7  1  0  0  0  0
  6  9  1  0  0  0  0
  7  8  2  0  0  0  0
  9 10  2  0  0  0  0
  9 12  1  0  0  0  0
 10 11  1  0  0  0  0
 12 13  1  0  0  0  0
M  END
>  <CHROM.1>
121.51634226,36.19386706,34.41126060,25.31595104,-0.48065002,0.76389870,2.26988704

>  <Name>
ligand

>  <RI>
0

>  <Rbt.Current_Directory>
/home/itssahil/PROJECTS/Mol_Feturizer/Test_systems_manuscript/rnas/3q50

>  <Rbt.Executable>
rbdock ($Id: //depot/dev/client3/rdock/2013.1/src/exe/rbdock.cxx#4 $)

>  <Rbt.Library>
libRbt.so (2013.1, Build901 2013/11/27)

>  <Rbt.Parameter_File>
/export/apps/rDock/src/rDock_2013.1_src/data/scripts/dock_solv.prm

>  <Rbt.Receptor>
prm/blind_docking_80.prm

>  <SCORE>
-13.6453

>  <SCORE.INTER>
-13.6454

>  <SCORE.INTER.CONST>
1

>  <SCORE.INTER.POLAR>
0

>  <SCORE.INTER.ROT>
1

>  <SCORE.INTER.SOLV>
15.5586

>  <SCORE.INTER.VDW>
-18.5498

>  <SCORE.INTER.norm>
-1.04964

>  <SCORE.INTRA>
0.000103386

>  <SCORE.INTRA.DIHEDRAL>
0.0333417

>  <SCORE.INTRA.DIHEDRAL.0>
1.65305

>  <SCORE.INTRA.POLAR>
0

>  <SCORE.INTRA.POLAR.0>
0

>  <SCORE.INTRA.REPUL>
0

>  <SCORE.INTRA.REPUL.0>
0

>  <SCORE.INTRA.SOLV>
0.205132

>  <SCORE.INTRA.SOLV.lig_0>
-46.9527

>  <SCORE.INTRA.VDW>
-0.119134

>  <SCORE.INTRA.VDW.0>
-0.177978

>  <SCORE.INTRA.norm>
7.95275e-06

>  <SCORE.RESTR>
0

>  <SCORE.RESTR.CAVITY>
0

>  <SCORE.RESTR.norm>
0

>  <SCORE.SYSTEM>
0

>  <SCORE.SYSTEM.CONST>
0

>  <SCORE.SYSTEM.DIHEDRAL>
0

>  <SCORE.SYSTEM.SOLV>
0

>  <SCORE.SYSTEM.norm>
0

>  <SCORE.heavy>
13

>  <SCORE.norm>
-1.04963

>  <RMSD>
4.748

$$$$
ligand
 OpenBabel02271912143D
libRbt.so/2013.1/901 2013/11/27
 13 14  0  0  0  0  0  0  0  0999 V2000
   36.6589   31.9867   26.8955 N   0  0  0  0  0  0  0  0  0  0  0  0
   37.5239   33.0925   26.9867 C   0  0  0  0  0  0  0  0  0  0  0  0
   38.4948   33.0412   27.9779 N   0  0  0  0  0  0  0  0  0  0  0  0
   37.4684   34.2053   26.2157 N   0  0  0  0  0  0  0  0  0  0  0  0
   36.4361   34.1444   25.2844 C   0  0  0  0  0  0  0  0  0  0  0  0
   35.5398   33.0827   25.1107 C   0  0  0  0  0  0  0  0  0  0  0  0
   35.6120   31.9424   25.9241 C   0  0  0  0  0  0  0  0  0  0  0  0
   34.8825   30.9625   25.8837 O   0  0  0  0  0  0  0  0  0  0  0  0
   34.6443   33.4045   24.0651 C   0  0  0  0  0  0  0  0  0  0  0  0
   35.0121   34.6602   23.6075 C   0  0  0  0  0  0  0  0  0  0  0  0
   36.1241   35.1211   24.3566 N   0  0  0  0  0  0  0  0  0  0  0  0
   33.5344   32.5158   23.6258 C   0  0  0  0  0  0  0  0  0  0  0  0
   32.5363   33.2678   22.8493 N   0  0  0  0  0  0  0  0  0  0  0  0
  1  2  1  0  0  0  0
  1  7  1  0  0  0  0
  2  3  1  0  0  0  0
  2  4  2  0  0  0  0
  4  5  1  0  0  0  0
  5  6  2  0  0  0  0
  5 11  1  0  0  0  0
  6  7  1  0  0  0  0
  6  9  1  0  0  0  0
  7  8  2  0  0  0  0
  9 10  2  0  0  0  0
  9 12  1  0  0  0  0
 10 11  1  0  0  0  0
 12 13  1  0  0  0  0
M  END
>  <CHROM.1>
161.83930790,35.71362241,33.14687242,25.30656470,0.41398061,0.63904692,2.57621000

>  <Name>
ligand

>  <RI>
0

>  <Rbt.Current_Directory>
/home/itssahil/PROJECTS/Mol_Feturizer/Test_systems_manuscript/rnas/3q50

>  <Rbt.Executable>
rbdock ($Id: //depot/dev/client3/rdock/2013.1/src/exe/rbdock.cxx#4 $)

>  <Rbt.Library>
libRbt.so (2013.1, Build901 2013/11/27)

>  <Rbt.Parameter_File>
/export/apps/rDock/src/rDock_2013.1_src/data/scripts/dock_solv.prm

>  <Rbt.Receptor>
prm/blind_docking_60.prm

>  <SCORE>
-16.0964

>  <SCORE.INTER>
-16.1214

>  <SCORE.INTER.CONST>
1

>  <SCORE.INTER.POLAR>
0

>  <SCORE.INTER.ROT>
1

>  <SCORE.INTER.SOLV>
19.0159

>  <SCORE.INTER.VDW>
-21.3529

>  <SCORE.INTER.norm>
-1.2401

>  <SCORE.INTRA>
0.0249584

>  <SCORE.INTRA.DIHEDRAL>
0.0718977

>  <SCORE.INTRA.DIHEDRAL.0>
1.65305

>  <SCORE.INTRA.POLAR>
0

>  <SCORE.INTRA.POLAR.0>
0

>  <SCORE.INTRA.REPUL>
0

>  <SCORE.INTRA.REPUL.0>
0

>  <SCORE.INTRA.SOLV>
0.00227597

>  <SCORE.INTRA.SOLV.lig_0>
-46.9527

>  <SCORE.INTRA.VDW>
-0.0121285

>  <SCORE.INTRA.VDW.0>
-0.177978

>  <SCORE.INTRA.norm>
0.00191987

>  <SCORE.RESTR>
0

>  <SCORE.RESTR.CAVITY>
0

>  <SCORE.RESTR.norm>
0

>  <SCORE.SYSTEM>
0

>  <SCORE.SYSTEM.CONST>
0

>  <SCORE.SYSTEM.DIHEDRAL>
0

>  <SCORE.SYSTEM.SOLV>
0

>  <SCORE.SYSTEM.norm>
0

>  <SCORE.heavy>
13

>  <SCORE.norm>
-1.23818

>  <RMSD>
4.787

$$$$
ligand
 OpenBabel02271912143D
libRbt.so/2013.1/901 2013/11/27
 13 14  0  0  0  0  0  0  0  0999 V2000
   36.7745   31.9451   26.9824 N   0  0  0  0  0  0  0  0  0  0  0  0
   37.6159   33.0638   27.1229 C   0  0  0  0  0  0  0  0  0  0  0  0
   38.6005   32.9816   28.0985 N   0  0  0  0  0  0  0  0  0  0  0  0
   37.5259   34.2148   26.4137 N   0  0  0  0  0  0  0  0  0  0  0  0
   36.4832   34.1804   25.4927 C   0  0  0  0  0  0  0  0  0  0  0  0
   35.6084   33.1095   25.2726 C   0  0  0  0  0  0  0  0  0  0  0  0
   35.7163   31.9291   26.0224 C   0  0  0  0  0  0  0  0  0  0  0  0
   35.0082   30.9365   25.9378 O   0  0  0  0  0  0  0  0  0  0  0  0
   34.6925   33.4664   24.2565 C   0  0  0  0  0  0  0  0  0  0  0  0
   35.0265   34.7530   23.8629 C   0  0  0  0  0  0  0  0  0  0  0  0
   36.1377   35.1982   24.6226 N   0  0  0  0  0  0  0  0  0  0  0  0
   33.5969   32.5776   23.7829 C   0  0  0  0  0  0  0  0  0  0  0  0
   33.1605   32.9577   22.4303 N   0  0  0  0  0  0  0  0  0  0  0  0
  1  2  1  0  0  0  0
  1  7  1  0  0  0  0
  2  3  1  0  0  0  0
  2  4  2  0  0  0  0
  4  5  1  0  0  0  0
  5  6  2  0  0  0  0
  5 11  1  0  0  0  0
  6  7  1  0  0  0  0
  6  9  1  0  0  0  0
  7  8  2  0  0  0  0
  9 10  2  0  0  0  0
  9 12  1  0  0  0  0
 10 11  1  0  0  0  0
 12 13  1  0  0  0  0
M  END
>  <CHROM.1>
-157.93127460,35.83112718,33.13532671,25.41832350,0.39091356,0.70645467,2.62860755

>  <Name>
ligand

>  <RI>
0

>  <Rbt.Current_Directory>
/home/itssahil/PROJECTS/Mol_Feturizer/Test_systems_manuscript/rnas/3q50

>  <Rbt.Executable>
rbdock ($Id: //depot/dev/client3/rdock/2013.1/src/exe/rbdock.cxx#4 $)

>  <Rbt.Library>
libRbt.so (2013.1, Build901 2013/11/27)

>  <Rbt.Parameter_File>
/export/apps/rDock/src/rDock_2013.1_src/data/scripts/dock_solv.prm

>  <Rbt.Receptor>
prm/blind_docking_60.prm

>  <SCORE>
-15.9487

>  <SCORE.INTER>
-15.9098

>  <SCORE.INTER.CONST>
1

>  <SCORE.INTER.POLAR>
0

>  <SCORE.INTER.ROT>
1

>  <SCORE.INTER.SOLV>
18.1563

>  <SCORE.INTER.VDW>
-20.9253

>  <SCORE.INTER.norm>
-1.22383

>  <SCORE.INTRA>
-0.039458

>  <SCORE.INTRA.DIHEDRAL>
-0.0255899

>  <SCORE.INTRA.DIHEDRAL.0>
1.65305

>  <SCORE.INTRA.POLAR>
0

>  <SCORE.INTRA.POLAR.0>
0

>  <SCORE.INTRA.REPUL>
0

>  <SCORE.INTRA.REPUL.0>
0

>  <SCORE.INTRA.SOLV>
-0.00340441

>  <SCORE.INTRA.SOLV.lig_0>
-46.9527

>  <SCORE.INTRA.VDW>
-0.0249608

>  <SCORE.INTRA.VDW.0>
-0.177978

>  <SCORE.INTRA.norm>
-0.00303523

>  <SCORE.RESTR>
0.00054633

>  <SCORE.RESTR.CAVITY>
0.00054633

>  <SCORE.RESTR.norm>
4.20254e-05

>  <SCORE.SYSTEM>
0

>  <SCORE.SYSTEM.CONST>
0

>  <SCORE.SYSTEM.DIHEDRAL>
0

>  <SCORE.SYSTEM.SOLV>
0

>  <SCORE.SYSTEM.norm>
0

>  <SCORE.heavy>
13

>  <SCORE.norm>
-1.22683

>  <RMSD>
4.788

$$$$
ligand
 OpenBabel02271912143D
libRbt.so/2013.1/901 2013/11/27
 13 14  0  0  0  0  0  0  0  0999 V2000
   36.6711   32.0140   26.9054 N   0  0  0  0  0  0  0  0  0  0  0  0
   37.5316   33.1239   26.9901 C   0  0  0  0  0  0  0  0  0  0  0  0
   38.5026   33.0825   27.9818 N   0  0  0  0  0  0  0  0  0  0  0  0
   37.4717   34.2318   26.2125 N   0  0  0  0  0  0  0  0  0  0  0  0
   36.4398   34.1611   25.2814 C   0  0  0  0  0  0  0  0  0  0  0  0
   35.5479   33.0948   25.1139 C   0  0  0  0  0  0  0  0  0  0  0  0
   35.6246   31.9596   25.9341 C   0  0  0  0  0  0  0  0  0  0  0  0
   34.8992   30.9765   25.8995 O   0  0  0  0  0  0  0  0  0  0  0  0
   34.6512   33.4066   24.0663 C   0  0  0  0  0  0  0  0  0  0  0  0
   35.0140   34.6611   23.6012 C   0  0  0  0  0  0  0  0  0  0  0  0
   36.1240   35.1310   24.3477 N   0  0  0  0  0  0  0  0  0  0  0  0
   33.5450   32.5108   23.6321 C   0  0  0  0  0  0  0  0  0  0  0  0
   32.5450   33.2536   22.8494 N   0  0  0  0  0  0  0  0  0  0  0  0
  1  2  1  0  0  0  0
  1  7  1  0  0  0  0
  2  3  1  0  0  0  0
  2  4  2  0  0  0  0
  4  5  1  0  0  0  0
  5  6  2  0  0  0  0
  5 11  1  0  0  0  0
  6  7  1  0  0  0  0
  6  9  1  0  0  0  0
  7  8  2  0  0  0  0
  9 10  2  0  0  0  0
  9 12  1  0  0  0  0
 10 11  1  0  0  0  0
 12 13  1  0  0  0  0
M  END
>  <CHROM.1>
161.91671437,35.72147295,33.16077337,25.30929813,0.40985223,0.64151245,2.57269433

>  <Name>
ligand

>  <RI>
0

>  <Rbt.Current_Directory>
/home/itssahil/PROJECTS/Mol_Feturizer/Test_systems_manuscript/rnas/3q50

>  <Rbt.Executable>
rbdock ($Id: //depot/dev/client3/rdock/2013.1/src/exe/rbdock.cxx#4 $)

>  <Rbt.Library>
libRbt.so (2013.1, Build901 2013/11/27)

>  <Rbt.Parameter_File>
/export/apps/rDock/src/rDock_2013.1_src/data/scripts/dock_solv.prm

>  <Rbt.Receptor>
prm/blind_docking_60.prm

>  <SCORE>
-16.1263

>  <SCORE.INTER>
-16.1513

>  <SCORE.INTER.CONST>
1

>  <SCORE.INTER.POLAR>
0

>  <SCORE.INTER.ROT>
1

>  <SCORE.INTER.SOLV>
18.9575

>  <SCORE.INTER.VDW>
-21.3534

>  <SCORE.INTER.norm>
-1.24241

>  <SCORE.INTRA>
0.0250451

>  <SCORE.INTRA.DIHEDRAL>
0.0717578

>  <SCORE.INTRA.DIHEDRAL.0>
1.65305

>  <SCORE.INTRA.POLAR>
0

>  <SCORE.INTRA.POLAR.0>
0

>  <SCORE.INTRA.REPUL>
0

>  <SCORE.INTRA.REPUL.0>
0

>  <SCORE.INTRA.SOLV>
0.00227872

>  <SCORE.INTRA.SOLV.lig_0>
-46.9527

>  <SCORE.INTRA.VDW>
-0.0119731

>  <SCORE.INTRA.VDW.0>
-0.177978

>  <SCORE.INTRA.norm>
0.00192655

>  <SCORE.RESTR>
0

>  <SCORE.RESTR.CAVITY>
0

>  <SCORE.RESTR.norm>
0

>  <SCORE.SYSTEM>
0

>  <SCORE.SYSTEM.CONST>
0

>  <SCORE.SYSTEM.DIHEDRAL>
0

>  <SCORE.SYSTEM.SOLV>
0

>  <SCORE.SYSTEM.norm>
0

>  <SCORE.heavy>
13

>  <SCORE.norm>
-1.24048

>  <RMSD>
4.789

$$$$
ligand
 OpenBabel02271912143D
libRbt.so/2013.1/901 2013/11/27
 13 14  0  0  0  0  0  0  0  0999 V2000
   35.9760   32.8072   27.0240 N   0  0  0  0  0  0  0  0  0  0  0  0
   37.0574   33.6750   26.7856 C   0  0  0  0  0  0  0  0  0  0  0  0
   37.9878   33.8031   27.8082 N   0  0  0  0  0  0  0  0  0  0  0  0
   37.2471   34.4122   25.6648 N   0  0  0  0  0  0  0  0  0  0  0  0
   36.2323   34.2165   24.7330 C   0  0  0  0  0  0  0  0  0  0  0  0
   35.1304   33.3644   24.8761 C   0  0  0  0  0  0  0  0  0  0  0  0
   34.9507   32.6145   26.0477 C   0  0  0  0  0  0  0  0  0  0  0  0
   34.0284   31.8531   26.2996 O   0  0  0  0  0  0  0  0  0  0  0  0
   34.3320   33.4471   23.7123 C   0  0  0  0  0  0  0  0  0  0  0  0
   34.9637   34.3466   22.8676 C   0  0  0  0  0  0  0  0  0  0  0  0
   36.1434   34.8228   23.4933 N   0  0  0  0  0  0  0  0  0  0  0  0
   33.0603   32.6962   23.5282 C   0  0  0  0  0  0  0  0  0  0  0  0
   32.8705   32.3239   22.1176 N   0  0  0  0  0  0  0  0  0  0  0  0
  1  2  1  0  0  0  0
  1  7  1  0  0  0  0
  2  3  1  0  0  0  0
  2  4  2  0  0  0  0
  4  5  1  0  0  0  0
  5  6  2  0  0  0  0
  5 11  1  0  0  0  0
  6  7  1  0  0  0  0
  6  9  1  0  0  0  0
  7  8  2  0  0  0  0
  9 10  2  0  0  0  0
  9 12  1  0  0  0  0
 10 11  1  0  0  0  0
 12 13  1  0  0  0  0
M  END
>  <CHROM.1>
-146.67886677,35.36286173,33.38219923,25.02279546,0.63772306,0.59505470,2.03657275

>  <Name>
ligand

>  <RI>
0

>  <Rbt.Current_Directory>
/home/itssahil/PROJECTS/Mol_Feturizer/Test_systems_manuscript/rnas/3q50

>  <Rbt.Executable>
rbdock ($Id: //depot/dev/client3/rdock/2013.1/src/exe/rbdock.cxx#4 $)

>  <Rbt.Library>
libRbt.so (2013.1, Build901 2013/11/27)

>  <Rbt.Parameter_File>
/export/apps/rDock/src/rDock_2013.1_src/data/scripts/dock_solv.prm

>  <Rbt.Receptor>
prm/blind_docking_100.prm

>  <SCORE>
-15.2508

>  <SCORE.INTER>
-15.1789

>  <SCORE.INTER.CONST>
1

>  <SCORE.INTER.POLAR>
0

>  <SCORE.INTER.ROT>
1

>  <SCORE.INTER.SOLV>
20.6976

>  <SCORE.INTER.VDW>
-21.2851

>  <SCORE.INTER.norm>
-1.16761

>  <SCORE.INTRA>
-0.071914

>  <SCORE.INTRA.DIHEDRAL>
-0.0284461

>  <SCORE.INTRA.DIHEDRAL.0>
1.65305

>  <SCORE.INTRA.POLAR>
0

>  <SCORE.INTRA.POLAR.0>
0

>  <SCORE.INTRA.REPUL>
0

>  <SCORE.INTRA.REPUL.0>
0

>  <SCORE.INTRA.SOLV>
-0.00682702

>  <SCORE.INTRA.SOLV.lig_0>
-46.9527

>  <SCORE.INTRA.VDW>
-0.0542774

>  <SCORE.INTRA.VDW.0>
-0.177978

>  <SCORE.INTRA.norm>
-0.00553184

>  <SCORE.RESTR>
0

>  <SCORE.RESTR.CAVITY>
0

>  <SCORE.RESTR.norm>
0

>  <SCORE.SYSTEM>
0

>  <SCORE.SYSTEM.CONST>
0

>  <SCORE.SYSTEM.DIHEDRAL>
0

>  <SCORE.SYSTEM.SOLV>
0

>  <SCORE.SYSTEM.norm>
0

>  <SCORE.heavy>
13

>  <SCORE.norm>
-1.17314

>  <RMSD>
4.793

$$$$
ligand
 OpenBabel02271912143D
libRbt.so/2013.1/901 2013/11/27
 13 14  0  0  0  0  0  0  0  0999 V2000
   36.7339   31.9755   26.9219 N   0  0  0  0  0  0  0  0  0  0  0  0
   37.5805   33.0943   27.0259 C   0  0  0  0  0  0  0  0  0  0  0  0
   38.5611   33.0417   28.0076 N   0  0  0  0  0  0  0  0  0  0  0  0
   37.4989   34.2199   26.2762 N   0  0  0  0  0  0  0  0  0  0  0  0
   36.4595   34.1582   25.3530 C   0  0  0  0  0  0  0  0  0  0  0  0
   35.5800   33.0845   25.1675 C   0  0  0  0  0  0  0  0  0  0  0  0
   35.6791   31.9308   25.9590 C   0  0  0  0  0  0  0  0  0  0  0  0
   34.9663   30.9394   25.9068 O   0  0  0  0  0  0  0  0  0  0  0  0
   34.6697   33.4098   24.1359 C   0  0  0  0  0  0  0  0  0  0  0  0
   35.0117   34.6799   23.6984 C   0  0  0  0  0  0  0  0  0  0  0  0
   36.1223   35.1462   24.4461 N   0  0  0  0  0  0  0  0  0  0  0  0
   33.5712   32.5102   23.6899 C   0  0  0  0  0  0  0  0  0  0  0  0
   32.5957   33.2417   22.8666 N   0  0  0  0  0  0  0  0  0  0  0  0
  1  2  1  0  0  0  0
  1  7  1  0  0  0  0
  2  3  1  0  0  0  0
  2  4  2  0  0  0  0
  4  5  1  0  0  0  0
  5  6  2  0  0  0  0
  5 11  1  0  0  0  0
  6  7  1  0  0  0  0
  6  9  1  0  0  0  0
  7  8  2  0  0  0  0
  9 10  2  0  0  0  0
  9 12  1  0  0  0  0
 10 11  1  0  0  0  0
 12 13  1  0  0  0  0
M  END
>  <CHROM.1>
165.30918406,35.75787905,33.14665964,25.35732039,0.39248624,0.64615800,2.60751807

>  <Name>
ligand

>  <RI>
0

>  <Rbt.Current_Directory>
/home/itssahil/PROJECTS/Mol_Feturizer/Test_systems_manuscript/rnas/3q50

>  <Rbt.Executable>
rbdock ($Id: //depot/dev/client3/rdock/2013.1/src/exe/rbdock.cxx#4 $)

>  <Rbt.Library>
libRbt.so (2013.1, Build901 2013/11/27)

>  <Rbt.Parameter_File>
/export/apps/rDock/src/rDock_2013.1_src/data/scripts/dock_solv.prm

>  <Rbt.Receptor>
prm/blind_docking_80.prm

>  <SCORE>
-16.095

>  <SCORE.INTER>
-16.1229

>  <SCORE.INTER.CONST>
1

>  <SCORE.INTER.POLAR>
0

>  <SCORE.INTER.ROT>
1

>  <SCORE.INTER.SOLV>
18.8293

>  <SCORE.INTER.VDW>
-21.2917

>  <SCORE.INTER.norm>
-1.24022

>  <SCORE.INTRA>
0.0279362

>  <SCORE.INTRA.DIHEDRAL>
0.064938

>  <SCORE.INTRA.DIHEDRAL.0>
1.65305

>  <SCORE.INTRA.POLAR>
0

>  <SCORE.INTRA.POLAR.0>
0

>  <SCORE.INTRA.REPUL>
0

>  <SCORE.INTRA.REPUL.0>
0

>  <SCORE.INTRA.SOLV>
0.00235454

>  <SCORE.INTRA.SOLV.lig_0>
-46.9527

>  <SCORE.INTRA.VDW>
-0.00571004

>  <SCORE.INTRA.VDW.0>
-0.177978

>  <SCORE.INTRA.norm>
0.00214894

>  <SCORE.RESTR>
0

>  <SCORE.RESTR.CAVITY>
0

>  <SCORE.RESTR.norm>
0

>  <SCORE.SYSTEM>
0

>  <SCORE.SYSTEM.CONST>
0

>  <SCORE.SYSTEM.DIHEDRAL>
0

>  <SCORE.SYSTEM.SOLV>
0

>  <SCORE.SYSTEM.norm>
0

>  <SCORE.heavy>
13

>  <SCORE.norm>
-1.23808

>  <RMSD>
4.794

$$$$
ligand
 OpenBabel02271912143D
libRbt.so/2013.1/901 2013/11/27
 13 14  0  0  0  0  0  0  0  0999 V2000
   36.0209   32.8159   27.0193 N   0  0  0  0  0  0  0  0  0  0  0  0
   37.0945   33.6905   26.7708 C   0  0  0  0  0  0  0  0  0  0  0  0
   38.0333   33.8250   27.7851 N   0  0  0  0  0  0  0  0  0  0  0  0
   37.2696   34.4283   25.6480 N   0  0  0  0  0  0  0  0  0  0  0  0
   36.2477   34.2255   24.7254 C   0  0  0  0  0  0  0  0  0  0  0  0
   35.1526   33.3665   24.8788 C   0  0  0  0  0  0  0  0  0  0  0  0
   34.9882   32.6161   26.0523 C   0  0  0  0  0  0  0  0  0  0  0  0
   34.0730   31.8490   26.3128 O   0  0  0  0  0  0  0  0  0  0  0  0
   34.3433   33.4435   23.7222 C   0  0  0  0  0  0  0  0  0  0  0  0
   34.9617   34.3465   22.8713 C   0  0  0  0  0  0  0  0  0  0  0  0
   36.1439   34.8306   23.4862 N   0  0  0  0  0  0  0  0  0  0  0  0
   33.0749   32.6845   23.5498 C   0  0  0  0  0  0  0  0  0  0  0  0
   32.8563   32.3424   22.1357 N   0  0  0  0  0  0  0  0  0  0  0  0
  1  2  1  0  0  0  0
  1  7  1  0  0  0  0
  2  3  1  0  0  0  0
  2  4  2  0  0  0  0
  4  5  1  0  0  0  0
  5  6  2  0  0  0  0
  5 11  1  0  0  0  0
  6  7  1  0  0  0  0
  6  9  1  0  0  0  0
  7  8  2  0  0  0  0
  9 10  2  0  0  0  0
  9 12  1  0  0  0  0
 10 11  1  0  0  0  0
 12 13  1  0  0  0  0
M  END
>  <CHROM.1>
-148.24745452,35.38475175,33.38851695,25.02293753,0.62582371,0.59443358,2.04418436

>  <Name>
ligand

>  <RI>
0

>  <Rbt.Current_Directory>
/home/itssahil/PROJECTS/Mol_Feturizer/Test_systems_manuscript/rnas/3q50

>  <Rbt.Executable>
rbdock ($Id: //depot/dev/client3/rdock/2013.1/src/exe/rbdock.cxx#4 $)

>  <Rbt.Library>
libRbt.so (2013.1, Build901 2013/11/27)

>  <Rbt.Parameter_File>
/export/apps/rDock/src/rDock_2013.1_src/data/scripts/dock_solv.prm

>  <Rbt.Receptor>
prm/blind_docking_100.prm

>  <SCORE>
-15.2533

>  <SCORE.INTER>
-15.1855

>  <SCORE.INTER.CONST>
1

>  <SCORE.INTER.POLAR>
0

>  <SCORE.INTER.ROT>
1

>  <SCORE.INTER.SOLV>
20.4494

>  <SCORE.INTER.VDW>
-21.2068

>  <SCORE.INTER.norm>
-1.16812

>  <SCORE.INTRA>
-0.0677926

>  <SCORE.INTRA.DIHEDRAL>
-0.0292166

>  <SCORE.INTRA.DIHEDRAL.0>
1.65305

>  <SCORE.INTRA.POLAR>
0

>  <SCORE.INTRA.POLAR.0>
0

>  <SCORE.INTRA.REPUL>
0

>  <SCORE.INTRA.REPUL.0>
0

>  <SCORE.INTRA.SOLV>
-0.00634909

>  <SCORE.INTRA.SOLV.lig_0>
-46.9527

>  <SCORE.INTRA.VDW>
-0.0500097

>  <SCORE.INTRA.VDW.0>
-0.177978

>  <SCORE.INTRA.norm>
-0.00521481

>  <SCORE.RESTR>
0

>  <SCORE.RESTR.CAVITY>
0

>  <SCORE.RESTR.norm>
0

>  <SCORE.SYSTEM>
0

>  <SCORE.SYSTEM.CONST>
0

>  <SCORE.SYSTEM.DIHEDRAL>
0

>  <SCORE.SYSTEM.SOLV>
0

>  <SCORE.SYSTEM.norm>
0

>  <SCORE.heavy>
13

>  <SCORE.norm>
-1.17333

>  <RMSD>
4.797

$$$$
ligand
 OpenBabel02271912143D
libRbt.so/2013.1/901 2013/11/27
 13 14  0  0  0  0  0  0  0  0999 V2000
   36.7928   31.9091   26.9807 N   0  0  0  0  0  0  0  0  0  0  0  0
   37.6146   33.0424   27.1203 C   0  0  0  0  0  0  0  0  0  0  0  0
   38.6006   32.9781   28.0958 N   0  0  0  0  0  0  0  0  0  0  0  0
   37.5044   34.1911   26.4103 N   0  0  0  0  0  0  0  0  0  0  0  0
   36.4624   34.1379   25.4894 C   0  0  0  0  0  0  0  0  0  0  0  0
   35.6064   33.0517   25.2701 C   0  0  0  0  0  0  0  0  0  0  0  0
   35.7350   31.8739   26.0208 C   0  0  0  0  0  0  0  0  0  0  0  0
   35.0443   30.8690   25.9370 O   0  0  0  0  0  0  0  0  0  0  0  0
   34.6843   33.3918   24.2539 C   0  0  0  0  0  0  0  0  0  0  0  0
   34.9958   34.6837   23.8594 C   0  0  0  0  0  0  0  0  0  0  0  0
   36.0991   35.1488   24.6186 N   0  0  0  0  0  0  0  0  0  0  0  0
   33.6043   32.4836   23.7811 C   0  0  0  0  0  0  0  0  0  0  0  0
   33.0530   32.9473   22.4983 N   0  0  0  0  0  0  0  0  0  0  0  0
  1  2  1  0  0  0  0
  1  7  1  0  0  0  0
  2  3  1  0  0  0  0
  2  4  2  0  0  0  0
  4  5  1  0  0  0  0
  5  6  2  0  0  0  0
  5 11  1  0  0  0  0
  6  7  1  0  0  0  0
  6  9  1  0  0  0  0
  7  8  2  0  0  0  0
  9 10  2  0  0  0  0
  9 12  1  0  0  0  0
 10 11  1  0  0  0  0
 12 13  1  0  0  0  0
M  END
>  <CHROM.1>
-164.54223537,35.81983914,33.08900084,25.42155420,0.37331032,0.70407945,2.64354472

>  <Name>
ligand

>  <RI>
0

>  <Rbt.Current_Directory>
/home/itssahil/PROJECTS/Mol_Feturizer/Test_systems_manuscript/rnas/3q50

>  <Rbt.Executable>
rbdock ($Id: //depot/dev/client3/rdock/2013.1/src/exe/rbdock.cxx#4 $)

>  <Rbt.Library>
libRbt.so (2013.1, Build901 2013/11/27)

>  <Rbt.Parameter_File>
/export/apps/rDock/src/rDock_2013.1_src/data/scripts/dock_solv.prm

>  <Rbt.Receptor>
prm/blind_docking_80.prm

>  <SCORE>
-15.9744

>  <SCORE.INTER>
-15.9559

>  <SCORE.INTER.CONST>
1

>  <SCORE.INTER.POLAR>
0

>  <SCORE.INTER.ROT>
1

>  <SCORE.INTER.SOLV>
18.3124

>  <SCORE.INTER.VDW>
-21.0081

>  <SCORE.INTER.norm>
-1.22738

>  <SCORE.INTRA>
-0.0190295

>  <SCORE.INTRA.DIHEDRAL>
-0.0153208

>  <SCORE.INTRA.DIHEDRAL.0>
1.65305

>  <SCORE.INTRA.POLAR>
0

>  <SCORE.INTRA.POLAR.0>
0

>  <SCORE.INTRA.REPUL>
0

>  <SCORE.INTRA.REPUL.0>
0

>  <SCORE.INTRA.SOLV>
-0.00156384

>  <SCORE.INTRA.SOLV.lig_0>
-46.9527

>  <SCORE.INTRA.VDW>
-0.0105872

>  <SCORE.INTRA.VDW.0>
-0.177978

>  <SCORE.INTRA.norm>
-0.00146381

>  <SCORE.RESTR>
0.000593738

>  <SCORE.RESTR.CAVITY>
0.000593738

>  <SCORE.RESTR.norm>
4.56722e-05

>  <SCORE.SYSTEM>
0

>  <SCORE.SYSTEM.CONST>
0

>  <SCORE.SYSTEM.DIHEDRAL>
0

>  <SCORE.SYSTEM.SOLV>
0

>  <SCORE.SYSTEM.norm>
0

>  <SCORE.heavy>
13

>  <SCORE.norm>
-1.2288

>  <RMSD>
4.801

$$$$
ligand
 OpenBabel02271912143D
libRbt.so/2013.1/901 2013/11/27
 13 14  0  0  0  0  0  0  0  0999 V2000
   36.7705   31.9182   26.9363 N   0  0  0  0  0  0  0  0  0  0  0  0
   37.6152   33.0380   27.0450 C   0  0  0  0  0  0  0  0  0  0  0  0
   38.6000   32.9804   28.0221 N   0  0  0  0  0  0  0  0  0  0  0  0
   37.5281   34.1689   26.3038 N   0  0  0  0  0  0  0  0  0  0  0  0
   36.4850   34.1117   25.3845 C   0  0  0  0  0  0  0  0  0  0  0  0
   35.6071   33.0375   25.1948 C   0  0  0  0  0  0  0  0  0  0  0  0
   35.7119   31.8783   25.9774 C   0  0  0  0  0  0  0  0  0  0  0  0
   35.0010   30.8857   25.9210 O   0  0  0  0  0  0  0  0  0  0  0  0
   34.6917   33.3683   24.1694 C   0  0  0  0  0  0  0  0  0  0  0  0
   35.0292   34.6423   23.7398 C   0  0  0  0  0  0  0  0  0  0  0  0
   36.1420   35.1056   24.4863 N   0  0  0  0  0  0  0  0  0  0  0  0
   33.5934   32.4696   23.7214 C   0  0  0  0  0  0  0  0  0  0  0  0
   32.6253   33.1996   22.8879 N   0  0  0  0  0  0  0  0  0  0  0  0
  1  2  1  0  0  0  0
  1  7  1  0  0  0  0
  2  3  1  0  0  0  0
  2  4  2  0  0  0  0
  4  5  1  0  0  0  0
  5  6  2  0  0  0  0
  5 11  1  0  0  0  0
  6  7  1  0  0  0  0
  6  9  1  0  0  0  0
  7  8  2  0  0  0  0
  9 10  2  0  0  0  0
  9 12  1  0  0  0  0
 10 11  1  0  0  0  0
 12 13  1  0  0  0  0
M  END
>  <CHROM.1>
166.30149884,35.78658212,33.09818638,25.38274782,0.38823956,0.64529653,2.61734183

>  <Name>
ligand

>  <RI>
0

>  <Rbt.Current_Directory>
/home/itssahil/PROJECTS/Mol_Feturizer/Test_systems_manuscript/rnas/3q50

>  <Rbt.Executable>
rbdock ($Id: //depot/dev/client3/rdock/2013.1/src/exe/rbdock.cxx#4 $)

>  <Rbt.Library>
libRbt.so (2013.1, Build901 2013/11/27)

>  <Rbt.Parameter_File>
/export/apps/rDock/src/rDock_2013.1_src/data/scripts/dock_solv.prm

>  <Rbt.Receptor>
prm/blind_docking_60.prm

>  <SCORE>
-16.0755

>  <SCORE.INTER>
-16.1039

>  <SCORE.INTER.CONST>
1

>  <SCORE.INTER.POLAR>
0

>  <SCORE.INTER.ROT>
1

>  <SCORE.INTER.SOLV>
18.7831

>  <SCORE.INTER.VDW>
-21.2636

>  <SCORE.INTER.norm>
-1.23876

>  <SCORE.INTRA>
0.0284391

>  <SCORE.INTRA.DIHEDRAL>
0.0627066

>  <SCORE.INTRA.DIHEDRAL.0>
1.65305

>  <SCORE.INTRA.POLAR>
0

>  <SCORE.INTRA.POLAR.0>
0

>  <SCORE.INTRA.REPUL>
0

>  <SCORE.INTRA.REPUL.0>
0

>  <SCORE.INTRA.SOLV>
0.00235928

>  <SCORE.INTRA.SOLV.lig_0>
-46.9527

>  <SCORE.INTRA.VDW>
-0.0040938

>  <SCORE.INTRA.VDW.0>
-0.177978

>  <SCORE.INTRA.norm>
0.00218763

>  <SCORE.RESTR>
2.40413e-05

>  <SCORE.RESTR.CAVITY>
2.40413e-05

>  <SCORE.RESTR.norm>
1.84933e-06

>  <SCORE.SYSTEM>
0

>  <SCORE.SYSTEM.CONST>
0

>  <SCORE.SYSTEM.DIHEDRAL>
0

>  <SCORE.SYSTEM.SOLV>
0

>  <SCORE.SYSTEM.norm>
0

>  <SCORE.heavy>
13

>  <SCORE.norm>
-1.23657

>  <RMSD>
4.802

$$$$
ligand
 OpenBabel02271912143D
libRbt.so/2013.1/901 2013/11/27
 13 14  0  0  0  0  0  0  0  0999 V2000
   36.7772   31.8734   26.9747 N   0  0  0  0  0  0  0  0  0  0  0  0
   37.6064   33.0010   27.1167 C   0  0  0  0  0  0  0  0  0  0  0  0
   38.5947   32.9264   28.0892 N   0  0  0  0  0  0  0  0  0  0  0  0
   37.5014   34.1534   26.4119 N   0  0  0  0  0  0  0  0  0  0  0  0
   36.4565   34.1106   25.4938 C   0  0  0  0  0  0  0  0  0  0  0  0
   35.5931   33.0307   25.2723 C   0  0  0  0  0  0  0  0  0  0  0  0
   35.7165   31.8489   26.0176 C   0  0  0  0  0  0  0  0  0  0  0  0
   35.0193   30.8487   25.9315 O   0  0  0  0  0  0  0  0  0  0  0  0
   34.6703   33.3809   24.2602 C   0  0  0  0  0  0  0  0  0  0  0  0
   34.9887   34.6725   23.8703 C   0  0  0  0  0  0  0  0  0  0  0  0
   36.0970   35.1275   24.6284 N   0  0  0  0  0  0  0  0  0  0  0  0
   33.5834   32.4814   23.7866 C   0  0  0  0  0  0  0  0  0  0  0  0
   32.9625   33.0088   22.5615 N   0  0  0  0  0  0  0  0  0  0  0  0
  1  2  1  0  0  0  0
  1  7  1  0  0  0  0
  2  3  1  0  0  0  0
  2  4  2  0  0  0  0
  4  5  1  0  0  0  0
  5  6  2  0  0  0  0
  5 11  1  0  0  0  0
  6  7  1  0  0  0  0
  6  9  1  0  0  0  0
  7  8  2  0  0  0  0
  9 10  2  0  0  0  0
  9 12  1  0  0  0  0
 10 11  1  0  0  0  0
 12 13  1  0  0  0  0
M  END
>  <CHROM.1>
-168.84827368,35.80160361,33.07048456,25.42770091,0.37941918,0.69149051,2.64635055

>  <Name>
ligand

>  <RI>
0

>  <Rbt.Current_Directory>
/home/itssahil/PROJECTS/Mol_Feturizer/Test_systems_manuscript/rnas/3q50

>  <Rbt.Executable>
rbdock ($Id: //depot/dev/client3/rdock/2013.1/src/exe/rbdock.cxx#4 $)

>  <Rbt.Library>
libRbt.so (2013.1, Build901 2013/11/27)

>  <Rbt.Parameter_File>
/export/apps/rDock/src/rDock_2013.1_src/data/scripts/dock_solv.prm

>  <Rbt.Receptor>
prm/blind_docking_80.prm

>  <SCORE>
-15.9159

>  <SCORE.INTER>
-15.9095

>  <SCORE.INTER.CONST>
1

>  <SCORE.INTER.POLAR>
0

>  <SCORE.INTER.ROT>
1

>  <SCORE.INTER.SOLV>
18.4671

>  <SCORE.INTER.VDW>
-21.0287

>  <SCORE.INTER.norm>
-1.22381

>  <SCORE.INTRA>
-0.00636054

>  <SCORE.INTRA.DIHEDRAL>
-0.00583211

>  <SCORE.INTRA.DIHEDRAL.0>
1.65305

>  <SCORE.INTRA.POLAR>
0

>  <SCORE.INTRA.POLAR.0>
0

>  <SCORE.INTRA.REPUL>
0

>  <SCORE.INTRA.REPUL.0>
0

>  <SCORE.INTRA.SOLV>
-0.00050925

>  <SCORE.INTRA.SOLV.lig_0>
-46.9527

>  <SCORE.INTRA.VDW>
-0.00318986

>  <SCORE.INTRA.VDW.0>
-0.177978

>  <SCORE.INTRA.norm>
-0.000489272

>  <SCORE.RESTR>
0

>  <SCORE.RESTR.CAVITY>
0

>  <SCORE.RESTR.norm>
0

>  <SCORE.SYSTEM>
0

>  <SCORE.SYSTEM.CONST>
0

>  <SCORE.SYSTEM.DIHEDRAL>
0

>  <SCORE.SYSTEM.SOLV>
0

>  <SCORE.SYSTEM.norm>
0

>  <SCORE.heavy>
13

>  <SCORE.norm>
-1.2243

>  <RMSD>
4.802

$$$$
ligand
 OpenBabel02271912143D
libRbt.so/2013.1/901 2013/11/27
 13 14  0  0  0  0  0  0  0  0999 V2000
   36.7696   31.9210   26.9382 N   0  0  0  0  0  0  0  0  0  0  0  0
   37.6148   33.0407   27.0437 C   0  0  0  0  0  0  0  0  0  0  0  0
   38.5997   32.9852   28.0209 N   0  0  0  0  0  0  0  0  0  0  0  0
   37.5282   34.1695   26.2994 N   0  0  0  0  0  0  0  0  0  0  0  0
   36.4849   34.1103   25.3804 C   0  0  0  0  0  0  0  0  0  0  0  0
   35.6064   33.0360   25.1938 C   0  0  0  0  0  0  0  0  0  0  0  0
   35.7108   31.8790   25.9796 C   0  0  0  0  0  0  0  0  0  0  0  0
   34.9993   30.8866   25.9260 O   0  0  0  0  0  0  0  0  0  0  0  0
   34.6911   33.3645   24.1676 C   0  0  0  0  0  0  0  0  0  0  0  0
   35.0292   34.6372   23.7345 C   0  0  0  0  0  0  0  0  0  0  0  0
   36.1423   35.1019   24.4795 N   0  0  0  0  0  0  0  0  0  0  0  0
   33.5922   32.4652   23.7222 C   0  0  0  0  0  0  0  0  0  0  0  0
   32.6183   33.1961   22.8966 N   0  0  0  0  0  0  0  0  0  0  0  0
  1  2  1  0  0  0  0
  1  7  1  0  0  0  0
  2  3  1  0  0  0  0
  2  4  2  0  0  0  0
  4  5  1  0  0  0  0
  5  6  2  0  0  0  0
  5 11  1  0  0  0  0
  6  7  1  0  0  0  0
  6  9  1  0  0  0  0
  7  8  2  0  0  0  0
  9 10  2  0  0  0  0
  9 12  1  0  0  0  0
 10 11  1  0  0  0  0
 12 13  1  0  0  0  0
M  END
>  <CHROM.1>
165.80708721,35.78548059,33.09741271,25.38235638,0.38836016,0.64411260,2.61454133

>  <Name>
ligand

>  <RI>
0

>  <Rbt.Current_Directory>
/home/itssahil/PROJECTS/Mol_Feturizer/Test_systems_manuscript/rnas/3q50

>  <Rbt.Executable>
rbdock ($Id: //depot/dev/client3/rdock/2013.1/src/exe/rbdock.cxx#4 $)

>  <Rbt.Library>
libRbt.so (2013.1, Build901 2013/11/27)

>  <Rbt.Parameter_File>
/export/apps/rDock/src/rDock_2013.1_src/data/scripts/dock_solv.prm

>  <Rbt.Receptor>
prm/blind_docking_60.prm

>  <SCORE>
-16.0705

>  <SCORE.INTER>
-16.0987

>  <SCORE.INTER.CONST>
1

>  <SCORE.INTER.POLAR>
0

>  <SCORE.INTER.ROT>
1

>  <SCORE.INTER.SOLV>
18.7815

>  <SCORE.INTER.VDW>
-21.2596

>  <SCORE.INTER.norm>
-1.23836

>  <SCORE.INTRA>
0.0282082

>  <SCORE.INTRA.DIHEDRAL>
0.0638308

>  <SCORE.INTRA.DIHEDRAL.0>
1.65305

>  <SCORE.INTRA.POLAR>
0

>  <SCORE.INTRA.POLAR.0>
0

>  <SCORE.INTRA.REPUL>
0

>  <SCORE.INTRA.REPUL.0>
0

>  <SCORE.INTRA.SOLV>
0.00235795

>  <SCORE.INTRA.SOLV.lig_0>
-46.9527

>  <SCORE.INTRA.VDW>
-0.0048862

>  <SCORE.INTRA.VDW.0>
-0.177978

>  <SCORE.INTRA.norm>
0.00216986

>  <SCORE.RESTR>
0

>  <SCORE.RESTR.CAVITY>
0

>  <SCORE.RESTR.norm>
0

>  <SCORE.SYSTEM>
0

>  <SCORE.SYSTEM.CONST>
0

>  <SCORE.SYSTEM.DIHEDRAL>
0

>  <SCORE.SYSTEM.SOLV>
0

>  <SCORE.SYSTEM.norm>
0

>  <SCORE.heavy>
13

>  <SCORE.norm>
-1.23619

>  <RMSD>
4.803

$$$$
ligand
 OpenBabel02271912143D
libRbt.so/2013.1/901 2013/11/27
 13 14  0  0  0  0  0  0  0  0999 V2000
   36.7931   31.9005   26.9833 N   0  0  0  0  0  0  0  0  0  0  0  0
   37.6206   33.0299   27.1208 C   0  0  0  0  0  0  0  0  0  0  0  0
   38.5991   32.9667   28.1039 N   0  0  0  0  0  0  0  0  0  0  0  0
   37.5223   34.1741   26.4019 N   0  0  0  0  0  0  0  0  0  0  0  0
   36.4867   34.1205   25.4739 C   0  0  0  0  0  0  0  0  0  0  0  0
   35.6259   33.0378   25.2561 C   0  0  0  0  0  0  0  0  0  0  0  0
   35.7420   31.8647   26.0160 C   0  0  0  0  0  0  0  0  0  0  0  0
   35.0460   30.8633   25.9343 O   0  0  0  0  0  0  0  0  0  0  0  0
   34.7132   33.3761   24.2308 C   0  0  0  0  0  0  0  0  0  0  0  0
   35.0352   34.6633   23.8294 C   0  0  0  0  0  0  0  0  0  0  0  0
   36.1358   35.1273   24.5934 N   0  0  0  0  0  0  0  0  0  0  0  0
   33.6313   32.4710   23.7566 C   0  0  0  0  0  0  0  0  0  0  0  0
   32.7052   33.1837   22.8628 N   0  0  0  0  0  0  0  0  0  0  0  0
  1  2  1  0  0  0  0
  1  7  1  0  0  0  0
  2  3  1  0  0  0  0
  2  4  2  0  0  0  0
  4  5  1  0  0  0  0
  5  6  2  0  0  0  0
  5 11  1  0  0  0  0
  6  7  1  0  0  0  0
  6  9  1  0  0  0  0
  7  8  2  0  0  0  0
  9 10  2  0  0  0  0
  9 12  1  0  0  0  0
 10 11  1  0  0  0  0
 12 13  1  0  0  0  0
M  END
>  <CHROM.1>
169.83721737,35.80696807,33.09570284,25.44105716,0.37914841,0.66462057,2.64272953

>  <Name>
ligand

>  <RI>
0

>  <Rbt.Current_Directory>
/home/itssahil/PROJECTS/Mol_Feturizer/Test_systems_manuscript/rnas/3q50

>  <Rbt.Executable>
rbdock ($Id: //depot/dev/client3/rdock/2013.1/src/exe/rbdock.cxx#4 $)

>  <Rbt.Library>
libRbt.so (2013.1, Build901 2013/11/27)

>  <Rbt.Parameter_File>
/export/apps/rDock/src/rDock_2013.1_src/data/scripts/dock_solv.prm

>  <Rbt.Receptor>
prm/blind_docking_60.prm

>  <SCORE>
-16.0562

>  <SCORE.INTER>
-16.0852

>  <SCORE.INTER.CONST>
1

>  <SCORE.INTER.POLAR>
0

>  <SCORE.INTER.ROT>
1

>  <SCORE.INTER.SOLV>
18.7527

>  <SCORE.INTER.VDW>
-21.241

>  <SCORE.INTER.norm>
-1.23732

>  <SCORE.INTRA>
0.0289477

>  <SCORE.INTRA.DIHEDRAL>
0.0540157

>  <SCORE.INTRA.DIHEDRAL.0>
1.65305

>  <SCORE.INTRA.POLAR>
0

>  <SCORE.INTRA.POLAR.0>
0

>  <SCORE.INTRA.REPUL>
0

>  <SCORE.INTRA.REPUL.0>
0

>  <SCORE.INTRA.SOLV>
0.00230697

>  <SCORE.INTRA.SOLV.lig_0>
-46.9527

>  <SCORE.INTRA.VDW>
0.000786351

>  <SCORE.INTRA.VDW.0>
-0.177978

>  <SCORE.INTRA.norm>
0.00222675

>  <SCORE.RESTR>
0

>  <SCORE.RESTR.CAVITY>
0

>  <SCORE.RESTR.norm>
0

>  <SCORE.SYSTEM>
0

>  <SCORE.SYSTEM.CONST>
0

>  <SCORE.SYSTEM.DIHEDRAL>
0

>  <SCORE.SYSTEM.SOLV>
0

>  <SCORE.SYSTEM.norm>
0

>  <SCORE.heavy>
13

>  <SCORE.norm>
-1.23509

>  <RMSD>
4.804

$$$$
ligand
 OpenBabel02271912143D
libRbt.so/2013.1/901 2013/11/27
 13 14  0  0  0  0  0  0  0  0999 V2000
   36.1214   32.8441   27.0108 N   0  0  0  0  0  0  0  0  0  0  0  0
   37.1551   33.7653   26.7616 C   0  0  0  0  0  0  0  0  0  0  0  0
   38.0996   33.9256   27.7667 N   0  0  0  0  0  0  0  0  0  0  0  0
   37.2862   34.5239   25.6466 N   0  0  0  0  0  0  0  0  0  0  0  0
   36.2625   34.2910   24.7332 C   0  0  0  0  0  0  0  0  0  0  0  0
   35.2056   33.3857   24.8878 C   0  0  0  0  0  0  0  0  0  0  0  0
   35.0862   32.6143   26.0531 C   0  0  0  0  0  0  0  0  0  0  0  0
   34.2065   31.8068   26.3139 O   0  0  0  0  0  0  0  0  0  0  0  0
   34.3799   33.4440   23.7416 C   0  0  0  0  0  0  0  0  0  0  0  0
   34.9505   34.3824   22.8958 C   0  0  0  0  0  0  0  0  0  0  0  0
   36.1191   34.9069   23.5034 N   0  0  0  0  0  0  0  0  0  0  0  0
   33.1418   32.6355   23.5738 C   0  0  0  0  0  0  0  0  0  0  0  0
   32.8742   32.3751   22.1508 N   0  0  0  0  0  0  0  0  0  0  0  0
  1  2  1  0  0  0  0
  1  7  1  0  0  0  0
  2  3  1  0  0  0  0
  2  4  2  0  0  0  0
  4  5  1  0  0  0  0
  5  6  2  0  0  0  0
  5 11  1  0  0  0  0
  6  7  1  0  0  0  0
  6  9  1  0  0  0  0
  7  8  2  0  0  0  0
  9 10  2  0  0  0  0
  9 12  1  0  0  0  0
 10 11  1  0  0  0  0
 12 13  1  0  0  0  0
M  END
>  <CHROM.1>
-151.83736309,35.43453245,33.42130369,25.02896740,0.59198038,0.61993376,2.07977351

>  <Name>
ligand

>  <RI>
0

>  <Rbt.Current_Directory>
/home/itssahil/PROJECTS/Mol_Feturizer/Test_systems_manuscript/rnas/3q50

>  <Rbt.Executable>
rbdock ($Id: //depot/dev/client3/rdock/2013.1/src/exe/rbdock.cxx#4 $)

>  <Rbt.Library>
libRbt.so (2013.1, Build901 2013/11/27)

>  <Rbt.Parameter_File>
/export/apps/rDock/src/rDock_2013.1_src/data/scripts/dock_solv.prm

>  <Rbt.Receptor>
prm/blind_docking_80.prm

>  <SCORE>
-15.3169

>  <SCORE.INTER>
-15.2591

>  <SCORE.INTER.CONST>
1

>  <SCORE.INTER.POLAR>
0

>  <SCORE.INTER.ROT>
1

>  <SCORE.INTER.SOLV>
20.2053

>  <SCORE.INTER.VDW>
-21.1745

>  <SCORE.INTER.norm>
-1.17377

>  <SCORE.INTRA>
-0.0577844

>  <SCORE.INTRA.DIHEDRAL>
-0.0295511

>  <SCORE.INTRA.DIHEDRAL.0>
1.65305

>  <SCORE.INTRA.POLAR>
0

>  <SCORE.INTRA.POLAR.0>
0

>  <SCORE.INTRA.REPUL>
0

>  <SCORE.INTRA.REPUL.0>
0

>  <SCORE.INTRA.SOLV>
-0.00524597

>  <SCORE.INTRA.SOLV.lig_0>
-46.9527

>  <SCORE.INTRA.VDW>
-0.0403858

>  <SCORE.INTRA.VDW.0>
-0.177978

>  <SCORE.INTRA.norm>
-0.00444495

>  <SCORE.RESTR>
0

>  <SCORE.RESTR.CAVITY>
0

>  <SCORE.RESTR.norm>
0

>  <SCORE.SYSTEM>
0

>  <SCORE.SYSTEM.CONST>
0

>  <SCORE.SYSTEM.DIHEDRAL>
0

>  <SCORE.SYSTEM.SOLV>
0

>  <SCORE.SYSTEM.norm>
0

>  <SCORE.heavy>
13

>  <SCORE.norm>
-1.17822

>  <RMSD>
4.805

$$$$
ligand
 OpenBabel02271912143D
libRbt.so/2013.1/901 2013/11/27
 13 14  0  0  0  0  0  0  0  0999 V2000
   36.7872   31.9036   26.9943 N   0  0  0  0  0  0  0  0  0  0  0  0
   37.6156   33.0333   27.1241 C   0  0  0  0  0  0  0  0  0  0  0  0
   38.6000   32.9724   28.1015 N   0  0  0  0  0  0  0  0  0  0  0  0
   37.5132   34.1757   26.4029 N   0  0  0  0  0  0  0  0  0  0  0  0
   36.4721   34.1199   25.4813 C   0  0  0  0  0  0  0  0  0  0  0  0
   35.6099   33.0368   25.2713 C   0  0  0  0  0  0  0  0  0  0  0  0
   35.7304   31.8655   26.0334 C   0  0  0  0  0  0  0  0  0  0  0  0
   35.0339   30.8640   25.9583 O   0  0  0  0  0  0  0  0  0  0  0  0
   34.6911   33.3726   24.2506 C   0  0  0  0  0  0  0  0  0  0  0  0
   35.0108   34.6588   23.8441 C   0  0  0  0  0  0  0  0  0  0  0  0
   36.1159   35.1246   24.6003 N   0  0  0  0  0  0  0  0  0  0  0  0
   33.6063   32.4664   23.7851 C   0  0  0  0  0  0  0  0  0  0  0  0
   33.0234   32.9505   22.5240 N   0  0  0  0  0  0  0  0  0  0  0  0
  1  2  1  0  0  0  0
  1  7  1  0  0  0  0
  2  3  1  0  0  0  0
  2  4  2  0  0  0  0
  4  5  1  0  0  0  0
  5  6  2  0  0  0  0
  5 11  1  0  0  0  0
  6  7  1  0  0  0  0
  6  9  1  0  0  0  0
  7  8  2  0  0  0  0
  9 10  2  0  0  0  0
  9 12  1  0  0  0  0
 10 11  1  0  0  0  0
 12 13  1  0  0  0  0
M  END
>  <CHROM.1>
-166.77801510,35.82040987,33.07665837,25.42478340,0.38146195,0.69861812,2.62999300

>  <Name>
ligand

>  <RI>
0

>  <Rbt.Current_Directory>
/home/itssahil/PROJECTS/Mol_Feturizer/Test_systems_manuscript/rnas/3q50

>  <Rbt.Executable>
rbdock ($Id: //depot/dev/client3/rdock/2013.1/src/exe/rbdock.cxx#4 $)

>  <Rbt.Library>
libRbt.so (2013.1, Build901 2013/11/27)

>  <Rbt.Parameter_File>
/export/apps/rDock/src/rDock_2013.1_src/data/scripts/dock_solv.prm

>  <Rbt.Receptor>
prm/blind_docking_80.prm

>  <SCORE>
-15.9406

>  <SCORE.INTER>
-15.9282

>  <SCORE.INTER.CONST>
1

>  <SCORE.INTER.POLAR>
0

>  <SCORE.INTER.ROT>
1

>  <SCORE.INTER.SOLV>
18.3281

>  <SCORE.INTER.VDW>
-20.9948

>  <SCORE.INTER.norm>
-1.22525

>  <SCORE.INTRA>
-0.0123376

>  <SCORE.INTRA.DIHEDRAL>
-0.0106331

>  <SCORE.INTRA.DIHEDRAL.0>
1.65305

>  <SCORE.INTRA.POLAR>
0

>  <SCORE.INTRA.POLAR.0>
0

>  <SCORE.INTRA.REPUL>
0

>  <SCORE.INTRA.REPUL.0>
0

>  <SCORE.INTRA.SOLV>
-0.000999606

>  <SCORE.INTRA.SOLV.lig_0>
-46.9527

>  <SCORE.INTRA.VDW>
-0.00652123

>  <SCORE.INTRA.VDW.0>
-0.177978

>  <SCORE.INTRA.norm>
-0.000949043

>  <SCORE.RESTR>
0

>  <SCORE.RESTR.CAVITY>
0

>  <SCORE.RESTR.norm>
0

>  <SCORE.SYSTEM>
0

>  <SCORE.SYSTEM.CONST>
0

>  <SCORE.SYSTEM.DIHEDRAL>
0

>  <SCORE.SYSTEM.SOLV>
0

>  <SCORE.SYSTEM.norm>
0

>  <SCORE.heavy>
13

>  <SCORE.norm>
-1.2262

>  <RMSD>
4.806

$$$$
ligand
 OpenBabel02271912143D
libRbt.so/2013.1/901 2013/11/27
 13 14  0  0  0  0  0  0  0  0999 V2000
   36.7944   31.9187   27.0067 N   0  0  0  0  0  0  0  0  0  0  0  0
   37.6179   33.0519   27.1365 C   0  0  0  0  0  0  0  0  0  0  0  0
   38.5976   32.9983   28.1190 N   0  0  0  0  0  0  0  0  0  0  0  0
   37.5149   34.1913   26.4106 N   0  0  0  0  0  0  0  0  0  0  0  0
   36.4786   34.1282   25.4840 C   0  0  0  0  0  0  0  0  0  0  0  0
   35.6215   33.0411   25.2737 C   0  0  0  0  0  0  0  0  0  0  0  0
   35.7426   31.8731   26.0407 C   0  0  0  0  0  0  0  0  0  0  0  0
   35.0501   30.8687   25.9658 O   0  0  0  0  0  0  0  0  0  0  0  0
   34.7066   33.3698   24.2472 C   0  0  0  0  0  0  0  0  0  0  0  0
   35.0236   34.6556   23.8375 C   0  0  0  0  0  0  0  0  0  0  0  0
   36.1232   35.1283   24.5975 N   0  0  0  0  0  0  0  0  0  0  0  0
   33.6276   32.4578   23.7796 C   0  0  0  0  0  0  0  0  0  0  0  0
   32.7874   33.1153   22.7665 N   0  0  0  0  0  0  0  0  0  0  0  0
  1  2  1  0  0  0  0
  1  7  1  0  0  0  0
  2  3  1  0  0  0  0
  2  4  2  0  0  0  0
  4  5  1  0  0  0  0
  5  6  2  0  0  0  0
  5 11  1  0  0  0  0
  6  7  1  0  0  0  0
  6  9  1  0  0  0  0
  7  8  2  0  0  0  0
  9 10  2  0  0  0  0
  9 12  1  0  0  0  0
 10 11  1  0  0  0  0
 12 13  1  0  0  0  0
M  END
>  <CHROM.1>
176.23004443,35.80980043,33.09701741,25.44864686,0.37783876,0.67627466,2.63609304

>  <Name>
ligand

>  <RI>
0

>  <Rbt.Current_Directory>
/home/itssahil/PROJECTS/Mol_Feturizer/Test_systems_manuscript/rnas/3q50

>  <Rbt.Executable>
rbdock ($Id: //depot/dev/client3/rdock/2013.1/src/exe/rbdock.cxx#4 $)

>  <Rbt.Library>
libRbt.so (2013.1, Build901 2013/11/27)

>  <Rbt.Parameter_File>
/export/apps/rDock/src/rDock_2013.1_src/data/scripts/dock_solv.prm

>  <Rbt.Receptor>
prm/blind_docking_60.prm

>  <SCORE>
-16.0241

>  <SCORE.INTER>
-16.0489

>  <SCORE.INTER.CONST>
1

>  <SCORE.INTER.POLAR>
0

>  <SCORE.INTER.ROT>
1

>  <SCORE.INTER.SOLV>
18.6441

>  <SCORE.INTER.VDW>
-21.1806

>  <SCORE.INTER.norm>
-1.23453

>  <SCORE.INTRA>
0.0248133

>  <SCORE.INTRA.DIHEDRAL>
0.036178

>  <SCORE.INTRA.DIHEDRAL.0>
1.65305

>  <SCORE.INTRA.POLAR>
0

>  <SCORE.INTRA.POLAR.0>
0

>  <SCORE.INTRA.REPUL>
0

>  <SCORE.INTRA.REPUL.0>
0

>  <SCORE.INTRA.SOLV>
0.0019183

>  <SCORE.INTRA.SOLV.lig_0>
-46.9527

>  <SCORE.INTRA.VDW>
0.00576517

>  <SCORE.INTRA.VDW.0>
-0.177978

>  <SCORE.INTRA.norm>
0.00190872

>  <SCORE.RESTR>
0

>  <SCORE.RESTR.CAVITY>
0

>  <SCORE.RESTR.norm>
0

>  <SCORE.SYSTEM>
0

>  <SCORE.SYSTEM.CONST>
0

>  <SCORE.SYSTEM.DIHEDRAL>
0

>  <SCORE.SYSTEM.SOLV>
0

>  <SCORE.SYSTEM.norm>
0

>  <SCORE.heavy>
13

>  <SCORE.norm>
-1.23262

>  <RMSD>
4.809

$$$$
ligand
 OpenBabel02271912143D
libRbt.so/2013.1/901 2013/11/27
 13 14  0  0  0  0  0  0  0  0999 V2000
   37.1053   32.7818   26.8692 N   0  0  0  0  0  0  0  0  0  0  0  0
   37.9116   33.9191   26.6798 C   0  0  0  0  0  0  0  0  0  0  0  0
   38.9698   34.0840   27.5636 N   0  0  0  0  0  0  0  0  0  0  0  0
   37.7242   34.8728   25.7359 N   0  0  0  0  0  0  0  0  0  0  0  0
   36.6168   34.6059   24.9365 C   0  0  0  0  0  0  0  0  0  0  0  0
   35.7694   33.4960   25.0404 C   0  0  0  0  0  0  0  0  0  0  0  0
   35.9787   32.5234   26.0290 C   0  0  0  0  0  0  0  0  0  0  0  0
   35.3047   31.5244   26.2327 O   0  0  0  0  0  0  0  0  0  0  0  0
   34.7661   33.5902   24.0488 C   0  0  0  0  0  0  0  0  0  0  0  0
   35.0200   34.7571   23.3449 C   0  0  0  0  0  0  0  0  0  0  0  0
   36.1677   35.3878   23.8881 N   0  0  0  0  0  0  0  0  0  0  0  0
   33.6725   32.5945   23.8834 C   0  0  0  0  0  0  0  0  0  0  0  0
   32.8007   32.9555   22.7546 N   0  0  0  0  0  0  0  0  0  0  0  0
  1  2  1  0  0  0  0
  1  7  1  0  0  0  0
  2  3  1  0  0  0  0
  2  4  2  0  0  0  0
  4  5  1  0  0  0  0
  5  6  2  0  0  0  0
  5 11  1  0  0  0  0
  6  7  1  0  0  0  0
  6  9  1  0  0  0  0
  7  8  2  0  0  0  0
  9 10  2  0  0  0  0
  9 12  1  0  0  0  0
 10 11  1  0  0  0  0
 12 13  1  0  0  0  0
M  END
>  <CHROM.1>
-179.09814449,35.97528277,33.58468669,25.17652608,0.30662019,0.62151600,2.45855851

>  <Name>
ligand

>  <RI>
0

>  <Rbt.Current_Directory>
/home/itssahil/PROJECTS/Mol_Feturizer/Test_systems_manuscript/rnas/3q50

>  <Rbt.Executable>
rbdock ($Id: //depot/dev/client3/rdock/2013.1/src/exe/rbdock.cxx#4 $)

>  <Rbt.Library>
libRbt.so (2013.1, Build901 2013/11/27)

>  <Rbt.Parameter_File>
/export/apps/rDock/src/rDock_2013.1_src/data/scripts/dock_solv.prm

>  <Rbt.Receptor>
prm/pocket_docking_5.prm

>  <SCORE>
-17.0836

>  <SCORE.INTER>
-17.1015

>  <SCORE.INTER.CONST>
1

>  <SCORE.INTER.POLAR>
0

>  <SCORE.INTER.ROT>
1

>  <SCORE.INTER.SOLV>
16.6658

>  <SCORE.INTER.VDW>
-21.2229

>  <SCORE.INTER.norm>
-1.3155

>  <SCORE.INTRA>
0.0179124

>  <SCORE.INTRA.DIHEDRAL>
0.0223757

>  <SCORE.INTRA.DIHEDRAL.0>
1.65305

>  <SCORE.INTRA.POLAR>
0

>  <SCORE.INTRA.POLAR.0>
0

>  <SCORE.INTRA.REPUL>
0

>  <SCORE.INTRA.REPUL.0>
0

>  <SCORE.INTRA.SOLV>
0.00138348

>  <SCORE.INTRA.SOLV.lig_0>
-46.9527

>  <SCORE.INTRA.VDW>
0.00603282

>  <SCORE.INTRA.VDW.0>
-0.177978

>  <SCORE.INTRA.norm>
0.00137788

>  <SCORE.RESTR>
0

>  <SCORE.RESTR.CAVITY>
0

>  <SCORE.RESTR.norm>
0

>  <SCORE.SYSTEM>
0

>  <SCORE.SYSTEM.CONST>
0

>  <SCORE.SYSTEM.DIHEDRAL>
0

>  <SCORE.SYSTEM.SOLV>
0

>  <SCORE.SYSTEM.norm>
0

>  <SCORE.heavy>
13

>  <SCORE.norm>
-1.31412

>  <RMSD>
4.856

$$$$
ligand
 OpenBabel02271912143D
libRbt.so/2013.1/901 2013/11/27
 13 14  0  0  0  0  0  0  0  0999 V2000
   37.1268   32.8012   26.8759 N   0  0  0  0  0  0  0  0  0  0  0  0
   37.9195   33.9464   26.6771 C   0  0  0  0  0  0  0  0  0  0  0  0
   38.9823   34.1255   27.5527 N   0  0  0  0  0  0  0  0  0  0  0  0
   37.7151   34.8950   25.7316 N   0  0  0  0  0  0  0  0  0  0  0  0
   36.6048   34.6138   24.9412 C   0  0  0  0  0  0  0  0  0  0  0  0
   35.7701   33.4953   25.0547 C   0  0  0  0  0  0  0  0  0  0  0  0
   35.9970   32.5282   26.0448 C   0  0  0  0  0  0  0  0  0  0  0  0
   35.3352   31.5226   26.2565 O   0  0  0  0  0  0  0  0  0  0  0  0
   34.7587   33.5756   24.0701 C   0  0  0  0  0  0  0  0  0  0  0  0
   34.9950   34.7429   23.3608 C   0  0  0  0  0  0  0  0  0  0  0  0
   36.1398   35.3875   23.8937 N   0  0  0  0  0  0  0  0  0  0  0  0
   33.6746   32.5678   23.9158 C   0  0  0  0  0  0  0  0  0  0  0  0
   33.0202   32.6979   22.6046 N   0  0  0  0  0  0  0  0  0  0  0  0
  1  2  1  0  0  0  0
  1  7  1  0  0  0  0
  2  3  1  0  0  0  0
  2  4  2  0  0  0  0
  4  5  1  0  0  0  0
  5  6  2  0  0  0  0
  5 11  1  0  0  0  0
  6  7  1  0  0  0  0
  6  9  1  0  0  0  0
  7  8  2  0  0  0  0
  9 10  2  0  0  0  0
  9 12  1  0  0  0  0
 10 11  1  0  0  0  0
 12 13  1  0  0  0  0
M  END
>  <CHROM.1>
-163.71883968,35.99470498,33.56884847,25.17380131,0.28869208,0.64872196,2.45999426

>  <Name>
ligand

>  <RI>
0

>  <Rbt.Current_Directory>
/home/itssahil/PROJECTS/Mol_Feturizer/Test_systems_manuscript/rnas/3q50

>  <Rbt.Executable>
rbdock ($Id: //depot/dev/client3/rdock/2013.1/src/exe/rbdock.cxx#4 $)

>  <Rbt.Library>
libRbt.so (2013.1, Build901 2013/11/27)

>  <Rbt.Parameter_File>
/export/apps/rDock/src/rDock_2013.1_src/data/scripts/dock_solv.prm

>  <Rbt.Receptor>
prm/pocket_docking_6.prm

>  <SCORE>
-17.0507

>  <SCORE.INTER>
-17.0291

>  <SCORE.INTER.CONST>
1

>  <SCORE.INTER.POLAR>
0

>  <SCORE.INTER.ROT>
1

>  <SCORE.INTER.SOLV>
16.5101

>  <SCORE.INTER.VDW>
-21.1228

>  <SCORE.INTER.norm>
-1.30993

>  <SCORE.INTRA>
-0.0215398

>  <SCORE.INTRA.DIHEDRAL>
-0.0169045

>  <SCORE.INTRA.DIHEDRAL.0>
1.65305

>  <SCORE.INTRA.POLAR>
0

>  <SCORE.INTRA.POLAR.0>
0

>  <SCORE.INTRA.REPUL>
0

>  <SCORE.INTRA.REPUL.0>
0

>  <SCORE.INTRA.SOLV>
-0.00177998

>  <SCORE.INTRA.SOLV.lig_0>
-46.9527

>  <SCORE.INTRA.VDW>
-0.0121975

>  <SCORE.INTRA.VDW.0>
-0.177978

>  <SCORE.INTRA.norm>
-0.0016569

>  <SCORE.RESTR>
0

>  <SCORE.RESTR.CAVITY>
0

>  <SCORE.RESTR.norm>
0

>  <SCORE.SYSTEM>
0

>  <SCORE.SYSTEM.CONST>
0

>  <SCORE.SYSTEM.DIHEDRAL>
0

>  <SCORE.SYSTEM.SOLV>
0

>  <SCORE.SYSTEM.norm>
0

>  <SCORE.heavy>
13

>  <SCORE.norm>
-1.31159

>  <RMSD>
4.859

$$$$
ligand
 OpenBabel02271912143D
libRbt.so/2013.1/901 2013/11/27
 13 14  0  0  0  0  0  0  0  0999 V2000
   37.1093   32.8021   26.8865 N   0  0  0  0  0  0  0  0  0  0  0  0
   37.9136   33.9373   26.6772 C   0  0  0  0  0  0  0  0  0  0  0  0
   38.9712   34.1199   27.5582 N   0  0  0  0  0  0  0  0  0  0  0  0
   37.7247   34.8738   25.7164 N   0  0  0  0  0  0  0  0  0  0  0  0
   36.6180   34.5907   24.9217 C   0  0  0  0  0  0  0  0  0  0  0  0
   35.7726   33.4813   25.0450 C   0  0  0  0  0  0  0  0  0  0  0  0
   35.9835   32.5268   26.0508 C   0  0  0  0  0  0  0  0  0  0  0  0
   35.3112   31.5303   26.2719 O   0  0  0  0  0  0  0  0  0  0  0  0
   34.7695   33.5560   24.0516 C   0  0  0  0  0  0  0  0  0  0  0  0
   35.0214   34.7108   23.3272 C   0  0  0  0  0  0  0  0  0  0  0  0
   36.1678   35.3531   23.8594 N   0  0  0  0  0  0  0  0  0  0  0  0
   33.6777   32.5556   23.9036 C   0  0  0  0  0  0  0  0  0  0  0  0
   32.7777   32.9207   22.7986 N   0  0  0  0  0  0  0  0  0  0  0  0
  1  2  1  0  0  0  0
  1  7  1  0  0  0  0
  2  3  1  0  0  0  0
  2  4  2  0  0  0  0
  4  5  1  0  0  0  0
  5  6  2  0  0  0  0
  5 11  1  0  0  0  0
  6  7  1  0  0  0  0
  6  9  1  0  0  0  0
  7  8  2  0  0  0  0
  9 10  2  0  0  0  0
  9 12  1  0  0  0  0
 10 11  1  0  0  0  0
 12 13  1  0  0  0  0
M  END
>  <CHROM.1>
178.87861421,35.97605057,33.57486207,25.18203381,0.30468452,0.61943297,2.44249881

>  <Name>
ligand

>  <RI>
0

>  <Rbt.Current_Directory>
/home/itssahil/PROJECTS/Mol_Feturizer/Test_systems_manuscript/rnas/3q50

>  <Rbt.Executable>
rbdock ($Id: //depot/dev/client3/rdock/2013.1/src/exe/rbdock.cxx#4 $)

>  <Rbt.Library>
libRbt.so (2013.1, Build901 2013/11/27)

>  <Rbt.Parameter_File>
/export/apps/rDock/src/rDock_2013.1_src/data/scripts/dock_solv.prm

>  <Rbt.Receptor>
prm/pocket_docking_6.prm

>  <SCORE>
-17.1145

>  <SCORE.INTER>
-17.1358

>  <SCORE.INTER.CONST>
1

>  <SCORE.INTER.POLAR>
0

>  <SCORE.INTER.ROT>
1

>  <SCORE.INTER.SOLV>
16.6941

>  <SCORE.INTER.VDW>
-21.2552

>  <SCORE.INTER.norm>
-1.31814

>  <SCORE.INTRA>
0.0212776

>  <SCORE.INTRA.DIHEDRAL>
0.028368

>  <SCORE.INTRA.DIHEDRAL.0>
1.65305

>  <SCORE.INTRA.POLAR>
0

>  <SCORE.INTRA.POLAR.0>
0

>  <SCORE.INTRA.REPUL>
0

>  <SCORE.INTRA.REPUL.0>
0

>  <SCORE.INTRA.SOLV>
0.00164129

>  <SCORE.INTRA.SOLV.lig_0>
-46.9527

>  <SCORE.INTRA.VDW>
0.00627291

>  <SCORE.INTRA.VDW.0>
-0.177978

>  <SCORE.INTRA.norm>
0.00163674

>  <SCORE.RESTR>
0

>  <SCORE.RESTR.CAVITY>
0

>  <SCORE.RESTR.norm>
0

>  <SCORE.SYSTEM>
0

>  <SCORE.SYSTEM.CONST>
0

>  <SCORE.SYSTEM.DIHEDRAL>
0

>  <SCORE.SYSTEM.SOLV>
0

>  <SCORE.SYSTEM.norm>
0

>  <SCORE.heavy>
13

>  <SCORE.norm>
-1.3165

>  <RMSD>
4.861

$$$$
ligand
 OpenBabel02271912143D
libRbt.so/2013.1/901 2013/11/27
 13 14  0  0  0  0  0  0  0  0999 V2000
   37.1293   32.7419   26.8209 N   0  0  0  0  0  0  0  0  0  0  0  0
   37.9365   33.8714   26.5931 C   0  0  0  0  0  0  0  0  0  0  0  0
   39.0148   34.0470   27.4500 N   0  0  0  0  0  0  0  0  0  0  0  0
   37.7325   34.8089   25.6363 N   0  0  0  0  0  0  0  0  0  0  0  0
   36.6064   34.5332   24.8667 C   0  0  0  0  0  0  0  0  0  0  0  0
   35.7563   33.4297   25.0096 C   0  0  0  0  0  0  0  0  0  0  0  0
   35.9831   32.4741   26.0108 C   0  0  0  0  0  0  0  0  0  0  0  0
   35.3092   31.4823   26.2475 O   0  0  0  0  0  0  0  0  0  0  0  0
   34.7317   33.5109   24.0389 C   0  0  0  0  0  0  0  0  0  0  0  0
   34.9752   34.6637   23.3085 C   0  0  0  0  0  0  0  0  0  0  0  0
   36.1377   35.2983   23.8145 N   0  0  0  0  0  0  0  0  0  0  0  0
   33.6300   32.5180   23.9159 C   0  0  0  0  0  0  0  0  0  0  0  0
   32.8647   32.7340   22.6781 N   0  0  0  0  0  0  0  0  0  0  0  0
  1  2  1  0  0  0  0
  1  7  1  0  0  0  0
  2  3  1  0  0  0  0
  2  4  2  0  0  0  0
  4  5  1  0  0  0  0
  5  6  2  0  0  0  0
  5 11  1  0  0  0  0
  6  7  1  0  0  0  0
  6  9  1  0  0  0  0
  7  8  2  0  0  0  0
  9 10  2  0  0  0  0
  9 12  1  0  0  0  0
 10 11  1  0  0  0  0
 12 13  1  0  0  0  0
M  END
>  <CHROM.1>
-169.91921796,35.97617234,33.50924548,25.12949914,0.29369810,0.61696907,2.44467932

>  <Name>
ligand

>  <RI>
0

>  <Rbt.Current_Directory>
/home/itssahil/PROJECTS/Mol_Feturizer/Test_systems_manuscript/rnas/3q50

>  <Rbt.Executable>
rbdock ($Id: //depot/dev/client3/rdock/2013.1/src/exe/rbdock.cxx#4 $)

>  <Rbt.Library>
libRbt.so (2013.1, Build901 2013/11/27)

>  <Rbt.Parameter_File>
/export/apps/rDock/src/rDock_2013.1_src/data/scripts/dock_solv.prm

>  <Rbt.Receptor>
prm/pocket_docking_4.prm

>  <SCORE>
-17.0826

>  <SCORE.INTER>
-17.0792

>  <SCORE.INTER.CONST>
1

>  <SCORE.INTER.POLAR>
0

>  <SCORE.INTER.ROT>
1

>  <SCORE.INTER.SOLV>
16.5912

>  <SCORE.INTER.VDW>
-21.1832

>  <SCORE.INTER.norm>
-1.31379

>  <SCORE.INTRA>
-0.00337412

>  <SCORE.INTRA.DIHEDRAL>
-0.00319379

>  <SCORE.INTRA.DIHEDRAL.0>
1.65305

>  <SCORE.INTRA.POLAR>
0

>  <SCORE.INTRA.POLAR.0>
0

>  <SCORE.INTRA.REPUL>
0

>  <SCORE.INTRA.REPUL.0>
0

>  <SCORE.INTRA.SOLV>
-0.000268628

>  <SCORE.INTRA.SOLV.lig_0>
-46.9527

>  <SCORE.INTRA.VDW>
-0.00164291

>  <SCORE.INTRA.VDW.0>
-0.177978

>  <SCORE.INTRA.norm>
-0.000259548

>  <SCORE.RESTR>
0

>  <SCORE.RESTR.CAVITY>
0

>  <SCORE.RESTR.norm>
0

>  <SCORE.SYSTEM>
0

>  <SCORE.SYSTEM.CONST>
0

>  <SCORE.SYSTEM.DIHEDRAL>
0

>  <SCORE.SYSTEM.SOLV>
0

>  <SCORE.SYSTEM.norm>
0

>  <SCORE.heavy>
13

>  <SCORE.norm>
-1.31405

>  <RMSD>
4.862

$$$$
ligand
 OpenBabel02271912143D
libRbt.so/2013.1/901 2013/11/27
 13 14  0  0  0  0  0  0  0  0999 V2000
   37.1193   32.8646   26.8713 N   0  0  0  0  0  0  0  0  0  0  0  0
   37.9043   34.0128   26.6596 C   0  0  0  0  0  0  0  0  0  0  0  0
   38.9659   34.2088   27.5328 N   0  0  0  0  0  0  0  0  0  0  0  0
   37.6933   34.9494   25.7036 N   0  0  0  0  0  0  0  0  0  0  0  0
   36.5848   34.6519   24.9166 C   0  0  0  0  0  0  0  0  0  0  0  0
   35.7577   33.5291   25.0428 C   0  0  0  0  0  0  0  0  0  0  0  0
   35.9912   32.5747   26.0436 C   0  0  0  0  0  0  0  0  0  0  0  0
   35.3362   31.5672   26.2667 O   0  0  0  0  0  0  0  0  0  0  0  0
   34.7456   33.5916   24.0576 C   0  0  0  0  0  0  0  0  0  0  0  0
   34.9739   34.7525   23.3352 C   0  0  0  0  0  0  0  0  0  0  0  0
   36.1145   35.4107   23.8605 N   0  0  0  0  0  0  0  0  0  0  0  0
   33.6683   32.5749   23.9148 C   0  0  0  0  0  0  0  0  0  0  0  0
   32.7767   32.9092   22.7934 N   0  0  0  0  0  0  0  0  0  0  0  0
  1  2  1  0  0  0  0
  1  7  1  0  0  0  0
  2  3  1  0  0  0  0
  2  4  2  0  0  0  0
  4  5  1  0  0  0  0
  5  6  2  0  0  0  0
  5 11  1  0  0  0  0
  6  7  1  0  0  0  0
  6  9  1  0  0  0  0
  7  8  2  0  0  0  0
  9 10  2  0  0  0  0
  9 12  1  0  0  0  0
 10 11  1  0  0  0  0
 12 13  1  0  0  0  0
M  END
>  <CHROM.1>
-179.48148099,35.96256634,33.62368717,25.17653456,0.28412778,0.62600176,2.45743345

>  <Name>
ligand

>  <RI>
0

>  <Rbt.Current_Directory>
/home/itssahil/PROJECTS/Mol_Feturizer/Test_systems_manuscript/rnas/3q50

>  <Rbt.Executable>
rbdock ($Id: //depot/dev/client3/rdock/2013.1/src/exe/rbdock.cxx#4 $)

>  <Rbt.Library>
libRbt.so (2013.1, Build901 2013/11/27)

>  <Rbt.Parameter_File>
/export/apps/rDock/src/rDock_2013.1_src/data/scripts/dock_solv.prm

>  <Rbt.Receptor>
prm/pocket_docking_5.prm

>  <SCORE>
-17.0742

>  <SCORE.INTER>
-17.0928

>  <SCORE.INTER.CONST>
1

>  <SCORE.INTER.POLAR>
0

>  <SCORE.INTER.ROT>
1

>  <SCORE.INTER.SOLV>
16.7457

>  <SCORE.INTER.VDW>
-21.2437

>  <SCORE.INTER.norm>
-1.31483

>  <SCORE.INTRA>
0.0185923

>  <SCORE.INTRA.DIHEDRAL>
0.0235092

>  <SCORE.INTRA.DIHEDRAL.0>
1.65305

>  <SCORE.INTRA.POLAR>
0

>  <SCORE.INTRA.POLAR.0>
0

>  <SCORE.INTRA.REPUL>
0

>  <SCORE.INTRA.REPUL.0>
0

>  <SCORE.INTRA.SOLV>
0.00143538

>  <SCORE.INTRA.SOLV.lig_0>
-46.9527

>  <SCORE.INTRA.VDW>
0.00612

>  <SCORE.INTRA.VDW.0>
-0.177978

>  <SCORE.INTRA.norm>
0.00143017

>  <SCORE.RESTR>
0

>  <SCORE.RESTR.CAVITY>
0

>  <SCORE.RESTR.norm>
0

>  <SCORE.SYSTEM>
0

>  <SCORE.SYSTEM.CONST>
0

>  <SCORE.SYSTEM.DIHEDRAL>
0

>  <SCORE.SYSTEM.SOLV>
0

>  <SCORE.SYSTEM.norm>
0

>  <SCORE.heavy>
13

>  <SCORE.norm>
-1.3134

>  <RMSD>
4.862

$$$$
ligand
 OpenBabel02271912143D
libRbt.so/2013.1/901 2013/11/27
 13 14  0  0  0  0  0  0  0  0999 V2000
   37.1055   32.8386   26.8619 N   0  0  0  0  0  0  0  0  0  0  0  0
   37.9056   33.9732   26.6343 C   0  0  0  0  0  0  0  0  0  0  0  0
   38.9691   34.1679   27.5056 N   0  0  0  0  0  0  0  0  0  0  0  0
   37.7076   34.8986   25.6647 N   0  0  0  0  0  0  0  0  0  0  0  0
   36.5959   34.6043   24.8811 C   0  0  0  0  0  0  0  0  0  0  0  0
   35.7540   33.4944   25.0227 C   0  0  0  0  0  0  0  0  0  0  0  0
   35.9744   32.5515   26.0374 C   0  0  0  0  0  0  0  0  0  0  0  0
   35.3060   31.5560   26.2744 O   0  0  0  0  0  0  0  0  0  0  0  0
   34.7436   33.5559   24.0358 C   0  0  0  0  0  0  0  0  0  0  0  0
   34.9876   34.7031   23.2970 C   0  0  0  0  0  0  0  0  0  0  0  0
   36.1363   35.3538   23.8137 N   0  0  0  0  0  0  0  0  0  0  0  0
   33.6531   32.5514   23.9068 C   0  0  0  0  0  0  0  0  0  0  0  0
   32.8799   32.7718   22.6747 N   0  0  0  0  0  0  0  0  0  0  0  0
  1  2  1  0  0  0  0
  1  7  1  0  0  0  0
  2  3  1  0  0  0  0
  2  4  2  0  0  0  0
  4  5  1  0  0  0  0
  5  6  2  0  0  0  0
  5 11  1  0  0  0  0
  6  7  1  0  0  0  0
  6  9  1  0  0  0  0
  7  8  2  0  0  0  0
  9 10  2  0  0  0  0
  9 12  1  0  0  0  0
 10 11  1  0  0  0  0
 12 13  1  0  0  0  0
M  END
>  <CHROM.1>
-171.58857237,35.96925821,33.57929693,25.14670891,0.29731664,0.63173533,2.43266697

>  <Name>
ligand

>  <RI>
0

>  <Rbt.Current_Directory>
/home/itssahil/PROJECTS/Mol_Feturizer/Test_systems_manuscript/rnas/3q50

>  <Rbt.Executable>
rbdock ($Id: //depot/dev/client3/rdock/2013.1/src/exe/rbdock.cxx#4 $)

>  <Rbt.Library>
libRbt.so (2013.1, Build901 2013/11/27)

>  <Rbt.Parameter_File>
/export/apps/rDock/src/rDock_2013.1_src/data/scripts/dock_solv.prm

>  <Rbt.Receptor>
prm/pocket_docking_5.prm

>  <SCORE>
-17.0624

>  <SCORE.INTER>
-17.0635

>  <SCORE.INTER.CONST>
1

>  <SCORE.INTER.POLAR>
0

>  <SCORE.INTER.ROT>
1

>  <SCORE.INTER.SOLV>
16.6026

>  <SCORE.INTER.VDW>
-21.1765

>  <SCORE.INTER.norm>
-1.31258

>  <SCORE.INTRA>
0.00111056

>  <SCORE.INTRA.DIHEDRAL>
0.00110453

>  <SCORE.INTRA.DIHEDRAL.0>
1.65305

>  <SCORE.INTRA.POLAR>
0

>  <SCORE.INTRA.POLAR.0>
0

>  <SCORE.INTRA.REPUL>
0

>  <SCORE.INTRA.REPUL.0>
0

>  <SCORE.INTRA.SOLV>
8.77109e-05

>  <SCORE.INTRA.SOLV.lig_0>
-46.9527

>  <SCORE.INTRA.VDW>
0.000514439

>  <SCORE.INTRA.VDW.0>
-0.177978

>  <SCORE.INTRA.norm>
8.54278e-05

>  <SCORE.RESTR>
0

>  <SCORE.RESTR.CAVITY>
0

>  <SCORE.RESTR.norm>
0

>  <SCORE.SYSTEM>
0

>  <SCORE.SYSTEM.CONST>
0

>  <SCORE.SYSTEM.DIHEDRAL>
0

>  <SCORE.SYSTEM.SOLV>
0

>  <SCORE.SYSTEM.norm>
0

>  <SCORE.heavy>
13

>  <SCORE.norm>
-1.31249

>  <RMSD>
4.862

$$$$
ligand
 OpenBabel02271912143D
libRbt.so/2013.1/901 2013/11/27
 13 14  0  0  0  0  0  0  0  0999 V2000
   37.1597   32.7944   26.8227 N   0  0  0  0  0  0  0  0  0  0  0  0
   37.9561   33.9332   26.6035 C   0  0  0  0  0  0  0  0  0  0  0  0
   39.0354   34.1102   27.4590 N   0  0  0  0  0  0  0  0  0  0  0  0
   37.7409   34.8780   25.6565 N   0  0  0  0  0  0  0  0  0  0  0  0
   36.6150   34.5997   24.8875 C   0  0  0  0  0  0  0  0  0  0  0  0
   35.7753   33.4873   25.0220 C   0  0  0  0  0  0  0  0  0  0  0  0
   36.0137   32.5241   26.0133 C   0  0  0  0  0  0  0  0  0  0  0  0
   35.3493   31.5240   26.2423 O   0  0  0  0  0  0  0  0  0  0  0  0
   34.7471   33.5688   24.0552 C   0  0  0  0  0  0  0  0  0  0  0  0
   34.9781   34.7307   23.3353 C   0  0  0  0  0  0  0  0  0  0  0  0
   36.1364   35.3707   23.8441 N   0  0  0  0  0  0  0  0  0  0  0  0
   33.6540   32.5672   23.9258 C   0  0  0  0  0  0  0  0  0  0  0  0
   32.9037   32.7680   22.6763 N   0  0  0  0  0  0  0  0  0  0  0  0
  1  2  1  0  0  0  0
  1  7  1  0  0  0  0
  2  3  1  0  0  0  0
  2  4  2  0  0  0  0
  4  5  1  0  0  0  0
  5  6  2  0  0  0  0
  5 11  1  0  0  0  0
  6  7  1  0  0  0  0
  6  9  1  0  0  0  0
  7  8  2  0  0  0  0
  9 10  2  0  0  0  0
  9 12  1  0  0  0  0
 10 11  1  0  0  0  0
 12 13  1  0  0  0  0
M  END
>  <CHROM.1>
-168.54169419,35.99646839,33.56601074,25.14081570,0.28261030,0.62274696,2.46026440

>  <Name>
ligand

>  <RI>
0

>  <Rbt.Current_Directory>
/home/itssahil/PROJECTS/Mol_Feturizer/Test_systems_manuscript/rnas/3q50

>  <Rbt.Executable>
rbdock ($Id: //depot/dev/client3/rdock/2013.1/src/exe/rbdock.cxx#4 $)

>  <Rbt.Library>
libRbt.so (2013.1, Build901 2013/11/27)

>  <Rbt.Parameter_File>
/export/apps/rDock/src/rDock_2013.1_src/data/scripts/dock_solv.prm

>  <Rbt.Receptor>
prm/pocket_docking_6.prm

>  <SCORE>
-17.0991

>  <SCORE.INTER>
-17.0919

>  <SCORE.INTER.CONST>
1

>  <SCORE.INTER.POLAR>
0

>  <SCORE.INTER.ROT>
1

>  <SCORE.INTER.SOLV>
16.4519

>  <SCORE.INTER.VDW>
-21.1452

>  <SCORE.INTER.norm>
-1.31476

>  <SCORE.INTRA>
-0.00722963

>  <SCORE.INTRA.DIHEDRAL>
-0.00656876

>  <SCORE.INTRA.DIHEDRAL.0>
1.65305

>  <SCORE.INTRA.POLAR>
0

>  <SCORE.INTRA.POLAR.0>
0

>  <SCORE.INTRA.REPUL>
0

>  <SCORE.INTRA.REPUL.0>
0

>  <SCORE.INTRA.SOLV>
-0.000579805

>  <SCORE.INTRA.SOLV.lig_0>
-46.9527

>  <SCORE.INTRA.VDW>
-0.00365535

>  <SCORE.INTRA.VDW.0>
-0.177978

>  <SCORE.INTRA.norm>
-0.000556125

>  <SCORE.RESTR>
0

>  <SCORE.RESTR.CAVITY>
0

>  <SCORE.RESTR.norm>
0

>  <SCORE.SYSTEM>
0

>  <SCORE.SYSTEM.CONST>
0

>  <SCORE.SYSTEM.DIHEDRAL>
0

>  <SCORE.SYSTEM.SOLV>
0

>  <SCORE.SYSTEM.norm>
0

>  <SCORE.heavy>
13

>  <SCORE.norm>
-1.31532

>  <RMSD>
4.862

$$$$
ligand
 OpenBabel02271912143D
libRbt.so/2013.1/901 2013/11/27
 13 14  0  0  0  0  0  0  0  0999 V2000
   37.0956   32.8594   26.8802 N   0  0  0  0  0  0  0  0  0  0  0  0
   37.8962   33.9947   26.6575 C   0  0  0  0  0  0  0  0  0  0  0  0
   38.9530   34.1912   27.5364 N   0  0  0  0  0  0  0  0  0  0  0  0
   37.7042   34.9191   25.6858 N   0  0  0  0  0  0  0  0  0  0  0  0
   36.5986   34.6229   24.8943 C   0  0  0  0  0  0  0  0  0  0  0  0
   35.7569   33.5123   25.0307 C   0  0  0  0  0  0  0  0  0  0  0  0
   35.9708   32.5704   26.0477 C   0  0  0  0  0  0  0  0  0  0  0  0
   35.3019   31.5744   26.2805 O   0  0  0  0  0  0  0  0  0  0  0  0
   34.7536   33.5719   24.0364 C   0  0  0  0  0  0  0  0  0  0  0  0
   35.0018   34.7188   23.2984 C   0  0  0  0  0  0  0  0  0  0  0  0
   36.1460   35.3712   23.8231 N   0  0  0  0  0  0  0  0  0  0  0  0
   33.6652   32.5661   23.9002 C   0  0  0  0  0  0  0  0  0  0  0  0
   32.9314   32.7548   22.6390 N   0  0  0  0  0  0  0  0  0  0  0  0
  1  2  1  0  0  0  0
  1  7  1  0  0  0  0
  2  3  1  0  0  0  0
  2  4  2  0  0  0  0
  4  5  1  0  0  0  0
  5  6  2  0  0  0  0
  5 11  1  0  0  0  0
  6  7  1  0  0  0  0
  6  9  1  0  0  0  0
  7  8  2  0  0  0  0
  9 10  2  0  0  0  0
  9 12  1  0  0  0  0
 10 11  1  0  0  0  0
 12 13  1  0  0  0  0
M  END
>  <CHROM.1>
-169.55508913,35.97361842,33.59506092,25.15426224,0.30191229,0.64143948,2.42832171

>  <Name>
ligand

>  <RI>
0

>  <Rbt.Current_Directory>
/home/itssahil/PROJECTS/Mol_Feturizer/Test_systems_manuscript/rnas/3q50

>  <Rbt.Executable>
rbdock ($Id: //depot/dev/client3/rdock/2013.1/src/exe/rbdock.cxx#4 $)

>  <Rbt.Library>
libRbt.so (2013.1, Build901 2013/11/27)

>  <Rbt.Parameter_File>
/export/apps/rDock/src/rDock_2013.1_src/data/scripts/dock_solv.prm

>  <Rbt.Receptor>
prm/pocket_docking_8.prm

>  <SCORE>
-17.0859

>  <SCORE.INTER>
-17.0815

>  <SCORE.INTER.CONST>
1

>  <SCORE.INTER.POLAR>
0

>  <SCORE.INTER.ROT>
1

>  <SCORE.INTER.SOLV>
16.6187

>  <SCORE.INTER.VDW>
-21.1939

>  <SCORE.INTER.norm>
-1.31396

>  <SCORE.INTRA>
-0.00438057

>  <SCORE.INTRA.DIHEDRAL>
-0.00410189

>  <SCORE.INTRA.DIHEDRAL.0>
1.65305

>  <SCORE.INTRA.POLAR>
0

>  <SCORE.INTRA.POLAR.0>
0

>  <SCORE.INTRA.REPUL>
0

>  <SCORE.INTRA.REPUL.0>
0

>  <SCORE.INTRA.SOLV>
-0.00034941

>  <SCORE.INTRA.SOLV.lig_0>
-46.9527

>  <SCORE.INTRA.VDW>
-0.00215492

>  <SCORE.INTRA.VDW.0>
-0.177978

>  <SCORE.INTRA.norm>
-0.000336967

>  <SCORE.RESTR>
0

>  <SCORE.RESTR.CAVITY>
0

>  <SCORE.RESTR.norm>
0

>  <SCORE.SYSTEM>
0

>  <SCORE.SYSTEM.CONST>
0

>  <SCORE.SYSTEM.DIHEDRAL>
0

>  <SCORE.SYSTEM.SOLV>
0

>  <SCORE.SYSTEM.norm>
0

>  <SCORE.heavy>
13

>  <SCORE.norm>
-1.3143

>  <RMSD>
4.862

$$$$
ligand
 OpenBabel02271912143D
libRbt.so/2013.1/901 2013/11/27
 13 14  0  0  0  0  0  0  0  0999 V2000
   37.1443   32.8369   26.8751 N   0  0  0  0  0  0  0  0  0  0  0  0
   37.9251   33.9891   26.6700 C   0  0  0  0  0  0  0  0  0  0  0  0
   38.9889   34.1814   27.5414 N   0  0  0  0  0  0  0  0  0  0  0  0
   37.7082   34.9326   25.7221 N   0  0  0  0  0  0  0  0  0  0  0  0
   36.5982   34.6379   24.9364 C   0  0  0  0  0  0  0  0  0  0  0  0
   35.7748   33.5117   25.0563 C   0  0  0  0  0  0  0  0  0  0  0  0
   36.0145   32.5501   26.0487 C   0  0  0  0  0  0  0  0  0  0  0  0
   35.3632   31.5388   26.2659 O   0  0  0  0  0  0  0  0  0  0  0  0
   34.7594   33.5789   24.0749 C   0  0  0  0  0  0  0  0  0  0  0  0
   34.9819   34.7462   23.3610 C   0  0  0  0  0  0  0  0  0  0  0  0
   36.1221   35.4037   23.8879 N   0  0  0  0  0  0  0  0  0  0  0  0
   33.6847   32.5601   23.9275 C   0  0  0  0  0  0  0  0  0  0  0  0
   32.9722   32.7300   22.6516 N   0  0  0  0  0  0  0  0  0  0  0  0
  1  2  1  0  0  0  0
  1  7  1  0  0  0  0
  2  3  1  0  0  0  0
  2  4  2  0  0  0  0
  4  5  1  0  0  0  0
  5  6  2  0  0  0  0
  5 11  1  0  0  0  0
  6  7  1  0  0  0  0
  6  9  1  0  0  0  0
  7  8  2  0  0  0  0
  9 10  2  0  0  0  0
  9 12  1  0  0  0  0
 10 11  1  0  0  0  0
 12 13  1  0  0  0  0
M  END
>  <CHROM.1>
-167.06147761,35.99479039,33.59194470,25.17710194,0.27773216,0.64665587,2.46489113

>  <Name>
ligand

>  <RI>
0

>  <Rbt.Current_Directory>
/home/itssahil/PROJECTS/Mol_Feturizer/Test_systems_manuscript/rnas/3q50

>  <Rbt.Executable>
rbdock ($Id: //depot/dev/client3/rdock/2013.1/src/exe/rbdock.cxx#4 $)

>  <Rbt.Library>
libRbt.so (2013.1, Build901 2013/11/27)

>  <Rbt.Parameter_File>
/export/apps/rDock/src/rDock_2013.1_src/data/scripts/dock_solv.prm

>  <Rbt.Receptor>
prm/pocket_docking_5.prm

>  <SCORE>
-17.0672

>  <SCORE.INTER>
-17.0557

>  <SCORE.INTER.CONST>
1

>  <SCORE.INTER.POLAR>
0

>  <SCORE.INTER.ROT>
1

>  <SCORE.INTER.SOLV>
16.5048

>  <SCORE.INTER.VDW>
-21.1387

>  <SCORE.INTER.norm>
-1.31198

>  <SCORE.INTRA>
-0.0115051

>  <SCORE.INTRA.DIHEDRAL>
-0.0100006

>  <SCORE.INTRA.DIHEDRAL.0>
1.65305

>  <SCORE.INTRA.POLAR>
0

>  <SCORE.INTRA.POLAR.0>
0

>  <SCORE.INTRA.REPUL>
0

>  <SCORE.INTRA.REPUL.0>
0

>  <SCORE.INTRA.SOLV>
-0.000930574

>  <SCORE.INTRA.SOLV.lig_0>
-46.9527

>  <SCORE.INTRA.VDW>
-0.00603953

>  <SCORE.INTRA.VDW.0>
-0.177978

>  <SCORE.INTRA.norm>
-0.000885008

>  <SCORE.RESTR>
0

>  <SCORE.RESTR.CAVITY>
0

>  <SCORE.RESTR.norm>
0

>  <SCORE.SYSTEM>
0

>  <SCORE.SYSTEM.CONST>
0

>  <SCORE.SYSTEM.DIHEDRAL>
0

>  <SCORE.SYSTEM.SOLV>
0

>  <SCORE.SYSTEM.norm>
0

>  <SCORE.heavy>
13

>  <SCORE.norm>
-1.31286

>  <RMSD>
4.863

$$$$
ligand
 OpenBabel02271912143D
libRbt.so/2013.1/901 2013/11/27
 13 14  0  0  0  0  0  0  0  0999 V2000
   37.1435   32.8105   26.8810 N   0  0  0  0  0  0  0  0  0  0  0  0
   37.9289   33.9599   26.6779 C   0  0  0  0  0  0  0  0  0  0  0  0
   38.9946   34.1455   27.5485 N   0  0  0  0  0  0  0  0  0  0  0  0
   37.7148   34.9068   25.7328 N   0  0  0  0  0  0  0  0  0  0  0  0
   36.6025   34.6189   24.9477 C   0  0  0  0  0  0  0  0  0  0  0  0
   35.7746   33.4958   25.0657 C   0  0  0  0  0  0  0  0  0  0  0  0
   36.0115   32.5306   26.0553 C   0  0  0  0  0  0  0  0  0  0  0  0
   35.3563   31.5215   26.2706 O   0  0  0  0  0  0  0  0  0  0  0  0
   34.7583   33.5698   24.0857 C   0  0  0  0  0  0  0  0  0  0  0  0
   34.9847   34.7381   23.3746 C   0  0  0  0  0  0  0  0  0  0  0  0
   36.1284   35.3894   23.9018 N   0  0  0  0  0  0  0  0  0  0  0  0
   33.6791   32.5559   23.9370 C   0  0  0  0  0  0  0  0  0  0  0  0
   32.9662   32.7316   22.6621 N   0  0  0  0  0  0  0  0  0  0  0  0
  1  2  1  0  0  0  0
  1  7  1  0  0  0  0
  2  3  1  0  0  0  0
  2  4  2  0  0  0  0
  4  5  1  0  0  0  0
  5  6  2  0  0  0  0
  5 11  1  0  0  0  0
  6  7  1  0  0  0  0
  6  9  1  0  0  0  0
  7  8  2  0  0  0  0
  9 10  2  0  0  0  0
  9 12  1  0  0  0  0
 10 11  1  0  0  0  0
 12 13  1  0  0  0  0
M  END
>  <CHROM.1>
-167.02663561,35.99510864,33.57477897,25.18639657,0.28083552,0.64311221,2.46562605

>  <Name>
ligand

>  <RI>
0

>  <Rbt.Current_Directory>
/home/itssahil/PROJECTS/Mol_Feturizer/Test_systems_manuscript/rnas/3q50

>  <Rbt.Executable>
rbdock ($Id: //depot/dev/client3/rdock/2013.1/src/exe/rbdock.cxx#4 $)

>  <Rbt.Library>
libRbt.so (2013.1, Build901 2013/11/27)

>  <Rbt.Parameter_File>
/export/apps/rDock/src/rDock_2013.1_src/data/scripts/dock_solv.prm

>  <Rbt.Receptor>
prm/pocket_docking_6.prm

>  <SCORE>
-17.0934

>  <SCORE.INTER>
-17.0818

>  <SCORE.INTER.CONST>
1

>  <SCORE.INTER.POLAR>
0

>  <SCORE.INTER.ROT>
1

>  <SCORE.INTER.SOLV>
16.4945

>  <SCORE.INTER.VDW>
-21.1527

>  <SCORE.INTER.norm>
-1.31398

>  <SCORE.INTRA>
-0.0116072

>  <SCORE.INTRA.DIHEDRAL>
-0.0100788

>  <SCORE.INTRA.DIHEDRAL.0>
1.65305

>  <SCORE.INTRA.POLAR>
0

>  <SCORE.INTRA.POLAR.0>
0

>  <SCORE.INTRA.REPUL>
0

>  <SCORE.INTRA.REPUL.0>
0

>  <SCORE.INTRA.SOLV>
-0.000939028

>  <SCORE.INTRA.SOLV.lig_0>
-46.9527

>  <SCORE.INTRA.VDW>
-0.00609831

>  <SCORE.INTRA.VDW.0>
-0.177978

>  <SCORE.INTRA.norm>
-0.000892862

>  <SCORE.RESTR>
0

>  <SCORE.RESTR.CAVITY>
0

>  <SCORE.RESTR.norm>
0

>  <SCORE.SYSTEM>
0

>  <SCORE.SYSTEM.CONST>
0

>  <SCORE.SYSTEM.DIHEDRAL>
0

>  <SCORE.SYSTEM.SOLV>
0

>  <SCORE.SYSTEM.norm>
0

>  <SCORE.heavy>
13

>  <SCORE.norm>
-1.31487

>  <RMSD>
4.863

$$$$
ligand
 OpenBabel02271912143D
libRbt.so/2013.1/901 2013/11/27
 13 14  0  0  0  0  0  0  0  0999 V2000
   37.1350   32.8159   26.8769 N   0  0  0  0  0  0  0  0  0  0  0  0
   37.9176   33.9669   26.6718 C   0  0  0  0  0  0  0  0  0  0  0  0
   38.9791   34.1598   27.5460 N   0  0  0  0  0  0  0  0  0  0  0  0
   37.7045   34.9088   25.7215 N   0  0  0  0  0  0  0  0  0  0  0  0
   36.5964   34.6137   24.9330 C   0  0  0  0  0  0  0  0  0  0  0  0
   35.7716   33.4885   25.0527 C   0  0  0  0  0  0  0  0  0  0  0  0
   36.0074   32.5286   26.0477 C   0  0  0  0  0  0  0  0  0  0  0  0
   35.3545   31.5184   26.2649 O   0  0  0  0  0  0  0  0  0  0  0  0
   34.7591   33.5548   24.0682 C   0  0  0  0  0  0  0  0  0  0  0  0
   34.9849   34.7205   23.3527 C   0  0  0  0  0  0  0  0  0  0  0  0
   36.1242   35.3779   23.8817 N   0  0  0  0  0  0  0  0  0  0  0  0
   33.6838   32.5368   23.9196 C   0  0  0  0  0  0  0  0  0  0  0  0
   32.8809   32.7940   22.7140 N   0  0  0  0  0  0  0  0  0  0  0  0
  1  2  1  0  0  0  0
  1  7  1  0  0  0  0
  2  3  1  0  0  0  0
  2  4  2  0  0  0  0
  4  5  1  0  0  0  0
  5  6  2  0  0  0  0
  5 11  1  0  0  0  0
  6  7  1  0  0  0  0
  6  9  1  0  0  0  0
  7  8  2  0  0  0  0
  9 10  2  0  0  0  0
  9 12  1  0  0  0  0
 10 11  1  0  0  0  0
 12 13  1  0  0  0  0
M  END
>  <CHROM.1>
-173.26371701,35.98359106,33.57602658,25.17993787,0.28217793,0.63776481,2.46270682

>  <Name>
ligand

>  <RI>
0

>  <Rbt.Current_Directory>
/home/itssahil/PROJECTS/Mol_Feturizer/Test_systems_manuscript/rnas/3q50

>  <Rbt.Executable>
rbdock ($Id: //depot/dev/client3/rdock/2013.1/src/exe/rbdock.cxx#4 $)

>  <Rbt.Library>
libRbt.so (2013.1, Build901 2013/11/27)

>  <Rbt.Parameter_File>
/export/apps/rDock/src/rDock_2013.1_src/data/scripts/dock_solv.prm

>  <Rbt.Receptor>
prm/pocket_docking_3.prm

>  <SCORE>
-17.1011

>  <SCORE.INTER>
-17.1065

>  <SCORE.INTER.CONST>
1

>  <SCORE.INTER.POLAR>
0

>  <SCORE.INTER.ROT>
1

>  <SCORE.INTER.SOLV>
16.6071

>  <SCORE.INTER.VDW>
-21.2067

>  <SCORE.INTER.norm>
-1.31588

>  <SCORE.INTRA>
0.00537261

>  <SCORE.INTRA.DIHEDRAL>
0.00561611

>  <SCORE.INTRA.DIHEDRAL.0>
1.65305

>  <SCORE.INTRA.POLAR>
0

>  <SCORE.INTRA.POLAR.0>
0

>  <SCORE.INTRA.REPUL>
0

>  <SCORE.INTRA.REPUL.0>
0

>  <SCORE.INTRA.SOLV>
0.000421347

>  <SCORE.INTRA.SOLV.lig_0>
-46.9527

>  <SCORE.INTRA.VDW>
0.00235388

>  <SCORE.INTRA.VDW.0>
-0.177978

>  <SCORE.INTRA.norm>
0.000413278

>  <SCORE.RESTR>
0

>  <SCORE.RESTR.CAVITY>
0

>  <SCORE.RESTR.norm>
0

>  <SCORE.SYSTEM>
0

>  <SCORE.SYSTEM.CONST>
0

>  <SCORE.SYSTEM.DIHEDRAL>
0

>  <SCORE.SYSTEM.SOLV>
0

>  <SCORE.SYSTEM.norm>
0

>  <SCORE.heavy>
13

>  <SCORE.norm>
-1.31547

>  <RMSD>
4.864

$$$$
ligand
 OpenBabel02271912143D
libRbt.so/2013.1/901 2013/11/27
 13 14  0  0  0  0  0  0  0  0999 V2000
   37.1340   32.7911   26.8396 N   0  0  0  0  0  0  0  0  0  0  0  0
   37.9364   33.9214   26.5994 C   0  0  0  0  0  0  0  0  0  0  0  0
   39.0158   34.1093   27.4523 N   0  0  0  0  0  0  0  0  0  0  0  0
   37.7269   34.8490   25.6342 N   0  0  0  0  0  0  0  0  0  0  0  0
   36.6002   34.5616   24.8696 C   0  0  0  0  0  0  0  0  0  0  0  0
   35.7546   33.4564   25.0247 C   0  0  0  0  0  0  0  0  0  0  0  0
   35.9872   32.5112   26.0345 C   0  0  0  0  0  0  0  0  0  0  0  0
   35.3175   31.5191   26.2820 O   0  0  0  0  0  0  0  0  0  0  0  0
   34.7277   33.5245   24.0555 C   0  0  0  0  0  0  0  0  0  0  0  0
   34.9653   34.6712   23.3136 C   0  0  0  0  0  0  0  0  0  0  0  0
   36.1264   35.3149   23.8111 N   0  0  0  0  0  0  0  0  0  0  0  0
   33.6296   32.5263   23.9443 C   0  0  0  0  0  0  0  0  0  0  0  0
   32.8914   32.6967   22.6831 N   0  0  0  0  0  0  0  0  0  0  0  0
  1  2  1  0  0  0  0
  1  7  1  0  0  0  0
  2  3  1  0  0  0  0
  2  4  2  0  0  0  0
  4  5  1  0  0  0  0
  5  6  2  0  0  0  0
  5 11  1  0  0  0  0
  6  7  1  0  0  0  0
  6  9  1  0  0  0  0
  7  8  2  0  0  0  0
  9 10  2  0  0  0  0
  9 12  1  0  0  0  0
 10 11  1  0  0  0  0
 12 13  1  0  0  0  0
M  END
>  <CHROM.1>
-167.87169695,35.97691634,33.53537899,25.14156190,0.28800685,0.62129622,2.43761628

>  <Name>
ligand

>  <RI>
0

>  <Rbt.Current_Directory>
/home/itssahil/PROJECTS/Mol_Feturizer/Test_systems_manuscript/rnas/3q50

>  <Rbt.Executable>
rbdock ($Id: //depot/dev/client3/rdock/2013.1/src/exe/rbdock.cxx#4 $)

>  <Rbt.Library>
libRbt.so (2013.1, Build901 2013/11/27)

>  <Rbt.Parameter_File>
/export/apps/rDock/src/rDock_2013.1_src/data/scripts/dock_solv.prm

>  <Rbt.Receptor>
prm/pocket_docking_5.prm

>  <SCORE>
-17.097

>  <SCORE.INTER>
-17.0879

>  <SCORE.INTER.CONST>
1

>  <SCORE.INTER.POLAR>
0

>  <SCORE.INTER.ROT>
1

>  <SCORE.INTER.SOLV>
16.5441

>  <SCORE.INTER.VDW>
-21.1733

>  <SCORE.INTER.norm>
-1.31445

>  <SCORE.INTRA>
-0.00914923

>  <SCORE.INTRA.DIHEDRAL>
-0.00814831

>  <SCORE.INTRA.DIHEDRAL.0>
1.65305

>  <SCORE.INTRA.POLAR>
0

>  <SCORE.INTRA.POLAR.0>
0

>  <SCORE.INTRA.REPUL>
0

>  <SCORE.INTRA.REPUL.0>
0

>  <SCORE.INTRA.SOLV>
-0.000736526

>  <SCORE.INTRA.SOLV.lig_0>
-46.9527

>  <SCORE.INTRA.VDW>
-0.00470681

>  <SCORE.INTRA.VDW.0>
-0.177978

>  <SCORE.INTRA.norm>
-0.000703787

>  <SCORE.RESTR>
0

>  <SCORE.RESTR.CAVITY>
0

>  <SCORE.RESTR.norm>
0

>  <SCORE.SYSTEM>
0

>  <SCORE.SYSTEM.CONST>
0

>  <SCORE.SYSTEM.DIHEDRAL>
0

>  <SCORE.SYSTEM.SOLV>
0

>  <SCORE.SYSTEM.norm>
0

>  <SCORE.heavy>
13

>  <SCORE.norm>
-1.31516

>  <RMSD>
4.864

$$$$
ligand
 OpenBabel02271912143D
libRbt.so/2013.1/901 2013/11/27
 13 14  0  0  0  0  0  0  0  0999 V2000
   37.0770   32.9194   26.8680 N   0  0  0  0  0  0  0  0  0  0  0  0
   37.8980   34.0310   26.6041 C   0  0  0  0  0  0  0  0  0  0  0  0
   38.9573   34.2416   27.4767 N   0  0  0  0  0  0  0  0  0  0  0  0
   37.7236   34.9214   25.5979 N   0  0  0  0  0  0  0  0  0  0  0  0
   36.6136   34.6155   24.8164 C   0  0  0  0  0  0  0  0  0  0  0  0
   35.7520   33.5259   24.9931 C   0  0  0  0  0  0  0  0  0  0  0  0
   35.9481   32.6194   26.0452 C   0  0  0  0  0  0  0  0  0  0  0  0
   35.2612   31.6449   26.3143 O   0  0  0  0  0  0  0  0  0  0  0  0
   34.7509   33.5659   23.9956 C   0  0  0  0  0  0  0  0  0  0  0  0
   35.0202   34.6797   23.2154 C   0  0  0  0  0  0  0  0  0  0  0  0
   36.1754   35.3308   23.7170 N   0  0  0  0  0  0  0  0  0  0  0  0
   33.6448   32.5753   23.8956 C   0  0  0  0  0  0  0  0  0  0  0  0
   32.8311   32.8171   22.6939 N   0  0  0  0  0  0  0  0  0  0  0  0
  1  2  1  0  0  0  0
  1  7  1  0  0  0  0
  2  3  1  0  0  0  0
  2  4  2  0  0  0  0
  4  5  1  0  0  0  0
  5  6  2  0  0  0  0
  5 11  1  0  0  0  0
  6  7  1  0  0  0  0
  6  9  1  0  0  0  0
  7  8  2  0  0  0  0
  9 10  2  0  0  0  0
  9 12  1  0  0  0  0
 10 11  1  0  0  0  0
 12 13  1  0  0  0  0
M  END
>  <CHROM.1>
-175.34982091,35.96314137,33.61655672,25.11929161,0.31978921,0.62053028,2.38243710

>  <Name>
ligand

>  <RI>
0

>  <Rbt.Current_Directory>
/home/itssahil/PROJECTS/Mol_Feturizer/Test_systems_manuscript/rnas/3q50

>  <Rbt.Executable>
rbdock ($Id: //depot/dev/client3/rdock/2013.1/src/exe/rbdock.cxx#4 $)

>  <Rbt.Library>
libRbt.so (2013.1, Build901 2013/11/27)

>  <Rbt.Parameter_File>
/export/apps/rDock/src/rDock_2013.1_src/data/scripts/dock_solv.prm

>  <Rbt.Receptor>
prm/pocket_docking_8.prm

>  <SCORE>
-17.0165

>  <SCORE.INTER>
-17.0268

>  <SCORE.INTER.CONST>
1

>  <SCORE.INTER.POLAR>
0

>  <SCORE.INTER.ROT>
1

>  <SCORE.INTER.SOLV>
16.7084

>  <SCORE.INTER.VDW>
-21.1873

>  <SCORE.INTER.norm>
-1.30975

>  <SCORE.INTRA>
0.0102982

>  <SCORE.INTRA.DIHEDRAL>
0.0114597

>  <SCORE.INTRA.DIHEDRAL.0>
1.65305

>  <SCORE.INTRA.POLAR>
0

>  <SCORE.INTRA.POLAR.0>
0

>  <SCORE.INTRA.REPUL>
0

>  <SCORE.INTRA.REPUL.0>
0

>  <SCORE.INTRA.SOLV>
0.000801825

>  <SCORE.INTRA.SOLV.lig_0>
-46.9527

>  <SCORE.INTRA.VDW>
0.00416742

>  <SCORE.INTRA.VDW.0>
-0.177978

>  <SCORE.INTRA.norm>
0.00079217

>  <SCORE.RESTR>
0

>  <SCORE.RESTR.CAVITY>
0

>  <SCORE.RESTR.norm>
0

>  <SCORE.SYSTEM>
0

>  <SCORE.SYSTEM.CONST>
0

>  <SCORE.SYSTEM.DIHEDRAL>
0

>  <SCORE.SYSTEM.SOLV>
0

>  <SCORE.SYSTEM.norm>
0

>  <SCORE.heavy>
13

>  <SCORE.norm>
-1.30896

>  <RMSD>
4.864

$$$$
ligand
 OpenBabel02271912143D
libRbt.so/2013.1/901 2013/11/27
 13 14  0  0  0  0  0  0  0  0999 V2000
   37.1379   32.8127   26.8703 N   0  0  0  0  0  0  0  0  0  0  0  0
   37.9298   33.9555   26.6551 C   0  0  0  0  0  0  0  0  0  0  0  0
   38.9948   34.1458   27.5254 N   0  0  0  0  0  0  0  0  0  0  0  0
   37.7224   34.8922   25.6983 N   0  0  0  0  0  0  0  0  0  0  0  0
   36.6102   34.6007   24.9145 C   0  0  0  0  0  0  0  0  0  0  0  0
   35.7761   33.4835   25.0442 C   0  0  0  0  0  0  0  0  0  0  0  0
   36.0060   32.5289   26.0457 C   0  0  0  0  0  0  0  0  0  0  0  0
   35.3451   31.5259   26.2717 O   0  0  0  0  0  0  0  0  0  0  0  0
   34.7621   33.5511   24.0614 C   0  0  0  0  0  0  0  0  0  0  0  0
   34.9960   34.7096   23.3370 C   0  0  0  0  0  0  0  0  0  0  0  0
   36.1421   35.3611   23.8586 N   0  0  0  0  0  0  0  0  0  0  0  0
   33.6779   32.5412   23.9227 C   0  0  0  0  0  0  0  0  0  0  0  0
   32.9461   32.7272   22.6600 N   0  0  0  0  0  0  0  0  0  0  0  0
  1  2  1  0  0  0  0
  1  7  1  0  0  0  0
  2  3  1  0  0  0  0
  2  4  2  0  0  0  0
  4  5  1  0  0  0  0
  5  6  2  0  0  0  0
  5 11  1  0  0  0  0
  6  7  1  0  0  0  0
  6  9  1  0  0  0  0
  7  8  2  0  0  0  0
  9 10  2  0  0  0  0
  9 12  1  0  0  0  0
 10 11  1  0  0  0  0
 12 13  1  0  0  0  0
M  END
>  <CHROM.1>
-168.48154873,35.99500261,33.56448187,25.16569715,0.28783468,0.63884134,2.45015836

>  <Name>
ligand

>  <RI>
0

>  <Rbt.Current_Directory>
/home/itssahil/PROJECTS/Mol_Feturizer/Test_systems_manuscript/rnas/3q50

>  <Rbt.Executable>
rbdock ($Id: //depot/dev/client3/rdock/2013.1/src/exe/rbdock.cxx#4 $)

>  <Rbt.Library>
libRbt.so (2013.1, Build901 2013/11/27)

>  <Rbt.Parameter_File>
/export/apps/rDock/src/rDock_2013.1_src/data/scripts/dock_solv.prm

>  <Rbt.Receptor>
prm/pocket_docking_8.prm

>  <SCORE>
-17.093

>  <SCORE.INTER>
-17.0856

>  <SCORE.INTER.CONST>
1

>  <SCORE.INTER.POLAR>
0

>  <SCORE.INTER.ROT>
1

>  <SCORE.INTER.SOLV>
16.4984

>  <SCORE.INTER.VDW>
-21.1565

>  <SCORE.INTER.norm>
-1.31427

>  <SCORE.INTRA>
-0.00740083

>  <SCORE.INTRA.DIHEDRAL>
-0.00671227

>  <SCORE.INTRA.DIHEDRAL.0>
1.65305

>  <SCORE.INTRA.POLAR>
0

>  <SCORE.INTRA.POLAR.0>
0

>  <SCORE.INTRA.REPUL>
0

>  <SCORE.INTRA.REPUL.0>
0

>  <SCORE.INTRA.SOLV>
-0.000593733

>  <SCORE.INTRA.SOLV.lig_0>
-46.9527

>  <SCORE.INTRA.VDW>
-0.00374783

>  <SCORE.INTRA.VDW.0>
-0.177978

>  <SCORE.INTRA.norm>
-0.000569295

>  <SCORE.RESTR>
0

>  <SCORE.RESTR.CAVITY>
0

>  <SCORE.RESTR.norm>
0

>  <SCORE.SYSTEM>
0

>  <SCORE.SYSTEM.CONST>
0

>  <SCORE.SYSTEM.DIHEDRAL>
0

>  <SCORE.SYSTEM.SOLV>
0

>  <SCORE.SYSTEM.norm>
0

>  <SCORE.heavy>
13

>  <SCORE.norm>
-1.31484

>  <RMSD>
4.864

$$$$
ligand
 OpenBabel02271912143D
libRbt.so/2013.1/901 2013/11/27
 13 14  0  0  0  0  0  0  0  0999 V2000
   37.1608   32.7982   26.8421 N   0  0  0  0  0  0  0  0  0  0  0  0
   37.9618   33.9309   26.6080 C   0  0  0  0  0  0  0  0  0  0  0  0
   39.0420   34.1145   27.4609 N   0  0  0  0  0  0  0  0  0  0  0  0
   37.7501   34.8642   25.6489 N   0  0  0  0  0  0  0  0  0  0  0  0
   36.6229   34.5805   24.8839 C   0  0  0  0  0  0  0  0  0  0  0  0
   35.7787   33.4733   25.0330 C   0  0  0  0  0  0  0  0  0  0  0  0
   36.0134   32.5221   26.0366 C   0  0  0  0  0  0  0  0  0  0  0  0
   35.3450   31.5278   26.2787 O   0  0  0  0  0  0  0  0  0  0  0  0
   34.7505   33.5465   24.0654 C   0  0  0  0  0  0  0  0  0  0  0  0
   34.9861   34.6980   23.3305 C   0  0  0  0  0  0  0  0  0  0  0  0
   36.1470   35.3399   23.8307 N   0  0  0  0  0  0  0  0  0  0  0  0
   33.6533   32.5478   23.9493 C   0  0  0  0  0  0  0  0  0  0  0  0
   32.9137   32.7250   22.6899 N   0  0  0  0  0  0  0  0  0  0  0  0
  1  2  1  0  0  0  0
  1  7  1  0  0  0  0
  2  3  1  0  0  0  0
  2  4  2  0  0  0  0
  4  5  1  0  0  0  0
  5  6  2  0  0  0  0
  5 11  1  0  0  0  0
  6  7  1  0  0  0  0
  6  9  1  0  0  0  0
  7  8  2  0  0  0  0
  9 10  2  0  0  0  0
  9 12  1  0  0  0  0
 10 11  1  0  0  0  0
 12 13  1  0  0  0  0
M  END
>  <CHROM.1>
-167.85216918,36.00103618,33.55183553,25.15009908,0.28607360,0.62110723,2.44499131

>  <Name>
ligand

>  <RI>
0

>  <Rbt.Current_Directory>
/home/itssahil/PROJECTS/Mol_Feturizer/Test_systems_manuscript/rnas/3q50

>  <Rbt.Executable>
rbdock ($Id: //depot/dev/client3/rdock/2013.1/src/exe/rbdock.cxx#4 $)

>  <Rbt.Library>
libRbt.so (2013.1, Build901 2013/11/27)

>  <Rbt.Parameter_File>
/export/apps/rDock/src/rDock_2013.1_src/data/scripts/dock_solv.prm

>  <Rbt.Receptor>
prm/pocket_docking_2.prm

>  <SCORE>
-17.0992

>  <SCORE.INTER>
-17.09

>  <SCORE.INTER.CONST>
1

>  <SCORE.INTER.POLAR>
0

>  <SCORE.INTER.ROT>
1

>  <SCORE.INTER.SOLV>
16.424

>  <SCORE.INTER.VDW>
-21.1347

>  <SCORE.INTER.norm>
-1.31461

>  <SCORE.INTRA>
-0.00920558

>  <SCORE.INTRA.DIHEDRAL>
-0.00819371

>  <SCORE.INTRA.DIHEDRAL.0>
1.65305

>  <SCORE.INTRA.POLAR>
0

>  <SCORE.INTRA.POLAR.0>
0

>  <SCORE.INTRA.REPUL>
0

>  <SCORE.INTRA.REPUL.0>
0

>  <SCORE.INTRA.SOLV>
-0.000741145

>  <SCORE.INTRA.SOLV.lig_0>
-46.9527

>  <SCORE.INTRA.VDW>
-0.00473815

>  <SCORE.INTRA.VDW.0>
-0.177978

>  <SCORE.INTRA.norm>
-0.000708121

>  <SCORE.RESTR>
0

>  <SCORE.RESTR.CAVITY>
0

>  <SCORE.RESTR.norm>
0

>  <SCORE.SYSTEM>
0

>  <SCORE.SYSTEM.CONST>
0

>  <SCORE.SYSTEM.DIHEDRAL>
0

>  <SCORE.SYSTEM.SOLV>
0

>  <SCORE.SYSTEM.norm>
0

>  <SCORE.heavy>
13

>  <SCORE.norm>
-1.31532

>  <RMSD>
4.865

$$$$
ligand
 OpenBabel02271912143D
libRbt.so/2013.1/901 2013/11/27
 13 14  0  0  0  0  0  0  0  0999 V2000
   37.1519   32.7966   26.8370 N   0  0  0  0  0  0  0  0  0  0  0  0
   37.9443   33.9358   26.6060 C   0  0  0  0  0  0  0  0  0  0  0  0
   39.0217   34.1265   27.4610 N   0  0  0  0  0  0  0  0  0  0  0  0
   37.7270   34.8690   25.6481 N   0  0  0  0  0  0  0  0  0  0  0  0
   36.6032   34.5778   24.8807 C   0  0  0  0  0  0  0  0  0  0  0  0
   35.7674   33.4639   25.0267 C   0  0  0  0  0  0  0  0  0  0  0  0
   36.0079   32.5128   26.0291 C   0  0  0  0  0  0  0  0  0  0  0  0
   35.3470   31.5130   26.2685 O   0  0  0  0  0  0  0  0  0  0  0  0
   34.7403   33.5305   24.0575 C   0  0  0  0  0  0  0  0  0  0  0  0
   34.9681   34.6851   23.3248 C   0  0  0  0  0  0  0  0  0  0  0  0
   36.1232   35.3352   23.8279 N   0  0  0  0  0  0  0  0  0  0  0  0
   33.6512   32.5235   23.9379 C   0  0  0  0  0  0  0  0  0  0  0  0
   32.8367   32.7716   22.7381 N   0  0  0  0  0  0  0  0  0  0  0  0
  1  2  1  0  0  0  0
  1  7  1  0  0  0  0
  2  3  1  0  0  0  0
  2  4  2  0  0  0  0
  4  5  1  0  0  0  0
  5  6  2  0  0  0  0
  5 11  1  0  0  0  0
  6  7  1  0  0  0  0
  6  9  1  0  0  0  0
  7  8  2  0  0  0  0
  9 10  2  0  0  0  0
  9 12  1  0  0  0  0
 10 11  1  0  0  0  0
 12 13  1  0  0  0  0
M  END
>  <CHROM.1>
-172.95001544,35.98283880,33.54996941,25.14914172,0.28092890,0.61869592,2.45159536

>  <Name>
ligand

>  <RI>
0

>  <Rbt.Current_Directory>
/home/itssahil/PROJECTS/Mol_Feturizer/Test_systems_manuscript/rnas/3q50

>  <Rbt.Executable>
rbdock ($Id: //depot/dev/client3/rdock/2013.1/src/exe/rbdock.cxx#4 $)

>  <Rbt.Library>
libRbt.so (2013.1, Build901 2013/11/27)

>  <Rbt.Parameter_File>
/export/apps/rDock/src/rDock_2013.1_src/data/scripts/dock_solv.prm

>  <Rbt.Receptor>
prm/pocket_docking_2.prm

>  <SCORE>
-17.1046

>  <SCORE.INTER>
-17.1092

>  <SCORE.INTER.CONST>
1

>  <SCORE.INTER.POLAR>
0

>  <SCORE.INTER.ROT>
1

>  <SCORE.INTER.SOLV>
16.5611

>  <SCORE.INTER.VDW>
-21.1932

>  <SCORE.INTER.norm>
-1.3161

>  <SCORE.INTRA>
0.00459412

>  <SCORE.INTRA.DIHEDRAL>
0.00475769

>  <SCORE.INTRA.DIHEDRAL.0>
1.65305

>  <SCORE.INTRA.POLAR>
0

>  <SCORE.INTRA.POLAR.0>
0

>  <SCORE.INTRA.REPUL>
0

>  <SCORE.INTRA.REPUL.0>
0

>  <SCORE.INTRA.SOLV>
0.00036074

>  <SCORE.INTRA.SOLV.lig_0>
-46.9527

>  <SCORE.INTRA.VDW>
0.00203491

>  <SCORE.INTRA.VDW.0>
-0.177978

>  <SCORE.INTRA.norm>
0.000353394

>  <SCORE.RESTR>
0

>  <SCORE.RESTR.CAVITY>
0

>  <SCORE.RESTR.norm>
0

>  <SCORE.SYSTEM>
0

>  <SCORE.SYSTEM.CONST>
0

>  <SCORE.SYSTEM.DIHEDRAL>
0

>  <SCORE.SYSTEM.SOLV>
0

>  <SCORE.SYSTEM.norm>
0

>  <SCORE.heavy>
13

>  <SCORE.norm>
-1.31574

>  <RMSD>
4.865

$$$$
ligand
 OpenBabel02271912143D
libRbt.so/2013.1/901 2013/11/27
 13 14  0  0  0  0  0  0  0  0999 V2000
   37.1530   32.7927   26.8316 N   0  0  0  0  0  0  0  0  0  0  0  0
   37.9412   33.9360   26.6059 C   0  0  0  0  0  0  0  0  0  0  0  0
   39.0189   34.1258   27.4606 N   0  0  0  0  0  0  0  0  0  0  0  0
   37.7195   34.8736   25.6533 N   0  0  0  0  0  0  0  0  0  0  0  0
   36.5959   34.5825   24.8856 C   0  0  0  0  0  0  0  0  0  0  0  0
   35.7642   33.4649   25.0265 C   0  0  0  0  0  0  0  0  0  0  0  0
   36.0091   32.5094   26.0236 C   0  0  0  0  0  0  0  0  0  0  0  0
   35.3519   31.5060   26.2583 O   0  0  0  0  0  0  0  0  0  0  0  0
   34.7357   33.5332   24.0589 C   0  0  0  0  0  0  0  0  0  0  0  0
   34.9586   34.6925   23.3322 C   0  0  0  0  0  0  0  0  0  0  0  0
   36.1120   35.3439   23.8375 N   0  0  0  0  0  0  0  0  0  0  0  0
   33.6499   32.5230   23.9352 C   0  0  0  0  0  0  0  0  0  0  0  0
   32.8674   32.7415   22.7086 N   0  0  0  0  0  0  0  0  0  0  0  0
  1  2  1  0  0  0  0
  1  7  1  0  0  0  0
  2  3  1  0  0  0  0
  2  4  2  0  0  0  0
  4  5  1  0  0  0  0
  5  6  2  0  0  0  0
  5 11  1  0  0  0  0
  6  7  1  0  0  0  0
  6  9  1  0  0  0  0
  7  8  2  0  0  0  0
  9 10  2  0  0  0  0
  9 12  1  0  0  0  0
 10 11  1  0  0  0  0
 12 13  1  0  0  0  0
M  END
>  <CHROM.1>
-170.62372471,35.98217894,33.54841607,25.14688236,0.27639787,0.62398886,2.45875802

>  <Name>
ligand

>  <RI>
0

>  <Rbt.Current_Directory>
/home/itssahil/PROJECTS/Mol_Feturizer/Test_systems_manuscript/rnas/3q50

>  <Rbt.Executable>
rbdock ($Id: //depot/dev/client3/rdock/2013.1/src/exe/rbdock.cxx#4 $)

>  <Rbt.Library>
libRbt.so (2013.1, Build901 2013/11/27)

>  <Rbt.Parameter_File>
/export/apps/rDock/src/rDock_2013.1_src/data/scripts/dock_solv.prm

>  <Rbt.Receptor>
prm/pocket_docking_4.prm

>  <SCORE>
-17.1158

>  <SCORE.INTER>
-17.1144

>  <SCORE.INTER.CONST>
1

>  <SCORE.INTER.POLAR>
0

>  <SCORE.INTER.ROT>
1

>  <SCORE.INTER.SOLV>
16.5437

>  <SCORE.INTER.VDW>
-21.1908

>  <SCORE.INTER.norm>
-1.31649

>  <SCORE.INTRA>
-0.00145469

>  <SCORE.INTRA.DIHEDRAL>
-0.00140601

>  <SCORE.INTRA.DIHEDRAL.0>
1.65305

>  <SCORE.INTRA.POLAR>
0

>  <SCORE.INTRA.POLAR.0>
0

>  <SCORE.INTRA.REPUL>
0

>  <SCORE.INTRA.REPUL.0>
0

>  <SCORE.INTRA.SOLV>
-0.00011541

>  <SCORE.INTRA.SOLV.lig_0>
-46.9527

>  <SCORE.INTRA.VDW>
-0.000693982

>  <SCORE.INTRA.VDW.0>
-0.177978

>  <SCORE.INTRA.norm>
-0.000111899

>  <SCORE.RESTR>
0

>  <SCORE.RESTR.CAVITY>
0

>  <SCORE.RESTR.norm>
0

>  <SCORE.SYSTEM>
0

>  <SCORE.SYSTEM.CONST>
0

>  <SCORE.SYSTEM.DIHEDRAL>
0

>  <SCORE.SYSTEM.SOLV>
0

>  <SCORE.SYSTEM.norm>
0

>  <SCORE.heavy>
13

>  <SCORE.norm>
-1.3166

>  <RMSD>
4.865

$$$$
ligand
 OpenBabel02271912143D
libRbt.so/2013.1/901 2013/11/27
 13 14  0  0  0  0  0  0  0  0999 V2000
   37.1353   32.8509   26.8343 N   0  0  0  0  0  0  0  0  0  0  0  0
   37.9085   34.0033   26.6029 C   0  0  0  0  0  0  0  0  0  0  0  0
   38.9794   34.2151   27.4610 N   0  0  0  0  0  0  0  0  0  0  0  0
   37.6782   34.9299   25.6416 N   0  0  0  0  0  0  0  0  0  0  0  0
   36.5624   34.6169   24.8712 C   0  0  0  0  0  0  0  0  0  0  0  0
   35.7457   33.4890   25.0174 C   0  0  0  0  0  0  0  0  0  0  0  0
   35.9994   32.5450   26.0233 C   0  0  0  0  0  0  0  0  0  0  0  0
   35.3552   31.5344   26.2632 O   0  0  0  0  0  0  0  0  0  0  0  0
   34.7210   33.5350   24.0445 C   0  0  0  0  0  0  0  0  0  0  0  0
   34.9310   34.6914   23.3095 C   0  0  0  0  0  0  0  0  0  0  0  0
   36.0728   35.3629   23.8148 N   0  0  0  0  0  0  0  0  0  0  0  0
   33.6500   32.5087   23.9240 C   0  0  0  0  0  0  0  0  0  0  0  0
   32.9806   32.6001   22.6171 N   0  0  0  0  0  0  0  0  0  0  0  0
  1  2  1  0  0  0  0
  1  7  1  0  0  0  0
  2  3  1  0  0  0  0
  2  4  2  0  0  0  0
  4  5  1  0  0  0  0
  5  6  2  0  0  0  0
  5 11  1  0  0  0  0
  6  7  1  0  0  0  0
  6  9  1  0  0  0  0
  7  8  2  0  0  0  0
  9 10  2  0  0  0  0
  9 12  1  0  0  0  0
 10 11  1  0  0  0  0
 12 13  1  0  0  0  0
M  END
>  <CHROM.1>
-163.51020650,35.97096864,33.56782063,25.13197107,0.26426913,0.64846845,2.45491554

>  <Name>
ligand

>  <RI>
0

>  <Rbt.Current_Directory>
/home/itssahil/PROJECTS/Mol_Feturizer/Test_systems_manuscript/rnas/3q50

>  <Rbt.Executable>
rbdock ($Id: //depot/dev/client3/rdock/2013.1/src/exe/rbdock.cxx#4 $)

>  <Rbt.Library>
libRbt.so (2013.1, Build901 2013/11/27)

>  <Rbt.Parameter_File>
/export/apps/rDock/src/rDock_2013.1_src/data/scripts/dock_solv.prm

>  <Rbt.Receptor>
prm/pocket_docking_6.prm

>  <SCORE>
-17.078

>  <SCORE.INTER>
-17.0558

>  <SCORE.INTER.CONST>
1

>  <SCORE.INTER.POLAR>
0

>  <SCORE.INTER.ROT>
1

>  <SCORE.INTER.SOLV>
16.6559

>  <SCORE.INTER.VDW>
-21.1892

>  <SCORE.INTER.norm>
-1.31199

>  <SCORE.INTRA>
-0.0221788

>  <SCORE.INTRA.DIHEDRAL>
-0.017293

>  <SCORE.INTRA.DIHEDRAL.0>
1.65305

>  <SCORE.INTRA.POLAR>
0

>  <SCORE.INTRA.POLAR.0>
0

>  <SCORE.INTRA.REPUL>
0

>  <SCORE.INTRA.REPUL.0>
0

>  <SCORE.INTRA.SOLV>
-0.00183542

>  <SCORE.INTRA.SOLV.lig_0>
-46.9527

>  <SCORE.INTRA.VDW>
-0.0126146

>  <SCORE.INTRA.VDW.0>
-0.177978

>  <SCORE.INTRA.norm>
-0.00170606

>  <SCORE.RESTR>
0

>  <SCORE.RESTR.CAVITY>
0

>  <SCORE.RESTR.norm>
0

>  <SCORE.SYSTEM>
0

>  <SCORE.SYSTEM.CONST>
0

>  <SCORE.SYSTEM.DIHEDRAL>
0

>  <SCORE.SYSTEM.SOLV>
0

>  <SCORE.SYSTEM.norm>
0

>  <SCORE.heavy>
13

>  <SCORE.norm>
-1.31369

>  <RMSD>
4.865

$$$$
ligand
 OpenBabel02271912143D
libRbt.so/2013.1/901 2013/11/27
 13 14  0  0  0  0  0  0  0  0999 V2000
   37.1640   32.8021   26.8319 N   0  0  0  0  0  0  0  0  0  0  0  0
   37.9594   33.9401   26.6048 C   0  0  0  0  0  0  0  0  0  0  0  0
   39.0354   34.1267   27.4624 N   0  0  0  0  0  0  0  0  0  0  0  0
   37.7461   34.8756   25.6483 N   0  0  0  0  0  0  0  0  0  0  0  0
   36.6233   34.5884   24.8781 C   0  0  0  0  0  0  0  0  0  0  0  0
   35.7848   33.4760   25.0201 C   0  0  0  0  0  0  0  0  0  0  0  0
   36.0211   32.5225   26.0211 C   0  0  0  0  0  0  0  0  0  0  0  0
   35.3574   31.5236   26.2572 O   0  0  0  0  0  0  0  0  0  0  0  0
   34.7598   33.5468   24.0489 C   0  0  0  0  0  0  0  0  0  0  0  0
   34.9916   34.7023   23.3190 C   0  0  0  0  0  0  0  0  0  0  0  0
   36.1471   35.3489   23.8258 N   0  0  0  0  0  0  0  0  0  0  0  0
   33.6687   32.5424   23.9251 C   0  0  0  0  0  0  0  0  0  0  0  0
   32.8835   32.7689   22.7017 N   0  0  0  0  0  0  0  0  0  0  0  0
  1  2  1  0  0  0  0
  1  7  1  0  0  0  0
  2  3  1  0  0  0  0
  2  4  2  0  0  0  0
  4  5  1  0  0  0  0
  5  6  2  0  0  0  0
  5 11  1  0  0  0  0
  6  7  1  0  0  0  0
  6  9  1  0  0  0  0
  7  8  2  0  0  0  0
  9 10  2  0  0  0  0
  9 12  1  0  0  0  0
 10 11  1  0  0  0  0
 12 13  1  0  0  0  0
M  END
>  <CHROM.1>
-171.15230451,36.00222790,33.55927543,25.14136496,0.28439652,0.62195844,2.45089900

>  <Name>
ligand

>  <RI>
0

>  <Rbt.Current_Directory>
/home/itssahil/PROJECTS/Mol_Feturizer/Test_systems_manuscript/rnas/3q50

>  <Rbt.Executable>
rbdock ($Id: //depot/dev/client3/rdock/2013.1/src/exe/rbdock.cxx#4 $)

>  <Rbt.Library>
libRbt.so (2013.1, Build901 2013/11/27)

>  <Rbt.Parameter_File>
/export/apps/rDock/src/rDock_2013.1_src/data/scripts/dock_solv.prm

>  <Rbt.Receptor>
prm/pocket_docking_7.prm

>  <SCORE>
-17.0915

>  <SCORE.INTER>
-17.0914

>  <SCORE.INTER.CONST>
1

>  <SCORE.INTER.POLAR>
0

>  <SCORE.INTER.ROT>
1

>  <SCORE.INTER.SOLV>
16.4618

>  <SCORE.INTER.VDW>
-21.1482

>  <SCORE.INTER.norm>
-1.31473

>  <SCORE.INTRA>
-3.99231e-05

>  <SCORE.INTRA.DIHEDRAL>
-3.91963e-05

>  <SCORE.INTRA.DIHEDRAL.0>
1.65305

>  <SCORE.INTRA.POLAR>
0

>  <SCORE.INTRA.POLAR.0>
0

>  <SCORE.INTRA.REPUL>
0

>  <SCORE.INTRA.REPUL.0>
0

>  <SCORE.INTRA.SOLV>
-3.15938e-06

>  <SCORE.INTRA.SOLV.lig_0>
-46.9527

>  <SCORE.INTRA.VDW>
-1.87453e-05

>  <SCORE.INTRA.VDW.0>
-0.177978

>  <SCORE.INTRA.norm>
-3.07101e-06

>  <SCORE.RESTR>
0

>  <SCORE.RESTR.CAVITY>
0

>  <SCORE.RESTR.norm>
0

>  <SCORE.SYSTEM>
0

>  <SCORE.SYSTEM.CONST>
0

>  <SCORE.SYSTEM.DIHEDRAL>
0

>  <SCORE.SYSTEM.SOLV>
0

>  <SCORE.SYSTEM.norm>
0

>  <SCORE.heavy>
13

>  <SCORE.norm>
-1.31473

>  <RMSD>
4.865

$$$$
ligand
 OpenBabel02271912143D
libRbt.so/2013.1/901 2013/11/27
 13 14  0  0  0  0  0  0  0  0999 V2000
   37.1554   32.7966   26.8362 N   0  0  0  0  0  0  0  0  0  0  0  0
   37.9460   33.9375   26.6069 C   0  0  0  0  0  0  0  0  0  0  0  0
   39.0223   34.1293   27.4630 N   0  0  0  0  0  0  0  0  0  0  0  0
   37.7279   34.8711   25.6496 N   0  0  0  0  0  0  0  0  0  0  0  0
   36.6053   34.5785   24.8810 C   0  0  0  0  0  0  0  0  0  0  0  0
   35.7714   33.4629   25.0253 C   0  0  0  0  0  0  0  0  0  0  0  0
   36.0127   32.5115   26.0272 C   0  0  0  0  0  0  0  0  0  0  0  0
   35.3533   31.5103   26.2651 O   0  0  0  0  0  0  0  0  0  0  0  0
   34.7450   33.5286   24.0553 C   0  0  0  0  0  0  0  0  0  0  0  0
   34.9714   34.6841   23.3237 C   0  0  0  0  0  0  0  0  0  0  0  0
   36.1249   35.3359   23.8284 N   0  0  0  0  0  0  0  0  0  0  0  0
   33.6577   32.5197   23.9339 C   0  0  0  0  0  0  0  0  0  0  0  0
   32.9280   32.6847   22.6671 N   0  0  0  0  0  0  0  0  0  0  0  0
  1  2  1  0  0  0  0
  1  7  1  0  0  0  0
  2  3  1  0  0  0  0
  2  4  2  0  0  0  0
  4  5  1  0  0  0  0
  5  6  2  0  0  0  0
  5 11  1  0  0  0  0
  6  7  1  0  0  0  0
  6  9  1  0  0  0  0
  7  8  2  0  0  0  0
  9 10  2  0  0  0  0
  9 12  1  0  0  0  0
 10 11  1  0  0  0  0
 12 13  1  0  0  0  0
M  END
>  <CHROM.1>
-167.30472626,35.99336465,33.54259873,25.14262489,0.27882590,0.63009856,2.45145259

>  <Name>
ligand

>  <RI>
0

>  <Rbt.Current_Directory>
/home/itssahil/PROJECTS/Mol_Feturizer/Test_systems_manuscript/rnas/3q50

>  <Rbt.Executable>
rbdock ($Id: //depot/dev/client3/rdock/2013.1/src/exe/rbdock.cxx#4 $)

>  <Rbt.Library>
libRbt.so (2013.1, Build901 2013/11/27)

>  <Rbt.Parameter_File>
/export/apps/rDock/src/rDock_2013.1_src/data/scripts/dock_solv.prm

>  <Rbt.Receptor>
prm/pocket_docking_7.prm

>  <SCORE>
-17.1147

>  <SCORE.INTER>
-17.1039

>  <SCORE.INTER.CONST>
1

>  <SCORE.INTER.POLAR>
0

>  <SCORE.INTER.ROT>
1

>  <SCORE.INTER.SOLV>
16.4998

>  <SCORE.INTER.VDW>
-21.1692

>  <SCORE.INTER.norm>
-1.31569

>  <SCORE.INTRA>
-0.0107941

>  <SCORE.INTRA.DIHEDRAL>
-0.00945131

>  <SCORE.INTRA.DIHEDRAL.0>
1.65305

>  <SCORE.INTRA.POLAR>
0

>  <SCORE.INTRA.POLAR.0>
0

>  <SCORE.INTRA.REPUL>
0

>  <SCORE.INTRA.REPUL.0>
0

>  <SCORE.INTRA.SOLV>
-0.000871804

>  <SCORE.INTRA.SOLV.lig_0>
-46.9527

>  <SCORE.INTRA.VDW>
-0.0056325

>  <SCORE.INTRA.VDW.0>
-0.177978

>  <SCORE.INTRA.norm>
-0.000830312

>  <SCORE.RESTR>
0

>  <SCORE.RESTR.CAVITY>
0

>  <SCORE.RESTR.norm>
0

>  <SCORE.SYSTEM>
0

>  <SCORE.SYSTEM.CONST>
0

>  <SCORE.SYSTEM.DIHEDRAL>
0

>  <SCORE.SYSTEM.SOLV>
0

>  <SCORE.SYSTEM.norm>
0

>  <SCORE.heavy>
13

>  <SCORE.norm>
-1.31652

>  <RMSD>
4.865

$$$$
ligand
 OpenBabel02271912143D
libRbt.so/2013.1/901 2013/11/27
 13 14  0  0  0  0  0  0  0  0999 V2000
   37.1543   32.7943   26.8351 N   0  0  0  0  0  0  0  0  0  0  0  0
   37.9467   33.9336   26.6042 C   0  0  0  0  0  0  0  0  0  0  0  0
   39.0251   34.1233   27.4581 N   0  0  0  0  0  0  0  0  0  0  0  0
   37.7284   34.8677   25.6474 N   0  0  0  0  0  0  0  0  0  0  0  0
   36.6037   34.5773   24.8811 C   0  0  0  0  0  0  0  0  0  0  0  0
   35.7679   33.4634   25.0271 C   0  0  0  0  0  0  0  0  0  0  0  0
   36.0094   32.5115   26.0284 C   0  0  0  0  0  0  0  0  0  0  0  0
   35.3485   31.5115   26.2677 O   0  0  0  0  0  0  0  0  0  0  0  0
   34.7396   33.5311   24.0592 C   0  0  0  0  0  0  0  0  0  0  0  0
   34.9667   34.6863   23.3272 C   0  0  0  0  0  0  0  0  0  0  0  0
   36.1226   35.3357   23.8296 N   0  0  0  0  0  0  0  0  0  0  0  0
   33.6501   32.5244   23.9400 C   0  0  0  0  0  0  0  0  0  0  0  0
   32.8436   32.7646   22.7332 N   0  0  0  0  0  0  0  0  0  0  0  0
  1  2  1  0  0  0  0
  1  7  1  0  0  0  0
  2  3  1  0  0  0  0
  2  4  2  0  0  0  0
  4  5  1  0  0  0  0
  5  6  2  0  0  0  0
  5 11  1  0  0  0  0
  6  7  1  0  0  0  0
  6  9  1  0  0  0  0
  7  8  2  0  0  0  0
  9 10  2  0  0  0  0
  9 12  1  0  0  0  0
 10 11  1  0  0  0  0
 12 13  1  0  0  0  0
M  END
>  <CHROM.1>
-172.30969704,35.98419841,33.54862415,25.14870401,0.28011420,0.61875091,2.45271254

>  <Name>
ligand

>  <RI>
0

>  <Rbt.Current_Directory>
/home/itssahil/PROJECTS/Mol_Feturizer/Test_systems_manuscript/rnas/3q50

>  <Rbt.Executable>
rbdock ($Id: //depot/dev/client3/rdock/2013.1/src/exe/rbdock.cxx#4 $)

>  <Rbt.Library>
libRbt.so (2013.1, Build901 2013/11/27)

>  <Rbt.Parameter_File>
/export/apps/rDock/src/rDock_2013.1_src/data/scripts/dock_solv.prm

>  <Rbt.Receptor>
prm/pocket_docking_8.prm

>  <SCORE>
-17.1077

>  <SCORE.INTER>
-17.1107

>  <SCORE.INTER.CONST>
1

>  <SCORE.INTER.POLAR>
0

>  <SCORE.INTER.ROT>
1

>  <SCORE.INTER.SOLV>
16.549

>  <SCORE.INTER.VDW>
-21.1901

>  <SCORE.INTER.norm>
-1.31621

>  <SCORE.INTRA>
0.00297647

>  <SCORE.INTRA.DIHEDRAL>
0.00302433

>  <SCORE.INTRA.DIHEDRAL.0>
1.65305

>  <SCORE.INTRA.POLAR>
0

>  <SCORE.INTRA.POLAR.0>
0

>  <SCORE.INTRA.REPUL>
0

>  <SCORE.INTRA.REPUL.0>
0

>  <SCORE.INTRA.SOLV>
0.000234337

>  <SCORE.INTRA.SOLV.lig_0>
-46.9527

>  <SCORE.INTRA.VDW>
0.00134714

>  <SCORE.INTRA.VDW.0>
-0.177978

>  <SCORE.INTRA.norm>
0.000228959

>  <SCORE.RESTR>
0

>  <SCORE.RESTR.CAVITY>
0

>  <SCORE.RESTR.norm>
0

>  <SCORE.SYSTEM>
0

>  <SCORE.SYSTEM.CONST>
0

>  <SCORE.SYSTEM.DIHEDRAL>
0

>  <SCORE.SYSTEM.SOLV>
0

>  <SCORE.SYSTEM.norm>
0

>  <SCORE.heavy>
13

>  <SCORE.norm>
-1.31598

>  <RMSD>
4.865

$$$$
ligand
 OpenBabel02271912143D
libRbt.so/2013.1/901 2013/11/27
 13 14  0  0  0  0  0  0  0  0999 V2000
   37.1633   32.8099   26.8084 N   0  0  0  0  0  0  0  0  0  0  0  0
   37.9510   33.9507   26.5685 C   0  0  0  0  0  0  0  0  0  0  0  0
   39.0343   34.1463   27.4147 N   0  0  0  0  0  0  0  0  0  0  0  0
   37.7239   34.8808   25.6099 N   0  0  0  0  0  0  0  0  0  0  0  0
   36.5951   34.5847   24.8519 C   0  0  0  0  0  0  0  0  0  0  0  0
   35.7633   33.4690   25.0071 C   0  0  0  0  0  0  0  0  0  0  0  0
   36.0139   32.5212   26.0101 C   0  0  0  0  0  0  0  0  0  0  0  0
   35.3574   31.5203   26.2571 O   0  0  0  0  0  0  0  0  0  0  0  0
   34.7287   33.5305   24.0456 C   0  0  0  0  0  0  0  0  0  0  0  0
   34.9478   34.6838   23.3082 C   0  0  0  0  0  0  0  0  0  0  0  0
   36.1051   35.3381   23.8009 N   0  0  0  0  0  0  0  0  0  0  0  0
   33.6412   32.5204   23.9370 C   0  0  0  0  0  0  0  0  0  0  0  0
   32.8654   32.7156   22.7023 N   0  0  0  0  0  0  0  0  0  0  0  0
  1  2  1  0  0  0  0
  1  7  1  0  0  0  0
  2  3  1  0  0  0  0
  2  4  2  0  0  0  0
  4  5  1  0  0  0  0
  5  6  2  0  0  0  0
  5 11  1  0  0  0  0
  6  7  1  0  0  0  0
  6  9  1  0  0  0  0
  7  8  2  0  0  0  0
  9 10  2  0  0  0  0
  9 12  1  0  0  0  0
 10 11  1  0  0  0  0
 12 13  1  0  0  0  0
M  END
>  <CHROM.1>
-169.65175736,35.98336748,33.55210343,25.12439082,0.27199367,0.62006296,2.45298991

>  <Name>
ligand

>  <RI>
0

>  <Rbt.Current_Directory>
/home/itssahil/PROJECTS/Mol_Feturizer/Test_systems_manuscript/rnas/3q50

>  <Rbt.Executable>
rbdock ($Id: //depot/dev/client3/rdock/2013.1/src/exe/rbdock.cxx#4 $)

>  <Rbt.Library>
libRbt.so (2013.1, Build901 2013/11/27)

>  <Rbt.Parameter_File>
/export/apps/rDock/src/rDock_2013.1_src/data/scripts/dock_solv.prm

>  <Rbt.Receptor>
prm/pocket_docking_3.prm

>  <SCORE>
-17.1067

>  <SCORE.INTER>
-17.1026

>  <SCORE.INTER.CONST>
1

>  <SCORE.INTER.POLAR>
0

>  <SCORE.INTER.ROT>
1

>  <SCORE.INTER.SOLV>
16.5619

>  <SCORE.INTER.VDW>
-21.189

>  <SCORE.INTER.norm>
-1.31558

>  <SCORE.INTRA>
-0.00411245

>  <SCORE.INTRA.DIHEDRAL>
-0.0038619

>  <SCORE.INTRA.DIHEDRAL.0>
1.65305

>  <SCORE.INTRA.POLAR>
0

>  <SCORE.INTRA.POLAR.0>
0

>  <SCORE.INTRA.REPUL>
0

>  <SCORE.INTRA.REPUL.0>
0

>  <SCORE.INTRA.SOLV>
-0.00032786

>  <SCORE.INTRA.SOLV.lig_0>
-46.9527

>  <SCORE.INTRA.VDW>
-0.00201757

>  <SCORE.INTRA.VDW.0>
-0.177978

>  <SCORE.INTRA.norm>
-0.000316342

>  <SCORE.RESTR>
0

>  <SCORE.RESTR.CAVITY>
0

>  <SCORE.RESTR.norm>
0

>  <SCORE.SYSTEM>
0

>  <SCORE.SYSTEM.CONST>
0

>  <SCORE.SYSTEM.DIHEDRAL>
0

>  <SCORE.SYSTEM.SOLV>
0

>  <SCORE.SYSTEM.norm>
0

>  <SCORE.heavy>
13

>  <SCORE.norm>
-1.3159

>  <RMSD>
4.866

$$$$
ligand
 OpenBabel02271912143D
libRbt.so/2013.1/901 2013/11/27
 13 14  0  0  0  0  0  0  0  0999 V2000
   37.1662   32.8042   26.8103 N   0  0  0  0  0  0  0  0  0  0  0  0
   37.9563   33.9431   26.5698 C   0  0  0  0  0  0  0  0  0  0  0  0
   39.0407   34.1363   27.4153 N   0  0  0  0  0  0  0  0  0  0  0  0
   37.7308   34.8738   25.6113 N   0  0  0  0  0  0  0  0  0  0  0  0
   36.6007   34.5803   24.8541 C   0  0  0  0  0  0  0  0  0  0  0  0
   35.7665   33.4665   25.0099 C   0  0  0  0  0  0  0  0  0  0  0  0
   36.0157   32.5181   26.0127 C   0  0  0  0  0  0  0  0  0  0  0  0
   35.3570   31.5187   26.2601 O   0  0  0  0  0  0  0  0  0  0  0  0
   34.7314   33.5304   24.0491 C   0  0  0  0  0  0  0  0  0  0  0  0
   34.9527   34.6831   23.3116 C   0  0  0  0  0  0  0  0  0  0  0  0
   36.1118   35.3348   23.8034 N   0  0  0  0  0  0  0  0  0  0  0  0
   33.6415   32.5227   23.9412 C   0  0  0  0  0  0  0  0  0  0  0  0
   32.9200   32.6648   22.6669 N   0  0  0  0  0  0  0  0  0  0  0  0
  1  2  1  0  0  0  0
  1  7  1  0  0  0  0
  2  3  1  0  0  0  0
  2  4  2  0  0  0  0
  4  5  1  0  0  0  0
  5  6  2  0  0  0  0
  5 11  1  0  0  0  0
  6  7  1  0  0  0  0
  6  9  1  0  0  0  0
  7  8  2  0  0  0  0
  9 10  2  0  0  0  0
  9 12  1  0  0  0  0
 10 11  1  0  0  0  0
 12 13  1  0  0  0  0
M  END
>  <CHROM.1>
-166.01200793,35.99130322,33.54461297,25.12376843,0.27257637,0.62424503,2.45116447

>  <Name>
ligand

>  <RI>
0

>  <Rbt.Current_Directory>
/home/itssahil/PROJECTS/Mol_Feturizer/Test_systems_manuscript/rnas/3q50

>  <Rbt.Executable>
rbdock ($Id: //depot/dev/client3/rdock/2013.1/src/exe/rbdock.cxx#4 $)

>  <Rbt.Library>
libRbt.so (2013.1, Build901 2013/11/27)

>  <Rbt.Parameter_File>
/export/apps/rDock/src/rDock_2013.1_src/data/scripts/dock_solv.prm

>  <Rbt.Receptor>
prm/pocket_docking_3.prm

>  <SCORE>
-17.0973

>  <SCORE.INTER>
-17.0827

>  <SCORE.INTER.CONST>
1

>  <SCORE.INTER.POLAR>
0

>  <SCORE.INTER.ROT>
1

>  <SCORE.INTER.SOLV>
16.5276

>  <SCORE.INTER.VDW>
-21.1643

>  <SCORE.INTER.norm>
-1.31405

>  <SCORE.INTRA>
-0.0146066

>  <SCORE.INTRA.DIHEDRAL>
-0.0123005

>  <SCORE.INTRA.DIHEDRAL.0>
1.65305

>  <SCORE.INTRA.POLAR>
0

>  <SCORE.INTRA.POLAR.0>
0

>  <SCORE.INTRA.REPUL>
0

>  <SCORE.INTRA.REPUL.0>
0

>  <SCORE.INTRA.SOLV>
-0.00118904

>  <SCORE.INTRA.SOLV.lig_0>
-46.9527

>  <SCORE.INTRA.VDW>
-0.00786187

>  <SCORE.INTRA.VDW.0>
-0.177978

>  <SCORE.INTRA.norm>
-0.00112359

>  <SCORE.RESTR>
0

>  <SCORE.RESTR.CAVITY>
0

>  <SCORE.RESTR.norm>
0

>  <SCORE.SYSTEM>
0

>  <SCORE.SYSTEM.CONST>
0

>  <SCORE.SYSTEM.DIHEDRAL>
0

>  <SCORE.SYSTEM.SOLV>
0

>  <SCORE.SYSTEM.norm>
0

>  <SCORE.heavy>
13

>  <SCORE.norm>
-1.31518

>  <RMSD>
4.866

$$$$
ligand
 OpenBabel02271912143D
libRbt.so/2013.1/901 2013/11/27
 13 14  0  0  0  0  0  0  0  0999 V2000
   37.1598   32.8125   26.8193 N   0  0  0  0  0  0  0  0  0  0  0  0
   37.9471   33.9544   26.5837 C   0  0  0  0  0  0  0  0  0  0  0  0
   39.0264   34.1507   27.4349 N   0  0  0  0  0  0  0  0  0  0  0  0
   37.7232   34.8849   25.6247 N   0  0  0  0  0  0  0  0  0  0  0  0
   36.5981   34.5880   24.8615 C   0  0  0  0  0  0  0  0  0  0  0  0
   35.7671   33.4712   25.0122 C   0  0  0  0  0  0  0  0  0  0  0  0
   36.0144   32.5229   26.0156 C   0  0  0  0  0  0  0  0  0  0  0  0
   35.3580   31.5210   26.2589 O   0  0  0  0  0  0  0  0  0  0  0  0
   34.7367   33.5321   24.0461 C   0  0  0  0  0  0  0  0  0  0  0  0
   34.9577   34.6861   23.3106 C   0  0  0  0  0  0  0  0  0  0  0  0
   36.1119   35.3415   23.8088 N   0  0  0  0  0  0  0  0  0  0  0  0
   33.6510   32.5207   23.9319 C   0  0  0  0  0  0  0  0  0  0  0  0
   32.8780   32.7181   22.6957 N   0  0  0  0  0  0  0  0  0  0  0  0
  1  2  1  0  0  0  0
  1  7  1  0  0  0  0
  2  3  1  0  0  0  0
  2  4  2  0  0  0  0
  4  5  1  0  0  0  0
  5  6  2  0  0  0  0
  5 11  1  0  0  0  0
  6  7  1  0  0  0  0
  6  9  1  0  0  0  0
  7  8  2  0  0  0  0
  9 10  2  0  0  0  0
  9 12  1  0  0  0  0
 10 11  1  0  0  0  0
 12 13  1  0  0  0  0
M  END
>  <CHROM.1>
-169.81045399,35.98630254,33.55462702,25.13066648,0.27435739,0.62403710,2.45238869

>  <Name>
ligand

>  <RI>
0

>  <Rbt.Current_Directory>
/home/itssahil/PROJECTS/Mol_Feturizer/Test_systems_manuscript/rnas/3q50

>  <Rbt.Executable>
rbdock ($Id: //depot/dev/client3/rdock/2013.1/src/exe/rbdock.cxx#4 $)

>  <Rbt.Library>
libRbt.so (2013.1, Build901 2013/11/27)

>  <Rbt.Parameter_File>
/export/apps/rDock/src/rDock_2013.1_src/data/scripts/dock_solv.prm

>  <Rbt.Receptor>
prm/pocket_docking_3.prm

>  <SCORE>
-17.1064

>  <SCORE.INTER>
-17.1027

>  <SCORE.INTER.CONST>
1

>  <SCORE.INTER.POLAR>
0

>  <SCORE.INTER.ROT>
1

>  <SCORE.INTER.SOLV>
16.5457

>  <SCORE.INTER.VDW>
-21.1837

>  <SCORE.INTER.norm>
-1.31559

>  <SCORE.INTRA>
-0.00367374

>  <SCORE.INTRA.DIHEDRAL>
-0.0034662

>  <SCORE.INTRA.DIHEDRAL.0>
1.65305

>  <SCORE.INTRA.POLAR>
0

>  <SCORE.INTRA.POLAR.0>
0

>  <SCORE.INTRA.REPUL>
0

>  <SCORE.INTRA.REPUL.0>
0

>  <SCORE.INTRA.SOLV>
-0.000292645

>  <SCORE.INTRA.SOLV.lig_0>
-46.9527

>  <SCORE.INTRA.VDW>
-0.00179432

>  <SCORE.INTRA.VDW.0>
-0.177978

>  <SCORE.INTRA.norm>
-0.000282595

>  <SCORE.RESTR>
0

>  <SCORE.RESTR.CAVITY>
0

>  <SCORE.RESTR.norm>
0

>  <SCORE.SYSTEM>
0

>  <SCORE.SYSTEM.CONST>
0

>  <SCORE.SYSTEM.DIHEDRAL>
0

>  <SCORE.SYSTEM.SOLV>
0

>  <SCORE.SYSTEM.norm>
0

>  <SCORE.heavy>
13

>  <SCORE.norm>
-1.31587

>  <RMSD>
4.866

$$$$
ligand
 OpenBabel02271912143D
libRbt.so/2013.1/901 2013/11/27
 13 14  0  0  0  0  0  0  0  0999 V2000
   37.1616   32.7985   26.8510 N   0  0  0  0  0  0  0  0  0  0  0  0
   37.9607   33.9325   26.6166 C   0  0  0  0  0  0  0  0  0  0  0  0
   39.0395   34.1191   27.4706 N   0  0  0  0  0  0  0  0  0  0  0  0
   37.7485   34.8643   25.6561 N   0  0  0  0  0  0  0  0  0  0  0  0
   36.6228   34.5776   24.8900 C   0  0  0  0  0  0  0  0  0  0  0  0
   35.7805   33.4690   25.0393 C   0  0  0  0  0  0  0  0  0  0  0  0
   36.0157   32.5194   26.0443 C   0  0  0  0  0  0  0  0  0  0  0  0
   35.3489   31.5241   26.2867 O   0  0  0  0  0  0  0  0  0  0  0  0
   34.7534   33.5391   24.0703 C   0  0  0  0  0  0  0  0  0  0  0  0
   34.9877   34.6902   23.3344 C   0  0  0  0  0  0  0  0  0  0  0  0
   36.1469   35.3348   23.8353 N   0  0  0  0  0  0  0  0  0  0  0  0
   33.6582   32.5382   23.9539 C   0  0  0  0  0  0  0  0  0  0  0  0
   32.7475   32.8830   22.8511 N   0  0  0  0  0  0  0  0  0  0  0  0
  1  2  1  0  0  0  0
  1  7  1  0  0  0  0
  2  3  1  0  0  0  0
  2  4  2  0  0  0  0
  4  5  1  0  0  0  0
  5  6  2  0  0  0  0
  5 11  1  0  0  0  0
  6  7  1  0  0  0  0
  6  9  1  0  0  0  0
  7  8  2  0  0  0  0
  9 10  2  0  0  0  0
  9 12  1  0  0  0  0
 10 11  1  0  0  0  0
 12 13  1  0  0  0  0
M  END
>  <CHROM.1>
-179.93034105,35.98850302,33.56193444,25.16942272,0.28599606,0.60264234,2.44801548

>  <Name>
ligand

>  <RI>
0

>  <Rbt.Current_Directory>
/home/itssahil/PROJECTS/Mol_Feturizer/Test_systems_manuscript/rnas/3q50

>  <Rbt.Executable>
rbdock ($Id: //depot/dev/client3/rdock/2013.1/src/exe/rbdock.cxx#4 $)

>  <Rbt.Library>
libRbt.so (2013.1, Build901 2013/11/27)

>  <Rbt.Parameter_File>
/export/apps/rDock/src/rDock_2013.1_src/data/scripts/dock_solv.prm

>  <Rbt.Receptor>
prm/pocket_docking_4.prm

>  <SCORE>
-17.1034

>  <SCORE.INTER>
-17.1228

>  <SCORE.INTER.CONST>
1

>  <SCORE.INTER.POLAR>
0

>  <SCORE.INTER.ROT>
1

>  <SCORE.INTER.SOLV>
16.5593

>  <SCORE.INTER.VDW>
-21.2016

>  <SCORE.INTER.norm>
-1.31714

>  <SCORE.INTRA>
0.0193636

>  <SCORE.INTRA.DIHEDRAL>
0.0248381

>  <SCORE.INTRA.DIHEDRAL.0>
1.65305

>  <SCORE.INTRA.POLAR>
0

>  <SCORE.INTRA.POLAR.0>
0

>  <SCORE.INTRA.REPUL>
0

>  <SCORE.INTRA.REPUL.0>
0

>  <SCORE.INTRA.SOLV>
0.00149435

>  <SCORE.INTRA.SOLV.lig_0>
-46.9527

>  <SCORE.INTRA.VDW>
0.00619735

>  <SCORE.INTRA.VDW.0>
-0.177978

>  <SCORE.INTRA.norm>
0.0014895

>  <SCORE.RESTR>
0

>  <SCORE.RESTR.CAVITY>
0

>  <SCORE.RESTR.norm>
0

>  <SCORE.SYSTEM>
0

>  <SCORE.SYSTEM.CONST>
0

>  <SCORE.SYSTEM.DIHEDRAL>
0

>  <SCORE.SYSTEM.SOLV>
0

>  <SCORE.SYSTEM.norm>
0

>  <SCORE.heavy>
13

>  <SCORE.norm>
-1.31565

>  <RMSD>
4.866

$$$$
ligand
 OpenBabel02271912143D
libRbt.so/2013.1/901 2013/11/27
 13 14  0  0  0  0  0  0  0  0999 V2000
   37.1308   32.8245   26.8711 N   0  0  0  0  0  0  0  0  0  0  0  0
   37.9172   33.9688   26.6439 C   0  0  0  0  0  0  0  0  0  0  0  0
   38.9829   34.1718   27.5106 N   0  0  0  0  0  0  0  0  0  0  0  0
   37.7041   34.8957   25.6790 N   0  0  0  0  0  0  0  0  0  0  0  0
   36.5917   34.5921   24.8999 C   0  0  0  0  0  0  0  0  0  0  0  0
   35.7628   33.4725   25.0414 C   0  0  0  0  0  0  0  0  0  0  0  0
   35.9987   32.5282   26.0513 C   0  0  0  0  0  0  0  0  0  0  0  0
   35.3426   31.5244   26.2877 O   0  0  0  0  0  0  0  0  0  0  0  0
   34.7468   33.5266   24.0599 C   0  0  0  0  0  0  0  0  0  0  0  0
   34.9743   34.6793   23.3243 C   0  0  0  0  0  0  0  0  0  0  0  0
   36.1184   35.3407   23.8378 N   0  0  0  0  0  0  0  0  0  0  0  0
   33.6668   32.5106   23.9324 C   0  0  0  0  0  0  0  0  0  0  0  0
   32.9285   32.6851   22.6719 N   0  0  0  0  0  0  0  0  0  0  0  0
  1  2  1  0  0  0  0
  1  7  1  0  0  0  0
  2  3  1  0  0  0  0
  2  4  2  0  0  0  0
  4  5  1  0  0  0  0
  5  6  2  0  0  0  0
  5 11  1  0  0  0  0
  6  7  1  0  0  0  0
  6  9  1  0  0  0  0
  7  8  2  0  0  0  0
  9 10  2  0  0  0  0
  9 12  1  0  0  0  0
 10 11  1  0  0  0  0
 12 13  1  0  0  0  0
M  END
>  <CHROM.1>
-168.70436708,35.98129548,33.55581246,25.16194131,0.28224873,0.63991114,2.44434890

>  <Name>
ligand

>  <RI>
0

>  <Rbt.Current_Directory>
/home/itssahil/PROJECTS/Mol_Feturizer/Test_systems_manuscript/rnas/3q50

>  <Rbt.Executable>
rbdock ($Id: //depot/dev/client3/rdock/2013.1/src/exe/rbdock.cxx#4 $)

>  <Rbt.Library>
libRbt.so (2013.1, Build901 2013/11/27)

>  <Rbt.Parameter_File>
/export/apps/rDock/src/rDock_2013.1_src/data/scripts/dock_solv.prm

>  <Rbt.Receptor>
prm/pocket_docking_4.prm

>  <SCORE>
-17.1005

>  <SCORE.INTER>
-17.0937

>  <SCORE.INTER.CONST>
1

>  <SCORE.INTER.POLAR>
0

>  <SCORE.INTER.ROT>
1

>  <SCORE.INTER.SOLV>
16.5763

>  <SCORE.INTER.VDW>
-21.1879

>  <SCORE.INTER.norm>
-1.3149

>  <SCORE.INTRA>
-0.00676773

>  <SCORE.INTRA.DIHEDRAL>
-0.00617895

>  <SCORE.INTRA.DIHEDRAL.0>
1.65305

>  <SCORE.INTRA.POLAR>
0

>  <SCORE.INTRA.POLAR.0>
0

>  <SCORE.INTRA.REPUL>
0

>  <SCORE.INTRA.REPUL.0>
0

>  <SCORE.INTRA.SOLV>
-0.000542277

>  <SCORE.INTRA.SOLV.lig_0>
-46.9527

>  <SCORE.INTRA.VDW>
-0.00340712

>  <SCORE.INTRA.VDW.0>
-0.177978

>  <SCORE.INTRA.norm>
-0.000520595

>  <SCORE.RESTR>
0

>  <SCORE.RESTR.CAVITY>
0

>  <SCORE.RESTR.norm>
0

>  <SCORE.SYSTEM>
0

>  <SCORE.SYSTEM.CONST>
0

>  <SCORE.SYSTEM.DIHEDRAL>
0

>  <SCORE.SYSTEM.SOLV>
0

>  <SCORE.SYSTEM.norm>
0

>  <SCORE.heavy>
13

>  <SCORE.norm>
-1.31542

>  <RMSD>
4.866

$$$$
ligand
 OpenBabel02271912143D
libRbt.so/2013.1/901 2013/11/27
 13 14  0  0  0  0  0  0  0  0999 V2000
   37.1566   32.8149   26.8131 N   0  0  0  0  0  0  0  0  0  0  0  0
   37.9415   33.9585   26.5777 C   0  0  0  0  0  0  0  0  0  0  0  0
   39.0204   34.1570   27.4290 N   0  0  0  0  0  0  0  0  0  0  0  0
   37.7156   34.8888   25.6189 N   0  0  0  0  0  0  0  0  0  0  0  0
   36.5912   34.5895   24.8556 C   0  0  0  0  0  0  0  0  0  0  0  0
   35.7625   33.4709   25.0061 C   0  0  0  0  0  0  0  0  0  0  0  0
   36.0118   32.5230   26.0094 C   0  0  0  0  0  0  0  0  0  0  0  0
   35.3576   31.5196   26.2525 O   0  0  0  0  0  0  0  0  0  0  0  0
   34.7320   33.5297   24.0400 C   0  0  0  0  0  0  0  0  0  0  0  0
   34.9506   34.6844   23.3046 C   0  0  0  0  0  0  0  0  0  0  0  0
   36.1034   35.3422   23.8031 N   0  0  0  0  0  0  0  0  0  0  0  0
   33.6485   32.5160   23.9256 C   0  0  0  0  0  0  0  0  0  0  0  0
   32.8833   32.7041   22.6832 N   0  0  0  0  0  0  0  0  0  0  0  0
  1  2  1  0  0  0  0
  1  7  1  0  0  0  0
  2  3  1  0  0  0  0
  2  4  2  0  0  0  0
  4  5  1  0  0  0  0
  5  6  2  0  0  0  0
  5 11  1  0  0  0  0
  6  7  1  0  0  0  0
  6  9  1  0  0  0  0
  7  8  2  0  0  0  0
  9 10  2  0  0  0  0
  9 12  1  0  0  0  0
 10 11  1  0  0  0  0
 12 13  1  0  0  0  0
M  END
>  <CHROM.1>
-169.26968087,35.98222534,33.55413062,25.12407482,0.27220519,0.62634309,2.45360991

>  <Name>
ligand

>  <RI>
0

>  <Rbt.Current_Directory>
/home/itssahil/PROJECTS/Mol_Feturizer/Test_systems_manuscript/rnas/3q50

>  <Rbt.Executable>
rbdock ($Id: //depot/dev/client3/rdock/2013.1/src/exe/rbdock.cxx#4 $)

>  <Rbt.Library>
libRbt.so (2013.1, Build901 2013/11/27)

>  <Rbt.Parameter_File>
/export/apps/rDock/src/rDock_2013.1_src/data/scripts/dock_solv.prm

>  <Rbt.Receptor>
prm/pocket_docking_4.prm

>  <SCORE>
-17.1043

>  <SCORE.INTER>
-17.0991

>  <SCORE.INTER.CONST>
1

>  <SCORE.INTER.POLAR>
0

>  <SCORE.INTER.ROT>
1

>  <SCORE.INTER.SOLV>
16.574

>  <SCORE.INTER.VDW>
-21.1907

>  <SCORE.INTER.norm>
-1.31532

>  <SCORE.INTRA>
-0.00517598

>  <SCORE.INTRA.DIHEDRAL>
-0.0048058

>  <SCORE.INTRA.DIHEDRAL.0>
1.65305

>  <SCORE.INTRA.POLAR>
0

>  <SCORE.INTRA.POLAR.0>
0

>  <SCORE.INTRA.REPUL>
0

>  <SCORE.INTRA.REPUL.0>
0

>  <SCORE.INTRA.SOLV>
-0.000413474

>  <SCORE.INTRA.SOLV.lig_0>
-46.9527

>  <SCORE.INTRA.VDW>
-0.00256634

>  <SCORE.INTRA.VDW.0>
-0.177978

>  <SCORE.INTRA.norm>
-0.000398152

>  <SCORE.RESTR>
0

>  <SCORE.RESTR.CAVITY>
0

>  <SCORE.RESTR.norm>
0

>  <SCORE.SYSTEM>
0

>  <SCORE.SYSTEM.CONST>
0

>  <SCORE.SYSTEM.DIHEDRAL>
0

>  <SCORE.SYSTEM.SOLV>
0

>  <SCORE.SYSTEM.norm>
0

>  <SCORE.heavy>
13

>  <SCORE.norm>
-1.31571

>  <RMSD>
4.866

$$$$
ligand
 OpenBabel02271912143D
libRbt.so/2013.1/901 2013/11/27
 13 14  0  0  0  0  0  0  0  0999 V2000
   37.1630   32.8117   26.8092 N   0  0  0  0  0  0  0  0  0  0  0  0
   37.9501   33.9531   26.5707 C   0  0  0  0  0  0  0  0  0  0  0  0
   39.0330   34.1486   27.4175 N   0  0  0  0  0  0  0  0  0  0  0  0
   37.7228   34.8841   25.6129 N   0  0  0  0  0  0  0  0  0  0  0  0
   36.5945   34.5881   24.8542 C   0  0  0  0  0  0  0  0  0  0  0  0
   35.7634   33.4717   25.0079 C   0  0  0  0  0  0  0  0  0  0  0  0
   36.0142   32.5230   26.0101 C   0  0  0  0  0  0  0  0  0  0  0  0
   35.3582   31.5214   26.2558 O   0  0  0  0  0  0  0  0  0  0  0  0
   34.7290   33.5336   24.0461 C   0  0  0  0  0  0  0  0  0  0  0  0
   34.9478   34.6877   23.3100 C   0  0  0  0  0  0  0  0  0  0  0  0
   36.1044   35.3423   23.8038 N   0  0  0  0  0  0  0  0  0  0  0  0
   33.6423   32.5228   23.9360 C   0  0  0  0  0  0  0  0  0  0  0  0
   32.8746   32.7110   22.6951 N   0  0  0  0  0  0  0  0  0  0  0  0
  1  2  1  0  0  0  0
  1  7  1  0  0  0  0
  2  3  1  0  0  0  0
  2  4  2  0  0  0  0
  4  5  1  0  0  0  0
  5  6  2  0  0  0  0
  5 11  1  0  0  0  0
  6  7  1  0  0  0  0
  6  9  1  0  0  0  0
  7  8  2  0  0  0  0
  9 10  2  0  0  0  0
  9 12  1  0  0  0  0
 10 11  1  0  0  0  0
 12 13  1  0  0  0  0
M  END
>  <CHROM.1>
-169.12446073,35.98394840,33.55417176,25.12492454,0.27156777,0.62166324,2.45406577

>  <Name>
ligand

>  <RI>
0

>  <Rbt.Current_Directory>
/home/itssahil/PROJECTS/Mol_Feturizer/Test_systems_manuscript/rnas/3q50

>  <Rbt.Executable>
rbdock ($Id: //depot/dev/client3/rdock/2013.1/src/exe/rbdock.cxx#4 $)

>  <Rbt.Library>
libRbt.so (2013.1, Build901 2013/11/27)

>  <Rbt.Parameter_File>
/export/apps/rDock/src/rDock_2013.1_src/data/scripts/dock_solv.prm

>  <Rbt.Receptor>
prm/pocket_docking_4.prm

>  <SCORE>
-17.1076

>  <SCORE.INTER>
-17.102

>  <SCORE.INTER.CONST>
1

>  <SCORE.INTER.POLAR>
0

>  <SCORE.INTER.ROT>
1

>  <SCORE.INTER.SOLV>
16.5548

>  <SCORE.INTER.VDW>
-21.1863

>  <SCORE.INTER.norm>
-1.31554

>  <SCORE.INTRA>
-0.00558285

>  <SCORE.INTRA.DIHEDRAL>
-0.00516124

>  <SCORE.INTRA.DIHEDRAL.0>
1.65305

>  <SCORE.INTRA.POLAR>
0

>  <SCORE.INTRA.POLAR.0>
0

>  <SCORE.INTRA.REPUL>
0

>  <SCORE.INTRA.REPUL.0>
0

>  <SCORE.INTRA.SOLV>
-0.00044632

>  <SCORE.INTRA.SOLV.lig_0>
-46.9527

>  <SCORE.INTRA.VDW>
-0.00277906

>  <SCORE.INTRA.VDW.0>
-0.177978

>  <SCORE.INTRA.norm>
-0.00042945

>  <SCORE.RESTR>
0

>  <SCORE.RESTR.CAVITY>
0

>  <SCORE.RESTR.norm>
0

>  <SCORE.SYSTEM>
0

>  <SCORE.SYSTEM.CONST>
0

>  <SCORE.SYSTEM.DIHEDRAL>
0

>  <SCORE.SYSTEM.SOLV>
0

>  <SCORE.SYSTEM.norm>
0

>  <SCORE.heavy>
13

>  <SCORE.norm>
-1.31597

>  <RMSD>
4.866

$$$$
ligand
 OpenBabel02271912143D
libRbt.so/2013.1/901 2013/11/27
 13 14  0  0  0  0  0  0  0  0999 V2000
   37.1619   32.8139   26.8146 N   0  0  0  0  0  0  0  0  0  0  0  0
   37.9489   33.9553   26.5757 C   0  0  0  0  0  0  0  0  0  0  0  0
   39.0306   34.1523   27.4238 N   0  0  0  0  0  0  0  0  0  0  0  0
   37.7227   34.8850   25.6164 N   0  0  0  0  0  0  0  0  0  0  0  0
   36.5955   34.5875   24.8565 C   0  0  0  0  0  0  0  0  0  0  0  0
   35.7646   33.4710   25.0105 C   0  0  0  0  0  0  0  0  0  0  0  0
   36.0143   32.5238   26.0143 C   0  0  0  0  0  0  0  0  0  0  0  0
   35.3583   31.5223   26.2604 O   0  0  0  0  0  0  0  0  0  0  0  0
   34.7316   33.5312   24.0472 C   0  0  0  0  0  0  0  0  0  0  0  0
   34.9509   34.6845   23.3099 C   0  0  0  0  0  0  0  0  0  0  0  0
   36.1067   35.3401   23.8044 N   0  0  0  0  0  0  0  0  0  0  0  0
   33.6453   32.5200   23.9369 C   0  0  0  0  0  0  0  0  0  0  0  0
   32.8678   32.7177   22.7036 N   0  0  0  0  0  0  0  0  0  0  0  0
  1  2  1  0  0  0  0
  1  7  1  0  0  0  0
  2  3  1  0  0  0  0
  2  4  2  0  0  0  0
  4  5  1  0  0  0  0
  5  6  2  0  0  0  0
  5 11  1  0  0  0  0
  6  7  1  0  0  0  0
  6  9  1  0  0  0  0
  7  8  2  0  0  0  0
  9 10  2  0  0  0  0
  9 12  1  0  0  0  0
 10 11  1  0  0  0  0
 12 13  1  0  0  0  0
M  END
>  <CHROM.1>
-169.89855318,35.98402739,33.55466933,25.12845087,0.27251139,0.62166027,2.45248258

>  <Name>
ligand

>  <RI>
0

>  <Rbt.Current_Directory>
/home/itssahil/PROJECTS/Mol_Feturizer/Test_systems_manuscript/rnas/3q50

>  <Rbt.Executable>
rbdock ($Id: //depot/dev/client3/rdock/2013.1/src/exe/rbdock.cxx#4 $)

>  <Rbt.Library>
libRbt.so (2013.1, Build901 2013/11/27)

>  <Rbt.Parameter_File>
/export/apps/rDock/src/rDock_2013.1_src/data/scripts/dock_solv.prm

>  <Rbt.Receptor>
prm/pocket_docking_5.prm

>  <SCORE>
-17.1074

>  <SCORE.INTER>
-17.104

>  <SCORE.INTER.CONST>
1

>  <SCORE.INTER.POLAR>
0

>  <SCORE.INTER.ROT>
1

>  <SCORE.INTER.SOLV>
16.557

>  <SCORE.INTER.VDW>
-21.1883

>  <SCORE.INTER.norm>
-1.31569

>  <SCORE.INTRA>
-0.00343098

>  <SCORE.INTRA.DIHEDRAL>
-0.00324562

>  <SCORE.INTRA.DIHEDRAL.0>
1.65305

>  <SCORE.INTRA.POLAR>
0

>  <SCORE.INTRA.POLAR.0>
0

>  <SCORE.INTRA.REPUL>
0

>  <SCORE.INTRA.REPUL.0>
0

>  <SCORE.INTRA.SOLV>
-0.000273184

>  <SCORE.INTRA.SOLV.lig_0>
-46.9527

>  <SCORE.INTRA.VDW>
-0.00167157

>  <SCORE.INTRA.VDW.0>
-0.177978

>  <SCORE.INTRA.norm>
-0.000263921

>  <SCORE.RESTR>
0

>  <SCORE.RESTR.CAVITY>
0

>  <SCORE.RESTR.norm>
0

>  <SCORE.SYSTEM>
0

>  <SCORE.SYSTEM.CONST>
0

>  <SCORE.SYSTEM.DIHEDRAL>
0

>  <SCORE.SYSTEM.SOLV>
0

>  <SCORE.SYSTEM.norm>
0

>  <SCORE.heavy>
13

>  <SCORE.norm>
-1.31595

>  <RMSD>
4.866

$$$$
ligand
 OpenBabel02271912143D
libRbt.so/2013.1/901 2013/11/27
 13 14  0  0  0  0  0  0  0  0999 V2000
   37.1350   32.8489   26.8678 N   0  0  0  0  0  0  0  0  0  0  0  0
   37.9249   33.9909   26.6416 C   0  0  0  0  0  0  0  0  0  0  0  0
   38.9886   34.1922   27.5111 N   0  0  0  0  0  0  0  0  0  0  0  0
   37.7168   34.9173   25.6751 N   0  0  0  0  0  0  0  0  0  0  0  0
   36.6060   34.6156   24.8931 C   0  0  0  0  0  0  0  0  0  0  0  0
   35.7739   33.4983   25.0335 C   0  0  0  0  0  0  0  0  0  0  0  0
   36.0045   32.5545   26.0450 C   0  0  0  0  0  0  0  0  0  0  0  0
   35.3452   31.5526   26.2807 O   0  0  0  0  0  0  0  0  0  0  0  0
   34.7608   33.5538   24.0489 C   0  0  0  0  0  0  0  0  0  0  0  0
   34.9933   34.7052   23.3128 C   0  0  0  0  0  0  0  0  0  0  0  0
   36.1376   35.3642   23.8289 N   0  0  0  0  0  0  0  0  0  0  0  0
   33.6786   32.5404   23.9195 C   0  0  0  0  0  0  0  0  0  0  0  0
   32.8856   32.7724   22.7022 N   0  0  0  0  0  0  0  0  0  0  0  0
  1  2  1  0  0  0  0
  1  7  1  0  0  0  0
  2  3  1  0  0  0  0
  2  4  2  0  0  0  0
  4  5  1  0  0  0  0
  5  6  2  0  0  0  0
  5 11  1  0  0  0  0
  6  7  1  0  0  0  0
  6  9  1  0  0  0  0
  7  8  2  0  0  0  0
  9 10  2  0  0  0  0
  9 12  1  0  0  0  0
 10 11  1  0  0  0  0
 12 13  1  0  0  0  0
M  END
>  <CHROM.1>
-172.61296726,35.98740693,33.58581179,25.15822597,0.28758496,0.63384512,2.44161236

>  <Name>
ligand

>  <RI>
0

>  <Rbt.Current_Directory>
/home/itssahil/PROJECTS/Mol_Feturizer/Test_systems_manuscript/rnas/3q50

>  <Rbt.Executable>
rbdock ($Id: //depot/dev/client3/rdock/2013.1/src/exe/rbdock.cxx#4 $)

>  <Rbt.Library>
libRbt.so (2013.1, Build901 2013/11/27)

>  <Rbt.Parameter_File>
/export/apps/rDock/src/rDock_2013.1_src/data/scripts/dock_solv.prm

>  <Rbt.Receptor>
prm/pocket_docking_6.prm

>  <SCORE>
-17.0689

>  <SCORE.INTER>
-17.0727

>  <SCORE.INTER.CONST>
1

>  <SCORE.INTER.POLAR>
0

>  <SCORE.INTER.ROT>
1

>  <SCORE.INTER.SOLV>
16.5597

>  <SCORE.INTER.VDW>
-21.1683

>  <SCORE.INTER.norm>
-1.31328

>  <SCORE.INTRA>
0.00374734

>  <SCORE.INTRA.DIHEDRAL>
0.00384206

>  <SCORE.INTRA.DIHEDRAL.0>
1.65305

>  <SCORE.INTRA.POLAR>
0

>  <SCORE.INTRA.POLAR.0>
0

>  <SCORE.INTRA.REPUL>
0

>  <SCORE.INTRA.REPUL.0>
0

>  <SCORE.INTRA.SOLV>
0.000294653

>  <SCORE.INTRA.SOLV.lig_0>
-46.9527

>  <SCORE.INTRA.VDW>
0.00167899

>  <SCORE.INTRA.VDW.0>
-0.177978

>  <SCORE.INTRA.norm>
0.000288257

>  <SCORE.RESTR>
0

>  <SCORE.RESTR.CAVITY>
0

>  <SCORE.RESTR.norm>
0

>  <SCORE.SYSTEM>
0

>  <SCORE.SYSTEM.CONST>
0

>  <SCORE.SYSTEM.DIHEDRAL>
0

>  <SCORE.SYSTEM.SOLV>
0

>  <SCORE.SYSTEM.norm>
0

>  <SCORE.heavy>
13

>  <SCORE.norm>
-1.31299

>  <RMSD>
4.866

$$$$
ligand
 OpenBabel02271912143D
libRbt.so/2013.1/901 2013/11/27
 13 14  0  0  0  0  0  0  0  0999 V2000
   37.1593   32.7908   26.8360 N   0  0  0  0  0  0  0  0  0  0  0  0
   37.9534   33.9285   26.6026 C   0  0  0  0  0  0  0  0  0  0  0  0
   39.0315   34.1190   27.4567 N   0  0  0  0  0  0  0  0  0  0  0  0
   37.7370   34.8603   25.6431 N   0  0  0  0  0  0  0  0  0  0  0  0
   36.6124   34.5694   24.8768 C   0  0  0  0  0  0  0  0  0  0  0  0
   35.7750   33.4570   25.0252 C   0  0  0  0  0  0  0  0  0  0  0  0
   36.0145   32.5074   26.0293 C   0  0  0  0  0  0  0  0  0  0  0  0
   35.3521   31.5090   26.2708 O   0  0  0  0  0  0  0  0  0  0  0  0
   34.7475   33.5235   24.0564 C   0  0  0  0  0  0  0  0  0  0  0  0
   34.9766   34.6763   23.3216 C   0  0  0  0  0  0  0  0  0  0  0  0
   36.1330   35.3256   23.8230 N   0  0  0  0  0  0  0  0  0  0  0  0
   33.6567   32.5179   23.9392 C   0  0  0  0  0  0  0  0  0  0  0  0
   32.8582   32.7492   22.7254 N   0  0  0  0  0  0  0  0  0  0  0  0
  1  2  1  0  0  0  0
  1  7  1  0  0  0  0
  2  3  1  0  0  0  0
  2  4  2  0  0  0  0
  4  5  1  0  0  0  0
  5  6  2  0  0  0  0
  5 11  1  0  0  0  0
  6  7  1  0  0  0  0
  6  9  1  0  0  0  0
  7  8  2  0  0  0  0
  9 10  2  0  0  0  0
  9 12  1  0  0  0  0
 10 11  1  0  0  0  0
 12 13  1  0  0  0  0
M  END
>  <CHROM.1>
-171.83932922,35.99187649,33.54167677,25.14631246,0.28184741,0.61922463,2.44886730

>  <Name>
ligand

>  <RI>
0

>  <Rbt.Current_Directory>
/home/itssahil/PROJECTS/Mol_Feturizer/Test_systems_manuscript/rnas/3q50

>  <Rbt.Executable>
rbdock ($Id: //depot/dev/client3/rdock/2013.1/src/exe/rbdock.cxx#4 $)

>  <Rbt.Library>
libRbt.so (2013.1, Build901 2013/11/27)

>  <Rbt.Parameter_File>
/export/apps/rDock/src/rDock_2013.1_src/data/scripts/dock_solv.prm

>  <Rbt.Receptor>
prm/pocket_docking_6.prm

>  <SCORE>
-17.1162

>  <SCORE.INTER>
-17.118

>  <SCORE.INTER.CONST>
1

>  <SCORE.INTER.POLAR>
0

>  <SCORE.INTER.ROT>
1

>  <SCORE.INTER.SOLV>
16.518

>  <SCORE.INTER.VDW>
-21.1847

>  <SCORE.INTER.norm>
-1.31677

>  <SCORE.INTRA>
0.00176455

>  <SCORE.INTRA.DIHEDRAL>
0.00176807

>  <SCORE.INTRA.DIHEDRAL.0>
1.65305

>  <SCORE.INTRA.POLAR>
0

>  <SCORE.INTRA.POLAR.0>
0

>  <SCORE.INTRA.REPUL>
0

>  <SCORE.INTRA.REPUL.0>
0

>  <SCORE.INTRA.SOLV>
0.000139206

>  <SCORE.INTRA.SOLV.lig_0>
-46.9527

>  <SCORE.INTRA.VDW>
0.000810909

>  <SCORE.INTRA.VDW.0>
-0.177978

>  <SCORE.INTRA.norm>
0.000135734

>  <SCORE.RESTR>
0

>  <SCORE.RESTR.CAVITY>
0

>  <SCORE.RESTR.norm>
0

>  <SCORE.SYSTEM>
0

>  <SCORE.SYSTEM.CONST>
0

>  <SCORE.SYSTEM.DIHEDRAL>
0

>  <SCORE.SYSTEM.SOLV>
0

>  <SCORE.SYSTEM.norm>
0

>  <SCORE.heavy>
13

>  <SCORE.norm>
-1.31663

>  <RMSD>
4.866

$$$$
ligand
 OpenBabel02271912143D
libRbt.so/2013.1/901 2013/11/27
 13 14  0  0  0  0  0  0  0  0999 V2000
   37.1525   32.8379   26.8524 N   0  0  0  0  0  0  0  0  0  0  0  0
   37.9478   33.9739   26.6151 C   0  0  0  0  0  0  0  0  0  0  0  0
   39.0218   34.1702   27.4729 N   0  0  0  0  0  0  0  0  0  0  0  0
   37.7360   34.8992   25.6483 N   0  0  0  0  0  0  0  0  0  0  0  0
   36.6150   34.6032   24.8787 C   0  0  0  0  0  0  0  0  0  0  0  0
   35.7768   33.4919   25.0306 C   0  0  0  0  0  0  0  0  0  0  0  0
   36.0115   32.5491   26.0422 C   0  0  0  0  0  0  0  0  0  0  0  0
   35.3479   31.5524   26.2874 O   0  0  0  0  0  0  0  0  0  0  0  0
   34.7539   33.5519   24.0566 C   0  0  0  0  0  0  0  0  0  0  0  0
   34.9866   34.6997   23.3150 C   0  0  0  0  0  0  0  0  0  0  0  0
   36.1407   35.3523   23.8174 N   0  0  0  0  0  0  0  0  0  0  0  0
   33.6636   32.5456   23.9411 C   0  0  0  0  0  0  0  0  0  0  0  0
   32.9242   32.7156   22.6805 N   0  0  0  0  0  0  0  0  0  0  0  0
  1  2  1  0  0  0  0
  1  7  1  0  0  0  0
  2  3  1  0  0  0  0
  2  4  2  0  0  0  0
  4  5  1  0  0  0  0
  5  6  2  0  0  0  0
  5 11  1  0  0  0  0
  6  7  1  0  0  0  0
  6  9  1  0  0  0  0
  7  8  2  0  0  0  0
  9 10  2  0  0  0  0
  9 12  1  0  0  0  0
 10 11  1  0  0  0  0
 12 13  1  0  0  0  0
M  END
>  <CHROM.1>
-168.25588284,35.99747892,33.57308834,25.14881007,0.28496402,0.62889320,2.43884332

>  <Name>
ligand

>  <RI>
0

>  <Rbt.Current_Directory>
/home/itssahil/PROJECTS/Mol_Feturizer/Test_systems_manuscript/rnas/3q50

>  <Rbt.Executable>
rbdock ($Id: //depot/dev/client3/rdock/2013.1/src/exe/rbdock.cxx#4 $)

>  <Rbt.Library>
libRbt.so (2013.1, Build901 2013/11/27)

>  <Rbt.Parameter_File>
/export/apps/rDock/src/rDock_2013.1_src/data/scripts/dock_solv.prm

>  <Rbt.Receptor>
prm/pocket_docking_7.prm

>  <SCORE>
-17.0787

>  <SCORE.INTER>
-17.0706

>  <SCORE.INTER.CONST>
1

>  <SCORE.INTER.POLAR>
0

>  <SCORE.INTER.ROT>
1

>  <SCORE.INTER.SOLV>
16.4477

>  <SCORE.INTER.VDW>
-21.1296

>  <SCORE.INTER.norm>
-1.31312

>  <SCORE.INTRA>
-0.00804518

>  <SCORE.INTRA.DIHEDRAL>
-0.00724773

>  <SCORE.INTRA.DIHEDRAL.0>
1.65305

>  <SCORE.INTRA.POLAR>
0

>  <SCORE.INTRA.POLAR.0>
0

>  <SCORE.INTRA.REPUL>
0

>  <SCORE.INTRA.REPUL.0>
0

>  <SCORE.INTRA.SOLV>
-0.000646239

>  <SCORE.INTRA.SOLV.lig_0>
-46.9527

>  <SCORE.INTRA.VDW>
-0.00409819

>  <SCORE.INTRA.VDW.0>
-0.177978

>  <SCORE.INTRA.norm>
-0.00061886

>  <SCORE.RESTR>
0

>  <SCORE.RESTR.CAVITY>
0

>  <SCORE.RESTR.norm>
0

>  <SCORE.SYSTEM>
0

>  <SCORE.SYSTEM.CONST>
0

>  <SCORE.SYSTEM.DIHEDRAL>
0

>  <SCORE.SYSTEM.SOLV>
0

>  <SCORE.SYSTEM.norm>
0

>  <SCORE.heavy>
13

>  <SCORE.norm>
-1.31374

>  <RMSD>
4.866

$$$$
ligand
 OpenBabel02271912143D
libRbt.so/2013.1/901 2013/11/27
 13 14  0  0  0  0  0  0  0  0999 V2000
   37.1320   32.8133   26.8736 N   0  0  0  0  0  0  0  0  0  0  0  0
   37.9222   33.9553   26.6482 C   0  0  0  0  0  0  0  0  0  0  0  0
   38.9867   34.1551   27.5170 N   0  0  0  0  0  0  0  0  0  0  0  0
   37.7137   34.8829   25.6829 N   0  0  0  0  0  0  0  0  0  0  0  0
   36.6021   34.5827   24.9015 C   0  0  0  0  0  0  0  0  0  0  0  0
   35.7697   33.4654   25.0411 C   0  0  0  0  0  0  0  0  0  0  0  0
   36.0008   32.5203   26.0513 C   0  0  0  0  0  0  0  0  0  0  0  0
   35.3413   31.5184   26.2863 O   0  0  0  0  0  0  0  0  0  0  0  0
   34.7558   33.5226   24.0575 C   0  0  0  0  0  0  0  0  0  0  0  0
   34.9882   34.6748   23.3226 C   0  0  0  0  0  0  0  0  0  0  0  0
   36.1332   35.3328   23.8386 N   0  0  0  0  0  0  0  0  0  0  0  0
   33.6732   32.5098   23.9277 C   0  0  0  0  0  0  0  0  0  0  0  0
   32.9407   32.6840   22.6637 N   0  0  0  0  0  0  0  0  0  0  0  0
  1  2  1  0  0  0  0
  1  7  1  0  0  0  0
  2  3  1  0  0  0  0
  2  4  2  0  0  0  0
  4  5  1  0  0  0  0
  5  6  2  0  0  0  0
  5 11  1  0  0  0  0
  6  7  1  0  0  0  0
  6  9  1  0  0  0  0
  7  8  2  0  0  0  0
  9 10  2  0  0  0  0
  9 12  1  0  0  0  0
 10 11  1  0  0  0  0
 12 13  1  0  0  0  0
M  END
>  <CHROM.1>
-168.52731366,35.98837134,33.54791865,25.16195192,0.28662195,0.63991903,2.44181322

>  <Name>
ligand

>  <RI>
0

>  <Rbt.Current_Directory>
/home/itssahil/PROJECTS/Mol_Feturizer/Test_systems_manuscript/rnas/3q50

>  <Rbt.Executable>
rbdock ($Id: //depot/dev/client3/rdock/2013.1/src/exe/rbdock.cxx#4 $)

>  <Rbt.Library>
libRbt.so (2013.1, Build901 2013/11/27)

>  <Rbt.Parameter_File>
/export/apps/rDock/src/rDock_2013.1_src/data/scripts/dock_solv.prm

>  <Rbt.Receptor>
prm/pocket_docking_7.prm

>  <SCORE>
-17.0905

>  <SCORE.INTER>
-17.0832

>  <SCORE.INTER.CONST>
1

>  <SCORE.INTER.POLAR>
0

>  <SCORE.INTER.ROT>
1

>  <SCORE.INTER.SOLV>
16.5556

>  <SCORE.INTER.VDW>
-21.174

>  <SCORE.INTER.norm>
-1.31409

>  <SCORE.INTRA>
-0.00727054

>  <SCORE.INTRA.DIHEDRAL>
-0.0066031

>  <SCORE.INTRA.DIHEDRAL.0>
1.65305

>  <SCORE.INTRA.POLAR>
0

>  <SCORE.INTRA.POLAR.0>
0

>  <SCORE.INTRA.REPUL>
0

>  <SCORE.INTRA.REPUL.0>
0

>  <SCORE.INTRA.SOLV>
-0.000583133

>  <SCORE.INTRA.SOLV.lig_0>
-46.9527

>  <SCORE.INTRA.VDW>
-0.00367743

>  <SCORE.INTRA.VDW.0>
-0.177978

>  <SCORE.INTRA.norm>
-0.000559272

>  <SCORE.RESTR>
0

>  <SCORE.RESTR.CAVITY>
0

>  <SCORE.RESTR.norm>
0

>  <SCORE.SYSTEM>
0

>  <SCORE.SYSTEM.CONST>
0

>  <SCORE.SYSTEM.DIHEDRAL>
0

>  <SCORE.SYSTEM.SOLV>
0

>  <SCORE.SYSTEM.norm>
0

>  <SCORE.heavy>
13

>  <SCORE.norm>
-1.31465

>  <RMSD>
4.866

$$$$
ligand
 OpenBabel02271912143D
libRbt.so/2013.1/901 2013/11/27
 13 14  0  0  0  0  0  0  0  0999 V2000
   37.1566   32.8173   26.8142 N   0  0  0  0  0  0  0  0  0  0  0  0
   37.9407   33.9610   26.5767 C   0  0  0  0  0  0  0  0  0  0  0  0
   39.0202   34.1612   27.4268 N   0  0  0  0  0  0  0  0  0  0  0  0
   37.7136   34.8899   25.6168 N   0  0  0  0  0  0  0  0  0  0  0  0
   36.5887   34.5891   24.8548 C   0  0  0  0  0  0  0  0  0  0  0  0
   35.7607   33.4703   25.0074 C   0  0  0  0  0  0  0  0  0  0  0  0
   36.0113   32.5238   26.0117 C   0  0  0  0  0  0  0  0  0  0  0  0
   35.3578   31.5205   26.2567 O   0  0  0  0  0  0  0  0  0  0  0  0
   34.7294   33.5274   24.0421 C   0  0  0  0  0  0  0  0  0  0  0  0
   34.9468   34.6812   23.3051 C   0  0  0  0  0  0  0  0  0  0  0  0
   36.0996   35.3402   23.8017 N   0  0  0  0  0  0  0  0  0  0  0  0
   33.6463   32.5130   23.9299 C   0  0  0  0  0  0  0  0  0  0  0  0
   32.8904   32.6888   22.6800 N   0  0  0  0  0  0  0  0  0  0  0  0
  1  2  1  0  0  0  0
  1  7  1  0  0  0  0
  2  3  1  0  0  0  0
  2  4  2  0  0  0  0
  4  5  1  0  0  0  0
  5  6  2  0  0  0  0
  5 11  1  0  0  0  0
  6  7  1  0  0  0  0
  6  9  1  0  0  0  0
  7  8  2  0  0  0  0
  9 10  2  0  0  0  0
  9 12  1  0  0  0  0
 10 11  1  0  0  0  0
 12 13  1  0  0  0  0
M  END
>  <CHROM.1>
-168.57644085,35.98131307,33.55295580,25.12450709,0.27091639,0.62720212,2.45280035

>  <Name>
ligand

>  <RI>
0

>  <Rbt.Current_Directory>
/home/itssahil/PROJECTS/Mol_Feturizer/Test_systems_manuscript/rnas/3q50

>  <Rbt.Executable>
rbdock ($Id: //depot/dev/client3/rdock/2013.1/src/exe/rbdock.cxx#4 $)

>  <Rbt.Library>
libRbt.so (2013.1, Build901 2013/11/27)

>  <Rbt.Parameter_File>
/export/apps/rDock/src/rDock_2013.1_src/data/scripts/dock_solv.prm

>  <Rbt.Receptor>
prm/pocket_docking_7.prm

>  <SCORE>
-17.1024

>  <SCORE.INTER>
-17.0953

>  <SCORE.INTER.CONST>
1

>  <SCORE.INTER.POLAR>
0

>  <SCORE.INTER.ROT>
1

>  <SCORE.INTER.SOLV>
16.5802

>  <SCORE.INTER.VDW>
-21.1902

>  <SCORE.INTER.norm>
-1.31502

>  <SCORE.INTRA>
-0.00713083

>  <SCORE.INTRA.DIHEDRAL>
-0.0064857

>  <SCORE.INTRA.DIHEDRAL.0>
1.65305

>  <SCORE.INTRA.POLAR>
0

>  <SCORE.INTRA.POLAR.0>
0

>  <SCORE.INTRA.REPUL>
0

>  <SCORE.INTRA.REPUL.0>
0

>  <SCORE.INTRA.SOLV>
-0.000571772

>  <SCORE.INTRA.SOLV.lig_0>
-46.9527

>  <SCORE.INTRA.VDW>
-0.00360209

>  <SCORE.INTRA.VDW.0>
-0.177978

>  <SCORE.INTRA.norm>
-0.000548525

>  <SCORE.RESTR>
0

>  <SCORE.RESTR.CAVITY>
0

>  <SCORE.RESTR.norm>
0

>  <SCORE.SYSTEM>
0

>  <SCORE.SYSTEM.CONST>
0

>  <SCORE.SYSTEM.DIHEDRAL>
0

>  <SCORE.SYSTEM.SOLV>
0

>  <SCORE.SYSTEM.norm>
0

>  <SCORE.heavy>
13

>  <SCORE.norm>
-1.31557

>  <RMSD>
4.866

$$$$
ligand
 OpenBabel02271912143D
libRbt.so/2013.1/901 2013/11/27
 13 14  0  0  0  0  0  0  0  0999 V2000
   37.1706   32.8383   26.8572 N   0  0  0  0  0  0  0  0  0  0  0  0
   37.9702   33.9723   26.6249 C   0  0  0  0  0  0  0  0  0  0  0  0
   39.0451   34.1606   27.4836 N   0  0  0  0  0  0  0  0  0  0  0  0
   37.7620   34.9028   25.6623 N   0  0  0  0  0  0  0  0  0  0  0  0
   36.6398   34.6145   24.8915 C   0  0  0  0  0  0  0  0  0  0  0  0
   35.7974   33.5058   25.0385 C   0  0  0  0  0  0  0  0  0  0  0  0
   36.0285   32.5576   26.0458 C   0  0  0  0  0  0  0  0  0  0  0  0
   35.3611   31.5623   26.2865 O   0  0  0  0  0  0  0  0  0  0  0  0
   34.7747   33.5741   24.0648 C   0  0  0  0  0  0  0  0  0  0  0  0
   35.0118   34.7244   23.3284 C   0  0  0  0  0  0  0  0  0  0  0  0
   36.1684   35.3702   23.8337 N   0  0  0  0  0  0  0  0  0  0  0  0
   33.6805   32.5725   23.9448 C   0  0  0  0  0  0  0  0  0  0  0  0
   32.8640   32.8285   22.7480 N   0  0  0  0  0  0  0  0  0  0  0  0
  1  2  1  0  0  0  0
  1  7  1  0  0  0  0
  2  3  1  0  0  0  0
  2  4  2  0  0  0  0
  4  5  1  0  0  0  0
  5  6  2  0  0  0  0
  5 11  1  0  0  0  0
  6  7  1  0  0  0  0
  6  9  1  0  0  0  0
  7  8  2  0  0  0  0
  9 10  2  0  0  0  0
  9 12  1  0  0  0  0
 10 11  1  0  0  0  0
 12 13  1  0  0  0  0
M  END
>  <CHROM.1>
-173.53268606,36.01205589,33.59188206,25.16212502,0.28938849,0.61739028,2.44282421

>  <Name>
ligand

>  <RI>
0

>  <Rbt.Current_Directory>
/home/itssahil/PROJECTS/Mol_Feturizer/Test_systems_manuscript/rnas/3q50

>  <Rbt.Executable>
rbdock ($Id: //depot/dev/client3/rdock/2013.1/src/exe/rbdock.cxx#4 $)

>  <Rbt.Library>
libRbt.so (2013.1, Build901 2013/11/27)

>  <Rbt.Parameter_File>
/export/apps/rDock/src/rDock_2013.1_src/data/scripts/dock_solv.prm

>  <Rbt.Receptor>
prm/pocket_docking_4.prm

>  <SCORE>
-17.0892

>  <SCORE.INTER>
-17.0952

>  <SCORE.INTER.CONST>
1

>  <SCORE.INTER.POLAR>
0

>  <SCORE.INTER.ROT>
1

>  <SCORE.INTER.SOLV>
16.3893

>  <SCORE.INTER.VDW>
-21.1266

>  <SCORE.INTER.norm>
-1.31502

>  <SCORE.INTRA>
0.00603253

>  <SCORE.INTRA.DIHEDRAL>
0.00635672

>  <SCORE.INTRA.DIHEDRAL.0>
1.65305

>  <SCORE.INTRA.POLAR>
0

>  <SCORE.INTRA.POLAR.0>
0

>  <SCORE.INTRA.REPUL>
0

>  <SCORE.INTRA.REPUL.0>
0

>  <SCORE.INTRA.SOLV>
0.000472614

>  <SCORE.INTRA.SOLV.lig_0>
-46.9527

>  <SCORE.INTRA.VDW>
0.00261787

>  <SCORE.INTRA.VDW.0>
-0.177978

>  <SCORE.INTRA.norm>
0.000464041

>  <SCORE.RESTR>
0

>  <SCORE.RESTR.CAVITY>
0

>  <SCORE.RESTR.norm>
0

>  <SCORE.SYSTEM>
0

>  <SCORE.SYSTEM.CONST>
0

>  <SCORE.SYSTEM.DIHEDRAL>
0

>  <SCORE.SYSTEM.SOLV>
0

>  <SCORE.SYSTEM.norm>
0

>  <SCORE.heavy>
13

>  <SCORE.norm>
-1.31455

>  <RMSD>
4.867

$$$$
ligand
 OpenBabel02271912143D
libRbt.so/2013.1/901 2013/11/27
 13 14  0  0  0  0  0  0  0  0999 V2000
   37.1396   32.8690   26.8482 N   0  0  0  0  0  0  0  0  0  0  0  0
   37.9173   34.0165   26.6081 C   0  0  0  0  0  0  0  0  0  0  0  0
   38.9883   34.2313   27.4654 N   0  0  0  0  0  0  0  0  0  0  0  0
   37.6913   34.9362   25.6391 N   0  0  0  0  0  0  0  0  0  0  0  0
   36.5750   34.6212   24.8703 C   0  0  0  0  0  0  0  0  0  0  0  0
   35.7540   33.4975   25.0250 C   0  0  0  0  0  0  0  0  0  0  0  0
   36.0032   32.5608   26.0388 C   0  0  0  0  0  0  0  0  0  0  0  0
   35.3549   31.5546   26.2863 O   0  0  0  0  0  0  0  0  0  0  0  0
   34.7302   33.5395   24.0509 C   0  0  0  0  0  0  0  0  0  0  0  0
   34.9453   34.6890   23.3066 C   0  0  0  0  0  0  0  0  0  0  0  0
   36.0892   35.3604   23.8074 N   0  0  0  0  0  0  0  0  0  0  0  0
   33.6555   32.5163   23.9378 C   0  0  0  0  0  0  0  0  0  0  0  0
   32.7011   32.8730   22.8765 N   0  0  0  0  0  0  0  0  0  0  0  0
  1  2  1  0  0  0  0
  1  7  1  0  0  0  0
  2  3  1  0  0  0  0
  2  4  2  0  0  0  0
  4  5  1  0  0  0  0
  5  6  2  0  0  0  0
  5 11  1  0  0  0  0
  6  7  1  0  0  0  0
  6  9  1  0  0  0  0
  7  8  2  0  0  0  0
  9 10  2  0  0  0  0
  9 12  1  0  0  0  0
 10 11  1  0  0  0  0
 12 13  1  0  0  0  0
M  END
>  <CHROM.1>
176.94165431,35.95608474,33.59869875,25.15917511,0.27047176,0.61331976,2.44938494

>  <Name>
ligand

>  <RI>
0

>  <Rbt.Current_Directory>
/home/itssahil/PROJECTS/Mol_Feturizer/Test_systems_manuscript/rnas/3q50

>  <Rbt.Executable>
rbdock ($Id: //depot/dev/client3/rdock/2013.1/src/exe/rbdock.cxx#4 $)

>  <Rbt.Library>
libRbt.so (2013.1, Build901 2013/11/27)

>  <Rbt.Parameter_File>
/export/apps/rDock/src/rDock_2013.1_src/data/scripts/dock_solv.prm

>  <Rbt.Receptor>
prm/pocket_docking_4.prm

>  <SCORE>
-17.089

>  <SCORE.INTER>
-17.113

>  <SCORE.INTER.CONST>
1

>  <SCORE.INTER.POLAR>
0

>  <SCORE.INTER.ROT>
1

>  <SCORE.INTER.SOLV>
16.8084

>  <SCORE.INTER.VDW>
-21.2781

>  <SCORE.INTER.norm>
-1.31638

>  <SCORE.INTRA>
0.0239638

>  <SCORE.INTRA.DIHEDRAL>
0.0340909

>  <SCORE.INTRA.DIHEDRAL.0>
1.65305

>  <SCORE.INTRA.POLAR>
0

>  <SCORE.INTRA.POLAR.0>
0

>  <SCORE.INTRA.REPUL>
0

>  <SCORE.INTRA.REPUL.0>
0

>  <SCORE.INTRA.SOLV>
0.00185062

>  <SCORE.INTRA.SOLV.lig_0>
-46.9527

>  <SCORE.INTRA.VDW>
0.00599301

>  <SCORE.INTRA.VDW.0>
-0.177978

>  <SCORE.INTRA.norm>
0.00184337

>  <SCORE.RESTR>
0

>  <SCORE.RESTR.CAVITY>
0

>  <SCORE.RESTR.norm>
0

>  <SCORE.SYSTEM>
0

>  <SCORE.SYSTEM.CONST>
0

>  <SCORE.SYSTEM.DIHEDRAL>
0

>  <SCORE.SYSTEM.SOLV>
0

>  <SCORE.SYSTEM.norm>
0

>  <SCORE.heavy>
13

>  <SCORE.norm>
-1.31454

>  <RMSD>
4.867

$$$$
ligand
 OpenBabel02271912143D
libRbt.so/2013.1/901 2013/11/27
 13 14  0  0  0  0  0  0  0  0999 V2000
   37.1256   32.8584   26.8408 N   0  0  0  0  0  0  0  0  0  0  0  0
   37.9326   33.9799   26.5759 C   0  0  0  0  0  0  0  0  0  0  0  0
   39.0080   34.1866   27.4296 N   0  0  0  0  0  0  0  0  0  0  0  0
   37.7310   34.8828   25.5860 N   0  0  0  0  0  0  0  0  0  0  0  0
   36.6076   34.5791   24.8230 C   0  0  0  0  0  0  0  0  0  0  0  0
   35.7580   33.4805   25.0019 C   0  0  0  0  0  0  0  0  0  0  0  0
   35.9823   32.5610   26.0370 C   0  0  0  0  0  0  0  0  0  0  0  0
   35.3084   31.5776   26.3063 O   0  0  0  0  0  0  0  0  0  0  0  0
   34.7364   33.5265   24.0257 C   0  0  0  0  0  0  0  0  0  0  0  0
   34.9814   34.6531   23.2559 C   0  0  0  0  0  0  0  0  0  0  0  0
   36.1417   35.3062   23.7429 N   0  0  0  0  0  0  0  0  0  0  0  0
   33.6360   32.5288   23.9343 C   0  0  0  0  0  0  0  0  0  0  0  0
   32.8866   32.6879   22.6783 N   0  0  0  0  0  0  0  0  0  0  0  0
  1  2  1  0  0  0  0
  1  7  1  0  0  0  0
  2  3  1  0  0  0  0
  2  4  2  0  0  0  0
  4  5  1  0  0  0  0
  5  6  2  0  0  0  0
  5 11  1  0  0  0  0
  6  7  1  0  0  0  0
  6  9  1  0  0  0  0
  7  8  2  0  0  0  0
  9 10  2  0  0  0  0
  9 12  1  0  0  0  0
 10 11  1  0  0  0  0
 12 13  1  0  0  0  0
M  END
>  <CHROM.1>
-169.10742515,35.97835200,33.56345932,25.11897829,0.29531875,0.62135894,2.40812600

>  <Name>
ligand

>  <RI>
0

>  <Rbt.Current_Directory>
/home/itssahil/PROJECTS/Mol_Feturizer/Test_systems_manuscript/rnas/3q50

>  <Rbt.Executable>
rbdock ($Id: //depot/dev/client3/rdock/2013.1/src/exe/rbdock.cxx#4 $)

>  <Rbt.Library>
libRbt.so (2013.1, Build901 2013/11/27)

>  <Rbt.Parameter_File>
/export/apps/rDock/src/rDock_2013.1_src/data/scripts/dock_solv.prm

>  <Rbt.Receptor>
prm/pocket_docking_4.prm

>  <SCORE>
-17.0511

>  <SCORE.INTER>
-17.0455

>  <SCORE.INTER.CONST>
1

>  <SCORE.INTER.POLAR>
0

>  <SCORE.INTER.ROT>
1

>  <SCORE.INTER.SOLV>
16.5723

>  <SCORE.INTER.VDW>
-21.1544

>  <SCORE.INTER.norm>
-1.31119

>  <SCORE.INTRA>
-0.00563067

>  <SCORE.INTRA.DIHEDRAL>
-0.00520282

>  <SCORE.INTRA.DIHEDRAL.0>
1.65305

>  <SCORE.INTRA.POLAR>
0

>  <SCORE.INTRA.POLAR.0>
0

>  <SCORE.INTRA.REPUL>
0

>  <SCORE.INTRA.REPUL.0>
0

>  <SCORE.INTRA.SOLV>
-0.000450184

>  <SCORE.INTRA.SOLV.lig_0>
-46.9527

>  <SCORE.INTRA.VDW>
-0.00280417

>  <SCORE.INTRA.VDW.0>
-0.177978

>  <SCORE.INTRA.norm>
-0.000433128

>  <SCORE.RESTR>
0

>  <SCORE.RESTR.CAVITY>
0

>  <SCORE.RESTR.norm>
0

>  <SCORE.SYSTEM>
0

>  <SCORE.SYSTEM.CONST>
0

>  <SCORE.SYSTEM.DIHEDRAL>
0

>  <SCORE.SYSTEM.SOLV>
0

>  <SCORE.SYSTEM.norm>
0

>  <SCORE.heavy>
13

>  <SCORE.norm>
-1.31162

>  <RMSD>
4.867

$$$$
ligand
 OpenBabel02271912143D
libRbt.so/2013.1/901 2013/11/27
 13 14  0  0  0  0  0  0  0  0999 V2000
   37.1642   32.8201   26.8270 N   0  0  0  0  0  0  0  0  0  0  0  0
   37.9490   33.9635   26.5904 C   0  0  0  0  0  0  0  0  0  0  0  0
   39.0266   34.1641   27.4428 N   0  0  0  0  0  0  0  0  0  0  0  0
   37.7241   34.8918   25.6294 N   0  0  0  0  0  0  0  0  0  0  0  0
   36.6009   34.5906   24.8651 C   0  0  0  0  0  0  0  0  0  0  0  0
   35.7725   33.4719   25.0166 C   0  0  0  0  0  0  0  0  0  0  0  0
   36.0207   32.5262   26.0222 C   0  0  0  0  0  0  0  0  0  0  0  0
   35.3665   31.5231   26.2664 O   0  0  0  0  0  0  0  0  0  0  0  0
   34.7433   33.5285   24.0490 C   0  0  0  0  0  0  0  0  0  0  0  0
   34.9625   34.6817   23.3117 C   0  0  0  0  0  0  0  0  0  0  0  0
   36.1143   35.3410   23.8104 N   0  0  0  0  0  0  0  0  0  0  0  0
   33.6603   32.5141   23.9351 C   0  0  0  0  0  0  0  0  0  0  0  0
   32.9274   32.6692   22.6689 N   0  0  0  0  0  0  0  0  0  0  0  0
  1  2  1  0  0  0  0
  1  7  1  0  0  0  0
  2  3  1  0  0  0  0
  2  4  2  0  0  0  0
  4  5  1  0  0  0  0
  5  6  2  0  0  0  0
  5 11  1  0  0  0  0
  6  7  1  0  0  0  0
  6  9  1  0  0  0  0
  7  8  2  0  0  0  0
  9 10  2  0  0  0  0
  9 12  1  0  0  0  0
 10 11  1  0  0  0  0
 12 13  1  0  0  0  0
M  END
>  <CHROM.1>
-167.25089808,35.99446011,33.55305134,25.13299066,0.27240768,0.63108437,2.45067427

>  <Name>
ligand

>  <RI>
0

>  <Rbt.Current_Directory>
/home/itssahil/PROJECTS/Mol_Feturizer/Test_systems_manuscript/rnas/3q50

>  <Rbt.Executable>
rbdock ($Id: //depot/dev/client3/rdock/2013.1/src/exe/rbdock.cxx#4 $)

>  <Rbt.Library>
libRbt.so (2013.1, Build901 2013/11/27)

>  <Rbt.Parameter_File>
/export/apps/rDock/src/rDock_2013.1_src/data/scripts/dock_solv.prm

>  <Rbt.Receptor>
prm/pocket_docking_4.prm

>  <SCORE>
-17.0824

>  <SCORE.INTER>
-17.0715

>  <SCORE.INTER.CONST>
1

>  <SCORE.INTER.POLAR>
0

>  <SCORE.INTER.ROT>
1

>  <SCORE.INTER.SOLV>
16.5207

>  <SCORE.INTER.VDW>
-21.1545

>  <SCORE.INTER.norm>
-1.31319

>  <SCORE.INTRA>
-0.0109511

>  <SCORE.INTRA.DIHEDRAL>
-0.00957336

>  <SCORE.INTRA.DIHEDRAL.0>
1.65305

>  <SCORE.INTRA.POLAR>
0

>  <SCORE.INTRA.POLAR.0>
0

>  <SCORE.INTRA.REPUL>
0

>  <SCORE.INTRA.REPUL.0>
0

>  <SCORE.INTRA.SOLV>
-0.000884771

>  <SCORE.INTRA.SOLV.lig_0>
-46.9527

>  <SCORE.INTRA.VDW>
-0.00572206

>  <SCORE.INTRA.VDW.0>
-0.177978

>  <SCORE.INTRA.norm>
-0.000842394

>  <SCORE.RESTR>
0

>  <SCORE.RESTR.CAVITY>
0

>  <SCORE.RESTR.norm>
0

>  <SCORE.SYSTEM>
0

>  <SCORE.SYSTEM.CONST>
0

>  <SCORE.SYSTEM.DIHEDRAL>
0

>  <SCORE.SYSTEM.SOLV>
0

>  <SCORE.SYSTEM.norm>
0

>  <SCORE.heavy>
13

>  <SCORE.norm>
-1.31403

>  <RMSD>
4.867

$$$$
ligand
 OpenBabel02271912143D
libRbt.so/2013.1/901 2013/11/27
 13 14  0  0  0  0  0  0  0  0999 V2000
   37.1146   32.8613   26.8536 N   0  0  0  0  0  0  0  0  0  0  0  0
   37.9190   33.9855   26.5919 C   0  0  0  0  0  0  0  0  0  0  0  0
   38.9914   34.1946   27.4487 N   0  0  0  0  0  0  0  0  0  0  0  0
   37.7174   34.8887   25.6023 N   0  0  0  0  0  0  0  0  0  0  0  0
   36.5970   34.5822   24.8359 C   0  0  0  0  0  0  0  0  0  0  0  0
   35.7502   33.4810   25.0115 C   0  0  0  0  0  0  0  0  0  0  0  0
   35.9744   32.5612   26.0463 C   0  0  0  0  0  0  0  0  0  0  0  0
   35.3027   31.5755   26.3130 O   0  0  0  0  0  0  0  0  0  0  0  0
   34.7312   33.5248   24.0325 C   0  0  0  0  0  0  0  0  0  0  0  0
   34.9749   34.6528   23.2643 C   0  0  0  0  0  0  0  0  0  0  0  0
   36.1319   35.3089   23.7552 N   0  0  0  0  0  0  0  0  0  0  0  0
   33.6340   32.5239   23.9372 C   0  0  0  0  0  0  0  0  0  0  0  0
   32.9601   32.6069   22.6320 N   0  0  0  0  0  0  0  0  0  0  0  0
  1  2  1  0  0  0  0
  1  7  1  0  0  0  0
  2  3  1  0  0  0  0
  2  4  2  0  0  0  0
  4  5  1  0  0  0  0
  5  6  2  0  0  0  0
  5 11  1  0  0  0  0
  6  7  1  0  0  0  0
  6  9  1  0  0  0  0
  7  8  2  0  0  0  0
  9 10  2  0  0  0  0
  9 12  1  0  0  0  0
 10 11  1  0  0  0  0
 12 13  1  0  0  0  0
M  END
>  <CHROM.1>
-164.33447519,35.97588347,33.55839295,25.12536594,0.29339250,0.63344922,2.40799568

>  <Name>
ligand

>  <RI>
0

>  <Rbt.Current_Directory>
/home/itssahil/PROJECTS/Mol_Feturizer/Test_systems_manuscript/rnas/3q50

>  <Rbt.Executable>
rbdock ($Id: //depot/dev/client3/rdock/2013.1/src/exe/rbdock.cxx#4 $)

>  <Rbt.Library>
libRbt.so (2013.1, Build901 2013/11/27)

>  <Rbt.Parameter_File>
/export/apps/rDock/src/rDock_2013.1_src/data/scripts/dock_solv.prm

>  <Rbt.Receptor>
prm/pocket_docking_5.prm

>  <SCORE>
-17.0382

>  <SCORE.INTER>
-17.0186

>  <SCORE.INTER.CONST>
1

>  <SCORE.INTER.POLAR>
0

>  <SCORE.INTER.ROT>
1

>  <SCORE.INTER.SOLV>
16.5854

>  <SCORE.INTER.VDW>
-21.1408

>  <SCORE.INTER.norm>
-1.30912

>  <SCORE.INTRA>
-0.019661

>  <SCORE.INTRA.DIHEDRAL>
-0.0157279

>  <SCORE.INTRA.DIHEDRAL.0>
1.65305

>  <SCORE.INTRA.POLAR>
0

>  <SCORE.INTRA.POLAR.0>
0

>  <SCORE.INTRA.REPUL>
0

>  <SCORE.INTRA.REPUL.0>
0

>  <SCORE.INTRA.SOLV>
-0.00161797

>  <SCORE.INTRA.SOLV.lig_0>
-46.9527

>  <SCORE.INTRA.VDW>
-0.010988

>  <SCORE.INTRA.VDW.0>
-0.177978

>  <SCORE.INTRA.norm>
-0.00151238

>  <SCORE.RESTR>
0

>  <SCORE.RESTR.CAVITY>
0

>  <SCORE.RESTR.norm>
0

>  <SCORE.SYSTEM>
0

>  <SCORE.SYSTEM.CONST>
0

>  <SCORE.SYSTEM.DIHEDRAL>
0

>  <SCORE.SYSTEM.SOLV>
0

>  <SCORE.SYSTEM.norm>
0

>  <SCORE.heavy>
13

>  <SCORE.norm>
-1.31063

>  <RMSD>
4.867

$$$$
ligand
 OpenBabel02271912143D
libRbt.so/2013.1/901 2013/11/27
 13 14  0  0  0  0  0  0  0  0999 V2000
   37.1687   32.8462   26.8233 N   0  0  0  0  0  0  0  0  0  0  0  0
   37.9539   33.9868   26.5748 C   0  0  0  0  0  0  0  0  0  0  0  0
   39.0365   34.1915   27.4198 N   0  0  0  0  0  0  0  0  0  0  0  0
   37.7251   34.9090   25.6089 N   0  0  0  0  0  0  0  0  0  0  0  0
   36.5972   34.6044   24.8528 C   0  0  0  0  0  0  0  0  0  0  0  0
   35.7679   33.4881   25.0164 C   0  0  0  0  0  0  0  0  0  0  0  0
   36.0203   32.5487   26.0268 C   0  0  0  0  0  0  0  0  0  0  0  0
   35.3659   31.5482   26.2814 O   0  0  0  0  0  0  0  0  0  0  0  0
   34.7335   33.5398   24.0541 C   0  0  0  0  0  0  0  0  0  0  0  0
   34.9503   34.6878   23.3079 C   0  0  0  0  0  0  0  0  0  0  0  0
   36.1059   35.3485   23.7958 N   0  0  0  0  0  0  0  0  0  0  0  0
   33.6484   32.5264   23.9529 C   0  0  0  0  0  0  0  0  0  0  0  0
   32.9730   32.6094   22.6485 N   0  0  0  0  0  0  0  0  0  0  0  0
  1  2  1  0  0  0  0
  1  7  1  0  0  0  0
  2  3  1  0  0  0  0
  2  4  2  0  0  0  0
  4  5  1  0  0  0  0
  5  6  2  0  0  0  0
  5 11  1  0  0  0  0
  6  7  1  0  0  0  0
  6  9  1  0  0  0  0
  7  8  2  0  0  0  0
  9 10  2  0  0  0  0
  9 12  1  0  0  0  0
 10 11  1  0  0  0  0
 12 13  1  0  0  0  0
M  END
>  <CHROM.1>
-163.07146493,35.99590660,33.56440068,25.12761498,0.26780832,0.63287847,2.44490012

>  <Name>
ligand

>  <RI>
0

>  <Rbt.Current_Directory>
/home/itssahil/PROJECTS/Mol_Feturizer/Test_systems_manuscript/rnas/3q50

>  <Rbt.Executable>
rbdock ($Id: //depot/dev/client3/rdock/2013.1/src/exe/rbdock.cxx#4 $)

>  <Rbt.Library>
libRbt.so (2013.1, Build901 2013/11/27)

>  <Rbt.Parameter_File>
/export/apps/rDock/src/rDock_2013.1_src/data/scripts/dock_solv.prm

>  <Rbt.Receptor>
prm/pocket_docking_5.prm

>  <SCORE>
-17.0747

>  <SCORE.INTER>
-17.0512

>  <SCORE.INTER.CONST>
1

>  <SCORE.INTER.POLAR>
0

>  <SCORE.INTER.ROT>
1

>  <SCORE.INTER.SOLV>
16.5069

>  <SCORE.INTER.VDW>
-21.1364

>  <SCORE.INTER.norm>
-1.31163

>  <SCORE.INTRA>
-0.0235262

>  <SCORE.INTRA.DIHEDRAL>
-0.0180926

>  <SCORE.INTRA.DIHEDRAL.0>
1.65305

>  <SCORE.INTRA.POLAR>
0

>  <SCORE.INTRA.POLAR.0>
0

>  <SCORE.INTRA.REPUL>
0

>  <SCORE.INTRA.REPUL.0>
0

>  <SCORE.INTRA.SOLV>
-0.00195286

>  <SCORE.INTRA.SOLV.lig_0>
-46.9527

>  <SCORE.INTRA.VDW>
-0.0135035

>  <SCORE.INTRA.VDW.0>
-0.177978

>  <SCORE.INTRA.norm>
-0.00180971

>  <SCORE.RESTR>
0

>  <SCORE.RESTR.CAVITY>
0

>  <SCORE.RESTR.norm>
0

>  <SCORE.SYSTEM>
0

>  <SCORE.SYSTEM.CONST>
0

>  <SCORE.SYSTEM.DIHEDRAL>
0

>  <SCORE.SYSTEM.SOLV>
0

>  <SCORE.SYSTEM.norm>
0

>  <SCORE.heavy>
13

>  <SCORE.norm>
-1.31344

>  <RMSD>
4.867

$$$$
ligand
 OpenBabel02271912143D
libRbt.so/2013.1/901 2013/11/27
 13 14  0  0  0  0  0  0  0  0999 V2000
   37.1543   32.8424   26.8359 N   0  0  0  0  0  0  0  0  0  0  0  0
   37.9356   33.9881   26.5991 C   0  0  0  0  0  0  0  0  0  0  0  0
   39.0096   34.1949   27.4546 N   0  0  0  0  0  0  0  0  0  0  0  0
   37.7106   34.9132   25.6351 N   0  0  0  0  0  0  0  0  0  0  0  0
   36.5911   34.6059   24.8677 C   0  0  0  0  0  0  0  0  0  0  0  0
   35.7663   33.4845   25.0192 C   0  0  0  0  0  0  0  0  0  0  0  0
   36.0147   32.5422   26.0280 C   0  0  0  0  0  0  0  0  0  0  0  0
   35.3634   31.5372   26.2725 O   0  0  0  0  0  0  0  0  0  0  0  0
   34.7402   33.5348   24.0480 C   0  0  0  0  0  0  0  0  0  0  0  0
   34.9576   34.6870   23.3085 C   0  0  0  0  0  0  0  0  0  0  0  0
   36.1052   35.3518   23.8095 N   0  0  0  0  0  0  0  0  0  0  0  0
   33.6614   32.5162   23.9329 C   0  0  0  0  0  0  0  0  0  0  0  0
   32.9405   32.6572   22.6582 N   0  0  0  0  0  0  0  0  0  0  0  0
  1  2  1  0  0  0  0
  1  7  1  0  0  0  0
  2  3  1  0  0  0  0
  2  4  2  0  0  0  0
  4  5  1  0  0  0  0
  5  6  2  0  0  0  0
  5 11  1  0  0  0  0
  6  7  1  0  0  0  0
  6  9  1  0  0  0  0
  7  8  2  0  0  0  0
  9 10  2  0  0  0  0
  9 12  1  0  0  0  0
 10 11  1  0  0  0  0
 12 13  1  0  0  0  0
M  END
>  <CHROM.1>
-166.71155826,35.98825351,33.56609363,25.13567635,0.27133686,0.63699041,2.44860421

>  <Name>
ligand

>  <RI>
0

>  <Rbt.Current_Directory>
/home/itssahil/PROJECTS/Mol_Feturizer/Test_systems_manuscript/rnas/3q50

>  <Rbt.Executable>
rbdock ($Id: //depot/dev/client3/rdock/2013.1/src/exe/rbdock.cxx#4 $)

>  <Rbt.Library>
libRbt.so (2013.1, Build901 2013/11/27)

>  <Rbt.Parameter_File>
/export/apps/rDock/src/rDock_2013.1_src/data/scripts/dock_solv.prm

>  <Rbt.Receptor>
prm/pocket_docking_6.prm

>  <SCORE>
-17.0897

>  <SCORE.INTER>
-17.0772

>  <SCORE.INTER.CONST>
1

>  <SCORE.INTER.POLAR>
0

>  <SCORE.INTER.ROT>
1

>  <SCORE.INTER.SOLV>
16.5438

>  <SCORE.INTER.VDW>
-21.166

>  <SCORE.INTER.norm>
-1.31363

>  <SCORE.INTRA>
-0.0125333

>  <SCORE.INTRA.DIHEDRAL>
-0.0107802

>  <SCORE.INTRA.DIHEDRAL.0>
1.65305

>  <SCORE.INTRA.POLAR>
0

>  <SCORE.INTRA.POLAR.0>
0

>  <SCORE.INTRA.REPUL>
0

>  <SCORE.INTRA.REPUL.0>
0

>  <SCORE.INTRA.SOLV>
-0.00101588

>  <SCORE.INTRA.SOLV.lig_0>
-46.9527

>  <SCORE.INTRA.VDW>
-0.0066353

>  <SCORE.INTRA.VDW.0>
-0.177978

>  <SCORE.INTRA.norm>
-0.000964101

>  <SCORE.RESTR>
0

>  <SCORE.RESTR.CAVITY>
0

>  <SCORE.RESTR.norm>
0

>  <SCORE.SYSTEM>
0

>  <SCORE.SYSTEM.CONST>
0

>  <SCORE.SYSTEM.DIHEDRAL>
0

>  <SCORE.SYSTEM.SOLV>
0

>  <SCORE.SYSTEM.norm>
0

>  <SCORE.heavy>
13

>  <SCORE.norm>
-1.31459

>  <RMSD>
4.867

$$$$
ligand
 OpenBabel02271912143D
libRbt.so/2013.1/901 2013/11/27
 13 14  0  0  0  0  0  0  0  0999 V2000
   37.1373   32.8718   26.8288 N   0  0  0  0  0  0  0  0  0  0  0  0
   37.9172   34.0160   26.5802 C   0  0  0  0  0  0  0  0  0  0  0  0
   38.9930   34.2311   27.4313 N   0  0  0  0  0  0  0  0  0  0  0  0
   37.6891   34.9324   25.6086 N   0  0  0  0  0  0  0  0  0  0  0  0
   36.5681   34.6176   24.8466 C   0  0  0  0  0  0  0  0  0  0  0  0
   35.7445   33.4970   25.0099 C   0  0  0  0  0  0  0  0  0  0  0  0
   35.9960   32.5637   26.0262 C   0  0  0  0  0  0  0  0  0  0  0  0
   35.3461   31.5604   26.2810 O   0  0  0  0  0  0  0  0  0  0  0  0
   34.7161   33.5381   24.0407 C   0  0  0  0  0  0  0  0  0  0  0  0
   34.9308   34.6839   23.2907 C   0  0  0  0  0  0  0  0  0  0  0  0
   36.0792   35.3539   23.7831 N   0  0  0  0  0  0  0  0  0  0  0  0
   33.6378   32.5176   23.9370 C   0  0  0  0  0  0  0  0  0  0  0  0
   32.8189   32.7399   22.7352 N   0  0  0  0  0  0  0  0  0  0  0  0
  1  2  1  0  0  0  0
  1  7  1  0  0  0  0
  2  3  1  0  0  0  0
  2  4  2  0  0  0  0
  4  5  1  0  0  0  0
  5  6  2  0  0  0  0
  5 11  1  0  0  0  0
  6  7  1  0  0  0  0
  6  9  1  0  0  0  0
  7  8  2  0  0  0  0
  9 10  2  0  0  0  0
  9 12  1  0  0  0  0
 10 11  1  0  0  0  0
 12 13  1  0  0  0  0
M  END
>  <CHROM.1>
-173.01716139,35.95898911,33.58732139,25.13096151,0.27008236,0.62493925,2.44303021

>  <Name>
ligand

>  <RI>
0

>  <Rbt.Current_Directory>
/home/itssahil/PROJECTS/Mol_Feturizer/Test_systems_manuscript/rnas/3q50

>  <Rbt.Executable>
rbdock ($Id: //depot/dev/client3/rdock/2013.1/src/exe/rbdock.cxx#4 $)

>  <Rbt.Library>
libRbt.so (2013.1, Build901 2013/11/27)

>  <Rbt.Parameter_File>
/export/apps/rDock/src/rDock_2013.1_src/data/scripts/dock_solv.prm

>  <Rbt.Receptor>
prm/pocket_docking_7.prm

>  <SCORE>
-17.0805

>  <SCORE.INTER>
-17.0853

>  <SCORE.INTER.CONST>
1

>  <SCORE.INTER.POLAR>
0

>  <SCORE.INTER.ROT>
1

>  <SCORE.INTER.SOLV>
16.7267

>  <SCORE.INTER.VDW>
-21.2324

>  <SCORE.INTER.norm>
-1.31425

>  <SCORE.INTRA>
0.00476154

>  <SCORE.INTRA.DIHEDRAL>
0.00494093

>  <SCORE.INTRA.DIHEDRAL.0>
1.65305

>  <SCORE.INTRA.POLAR>
0

>  <SCORE.INTRA.POLAR.0>
0

>  <SCORE.INTRA.REPUL>
0

>  <SCORE.INTRA.REPUL.0>
0

>  <SCORE.INTRA.SOLV>
0.000373786

>  <SCORE.INTRA.SOLV.lig_0>
-46.9527

>  <SCORE.INTRA.VDW>
0.00210418

>  <SCORE.INTRA.VDW.0>
-0.177978

>  <SCORE.INTRA.norm>
0.000366272

>  <SCORE.RESTR>
0

>  <SCORE.RESTR.CAVITY>
0

>  <SCORE.RESTR.norm>
0

>  <SCORE.SYSTEM>
0

>  <SCORE.SYSTEM.CONST>
0

>  <SCORE.SYSTEM.DIHEDRAL>
0

>  <SCORE.SYSTEM.SOLV>
0

>  <SCORE.SYSTEM.norm>
0

>  <SCORE.heavy>
13

>  <SCORE.norm>
-1.31388

>  <RMSD>
4.867

$$$$
ligand
 OpenBabel02271912143D
libRbt.so/2013.1/901 2013/11/27
 13 14  0  0  0  0  0  0  0  0999 V2000
   37.1561   32.8377   26.8424 N   0  0  0  0  0  0  0  0  0  0  0  0
   37.9413   33.9803   26.6032 C   0  0  0  0  0  0  0  0  0  0  0  0
   39.0172   34.1842   27.4571 N   0  0  0  0  0  0  0  0  0  0  0  0
   37.7184   34.9049   25.6383 N   0  0  0  0  0  0  0  0  0  0  0  0
   36.5968   34.6008   24.8728 C   0  0  0  0  0  0  0  0  0  0  0  0
   35.7681   33.4827   25.0268 C   0  0  0  0  0  0  0  0  0  0  0  0
   36.0143   32.5407   26.0364 C   0  0  0  0  0  0  0  0  0  0  0  0
   35.3596   31.5385   26.2830 O   0  0  0  0  0  0  0  0  0  0  0  0
   34.7409   33.5356   24.0568 C   0  0  0  0  0  0  0  0  0  0  0  0
   34.9616   34.6861   23.3156 C   0  0  0  0  0  0  0  0  0  0  0  0
   36.1123   35.3472   23.8143 N   0  0  0  0  0  0  0  0  0  0  0  0
   33.6582   32.5208   23.9444 C   0  0  0  0  0  0  0  0  0  0  0  0
   32.9214   32.6775   22.6807 N   0  0  0  0  0  0  0  0  0  0  0  0
  1  2  1  0  0  0  0
  1  7  1  0  0  0  0
  2  3  1  0  0  0  0
  2  4  2  0  0  0  0
  4  5  1  0  0  0  0
  5  6  2  0  0  0  0
  5 11  1  0  0  0  0
  6  7  1  0  0  0  0
  6  9  1  0  0  0  0
  7  8  2  0  0  0  0
  9 10  2  0  0  0  0
  9 12  1  0  0  0  0
 10 11  1  0  0  0  0
 12 13  1  0  0  0  0
M  END
>  <CHROM.1>
-167.67640323,35.98928323,33.56479257,25.14366515,0.27413227,0.63198847,2.44609262

>  <Name>
ligand

>  <RI>
0

>  <Rbt.Current_Directory>
/home/itssahil/PROJECTS/Mol_Feturizer/Test_systems_manuscript/rnas/3q50

>  <Rbt.Executable>
rbdock ($Id: //depot/dev/client3/rdock/2013.1/src/exe/rbdock.cxx#4 $)

>  <Rbt.Library>
libRbt.so (2013.1, Build901 2013/11/27)

>  <Rbt.Parameter_File>
/export/apps/rDock/src/rDock_2013.1_src/data/scripts/dock_solv.prm

>  <Rbt.Receptor>
prm/pocket_docking_7.prm

>  <SCORE>
-17.0932

>  <SCORE.INTER>
-17.0835

>  <SCORE.INTER.CONST>
1

>  <SCORE.INTER.POLAR>
0

>  <SCORE.INTER.ROT>
1

>  <SCORE.INTER.SOLV>
16.5186

>  <SCORE.INTER.VDW>
-21.1619

>  <SCORE.INTER.norm>
-1.31412

>  <SCORE.INTRA>
-0.00971376

>  <SCORE.INTRA.DIHEDRAL>
-0.00860068

>  <SCORE.INTRA.DIHEDRAL.0>
1.65305

>  <SCORE.INTRA.POLAR>
0

>  <SCORE.INTRA.POLAR.0>
0

>  <SCORE.INTRA.REPUL>
0

>  <SCORE.INTRA.REPUL.0>
0

>  <SCORE.INTRA.SOLV>
-0.00078285

>  <SCORE.INTRA.SOLV.lig_0>
-46.9527

>  <SCORE.INTRA.VDW>
-0.00502199

>  <SCORE.INTRA.VDW.0>
-0.177978

>  <SCORE.INTRA.norm>
-0.000747212

>  <SCORE.RESTR>
0

>  <SCORE.RESTR.CAVITY>
0

>  <SCORE.RESTR.norm>
0

>  <SCORE.SYSTEM>
0

>  <SCORE.SYSTEM.CONST>
0

>  <SCORE.SYSTEM.DIHEDRAL>
0

>  <SCORE.SYSTEM.SOLV>
0

>  <SCORE.SYSTEM.norm>
0

>  <SCORE.heavy>
13

>  <SCORE.norm>
-1.31486

>  <RMSD>
4.867

$$$$
ligand
 OpenBabel02271912143D
libRbt.so/2013.1/901 2013/11/27
 13 14  0  0  0  0  0  0  0  0999 V2000
   37.1585   32.7968   26.8393 N   0  0  0  0  0  0  0  0  0  0  0  0
   37.9522   33.9346   26.6053 C   0  0  0  0  0  0  0  0  0  0  0  0
   39.0292   34.1269   27.4604 N   0  0  0  0  0  0  0  0  0  0  0  0
   37.7365   34.8649   25.6442 N   0  0  0  0  0  0  0  0  0  0  0  0
   36.6129   34.5724   24.8770 C   0  0  0  0  0  0  0  0  0  0  0  0
   35.7760   33.4597   25.0260 C   0  0  0  0  0  0  0  0  0  0  0  0
   36.0148   32.5117   26.0316 C   0  0  0  0  0  0  0  0  0  0  0  0
   35.3527   31.5132   26.2737 O   0  0  0  0  0  0  0  0  0  0  0  0
   34.7496   33.5243   24.0559 C   0  0  0  0  0  0  0  0  0  0  0  0
   34.9790   34.6763   23.3197 C   0  0  0  0  0  0  0  0  0  0  0  0
   36.1344   35.3268   23.8215 N   0  0  0  0  0  0  0  0  0  0  0  0
   33.6595   32.5180   23.9388 C   0  0  0  0  0  0  0  0  0  0  0  0
   32.8812   32.7285   22.7081 N   0  0  0  0  0  0  0  0  0  0  0  0
  1  2  1  0  0  0  0
  1  7  1  0  0  0  0
  2  3  1  0  0  0  0
  2  4  2  0  0  0  0
  4  5  1  0  0  0  0
  5  6  2  0  0  0  0
  5 11  1  0  0  0  0
  6  7  1  0  0  0  0
  6  9  1  0  0  0  0
  7  8  2  0  0  0  0
  9 10  2  0  0  0  0
  9 12  1  0  0  0  0
 10 11  1  0  0  0  0
 12 13  1  0  0  0  0
M  END
>  <CHROM.1>
-170.55314476,35.99423124,33.54319443,25.14592908,0.28208797,0.62268055,2.44685325

>  <Name>
ligand

>  <RI>
0

>  <Rbt.Current_Directory>
/home/itssahil/PROJECTS/Mol_Feturizer/Test_systems_manuscript/rnas/3q50

>  <Rbt.Executable>
rbdock ($Id: //depot/dev/client3/rdock/2013.1/src/exe/rbdock.cxx#4 $)

>  <Rbt.Library>
libRbt.so (2013.1, Build901 2013/11/27)

>  <Rbt.Parameter_File>
/export/apps/rDock/src/rDock_2013.1_src/data/scripts/dock_solv.prm

>  <Rbt.Receptor>
prm/pocket_docking_7.prm

>  <SCORE>
-17.1204

>  <SCORE.INTER>
-17.1188

>  <SCORE.INTER.CONST>
1

>  <SCORE.INTER.POLAR>
0

>  <SCORE.INTER.ROT>
1

>  <SCORE.INTER.SOLV>
16.4984

>  <SCORE.INTER.VDW>
-21.1786

>  <SCORE.INTER.norm>
-1.31683

>  <SCORE.INTRA>
-0.00164528

>  <SCORE.INTRA.DIHEDRAL>
-0.0015869

>  <SCORE.INTRA.DIHEDRAL.0>
1.65305

>  <SCORE.INTRA.POLAR>
0

>  <SCORE.INTRA.POLAR.0>
0

>  <SCORE.INTRA.REPUL>
0

>  <SCORE.INTRA.REPUL.0>
0

>  <SCORE.INTRA.SOLV>
-0.000130575

>  <SCORE.INTRA.SOLV.lig_0>
-46.9527

>  <SCORE.INTRA.VDW>
-0.000786544

>  <SCORE.INTRA.VDW.0>
-0.177978

>  <SCORE.INTRA.norm>
-0.00012656

>  <SCORE.RESTR>
0

>  <SCORE.RESTR.CAVITY>
0

>  <SCORE.RESTR.norm>
0

>  <SCORE.SYSTEM>
0

>  <SCORE.SYSTEM.CONST>
0

>  <SCORE.SYSTEM.DIHEDRAL>
0

>  <SCORE.SYSTEM.SOLV>
0

>  <SCORE.SYSTEM.norm>
0

>  <SCORE.heavy>
13

>  <SCORE.norm>
-1.31696

>  <RMSD>
4.867

$$$$
ligand
 OpenBabel02271912143D
libRbt.so/2013.1/901 2013/11/27
 13 14  0  0  0  0  0  0  0  0999 V2000
   37.1410   32.8623   26.8272 N   0  0  0  0  0  0  0  0  0  0  0  0
   37.9158   34.0117   26.5867 C   0  0  0  0  0  0  0  0  0  0  0  0
   38.9887   34.2272   27.4414 N   0  0  0  0  0  0  0  0  0  0  0  0
   37.6854   34.9324   25.6198 N   0  0  0  0  0  0  0  0  0  0  0  0
   36.5676   34.6164   24.8536 C   0  0  0  0  0  0  0  0  0  0  0  0
   35.7492   33.4909   25.0087 C   0  0  0  0  0  0  0  0  0  0  0  0
   36.0030   32.5531   26.0204 C   0  0  0  0  0  0  0  0  0  0  0  0
   35.3574   31.5453   26.2681 O   0  0  0  0  0  0  0  0  0  0  0  0
   34.7227   33.5323   24.0375 C   0  0  0  0  0  0  0  0  0  0  0  0
   34.9335   34.6834   23.2944 C   0  0  0  0  0  0  0  0  0  0  0  0
   36.0774   35.3562   23.7931 N   0  0  0  0  0  0  0  0  0  0  0  0
   33.6496   32.5072   23.9257 C   0  0  0  0  0  0  0  0  0  0  0  0
   32.8604   32.7055   22.7001 N   0  0  0  0  0  0  0  0  0  0  0  0
  1  2  1  0  0  0  0
  1  7  1  0  0  0  0
  2  3  1  0  0  0  0
  2  4  2  0  0  0  0
  4  5  1  0  0  0  0
  5  6  2  0  0  0  0
  5 11  1  0  0  0  0
  6  7  1  0  0  0  0
  6  9  1  0  0  0  0
  7  8  2  0  0  0  0
  9 10  2  0  0  0  0
  9 12  1  0  0  0  0
 10 11  1  0  0  0  0
 12 13  1  0  0  0  0
M  END
>  <CHROM.1>
-171.13172366,35.96519926,33.57935969,25.12889472,0.26695315,0.63298552,2.44980370

>  <Name>
ligand

>  <RI>
0

>  <Rbt.Current_Directory>
/home/itssahil/PROJECTS/Mol_Feturizer/Test_systems_manuscript/rnas/3q50

>  <Rbt.Executable>
rbdock ($Id: //depot/dev/client3/rdock/2013.1/src/exe/rbdock.cxx#4 $)

>  <Rbt.Library>
libRbt.so (2013.1, Build901 2013/11/27)

>  <Rbt.Parameter_File>
/export/apps/rDock/src/rDock_2013.1_src/data/scripts/dock_solv.prm

>  <Rbt.Receptor>
prm/pocket_docking_8.prm

>  <SCORE>
-17.1018

>  <SCORE.INTER>
-17.1017

>  <SCORE.INTER.CONST>
1

>  <SCORE.INTER.POLAR>
0

>  <SCORE.INTER.ROT>
1

>  <SCORE.INTER.SOLV>
16.688

>  <SCORE.INTER.VDW>
-21.2305

>  <SCORE.INTER.norm>
-1.31552

>  <SCORE.INTRA>
-9.4587e-05

>  <SCORE.INTRA.DIHEDRAL>
-9.28083e-05

>  <SCORE.INTRA.DIHEDRAL.0>
1.65305

>  <SCORE.INTRA.POLAR>
0

>  <SCORE.INTRA.POLAR.0>
0

>  <SCORE.INTRA.REPUL>
0

>  <SCORE.INTRA.REPUL.0>
0

>  <SCORE.INTRA.SOLV>
-7.48605e-06

>  <SCORE.INTRA.SOLV.lig_0>
-46.9527

>  <SCORE.INTRA.VDW>
-4.44398e-05

>  <SCORE.INTRA.VDW.0>
-0.177978

>  <SCORE.INTRA.norm>
-7.27593e-06

>  <SCORE.RESTR>
0

>  <SCORE.RESTR.CAVITY>
0

>  <SCORE.RESTR.norm>
0

>  <SCORE.SYSTEM>
0

>  <SCORE.SYSTEM.CONST>
0

>  <SCORE.SYSTEM.DIHEDRAL>
0

>  <SCORE.SYSTEM.SOLV>
0

>  <SCORE.SYSTEM.norm>
0

>  <SCORE.heavy>
13

>  <SCORE.norm>
-1.31552

>  <RMSD>
4.867

$$$$
ligand
 OpenBabel02271912143D
libRbt.so/2013.1/901 2013/11/27
 13 14  0  0  0  0  0  0  0  0999 V2000
   37.1572   32.8185   26.8265 N   0  0  0  0  0  0  0  0  0  0  0  0
   37.9440   33.9606   26.5902 C   0  0  0  0  0  0  0  0  0  0  0  0
   39.0205   34.1606   27.4442 N   0  0  0  0  0  0  0  0  0  0  0  0
   37.7221   34.8882   25.6279 N   0  0  0  0  0  0  0  0  0  0  0  0
   36.5997   34.5878   24.8620 C   0  0  0  0  0  0  0  0  0  0  0  0
   35.7695   33.4705   25.0132 C   0  0  0  0  0  0  0  0  0  0  0  0
   36.0147   32.5254   26.0201 C   0  0  0  0  0  0  0  0  0  0  0  0
   35.3587   31.5234   26.2642 O   0  0  0  0  0  0  0  0  0  0  0  0
   34.7420   33.5275   24.0438 C   0  0  0  0  0  0  0  0  0  0  0  0
   34.9640   34.6797   23.3057 C   0  0  0  0  0  0  0  0  0  0  0  0
   36.1159   35.3378   23.8057 N   0  0  0  0  0  0  0  0  0  0  0  0
   33.6578   32.5146   23.9290 C   0  0  0  0  0  0  0  0  0  0  0  0
   32.8892   32.7069   22.6893 N   0  0  0  0  0  0  0  0  0  0  0  0
  1  2  1  0  0  0  0
  1  7  1  0  0  0  0
  2  3  1  0  0  0  0
  2  4  2  0  0  0  0
  4  5  1  0  0  0  0
  5  6  2  0  0  0  0
  5 11  1  0  0  0  0
  6  7  1  0  0  0  0
  6  9  1  0  0  0  0
  7  8  2  0  0  0  0
  9 10  2  0  0  0  0
  9 12  1  0  0  0  0
 10 11  1  0  0  0  0
 12 13  1  0  0  0  0
M  END
>  <CHROM.1>
-169.75996391,35.98827633,33.55444619,25.13212686,0.27572313,0.62724208,2.44875136

>  <Name>
ligand

>  <RI>
0

>  <Rbt.Current_Directory>
/home/itssahil/PROJECTS/Mol_Feturizer/Test_systems_manuscript/rnas/3q50

>  <Rbt.Executable>
rbdock ($Id: //depot/dev/client3/rdock/2013.1/src/exe/rbdock.cxx#4 $)

>  <Rbt.Library>
libRbt.so (2013.1, Build901 2013/11/27)

>  <Rbt.Parameter_File>
/export/apps/rDock/src/rDock_2013.1_src/data/scripts/dock_solv.prm

>  <Rbt.Receptor>
prm/pocket_docking_8.prm

>  <SCORE>
-17.1058

>  <SCORE.INTER>
-17.102

>  <SCORE.INTER.CONST>
1

>  <SCORE.INTER.POLAR>
0

>  <SCORE.INTER.ROT>
1

>  <SCORE.INTER.SOLV>
16.5419

>  <SCORE.INTER.VDW>
-21.1819

>  <SCORE.INTER.norm>
-1.31554

>  <SCORE.INTRA>
-0.00381312

>  <SCORE.INTRA.DIHEDRAL>
-0.00359232

>  <SCORE.INTRA.DIHEDRAL.0>
1.65305

>  <SCORE.INTRA.POLAR>
0

>  <SCORE.INTRA.POLAR.0>
0

>  <SCORE.INTRA.REPUL>
0

>  <SCORE.INTRA.REPUL.0>
0

>  <SCORE.INTRA.SOLV>
-0.000303827

>  <SCORE.INTRA.SOLV.lig_0>
-46.9527

>  <SCORE.INTRA.VDW>
-0.00186505

>  <SCORE.INTRA.VDW.0>
-0.177978

>  <SCORE.INTRA.norm>
-0.000293317

>  <SCORE.RESTR>
0

>  <SCORE.RESTR.CAVITY>
0

>  <SCORE.RESTR.norm>
0

>  <SCORE.SYSTEM>
0

>  <SCORE.SYSTEM.CONST>
0

>  <SCORE.SYSTEM.DIHEDRAL>
0

>  <SCORE.SYSTEM.SOLV>
0

>  <SCORE.SYSTEM.norm>
0

>  <SCORE.heavy>
13

>  <SCORE.norm>
-1.31583

>  <RMSD>
4.867

$$$$
ligand
 OpenBabel02271912143D
libRbt.so/2013.1/901 2013/11/27
 13 14  0  0  0  0  0  0  0  0999 V2000
   37.1634   32.8552   26.8271 N   0  0  0  0  0  0  0  0  0  0  0  0
   37.9489   33.9951   26.5763 C   0  0  0  0  0  0  0  0  0  0  0  0
   39.0314   34.2014   27.4211 N   0  0  0  0  0  0  0  0  0  0  0  0
   37.7204   34.9153   25.6084 N   0  0  0  0  0  0  0  0  0  0  0  0
   36.5926   34.6093   24.8528 C   0  0  0  0  0  0  0  0  0  0  0  0
   35.7631   33.4935   25.0186 C   0  0  0  0  0  0  0  0  0  0  0  0
   36.0151   32.5562   26.0311 C   0  0  0  0  0  0  0  0  0  0  0  0
   35.3605   31.5564   26.2876 O   0  0  0  0  0  0  0  0  0  0  0  0
   34.7288   33.5433   24.0560 C   0  0  0  0  0  0  0  0  0  0  0  0
   34.9460   34.6896   23.3074 C   0  0  0  0  0  0  0  0  0  0  0  0
   36.1016   35.3513   23.7941 N   0  0  0  0  0  0  0  0  0  0  0  0
   33.6435   32.5299   23.9568 C   0  0  0  0  0  0  0  0  0  0  0  0
   32.8790   32.7002   22.7114 N   0  0  0  0  0  0  0  0  0  0  0  0
  1  2  1  0  0  0  0
  1  7  1  0  0  0  0
  2  3  1  0  0  0  0
  2  4  2  0  0  0  0
  4  5  1  0  0  0  0
  5  6  2  0  0  0  0
  5 11  1  0  0  0  0
  6  7  1  0  0  0  0
  6  9  1  0  0  0  0
  7  8  2  0  0  0  0
  9 10  2  0  0  0  0
  9 12  1  0  0  0  0
 10 11  1  0  0  0  0
 12 13  1  0  0  0  0
M  END
>  <CHROM.1>
-168.91100824,35.98377088,33.57728610,25.13451501,0.27024748,0.62306525,2.44382218

>  <Name>
ligand

>  <RI>
0

>  <Rbt.Current_Directory>
/home/itssahil/PROJECTS/Mol_Feturizer/Test_systems_manuscript/rnas/3q50

>  <Rbt.Executable>
rbdock ($Id: //depot/dev/client3/rdock/2013.1/src/exe/rbdock.cxx#4 $)

>  <Rbt.Library>
libRbt.so (2013.1, Build901 2013/11/27)

>  <Rbt.Parameter_File>
/export/apps/rDock/src/rDock_2013.1_src/data/scripts/dock_solv.prm

>  <Rbt.Receptor>
prm/pocket_docking_2.prm

>  <SCORE>
-17.1034

>  <SCORE.INTER>
-17.0972

>  <SCORE.INTER.CONST>
1

>  <SCORE.INTER.POLAR>
0

>  <SCORE.INTER.ROT>
1

>  <SCORE.INTER.SOLV>
16.5381

>  <SCORE.INTER.VDW>
-21.1775

>  <SCORE.INTER.norm>
-1.31517

>  <SCORE.INTRA>
-0.00618345

>  <SCORE.INTRA.DIHEDRAL>
-0.00568032

>  <SCORE.INTRA.DIHEDRAL.0>
1.65305

>  <SCORE.INTRA.POLAR>
0

>  <SCORE.INTRA.POLAR.0>
0

>  <SCORE.INTRA.REPUL>
0

>  <SCORE.INTRA.REPUL.0>
0

>  <SCORE.INTRA.SOLV>
-0.000494903

>  <SCORE.INTRA.SOLV.lig_0>
-46.9527

>  <SCORE.INTRA.VDW>
-0.00309584

>  <SCORE.INTRA.VDW.0>
-0.177978

>  <SCORE.INTRA.norm>
-0.00047565

>  <SCORE.RESTR>
0

>  <SCORE.RESTR.CAVITY>
0

>  <SCORE.RESTR.norm>
0

>  <SCORE.SYSTEM>
0

>  <SCORE.SYSTEM.CONST>
0

>  <SCORE.SYSTEM.DIHEDRAL>
0

>  <SCORE.SYSTEM.SOLV>
0

>  <SCORE.SYSTEM.norm>
0

>  <SCORE.heavy>
13

>  <SCORE.norm>
-1.31564

>  <RMSD>
4.868

$$$$
ligand
 OpenBabel02271912143D
libRbt.so/2013.1/901 2013/11/27
 13 14  0  0  0  0  0  0  0  0999 V2000
   37.1296   32.8642   26.8324 N   0  0  0  0  0  0  0  0  0  0  0  0
   37.9367   33.9841   26.5607 C   0  0  0  0  0  0  0  0  0  0  0  0
   39.0171   34.1910   27.4080 N   0  0  0  0  0  0  0  0  0  0  0  0
   37.7308   34.8853   25.5702 N   0  0  0  0  0  0  0  0  0  0  0  0
   36.6027   34.5816   24.8140 C   0  0  0  0  0  0  0  0  0  0  0  0
   35.7526   33.4847   24.9999 C   0  0  0  0  0  0  0  0  0  0  0  0
   35.9814   32.5669   26.0356 C   0  0  0  0  0  0  0  0  0  0  0  0
   35.3076   31.5850   26.3106 O   0  0  0  0  0  0  0  0  0  0  0  0
   34.7257   33.5302   24.0293 C   0  0  0  0  0  0  0  0  0  0  0  0
   34.9680   34.6548   23.2558 C   0  0  0  0  0  0  0  0  0  0  0  0
   36.1319   35.3072   23.7351 N   0  0  0  0  0  0  0  0  0  0  0  0
   33.6233   32.5339   23.9460 C   0  0  0  0  0  0  0  0  0  0  0  0
   32.8626   32.6964   22.6973 N   0  0  0  0  0  0  0  0  0  0  0  0
  1  2  1  0  0  0  0
  1  7  1  0  0  0  0
  2  3  1  0  0  0  0
  2  4  2  0  0  0  0
  4  5  1  0  0  0  0
  5  6  2  0  0  0  0
  5 11  1  0  0  0  0
  6  7  1  0  0  0  0
  6  9  1  0  0  0  0
  7  8  2  0  0  0  0
  9 10  2  0  0  0  0
  9 12  1  0  0  0  0
 10 11  1  0  0  0  0
 12 13  1  0  0  0  0
M  END
>  <CHROM.1>
-169.42177753,35.97337083,33.56791424,25.11582965,0.29212256,0.61574509,2.40809144

>  <Name>
ligand

>  <RI>
0

>  <Rbt.Current_Directory>
/home/itssahil/PROJECTS/Mol_Feturizer/Test_systems_manuscript/rnas/3q50

>  <Rbt.Executable>
rbdock ($Id: //depot/dev/client3/rdock/2013.1/src/exe/rbdock.cxx#4 $)

>  <Rbt.Library>
libRbt.so (2013.1, Build901 2013/11/27)

>  <Rbt.Parameter_File>
/export/apps/rDock/src/rDock_2013.1_src/data/scripts/dock_solv.prm

>  <Rbt.Receptor>
prm/pocket_docking_3.prm

>  <SCORE>
-17.0476

>  <SCORE.INTER>
-17.0429

>  <SCORE.INTER.CONST>
1

>  <SCORE.INTER.POLAR>
0

>  <SCORE.INTER.ROT>
1

>  <SCORE.INTER.SOLV>
16.5824

>  <SCORE.INTER.VDW>
-21.1561

>  <SCORE.INTER.norm>
-1.31099

>  <SCORE.INTRA>
-0.00475139

>  <SCORE.INTRA.DIHEDRAL>
-0.00443155

>  <SCORE.INTRA.DIHEDRAL.0>
1.65305

>  <SCORE.INTRA.POLAR>
0

>  <SCORE.INTRA.POLAR.0>
0

>  <SCORE.INTRA.REPUL>
0

>  <SCORE.INTRA.REPUL.0>
0

>  <SCORE.INTRA.SOLV>
-0.000379252

>  <SCORE.INTRA.SOLV.lig_0>
-46.9527

>  <SCORE.INTRA.VDW>
-0.00234599

>  <SCORE.INTRA.VDW.0>
-0.177978

>  <SCORE.INTRA.norm>
-0.000365492

>  <SCORE.RESTR>
0

>  <SCORE.RESTR.CAVITY>
0

>  <SCORE.RESTR.norm>
0

>  <SCORE.SYSTEM>
0

>  <SCORE.SYSTEM.CONST>
0

>  <SCORE.SYSTEM.DIHEDRAL>
0

>  <SCORE.SYSTEM.SOLV>
0

>  <SCORE.SYSTEM.norm>
0

>  <SCORE.heavy>
13

>  <SCORE.norm>
-1.31136

>  <RMSD>
4.868

$$$$
ligand
 OpenBabel02271912143D
libRbt.so/2013.1/901 2013/11/27
 13 14  0  0  0  0  0  0  0  0999 V2000
   37.1821   32.8481   26.8394 N   0  0  0  0  0  0  0  0  0  0  0  0
   37.9775   33.9826   26.5953 C   0  0  0  0  0  0  0  0  0  0  0  0
   39.0610   34.1751   27.4421 N   0  0  0  0  0  0  0  0  0  0  0  0
   37.7577   34.9098   25.6322 N   0  0  0  0  0  0  0  0  0  0  0  0
   36.6279   34.6175   24.8740 C   0  0  0  0  0  0  0  0  0  0  0  0
   35.7888   33.5080   25.0332 C   0  0  0  0  0  0  0  0  0  0  0  0
   36.0320   32.5631   26.0408 C   0  0  0  0  0  0  0  0  0  0  0  0
   35.3687   31.5676   26.2915 O   0  0  0  0  0  0  0  0  0  0  0  0
   34.7559   33.5718   24.0701 C   0  0  0  0  0  0  0  0  0  0  0  0
   34.9834   34.7202   23.3278 C   0  0  0  0  0  0  0  0  0  0  0  0
   36.1442   35.3693   23.8190 N   0  0  0  0  0  0  0  0  0  0  0  0
   33.6621   32.5682   23.9646 C   0  0  0  0  0  0  0  0  0  0  0  0
   32.9234   32.7281   22.7023 N   0  0  0  0  0  0  0  0  0  0  0  0
  1  2  1  0  0  0  0
  1  7  1  0  0  0  0
  2  3  1  0  0  0  0
  2  4  2  0  0  0  0
  4  5  1  0  0  0  0
  5  6  2  0  0  0  0
  5 11  1  0  0  0  0
  6  7  1  0  0  0  0
  6  9  1  0  0  0  0
  7  8  2  0  0  0  0
  9 10  2  0  0  0  0
  9 12  1  0  0  0  0
 10 11  1  0  0  0  0
 12 13  1  0  0  0  0
M  END
>  <CHROM.1>
-167.35524010,36.01204383,33.58733740,25.14833666,0.27851332,0.62085940,2.44373430

>  <Name>
ligand

>  <RI>
0

>  <Rbt.Current_Directory>
/home/itssahil/PROJECTS/Mol_Feturizer/Test_systems_manuscript/rnas/3q50

>  <Rbt.Executable>
rbdock ($Id: //depot/dev/client3/rdock/2013.1/src/exe/rbdock.cxx#4 $)

>  <Rbt.Library>
libRbt.so (2013.1, Build901 2013/11/27)

>  <Rbt.Parameter_File>
/export/apps/rDock/src/rDock_2013.1_src/data/scripts/dock_solv.prm

>  <Rbt.Receptor>
prm/pocket_docking_3.prm

>  <SCORE>
-17.0682

>  <SCORE.INTER>
-17.0575

>  <SCORE.INTER.CONST>
1

>  <SCORE.INTER.POLAR>
0

>  <SCORE.INTER.ROT>
1

>  <SCORE.INTER.SOLV>
16.3695

>  <SCORE.INTER.VDW>
-21.0948

>  <SCORE.INTER.norm>
-1.31212

>  <SCORE.INTRA>
-0.0106468

>  <SCORE.INTRA.DIHEDRAL>
-0.0093365

>  <SCORE.INTRA.DIHEDRAL.0>
1.65305

>  <SCORE.INTRA.POLAR>
0

>  <SCORE.INTRA.POLAR.0>
0

>  <SCORE.INTRA.REPUL>
0

>  <SCORE.INTRA.REPUL.0>
0

>  <SCORE.INTRA.SOLV>
-0.000859654

>  <SCORE.INTRA.SOLV.lig_0>
-46.9527

>  <SCORE.INTRA.VDW>
-0.00554871

>  <SCORE.INTRA.VDW.0>
-0.177978

>  <SCORE.INTRA.norm>
-0.000818984

>  <SCORE.RESTR>
0

>  <SCORE.RESTR.CAVITY>
0

>  <SCORE.RESTR.norm>
0

>  <SCORE.SYSTEM>
0

>  <SCORE.SYSTEM.CONST>
0

>  <SCORE.SYSTEM.DIHEDRAL>
0

>  <SCORE.SYSTEM.SOLV>
0

>  <SCORE.SYSTEM.norm>
0

>  <SCORE.heavy>
13

>  <SCORE.norm>
-1.31294

>  <RMSD>
4.868

$$$$
ligand
 OpenBabel02271912143D
libRbt.so/2013.1/901 2013/11/27
 13 14  0  0  0  0  0  0  0  0999 V2000
   37.1549   32.8372   26.8438 N   0  0  0  0  0  0  0  0  0  0  0  0
   37.9408   33.9791   26.6041 C   0  0  0  0  0  0  0  0  0  0  0  0
   39.0147   34.1846   27.4600 N   0  0  0  0  0  0  0  0  0  0  0  0
   37.7202   34.9019   25.6369 N   0  0  0  0  0  0  0  0  0  0  0  0
   36.6003   34.5964   24.8694 C   0  0  0  0  0  0  0  0  0  0  0  0
   35.7711   33.4787   25.0238 C   0  0  0  0  0  0  0  0  0  0  0  0
   36.0149   32.5387   26.0358 C   0  0  0  0  0  0  0  0  0  0  0  0
   35.3595   31.5370   26.2829 O   0  0  0  0  0  0  0  0  0  0  0  0
   34.7461   33.5298   24.0514 C   0  0  0  0  0  0  0  0  0  0  0  0
   34.9686   34.6787   23.3084 C   0  0  0  0  0  0  0  0  0  0  0  0
   36.1183   35.3407   23.8083 N   0  0  0  0  0  0  0  0  0  0  0  0
   33.6635   32.5149   23.9386 C   0  0  0  0  0  0  0  0  0  0  0  0
   32.8914   32.7068   22.7010 N   0  0  0  0  0  0  0  0  0  0  0  0
  1  2  1  0  0  0  0
  1  7  1  0  0  0  0
  2  3  1  0  0  0  0
  2  4  2  0  0  0  0
  4  5  1  0  0  0  0
  5  6  2  0  0  0  0
  5 11  1  0  0  0  0
  6  7  1  0  0  0  0
  6  9  1  0  0  0  0
  7  8  2  0  0  0  0
  9 10  2  0  0  0  0
  9 12  1  0  0  0  0
 10 11  1  0  0  0  0
 12 13  1  0  0  0  0
M  END
>  <CHROM.1>
-170.19833637,35.98892538,33.56404426,25.14327064,0.27667361,0.62936729,2.44360915

>  <Name>
ligand

>  <RI>
0

>  <Rbt.Current_Directory>
/home/itssahil/PROJECTS/Mol_Feturizer/Test_systems_manuscript/rnas/3q50

>  <Rbt.Executable>
rbdock ($Id: //depot/dev/client3/rdock/2013.1/src/exe/rbdock.cxx#4 $)

>  <Rbt.Library>
libRbt.so (2013.1, Build901 2013/11/27)

>  <Rbt.Parameter_File>
/export/apps/rDock/src/rDock_2013.1_src/data/scripts/dock_solv.prm

>  <Rbt.Receptor>
prm/pocket_docking_3.prm

>  <SCORE>
-17.1016

>  <SCORE.INTER>
-17.099

>  <SCORE.INTER.CONST>
1

>  <SCORE.INTER.POLAR>
0

>  <SCORE.INTER.ROT>
1

>  <SCORE.INTER.SOLV>
16.526

>  <SCORE.INTER.VDW>
-21.1746

>  <SCORE.INTER.norm>
-1.31531

>  <SCORE.INTRA>
-0.00260918

>  <SCORE.INTRA.DIHEDRAL>
-0.00249026

>  <SCORE.INTRA.DIHEDRAL.0>
1.65305

>  <SCORE.INTRA.POLAR>
0

>  <SCORE.INTRA.POLAR.0>
0

>  <SCORE.INTRA.REPUL>
0

>  <SCORE.INTRA.REPUL.0>
0

>  <SCORE.INTRA.SOLV>
-0.000207436

>  <SCORE.INTRA.SOLV.lig_0>
-46.9527

>  <SCORE.INTRA.VDW>
-0.00126033

>  <SCORE.INTRA.VDW.0>
-0.177978

>  <SCORE.INTRA.norm>
-0.000200706

>  <SCORE.RESTR>
0

>  <SCORE.RESTR.CAVITY>
0

>  <SCORE.RESTR.norm>
0

>  <SCORE.SYSTEM>
0

>  <SCORE.SYSTEM.CONST>
0

>  <SCORE.SYSTEM.DIHEDRAL>
0

>  <SCORE.SYSTEM.SOLV>
0

>  <SCORE.SYSTEM.norm>
0

>  <SCORE.heavy>
13

>  <SCORE.norm>
-1.31551

>  <RMSD>
4.868

$$$$
ligand
 OpenBabel02271912143D
libRbt.so/2013.1/901 2013/11/27
 13 14  0  0  0  0  0  0  0  0999 V2000
   37.1545   32.8823   26.8259 N   0  0  0  0  0  0  0  0  0  0  0  0
   37.9287   34.0308   26.5792 C   0  0  0  0  0  0  0  0  0  0  0  0
   39.0043   34.2489   27.4298 N   0  0  0  0  0  0  0  0  0  0  0  0
   37.6953   34.9484   25.6101 N   0  0  0  0  0  0  0  0  0  0  0  0
   36.5750   34.6300   24.8484 C   0  0  0  0  0  0  0  0  0  0  0  0
   35.7569   33.5051   25.0098 C   0  0  0  0  0  0  0  0  0  0  0  0
   36.0138   32.5707   26.0237 C   0  0  0  0  0  0  0  0  0  0  0  0
   35.3689   31.5637   26.2768 O   0  0  0  0  0  0  0  0  0  0  0  0
   34.7274   33.5436   24.0417 C   0  0  0  0  0  0  0  0  0  0  0  0
   34.9359   34.6922   23.2942 C   0  0  0  0  0  0  0  0  0  0  0  0
   36.0816   35.3665   23.7871 N   0  0  0  0  0  0  0  0  0  0  0  0
   33.6539   32.5183   23.9368 C   0  0  0  0  0  0  0  0  0  0  0  0
   32.8791   32.6948   22.6986 N   0  0  0  0  0  0  0  0  0  0  0  0
  1  2  1  0  0  0  0
  1  7  1  0  0  0  0
  2  3  1  0  0  0  0
  2  4  2  0  0  0  0
  4  5  1  0  0  0  0
  5  6  2  0  0  0  0
  5 11  1  0  0  0  0
  6  7  1  0  0  0  0
  6  9  1  0  0  0  0
  7  8  2  0  0  0  0
  9 10  2  0  0  0  0
  9 12  1  0  0  0  0
 10 11  1  0  0  0  0
 12 13  1  0  0  0  0
M  END
>  <CHROM.1>
-169.90767379,35.97486396,33.59255327,25.12785391,0.26431845,0.63253799,2.44765766

>  <Name>
ligand

>  <RI>
0

>  <Rbt.Current_Directory>
/home/itssahil/PROJECTS/Mol_Feturizer/Test_systems_manuscript/rnas/3q50

>  <Rbt.Executable>
rbdock ($Id: //depot/dev/client3/rdock/2013.1/src/exe/rbdock.cxx#4 $)

>  <Rbt.Library>
libRbt.so (2013.1, Build901 2013/11/27)

>  <Rbt.Parameter_File>
/export/apps/rDock/src/rDock_2013.1_src/data/scripts/dock_solv.prm

>  <Rbt.Receptor>
prm/pocket_docking_3.prm

>  <SCORE>
-17.107

>  <SCORE.INTER>
-17.1036

>  <SCORE.INTER.CONST>
1

>  <SCORE.INTER.POLAR>
0

>  <SCORE.INTER.ROT>
1

>  <SCORE.INTER.SOLV>
16.6603

>  <SCORE.INTER.VDW>
-21.2225

>  <SCORE.INTER.norm>
-1.31566

>  <SCORE.INTRA>
-0.00340588

>  <SCORE.INTRA.DIHEDRAL>
-0.00322275

>  <SCORE.INTRA.DIHEDRAL.0>
1.65305

>  <SCORE.INTRA.POLAR>
0

>  <SCORE.INTRA.POLAR.0>
0

>  <SCORE.INTRA.REPUL>
0

>  <SCORE.INTRA.REPUL.0>
0

>  <SCORE.INTRA.SOLV>
-0.000271173

>  <SCORE.INTRA.SOLV.lig_0>
-46.9527

>  <SCORE.INTRA.VDW>
-0.00165892

>  <SCORE.INTRA.VDW.0>
-0.177978

>  <SCORE.INTRA.norm>
-0.000261991

>  <SCORE.RESTR>
0

>  <SCORE.RESTR.CAVITY>
0

>  <SCORE.RESTR.norm>
0

>  <SCORE.SYSTEM>
0

>  <SCORE.SYSTEM.CONST>
0

>  <SCORE.SYSTEM.DIHEDRAL>
0

>  <SCORE.SYSTEM.SOLV>
0

>  <SCORE.SYSTEM.norm>
0

>  <SCORE.heavy>
13

>  <SCORE.norm>
-1.31592

>  <RMSD>
4.868

$$$$
ligand
 OpenBabel02271912143D
libRbt.so/2013.1/901 2013/11/27
 13 14  0  0  0  0  0  0  0  0999 V2000
   37.1586   32.8429   26.8372 N   0  0  0  0  0  0  0  0  0  0  0  0
   37.9426   33.9859   26.5956 C   0  0  0  0  0  0  0  0  0  0  0  0
   39.0185   34.1925   27.4486 N   0  0  0  0  0  0  0  0  0  0  0  0
   37.7183   34.9085   25.6290 N   0  0  0  0  0  0  0  0  0  0  0  0
   36.5967   34.6018   24.8645 C   0  0  0  0  0  0  0  0  0  0  0  0
   35.7693   33.4830   25.0209 C   0  0  0  0  0  0  0  0  0  0  0  0
   36.0168   32.5432   26.0321 C   0  0  0  0  0  0  0  0  0  0  0  0
   35.3633   31.5407   26.2808 O   0  0  0  0  0  0  0  0  0  0  0  0
   34.7417   33.5330   24.0512 C   0  0  0  0  0  0  0  0  0  0  0  0
   34.9608   34.6824   23.3078 C   0  0  0  0  0  0  0  0  0  0  0  0
   36.1111   35.3457   23.8048 N   0  0  0  0  0  0  0  0  0  0  0  0
   33.6600   32.5169   23.9411 C   0  0  0  0  0  0  0  0  0  0  0  0
   32.8712   32.7209   22.7161 N   0  0  0  0  0  0  0  0  0  0  0  0
  1  2  1  0  0  0  0
  1  7  1  0  0  0  0
  2  3  1  0  0  0  0
  2  4  2  0  0  0  0
  4  5  1  0  0  0  0
  5  6  2  0  0  0  0
  5 11  1  0  0  0  0
  6  7  1  0  0  0  0
  6  9  1  0  0  0  0
  7  8  2  0  0  0  0
  9 10  2  0  0  0  0
  9 12  1  0  0  0  0
 10 11  1  0  0  0  0
 12 13  1  0  0  0  0
M  END
>  <CHROM.1>
-171.08445522,35.98624680,33.56970956,25.14066647,0.27359389,0.62660401,2.44589894

>  <Name>
ligand

>  <RI>
0

>  <Rbt.Current_Directory>
/home/itssahil/PROJECTS/Mol_Feturizer/Test_systems_manuscript/rnas/3q50

>  <Rbt.Executable>
rbdock ($Id: //depot/dev/client3/rdock/2013.1/src/exe/rbdock.cxx#4 $)

>  <Rbt.Library>
libRbt.so (2013.1, Build901 2013/11/27)

>  <Rbt.Parameter_File>
/export/apps/rDock/src/rDock_2013.1_src/data/scripts/dock_solv.prm

>  <Rbt.Receptor>
prm/pocket_docking_4.prm

>  <SCORE>
-17.108

>  <SCORE.INTER>
-17.1078

>  <SCORE.INTER.CONST>
1

>  <SCORE.INTER.POLAR>
0

>  <SCORE.INTER.ROT>
1

>  <SCORE.INTER.SOLV>
16.5441

>  <SCORE.INTER.VDW>
-21.1866

>  <SCORE.INTER.norm>
-1.31598

>  <SCORE.INTRA>
-0.000220266

>  <SCORE.INTRA.DIHEDRAL>
-0.000215821

>  <SCORE.INTRA.DIHEDRAL.0>
1.65305

>  <SCORE.INTRA.POLAR>
0

>  <SCORE.INTRA.POLAR.0>
0

>  <SCORE.INTRA.REPUL>
0

>  <SCORE.INTRA.REPUL.0>
0

>  <SCORE.INTRA.SOLV>
-1.74367e-05

>  <SCORE.INTRA.SOLV.lig_0>
-46.9527

>  <SCORE.INTRA.VDW>
-0.000103637

>  <SCORE.INTRA.VDW.0>
-0.177978

>  <SCORE.INTRA.norm>
-1.69435e-05

>  <SCORE.RESTR>
0

>  <SCORE.RESTR.CAVITY>
0

>  <SCORE.RESTR.norm>
0

>  <SCORE.SYSTEM>
0

>  <SCORE.SYSTEM.CONST>
0

>  <SCORE.SYSTEM.DIHEDRAL>
0

>  <SCORE.SYSTEM.SOLV>
0

>  <SCORE.SYSTEM.norm>
0

>  <SCORE.heavy>
13

>  <SCORE.norm>
-1.316

>  <RMSD>
4.868

$$$$
ligand
 OpenBabel02271912143D
libRbt.so/2013.1/901 2013/11/27
 13 14  0  0  0  0  0  0  0  0999 V2000
   37.1613   32.8569   26.8326 N   0  0  0  0  0  0  0  0  0  0  0  0
   37.9427   34.0009   26.5875 C   0  0  0  0  0  0  0  0  0  0  0  0
   39.0206   34.2102   27.4374 N   0  0  0  0  0  0  0  0  0  0  0  0
   37.7142   34.9220   25.6206 N   0  0  0  0  0  0  0  0  0  0  0  0
   36.5910   34.6126   24.8595 C   0  0  0  0  0  0  0  0  0  0  0  0
   35.7659   33.4927   25.0194 C   0  0  0  0  0  0  0  0  0  0  0  0
   36.0178   32.5543   26.0309 C   0  0  0  0  0  0  0  0  0  0  0  0
   35.3667   31.5510   26.2825 O   0  0  0  0  0  0  0  0  0  0  0  0
   34.7356   33.5399   24.0525 C   0  0  0  0  0  0  0  0  0  0  0  0
   34.9508   34.6888   23.3072 C   0  0  0  0  0  0  0  0  0  0  0  0
   36.1012   35.3545   23.8003 N   0  0  0  0  0  0  0  0  0  0  0  0
   33.6553   32.5218   23.9464 C   0  0  0  0  0  0  0  0  0  0  0  0
   32.8649   32.7211   22.7217 N   0  0  0  0  0  0  0  0  0  0  0  0
  1  2  1  0  0  0  0
  1  7  1  0  0  0  0
  2  3  1  0  0  0  0
  2  4  2  0  0  0  0
  4  5  1  0  0  0  0
  5  6  2  0  0  0  0
  5 11  1  0  0  0  0
  6  7  1  0  0  0  0
  6  9  1  0  0  0  0
  7  8  2  0  0  0  0
  9 10  2  0  0  0  0
  9 12  1  0  0  0  0
 10 11  1  0  0  0  0
 12 13  1  0  0  0  0
M  END
>  <CHROM.1>
-170.94226392,35.98323900,33.57964240,25.13833197,0.26981468,0.62581368,2.44696917

>  <Name>
ligand

>  <RI>
0

>  <Rbt.Current_Directory>
/home/itssahil/PROJECTS/Mol_Feturizer/Test_systems_manuscript/rnas/3q50

>  <Rbt.Executable>
rbdock ($Id: //depot/dev/client3/rdock/2013.1/src/exe/rbdock.cxx#4 $)

>  <Rbt.Library>
libRbt.so (2013.1, Build901 2013/11/27)

>  <Rbt.Parameter_File>
/export/apps/rDock/src/rDock_2013.1_src/data/scripts/dock_solv.prm

>  <Rbt.Receptor>
prm/pocket_docking_4.prm

>  <SCORE>
-17.1042

>  <SCORE.INTER>
-17.1036

>  <SCORE.INTER.CONST>
1

>  <SCORE.INTER.POLAR>
0

>  <SCORE.INTER.ROT>
1

>  <SCORE.INTER.SOLV>
16.5703

>  <SCORE.INTER.VDW>
-21.1925

>  <SCORE.INTER.norm>
-1.31566

>  <SCORE.INTRA>
-0.000599423

>  <SCORE.INTRA.DIHEDRAL>
-0.000584858

>  <SCORE.INTRA.DIHEDRAL.0>
1.65305

>  <SCORE.INTRA.POLAR>
0

>  <SCORE.INTRA.POLAR.0>
0

>  <SCORE.INTRA.REPUL>
0

>  <SCORE.INTRA.REPUL.0>
0

>  <SCORE.INTRA.SOLV>
-4.74834e-05

>  <SCORE.INTRA.SOLV.lig_0>
-46.9527

>  <SCORE.INTRA.VDW>
-0.000283252

>  <SCORE.INTRA.VDW.0>
-0.177978

>  <SCORE.INTRA.norm>
-4.61095e-05

>  <SCORE.RESTR>
0

>  <SCORE.RESTR.CAVITY>
0

>  <SCORE.RESTR.norm>
0

>  <SCORE.SYSTEM>
0

>  <SCORE.SYSTEM.CONST>
0

>  <SCORE.SYSTEM.DIHEDRAL>
0

>  <SCORE.SYSTEM.SOLV>
0

>  <SCORE.SYSTEM.norm>
0

>  <SCORE.heavy>
13

>  <SCORE.norm>
-1.31571

>  <RMSD>
4.868

$$$$
ligand
 OpenBabel02271912143D
libRbt.so/2013.1/901 2013/11/27
 13 14  0  0  0  0  0  0  0  0999 V2000
   37.1493   32.8233   26.8542 N   0  0  0  0  0  0  0  0  0  0  0  0
   37.9397   33.9628   26.6176 C   0  0  0  0  0  0  0  0  0  0  0  0
   39.0108   34.1650   27.4777 N   0  0  0  0  0  0  0  0  0  0  0  0
   37.7257   34.8863   25.6495 N   0  0  0  0  0  0  0  0  0  0  0  0
   36.6078   34.5842   24.8777 C   0  0  0  0  0  0  0  0  0  0  0  0
   35.7746   33.4691   25.0287 C   0  0  0  0  0  0  0  0  0  0  0  0
   36.0116   32.5283   26.0417 C   0  0  0  0  0  0  0  0  0  0  0  0
   35.3522   31.5286   26.2862 O   0  0  0  0  0  0  0  0  0  0  0  0
   34.7536   33.5233   24.0523 C   0  0  0  0  0  0  0  0  0  0  0  0
   34.9825   34.6716   23.3103 C   0  0  0  0  0  0  0  0  0  0  0  0
   36.1323   35.3301   23.8147 N   0  0  0  0  0  0  0  0  0  0  0  0
   33.6684   32.5117   23.9352 C   0  0  0  0  0  0  0  0  0  0  0  0
   32.8126   32.7927   22.7720 N   0  0  0  0  0  0  0  0  0  0  0  0
  1  2  1  0  0  0  0
  1  7  1  0  0  0  0
  2  3  1  0  0  0  0
  2  4  2  0  0  0  0
  4  5  1  0  0  0  0
  5  6  2  0  0  0  0
  5 11  1  0  0  0  0
  6  7  1  0  0  0  0
  6  9  1  0  0  0  0
  7  8  2  0  0  0  0
  9 10  2  0  0  0  0
  9 12  1  0  0  0  0
 10 11  1  0  0  0  0
 12 13  1  0  0  0  0
M  END
>  <CHROM.1>
-176.30425990,35.98500078,33.56080328,25.15539612,0.28315075,0.61995310,2.44197303

>  <Name>
ligand

>  <RI>
0

>  <Rbt.Current_Directory>
/home/itssahil/PROJECTS/Mol_Feturizer/Test_systems_manuscript/rnas/3q50

>  <Rbt.Executable>
rbdock ($Id: //depot/dev/client3/rdock/2013.1/src/exe/rbdock.cxx#4 $)

>  <Rbt.Library>
libRbt.so (2013.1, Build901 2013/11/27)

>  <Rbt.Parameter_File>
/export/apps/rDock/src/rDock_2013.1_src/data/scripts/dock_solv.prm

>  <Rbt.Receptor>
prm/pocket_docking_5.prm

>  <SCORE>
-17.1121

>  <SCORE.INTER>
-17.1245

>  <SCORE.INTER.CONST>
1

>  <SCORE.INTER.POLAR>
0

>  <SCORE.INTER.ROT>
1

>  <SCORE.INTER.SOLV>
16.5853

>  <SCORE.INTER.VDW>
-21.2115

>  <SCORE.INTER.norm>
-1.31727

>  <SCORE.INTRA>
0.0123958

>  <SCORE.INTRA.DIHEDRAL>
0.0141992

>  <SCORE.INTRA.DIHEDRAL.0>
1.65305

>  <SCORE.INTRA.POLAR>
0

>  <SCORE.INTRA.POLAR.0>
0

>  <SCORE.INTRA.REPUL>
0

>  <SCORE.INTRA.REPUL.0>
0

>  <SCORE.INTRA.SOLV>
0.000962553

>  <SCORE.INTRA.SOLV.lig_0>
-46.9527

>  <SCORE.INTRA.VDW>
0.00481488

>  <SCORE.INTRA.VDW.0>
-0.177978

>  <SCORE.INTRA.norm>
0.00095352

>  <SCORE.RESTR>
0

>  <SCORE.RESTR.CAVITY>
0

>  <SCORE.RESTR.norm>
0

>  <SCORE.SYSTEM>
0

>  <SCORE.SYSTEM.CONST>
0

>  <SCORE.SYSTEM.DIHEDRAL>
0

>  <SCORE.SYSTEM.SOLV>
0

>  <SCORE.SYSTEM.norm>
0

>  <SCORE.heavy>
13

>  <SCORE.norm>
-1.31632

>  <RMSD>
4.868

$$$$
ligand
 OpenBabel02271912143D
libRbt.so/2013.1/901 2013/11/27
 13 14  0  0  0  0  0  0  0  0999 V2000
   37.1731   32.8290   26.8555 N   0  0  0  0  0  0  0  0  0  0  0  0
   37.9813   33.9545   26.6122 C   0  0  0  0  0  0  0  0  0  0  0  0
   39.0605   34.1403   27.4660 N   0  0  0  0  0  0  0  0  0  0  0  0
   37.7776   34.8795   25.6434 N   0  0  0  0  0  0  0  0  0  0  0  0
   36.6506   34.5949   24.8783 C   0  0  0  0  0  0  0  0  0  0  0  0
   35.7995   33.4942   25.0363 C   0  0  0  0  0  0  0  0  0  0  0  0
   36.0261   32.5516   26.0498 C   0  0  0  0  0  0  0  0  0  0  0  0
   35.3513   31.5638   26.3000 O   0  0  0  0  0  0  0  0  0  0  0  0
   34.7743   33.5638   24.0653 C   0  0  0  0  0  0  0  0  0  0  0  0
   35.0184   34.7066   23.3196 C   0  0  0  0  0  0  0  0  0  0  0  0
   36.1819   35.3465   23.8164 N   0  0  0  0  0  0  0  0  0  0  0  0
   33.6715   32.5704   23.9563 C   0  0  0  0  0  0  0  0  0  0  0  0
   32.8745   32.8027   22.7416 N   0  0  0  0  0  0  0  0  0  0  0  0
  1  2  1  0  0  0  0
  1  7  1  0  0  0  0
  2  3  1  0  0  0  0
  2  4  2  0  0  0  0
  4  5  1  0  0  0  0
  5  6  2  0  0  0  0
  5 11  1  0  0  0  0
  6  7  1  0  0  0  0
  6  9  1  0  0  0  0
  7  8  2  0  0  0  0
  9 10  2  0  0  0  0
  9 12  1  0  0  0  0
 10 11  1  0  0  0  0
 12 13  1  0  0  0  0
M  END
>  <CHROM.1>
-172.04873112,36.01704298,33.57772111,25.15704262,0.29440213,0.61211702,2.43195898

>  <Name>
ligand

>  <RI>
0

>  <Rbt.Current_Directory>
/home/itssahil/PROJECTS/Mol_Feturizer/Test_systems_manuscript/rnas/3q50

>  <Rbt.Executable>
rbdock ($Id: //depot/dev/client3/rdock/2013.1/src/exe/rbdock.cxx#4 $)

>  <Rbt.Library>
libRbt.so (2013.1, Build901 2013/11/27)

>  <Rbt.Parameter_File>
/export/apps/rDock/src/rDock_2013.1_src/data/scripts/dock_solv.prm

>  <Rbt.Receptor>
prm/pocket_docking_6.prm

>  <SCORE>
-17.0473

>  <SCORE.INTER>
-17.0496

>  <SCORE.INTER.CONST>
1

>  <SCORE.INTER.POLAR>
0

>  <SCORE.INTER.ROT>
1

>  <SCORE.INTER.SOLV>
16.3589

>  <SCORE.INTER.VDW>
-21.086

>  <SCORE.INTER.norm>
-1.31151

>  <SCORE.INTRA>
0.0023065

>  <SCORE.INTRA.DIHEDRAL>
0.0023255

>  <SCORE.INTRA.DIHEDRAL.0>
1.65305

>  <SCORE.INTRA.POLAR>
0

>  <SCORE.INTRA.POLAR.0>
0

>  <SCORE.INTRA.REPUL>
0

>  <SCORE.INTRA.REPUL.0>
0

>  <SCORE.INTRA.SOLV>
0.000181794

>  <SCORE.INTRA.SOLV.lig_0>
-46.9527

>  <SCORE.INTRA.VDW>
0.00105285

>  <SCORE.INTRA.VDW.0>
-0.177978

>  <SCORE.INTRA.norm>
0.000177423

>  <SCORE.RESTR>
0

>  <SCORE.RESTR.CAVITY>
0

>  <SCORE.RESTR.norm>
0

>  <SCORE.SYSTEM>
0

>  <SCORE.SYSTEM.CONST>
0

>  <SCORE.SYSTEM.DIHEDRAL>
0

>  <SCORE.SYSTEM.SOLV>
0

>  <SCORE.SYSTEM.norm>
0

>  <SCORE.heavy>
13

>  <SCORE.norm>
-1.31133

>  <RMSD>
4.868

$$$$
ligand
 OpenBabel02271912143D
libRbt.so/2013.1/901 2013/11/27
 13 14  0  0  0  0  0  0  0  0999 V2000
   37.1225   32.8645   26.8413 N   0  0  0  0  0  0  0  0  0  0  0  0
   37.9287   33.9860   26.5734 C   0  0  0  0  0  0  0  0  0  0  0  0
   39.0017   34.1979   27.4289 N   0  0  0  0  0  0  0  0  0  0  0  0
   37.7284   34.8843   25.5792 N   0  0  0  0  0  0  0  0  0  0  0  0
   36.6072   34.5757   24.8147 C   0  0  0  0  0  0  0  0  0  0  0  0
   35.7587   33.4769   24.9963 C   0  0  0  0  0  0  0  0  0  0  0  0
   35.9817   32.5622   26.0359 C   0  0  0  0  0  0  0  0  0  0  0  0
   35.3084   31.5790   26.3079 O   0  0  0  0  0  0  0  0  0  0  0  0
   34.7395   33.5173   24.0173 C   0  0  0  0  0  0  0  0  0  0  0  0
   34.9849   34.6407   23.2432 C   0  0  0  0  0  0  0  0  0  0  0  0
   36.1431   35.2975   23.7303 N   0  0  0  0  0  0  0  0  0  0  0  0
   33.6406   32.5177   23.9276 C   0  0  0  0  0  0  0  0  0  0  0  0
   32.8588   32.7067   22.6956 N   0  0  0  0  0  0  0  0  0  0  0  0
  1  2  1  0  0  0  0
  1  7  1  0  0  0  0
  2  3  1  0  0  0  0
  2  4  2  0  0  0  0
  4  5  1  0  0  0  0
  5  6  2  0  0  0  0
  5 11  1  0  0  0  0
  6  7  1  0  0  0  0
  6  9  1  0  0  0  0
  7  8  2  0  0  0  0
  9 10  2  0  0  0  0
  9 12  1  0  0  0  0
 10 11  1  0  0  0  0
 12 13  1  0  0  0  0
M  END
>  <CHROM.1>
-171.49393808,35.97577381,33.56355370,25.11568813,0.29657400,0.62004514,2.40400614

>  <Name>
ligand

>  <RI>
0

>  <Rbt.Current_Directory>
/home/itssahil/PROJECTS/Mol_Feturizer/Test_systems_manuscript/rnas/3q50

>  <Rbt.Executable>
rbdock ($Id: //depot/dev/client3/rdock/2013.1/src/exe/rbdock.cxx#4 $)

>  <Rbt.Library>
libRbt.so (2013.1, Build901 2013/11/27)

>  <Rbt.Parameter_File>
/export/apps/rDock/src/rDock_2013.1_src/data/scripts/dock_solv.prm

>  <Rbt.Receptor>
prm/pocket_docking_6.prm

>  <SCORE>
-17.0546

>  <SCORE.INTER>
-17.0555

>  <SCORE.INTER.CONST>
1

>  <SCORE.INTER.POLAR>
0

>  <SCORE.INTER.ROT>
1

>  <SCORE.INTER.SOLV>
16.5997

>  <SCORE.INTER.VDW>
-21.1702

>  <SCORE.INTER.norm>
-1.31196

>  <SCORE.INTRA>
0.000862356

>  <SCORE.INTRA.DIHEDRAL>
0.000855272

>  <SCORE.INTRA.DIHEDRAL.0>
1.65305

>  <SCORE.INTRA.POLAR>
0

>  <SCORE.INTRA.POLAR.0>
0

>  <SCORE.INTRA.REPUL>
0

>  <SCORE.INTRA.REPUL.0>
0

>  <SCORE.INTRA.SOLV>
6.81371e-05

>  <SCORE.INTRA.SOLV.lig_0>
-46.9527

>  <SCORE.INTRA.VDW>
0.000400651

>  <SCORE.INTRA.VDW.0>
-0.177978

>  <SCORE.INTRA.norm>
6.63351e-05

>  <SCORE.RESTR>
0

>  <SCORE.RESTR.CAVITY>
0

>  <SCORE.RESTR.norm>
0

>  <SCORE.SYSTEM>
0

>  <SCORE.SYSTEM.CONST>
0

>  <SCORE.SYSTEM.DIHEDRAL>
0

>  <SCORE.SYSTEM.SOLV>
0

>  <SCORE.SYSTEM.norm>
0

>  <SCORE.heavy>
13

>  <SCORE.norm>
-1.31189

>  <RMSD>
4.868

$$$$
ligand
 OpenBabel02271912143D
libRbt.so/2013.1/901 2013/11/27
 13 14  0  0  0  0  0  0  0  0999 V2000
   37.1147   32.8884   26.8431 N   0  0  0  0  0  0  0  0  0  0  0  0
   37.9197   34.0100   26.5725 C   0  0  0  0  0  0  0  0  0  0  0  0
   38.9900   34.2275   27.4299 N   0  0  0  0  0  0  0  0  0  0  0  0
   37.7204   34.9036   25.5738 N   0  0  0  0  0  0  0  0  0  0  0  0
   36.6019   34.5897   24.8077 C   0  0  0  0  0  0  0  0  0  0  0  0
   35.7547   33.4901   24.9918 C   0  0  0  0  0  0  0  0  0  0  0  0
   35.9765   32.5804   26.0361 C   0  0  0  0  0  0  0  0  0  0  0  0
   35.3042   31.5973   26.3106 O   0  0  0  0  0  0  0  0  0  0  0  0
   34.7381   33.5244   24.0100 C   0  0  0  0  0  0  0  0  0  0  0  0
   34.9836   34.6449   23.2316 C   0  0  0  0  0  0  0  0  0  0  0  0
   36.1394   35.3059   23.7189 N   0  0  0  0  0  0  0  0  0  0  0  0
   33.6412   32.5226   23.9217 C   0  0  0  0  0  0  0  0  0  0  0  0
   32.8916   32.6748   22.6650 N   0  0  0  0  0  0  0  0  0  0  0  0
  1  2  1  0  0  0  0
  1  7  1  0  0  0  0
  2  3  1  0  0  0  0
  2  4  2  0  0  0  0
  4  5  1  0  0  0  0
  5  6  2  0  0  0  0
  5 11  1  0  0  0  0
  6  7  1  0  0  0  0
  6  9  1  0  0  0  0
  7  8  2  0  0  0  0
  9 10  2  0  0  0  0
  9 12  1  0  0  0  0
 10 11  1  0  0  0  0
 12 13  1  0  0  0  0
M  END
>  <CHROM.1>
-169.52592250,35.97374079,33.57531220,25.10965400,0.29688323,0.62654566,2.39862530

>  <Name>
ligand

>  <RI>
0

>  <Rbt.Current_Directory>
/home/itssahil/PROJECTS/Mol_Feturizer/Test_systems_manuscript/rnas/3q50

>  <Rbt.Executable>
rbdock ($Id: //depot/dev/client3/rdock/2013.1/src/exe/rbdock.cxx#4 $)

>  <Rbt.Library>
libRbt.so (2013.1, Build901 2013/11/27)

>  <Rbt.Parameter_File>
/export/apps/rDock/src/rDock_2013.1_src/data/scripts/dock_solv.prm

>  <Rbt.Receptor>
prm/pocket_docking_7.prm

>  <SCORE>
-17.0628

>  <SCORE.INTER>
-17.0583

>  <SCORE.INTER.CONST>
1

>  <SCORE.INTER.POLAR>
0

>  <SCORE.INTER.ROT>
1

>  <SCORE.INTER.SOLV>
16.6479

>  <SCORE.INTER.VDW>
-21.1882

>  <SCORE.INTER.norm>
-1.31218

>  <SCORE.INTRA>
-0.00446159

>  <SCORE.INTRA.DIHEDRAL>
-0.00417415

>  <SCORE.INTRA.DIHEDRAL.0>
1.65305

>  <SCORE.INTRA.POLAR>
0

>  <SCORE.INTRA.POLAR.0>
0

>  <SCORE.INTRA.REPUL>
0

>  <SCORE.INTRA.REPUL.0>
0

>  <SCORE.INTRA.SOLV>
-0.000355927

>  <SCORE.INTRA.SOLV.lig_0>
-46.9527

>  <SCORE.INTRA.VDW>
-0.00219656

>  <SCORE.INTRA.VDW.0>
-0.177978

>  <SCORE.INTRA.norm>
-0.000343199

>  <SCORE.RESTR>
0

>  <SCORE.RESTR.CAVITY>
0

>  <SCORE.RESTR.norm>
0

>  <SCORE.SYSTEM>
0

>  <SCORE.SYSTEM.CONST>
0

>  <SCORE.SYSTEM.DIHEDRAL>
0

>  <SCORE.SYSTEM.SOLV>
0

>  <SCORE.SYSTEM.norm>
0

>  <SCORE.heavy>
13

>  <SCORE.norm>
-1.31252

>  <RMSD>
4.868

$$$$
ligand
 OpenBabel02271912143D
libRbt.so/2013.1/901 2013/11/27
 13 14  0  0  0  0  0  0  0  0999 V2000
   37.1626   32.8562   26.8262 N   0  0  0  0  0  0  0  0  0  0  0  0
   37.9440   33.9997   26.5793 C   0  0  0  0  0  0  0  0  0  0  0  0
   39.0232   34.2093   27.4276 N   0  0  0  0  0  0  0  0  0  0  0  0
   37.7146   34.9202   25.6120 N   0  0  0  0  0  0  0  0  0  0  0  0
   36.5903   34.6106   24.8526 C   0  0  0  0  0  0  0  0  0  0  0  0
   35.7650   33.4911   25.0144 C   0  0  0  0  0  0  0  0  0  0  0  0
   36.0179   32.5535   26.0264 C   0  0  0  0  0  0  0  0  0  0  0  0
   35.3668   31.5506   26.2796 O   0  0  0  0  0  0  0  0  0  0  0  0
   34.7334   33.5380   24.0488 C   0  0  0  0  0  0  0  0  0  0  0  0
   34.9480   34.6862   23.3025 C   0  0  0  0  0  0  0  0  0  0  0  0
   36.0994   35.3520   23.7935 N   0  0  0  0  0  0  0  0  0  0  0  0
   33.6526   32.5202   23.9450 C   0  0  0  0  0  0  0  0  0  0  0  0
   32.8639   32.7157   22.7186 N   0  0  0  0  0  0  0  0  0  0  0  0
  1  2  1  0  0  0  0
  1  7  1  0  0  0  0
  2  3  1  0  0  0  0
  2  4  2  0  0  0  0
  4  5  1  0  0  0  0
  5  6  2  0  0  0  0
  5 11  1  0  0  0  0
  6  7  1  0  0  0  0
  6  9  1  0  0  0  0
  7  8  2  0  0  0  0
  9 10  2  0  0  0  0
  9 12  1  0  0  0  0
 10 11  1  0  0  0  0
 12 13  1  0  0  0  0
M  END
>  <CHROM.1>
-170.72529563,35.98276809,33.57784810,25.13280945,0.26905876,0.62492251,2.44658336

>  <Name>
ligand

>  <RI>
0

>  <Rbt.Current_Directory>
/home/itssahil/PROJECTS/Mol_Feturizer/Test_systems_manuscript/rnas/3q50

>  <Rbt.Executable>
rbdock ($Id: //depot/dev/client3/rdock/2013.1/src/exe/rbdock.cxx#4 $)

>  <Rbt.Library>
libRbt.so (2013.1, Build901 2013/11/27)

>  <Rbt.Parameter_File>
/export/apps/rDock/src/rDock_2013.1_src/data/scripts/dock_solv.prm

>  <Rbt.Receptor>
prm/pocket_docking_8.prm

>  <SCORE>
-17.1078

>  <SCORE.INTER>
-17.1066

>  <SCORE.INTER.CONST>
1

>  <SCORE.INTER.POLAR>
0

>  <SCORE.INTER.ROT>
1

>  <SCORE.INTER.SOLV>
16.5761

>  <SCORE.INTER.VDW>
-21.1964

>  <SCORE.INTER.norm>
-1.31589

>  <SCORE.INTRA>
-0.0011811

>  <SCORE.INTRA.DIHEDRAL>
-0.00114502

>  <SCORE.INTRA.DIHEDRAL.0>
1.65305

>  <SCORE.INTRA.POLAR>
0

>  <SCORE.INTRA.POLAR.0>
0

>  <SCORE.INTRA.REPUL>
0

>  <SCORE.INTRA.REPUL.0>
0

>  <SCORE.INTRA.SOLV>
-9.36584e-05

>  <SCORE.INTRA.SOLV.lig_0>
-46.9527

>  <SCORE.INTRA.VDW>
-0.000561765

>  <SCORE.INTRA.VDW.0>
-0.177978

>  <SCORE.INTRA.norm>
-9.08541e-05

>  <SCORE.RESTR>
0

>  <SCORE.RESTR.CAVITY>
0

>  <SCORE.RESTR.norm>
0

>  <SCORE.SYSTEM>
0

>  <SCORE.SYSTEM.CONST>
0

>  <SCORE.SYSTEM.DIHEDRAL>
0

>  <SCORE.SYSTEM.SOLV>
0

>  <SCORE.SYSTEM.norm>
0

>  <SCORE.heavy>
13

>  <SCORE.norm>
-1.31598

>  <RMSD>
4.868

$$$$
ligand
 OpenBabel02271912143D
libRbt.so/2013.1/901 2013/11/27
 13 14  0  0  0  0  0  0  0  0999 V2000
   37.1759   32.8556   26.8447 N   0  0  0  0  0  0  0  0  0  0  0  0
   37.9676   33.9942   26.6073 C   0  0  0  0  0  0  0  0  0  0  0  0
   39.0447   34.1906   27.4612 N   0  0  0  0  0  0  0  0  0  0  0  0
   37.7496   34.9217   25.6439 N   0  0  0  0  0  0  0  0  0  0  0  0
   36.6262   34.6251   24.8781 C   0  0  0  0  0  0  0  0  0  0  0  0
   35.7912   33.5114   25.0304 C   0  0  0  0  0  0  0  0  0  0  0  0
   36.0323   32.5664   26.0384 C   0  0  0  0  0  0  0  0  0  0  0  0
   35.3721   31.5674   26.2834 O   0  0  0  0  0  0  0  0  0  0  0  0
   34.7642   33.5717   24.0607 C   0  0  0  0  0  0  0  0  0  0  0  0
   34.9912   34.7221   23.3214 C   0  0  0  0  0  0  0  0  0  0  0  0
   36.1457   35.3760   23.8209 N   0  0  0  0  0  0  0  0  0  0  0  0
   33.6758   32.5631   23.9469 C   0  0  0  0  0  0  0  0  0  0  0  0
   32.9398   32.7260   22.6834 N   0  0  0  0  0  0  0  0  0  0  0  0
  1  2  1  0  0  0  0
  1  7  1  0  0  0  0
  2  3  1  0  0  0  0
  2  4  2  0  0  0  0
  4  5  1  0  0  0  0
  5  6  2  0  0  0  0
  5 11  1  0  0  0  0
  6  7  1  0  0  0  0
  6  9  1  0  0  0  0
  7  8  2  0  0  0  0
  9 10  2  0  0  0  0
  9 12  1  0  0  0  0
 10 11  1  0  0  0  0
 12 13  1  0  0  0  0
M  END
>  <CHROM.1>
-167.66673206,36.01295285,33.59206445,25.14737606,0.27930548,0.62827292,2.44471502

>  <Name>
ligand

>  <RI>
0

>  <Rbt.Current_Directory>
/home/itssahil/PROJECTS/Mol_Feturizer/Test_systems_manuscript/rnas/3q50

>  <Rbt.Executable>
rbdock ($Id: //depot/dev/client3/rdock/2013.1/src/exe/rbdock.cxx#4 $)

>  <Rbt.Library>
libRbt.so (2013.1, Build901 2013/11/27)

>  <Rbt.Parameter_File>
/export/apps/rDock/src/rDock_2013.1_src/data/scripts/dock_solv.prm

>  <Rbt.Receptor>
prm/pocket_docking_8.prm

>  <SCORE>
-17.0802

>  <SCORE.INTER>
-17.0704

>  <SCORE.INTER.CONST>
1

>  <SCORE.INTER.POLAR>
0

>  <SCORE.INTER.ROT>
1

>  <SCORE.INTER.SOLV>
16.3749

>  <SCORE.INTER.VDW>
-21.1053

>  <SCORE.INTER.norm>
-1.31311

>  <SCORE.INTRA>
-0.00974177

>  <SCORE.INTRA.DIHEDRAL>
-0.00862299

>  <SCORE.INTRA.DIHEDRAL.0>
1.65305

>  <SCORE.INTRA.POLAR>
0

>  <SCORE.INTRA.POLAR.0>
0

>  <SCORE.INTRA.REPUL>
0

>  <SCORE.INTRA.REPUL.0>
0

>  <SCORE.INTRA.SOLV>
-0.000785152

>  <SCORE.INTRA.SOLV.lig_0>
-46.9527

>  <SCORE.INTRA.VDW>
-0.0050377

>  <SCORE.INTRA.VDW.0>
-0.177978

>  <SCORE.INTRA.norm>
-0.000749367

>  <SCORE.RESTR>
0

>  <SCORE.RESTR.CAVITY>
0

>  <SCORE.RESTR.norm>
0

>  <SCORE.SYSTEM>
0

>  <SCORE.SYSTEM.CONST>
0

>  <SCORE.SYSTEM.DIHEDRAL>
0

>  <SCORE.SYSTEM.SOLV>
0

>  <SCORE.SYSTEM.norm>
0

>  <SCORE.heavy>
13

>  <SCORE.norm>
-1.31386

>  <RMSD>
4.868

$$$$
ligand
 OpenBabel02271912143D
libRbt.so/2013.1/901 2013/11/27
 13 14  0  0  0  0  0  0  0  0999 V2000
   37.1731   32.8525   26.8494 N   0  0  0  0  0  0  0  0  0  0  0  0
   37.9641   33.9917   26.6131 C   0  0  0  0  0  0  0  0  0  0  0  0
   39.0392   34.1895   27.4692 N   0  0  0  0  0  0  0  0  0  0  0  0
   37.7473   34.9185   25.6489 N   0  0  0  0  0  0  0  0  0  0  0  0
   36.6257   34.6206   24.8808 C   0  0  0  0  0  0  0  0  0  0  0  0
   35.7915   33.5061   25.0319 C   0  0  0  0  0  0  0  0  0  0  0  0
   36.0314   32.5618   26.0408 C   0  0  0  0  0  0  0  0  0  0  0  0
   35.3717   31.5623   26.2849 O   0  0  0  0  0  0  0  0  0  0  0  0
   34.7665   33.5650   24.0600 C   0  0  0  0  0  0  0  0  0  0  0  0
   34.9939   34.7153   23.3207 C   0  0  0  0  0  0  0  0  0  0  0  0
   36.1467   35.3705   23.8223 N   0  0  0  0  0  0  0  0  0  0  0  0
   33.6793   32.5553   23.9443 C   0  0  0  0  0  0  0  0  0  0  0  0
   32.9578   32.7049   22.6709 N   0  0  0  0  0  0  0  0  0  0  0  0
  1  2  1  0  0  0  0
  1  7  1  0  0  0  0
  2  3  1  0  0  0  0
  2  4  2  0  0  0  0
  4  5  1  0  0  0  0
  5  6  2  0  0  0  0
  5 11  1  0  0  0  0
  6  7  1  0  0  0  0
  6  9  1  0  0  0  0
  7  8  2  0  0  0  0
  9 10  2  0  0  0  0
  9 12  1  0  0  0  0
 10 11  1  0  0  0  0
 12 13  1  0  0  0  0
M  END
>  <CHROM.1>
-166.87682938,36.01389134,33.58604739,25.14858977,0.27979793,0.63183328,2.44365492

>  <Name>
ligand

>  <RI>
0

>  <Rbt.Current_Directory>
/home/itssahil/PROJECTS/Mol_Feturizer/Test_systems_manuscript/rnas/3q50

>  <Rbt.Executable>
rbdock ($Id: //depot/dev/client3/rdock/2013.1/src/exe/rbdock.cxx#4 $)

>  <Rbt.Library>
libRbt.so (2013.1, Build901 2013/11/27)

>  <Rbt.Parameter_File>
/export/apps/rDock/src/rDock_2013.1_src/data/scripts/dock_solv.prm

>  <Rbt.Receptor>
prm/pocket_docking_8.prm

>  <SCORE>
-17.0752

>  <SCORE.INTER>
-17.0632

>  <SCORE.INTER.CONST>
1

>  <SCORE.INTER.POLAR>
0

>  <SCORE.INTER.ROT>
1

>  <SCORE.INTER.SOLV>
16.3777

>  <SCORE.INTER.VDW>
-21.1013

>  <SCORE.INTER.norm>
-1.31255

>  <SCORE.INTRA>
-0.0120469

>  <SCORE.INTRA.DIHEDRAL>
-0.0104135

>  <SCORE.INTRA.DIHEDRAL.0>
1.65305

>  <SCORE.INTRA.POLAR>
0

>  <SCORE.INTRA.POLAR.0>
0

>  <SCORE.INTRA.REPUL>
0

>  <SCORE.INTRA.REPUL.0>
0

>  <SCORE.INTRA.SOLV>
-0.000975476

>  <SCORE.INTRA.SOLV.lig_0>
-46.9527

>  <SCORE.INTRA.VDW>
-0.00635241

>  <SCORE.INTRA.VDW.0>
-0.177978

>  <SCORE.INTRA.norm>
-0.000926685

>  <SCORE.RESTR>
0

>  <SCORE.RESTR.CAVITY>
0

>  <SCORE.RESTR.norm>
0

>  <SCORE.SYSTEM>
0

>  <SCORE.SYSTEM.CONST>
0

>  <SCORE.SYSTEM.DIHEDRAL>
0

>  <SCORE.SYSTEM.SOLV>
0

>  <SCORE.SYSTEM.norm>
0

>  <SCORE.heavy>
13

>  <SCORE.norm>
-1.31348

>  <RMSD>
4.868

$$$$
ligand
 OpenBabel02271912143D
libRbt.so/2013.1/901 2013/11/27
 13 14  0  0  0  0  0  0  0  0999 V2000
   37.1697   32.8089   26.8214 N   0  0  0  0  0  0  0  0  0  0  0  0
   37.9609   33.9447   26.5700 C   0  0  0  0  0  0  0  0  0  0  0  0
   39.0476   34.1430   27.4113 N   0  0  0  0  0  0  0  0  0  0  0  0
   37.7344   34.8680   25.6047 N   0  0  0  0  0  0  0  0  0  0  0  0
   36.6021   34.5702   24.8525 C   0  0  0  0  0  0  0  0  0  0  0  0
   35.7667   33.4589   25.0191 C   0  0  0  0  0  0  0  0  0  0  0  0
   36.0169   32.5181   26.0289 C   0  0  0  0  0  0  0  0  0  0  0  0
   35.3574   31.5216   26.2858 O   0  0  0  0  0  0  0  0  0  0  0  0
   34.7293   33.5166   24.0603 C   0  0  0  0  0  0  0  0  0  0  0  0
   34.9505   34.6631   23.3132 C   0  0  0  0  0  0  0  0  0  0  0  0
   36.1117   35.3170   23.7971 N   0  0  0  0  0  0  0  0  0  0  0  0
   33.6378   32.5098   23.9630 C   0  0  0  0  0  0  0  0  0  0  0  0
   32.8635   32.6934   22.7256 N   0  0  0  0  0  0  0  0  0  0  0  0
  1  2  1  0  0  0  0
  1  7  1  0  0  0  0
  2  3  1  0  0  0  0
  2  4  2  0  0  0  0
  4  5  1  0  0  0  0
  5  6  2  0  0  0  0
  5 11  1  0  0  0  0
  6  7  1  0  0  0  0
  6  9  1  0  0  0  0
  7  8  2  0  0  0  0
  9 10  2  0  0  0  0
  9 12  1  0  0  0  0
 10 11  1  0  0  0  0
 12 13  1  0  0  0  0
M  END
>  <CHROM.1>
-169.33908818,35.98777768,33.54167718,25.13480535,0.27305183,0.61586056,2.44432123

>  <Name>
ligand

>  <RI>
0

>  <Rbt.Current_Directory>
/home/itssahil/PROJECTS/Mol_Feturizer/Test_systems_manuscript/rnas/3q50

>  <Rbt.Executable>
rbdock ($Id: //depot/dev/client3/rdock/2013.1/src/exe/rbdock.cxx#4 $)

>  <Rbt.Library>
libRbt.so (2013.1, Build901 2013/11/27)

>  <Rbt.Parameter_File>
/export/apps/rDock/src/rDock_2013.1_src/data/scripts/dock_solv.prm

>  <Rbt.Receptor>
prm/pocket_docking_5.prm

>  <SCORE>
-17.0589

>  <SCORE.INTER>
-17.0539

>  <SCORE.INTER.CONST>
1

>  <SCORE.INTER.POLAR>
0

>  <SCORE.INTER.ROT>
1

>  <SCORE.INTER.SOLV>
16.5302

>  <SCORE.INTER.VDW>
-21.146

>  <SCORE.INTER.norm>
-1.31184

>  <SCORE.INTRA>
-0.00498203

>  <SCORE.INTRA.DIHEDRAL>
-0.00463526

>  <SCORE.INTRA.DIHEDRAL.0>
1.65305

>  <SCORE.INTRA.POLAR>
0

>  <SCORE.INTRA.POLAR.0>
0

>  <SCORE.INTRA.REPUL>
0

>  <SCORE.INTRA.REPUL.0>
0

>  <SCORE.INTRA.SOLV>
-0.000397834

>  <SCORE.INTRA.SOLV.lig_0>
-46.9527

>  <SCORE.INTRA.VDW>
-0.00246548

>  <SCORE.INTRA.VDW.0>
-0.177978

>  <SCORE.INTRA.norm>
-0.000383233

>  <SCORE.RESTR>
0

>  <SCORE.RESTR.CAVITY>
0

>  <SCORE.RESTR.norm>
0

>  <SCORE.SYSTEM>
0

>  <SCORE.SYSTEM.CONST>
0

>  <SCORE.SYSTEM.DIHEDRAL>
0

>  <SCORE.SYSTEM.SOLV>
0

>  <SCORE.SYSTEM.norm>
0

>  <SCORE.heavy>
13

>  <SCORE.norm>
-1.31222

>  <RMSD>
4.869

$$$$
ligand
 OpenBabel02271912143D
libRbt.so/2013.1/901 2013/11/27
 13 14  0  0  0  0  0  0  0  0999 V2000
   37.1640   32.8546   26.8305 N   0  0  0  0  0  0  0  0  0  0  0  0
   37.9473   33.9970   26.5840 C   0  0  0  0  0  0  0  0  0  0  0  0
   39.0252   34.2060   27.4339 N   0  0  0  0  0  0  0  0  0  0  0  0
   37.7206   34.9170   25.6155 N   0  0  0  0  0  0  0  0  0  0  0  0
   36.5972   34.6082   24.8545 C   0  0  0  0  0  0  0  0  0  0  0  0
   35.7702   33.4898   25.0158 C   0  0  0  0  0  0  0  0  0  0  0  0
   36.0204   32.5527   26.0290 C   0  0  0  0  0  0  0  0  0  0  0  0
   35.3675   31.5508   26.2819 O   0  0  0  0  0  0  0  0  0  0  0  0
   34.7403   33.5371   24.0485 C   0  0  0  0  0  0  0  0  0  0  0  0
   34.9576   34.6845   23.3015 C   0  0  0  0  0  0  0  0  0  0  0  0
   36.1089   35.3493   23.7940 N   0  0  0  0  0  0  0  0  0  0  0  0
   33.6585   32.5205   23.9437 C   0  0  0  0  0  0  0  0  0  0  0  0
   32.8656   32.7224   22.7210 N   0  0  0  0  0  0  0  0  0  0  0  0
  1  2  1  0  0  0  0
  1  7  1  0  0  0  0
  2  3  1  0  0  0  0
  2  4  2  0  0  0  0
  4  5  1  0  0  0  0
  5  6  2  0  0  0  0
  5 11  1  0  0  0  0
  6  7  1  0  0  0  0
  6  9  1  0  0  0  0
  7  8  2  0  0  0  0
  9 10  2  0  0  0  0
  9 12  1  0  0  0  0
 10 11  1  0  0  0  0
 12 13  1  0  0  0  0
M  END
>  <CHROM.1>
-171.16071390,35.98742535,33.57688393,25.13495575,0.27161493,0.62469772,2.44443189

>  <Name>
ligand

>  <RI>
0

>  <Rbt.Current_Directory>
/home/itssahil/PROJECTS/Mol_Feturizer/Test_systems_manuscript/rnas/3q50

>  <Rbt.Executable>
rbdock ($Id: //depot/dev/client3/rdock/2013.1/src/exe/rbdock.cxx#4 $)

>  <Rbt.Library>
libRbt.so (2013.1, Build901 2013/11/27)

>  <Rbt.Parameter_File>
/export/apps/rDock/src/rDock_2013.1_src/data/scripts/dock_solv.prm

>  <Rbt.Receptor>
prm/pocket_docking_7.prm

>  <SCORE>
-17.0769

>  <SCORE.INTER>
-17.0769

>  <SCORE.INTER.CONST>
1

>  <SCORE.INTER.POLAR>
0

>  <SCORE.INTER.ROT>
1

>  <SCORE.INTER.SOLV>
16.5547

>  <SCORE.INTER.VDW>
-21.1695

>  <SCORE.INTER.norm>
-1.31361

>  <SCORE.INTRA>
-1.75973e-05

>  <SCORE.INTRA.DIHEDRAL>
-1.72812e-05

>  <SCORE.INTRA.DIHEDRAL.0>
1.65305

>  <SCORE.INTRA.POLAR>
0

>  <SCORE.INTRA.POLAR.0>
0

>  <SCORE.INTRA.REPUL>
0

>  <SCORE.INTRA.REPUL.0>
0

>  <SCORE.INTRA.SOLV>
-1.3925e-06

>  <SCORE.INTRA.SOLV.lig_0>
-46.9527

>  <SCORE.INTRA.VDW>
-8.26041e-06

>  <SCORE.INTRA.VDW.0>
-0.177978

>  <SCORE.INTRA.norm>
-1.35364e-06

>  <SCORE.RESTR>
0

>  <SCORE.RESTR.CAVITY>
0

>  <SCORE.RESTR.norm>
0

>  <SCORE.SYSTEM>
0

>  <SCORE.SYSTEM.CONST>
0

>  <SCORE.SYSTEM.DIHEDRAL>
0

>  <SCORE.SYSTEM.SOLV>
0

>  <SCORE.SYSTEM.norm>
0

>  <SCORE.heavy>
13

>  <SCORE.norm>
-1.31361

>  <RMSD>
4.869

$$$$
ligand
 OpenBabel02271912143D
libRbt.so/2013.1/901 2013/11/27
 13 14  0  0  0  0  0  0  0  0999 V2000
   37.1641   32.8640   26.8249 N   0  0  0  0  0  0  0  0  0  0  0  0
   37.9593   33.9938   26.5593 C   0  0  0  0  0  0  0  0  0  0  0  0
   39.0426   34.2027   27.4025 N   0  0  0  0  0  0  0  0  0  0  0  0
   37.7396   34.9024   25.5785 N   0  0  0  0  0  0  0  0  0  0  0  0
   36.6101   34.5954   24.8258 C   0  0  0  0  0  0  0  0  0  0  0  0
   35.7711   33.4889   25.0060 C   0  0  0  0  0  0  0  0  0  0  0  0
   36.0143   32.5636   26.0317 C   0  0  0  0  0  0  0  0  0  0  0  0
   35.3511   31.5729   26.3012 O   0  0  0  0  0  0  0  0  0  0  0  0
   34.7384   33.5340   24.0416 C   0  0  0  0  0  0  0  0  0  0  0  0
   34.9659   34.6680   23.2775 C   0  0  0  0  0  0  0  0  0  0  0  0
   36.1264   35.3266   23.7564 N   0  0  0  0  0  0  0  0  0  0  0  0
   33.6448   32.5283   23.9551 C   0  0  0  0  0  0  0  0  0  0  0  0
   32.8780   32.6929   22.7103 N   0  0  0  0  0  0  0  0  0  0  0  0
  1  2  1  0  0  0  0
  1  7  1  0  0  0  0
  2  3  1  0  0  0  0
  2  4  2  0  0  0  0
  4  5  1  0  0  0  0
  5  6  2  0  0  0  0
  5 11  1  0  0  0  0
  6  7  1  0  0  0  0
  6  9  1  0  0  0  0
  7  8  2  0  0  0  0
  9 10  2  0  0  0  0
  9 12  1  0  0  0  0
 10 11  1  0  0  0  0
 12 13  1  0  0  0  0
M  END
>  <CHROM.1>
-169.25079923,35.99198376,33.57283716,25.12136372,0.27903033,0.61796226,2.42503157

>  <Name>
ligand

>  <RI>
0

>  <Rbt.Current_Directory>
/home/itssahil/PROJECTS/Mol_Feturizer/Test_systems_manuscript/rnas/3q50

>  <Rbt.Executable>
rbdock ($Id: //depot/dev/client3/rdock/2013.1/src/exe/rbdock.cxx#4 $)

>  <Rbt.Library>
libRbt.so (2013.1, Build901 2013/11/27)

>  <Rbt.Parameter_File>
/export/apps/rDock/src/rDock_2013.1_src/data/scripts/dock_solv.prm

>  <Rbt.Receptor>
prm/pocket_docking_2.prm

>  <SCORE>
-17.0736

>  <SCORE.INTER>
-17.0683

>  <SCORE.INTER.CONST>
1

>  <SCORE.INTER.POLAR>
0

>  <SCORE.INTER.ROT>
1

>  <SCORE.INTER.SOLV>
16.5206

>  <SCORE.INTER.VDW>
-21.1524

>  <SCORE.INTER.norm>
-1.31295

>  <SCORE.INTRA>
-0.0052288

>  <SCORE.INTRA.DIHEDRAL>
-0.00485212

>  <SCORE.INTRA.DIHEDRAL.0>
1.65305

>  <SCORE.INTRA.POLAR>
0

>  <SCORE.INTRA.POLAR.0>
0

>  <SCORE.INTRA.REPUL>
0

>  <SCORE.INTRA.REPUL.0>
0

>  <SCORE.INTRA.SOLV>
-0.000417735

>  <SCORE.INTRA.SOLV.lig_0>
-46.9527

>  <SCORE.INTRA.VDW>
-0.00259387

>  <SCORE.INTRA.VDW.0>
-0.177978

>  <SCORE.INTRA.norm>
-0.000402215

>  <SCORE.RESTR>
0

>  <SCORE.RESTR.CAVITY>
0

>  <SCORE.RESTR.norm>
0

>  <SCORE.SYSTEM>
0

>  <SCORE.SYSTEM.CONST>
0

>  <SCORE.SYSTEM.DIHEDRAL>
0

>  <SCORE.SYSTEM.SOLV>
0

>  <SCORE.SYSTEM.norm>
0

>  <SCORE.heavy>
13

>  <SCORE.norm>
-1.31335

>  <RMSD>
4.870

$$$$
ligand
 OpenBabel02271912143D
libRbt.so/2013.1/901 2013/11/27
 13 14  0  0  0  0  0  0  0  0999 V2000
   37.1185   32.8419   26.7765 N   0  0  0  0  0  0  0  0  0  0  0  0
   37.8980   33.9777   26.4909 C   0  0  0  0  0  0  0  0  0  0  0  0
   38.9857   34.2093   27.3224 N   0  0  0  0  0  0  0  0  0  0  0  0
   37.6593   34.8719   25.5015 N   0  0  0  0  0  0  0  0  0  0  0  0
   36.5273   34.5428   24.7620 C   0  0  0  0  0  0  0  0  0  0  0  0
   35.7031   33.4287   24.9623 C   0  0  0  0  0  0  0  0  0  0  0  0
   35.9657   32.5185   25.9966 C   0  0  0  0  0  0  0  0  0  0  0  0
   35.3166   31.5234   26.2833 O   0  0  0  0  0  0  0  0  0  0  0  0
   34.6619   33.4503   24.0062 C   0  0  0  0  0  0  0  0  0  0  0  0
   34.8695   34.5778   23.2269 C   0  0  0  0  0  0  0  0  0  0  0  0
   36.0261   35.2557   23.6883 N   0  0  0  0  0  0  0  0  0  0  0  0
   33.5796   32.4309   23.9407 C   0  0  0  0  0  0  0  0  0  0  0  0
   32.8083   32.5639   22.6950 N   0  0  0  0  0  0  0  0  0  0  0  0
  1  2  1  0  0  0  0
  1  7  1  0  0  0  0
  2  3  1  0  0  0  0
  2  4  2  0  0  0  0
  4  5  1  0  0  0  0
  5  6  2  0  0  0  0
  5 11  1  0  0  0  0
  6  7  1  0  0  0  0
  6  9  1  0  0  0  0
  7  8  2  0  0  0  0
  9 10  2  0  0  0  0
  9 12  1  0  0  0  0
 10 11  1  0  0  0  0
 12 13  1  0  0  0  0
M  END
>  <CHROM.1>
-168.74033319,35.92449941,33.51601406,25.07427613,0.26119116,0.62026945,2.42340839

>  <Name>
ligand

>  <RI>
0

>  <Rbt.Current_Directory>
/home/itssahil/PROJECTS/Mol_Feturizer/Test_systems_manuscript/rnas/3q50

>  <Rbt.Executable>
rbdock ($Id: //depot/dev/client3/rdock/2013.1/src/exe/rbdock.cxx#4 $)

>  <Rbt.Library>
libRbt.so (2013.1, Build901 2013/11/27)

>  <Rbt.Parameter_File>
/export/apps/rDock/src/rDock_2013.1_src/data/scripts/dock_solv.prm

>  <Rbt.Receptor>
prm/pocket_docking_2.prm

>  <SCORE>
-17.0205

>  <SCORE.INTER>
-17.0139

>  <SCORE.INTER.CONST>
1

>  <SCORE.INTER.POLAR>
0

>  <SCORE.INTER.ROT>
1

>  <SCORE.INTER.SOLV>
16.9416

>  <SCORE.INTER.VDW>
-21.2565

>  <SCORE.INTER.norm>
-1.30876

>  <SCORE.INTRA>
-0.00666584

>  <SCORE.INTRA.DIHEDRAL>
-0.00609244

>  <SCORE.INTRA.DIHEDRAL.0>
1.65305

>  <SCORE.INTRA.POLAR>
0

>  <SCORE.INTRA.POLAR.0>
0

>  <SCORE.INTRA.REPUL>
0

>  <SCORE.INTRA.REPUL.0>
0

>  <SCORE.INTRA.SOLV>
-0.000534007

>  <SCORE.INTRA.SOLV.lig_0>
-46.9527

>  <SCORE.INTRA.VDW>
-0.00335262

>  <SCORE.INTRA.VDW.0>
-0.177978

>  <SCORE.INTRA.norm>
-0.000512757

>  <SCORE.RESTR>
0

>  <SCORE.RESTR.CAVITY>
0

>  <SCORE.RESTR.norm>
0

>  <SCORE.SYSTEM>
0

>  <SCORE.SYSTEM.CONST>
0

>  <SCORE.SYSTEM.DIHEDRAL>
0

>  <SCORE.SYSTEM.SOLV>
0

>  <SCORE.SYSTEM.norm>
0

>  <SCORE.heavy>
13

>  <SCORE.norm>
-1.30927

>  <RMSD>
4.870

$$$$
ligand
 OpenBabel02271912143D
libRbt.so/2013.1/901 2013/11/27
 13 14  0  0  0  0  0  0  0  0999 V2000
   37.1586   32.8592   26.8363 N   0  0  0  0  0  0  0  0  0  0  0  0
   37.9504   33.9935   26.5797 C   0  0  0  0  0  0  0  0  0  0  0  0
   39.0284   34.2032   27.4294 N   0  0  0  0  0  0  0  0  0  0  0  0
   37.7319   34.9054   25.6018 N   0  0  0  0  0  0  0  0  0  0  0  0
   36.6076   34.5969   24.8419 C   0  0  0  0  0  0  0  0  0  0  0  0
   35.7724   33.4862   25.0130 C   0  0  0  0  0  0  0  0  0  0  0  0
   36.0141   32.5575   26.0359 C   0  0  0  0  0  0  0  0  0  0  0  0
   35.3537   31.5629   26.2977 O   0  0  0  0  0  0  0  0  0  0  0  0
   34.7445   33.5312   24.0435 C   0  0  0  0  0  0  0  0  0  0  0  0
   34.9712   34.6695   23.2855 C   0  0  0  0  0  0  0  0  0  0  0  0
   36.1264   35.3308   23.7732 N   0  0  0  0  0  0  0  0  0  0  0  0
   33.6556   32.5214   23.9470 C   0  0  0  0  0  0  0  0  0  0  0  0
   32.8549   32.7279   22.7301 N   0  0  0  0  0  0  0  0  0  0  0  0
  1  2  1  0  0  0  0
  1  7  1  0  0  0  0
  2  3  1  0  0  0  0
  2  4  2  0  0  0  0
  4  5  1  0  0  0  0
  5  6  2  0  0  0  0
  5 11  1  0  0  0  0
  6  7  1  0  0  0  0
  6  9  1  0  0  0  0
  7  8  2  0  0  0  0
  9 10  2  0  0  0  0
  9 12  1  0  0  0  0
 10 11  1  0  0  0  0
 12 13  1  0  0  0  0
M  END
>  <CHROM.1>
-171.92716252,35.98909360,33.57381283,25.13237359,0.27978954,0.62003930,2.42995122

>  <Name>
ligand

>  <RI>
0

>  <Rbt.Current_Directory>
/home/itssahil/PROJECTS/Mol_Feturizer/Test_systems_manuscript/rnas/3q50

>  <Rbt.Executable>
rbdock ($Id: //depot/dev/client3/rdock/2013.1/src/exe/rbdock.cxx#4 $)

>  <Rbt.Library>
libRbt.so (2013.1, Build901 2013/11/27)

>  <Rbt.Parameter_File>
/export/apps/rDock/src/rDock_2013.1_src/data/scripts/dock_solv.prm

>  <Rbt.Receptor>
prm/pocket_docking_2.prm

>  <SCORE>
-17.0693

>  <SCORE.INTER>
-17.0713

>  <SCORE.INTER.CONST>
1

>  <SCORE.INTER.POLAR>
0

>  <SCORE.INTER.ROT>
1

>  <SCORE.INTER.SOLV>
16.5497

>  <SCORE.INTER.VDW>
-21.1641

>  <SCORE.INTER.norm>
-1.31317

>  <SCORE.INTRA>
0.00199233

>  <SCORE.INTRA.DIHEDRAL>
0.00200152

>  <SCORE.INTRA.DIHEDRAL.0>
1.65305

>  <SCORE.INTRA.POLAR>
0

>  <SCORE.INTRA.POLAR.0>
0

>  <SCORE.INTRA.REPUL>
0

>  <SCORE.INTRA.REPUL.0>
0

>  <SCORE.INTRA.SOLV>
0.000157115

>  <SCORE.INTRA.SOLV.lig_0>
-46.9527

>  <SCORE.INTRA.VDW>
0.000913017

>  <SCORE.INTRA.VDW.0>
-0.177978

>  <SCORE.INTRA.norm>
0.000153256

>  <SCORE.RESTR>
0

>  <SCORE.RESTR.CAVITY>
0

>  <SCORE.RESTR.norm>
0

>  <SCORE.SYSTEM>
0

>  <SCORE.SYSTEM.CONST>
0

>  <SCORE.SYSTEM.DIHEDRAL>
0

>  <SCORE.SYSTEM.SOLV>
0

>  <SCORE.SYSTEM.norm>
0

>  <SCORE.heavy>
13

>  <SCORE.norm>
-1.31302

>  <RMSD>
4.870

$$$$
ligand
 OpenBabel02271912143D
libRbt.so/2013.1/901 2013/11/27
 13 14  0  0  0  0  0  0  0  0999 V2000
   37.1847   32.8730   26.8279 N   0  0  0  0  0  0  0  0  0  0  0  0
   37.9783   34.0059   26.5709 C   0  0  0  0  0  0  0  0  0  0  0  0
   39.0593   34.2118   27.4177 N   0  0  0  0  0  0  0  0  0  0  0  0
   37.7589   34.9200   25.5952 N   0  0  0  0  0  0  0  0  0  0  0  0
   36.6317   34.6154   24.8382 C   0  0  0  0  0  0  0  0  0  0  0  0
   35.7945   33.5062   25.0098 C   0  0  0  0  0  0  0  0  0  0  0  0
   36.0372   32.5752   26.0303 C   0  0  0  0  0  0  0  0  0  0  0  0
   35.3753   31.5816   26.2924 O   0  0  0  0  0  0  0  0  0  0  0  0
   34.7637   33.5552   24.0434 C   0  0  0  0  0  0  0  0  0  0  0  0
   34.9907   34.6943   23.2867 C   0  0  0  0  0  0  0  0  0  0  0  0
   36.1489   35.3522   23.7722 N   0  0  0  0  0  0  0  0  0  0  0  0
   33.6723   32.5480   23.9484 C   0  0  0  0  0  0  0  0  0  0  0  0
   32.9097   32.7169   22.7017 N   0  0  0  0  0  0  0  0  0  0  0  0
  1  2  1  0  0  0  0
  1  7  1  0  0  0  0
  2  3  1  0  0  0  0
  2  4  2  0  0  0  0
  4  5  1  0  0  0  0
  5  6  2  0  0  0  0
  5 11  1  0  0  0  0
  6  7  1  0  0  0  0
  6  9  1  0  0  0  0
  7  8  2  0  0  0  0
  9 10  2  0  0  0  0
  9 12  1  0  0  0  0
 10 11  1  0  0  0  0
 12 13  1  0  0  0  0
M  END
>  <CHROM.1>
-169.13731980,36.01505452,33.58977228,25.12602760,0.27896927,0.62107951,2.43110257

>  <Name>
ligand

>  <RI>
0

>  <Rbt.Current_Directory>
/home/itssahil/PROJECTS/Mol_Feturizer/Test_systems_manuscript/rnas/3q50

>  <Rbt.Executable>
rbdock ($Id: //depot/dev/client3/rdock/2013.1/src/exe/rbdock.cxx#4 $)

>  <Rbt.Library>
libRbt.so (2013.1, Build901 2013/11/27)

>  <Rbt.Parameter_File>
/export/apps/rDock/src/rDock_2013.1_src/data/scripts/dock_solv.prm

>  <Rbt.Receptor>
prm/pocket_docking_8.prm

>  <SCORE>
-17.0588

>  <SCORE.INTER>
-17.0533

>  <SCORE.INTER.CONST>
1

>  <SCORE.INTER.POLAR>
0

>  <SCORE.INTER.ROT>
1

>  <SCORE.INTER.SOLV>
16.4268

>  <SCORE.INTER.VDW>
-21.1111

>  <SCORE.INTER.norm>
-1.31179

>  <SCORE.INTRA>
-0.00554676

>  <SCORE.INTRA.DIHEDRAL>
-0.00512984

>  <SCORE.INTRA.DIHEDRAL.0>
1.65305

>  <SCORE.INTRA.POLAR>
0

>  <SCORE.INTRA.POLAR.0>
0

>  <SCORE.INTRA.REPUL>
0

>  <SCORE.INTRA.REPUL.0>
0

>  <SCORE.INTRA.SOLV>
-0.000443405

>  <SCORE.INTRA.SOLV.lig_0>
-46.9527

>  <SCORE.INTRA.VDW>
-0.00276014

>  <SCORE.INTRA.VDW.0>
-0.177978

>  <SCORE.INTRA.norm>
-0.000426674

>  <SCORE.RESTR>
0

>  <SCORE.RESTR.CAVITY>
0

>  <SCORE.RESTR.norm>
0

>  <SCORE.SYSTEM>
0

>  <SCORE.SYSTEM.CONST>
0

>  <SCORE.SYSTEM.DIHEDRAL>
0

>  <SCORE.SYSTEM.SOLV>
0

>  <SCORE.SYSTEM.norm>
0

>  <SCORE.heavy>
13

>  <SCORE.norm>
-1.31222

>  <RMSD>
4.870

$$$$
ligand
 OpenBabel02271912143D
libRbt.so/2013.1/901 2013/11/27
 13 14  0  0  0  0  0  0  0  0999 V2000
   37.1828   32.8658   26.8340 N   0  0  0  0  0  0  0  0  0  0  0  0
   37.9830   33.9945   26.5792 C   0  0  0  0  0  0  0  0  0  0  0  0
   39.0623   34.1953   27.4294 N   0  0  0  0  0  0  0  0  0  0  0  0
   37.7715   34.9093   25.6023 N   0  0  0  0  0  0  0  0  0  0  0  0
   36.6452   34.6101   24.8418 C   0  0  0  0  0  0  0  0  0  0  0  0
   35.8018   33.5053   25.0112 C   0  0  0  0  0  0  0  0  0  0  0  0
   36.0364   32.5735   26.0329 C   0  0  0  0  0  0  0  0  0  0  0  0
   35.3686   31.5834   26.2932 O   0  0  0  0  0  0  0  0  0  0  0  0
   34.7745   33.5591   24.0414 C   0  0  0  0  0  0  0  0  0  0  0  0
   35.0097   34.6967   23.2850 C   0  0  0  0  0  0  0  0  0  0  0  0
   36.1697   35.3489   23.7739 N   0  0  0  0  0  0  0  0  0  0  0  0
   33.6782   32.5575   23.9433 C   0  0  0  0  0  0  0  0  0  0  0  0
   32.9166   32.7337   22.6970 N   0  0  0  0  0  0  0  0  0  0  0  0
  1  2  1  0  0  0  0
  1  7  1  0  0  0  0
  2  3  1  0  0  0  0
  2  4  2  0  0  0  0
  4  5  1  0  0  0  0
  5  6  2  0  0  0  0
  5 11  1  0  0  0  0
  6  7  1  0  0  0  0
  6  9  1  0  0  0  0
  7  8  2  0  0  0  0
  9 10  2  0  0  0  0
  9 12  1  0  0  0  0
 10 11  1  0  0  0  0
 12 13  1  0  0  0  0
M  END
>  <CHROM.1>
-169.39897033,36.02209364,33.58810671,25.12830688,0.28639349,0.61974411,2.42644835

>  <Name>
ligand

>  <RI>
0

>  <Rbt.Current_Directory>
/home/itssahil/PROJECTS/Mol_Feturizer/Test_systems_manuscript/rnas/3q50

>  <Rbt.Executable>
rbdock ($Id: //depot/dev/client3/rdock/2013.1/src/exe/rbdock.cxx#4 $)

>  <Rbt.Library>
libRbt.so (2013.1, Build901 2013/11/27)

>  <Rbt.Parameter_File>
/export/apps/rDock/src/rDock_2013.1_src/data/scripts/dock_solv.prm

>  <Rbt.Receptor>
prm/pocket_docking_8.prm

>  <SCORE>
-17.0623

>  <SCORE.INTER>
-17.0575

>  <SCORE.INTER.CONST>
1

>  <SCORE.INTER.POLAR>
0

>  <SCORE.INTER.ROT>
1

>  <SCORE.INTER.SOLV>
16.373

>  <SCORE.INTER.VDW>
-21.096

>  <SCORE.INTER.norm>
-1.31211

>  <SCORE.INTRA>
-0.00481496

>  <SCORE.INTRA.DIHEDRAL>
-0.0044878

>  <SCORE.INTRA.DIHEDRAL.0>
1.65305

>  <SCORE.INTRA.POLAR>
0

>  <SCORE.INTRA.POLAR.0>
0

>  <SCORE.INTRA.REPUL>
0

>  <SCORE.INTRA.REPUL.0>
0

>  <SCORE.INTRA.SOLV>
-0.000384372

>  <SCORE.INTRA.SOLV.lig_0>
-46.9527

>  <SCORE.INTRA.VDW>
-0.00237887

>  <SCORE.INTRA.VDW.0>
-0.177978

>  <SCORE.INTRA.norm>
-0.000370381

>  <SCORE.RESTR>
0

>  <SCORE.RESTR.CAVITY>
0

>  <SCORE.RESTR.norm>
0

>  <SCORE.SYSTEM>
0

>  <SCORE.SYSTEM.CONST>
0

>  <SCORE.SYSTEM.DIHEDRAL>
0

>  <SCORE.SYSTEM.SOLV>
0

>  <SCORE.SYSTEM.norm>
0

>  <SCORE.heavy>
13

>  <SCORE.norm>
-1.31248

>  <RMSD>
4.870

$$$$
ligand
 OpenBabel02271912143D
libRbt.so/2013.1/901 2013/11/27
 13 14  0  0  0  0  0  0  0  0999 V2000
   37.0633   32.9663   26.9010 N   0  0  0  0  0  0  0  0  0  0  0  0
   37.8917   34.0620   26.5967 C   0  0  0  0  0  0  0  0  0  0  0  0
   38.9511   34.2987   27.4624 N   0  0  0  0  0  0  0  0  0  0  0  0
   37.7244   34.9149   25.5573 N   0  0  0  0  0  0  0  0  0  0  0  0
   36.6135   34.5866   24.7860 C   0  0  0  0  0  0  0  0  0  0  0  0
   35.7448   33.5099   25.0023 C   0  0  0  0  0  0  0  0  0  0  0  0
   35.9337   32.6425   26.0882 C   0  0  0  0  0  0  0  0  0  0  0  0
   35.2402   31.6832   26.3927 O   0  0  0  0  0  0  0  0  0  0  0  0
   34.7454   33.5185   24.0024 C   0  0  0  0  0  0  0  0  0  0  0  0
   35.0229   34.6003   23.1811 C   0  0  0  0  0  0  0  0  0  0  0  0
   36.1815   35.2626   23.6597 N   0  0  0  0  0  0  0  0  0  0  0  0
   33.6332   32.5318   23.9380 C   0  0  0  0  0  0  0  0  0  0  0  0
   32.8842   32.6671   22.6790 N   0  0  0  0  0  0  0  0  0  0  0  0
  1  2  1  0  0  0  0
  1  7  1  0  0  0  0
  2  3  1  0  0  0  0
  2  4  2  0  0  0  0
  4  5  1  0  0  0  0
  5  6  2  0  0  0  0
  5 11  1  0  0  0  0
  6  7  1  0  0  0  0
  6  9  1  0  0  0  0
  7  8  2  0  0  0  0
  9 10  2  0  0  0  0
  9 12  1  0  0  0  0
 10 11  1  0  0  0  0
 12 13  1  0  0  0  0
M  END
>  <CHROM.1>
-171.09585900,35.96137262,33.59854832,25.12143300,0.32651971,0.62441141,2.33901555

>  <Name>
ligand

>  <RI>
0

>  <Rbt.Current_Directory>
/home/itssahil/PROJECTS/Mol_Feturizer/Test_systems_manuscript/rnas/3q50

>  <Rbt.Executable>
rbdock ($Id: //depot/dev/client3/rdock/2013.1/src/exe/rbdock.cxx#4 $)

>  <Rbt.Library>
libRbt.so (2013.1, Build901 2013/11/27)

>  <Rbt.Parameter_File>
/export/apps/rDock/src/rDock_2013.1_src/data/scripts/dock_solv.prm

>  <Rbt.Receptor>
prm/pocket_docking_2.prm

>  <SCORE>
-17.072

>  <SCORE.INTER>
-17.0718

>  <SCORE.INTER.CONST>
1

>  <SCORE.INTER.POLAR>
0

>  <SCORE.INTER.ROT>
1

>  <SCORE.INTER.SOLV>
16.7857

>  <SCORE.INTER.VDW>
-21.2431

>  <SCORE.INTER.norm>
-1.31322

>  <SCORE.INTRA>
-0.000189928

>  <SCORE.INTRA.DIHEDRAL>
-0.000186159

>  <SCORE.INTRA.DIHEDRAL.0>
1.65305

>  <SCORE.INTRA.POLAR>
0

>  <SCORE.INTRA.POLAR.0>
0

>  <SCORE.INTRA.REPUL>
0

>  <SCORE.INTRA.REPUL.0>
0

>  <SCORE.INTRA.SOLV>
-1.50343e-05

>  <SCORE.INTRA.SOLV.lig_0>
-46.9527

>  <SCORE.INTRA.VDW>
-8.93318e-05

>  <SCORE.INTRA.VDW.0>
-0.177978

>  <SCORE.INTRA.norm>
-1.46099e-05

>  <SCORE.RESTR>
0

>  <SCORE.RESTR.CAVITY>
0

>  <SCORE.RESTR.norm>
0

>  <SCORE.SYSTEM>
0

>  <SCORE.SYSTEM.CONST>
0

>  <SCORE.SYSTEM.DIHEDRAL>
0

>  <SCORE.SYSTEM.SOLV>
0

>  <SCORE.SYSTEM.norm>
0

>  <SCORE.heavy>
13

>  <SCORE.norm>
-1.31323

>  <RMSD>
4.871

$$$$
ligand
 OpenBabel02271912143D
libRbt.so/2013.1/901 2013/11/27
 13 14  0  0  0  0  0  0  0  0999 V2000
   37.1859   32.8670   26.8244 N   0  0  0  0  0  0  0  0  0  0  0  0
   37.9856   33.9946   26.5629 C   0  0  0  0  0  0  0  0  0  0  0  0
   39.0679   34.1978   27.4087 N   0  0  0  0  0  0  0  0  0  0  0  0
   37.7710   34.9061   25.5837 N   0  0  0  0  0  0  0  0  0  0  0  0
   36.6419   34.6048   24.8281 C   0  0  0  0  0  0  0  0  0  0  0  0
   35.7987   33.5008   25.0041 C   0  0  0  0  0  0  0  0  0  0  0  0
   36.0365   32.5724   26.0282 C   0  0  0  0  0  0  0  0  0  0  0  0
   35.3693   31.5835   26.2942 O   0  0  0  0  0  0  0  0  0  0  0  0
   34.7681   33.5518   24.0378 C   0  0  0  0  0  0  0  0  0  0  0  0
   35.0011   34.6867   23.2766 C   0  0  0  0  0  0  0  0  0  0  0  0
   36.1630   35.3401   23.7594 N   0  0  0  0  0  0  0  0  0  0  0  0
   33.6711   32.5502   23.9468 C   0  0  0  0  0  0  0  0  0  0  0  0
   32.8862   32.7420   22.7174 N   0  0  0  0  0  0  0  0  0  0  0  0
  1  2  1  0  0  0  0
  1  7  1  0  0  0  0
  2  3  1  0  0  0  0
  2  4  2  0  0  0  0
  4  5  1  0  0  0  0
  5  6  2  0  0  0  0
  5 11  1  0  0  0  0
  6  7  1  0  0  0  0
  6  9  1  0  0  0  0
  7  8  2  0  0  0  0
  9 10  2  0  0  0  0
  9 12  1  0  0  0  0
 10 11  1  0  0  0  0
 12 13  1  0  0  0  0
M  END
>  <CHROM.1>
-170.69131872,36.01792357,33.58555459,25.12142659,0.28419886,0.61469144,2.42483758

>  <Name>
ligand

>  <RI>
0

>  <Rbt.Current_Directory>
/home/itssahil/PROJECTS/Mol_Feturizer/Test_systems_manuscript/rnas/3q50

>  <Rbt.Executable>
rbdock ($Id: //depot/dev/client3/rdock/2013.1/src/exe/rbdock.cxx#4 $)

>  <Rbt.Library>
libRbt.so (2013.1, Build901 2013/11/27)

>  <Rbt.Parameter_File>
/export/apps/rDock/src/rDock_2013.1_src/data/scripts/dock_solv.prm

>  <Rbt.Receptor>
prm/pocket_docking_5.prm

>  <SCORE>
-17.0614

>  <SCORE.INTER>
-17.0601

>  <SCORE.INTER.CONST>
1

>  <SCORE.INTER.POLAR>
0

>  <SCORE.INTER.ROT>
1

>  <SCORE.INTER.SOLV>
16.4104

>  <SCORE.INTER.VDW>
-21.1102

>  <SCORE.INTER.norm>
-1.31231

>  <SCORE.INTRA>
-0.00127253

>  <SCORE.INTRA.DIHEDRAL>
-0.00123241

>  <SCORE.INTRA.DIHEDRAL.0>
1.65305

>  <SCORE.INTRA.POLAR>
0

>  <SCORE.INTRA.POLAR.0>
0

>  <SCORE.INTRA.REPUL>
0

>  <SCORE.INTRA.REPUL.0>
0

>  <SCORE.INTRA.SOLV>
-0.000100925

>  <SCORE.INTRA.SOLV.lig_0>
-46.9527

>  <SCORE.INTRA.VDW>
-0.000605864

>  <SCORE.INTRA.VDW.0>
-0.177978

>  <SCORE.INTRA.norm>
-9.78871e-05

>  <SCORE.RESTR>
0

>  <SCORE.RESTR.CAVITY>
0

>  <SCORE.RESTR.norm>
0

>  <SCORE.SYSTEM>
0

>  <SCORE.SYSTEM.CONST>
0

>  <SCORE.SYSTEM.DIHEDRAL>
0

>  <SCORE.SYSTEM.SOLV>
0

>  <SCORE.SYSTEM.norm>
0

>  <SCORE.heavy>
13

>  <SCORE.norm>
-1.31241

>  <RMSD>
4.871

$$$$
ligand
 OpenBabel02271912143D
libRbt.so/2013.1/901 2013/11/27
 13 14  0  0  0  0  0  0  0  0999 V2000
   37.1817   32.8642   26.8199 N   0  0  0  0  0  0  0  0  0  0  0  0
   37.9691   33.9982   26.5494 C   0  0  0  0  0  0  0  0  0  0  0  0
   39.0572   34.2122   27.3850 N   0  0  0  0  0  0  0  0  0  0  0  0
   37.7377   34.9062   25.5708 N   0  0  0  0  0  0  0  0  0  0  0  0
   36.6045   34.5938   24.8259 C   0  0  0  0  0  0  0  0  0  0  0  0
   35.7726   33.4829   25.0113 C   0  0  0  0  0  0  0  0  0  0  0  0
   36.0278   32.5582   26.0346 C   0  0  0  0  0  0  0  0  0  0  0  0
   35.3717   31.5640   26.3081 O   0  0  0  0  0  0  0  0  0  0  0  0
   34.7329   33.5233   24.0542 C   0  0  0  0  0  0  0  0  0  0  0  0
   34.9491   34.6589   23.2893 C   0  0  0  0  0  0  0  0  0  0  0  0
   36.1095   35.3233   23.7604 N   0  0  0  0  0  0  0  0  0  0  0  0
   33.6439   32.5120   23.9748 C   0  0  0  0  0  0  0  0  0  0  0  0
   32.9361   32.6032   22.6883 N   0  0  0  0  0  0  0  0  0  0  0  0
  1  2  1  0  0  0  0
  1  7  1  0  0  0  0
  2  3  1  0  0  0  0
  2  4  2  0  0  0  0
  4  5  1  0  0  0  0
  5  6  2  0  0  0  0
  5 11  1  0  0  0  0
  6  7  1  0  0  0  0
  6  9  1  0  0  0  0
  7  8  2  0  0  0  0
  9 10  2  0  0  0  0
  9 12  1  0  0  0  0
 10 11  1  0  0  0  0
 12 13  1  0  0  0  0
M  END
>  <CHROM.1>
-164.71008650,35.99943616,33.56224592,25.12126186,0.26704026,0.62367251,2.43074942

>  <Name>
ligand

>  <RI>
0

>  <Rbt.Current_Directory>
/home/itssahil/PROJECTS/Mol_Feturizer/Test_systems_manuscript/rnas/3q50

>  <Rbt.Executable>
rbdock ($Id: //depot/dev/client3/rdock/2013.1/src/exe/rbdock.cxx#4 $)

>  <Rbt.Library>
libRbt.so (2013.1, Build901 2013/11/27)

>  <Rbt.Parameter_File>
/export/apps/rDock/src/rDock_2013.1_src/data/scripts/dock_solv.prm

>  <Rbt.Receptor>
prm/pocket_docking_8.prm

>  <SCORE>
-17.0492

>  <SCORE.INTER>
-17.0307

>  <SCORE.INTER.CONST>
1

>  <SCORE.INTER.POLAR>
0

>  <SCORE.INTER.ROT>
1

>  <SCORE.INTER.SOLV>
16.5229

>  <SCORE.INTER.VDW>
-21.1281

>  <SCORE.INTER.norm>
-1.31005

>  <SCORE.INTRA>
-0.0185204

>  <SCORE.INTRA.DIHEDRAL>
-0.0149882

>  <SCORE.INTRA.DIHEDRAL.0>
1.65305

>  <SCORE.INTRA.POLAR>
0

>  <SCORE.INTRA.POLAR.0>
0

>  <SCORE.INTRA.REPUL>
0

>  <SCORE.INTRA.REPUL.0>
0

>  <SCORE.INTRA.SOLV>
-0.00152031

>  <SCORE.INTRA.SOLV.lig_0>
-46.9527

>  <SCORE.INTRA.VDW>
-0.0102661

>  <SCORE.INTRA.VDW.0>
-0.177978

>  <SCORE.INTRA.norm>
-0.00142464

>  <SCORE.RESTR>
0

>  <SCORE.RESTR.CAVITY>
0

>  <SCORE.RESTR.norm>
0

>  <SCORE.SYSTEM>
0

>  <SCORE.SYSTEM.CONST>
0

>  <SCORE.SYSTEM.DIHEDRAL>
0

>  <SCORE.SYSTEM.SOLV>
0

>  <SCORE.SYSTEM.norm>
0

>  <SCORE.heavy>
13

>  <SCORE.norm>
-1.31148

>  <RMSD>
4.871

$$$$
ligand
 OpenBabel02271912143D
libRbt.so/2013.1/901 2013/11/27
 13 14  0  0  0  0  0  0  0  0999 V2000
   37.2377   32.8180   26.8446 N   0  0  0  0  0  0  0  0  0  0  0  0
   38.0130   33.9717   26.6275 C   0  0  0  0  0  0  0  0  0  0  0  0
   39.0924   34.1638   27.4796 N   0  0  0  0  0  0  0  0  0  0  0  0
   37.7775   34.9168   25.6857 N   0  0  0  0  0  0  0  0  0  0  0  0
   36.6536   34.6221   24.9198 C   0  0  0  0  0  0  0  0  0  0  0  0
   35.8342   33.4945   25.0525 C   0  0  0  0  0  0  0  0  0  0  0  0
   36.0933   32.5312   26.0384 C   0  0  0  0  0  0  0  0  0  0  0  0
   35.4476   31.5186   26.2654 O   0  0  0  0  0  0  0  0  0  0  0  0
   34.8009   33.5622   24.0900 C   0  0  0  0  0  0  0  0  0  0  0  0
   35.0086   34.7313   23.3745 C   0  0  0  0  0  0  0  0  0  0  0  0
   36.1574   35.3893   23.8818 N   0  0  0  0  0  0  0  0  0  0  0  0
   33.7251   32.5422   23.9602 C   0  0  0  0  0  0  0  0  0  0  0  0
   32.8941   32.8039   22.7747 N   0  0  0  0  0  0  0  0  0  0  0  0
  1  2  1  0  0  0  0
  1  7  1  0  0  0  0
  2  3  1  0  0  0  0
  2  4  2  0  0  0  0
  4  5  1  0  0  0  0
  5  6  2  0  0  0  0
  5 11  1  0  0  0  0
  6  7  1  0  0  0  0
  6  9  1  0  0  0  0
  7  8  2  0  0  0  0
  9 10  2  0  0  0  0
  9 12  1  0  0  0  0
 10 11  1  0  0  0  0
 12 13  1  0  0  0  0
M  END
>  <CHROM.1>
-173.39548221,36.04848933,33.58218799,25.17566091,0.26350140,0.62238275,2.47771887

>  <Name>
ligand

>  <RI>
0

>  <Rbt.Current_Directory>
/home/itssahil/PROJECTS/Mol_Feturizer/Test_systems_manuscript/rnas/3q50

>  <Rbt.Executable>
rbdock ($Id: //depot/dev/client3/rdock/2013.1/src/exe/rbdock.cxx#4 $)

>  <Rbt.Library>
libRbt.so (2013.1, Build901 2013/11/27)

>  <Rbt.Parameter_File>
/export/apps/rDock/src/rDock_2013.1_src/data/scripts/dock_solv.prm

>  <Rbt.Receptor>
prm/pocket_docking_3.prm

>  <SCORE>
-17.062

>  <SCORE.INTER>
-17.0677

>  <SCORE.INTER.CONST>
1

>  <SCORE.INTER.POLAR>
0

>  <SCORE.INTER.ROT>
1

>  <SCORE.INTER.SOLV>
16.2744

>  <SCORE.INTER.VDW>
-21.0699

>  <SCORE.INTER.norm>
-1.3129

>  <SCORE.INTRA>
0.00569678

>  <SCORE.INTRA.DIHEDRAL>
0.00597841

>  <SCORE.INTRA.DIHEDRAL.0>
1.65305

>  <SCORE.INTRA.POLAR>
0

>  <SCORE.INTRA.POLAR.0>
0

>  <SCORE.INTRA.REPUL>
0

>  <SCORE.INTRA.REPUL.0>
0

>  <SCORE.INTRA.SOLV>
0.000446543

>  <SCORE.INTRA.SOLV.lig_0>
-46.9527

>  <SCORE.INTRA.VDW>
0.00248431

>  <SCORE.INTRA.VDW.0>
-0.177978

>  <SCORE.INTRA.norm>
0.000438214

>  <SCORE.RESTR>
0

>  <SCORE.RESTR.CAVITY>
0

>  <SCORE.RESTR.norm>
0

>  <SCORE.SYSTEM>
0

>  <SCORE.SYSTEM.CONST>
0

>  <SCORE.SYSTEM.DIHEDRAL>
0

>  <SCORE.SYSTEM.SOLV>
0

>  <SCORE.SYSTEM.norm>
0

>  <SCORE.heavy>
13

>  <SCORE.norm>
-1.31246

>  <RMSD>
4.872

$$$$
ligand
 OpenBabel02271912143D
libRbt.so/2013.1/901 2013/11/27
 13 14  0  0  0  0  0  0  0  0999 V2000
   37.2498   32.8174   26.8456 N   0  0  0  0  0  0  0  0  0  0  0  0
   38.0266   33.9696   26.6260 C   0  0  0  0  0  0  0  0  0  0  0  0
   39.1072   34.1613   27.4766 N   0  0  0  0  0  0  0  0  0  0  0  0
   37.7915   34.9137   25.6830 N   0  0  0  0  0  0  0  0  0  0  0  0
   36.6663   34.6196   24.9188 C   0  0  0  0  0  0  0  0  0  0  0  0
   35.8453   33.4934   25.0540 C   0  0  0  0  0  0  0  0  0  0  0  0
   36.1041   32.5312   26.0411 C   0  0  0  0  0  0  0  0  0  0  0  0
   35.4570   31.5199   26.2703 O   0  0  0  0  0  0  0  0  0  0  0  0
   34.8110   33.5613   24.0925 C   0  0  0  0  0  0  0  0  0  0  0  0
   35.0197   34.7289   23.3752 C   0  0  0  0  0  0  0  0  0  0  0  0
   36.1701   35.3860   23.8802 N   0  0  0  0  0  0  0  0  0  0  0  0
   33.7336   32.5426   23.9655 C   0  0  0  0  0  0  0  0  0  0  0  0
   32.9014   32.8043   22.7808 N   0  0  0  0  0  0  0  0  0  0  0  0
  1  2  1  0  0  0  0
  1  7  1  0  0  0  0
  2  3  1  0  0  0  0
  2  4  2  0  0  0  0
  4  5  1  0  0  0  0
  5  6  2  0  0  0  0
  5 11  1  0  0  0  0
  6  7  1  0  0  0  0
  6  9  1  0  0  0  0
  7  8  2  0  0  0  0
  9 10  2  0  0  0  0
  9 12  1  0  0  0  0
 10 11  1  0  0  0  0
 12 13  1  0  0  0  0
M  END
>  <CHROM.1>
-173.41834564,36.05985332,33.58095901,25.17686491,0.26413026,0.62054594,2.47589587

>  <Name>
ligand

>  <RI>
0

>  <Rbt.Current_Directory>
/home/itssahil/PROJECTS/Mol_Feturizer/Test_systems_manuscript/rnas/3q50

>  <Rbt.Executable>
rbdock ($Id: //depot/dev/client3/rdock/2013.1/src/exe/rbdock.cxx#4 $)

>  <Rbt.Library>
libRbt.so (2013.1, Build901 2013/11/27)

>  <Rbt.Parameter_File>
/export/apps/rDock/src/rDock_2013.1_src/data/scripts/dock_solv.prm

>  <Rbt.Receptor>
prm/pocket_docking_4.prm

>  <SCORE>
-17.0617

>  <SCORE.INTER>
-17.0674

>  <SCORE.INTER.CONST>
1

>  <SCORE.INTER.POLAR>
0

>  <SCORE.INTER.ROT>
1

>  <SCORE.INTER.SOLV>
16.2417

>  <SCORE.INTER.VDW>
-21.0589

>  <SCORE.INTER.norm>
-1.31288

>  <SCORE.INTRA>
0.00575286

>  <SCORE.INTRA.DIHEDRAL>
0.00604137

>  <SCORE.INTRA.DIHEDRAL.0>
1.65305

>  <SCORE.INTRA.POLAR>
0

>  <SCORE.INTRA.POLAR.0>
0

>  <SCORE.INTRA.REPUL>
0

>  <SCORE.INTRA.REPUL.0>
0

>  <SCORE.INTRA.SOLV>
0.000450899

>  <SCORE.INTRA.SOLV.lig_0>
-46.9527

>  <SCORE.INTRA.VDW>
0.00250672

>  <SCORE.INTRA.VDW.0>
-0.177978

>  <SCORE.INTRA.norm>
0.000442528

>  <SCORE.RESTR>
0

>  <SCORE.RESTR.CAVITY>
0

>  <SCORE.RESTR.norm>
0

>  <SCORE.SYSTEM>
0

>  <SCORE.SYSTEM.CONST>
0

>  <SCORE.SYSTEM.DIHEDRAL>
0

>  <SCORE.SYSTEM.SOLV>
0

>  <SCORE.SYSTEM.norm>
0

>  <SCORE.heavy>
13

>  <SCORE.norm>
-1.31244

>  <RMSD>
4.873

$$$$
ligand
 OpenBabel02271912143D
libRbt.so/2013.1/901 2013/11/27
 13 14  0  0  0  0  0  0  0  0999 V2000
   37.2366   32.8346   26.8463 N   0  0  0  0  0  0  0  0  0  0  0  0
   38.0126   33.9817   26.5991 C   0  0  0  0  0  0  0  0  0  0  0  0
   39.0957   34.1922   27.4421 N   0  0  0  0  0  0  0  0  0  0  0  0
   37.7745   34.9048   25.6364 N   0  0  0  0  0  0  0  0  0  0  0  0
   36.6470   34.5939   24.8822 C   0  0  0  0  0  0  0  0  0  0  0  0
   35.8266   33.4709   25.0447 C   0  0  0  0  0  0  0  0  0  0  0  0
   36.0885   32.5306   26.0518 C   0  0  0  0  0  0  0  0  0  0  0  0
   35.4423   31.5246   26.3051 O   0  0  0  0  0  0  0  0  0  0  0  0
   34.7894   33.5175   24.0851 C   0  0  0  0  0  0  0  0  0  0  0  0
   34.9958   34.6692   23.3416 C   0  0  0  0  0  0  0  0  0  0  0  0
   36.1475   35.3373   23.8285 N   0  0  0  0  0  0  0  0  0  0  0  0
   33.7117   32.4963   23.9837 C   0  0  0  0  0  0  0  0  0  0  0  0
   32.9312   32.6780   22.7499 N   0  0  0  0  0  0  0  0  0  0  0  0
  1  2  1  0  0  0  0
  1  7  1  0  0  0  0
  2  3  1  0  0  0  0
  2  4  2  0  0  0  0
  4  5  1  0  0  0  0
  5  6  2  0  0  0  0
  5 11  1  0  0  0  0
  6  7  1  0  0  0  0
  6  9  1  0  0  0  0
  7  8  2  0  0  0  0
  9 10  2  0  0  0  0
  9 12  1  0  0  0  0
 10 11  1  0  0  0  0
 12 13  1  0  0  0  0
M  END
>  <CHROM.1>
-169.67004682,36.04601309,33.55677844,25.16112572,0.26106694,0.62466322,2.45441537

>  <Name>
ligand

>  <RI>
0

>  <Rbt.Current_Directory>
/home/itssahil/PROJECTS/Mol_Feturizer/Test_systems_manuscript/rnas/3q50

>  <Rbt.Executable>
rbdock ($Id: //depot/dev/client3/rdock/2013.1/src/exe/rbdock.cxx#4 $)

>  <Rbt.Library>
libRbt.so (2013.1, Build901 2013/11/27)

>  <Rbt.Parameter_File>
/export/apps/rDock/src/rDock_2013.1_src/data/scripts/dock_solv.prm

>  <Rbt.Receptor>
prm/pocket_docking_2.prm

>  <SCORE>
-17.0668

>  <SCORE.INTER>
-17.0628

>  <SCORE.INTER.CONST>
1

>  <SCORE.INTER.POLAR>
0

>  <SCORE.INTER.ROT>
1

>  <SCORE.INTER.SOLV>
16.3094

>  <SCORE.INTER.VDW>
-21.0783

>  <SCORE.INTER.norm>
-1.31252

>  <SCORE.INTRA>
-0.0040618

>  <SCORE.INTRA.DIHEDRAL>
-0.0038164

>  <SCORE.INTRA.DIHEDRAL.0>
1.65305

>  <SCORE.INTRA.POLAR>
0

>  <SCORE.INTRA.POLAR.0>
0

>  <SCORE.INTRA.REPUL>
0

>  <SCORE.INTRA.REPUL.0>
0

>  <SCORE.INTRA.SOLV>
-0.000323791

>  <SCORE.INTRA.SOLV.lig_0>
-46.9527

>  <SCORE.INTRA.VDW>
-0.0019917

>  <SCORE.INTRA.VDW.0>
-0.177978

>  <SCORE.INTRA.norm>
-0.000312446

>  <SCORE.RESTR>
0

>  <SCORE.RESTR.CAVITY>
0

>  <SCORE.RESTR.norm>
0

>  <SCORE.SYSTEM>
0

>  <SCORE.SYSTEM.CONST>
0

>  <SCORE.SYSTEM.DIHEDRAL>
0

>  <SCORE.SYSTEM.SOLV>
0

>  <SCORE.SYSTEM.norm>
0

>  <SCORE.heavy>
13

>  <SCORE.norm>
-1.31283

>  <RMSD>
4.876

$$$$
ligand
 OpenBabel02271912143D
libRbt.so/2013.1/901 2013/11/27
 13 14  0  0  0  0  0  0  0  0999 V2000
   37.1718   32.8444   26.8402 N   0  0  0  0  0  0  0  0  0  0  0  0
   37.9671   33.9685   26.5518 C   0  0  0  0  0  0  0  0  0  0  0  0
   39.0531   34.1916   27.3878 N   0  0  0  0  0  0  0  0  0  0  0  0
   37.7450   34.8594   25.5555 N   0  0  0  0  0  0  0  0  0  0  0  0
   36.6130   34.5398   24.8120 C   0  0  0  0  0  0  0  0  0  0  0  0
   35.7737   33.4375   25.0147 C   0  0  0  0  0  0  0  0  0  0  0  0
   36.0192   32.5306   26.0561 C   0  0  0  0  0  0  0  0  0  0  0  0
   35.3561   31.5456   26.3455 O   0  0  0  0  0  0  0  0  0  0  0  0
   34.7380   33.4661   24.0528 C   0  0  0  0  0  0  0  0  0  0  0  0
   34.9641   34.5859   23.2676 C   0  0  0  0  0  0  0  0  0  0  0  0
   36.1266   35.2521   23.7310 N   0  0  0  0  0  0  0  0  0  0  0  0
   33.6433   32.4600   23.9878 C   0  0  0  0  0  0  0  0  0  0  0  0
   32.8351   32.6419   22.7720 N   0  0  0  0  0  0  0  0  0  0  0  0
  1  2  1  0  0  0  0
  1  7  1  0  0  0  0
  2  3  1  0  0  0  0
  2  4  2  0  0  0  0
  4  5  1  0  0  0  0
  5  6  2  0  0  0  0
  5 11  1  0  0  0  0
  6  7  1  0  0  0  0
  6  9  1  0  0  0  0
  7  8  2  0  0  0  0
  9 10  2  0  0  0  0
  9 12  1  0  0  0  0
 10 11  1  0  0  0  0
 12 13  1  0  0  0  0
M  END
>  <CHROM.1>
-171.82859355,35.99189567,33.52652567,25.13018760,0.27777080,0.61069821,2.40869365

>  <Name>
ligand

>  <RI>
0

>  <Rbt.Current_Directory>
/home/itssahil/PROJECTS/Mol_Feturizer/Test_systems_manuscript/rnas/3q50

>  <Rbt.Executable>
rbdock ($Id: //depot/dev/client3/rdock/2013.1/src/exe/rbdock.cxx#4 $)

>  <Rbt.Library>
libRbt.so (2013.1, Build901 2013/11/27)

>  <Rbt.Parameter_File>
/export/apps/rDock/src/rDock_2013.1_src/data/scripts/dock_solv.prm

>  <Rbt.Receptor>
prm/pocket_docking_4.prm

>  <SCORE>
-17.0475

>  <SCORE.INTER>
-17.0492

>  <SCORE.INTER.CONST>
1

>  <SCORE.INTER.POLAR>
0

>  <SCORE.INTER.ROT>
1

>  <SCORE.INTER.SOLV>
16.5702

>  <SCORE.INTER.VDW>
-21.1562

>  <SCORE.INTER.norm>
-1.31148

>  <SCORE.INTRA>
0.00173666

>  <SCORE.INTRA.DIHEDRAL>
0.00173957

>  <SCORE.INTRA.DIHEDRAL.0>
1.65305

>  <SCORE.INTRA.POLAR>
0

>  <SCORE.INTRA.POLAR.0>
0

>  <SCORE.INTRA.REPUL>
0

>  <SCORE.INTRA.REPUL.0>
0

>  <SCORE.INTRA.SOLV>
0.000137012

>  <SCORE.INTRA.SOLV.lig_0>
-46.9527

>  <SCORE.INTRA.VDW>
0.000798367

>  <SCORE.INTRA.VDW.0>
-0.177978

>  <SCORE.INTRA.norm>
0.000133589

>  <SCORE.RESTR>
0

>  <SCORE.RESTR.CAVITY>
0

>  <SCORE.RESTR.norm>
0

>  <SCORE.SYSTEM>
0

>  <SCORE.SYSTEM.CONST>
0

>  <SCORE.SYSTEM.DIHEDRAL>
0

>  <SCORE.SYSTEM.SOLV>
0

>  <SCORE.SYSTEM.norm>
0

>  <SCORE.heavy>
13

>  <SCORE.norm>
-1.31134

>  <RMSD>
4.876

$$$$
ligand
 OpenBabel02271912143D
libRbt.so/2013.1/901 2013/11/27
 13 14  0  0  0  0  0  0  0  0999 V2000
   37.0241   33.1484   26.9494 N   0  0  0  0  0  0  0  0  0  0  0  0
   37.8741   34.2088   26.5857 C   0  0  0  0  0  0  0  0  0  0  0  0
   38.9224   34.4894   27.4520 N   0  0  0  0  0  0  0  0  0  0  0  0
   37.7374   34.9907   25.4877 N   0  0  0  0  0  0  0  0  0  0  0  0
   36.6348   34.6259   24.7210 C   0  0  0  0  0  0  0  0  0  0  0  0
   35.7461   33.5791   24.9948 C   0  0  0  0  0  0  0  0  0  0  0  0
   35.9034   32.7857   26.1407 C   0  0  0  0  0  0  0  0  0  0  0  0
   35.1903   31.8594   26.4977 O   0  0  0  0  0  0  0  0  0  0  0  0
   34.7639   33.5332   23.9790 C   0  0  0  0  0  0  0  0  0  0  0  0
   35.0718   34.5520   23.0908 C   0  0  0  0  0  0  0  0  0  0  0  0
   36.2321   35.2292   23.5436 N   0  0  0  0  0  0  0  0  0  0  0  0
   33.6380   32.5602   23.9624 C   0  0  0  0  0  0  0  0  0  0  0  0
   32.7373   32.8194   22.8284 N   0  0  0  0  0  0  0  0  0  0  0  0
  1  2  1  0  0  0  0
  1  7  1  0  0  0  0
  2  3  1  0  0  0  0
  2  4  2  0  0  0  0
  4  5  1  0  0  0  0
  5  6  2  0  0  0  0
  5 11  1  0  0  0  0
  6  7  1  0  0  0  0
  6  9  1  0  0  0  0
  7  8  2  0  0  0  0
  9 10  2  0  0  0  0
  9 12  1  0  0  0  0
 10 11  1  0  0  0  0
 12 13  1  0  0  0  0
M  END
>  <CHROM.1>
176.26639302,35.94775973,33.68887307,25.12323548,0.35266860,0.60346202,2.25994418

>  <Name>
ligand

>  <RI>
0

>  <Rbt.Current_Directory>
/home/itssahil/PROJECTS/Mol_Feturizer/Test_systems_manuscript/rnas/3q50

>  <Rbt.Executable>
rbdock ($Id: //depot/dev/client3/rdock/2013.1/src/exe/rbdock.cxx#4 $)

>  <Rbt.Library>
libRbt.so (2013.1, Build901 2013/11/27)

>  <Rbt.Parameter_File>
/export/apps/rDock/src/rDock_2013.1_src/data/scripts/dock_solv.prm

>  <Rbt.Receptor>
prm/pocket_docking_8.prm

>  <SCORE>
-16.9784

>  <SCORE.INTER>
-17.0031

>  <SCORE.INTER.CONST>
1

>  <SCORE.INTER.POLAR>
0

>  <SCORE.INTER.ROT>
1

>  <SCORE.INTER.SOLV>
17.1876

>  <SCORE.INTER.VDW>
-21.3313

>  <SCORE.INTER.norm>
-1.30793

>  <SCORE.INTRA>
0.0247718

>  <SCORE.INTRA.DIHEDRAL>
0.0360717

>  <SCORE.INTRA.DIHEDRAL.0>
1.65305

>  <SCORE.INTRA.POLAR>
0

>  <SCORE.INTRA.POLAR.0>
0

>  <SCORE.INTRA.REPUL>
0

>  <SCORE.INTRA.REPUL.0>
0

>  <SCORE.INTRA.SOLV>
0.00191496

>  <SCORE.INTRA.SOLV.lig_0>
-46.9527

>  <SCORE.INTRA.VDW>
0.00577843

>  <SCORE.INTRA.VDW.0>
-0.177978

>  <SCORE.INTRA.norm>
0.00190552

>  <SCORE.RESTR>
0

>  <SCORE.RESTR.CAVITY>
0

>  <SCORE.RESTR.norm>
0

>  <SCORE.SYSTEM>
0

>  <SCORE.SYSTEM.CONST>
0

>  <SCORE.SYSTEM.DIHEDRAL>
0

>  <SCORE.SYSTEM.SOLV>
0

>  <SCORE.SYSTEM.norm>
0

>  <SCORE.heavy>
13

>  <SCORE.norm>
-1.30603

>  <RMSD>
4.876

$$$$
