@<TRIPOS>MOLECULE
3q50_rdock.pdb
 702 786 0 0 0
SMALL
GASTEIGER

@<TRIPOS>ATOM
      1  C5'       31.5880   50.3570   23.2080 C.3     1  C1          0.2141
      2  O5'       30.5070   50.9760   22.5120 O.3     1  C1         -0.2176
      3  C4'       31.9460   51.0830   24.4830 C.3     1  C1          0.1802
      4  O4'       30.7630   51.2270   25.3110 O.3     1  C1         -0.3306
      5  C3'       32.9550   50.3650   25.3640 C.3     1  C1          0.1861
      6  O3'       34.2880   50.6790   25.0220 O.3     1  C1         -0.3112
      7  C2'       32.5910   50.8330   26.7620 C.3     1  C1          0.2309
      8  O2'       33.1460   52.1170   26.9970 O.3     1  C1         -0.2156
      9  C1'       31.0760   50.9670   26.6550 C.3     1  C1          0.2420
     10  N1        30.3900   49.7070   26.9530 N.ar    1  C1         -0.2535
     11  C2        30.2290   49.3610   28.2700 C.ar    1  C1          0.3532
     12  O2        30.6920   50.1490   29.0870 O.2     1  C1         -0.2443
     13  N3        29.5980   48.2190   28.6010 N.ar    1  C1         -0.1739
     14  C4        29.1280   47.4390   27.6360 C.ar    1  C1          0.1759
     15  N4        28.4990   46.3130   27.9670 N.pl3   1  C1         -0.1070
     16  C5        29.2750   47.7730   26.2700 C.ar    1  C1          0.0566
     17  C6        29.9070   48.9100   25.9730 C.ar    1  C1          0.0850
     18  P         35.3640   49.5060   25.1860 P.3     2  U2          0.2141
     19  C5'       35.8650   50.4390   27.5480 C.3     2  U2          0.1812
     20  O5'       35.4830   49.3330   26.7510 O.3     2  U2         -0.3114
     21  C4'       35.6460   50.1060   28.9930 C.3     2  U2          0.1773
     22  O4'       34.2310   49.8790   29.2120 O.3     2  U2         -0.3307
     23  C3'       36.2890   48.8110   29.4590 C.3     2  U2          0.1860
     24  O3'       37.6740   48.9330   29.7190 O.3     2  U2         -0.3112
     25  C2'       35.4700   48.4980   30.6940 C.3     2  U2          0.2309
     26  O2'       35.8540   49.3850   31.7320 O.3     2  U2         -0.2156
     27  C1'       34.0730   48.8990   30.2150 C.3     2  U2          0.2420
     28  N1        33.3000   47.7490   29.7030 N.ar    2  U2         -0.2534
     29  C2        32.7870   46.9030   30.6630 C.ar    2  U2          0.3546
     30  O2        32.9690   47.0990   31.8390 O.2     2  U2         -0.2443
     31  N3        32.0650   45.8270   30.2310 N.ar    2  U2         -0.1530
     32  C4        31.8120   45.5270   28.9200 C.ar    2  U2          0.2846
     33  O4        31.1520   44.5240   28.6810 O.2     2  U2         -0.2650
     34  C5        32.3630   46.4490   27.9730 C.ar    2  U2          0.0814
     35  C6        33.0730   47.5110   28.3750 C.ar    2  U2          0.0870
     36  OP1       36.6510   50.0650   24.6900 O.3     2  U2         -0.4373
     37  OP2       34.7380   48.2680   24.6350 O.co2   2  U2         -0.5172
     38  P         38.5690   47.5980   29.7110 P.3     3  G3          0.2141
     39  C5'       38.2950   47.3840   32.3230 C.3     3  G3          0.1812
     40  O5'       38.1140   46.8320   31.0320 O.3     3  G3         -0.3114
     41  C4'       37.9460   46.3590   33.3590 C.3     3  G3          0.1773
     42  O4'       36.5130   46.1510   33.4100 O.3     3  G3         -0.3307
     43  C3'       38.4960   44.9710   33.1070 C.3     3  G3          0.1860
     44  O3'       39.8550   44.8690   33.4710 O.3     3  G3         -0.3112
     45  C2'       37.5830   44.0990   33.9540 C.3     3  G3          0.2309
     46  O2'       37.9670   44.1790   35.3200 O.3     3  G3         -0.2156
     47  C1'       36.2410   44.8100   33.7680 C.3     3  G3          0.2408
     48  N1        33.0060   41.1190   32.2790 N.ar    3  G3         -0.1709
     49  C2        33.5430   41.3480   33.5110 C.ar    3  G3          0.2606
     50  N2        33.1580   40.4710   34.4460 N.pl3   3  G3         -0.0859
     51  N3        34.3780   42.3410   33.7940 N.ar    3  G3         -0.1918
     52  C4        34.6380   43.1050   32.7250 C.ar    3  G3          0.1723
     53  C5        34.1540   42.9570   31.4500 C.ar    3  G3          0.1748
     54  C6        33.2610   41.8940   31.1680 C.ar    3  G3          0.3023
     55  O6        32.7150   41.5870   30.1130 O.2     3  G3         -0.2633
     56  N7        34.6520   43.9490   30.6320 N.ar    3  G3         -0.2173
     57  C8        35.4240   44.6710   31.3880 C.ar    3  G3          0.1817
     58  N9        35.4600   44.2070   32.6780 N.ar    3  G3         -0.2693
     59  OP1       39.9380   48.1340   29.8810 O.3     3  G3         -0.4373
     60  OP2       38.2260   46.7410   28.5420 O.co2   3  G3         -0.5172
     61  P         40.6880   43.5440   33.1220 P.3     4  G4          0.2141
     62  C5'       40.1670   41.0770   33.5320 C.3     4  G4          0.1812
     63  O5'       39.9450   42.4130   33.9160 O.3     4  G4         -0.3114
     64  C4'       39.1030   40.2370   34.1590 C.3     4  G4          0.1773
     65  O4'       37.8110   40.8020   33.8320 O.3     4  G4         -0.3307
     66  C3'       39.0210   38.8180   33.6520 C.3     4  G4          0.1860
     67  O3'       39.9890   37.9960   34.2650 O.3     4  G4         -0.3112
     68  C2'       37.5910   38.4420   33.9930 C.3     4  G4          0.2309
     69  O2'       37.4910   38.1800   35.3850 O.3     4  G4         -0.2156
     70  C1'       36.8680   39.7590   33.7060 C.3     4  G4          0.2408
     71  N1        33.5430   37.7890   30.3800 N.ar    4  G4         -0.1709
     72  C2        33.8060   37.4100   31.6730 C.ar    4  G4          0.2606
     73  N2        33.0890   36.3730   32.1350 N.pl3   4  G4         -0.0859
     74  N3        34.7000   37.9940   32.4540 N.ar    4  G4         -0.1918
     75  C4        35.3140   39.0090   31.8230 C.ar    4  G4          0.1723
     76  C5        35.1160   39.4660   30.5380 C.ar    4  G4          0.1748
     77  C6        34.1570   38.8370   29.7180 C.ar    4  G4          0.3023
     78  O6        33.8430   39.1090   28.5500 O.2     4  G4         -0.2633
     79  N7        35.9430   40.5420   30.2640 N.ar    4  G4         -0.2173
     80  C8        36.6180   40.7210   31.3710 C.ar    4  G4          0.1817
     81  N9        36.2940   39.8170   32.3510 N.ar    4  G4         -0.2693
     82  OP1       42.0080   43.8100   33.7460 O.3     4  G4         -0.4373
     83  OP2       40.5580   43.2480   31.6740 O.co2   4  G4         -0.5172
     84  P         40.5760   36.7780   33.4110 P.3     5  G5          0.2141
     85  C5'       38.9230   35.0490   34.3480 C.3     5  G5          0.1812
     86  O5'       39.3120   35.8320   33.2330 O.3     5  G5         -0.3114
     87  C4'       37.7900   34.1350   33.9830 C.3     5  G5          0.1773
     88  O4'       36.7370   34.9060   33.3590 O.3     5  G5         -0.3307
     89  C3'       38.1250   33.0820   32.9490 C.3     5  G5          0.1860
     90  O3'       38.7280   31.9550   33.5460 O.3     5  G5         -0.3112
     91  C2'       36.7840   32.7780   32.2970 C.3     5  G5          0.2309
     92  O2'       36.0440   31.8660   33.0960 O.3     5  G5         -0.2156
     93  C1'       36.1000   34.1420   32.3590 C.3     5  G5          0.2408
     94  N1        33.8770   34.9840   27.8600 N.ar    5  G5         -0.1709
     95  C2        33.5780   34.0730   28.8490 C.ar    5  G5          0.2606
     96  N2        32.5320   33.2720   28.6090 N.pl3   5  G5         -0.0859
     97  N3        34.2420   33.9380   29.9900 N.ar    5  G5         -0.1918
     98  C4        35.2500   34.8210   30.0630 C.ar    5  G5          0.1723
     99  C5        35.6380   35.7740   29.1450 C.ar    5  G5          0.1748
    100  C6        34.9210   35.8930   27.9260 C.ar    5  G5          0.3023
    101  O6        35.1150   36.6750   26.9910 O.2     5  G5         -0.2633
    102  N7        36.7390   36.4830   29.6090 N.ar    5  G5         -0.2173
    103  C8        36.9850   35.9510   30.7800 C.ar    5  G5          0.1817
    104  N9        36.1310   34.9210   31.1060 N.ar    5  G5         -0.2693
    105  OP1       41.5830   36.1000   34.2720 O.3     5  G5         -0.4373
    106  OP2       40.9760   37.3850   32.1260 O.co2   5  G5         -0.5172
    107  P         39.4080   30.8950   32.5770 P.3     6  U6          0.2141
    108  C5'       38.4320   28.8620   33.7900 C.3     6  U6          0.1812
    109  O5'       38.3780   29.6800   32.6350 O.3     6  U6         -0.3114
    110  C4'       37.3220   27.8540   33.7880 C.3     6  U6          0.1773
    111  O4'       36.0730   28.5440   33.5760 O.3     6  U6         -0.3307
    112  C3'       37.3590   26.8390   32.6640 C.3     6  U6          0.1860
    113  O3'       38.2160   25.7630   32.9500 O.3     6  U6         -0.3112
    114  C2'       35.9090   26.4140   32.5180 C.3     6  U6          0.2309
    115  O2'       35.5430   25.4640   33.5090 O.3     6  U6         -0.2156
    116  C1'       35.2110   27.7350   32.8120 C.3     6  U6          0.2420
    117  N1        34.9940   28.4400   31.5670 N.ar    6  U6         -0.2534
    118  C2        33.8740   28.0510   30.8850 C.ar    6  U6          0.3546
    119  O2        33.1460   27.1850   31.3340 O.2     6  U6         -0.2443
    120  N3        33.6560   28.6990   29.6910 N.ar    6  U6         -0.1530
    121  C4        34.4650   29.6860   29.1730 C.ar    6  U6          0.2846
    122  O4        34.1510   30.2030   28.1110 O.2     6  U6         -0.2650
    123  C5        35.6210   30.0230   29.9540 C.ar    6  U6          0.0814
    124  C6        35.8530   29.4020   31.1170 C.ar    6  U6          0.0870
    125  OP1       40.6900   30.5810   33.2600 O.3     6  U6         -0.4373
    126  OP2       39.4460   31.5140   31.2290 O.co2   6  U6         -0.5172
    127  P         39.3560   25.4600   31.8790 P.3     7  C7          0.2141
    128  C5'       37.5960   23.9860   30.6730 C.3     7  C7          0.1812
    129  O5'       38.5140   25.0690   30.5780 O.3     7  C7         -0.3114
    130  C4'       36.6060   23.9530   29.5290 C.3     7  C7          0.1773
    131  O4'       35.8840   25.2100   29.4690 O.3     7  C7         -0.3307
    132  C3'       37.1920   23.7960   28.1320 C.3     7  C7          0.1860
    133  O3'       37.4860   22.4550   27.8000 O.3     7  C7         -0.3112
    134  C2'       36.1290   24.4170   27.2390 C.3     7  C7          0.2309
    135  O2'       35.0480   23.5180   27.0520 O.3     7  C7         -0.2156
    136  C1'       35.6660   25.5730   28.1230 C.3     7  C7          0.2420
    137  N1        36.5420   26.7180   27.8690 N.ar    7  C7         -0.2535
    138  C2        36.2700   27.4870   26.7660 C.ar    7  C7          0.3532
    139  O2        35.2930   27.1520   26.0820 O.2     7  C7         -0.2443
    140  N3        37.0600   28.5460   26.4940 N.ar    7  C7         -0.1739
    141  C4        38.0870   28.8210   27.2860 C.ar    7  C7          0.1759
    142  N4        38.8490   29.8720   26.9930 N.pl3   7  C7         -0.1070
    143  C5        38.3910   28.0380   28.4270 C.ar    7  C7          0.0566
    144  C6        37.5950   27.0000   28.6810 C.ar    7  C7          0.0850
    145  OP1       40.0310   24.2520   32.4050 O.3     7  C7         -0.4373
    146  OP2       40.1190   26.7330   31.7370 O.co2   7  C7         -0.5172
    147  P         38.9870   22.0730   27.3770 P.3     8  G8          0.2141
    148  C5'       38.3670   22.3290   24.8680 C.3     8  G8          0.1812
    149  O5'       39.1790   22.7500   25.9480 O.3     8  G8         -0.3114
    150  C4'       38.4040   23.3410   23.7620 C.3     8  G8          0.1773
    151  O4'       38.0550   24.6490   24.2810 O.3     8  G8         -0.3307
    152  C3'       39.7630   23.5770   23.1320 C.3     8  G8          0.1860
    153  O3'       40.1320   22.5520   22.2290 O.3     8  G8         -0.3112
    154  C2'       39.5710   24.9350   22.4730 C.3     8  G8          0.2309
    155  O2'       38.8360   24.8000   21.2650 O.3     8  G8         -0.2156
    156  C1'       38.7140   25.6460   23.5260 C.3     8  G8          0.2408
    157  N1        41.3580   29.9280   23.9900 N.ar    8  G8         -0.1709
    158  C2        40.5570   29.5170   22.9540 C.ar    8  G8          0.2606
    159  N2        40.4670   30.3630   21.9030 N.pl3   8  G8         -0.0859
    160  N3        39.9030   28.3580   22.9690 N.ar    8  G8         -0.1918
    161  C4        40.1240   27.6510   24.1020 C.ar    8  G8          0.1723
    162  C5        40.9080   27.9740   25.1790 C.ar    8  G8          0.1748
    163  C6        41.5980   29.2080   25.1520 C.ar    8  G8          0.3023
    164  O6        42.3440   29.6810   26.0120 O.2     8  G8         -0.2633
    165  N7        40.8710   26.9720   26.1430 N.ar    8  G8         -0.2173
    166  C8        40.0790   26.0570   25.6450 C.ar    8  G8          0.1817
    167  N9        39.5910   26.4230   24.4140 N.ar    8  G8         -0.2693
    168  OP1       38.8230   20.5990   27.3150 O.2     8  G8         -0.5172
    169  OP2       40.0050   22.6670   28.2800 O.co2   8  G8         -0.4373
    170  P         41.3430   21.5720   22.6190 P.3     9  C9          0.2141
    171  C5'       43.7120   22.4900   22.3900 C.3     9  C9          0.1812
    172  O5'       42.4670   22.2730   21.7550 O.3     9  C9         -0.3114
    173  C4'       44.5780   23.2570   21.4480 C.3     9  C9          0.1773
    174  O4'       44.2810   22.7900   20.1170 O.3     9  C9         -0.3307
    175  C3'       44.2620   24.7320   21.3680 C.3     9  C9          0.1860
    176  O3'       44.8830   25.4580   22.4030 O.3     9  C9         -0.3112
    177  C2'       44.7550   25.1130   19.9870 C.3     9  C9          0.2309
    178  O2'       46.1650   25.2680   19.9880 O.3     9  C9         -0.2156
    179  C1'       44.4070   23.8530   19.2000 C.3     9  C9          0.2420
    180  N1        43.1970   23.9930   18.3750 N.ar    9  C9         -0.2535
    181  C2        43.2570   24.9880   17.4120 C.ar    9  C9          0.3532
    182  O2        44.3050   25.6530   17.3520 O.2     9  C9         -0.2443
    183  N3        42.2020   25.1930   16.5930 N.ar    9  C9         -0.1739
    184  C4        41.1180   24.4220   16.7330 C.ar    9  C9          0.1759
    185  N4        40.0980   24.6570   15.9000 N.pl3   9  C9         -0.1070
    186  C5        41.0300   23.3840   17.7140 C.ar    9  C9          0.0566
    187  C6        42.0910   23.2030   18.5110 C.ar    9  C9          0.0850
    188  OP1       40.9840   20.2300   22.0920 O.2     9  C9         -0.5172
    189  OP2       41.6900   21.7080   24.0620 O.co2   9  C9         -0.4373
    190  P         43.9410   26.4340   23.2440 P.3    10  A10         0.2141
    191  C5'       44.6720   28.4370   21.7900 C.3    10  A10         0.1812
    192  O5'       43.6230   27.5470   22.1410 O.3    10  A10        -0.3114
    193  C4'       44.4260   29.0730   20.4460 C.3    10  A10         0.1773
    194  O4'       43.9060   28.0650   19.5570 O.3    10  A10        -0.3307
    195  C3'       43.3820   30.1810   20.3930 C.3    10  A10         0.1860
    196  O3'       43.9270   31.4420   20.7280 O.3    10  A10        -0.3112
    197  C2'       42.8510   30.1250   18.9650 C.3    10  A10         0.2309
    198  O2'       43.7020   30.8210   18.0620 O.3    10  A10        -0.2156
    199  C1'       42.9690   28.6360   18.6720 C.3    10  A10         0.2408
    200  N1        38.3130   27.4940   16.7400 N.ar   10  A10        -0.2040
    201  C2        39.2650   28.3510   16.3270 C.ar   10  A10         0.2016
    202  N3        40.4530   28.6250   16.8670 N.ar   10  A10        -0.2048
    203  C4        40.6370   27.8800   17.9750 C.ar   10  A10         0.1692
    204  C5        39.7590   26.9580   18.5160 C.ar   10  A10         0.1518
    205  C6        38.5380   26.7670   17.8560 C.ar   10  A10         0.1919
    206  N6        37.6070   25.9150   18.2890 N.pl3  10  A10        -0.1054
    207  N7        40.2840   26.3850   19.6640 N.ar   10  A10        -0.2193
    208  C8        41.4550   26.9550   19.7980 C.ar   10  A10         0.1816
    209  N9        41.7180   27.8790   18.8210 N.ar   10  A10        -0.2693
    210  OP1       44.8640   26.9650   24.2810 O.3    10  A10        -0.4373
    211  OP2       42.7430   25.6510   23.6730 O.co2  10  A10        -0.5172
    212  P         43.3030   32.2910   21.9320 P.3    11  G11         0.2141
    213  C5'       41.7960   33.4470   20.2410 C.3    11  G11         0.1812
    214  O5'       41.8470   32.6320   21.4040 O.3    11  G11        -0.3114
    215  C4'       40.7510   34.5150   20.3720 C.3    11  G11         0.1773
    216  O4'       39.4810   33.8700   20.6430 O.3    11  G11        -0.3307
    217  C3'       40.9900   35.4720   21.5220 C.3    11  G11         0.1860
    218  O3'       40.5180   36.7580   21.1580 O.3    11  G11        -0.3112
    219  C2'       40.1280   34.8960   22.6340 C.3    11  G11         0.2309
    220  O2'       39.6710   35.8500   23.5600 O.3    11  G11        -0.2156
    221  C1'       38.9600   34.2910   21.8760 C.3    11  G11         0.2408
    222  N1        35.4070   30.6120   22.1060 N.ar   11  G11        -0.1709
    223  C2        35.5330   31.6180   21.1910 C.ar   11  G11         0.2606
    224  N2        34.5910   31.6370   20.2370 N.pl3  11  G11        -0.0859
    225  N3        36.4980   32.5310   21.2160 N.ar   11  G11        -0.1918
    226  C4        37.3460   32.3490   22.2490 C.ar   11  G11         0.1723
    227  C5        37.3040   31.3740   23.2150 C.ar   11  G11         0.1748
    228  C6        36.2670   30.4140   23.1740 C.ar   11  G11         0.3023
    229  O6        36.0670   29.4740   23.9500 O.2    11  G11        -0.2633
    230  N7        38.3480   31.5130   24.1170 N.ar   11  G11        -0.2173
    231  C8        38.9970   32.5600   23.6870 C.ar   11  G11         0.1817
    232  N9        38.4470   33.1100   22.5600 N.ar   11  G11        -0.2693
    233  OP1       44.1450   33.5160   21.9120 O.2    11  G11        -0.5172
    234  OP2       43.2540   31.4100   23.1310 O.co2  11  G11        -0.4373
    235  P         41.6470   37.8620   20.9120 P.3    12  U12         0.2141
    236  C5'       40.5580   40.0740   21.9890 C.3    12  U12         0.1812
    237  O5'       40.8390   39.2360   20.8620 O.3    12  U12        -0.3114
    238  C4'       40.6430   41.5420   21.6200 C.3    12  U12         0.1773
    239  O4'       42.0450   41.9330   21.6700 O.3    12  U12        -0.3307
    240  C3'       40.1580   41.8800   20.2020 C.3    12  U12         0.1860
    241  O3'       39.6280   43.2230   20.1410 O.3    12  U12        -0.3112
    242  C2'       41.4580   41.7380   19.3910 C.3    12  U12         0.2309
    243  O2'       41.4780   42.3640   18.1160 O.3    12  U12        -0.2156
    244  C1'       42.5020   42.2920   20.3720 C.3    12  U12         0.2420
    245  N1        43.8870   41.7380   20.2470 N.ar   12  U12        -0.2534
    246  C2        44.6630   42.0000   19.1090 C.ar   12  U12         0.3546
    247  O2        44.2940   42.6640   18.1430 O.2    12  U12        -0.2443
    248  N3        45.9210   41.4330   19.1330 N.ar   12  U12        -0.1530
    249  C4        46.4810   40.6620   20.1390 C.ar   12  U12         0.2846
    250  O4        47.6310   40.2260   20.0030 O.2    12  U12        -0.2650
    251  C5        45.6250   40.4470   21.2710 C.ar   12  U12         0.0814
    252  C6        44.3980   40.9790   21.2850 C.ar   12  U12         0.0870
    253  OP1       42.1400   37.4970   19.5610 O.2    12  U12        -0.5172
    254  OP2       42.5630   37.8640   22.0850 O.co2  12  U12        -0.4373
    255  P         38.2170   43.7030   19.4580 P.3    13  A13         0.2141
    256  C5'       38.6220   42.0560   17.4580 C.3    13  A13         0.1812
    257  O5'       37.7680   42.5220   18.4910 O.3    13  A13        -0.3114
    258  C4'       37.8020   41.5210   16.3200 C.3    13  A13         0.1773
    259  O4'       38.4650   40.3980   15.6620 O.3    13  A13        -0.3307
    260  C3'       36.4360   40.9910   16.7040 C.3    13  A13         0.1860
    261  O3'       35.5240   42.0570   16.9590 O.3    13  A13        -0.3112
    262  C2'       36.1250   40.0960   15.4960 C.3    13  A13         0.2309
    263  O2'       35.6660   40.8590   14.3840 O.3    13  A13        -0.2156
    264  C1'       37.4990   39.4990   15.1390 C.3    13  A13         0.2408
    265  N1        36.5360   34.2890   14.9600 N.ar   13  A13        -0.2040
    266  C2        36.0320   35.3230   14.2670 C.ar   13  A13         0.2016
    267  N3        36.2990   36.6350   14.3330 N.ar   13  A13        -0.2048
    268  C4        37.2390   36.8840   15.2640 C.ar   13  A13         0.1692
    269  C5        37.8480   35.9080   16.0630 C.ar   13  A13         0.1518
    270  C6        37.4750   34.5520   15.8890 C.ar   13  A13         0.1919
    271  N6        37.9840   33.5210   16.5760 N.pl3  13  A13        -0.1054
    272  N7        38.7570   36.5010   16.9240 N.ar   13  A13        -0.2193
    273  C8        38.6740   37.7820   16.6370 C.ar   13  A13         0.1816
    274  N9        37.7660   38.1190   15.6500 N.ar   13  A13        -0.2693
    275  OP1       38.5140   44.9110   18.6360 O.2    13  A13        -0.5172
    276  OP2       37.2520   43.8130   20.5870 O.co2  13  A13        -0.4373
    277  P         34.4110   42.1230   18.1430 P.3    14  A14         0.2141
    278  C5'       33.1600   41.4670   15.9440 C.3    14  A14         0.1812
    279  O5'       33.1980   41.4330   17.3650 O.3    14  A14        -0.3114
    280  C4'       32.7060   40.1510   15.3710 C.3    14  A14         0.1773
    281  O4'       33.8160   39.2450   15.1530 O.3    14  A14        -0.3307
    282  C3'       31.7900   39.3650   16.2770 C.3    14  A14         0.1860
    283  O3'       30.4800   39.8800   16.2340 O.3    14  A14        -0.3112
    284  C2'       31.9310   37.9390   15.7600 C.3    14  A14         0.2309
    285  O2'       31.1600   37.7590   14.5790 O.3    14  A14        -0.2156
    286  C1'       33.4140   37.9090   15.3860 C.3    14  A14         0.2408
    287  N1        34.6090   33.7650   18.3410 N.ar   14  A14        -0.2040
    288  C2        33.6360   33.9800   17.4510 C.ar   14  A14         0.2016
    289  N3        33.3700   35.0620   16.7170 N.ar   14  A14        -0.2048
    290  C4        34.2510   36.0380   16.9710 C.ar   14  A14         0.1692
    291  C5        35.3090   35.9590   17.8660 C.ar   14  A14         0.1518
    292  C6        35.4860   34.7610   18.5760 C.ar   14  A14         0.1919
    293  N6        36.4570   34.5600   19.4750 N.pl3  14  A14        -0.1054
    294  N7        36.0180   37.1420   17.8870 N.ar   14  A14        -0.2193
    295  C8        35.3750   37.8890   17.0250 C.ar   14  A14         0.1816
    296  N9        34.2930   37.3050   16.4170 N.ar   14  A14        -0.2693
    297  OP1       34.1450   43.5620   18.3970 O.2    14  A14        -0.5172
    298  OP2       34.8070   41.3040   19.3150 O.co2  14  A14        -0.4373
    299  P         29.9750   40.5230   17.5970 P.3    15  C15         0.2141
    300  C5'       28.6020   38.3110   17.4370 C.3    15  C15         0.1812
    301  O5'       29.3320   39.2190   18.2480 O.3    15  C15        -0.3114
    302  C4'       28.7690   36.8920   17.9210 C.3    15  C15         0.1773
    303  O4'       30.1480   36.4710   17.7790 O.3    15  C15        -0.3307
    304  C3'       28.5130   36.6700   19.3960 C.3    15  C15         0.1860
    305  O3'       27.1440   36.5990   19.7110 O.3    15  C15        -0.3112
    306  C2'       29.2660   35.3830   19.6980 C.3    15  C15         0.2309
    307  O2'       28.5300   34.2560   19.2400 O.3    15  C15        -0.2156
    308  C1'       30.4840   35.5610   18.8050 C.3    15  C15         0.2420
    309  N1        31.6900   36.0560   19.4730 N.ar   15  C15        -0.2535
    310  C2        32.3710   35.1840   20.3150 C.ar   15  C15         0.3532
    311  O2        31.8930   34.0520   20.4710 O.2    15  C15        -0.2443
    312  N3        33.5070   35.5920   20.9330 N.ar   15  C15        -0.1739
    313  C4        33.9560   36.8270   20.7020 C.ar   15  C15         0.1759
    314  N4        35.0770   37.2110   21.3060 N.pl3  15  C15        -0.1070
    315  C5        33.2760   37.7340   19.8360 C.ar   15  C15         0.0566
    316  C6        32.1560   37.3110   19.2360 C.ar   15  C15         0.0850
    317  OP1       28.9220   41.5160   17.2480 O.2    15  C15        -0.5172
    318  OP2       31.1960   40.9560   18.3270 O.co2  15  C15        -0.4373
    319  P         26.8420   37.0580   21.2000 P.3    16  C16         0.2141
    320  C5'       26.8020   34.5780   21.9480 C.3    16  C16         0.1812
    321  O5'       27.4090   35.8540   22.0670 O.3    16  C16        -0.3114
    322  C4'       27.3100   33.6370   23.0110 C.3    16  C16         0.1773
    323  O4'       28.7470   33.4850   22.9050 O.3    16  C16        -0.3307
    324  C3'       27.1420   34.1020   24.4380 C.3    16  C16         0.1860
    325  O3'       25.8280   33.9340   24.9080 O.3    16  C16        -0.3112
    326  C2'       28.1590   33.2640   25.1890 C.3    16  C16         0.2309
    327  O2'       27.7030   31.9240   25.3110 O.3    16  C16        -0.2156
    328  C1'       29.2970   33.2720   24.1840 C.3    16  C16         0.2420
    329  N1        30.3100   34.3080   24.3870 N.ar   16  C16        -0.2535
    330  C2        31.2180   34.1290   25.4220 C.ar   16  C16         0.3532
    331  O2        31.0900   33.1220   26.1370 O.2    16  C16        -0.2443
    332  N3        32.1890   35.0440   25.6180 N.ar   16  C16        -0.1739
    333  C4        32.2560   36.0860   24.7940 C.ar   16  C16         0.1759
    334  N4        33.2210   36.9790   24.9960 N.pl3  16  C16        -0.1070
    335  C5        31.3420   36.2830   23.7250 C.ar   16  C16         0.0566
    336  C6        30.3890   35.3680   23.5500 C.ar   16  C16         0.0850
    337  OP1       25.3590   37.0520   21.2430 O.2    16  C16        -0.5172
    338  OP2       27.6520   38.2910   21.4300 O.co2  16  C16        -0.4373
    339  P         25.4290   35.0550   25.9580 P.3    17  C17         0.2141
    340  C5'       26.1330   33.3080   27.7680 C.3    17  C17         0.1812
    341  O5'       26.2930   34.6120   27.2230 O.3    17  C17        -0.3114
    342  C4'       26.8800   33.1520   29.0690 C.3    17  C17         0.1773
    343  O4'       28.3100   33.1270   28.8270 O.3    17  C17        -0.3307
    344  C3'       26.7160   34.2800   30.0730 C.3    17  C17         0.1860
    345  O3'       25.5110   34.1860   30.7950 O.3    17  C17        -0.3112
    346  C2'       27.9390   34.0850   30.9430 C.3    17  C17         0.2309
    347  O2'       27.7670   32.8960   31.7010 O.3    17  C17        -0.2156
    348  C1'       28.9830   33.7870   29.8760 C.3    17  C17         0.2420
    349  N1        29.5940   34.9710   29.2410 N.ar   17  C17        -0.2535
    350  C2        30.6930   35.5850   29.8370 C.ar   17  C17         0.3532
    351  O2        31.1010   35.1320   30.9130 O.2    17  C17        -0.2443
    352  N3        31.2710   36.6560   29.2370 N.ar   17  C17        -0.1739
    353  C4        30.7920   37.1040   28.0750 C.ar   17  C17         0.1759
    354  N4        31.3850   38.1580   27.5150 N.pl3  17  C17        -0.1070
    355  C5        29.6760   36.4950   27.4340 C.ar   17  C17         0.0566
    356  C6        29.1170   35.4400   28.0430 C.ar   17  C17         0.0850
    357  OP1       23.9750   34.8540   26.1920 O.3    17  C17        -0.4373
    358  OP2       25.9590   36.3360   25.4220 O.co2  17  C17        -0.5172
    359  P         24.9150   35.4960   31.4780 P.3    18  C18         0.2141
    360  C5'       26.1400   35.0200   33.7390 C.3    18  C18         0.1812
    361  O5'       25.9850   35.8550   32.6000 O.3    18  C18        -0.3114
    362  C4'       27.2350   35.5280   34.6440 C.3    18  C18         0.1773
    363  O4'       28.4900   35.5210   33.9170 O.3    18  C18        -0.3307
    364  C3'       27.1190   36.9730   35.1070 C.3    18  C18         0.1860
    365  O3'       26.2170   37.1850   36.1790 O.3    18  C18        -0.3112
    366  C2'       28.5580   37.3310   35.4490 C.3    18  C18         0.2309
    367  O2'       28.9380   36.7700   36.6940 O.3    18  C18        -0.2156
    368  C1'       29.3050   36.5900   34.3450 C.3    18  C18         0.2420
    369  N1        29.5600   37.5010   33.2250 N.ar   18  C18        -0.2535
    370  C2        30.6390   38.3780   33.3280 C.ar   18  C18         0.3532
    371  O2        31.3350   38.3570   34.3430 O.2    18  C18        -0.2443
    372  N3        30.9010   39.2380   32.3270 N.ar   18  C18        -0.1739
    373  C4        30.1240   39.2350   31.2400 C.ar   18  C18         0.1759
    374  N4        30.4240   40.0980   30.2750 N.pl3  18  C18        -0.1070
    375  C5        29.0170   38.3490   31.1010 C.ar   18  C18         0.0566
    376  C6        28.7660   37.5040   32.1130 C.ar   18  C18         0.0850
    377  OP1       23.7070   34.8920   32.0870 O.3    18  C18        -0.4373
    378  OP2       24.8090   36.6120   30.4990 O.co2  18  C18        -0.5172
    379  P         25.4350   38.5840   36.1330 P.3    19  A19         0.2141
    380  C5'       27.1240   39.6370   37.8720 C.3    19  A19         0.1812
    381  O5'       26.4390   39.7220   36.6420 O.3    19  A19        -0.3114
    382  C4'       28.3050   40.5770   37.9340 C.3    19  A19         0.1773
    383  O4'       29.2690   40.2260   36.9140 O.3    19  A19        -0.3307
    384  C3'       28.0490   42.0660   37.7400 C.3    19  A19         0.1860
    385  O3'       27.6730   42.7230   38.9340 O.3    19  A19        -0.3112
    386  C2'       29.4040   42.5720   37.2760 C.3    19  A19         0.2309
    387  O2'       30.2630   42.7760   38.3900 O.3    19  A19        -0.2156
    388  C1'       29.9160   41.3930   36.4540 C.3    19  A19         0.2408
    389  N1        30.8970   44.0650   32.1320 N.ar   19  A19        -0.2040
    390  C2        31.3980   44.1370   33.3660 C.ar   19  A19         0.2016
    391  N3        31.0960   43.4040   34.4340 N.ar   19  A19        -0.2048
    392  C4        30.1470   42.4990   34.1640 C.ar   19  A19         0.1692
    393  C5        29.5370   42.3120   32.9470 C.ar   19  A19         0.1518
    394  C6        29.9490   43.1370   31.8880 C.ar   19  A19         0.1919
    395  N6        29.4500   43.0720   30.6540 N.pl3  19  A19        -0.1054
    396  N7        28.6120   41.2890   33.0370 N.ar   19  A19        -0.2193
    397  C8        28.6690   40.8810   34.2850 C.ar   19  A19         0.1816
    398  N9        29.5900   41.5760   35.0250 N.ar   19  A19        -0.2693
    399  OP1       24.3170   38.3240   37.0500 O.3    19  A19        -0.4373
    400  OP2       25.1270   38.8930   34.7210 O.co2  19  A19        -0.5172
    401  P         27.0000   44.1750   38.8570 P.3    20  G20         0.2141
    402  C5'       29.2120   45.4590   39.4370 C.3    20  G20         0.1812
    403  O5'       28.1040   45.2530   38.5940 O.3    20  G20        -0.3114
    404  C4'       30.0560   46.5120   38.7850 C.3    20  G20         0.1773
    405  O4'       30.2010   46.1670   37.3790 O.3    20  G20        -0.3307
    406  C3'       29.4130   47.8870   38.7920 C.3    20  G20         0.1860
    407  O3'       30.4500   48.8610   38.7430 O.3    20  G20        -0.3112
    408  C2'       28.6470   47.9060   37.4780 C.3    20  G20         0.2309
    409  O2'       28.3320   49.2090   37.0420 O.3    20  G20        -0.2156
    410  C1'       29.6570   47.2020   36.5750 C.3    20  G20         0.2408
    411  N1        29.5020   47.6010   31.4770 N.ar   20  G20        -0.1709
    412  C2        30.0820   48.4250   32.3860 C.ar   20  G20         0.2606
    413  N2        30.7150   49.4940   31.8860 N.pl3  20  G20        -0.0859
    414  N3        30.0520   48.2170   33.6910 N.ar   20  G20        -0.1918
    415  C4        29.3830   47.0970   34.0210 C.ar   20  G20         0.1723
    416  C5        28.7640   46.2090   33.1730 C.ar   20  G20         0.1748
    417  C6        28.8010   46.4430   31.7740 C.ar   20  G20         0.3023
    418  O6        28.3030   45.7650   30.8510 O.2    20  G20        -0.2633
    419  N7        28.1720   45.1790   33.8850 N.ar   20  G20        -0.2173
    420  C8        28.4440   45.4620   35.1330 C.ar   20  G20         0.1817
    421  N9        29.1660   46.6250   35.3060 N.ar   20  G20        -0.2693
    422  OP1       26.3640   44.4360   40.1680 O.3    20  G20        -0.4373
    423  OP2       26.1860   44.1100   37.6210 O.co2  20  G20        -0.5172
    424  P         30.7700   49.6930   40.0730 P.3    21  U21         0.2141
    425  C5'       33.2200   48.9820   40.0360 C.3    21  U21         0.1812
    426  O5'       32.2980   50.0550   39.9780 O.3    21  U21        -0.3114
    427  C4'       34.5870   49.4790   39.6740 C.3    21  U21         0.1773
    428  O4'       34.7010   49.5570   38.2250 O.3    21  U21        -0.3307
    429  C3'       34.8800   50.8750   40.2030 C.3    21  U21         0.1860
    430  O3'       36.2770   50.9650   40.4260 O.3    21  U21        -0.3112
    431  C2'       34.5180   51.7610   39.0190 C.3    21  U21         0.2309
    432  O2'       35.1590   53.0160   39.0130 O.3    21  U21        -0.2156
    433  C1'       34.9720   50.8950   37.8460 C.3    21  U21         0.2420
    434  N1        34.1860   51.1890   36.6340 N.ar   21  U21        -0.2534
    435  C2        34.7700   51.8860   35.5890 C.ar   21  U21         0.3546
    436  O2        35.9250   52.2840   35.6000 O.2    21  U21        -0.2443
    437  N3        33.9430   52.1070   34.5220 N.ar   21  U21        -0.1530
    438  C4        32.6280   51.7080   34.4110 C.ar   21  U21         0.2846
    439  O4        31.9900   51.9680   33.3940 O.2    21  U21        -0.2650
    440  C5        32.1050   50.9950   35.5280 C.ar   21  U21         0.0814
    441  C6        32.8850   50.7670   36.5790 C.ar   21  U21         0.0870
    442  OP1       30.5760   48.6950   41.1520 O.3    21  U21        -0.4373
    443  OP2       29.9570   50.9330   39.9990 O.co2  21  U21        -0.5172
    444  P         36.8520   51.3800   41.8520 P.3    22  U22         0.2141
    445  C5'       37.2540   48.7810   42.1080 C.3    22  U22         0.1812
    446  O5'       36.8360   50.0140   42.6790 O.3    22  U22        -0.3114
    447  C4'       36.9180   47.5930   42.9800 C.3    22  U22         0.1773
    448  O4'       36.7970   48.0040   44.3630 O.3    22  U22        -0.3307
    449  C3'       35.6210   46.8620   42.6640 C.3    22  U22         0.1860
    450  O3'       35.8300   45.4780   42.8990 O.3    22  U22        -0.3112
    451  C2'       34.6320   47.3650   43.7070 C.3    22  U22         0.2309
    452  O2'       33.6620   46.3910   44.0200 O.3    22  U22        -0.2156
    453  C1'       35.5500   47.6060   44.8950 C.3    22  U22         0.2420
    454  N1        35.1710   48.7140   45.8020 N.ar   22  U22        -0.2534
    455  C2        34.5760   48.4170   47.0140 C.ar   22  U22         0.3546
    456  O2        34.3190   47.2770   47.3380 O.2    22  U22        -0.2443
    457  N3        34.2800   49.4930   47.8220 N.ar   22  U22        -0.1530
    458  C4        34.5320   50.8200   47.5440 C.ar   22  U22         0.2846
    459  O4        34.2160   51.6960   48.3500 O.2    22  U22        -0.2650
    460  C5        35.1660   51.0460   46.2840 C.ar   22  U22         0.0814
    461  C6        35.4570   50.0150   45.4800 C.ar   22  U22         0.0870
    462  OP1       35.8770   52.3430   42.4340 O.3    22  U22        -0.4373
    463  OP2       38.2360   51.8240   41.5340 O.co2  22  U22        -0.5172
    464  P         36.4970   44.6410   41.7170 P.3    23  A23         0.2141
    465  C5'       34.0990   44.3910   40.8300 C.3    23  A23         0.1812
    466  O5'       35.4210   44.8280   40.5780 O.3    23  A23        -0.3114
    467  C4'       33.3710   44.1860   39.5360 C.3    23  A23         0.1773
    468  O4'       33.2530   45.4550   38.8510 O.3    23  A23        -0.3307
    469  C3'       34.0710   43.2460   38.5760 C.3    23  A23         0.1860
    470  O3'       33.6030   41.9340   38.8090 O.3    23  A23        -0.3112
    471  C2'       33.6220   43.7690   37.2340 C.3    23  A23         0.2309
    472  O2'       32.3250   43.2480   37.0080 O.3    23  A23        -0.2156
    473  C1'       33.4610   45.2680   37.4770 C.3    23  A23         0.2408
    474  N1        35.1910   49.0330   34.4190 N.ar   23  A23        -0.2040
    475  C2        34.0240   48.3960   34.4950 C.ar   23  A23         0.2016
    476  N3        33.6450   47.4200   35.3100 N.ar   23  A23        -0.2048
    477  C4        34.6360   47.0850   36.1510 C.ar   23  A23         0.1692
    478  C5        35.8930   47.6440   36.1930 C.ar   23  A23         0.1518
    479  C6        36.1660   48.6680   35.2700 C.ar   23  A23         0.1919
    480  N6        37.3340   49.3070   35.1800 N.pl3  23  A23        -0.1054
    481  N7        36.6530   47.0440   37.1840 N.ar   23  A23        -0.2193
    482  C8        35.8490   46.1480   37.7110 C.ar   23  A23         0.1816
    483  N9        34.6170   46.1060   37.1190 N.ar   23  A23        -0.2693
    484  OP1       36.5110   43.2250   42.1810 O.3    23  A23        -0.4373
    485  OP2       37.7300   45.3610   41.3080 O.co2  23  A23        -0.5172
    486  P         34.3050   40.5690   38.3520 P.3    24  A24         0.2141
    487  C5'       33.9960   39.9930   40.8510 C.3    24  A24         0.1812
    488  O5'       33.7990   39.5990   39.5020 O.3    24  A24        -0.3114
    489  C4'       33.3980   39.0130   41.8250 C.3    24  A24         0.1773
    490  O4'       31.9590   39.1560   41.8760 O.3    24  A24        -0.3307
    491  C3'       33.5960   37.5510   41.4960 C.3    24  A24         0.1860
    492  O3'       34.8840   37.1050   41.8600 O.3    24  A24        -0.3112
    493  C2'       32.4840   36.8750   42.2770 C.3    24  A24         0.2309
    494  O2'       32.8740   36.7600   43.6340 O.3    24  A24        -0.2156
    495  C1'       31.3740   37.9180   42.2030 C.3    24  A24         0.2408
    496  N1        27.2280   35.1030   41.0160 N.ar   24  A24        -0.2040
    497  C2        28.0110   35.1510   42.1090 C.ar   24  A24         0.2016
    498  N3        29.0780   35.9100   42.3640 N.ar   24  A24        -0.2048
    499  C4        29.3330   36.7100   41.3210 C.ar   24  A24         0.1692
    500  C5        28.6300   36.7700   40.1280 C.ar   24  A24         0.1518
    501  C6        27.5180   35.9220   39.9790 C.ar   24  A24         0.1919
    502  N6        26.7370   35.8930   38.8970 N.pl3  24  A24        -0.1054
    503  N7        29.1900   37.7130   39.2910 N.ar   24  A24        -0.2193
    504  C8        30.2030   38.1850   39.9750 C.ar   24  A24         0.1816
    505  N9        30.3520   37.6100   41.2000 N.ar   24  A24        -0.2693
    506  OP1       35.7760   40.7500   38.4510 O.3    24  A24        -0.4373
    507  OP2       33.6740   40.1460   37.0780 O.co2  24  A24        -0.5172
    508  P         35.5150   35.9030   41.0140 P.3    25  C25         0.2141
    509  C5'       34.7280   34.0120   42.5090 C.3    25  C25         0.1812
    510  O5'       34.5020   34.7040   41.2930 O.3    25  C25        -0.3114
    511  C4'       33.6130   33.0590   42.8410 C.3    25  C25         0.1773
    512  O4'       32.3360   33.7000   42.5970 O.3    25  C25        -0.3307
    513  C3'       33.5370   31.8050   41.9940 C.3    25  C25         0.1860
    514  O3'       34.4620   30.8130   42.3820 O.3    25  C25        -0.3112
    515  C2'       32.0910   31.3710   42.1570 C.3    25  C25         0.2309
    516  O2'       31.9140   30.6520   43.3630 O.3    25  C25        -0.2156
    517  C1'       31.3780   32.7210   42.2520 C.3    25  C25         0.2420
    518  N1        30.7220   33.0550   40.9760 N.ar   25  C25        -0.2535
    519  C2        29.6440   32.2460   40.6080 C.ar   25  C25         0.3532
    520  O2        29.3330   31.3270   41.3860 O.2    25  C25        -0.2443
    521  N3        28.9870   32.4790   39.4450 N.ar   25  C25        -0.1739
    522  C4        29.3840   33.4910   38.6630 C.ar   25  C25         0.1759
    523  N4        28.7190   33.7030   37.5130 N.pl3  25  C25        -0.1070
    524  C5        30.4840   34.3330   39.0240 C.ar   25  C25         0.0566
    525  C6        31.1280   34.0850   40.1770 C.ar   25  C25         0.0850
    526  OP1       36.8410   35.6600   41.6480 O.3    25  C25        -0.4373
    527  OP2       35.4780   36.3560   39.5970 O.co2  25  C25        -0.5172
    528  P         35.3080   30.1570   41.1850 P.3    26  A26         0.2141
    529  C5'       33.7490   28.5970   39.7840 C.3    26  A26         0.1812
    530  O5'       34.1530   29.9160   40.1190 O.3    26  A26        -0.3114
    531  C4'       32.3010   28.5600   39.3740 C.3    26  A26         0.1773
    532  O4'       31.8250   29.9020   39.1190 O.3    26  A26        -0.3307
    533  C3'       31.9900   27.8060   38.0970 C.3    26  A26         0.1860
    534  O3'       31.8470   26.4250   38.3430 O.3    26  A26        -0.3112
    535  C2'       30.7030   28.4510   37.6010 C.3    26  A26         0.2309
    536  O2'       29.5820   27.8670   38.2430 O.3    26  A26        -0.2156
    537  C1'       30.8480   29.8810   38.1100 C.3    26  A26         0.2408
    538  N1        29.3950   32.1470   33.7660 N.ar   26  A26        -0.2040
    539  C2        28.8530   31.1800   34.5070 C.ar   26  A26         0.2016
    540  N3        29.2980   30.6340   35.6320 N.ar   26  A26        -0.2048
    541  C4        30.4580   31.1940   35.9950 C.ar   26  A26         0.1692
    542  C5        31.1460   32.1910   35.3440 C.ar   26  A26         0.1518
    543  C6        30.5660   32.6820   34.1660 C.ar   26  A26         0.1919
    544  N6        31.1060   33.6470   33.4210 N.pl3  26  A26        -0.1054
    545  N7        32.3160   32.5060   36.0220 N.ar   26  A26        -0.2193
    546  C8        32.3090   31.6990   37.0550 C.ar   26  A26         0.1816
    547  N9        31.2120   30.8730   37.0860 N.ar   26  A26        -0.2693
    548  OP1       35.8230   28.8340   41.6300 O.3    26  A26        -0.4373
    549  OP2       36.2720   31.2130   40.7490 O.co2  26  A26        -0.5172
    550  P         32.3360   25.4050   37.2250 P.3    27  A27         0.2141
    551  C5'       29.8960   25.5810   36.3350 C.3    27  A27         0.1812
    552  O5'       31.2830   25.7240   36.0860 O.3    27  A27        -0.3114
    553  C4'       29.1410   25.9140   35.0790 C.3    27  A27         0.1773
    554  O4'       29.1430   27.3500   34.8750 O.3    27  A27        -0.3307
    555  C3'       29.7740   25.3570   33.8180 C.3    27  A27         0.1860
    556  O3'       29.3960   24.0120   33.5890 O.3    27  A27        -0.3112
    557  C2'       29.3040   26.3220   32.7420 C.3    27  A27         0.2309
    558  O2'       27.9650   26.0270   32.3760 O.3    27  A27        -0.2156
    559  C1'       29.2920   27.6450   33.5030 C.3    27  A27         0.2408
    560  N1        31.7300   31.3380   30.8450 N.ar   27  A27        -0.2040
    561  C2        30.5230   30.7780   30.6960 C.ar   27  A27         0.2016
    562  N3        29.9520   29.8160   31.4170 N.ar   27  A27        -0.2048
    563  C4        30.7670   29.4120   32.4120 C.ar   27  A27         0.1692
    564  C5        32.0320   29.8880   32.6820 C.ar   27  A27         0.1518
    565  C6        32.5230   30.9050   31.8500 C.ar   27  A27         0.1919
    566  N6        33.7240   31.4680   31.9870 N.pl3  27  A27        -0.1054
    567  N7        32.5680   29.2390   33.7780 N.ar   27  A27        -0.2193
    568  C8        31.6360   28.3920   34.1430 C.ar   27  A27         0.1816
    569  N9        30.5240   28.4370   33.3490 N.ar   27  A27        -0.2693
    570  OP1       32.1150   24.0400   37.7730 O.3    27  A27        -0.4373
    571  OP2       33.6970   25.8470   36.8020 O.co2  27  A27        -0.5172
    572  P         30.2680   23.0910   32.6060 P.3    28  A28         0.2141
    573  C5'       28.2210   23.1850   30.9420 C.3    28  A28         0.1812
    574  O5'       29.6010   23.4330   31.2010 O.3    28  A28        -0.3114
    575  C4'       27.9070   23.3460   29.4710 C.3    28  A28         0.1773
    576  O4'       28.0100   24.7510   29.0930 O.3    28  A28        -0.3307
    577  C3'       28.8320   22.5840   28.5220 C.3    28  A28         0.1860
    578  O3'       28.0880   22.1750   27.3750 O.3    28  A28        -0.3112
    579  C2'       29.8340   23.6600   28.1190 C.3    28  A28         0.2309
    580  O2'       30.5460   23.4410   26.9150 O.3    28  A28        -0.2156
    581  C1'       28.9070   24.8610   28.0100 C.3    28  A28         0.2408
    582  N1        28.9200   29.7450   26.4820 N.ar   28  A28        -0.2040
    583  C2        28.0310   28.7540   26.3410 C.ar   28  A28         0.2016
    584  N3        28.0870   27.4960   26.7770 N.ar   28  A28        -0.2048
    585  C4        29.2370   27.2840   27.4350 C.ar   28  A28         0.1692
    586  C5        30.2510   28.1930   27.6620 C.ar   28  A28         0.1518
    587  C6        30.0620   29.4840   27.1450 C.ar   28  A28         0.1919
    588  N6        30.9440   30.4680   27.2680 N.pl3  28  A28        -0.1054
    589  N7        31.2850   27.6050   28.3880 N.ar   28  A28        -0.2193
    590  C8        30.8770   26.3700   28.5750 C.ar   28  A28         0.1816
    591  N9        29.6360   26.1240   28.0370 N.ar   28  A28        -0.2693
    592  OP1       29.9970   21.6700   32.9430 O.3    28  A28        -0.4373
    593  OP2       31.6600   23.6210   32.6760 O.co2  28  A28        -0.5172
    594  P         28.7790   21.3180   26.1950 P.3    29  A29         0.2141
    595  C5'       27.8730   22.3460   24.0260 C.3    29  A29         0.1812
    596  O5'       28.9020   22.3690   24.9990 O.3    29  A29        -0.3114
    597  C4'       27.6410   23.6800   23.3640 C.3    29  A29         0.1773
    598  O4'       27.7930   24.7660   24.3130 O.3    29  A29        -0.3307
    599  C3'       28.5750   24.0810   22.2350 C.3    29  A29         0.1860
    600  O3'       28.3440   23.3720   21.0290 O.3    29  A29        -0.3112
    601  C2'       28.2590   25.5670   22.1340 C.3    29  A29         0.2309
    602  O2'       26.9870   25.7670   21.5380 O.3    29  A29        -0.2156
    603  C1'       28.1520   25.9370   23.6100 C.3    29  A29         0.2408
    604  N1        31.2420   29.9980   23.6870 N.ar   29  A29        -0.2040
    605  C2        30.0250   29.7850   23.1860 C.ar   29  A29         0.2016
    606  N3        29.2780   28.6830   23.2140 N.ar   29  A29        -0.2048
    607  C4        29.9130   27.7010   23.8610 C.ar   29  A29         0.1692
    608  C5        31.1590   27.7600   24.4410 C.ar   29  A29         0.1518
    609  C6        31.8480   28.9810   24.3400 C.ar   29  A29         0.1919
    610  N6        33.0640   29.1840   24.8560 N.pl3  29  A29        -0.1054
    611  N7        31.4800   26.5390   25.0250 N.ar   29  A29        -0.2193
    612  C8        30.4340   25.7770   24.7810 C.ar   29  A29         0.1816
    613  N9        29.4500   26.4340   24.0850 N.ar   29  A29        -0.2693
    614  OP1       27.7220   20.3050   25.9400 O.2    29  A29        -0.5172
    615  OP2       30.1380   20.8600   26.5870 O.co2  29  A29        -0.4373
    616  P         29.5070   23.1500   19.9330 P.3    30  C30         0.2141
    617  C5'       28.6770   25.3460   18.7610 C.3    30  C30         0.1812
    618  O5'       29.7490   24.6040   19.3170 O.3    30  C30        -0.3114
    619  C4'       29.0940   26.7650   18.4730 C.3    30  C30         0.1773
    620  O4'       29.3600   27.4620   19.7170 O.3    30  C30        -0.3307
    621  C3'       30.3820   26.9420   17.6840 C.3    30  C30         0.1860
    622  O3'       30.1910   26.7800   16.2930 O.3    30  C30        -0.3112
    623  C2'       30.8130   28.3520   18.0670 C.3    30  C30         0.2309
    624  O2'       30.0270   29.3090   17.3740 O.3    30  C30        -0.2156
    625  C1'       30.4120   28.3890   19.5410 C.3    30  C30         0.2420
    626  N1        31.5090   27.9930   20.4480 N.ar   30  C30        -0.2535
    627  C2        32.5330   28.9110   20.7030 C.ar   30  C30         0.3532
    628  O2        32.4980   30.0230   20.1540 O.2    30  C30        -0.2443
    629  N3        33.5350   28.5670   21.5290 N.ar   30  C30        -0.1739
    630  C4        33.5180   27.3600   22.0920 C.ar   30  C30         0.1759
    631  N4        34.5250   27.0560   22.9110 N.pl3  30  C30        -0.1070
    632  C5        32.4850   26.4050   21.8610 C.ar   30  C30         0.0566
    633  C6        31.5020   26.7610   21.0370 C.ar   30  C30         0.0850
    634  OP1       28.8010   22.2860   18.9580 O.2    30  C30        -0.5172
    635  OP2       30.7460   22.6330   20.5720 O.co2  30  C30        -0.4373
    636  P         31.3860   26.3450   15.3100 P.3    31  A31         0.2141
    637  C5'       31.6660   28.8310   14.7560 C.3    31  A31         0.1812
    638  O5'       32.2740   27.6470   15.2360 O.3    31  A31        -0.3114
    639  C4'       32.6950   29.9180   14.7470 C.3    31  A31         0.1773
    640  O4'       33.0330   30.2460   16.1110 O.3    31  A31        -0.3307
    641  C3'       34.0170   29.5080   14.1270 C.3    31  A31         0.1860
    642  O3'       33.9780   29.6780   12.7270 O.3    31  A31        -0.3112
    643  C2'       35.0390   30.3940   14.8270 C.3    31  A31         0.2309
    644  O2'       35.0730   31.6880   14.2410 O.3    31  A31        -0.2156
    645  C1'       34.4090   30.5350   16.2060 C.3    31  A31         0.2408
    646  N1        38.2340   29.8440   19.5200 N.ar   31  A31        -0.2040
    647  C2        38.0160   30.7810   18.5850 C.ar   31  A31         0.2016
    648  N3        37.0010   30.9070   17.7470 N.ar   31  A31        -0.2048
    649  C4        36.1330   29.8990   17.9410 C.ar   31  A31         0.1692
    650  C5        36.2200   28.8670   18.8550 C.ar   31  A31         0.1518
    651  C6        37.3360   28.8570   19.6890 C.ar   31  A31         0.1919
    652  N6        37.5500   27.9250   20.6180 N.pl3  31  A31        -0.1054
    653  N7        35.1280   28.0130   18.7640 N.ar   31  A31        -0.2193
    654  C8        34.4080   28.5440   17.8000 C.ar   31  A31         0.1816
    655  N9        34.9730   29.6700   17.2510 N.ar   31  A31        -0.2693
    656  OP1       30.6430   26.1950   14.0400 O.2    31  A31        -0.5172
    657  OP2       32.1630   25.2000   15.8580 O.co2  31  A31        -0.4373
    658  P         35.0450   29.0160   11.7430 P.3    32  A32         0.2141
    659  C5'       35.0620   31.3880   10.7390 C.3    32  A32         0.1812
    660  O5'       35.8220   30.3060   11.2500 O.3    32  A32        -0.3114
    661  C4'       35.9590   32.5700   10.5150 C.3    32  A32         0.1773
    662  O4'       36.3060   33.1760   11.7850 O.3    32  A32        -0.3307
    663  C3'       37.2970   32.1960    9.9180 C.3    32  A32         0.1860
    664  O3'       37.2250   32.0510    8.5150 O.3    32  A32        -0.3112
    665  C2'       38.2180   33.3140   10.3870 C.3    32  A32         0.2309
    666  O2'       38.0040   34.4840    9.6120 O.3    32  A32        -0.2156
    667  C1'       37.6650   33.5690   11.7830 C.3    32  A32         0.2408
    668  N1        41.5120   33.4230   15.2430 N.ar   32  A32        -0.2040
    669  C2        41.1670   34.3360   14.3240 C.ar   32  A32         0.2016
    670  N3        40.1660   34.3170   13.4460 N.ar   32  A32        -0.2048
    671  C4        39.4510   33.1850   13.5750 C.ar   32  A32         0.1692
    672  C5        39.6850   32.1540   14.4740 C.ar   32  A32         0.1518
    673  C6        40.7790   32.2900   15.3480 C.ar   32  A32         0.1919
    674  N6        41.1350   31.3700   16.2600 N.pl3  32  A32        -0.1054
    675  N7        38.7430   31.1460   14.3150 N.ar   32  A32        -0.2193
    676  C8        37.9720   31.5830   13.3450 C.ar   32  A32         0.1816
    677  N9        38.3490   32.8030   12.8410 N.ar   32  A32        -0.2693
    678  OP1       34.2040   28.5330   10.6270 O.2    32  A32        -0.5172
    679  OP2       35.9030   28.0570   12.4960 O.co2  32  A32        -0.4373
    680  P         38.3540   31.1840    7.7930 P.3    33  G33         0.2141
    681  C5'       40.9760   31.3460    7.9930 C.3    33  G33         0.1813
    682  O5'       39.6990   31.8690    8.3120 O.3    33  G33        -0.3114
    683  C4'       41.9290   31.5460    9.1390 C.3    33  G33         0.1801
    684  O4'       41.1760   31.5620   10.3680 O.3    33  G33        -0.3306
    685  C3'       42.9440   30.4330    9.3250 C.3    33  G33         0.2161
    686  O3'       44.0950   30.6170    8.5180 O.3    33  G33        -0.2175
    687  C2'       43.2250   30.4290   10.8240 C.3    33  G33         0.2337
    688  O2'       44.2210   31.3740   11.1860 O.3    33  G33        -0.2155
    689  C1'       41.8830   30.8840   11.3820 C.3    33  G33         0.2409
    690  N1        41.3560   26.8110   14.3790 N.ar   33  G33        -0.1709
    691  C2        42.3920   27.7150   14.3350 C.ar   33  G33         0.2606
    692  N2        43.3830   27.4760   15.2150 N.pl3  33  G33        -0.0859
    693  N3        42.4410   28.7550   13.4980 N.ar   33  G33        -0.1918
    694  C4        41.3440   28.8100   12.7170 C.ar   33  G33         0.1723
    695  C5        40.2650   27.9630   12.6770 C.ar   33  G33         0.1748
    696  C6        40.2330   26.8640   13.5570 C.ar   33  G33         0.3023
    697  O6        39.3390   26.0130   13.6350 O.2    33  G33        -0.2633
    698  N7        39.3340   28.3460   11.7200 N.ar   33  G33        -0.2173
    699  C8        39.8540   29.4140   11.1920 C.ar   33  G33         0.1817
    700  N9        41.0610   29.7380   11.7600 N.ar   33  G33        -0.2693
    701  OP1       38.1580   31.4780    6.3490 O.2    33  G33        -0.5172
    702  OP2       38.2320   29.8090    8.3620 O.co2  33  G33        -0.4373
@<TRIPOS>BOND
     1   701   680    2
     2   680   682    1
     3   680   702    1
     4   680   664    1
     5   681   682    1
     6   681   683    1
     7   664   663    1
     8   686   685    1
     9   683   685    1
    10   683   684    1
    11   685   687    1
    12   666   665    1
    13   663   665    1
    14   663   661    1
    15   684   689    1
    16   665   667    1
    17   661   659    1
    18   661   662    1
    19   678   658    2
    20   659   660    1
    21   687   688    1
    22   687   689    1
    23   699   698   ar
    24   699   700   ar
    25   660   658    1
    26   689   700    1
    27   698   695   ar
    28   658   679    1
    29   658   642    1
    30   700   694   ar
    31   667   662    1
    32   667   677    1
    33   695   694   ar
    34   695   696   ar
    35   694   693   ar
    36   642   641    1
    37   677   676   ar
    38   677   671   ar
    39   676   675   ar
    40   670   671   ar
    41   670   669   ar
    42   693   691   ar
    43   696   697    2
    44   696   690   ar
    45   671   672   ar
    46   656   636    2
    47   641   639    1
    48   641   643    1
    49   644   643    1
    50   266   267   ar
    51   266   265   ar
    52   675   672   ar
    53   669   668   ar
    54   267   268   ar
    55   691   690   ar
    56   691   692    1
    57   263   262    1
    58   672   673   ar
    59   285   284    1
    60   639   637    1
    61   639   640    1
    62   637   638    1
    63   643   645    1
    64   265   270   ar
    65   264   262    1
    66   264   274    1
    67   264   259    1
    68   281   280    1
    69   281   286    1
    70   638   636    1
    71   668   673   ar
    72   268   274   ar
    73   268   269   ar
    74   636   657    1
    75   636   622    1
    76   673   674    1
    77   280   278    1
    78   280   282    1
    79   286   284    1
    80   286   296    1
    81   262   260    1
    82   274   273   ar
    83   259   258    1
    84   284   282    1
    85   270   269   ar
    86   270   271    1
    87   185   184    1
    88   278   279    1
    89   269   272   ar
    90   640   645    1
    91   645   655    1
    92   283   282    1
    93   283   299    1
    94   622   621    1
    95   258   260    1
    96   258   256    1
    97   201   200   ar
    98   201   202   ar
    99   296   290   ar
   100   296   295   ar
   101   183   184   ar
   102   183   181   ar
   103   273   272   ar
   104   260   261    1
   105   289   290   ar
   106   289   288   ar
   107   184   186   ar
   108   200   205   ar
   109   202   203   ar
   110   261   277    1
   111   290   291   ar
   112   295   294   ar
   113   317   299    2
   114   655   654   ar
   115   655   649   ar
   116   182   181    2
   117   279   277    1
   118   624   623    1
   119   181   180   ar
   120   300   302    1
   121   300   301    1
   122   288   287   ar
   123   256   257    1
   124   299   301    1
   125   299   318    1
   126   621   623    1
   127   621   619    1
   128   186   187   ar
   129   648   649   ar
   130   648   647   ar
   131   303   302    1
   132   303   308    1
   133   654   653   ar
   134   205   206    1
   135   205   204   ar
   136   291   294   ar
   137   291   292   ar
   138   302   304    1
   139   649   650   ar
   140   203   204   ar
   141   203   209   ar
   142   198   197    1
   143   623   625    1
   144   243   242    1
   145   277   297    2
   146   277   298    1
   147   247   246    2
   148   287   292   ar
   149   180   187   ar
   150   180   179    1
   151   619   617    1
   152   619   620    1
   153   257   255    1
   154   204   207   ar
   155   292   293    1
   156   647   646   ar
   157   275   255    2
   158   199   209    1
   159   199   197    1
   160   199   194    1
   161   617   618    1
   162   653   650   ar
   163   308   309    1
   164   308   306    1
   165   209   208   ar
   166   650   651   ar
   167   634   616    2
   168   197   195    1
   169   246   248   ar
   170   246   245   ar
   171   248   249   ar
   172   179   177    1
   173   179   174    1
   174   316   309   ar
   175   316   315   ar
   176   307   306    1
   177   618   616    1
   178   242   240    1
   179   242   244    1
   180   304   306    1
   181   304   305    1
   182   255   241    1
   183   255   276    1
   184   309   310   ar
   185   646   651   ar
   186   625   620    1
   187   625   626    1
   188   194   193    1
   189   253   235    2
   190   207   208   ar
   191   651   652    1
   192   305   319    1
   193   315   313   ar
   194   616   635    1
   195   616   600    1
   196   177   178    1
   197   177   175    1
   198   250   249    2
   199   174   173    1
   200   249   251   ar
   201   241   240    1
   202   628   627    2
   203   240   238    1
   204   224   223    1
   205   213   215    1
   206   213   214    1
   207   245   244    1
   208   245   252   ar
   209   310   311    2
   210   310   312   ar
   211   244   239    1
   212   215   216    1
   213   215   217    1
   214   195   193    1
   215   195   196    1
   216   193   191    1
   217   626   627   ar
   218   626   633   ar
   219   216   221    1
   220   313   312   ar
   221   313   314    1
   222   627   629   ar
   223   196   212    1
   224   237   235    1
   225   237   236    1
   226   235   218    1
   227   235   254    1
   228   600   599    1
   229   633   632   ar
   230   218   217    1
   231   223   225   ar
   232   223   222   ar
   233   319   337    2
   234   319   338    1
   235   319   321    1
   236   225   226   ar
   237   155   154    1
   238   251   252   ar
   239   175   173    1
   240   175   176    1
   241   214   212    1
   242   173   171    1
   243   217   219    1
   244   629   630   ar
   245   602   601    1
   246   238   239    1
   247   238   236    1
   248   172   171    1
   249   172   170    1
   250   191   192    1
   251   632   630   ar
   252   221   232    1
   253   221   219    1
   254   159   158    1
   255   233   212    2
   256   212   234    1
   257   320   321    1
   258   320   322    1
   259   188   170    2
   260   630   631    1
   261   222   228   ar
   262   601   599    1
   263   601   603    1
   264   192   190    1
   265   153   170    1
   266   153   152    1
   267   599   597    1
   268   226   232   ar
   269   226   227   ar
   270   176   190    1
   271   154   152    1
   272   154   156    1
   273     2     1    1
   274   232   231   ar
   275   170   189    1
   276   219   220    1
   277   323   322    1
   278   323   328    1
   279   158   160   ar
   280   158   157   ar
   281   160   161   ar
   282   322   324    1
   283   152   150    1
   284   228   227   ar
   285   228   229    2
   286   605   606   ar
   287   605   604   ar
   288     1     3    1
   289   606   607   ar
   290   227   230   ar
   291   190   211    2
   292   190   210    1
   293   597   595    1
   294   597   598    1
   295   156   151    1
   296   156   167    1
   297   336   335   ar
   298   336   329   ar
   299   603   613    1
   300   603   598    1
   301   604   609   ar
   302   231   230   ar
   303   335   333   ar
   304   150   151    1
   305   150   148    1
   306   607   613   ar
   307   607   608   ar
   308   157   163   ar
   309   595   596    1
   310   613   612   ar
   311   161   167   ar
   312   161   162   ar
   313   328   329    1
   314   328   326    1
   315   609   608   ar
   316   609   610    1
   317   329   330   ar
   318   167   166   ar
   319   324   325    1
   320   324   326    1
   321   608   611   ar
   322     3     4    1
   323     3     5    1
   324    37    18    2
   325    36    18    1
   326   612   611   ar
   327   333   334    1
   328   333   332   ar
   329   148   149    1
   330   325   339    1
   331   596   594    1
   332     6    18    1
   333     6     5    1
   334   163   162   ar
   335   163   164    2
   336   162   165   ar
   337    18    20    1
   338   326   327    1
   339     4     9    1
   340     5     7    1
   341   330   332   ar
   342   330   331    2
   343   358   339    2
   344   166   165   ar
   345   614   594    2
   346   149   147    1
   347   339   357    1
   348   339   341    1
   349    17    16   ar
   350    17    10   ar
   351   139   138    2
   352   594   615    1
   353   594   578    1
   354    16    14   ar
   355   583   582   ar
   356   583   584   ar
   357   582   587   ar
   358   140   138   ar
   359   140   141   ar
   360     9     7    1
   361     9    10    1
   362    20    19    1
   363     7     8    1
   364   138   137   ar
   365   584   585   ar
   366   580   579    1
   367    10    11   ar
   368   101   100    2
   369   142   141    1
   370   135   134    1
   371   587   588    1
   372   587   586   ar
   373   341   340    1
   374   134   136    1
   375   134   132    1
   376   141   143   ar
   377   168   147    2
   378   578   577    1
   379   147   133    1
   380   147   169    1
   381   355   356   ar
   382   355   353   ar
   383   585   586   ar
   384   585   591   ar
   385   354   353    1
   386    19    21    1
   387    14    15    1
   388    14    13   ar
   389   586   589   ar
   390   340   342    1
   391   133   132    1
   392    94   100   ar
   393    94    95   ar
   394   137   136    1
   395   137   144   ar
   396   100    99   ar
   397    34    35   ar
   398    34    32   ar
   399   581   591    1
   400   581   579    1
   401   581   576    1
   402   591   590   ar
   403   356   349   ar
   404   353   352   ar
   405   122   121    2
   406   579   577    1
   407   136   131    1
   408   132   130    1
   409    11    13   ar
   410    11    12    2
   411    35    28   ar
   412   589   590   ar
   413   143   144   ar
   414   577   575    1
   415    60    38    2
   416    78    77    2
   417    96    95    1
   418    33    32    2
   419   343   342    1
   420   343   348    1
   421    95    97   ar
   422    32    31   ar
   423    21    22    1
   424    21    23    1
   425   342   344    1
   426   576   575    1
   427    99   102   ar
   428    99    98   ar
   429   121   120   ar
   430   121   123   ar
   431    22    27    1
   432   352   350   ar
   433   349   350   ar
   434   349   348    1
   435    23    24    1
   436    23    25    1
   437   131   130    1
   438   575   573    1
   439   130   128    1
   440   102   103   ar
   441   120   118   ar
   442    28    27    1
   443    28    29   ar
   444    38    24    1
   445    38    59    1
   446    38    40    1
   447    77    71   ar
   448    77    76   ar
   449   350   351    2
   450   348   346    1
   451   123   124   ar
   452    97    98   ar
   453    98   104   ar
   454   344   345    1
   455   344   346    1
   456    55    54    2
   457    27    25    1
   458    31    29   ar
   459    79    76   ar
   460    79    80   ar
   461   374   373    1
   462    71    72   ar
   463   378   359    2
   464    76    75   ar
   465   129   128    1
   466   129   127    1
   467    56    57   ar
   468    56    53   ar
   469   395   394    1
   470    29    30    2
   471    25    26    1
   472   561   560   ar
   473   561   562   ar
   474   103   104   ar
   475   345   359    1
   476   560   565   ar
   477   418   417    2
   478   118   119    2
   479   118   117   ar
   480   573   574    1
   481   346   347    1
   482    40    39    1
   483   375   373   ar
   484   375   376   ar
   485   104    93    1
   486   124   117   ar
   487    54    53   ar
   488    54    48   ar
   489   574   572    1
   490   126   107    2
   491   373   372   ar
   492    80    81   ar
   493    57    58   ar
   494   562   563   ar
   495    53    52   ar
   496   411   417   ar
   497   411   412   ar
   498   359   377    1
   499   359   361    1
   500   117   116    1
   501    72    73    1
   502    72    74   ar
   503    83    61    2
   504   146   127    2
   505   417   416   ar
   506    75    81   ar
   507    75    74   ar
   508   565   566    1
   509   565   564   ar
   510   127   145    1
   511   127   113    1
   512   413   412    1
   513   394   389   ar
   514   394   393   ar
   515   376   369   ar
   516   106    84    2
   517   389   390   ar
   518    48    49   ar
   519    91    93    1
   520    91    89    1
   521    91    92    1
   522    39    41    1
   523   372   370   ar
   524    81    70    1
   525    93    88    1
   526   558   557    1
   527   412   414   ar
   528   563   564   ar
   529   563   569   ar
   530   114   112    1
   531   114   116    1
   532   114   115    1
   533   107   109    1
   534   107   125    1
   535   107    90    1
   536   361   360    1
   537   572   593    2
   538   572   592    1
   539   572   556    1
   540   109   108    1
   541   112   113    1
   542   112   110    1
   543    58    52   ar
   544    58    47    1
   545   564   567   ar
   546    52    51   ar
   547   557   559    1
   548   557   555    1
   549   116   111    1
   550   393   396   ar
   551   393   392   ar
   552    89    90    1
   553    89    87    1
   554   396   397   ar
   555    43    41    1
   556    43    44    1
   557    43    45    1
   558    61    44    1
   559    61    82    1
   560    61    63    1
   561   416   419   ar
   562   416   415   ar
   563   369   370   ar
   564   369   368    1
   565    86    84    1
   566    86    85    1
   567   370   371    2
   568   569   559    1
   569   569   568   ar
   570    41    42    1
   571    88    87    1
   572   390   391   ar
   573   439   438    2
   574    42    47    1
   575    84    67    1
   576    84   105    1
   577   544   543    1
   578   559   554    1
   579    49    51   ar
   580    49    50    1
   581    62    63    1
   582    62    64    1
   583   111   110    1
   584   556   555    1
   585    66    68    1
   586    66    64    1
   587    66    67    1
   588   414   415   ar
   589    70    65    1
   590    70    68    1
   591   360   362    1
   592   538   543   ar
   593   538   539   ar
   594    47    45    1
   595   567   568   ar
   596   110   108    1
   597   555   553    1
   598    65    64    1
   599   419   420   ar
   600   363   368    1
   601   363   362    1
   602    45    46    1
   603    87    85    1
   604    68    69    1
   605   415   421   ar
   606   392   391   ar
   607   392   398   ar
   608   543   542   ar
   609   397   398   ar
   610   368   366    1
   611   438   437   ar
   612   438   440   ar
   613   474   475   ar
   614   474   479   ar
   615   475   476   ar
   616   539   540   ar
   617   437   435   ar
   618   362   364    1
   619   400   379    2
   620   554   553    1
   621   398   388    1
   622   553   551    1
   623   364   366    1
   624   364   365    1
   625   420   421   ar
   626   480   479    1
   627   479   478   ar
   628   421   410    1
   629   476   477   ar
   630   542   541   ar
   631   542   545   ar
   632   366   367    1
   633   440   441   ar
   634   435   436    2
   635   435   434   ar
   636   540   541   ar
   637   541   547   ar
   638   545   546   ar
   639   552   551    1
   640   552   550    1
   641   379   365    1
   642   379   381    1
   643   379   399    1
   644   477   478   ar
   645   477   483   ar
   646   478   481   ar
   647   388   383    1
   648   388   386    1
   649   410   405    1
   650   410   408    1
   651   441   434   ar
   652   434   433    1
   653   381   380    1
   654   571   550    2
   655   383   382    1
   656   472   471    1
   657   409   408    1
   658   546   547   ar
   659   507   486    2
   660   547   537    1
   661   483   473    1
   662   483   482   ar
   663   481   482   ar
   664   550   570    1
   665   550   534    1
   666   471   473    1
   667   471   469    1
   668   386   384    1
   669   386   387    1
   670   405   404    1
   671   473   468    1
   672   408   406    1
   673   523   522    1
   674   535   533    1
   675   535   537    1
   676   535   536    1
   677   423   401    2
   678   384   382    1
   679   384   385    1
   680   433   428    1
   681   433   431    1
   682   380   382    1
   683   533   534    1
   684   533   531    1
   685   537   532    1
   686   428   427    1
   687   486   506    1
   688   486   470    1
   689   486   488    1
   690   469   470    1
   691   469   467    1
   692   403   401    1
   693   403   402    1
   694   522   524   ar
   695   522   521   ar
   696   407   406    1
   697   407   424    1
   698   404   406    1
   699   404   402    1
   700   468   467    1
   701   401   385    1
   702   401   422    1
   703   502   501    1
   704   432   431    1
   705   431   429    1
   706   524   525   ar
   707   532   531    1
   708   503   504   ar
   709   503   500   ar
   710   531   529    1
   711   521   519   ar
   712   488   487    1
   713   467   465    1
   714   527   508    2
   715   427   425    1
   716   427   429    1
   717   529   530    1
   718   504   505   ar
   719   426   425    1
   720   426   424    1
   721   501   500   ar
   722   501   496   ar
   723   443   424    2
   724   424   442    1
   725   530   528    1
   726   500   499   ar
   727   525   518   ar
   728   429   430    1
   729   430   444    1
   730   466   465    1
   731   466   464    1
   732   519   518   ar
   733   519   520    2
   734   549   528    2
   735   487   489    1
   736   518   517    1
   737   508   510    1
   738   508   526    1
   739   508   492    1
   740   496   497   ar
   741   528   548    1
   742   528   514    1
   743   505   499   ar
   744   505   495    1
   745   510   509    1
   746   485   464    2
   747   499   498   ar
   748   491   489    1
   749   491   492    1
   750   491   493    1
   751   463   444    2
   752   464   484    1
   753   464   450    1
   754   489   490    1
   755   444   462    1
   756   444   446    1
   757   490   495    1
   758   513   515    1
   759   513   514    1
   760   513   511    1
   761   445   446    1
   762   445   447    1
   763   497   498   ar
   764   515   517    1
   765   515   516    1
   766   495   493    1
   767   517   512    1
   768   493   494    1
   769   509   511    1
   770   512   511    1
   771   449   450    1
   772   449   447    1
   773   449   451    1
   774   447   448    1
   775   451   452    1
   776   451   453    1
   777   448   453    1
   778   453   454    1
   779   461   454   ar
   780   461   460   ar
   781   454   455   ar
   782   460   458   ar
   783   455   456    2
   784   455   457   ar
   785   458   457   ar
   786   458   459    2
