ligand
 OpenBabel11021811463D
libRbt.so/2013.1/901 2013/11/27
 16 16  0  0  0  0  0  0  0  0999 V2000
   49.8508   12.0105   11.9139 P   0  0  2  0  0  0  0  0  0  0  0  0
   50.5372   13.1988   12.4778 O   0  0  0  0  0  0  0  0  0  0  0  0
   50.6281   10.6648   12.3332 O   0  5  0  0  0  0  0  0  0  0  0  0
   49.8422   12.1188   10.2976 O   0  0  0  0  0  0  0  0  0  0  0  0
   44.9829   10.7829   14.6791 C   0  0  2  0  0  0  0  0  0  0  0  0
   44.4070    9.4910   14.4364 O   0  0  0  0  0  0  0  0  0  0  0  0
   44.1025   11.9208   14.0896 C   0  0  2  0  0  0  0  0  0  0  0  0
   42.7449   11.8572   14.6743 N   0  0  0  0  0  0  0  0  0  0  0  0
   44.0295   11.7436   12.5582 C   0  0  1  0  0  0  0  0  0  0  0  0
   43.2371   12.7924   11.9738 O   0  0  0  0  0  0  0  0  0  0  0  0
   45.4599   11.8057   12.0027 C   0  0  2  0  0  0  0  0  0  0  0  0
   45.4287   11.6287   10.5795 O   0  0  0  0  0  0  0  0  0  0  0  0
   46.2877   10.6673   12.6554 C   0  0  2  0  0  0  0  0  0  0  0  0
   46.3189   10.8321   14.1025 O   0  0  0  0  0  0  0  0  0  0  0  0
   47.7317   10.7131   12.1259 C   0  0  0  0  0  0  0  0  0  0  0  0
   48.3466   11.9591   12.5011 O   0  0  0  0  0  0  0  0  0  0  0  0
  1  2  1  1  0  0  0
  1  3  1  0  0  0  0
  1  4  2  0  0  0  0
  1 16  1  0  0  0  0
  5  6  1  6  0  0  0
  5  7  1  0  0  0  0
  5 14  1  0  0  0  0
  7  8  1  1  0  0  0
  7  9  1  0  0  0  0
  9 10  1  6  0  0  0
  9 11  1  0  0  0  0
 11 12  1  6  0  0  0
 11 13  1  0  0  0  0
 13 14  1  0  0  0  0
 13 15  1  6  0  0  0
 15 16  1  0  0  0  0
M  CHG  1   3  -1
M  END
>  <CHROM.1>
62.46933883,-178.80583615,-171.52593300,46.80531324,11.55235228,12.62557004
-0.28483217,-0.07102743,2.09573437

>  <Name>
ligand

>  <RI>
0

>  <Rbt.Current_Directory>
/home/itssahil/PROJECTS/Mol_Feturizer/New_Systems/rnas/3B4B

>  <Rbt.Executable>
rbdock ($Id: //depot/dev/client3/rdock/2013.1/src/exe/rbdock.cxx#4 $)

>  <Rbt.Library>
libRbt.so (2013.1, Build901 2013/11/27)

>  <Rbt.Parameter_File>
/export/apps/rDock/src/rDock_2013.1_src/data/scripts/dock_solv.prm

>  <Rbt.Receptor>
prm/pocket_docking_2.prm

>  <SCORE>
-10.3072

>  <SCORE.INTER>
-8.86461

>  <SCORE.INTER.CONST>
1

>  <SCORE.INTER.POLAR>
-1.125

>  <SCORE.INTER.ROT>
3

>  <SCORE.INTER.SOLV>
17.5743

>  <SCORE.INTER.VDW>
-13.6178

>  <SCORE.INTER.norm>
-0.554038

>  <SCORE.INTRA>
-1.4426

>  <SCORE.INTRA.DIHEDRAL>
-2.07012

>  <SCORE.INTRA.DIHEDRAL.0>
2.21864

>  <SCORE.INTRA.POLAR>
0

>  <SCORE.INTRA.POLAR.0>
0

>  <SCORE.INTRA.REPUL>
0

>  <SCORE.INTRA.REPUL.0>
0

>  <SCORE.INTRA.SOLV>
-0.267639

>  <SCORE.INTRA.SOLV.lig_0>
-58.5963

>  <SCORE.INTRA.VDW>
-0.27372

>  <SCORE.INTRA.VDW.0>
-0.437849

>  <SCORE.INTRA.norm>
-0.0901626

>  <SCORE.RESTR>
0

>  <SCORE.RESTR.CAVITY>
0

>  <SCORE.RESTR.norm>
0

>  <SCORE.SYSTEM>
0

>  <SCORE.SYSTEM.CONST>
0

>  <SCORE.SYSTEM.DIHEDRAL>
0

>  <SCORE.SYSTEM.SOLV>
0

>  <SCORE.SYSTEM.norm>
0

>  <SCORE.heavy>
16

>  <SCORE.norm>
-0.6442

>  <RMSD>
0.502

$$$$
ligand
 OpenBabel11021811463D
libRbt.so/2013.1/901 2013/11/27
 16 16  0  0  0  0  0  0  0  0999 V2000
   49.7877   12.0133   11.9515 P   0  0  2  0  0  0  0  0  0  0  0  0
   50.4905   13.1908   12.5177 O   0  0  0  0  0  0  0  0  0  0  0  0
   50.5687   10.6589   12.3342 O   0  5  0  0  0  0  0  0  0  0  0  0
   49.7447   12.1453   10.3375 O   0  0  0  0  0  0  0  0  0  0  0  0
   44.8679   10.8405   14.6444 C   0  0  2  0  0  0  0  0  0  0  0  0
   44.2587    9.5723   14.3612 O   0  0  0  0  0  0  0  0  0  0  0  0
   44.0236   12.0184   14.0810 C   0  0  2  0  0  0  0  0  0  0  0  0
   42.6601   11.9760   14.6540 N   0  0  0  0  0  0  0  0  0  0  0  0
   43.9579   11.8863   12.5447 C   0  0  1  0  0  0  0  0  0  0  0  0
   43.1992   12.9725   11.9846 O   0  0  0  0  0  0  0  0  0  0  0  0
   45.3938   11.9245   12.0014 C   0  0  2  0  0  0  0  0  0  0  0  0
   45.3690   11.7883   10.5736 O   0  0  0  0  0  0  0  0  0  0  0  0
   46.1849   10.7458   12.6277 C   0  0  2  0  0  0  0  0  0  0  0  0
   46.2092   10.8690   14.0790 O   0  0  0  0  0  0  0  0  0  0  0  0
   47.6337   10.7665   12.1100 C   0  0  0  0  0  0  0  0  0  0  0  0
   48.2962   11.9584   12.5702 O   0  0  0  0  0  0  0  0  0  0  0  0
  1  2  1  1  0  0  0
  1  3  1  0  0  0  0
  1  4  2  0  0  0  0
  1 16  1  0  0  0  0
  5  6  1  6  0  0  0
  5  7  1  0  0  0  0
  5 14  1  0  0  0  0
  7  8  1  1  0  0  0
  7  9  1  0  0  0  0
  9 10  1  6  0  0  0
  9 11  1  0  0  0  0
 11 12  1  6  0  0  0
 11 13  1  0  0  0  0
 13 14  1  0  0  0  0
 13 15  1  6  0  0  0
 15 16  1  0  0  0  0
M  CHG  1   3  -1
M  END
>  <CHROM.1>
64.79087904,-176.74052778,-175.70437023,46.72626299,11.61767444,12.62729516
-0.26420620,-0.09000036,2.12472728

>  <Name>
ligand

>  <RI>
0

>  <Rbt.Current_Directory>
/home/itssahil/PROJECTS/Mol_Feturizer/New_Systems/rnas/3B4B

>  <Rbt.Executable>
rbdock ($Id: //depot/dev/client3/rdock/2013.1/src/exe/rbdock.cxx#4 $)

>  <Rbt.Library>
libRbt.so (2013.1, Build901 2013/11/27)

>  <Rbt.Parameter_File>
/export/apps/rDock/src/rDock_2013.1_src/data/scripts/dock_solv.prm

>  <Rbt.Receptor>
prm/pocket_docking_3.prm

>  <SCORE>
-10.2971

>  <SCORE.INTER>
-8.81966

>  <SCORE.INTER.CONST>
1

>  <SCORE.INTER.POLAR>
-1.12177

>  <SCORE.INTER.ROT>
3

>  <SCORE.INTER.SOLV>
17.3457

>  <SCORE.INTER.VDW>
-13.5225

>  <SCORE.INTER.norm>
-0.551229

>  <SCORE.INTRA>
-1.47746

>  <SCORE.INTRA.DIHEDRAL>
-2.05105

>  <SCORE.INTRA.DIHEDRAL.0>
2.21864

>  <SCORE.INTRA.POLAR>
0

>  <SCORE.INTRA.POLAR.0>
0

>  <SCORE.INTRA.REPUL>
0

>  <SCORE.INTRA.REPUL.0>
0

>  <SCORE.INTRA.SOLV>
-0.234964

>  <SCORE.INTRA.SOLV.lig_0>
-58.5963

>  <SCORE.INTRA.VDW>
-0.334451

>  <SCORE.INTRA.VDW.0>
-0.437849

>  <SCORE.INTRA.norm>
-0.0923411

>  <SCORE.RESTR>
0

>  <SCORE.RESTR.CAVITY>
0

>  <SCORE.RESTR.norm>
0

>  <SCORE.SYSTEM>
0

>  <SCORE.SYSTEM.CONST>
0

>  <SCORE.SYSTEM.DIHEDRAL>
0

>  <SCORE.SYSTEM.SOLV>
0

>  <SCORE.SYSTEM.norm>
0

>  <SCORE.heavy>
16

>  <SCORE.norm>
-0.64357

>  <RMSD>
0.510

$$$$
ligand
 OpenBabel11021811463D
libRbt.so/2013.1/901 2013/11/27
 16 16  0  0  0  0  0  0  0  0999 V2000
   49.7793   12.0550   11.8911 P   0  0  2  0  0  0  0  0  0  0  0  0
   50.4828   13.2280   12.4657 O   0  0  0  0  0  0  0  0  0  0  0  0
   50.5609   10.6976   12.2622 O   0  5  0  0  0  0  0  0  0  0  0  0
   49.7344   12.1997   10.2782 O   0  0  0  0  0  0  0  0  0  0  0  0
   44.9080   10.8565   14.6483 C   0  0  2  0  0  0  0  0  0  0  0  0
   44.3200    9.5713   14.3985 O   0  0  0  0  0  0  0  0  0  0  0  0
   44.0338   12.0063   14.0727 C   0  0  2  0  0  0  0  0  0  0  0  0
   42.6789   11.9493   14.6644 N   0  0  0  0  0  0  0  0  0  0  0  0
   43.9509   11.8420   12.5404 C   0  0  1  0  0  0  0  0  0  0  0  0
   43.1640   12.9018   11.9688 O   0  0  0  0  0  0  0  0  0  0  0  0
   45.3786   11.8966   11.9774 C   0  0  2  0  0  0  0  0  0  0  0  0
   45.3381   11.7312   10.5530 O   0  0  0  0  0  0  0  0  0  0  0  0
   46.2006   10.7462   12.6165 C   0  0  2  0  0  0  0  0  0  0  0  0
   46.2411   10.8992   14.0646 O   0  0  0  0  0  0  0  0  0  0  0  0
   47.6419   10.7842   12.0793 C   0  0  0  0  0  0  0  0  0  0  0  0
   48.2886   11.9953   12.5111 O   0  0  0  0  0  0  0  0  0  0  0  0
  1  2  1  1  0  0  0
  1  3  1  0  0  0  0
  1  4  2  0  0  0  0
  1 16  1  0  0  0  0
  5  6  1  6  0  0  0
  5  7  1  0  0  0  0
  5 14  1  0  0  0  0
  7  8  1  1  0  0  0
  7  9  1  0  0  0  0
  9 10  1  6  0  0  0
  9 11  1  0  0  0  0
 11 12  1  6  0  0  0
 11 13  1  0  0  0  0
 13 14  1  0  0  0  0
 13 15  1  6  0  0  0
 15 16  1  0  0  0  0
M  CHG  1   3  -1
M  END
>  <CHROM.1>
65.01303647,-177.64400510,-173.74925959,46.72860941,11.62315624,12.60023257
-0.28021198,-0.07941007,2.10081082

>  <Name>
ligand

>  <RI>
0

>  <Rbt.Current_Directory>
/home/itssahil/PROJECTS/Mol_Feturizer/New_Systems/rnas/3B4B

>  <Rbt.Executable>
rbdock ($Id: //depot/dev/client3/rdock/2013.1/src/exe/rbdock.cxx#4 $)

>  <Rbt.Library>
libRbt.so (2013.1, Build901 2013/11/27)

>  <Rbt.Parameter_File>
/export/apps/rDock/src/rDock_2013.1_src/data/scripts/dock_solv.prm

>  <Rbt.Receptor>
prm/pocket_docking_8.prm

>  <SCORE>
-10.354

>  <SCORE.INTER>
-8.89465

>  <SCORE.INTER.CONST>
1

>  <SCORE.INTER.POLAR>
-1.125

>  <SCORE.INTER.ROT>
3

>  <SCORE.INTER.SOLV>
17.2296

>  <SCORE.INTER.VDW>
-13.523

>  <SCORE.INTER.norm>
-0.555915

>  <SCORE.INTRA>
-1.45933

>  <SCORE.INTRA.DIHEDRAL>
-2.03415

>  <SCORE.INTRA.DIHEDRAL.0>
2.21864

>  <SCORE.INTRA.POLAR>
0

>  <SCORE.INTRA.POLAR.0>
0

>  <SCORE.INTRA.REPUL>
0

>  <SCORE.INTRA.REPUL.0>
0

>  <SCORE.INTRA.SOLV>
-0.259672

>  <SCORE.INTRA.SOLV.lig_0>
-58.5963

>  <SCORE.INTRA.VDW>
-0.312415

>  <SCORE.INTRA.VDW.0>
-0.437849

>  <SCORE.INTRA.norm>
-0.091208

>  <SCORE.RESTR>
0

>  <SCORE.RESTR.CAVITY>
0

>  <SCORE.RESTR.norm>
0

>  <SCORE.SYSTEM>
0

>  <SCORE.SYSTEM.CONST>
0

>  <SCORE.SYSTEM.DIHEDRAL>
0

>  <SCORE.SYSTEM.SOLV>
0

>  <SCORE.SYSTEM.norm>
0

>  <SCORE.heavy>
16

>  <SCORE.norm>
-0.647124

>  <RMSD>
0.519

$$$$
ligand
 OpenBabel11021811463D
libRbt.so/2013.1/901 2013/11/27
 16 16  0  0  0  0  0  0  0  0999 V2000
   49.8392   12.0052   11.8707 P   0  0  2  0  0  0  0  0  0  0  0  0
   50.5332   13.2066   12.3961 O   0  0  0  0  0  0  0  0  0  0  0  0
   50.6145   10.6692   12.3235 O   0  5  0  0  0  0  0  0  0  0  0  0
   49.8208   12.0672   10.2520 O   0  0  0  0  0  0  0  0  0  0  0  0
   44.9929   10.8533   14.7337 C   0  0  2  0  0  0  0  0  0  0  0  0
   44.4096    9.5586   14.5260 O   0  0  0  0  0  0  0  0  0  0  0  0
   44.1170   11.9802   14.1169 C   0  0  2  0  0  0  0  0  0  0  0  0
   42.7605   11.9390   14.7063 N   0  0  0  0  0  0  0  0  0  0  0  0
   44.0392   11.7637   12.5908 C   0  0  1  0  0  0  0  0  0  0  0  0
   43.2508   12.8010   11.9812 O   0  0  0  0  0  0  0  0  0  0  0  0
   45.4685   11.8037   12.0305 C   0  0  2  0  0  0  0  0  0  0  0  0
   45.4328   11.5899   10.6124 O   0  0  0  0  0  0  0  0  0  0  0  0
   46.2920   10.6782   12.7106 C   0  0  2  0  0  0  0  0  0  0  0  0
   46.3277   10.8804   14.1528 O   0  0  0  0  0  0  0  0  0  0  0  0
   47.7348   10.7025   12.1766 C   0  0  0  0  0  0  0  0  0  0  0  0
   48.3385   11.9760   12.4684 O   0  0  0  0  0  0  0  0  0  0  0  0
  1  2  1  1  0  0  0
  1  3  1  0  0  0  0
  1  4  2  0  0  0  0
  1 16  1  0  0  0  0
  5  6  1  6  0  0  0
  5  7  1  0  0  0  0
  5 14  1  0  0  0  0
  7  8  1  1  0  0  0
  7  9  1  0  0  0  0
  9 10  1  6  0  0  0
  9 11  1  0  0  0  0
 11 12  1  6  0  0  0
 11 13  1  0  0  0  0
 13 14  1  0  0  0  0
 13 15  1  6  0  0  0
 15 16  1  0  0  0  0
M  CHG  1   3  -1
M  END
>  <CHROM.1>
60.06117856,-178.55636970,-169.37240897,46.80621712,11.56788117,12.63571543
-0.29594138,-0.08018178,2.07582719

>  <Name>
ligand

>  <RI>
0

>  <Rbt.Current_Directory>
/home/itssahil/PROJECTS/Mol_Feturizer/New_Systems/rnas/3B4B

>  <Rbt.Executable>
rbdock ($Id: //depot/dev/client3/rdock/2013.1/src/exe/rbdock.cxx#4 $)

>  <Rbt.Library>
libRbt.so (2013.1, Build901 2013/11/27)

>  <Rbt.Parameter_File>
/export/apps/rDock/src/rDock_2013.1_src/data/scripts/dock_solv.prm

>  <Rbt.Receptor>
prm/pocket_docking_3.prm

>  <SCORE>
-10.3365

>  <SCORE.INTER>
-8.96223

>  <SCORE.INTER.CONST>
1

>  <SCORE.INTER.POLAR>
-1.125

>  <SCORE.INTER.ROT>
3

>  <SCORE.INTER.SOLV>
17.8211

>  <SCORE.INTER.VDW>
-13.7652

>  <SCORE.INTER.norm>
-0.560139

>  <SCORE.INTRA>
-1.37426

>  <SCORE.INTRA.DIHEDRAL>
-2.02386

>  <SCORE.INTRA.DIHEDRAL.0>
2.21864

>  <SCORE.INTRA.POLAR>
0

>  <SCORE.INTRA.POLAR.0>
0

>  <SCORE.INTRA.REPUL>
0

>  <SCORE.INTRA.REPUL.0>
0

>  <SCORE.INTRA.SOLV>
-0.267735

>  <SCORE.INTRA.SOLV.lig_0>
-58.5963

>  <SCORE.INTRA.VDW>
-0.228467

>  <SCORE.INTRA.VDW.0>
-0.437849

>  <SCORE.INTRA.norm>
-0.0858914

>  <SCORE.RESTR>
0

>  <SCORE.RESTR.CAVITY>
0

>  <SCORE.RESTR.norm>
0

>  <SCORE.SYSTEM>
0

>  <SCORE.SYSTEM.CONST>
0

>  <SCORE.SYSTEM.DIHEDRAL>
0

>  <SCORE.SYSTEM.SOLV>
0

>  <SCORE.SYSTEM.norm>
0

>  <SCORE.heavy>
16

>  <SCORE.norm>
-0.646031

>  <RMSD>
0.526

$$$$
ligand
 OpenBabel11021811463D
libRbt.so/2013.1/901 2013/11/27
 16 16  0  0  0  0  0  0  0  0999 V2000
   49.8473   12.0187   11.9190 P   0  0  2  0  0  0  0  0  0  0  0  0
   50.4804   13.2733   12.3947 O   0  0  0  0  0  0  0  0  0  0  0  0
   50.8338   10.7694   12.1578 O   0  5  0  0  0  0  0  0  0  0  0  0
   49.5476   12.1431   10.3319 O   0  0  0  0  0  0  0  0  0  0  0  0
   44.8532   10.4382   14.5485 C   0  0  2  0  0  0  0  0  0  0  0  0
   44.1584    9.3352   13.9483 O   0  0  0  0  0  0  0  0  0  0  0  0
   44.1792   11.7955   14.2006 C   0  0  2  0  0  0  0  0  0  0  0  0
   42.7696   11.7841   14.6502 N   0  0  0  0  0  0  0  0  0  0  0  0
   44.2470   12.0015   12.6726 C   0  0  1  0  0  0  0  0  0  0  0  0
   43.6489   13.2595   12.3137 O   0  0  0  0  0  0  0  0  0  0  0  0
   45.7251   11.9943   12.2561 C   0  0  2  0  0  0  0  0  0  0  0  0
   45.8230   12.1688   10.8355 O   0  0  0  0  0  0  0  0  0  0  0  0
   46.3406   10.6288   12.6610 C   0  0  2  0  0  0  0  0  0  0  0  0
   46.2389   10.4368   14.1015 O   0  0  0  0  0  0  0  0  0  0  0  0
   47.8275   10.5978   12.2665 C   0  0  0  0  0  0  0  0  0  0  0  0
   48.4828   11.7838   12.7517 O   0  0  0  0  0  0  0  0  0  0  0  0
  1  2  1  1  0  0  0
  1  3  1  0  0  0  0
  1  4  2  0  0  0  0
  1 16  1  0  0  0  0
  5  6  1  6  0  0  0
  5  7  1  0  0  0  0
  5 14  1  0  0  0  0
  7  8  1  6  0  0  0
  7  9  1  0  0  0  0
  9 10  1  1  0  0  0
  9 11  1  0  0  0  0
 11 12  1  6  0  0  0
 11 13  1  0  0  0  0
 13 14  1  0  0  0  0
 13 15  1  1  0  0  0
 15 16  1  0  0  0  0
M  CHG  1   3  -1
M  END
>  <CHROM.1>
50.10046197,-159.80671061,177.74872578,46.86619430,11.57042466,12.65939715
0.26991699,0.16746998,-0.72078516

>  <Name>
ligand

>  <RI>
0

>  <Rbt.Current_Directory>
/home/itssahil/PROJECTS/Mol_Feturizer/New_Systems/rnas/3B4B

>  <Rbt.Executable>
rbdock ($Id: //depot/dev/client3/rdock/2013.1/src/exe/rbdock.cxx#4 $)

>  <Rbt.Library>
libRbt.so (2013.1, Build901 2013/11/27)

>  <Rbt.Parameter_File>
/export/apps/rDock/src/rDock_2013.1_src/data/scripts/dock_solv.prm

>  <Rbt.Receptor>
prm/pocket_docking_2.prm

>  <SCORE>
-9.09219

>  <SCORE.INTER>
-9.01434

>  <SCORE.INTER.CONST>
1

>  <SCORE.INTER.POLAR>
-1.12083

>  <SCORE.INTER.ROT>
3

>  <SCORE.INTER.SOLV>
17.7133

>  <SCORE.INTER.VDW>
-13.7779

>  <SCORE.INTER.norm>
-0.563396

>  <SCORE.INTRA>
-0.0778472

>  <SCORE.INTRA.DIHEDRAL>
-0.0334418

>  <SCORE.INTRA.DIHEDRAL.0>
2.21864

>  <SCORE.INTRA.POLAR>
0

>  <SCORE.INTRA.POLAR.0>
0

>  <SCORE.INTRA.REPUL>
0

>  <SCORE.INTRA.REPUL.0>
0

>  <SCORE.INTRA.SOLV>
0.567586

>  <SCORE.INTRA.SOLV.lig_0>
-58.5963

>  <SCORE.INTRA.VDW>
-0.344919

>  <SCORE.INTRA.VDW.0>
-0.437849

>  <SCORE.INTRA.norm>
-0.00486545

>  <SCORE.RESTR>
0

>  <SCORE.RESTR.CAVITY>
0

>  <SCORE.RESTR.norm>
0

>  <SCORE.SYSTEM>
0

>  <SCORE.SYSTEM.CONST>
0

>  <SCORE.SYSTEM.DIHEDRAL>
0

>  <SCORE.SYSTEM.SOLV>
0

>  <SCORE.SYSTEM.norm>
0

>  <SCORE.heavy>
16

>  <SCORE.norm>
-0.568262

>  <RMSD>
0.528

$$$$
ligand
 OpenBabel11021811463D
libRbt.so/2013.1/901 2013/11/27
 16 16  0  0  0  0  0  0  0  0999 V2000
   49.8009   11.9825   11.8907 P   0  0  2  0  0  0  0  0  0  0  0  0
   50.4996   13.1914   12.3920 O   0  0  0  0  0  0  0  0  0  0  0  0
   50.5883   10.6536   12.3437 O   0  5  0  0  0  0  0  0  0  0  0  0
   49.7548   12.0280   10.2720 O   0  0  0  0  0  0  0  0  0  0  0  0
   44.9619   10.8776   14.7341 C   0  0  2  0  0  0  0  0  0  0  0  0
   44.3665    9.5886   14.5253 O   0  0  0  0  0  0  0  0  0  0  0  0
   44.0821   12.0157   14.1440 C   0  0  2  0  0  0  0  0  0  0  0  0
   42.7364   11.9776   14.7579 N   0  0  0  0  0  0  0  0  0  0  0  0
   43.9748   11.8140   12.6177 C   0  0  1  0  0  0  0  0  0  0  0  0
   43.1820   12.8619   12.0324 O   0  0  0  0  0  0  0  0  0  0  0  0
   45.3937   11.8502   12.0314 C   0  0  2  0  0  0  0  0  0  0  0  0
   45.3305   11.6499   10.6123 O   0  0  0  0  0  0  0  0  0  0  0  0
   46.2223   10.7133   12.6858 C   0  0  2  0  0  0  0  0  0  0  0  0
   46.2859   10.9018   14.1289 O   0  0  0  0  0  0  0  0  0  0  0  0
   47.6552   10.7336   12.1255 C   0  0  0  0  0  0  0  0  0  0  0  0
   48.3107   11.9545   12.5141 O   0  0  0  0  0  0  0  0  0  0  0  0
  1  2  1  1  0  0  0
  1  3  1  0  0  0  0
  1  4  2  0  0  0  0
  1 16  1  0  0  0  0
  5  6  1  6  0  0  0
  5  7  1  0  0  0  0
  5 14  1  0  0  0  0
  7  8  1  1  0  0  0
  7  9  1  0  0  0  0
  9 10  1  6  0  0  0
  9 11  1  0  0  0  0
 11 12  1  6  0  0  0
 11 13  1  0  0  0  0
 13 14  1  0  0  0  0
 13 15  1  6  0  0  0
 15 16  1  0  0  0  0
M  CHG  1   3  -1
M  END
>  <CHROM.1>
64.85538169,-178.61050147,-175.38896171,46.75556613,11.58399322,12.64665384
-0.28815559,-0.08875399,2.07227218

>  <Name>
ligand

>  <RI>
0

>  <Rbt.Current_Directory>
/home/itssahil/PROJECTS/Mol_Feturizer/New_Systems/rnas/3B4B

>  <Rbt.Executable>
rbdock ($Id: //depot/dev/client3/rdock/2013.1/src/exe/rbdock.cxx#4 $)

>  <Rbt.Library>
libRbt.so (2013.1, Build901 2013/11/27)

>  <Rbt.Parameter_File>
/export/apps/rDock/src/rDock_2013.1_src/data/scripts/dock_solv.prm

>  <Rbt.Receptor>
prm/pocket_docking_2.prm

>  <SCORE>
-10.3573

>  <SCORE.INTER>
-8.85395

>  <SCORE.INTER.CONST>
1

>  <SCORE.INTER.POLAR>
-1.125

>  <SCORE.INTER.ROT>
3

>  <SCORE.INTER.SOLV>
18.0399

>  <SCORE.INTER.VDW>
-13.7659

>  <SCORE.INTER.norm>
-0.553372

>  <SCORE.INTRA>
-1.50334

>  <SCORE.INTRA.DIHEDRAL>
-2.08692

>  <SCORE.INTRA.DIHEDRAL.0>
2.21864

>  <SCORE.INTRA.POLAR>
0

>  <SCORE.INTRA.POLAR.0>
0

>  <SCORE.INTRA.REPUL>
0

>  <SCORE.INTRA.REPUL.0>
0

>  <SCORE.INTRA.SOLV>
-0.266877

>  <SCORE.INTRA.SOLV.lig_0>
-58.5963

>  <SCORE.INTRA.VDW>
-0.326442

>  <SCORE.INTRA.VDW.0>
-0.437849

>  <SCORE.INTRA.norm>
-0.0939589

>  <SCORE.RESTR>
0

>  <SCORE.RESTR.CAVITY>
0

>  <SCORE.RESTR.norm>
0

>  <SCORE.SYSTEM>
0

>  <SCORE.SYSTEM.CONST>
0

>  <SCORE.SYSTEM.DIHEDRAL>
0

>  <SCORE.SYSTEM.SOLV>
0

>  <SCORE.SYSTEM.norm>
0

>  <SCORE.heavy>
16

>  <SCORE.norm>
-0.647331

>  <RMSD>
0.533

$$$$
ligand
 OpenBabel11021811463D
libRbt.so/2013.1/901 2013/11/27
 16 16  0  0  0  0  0  0  0  0999 V2000
   49.9531   12.0029   11.9631 P   0  0  2  0  0  0  0  0  0  0  0  0
   50.6507   13.1865   12.5231 O   0  0  0  0  0  0  0  0  0  0  0  0
   50.7325   10.6530   12.3646 O   0  5  0  0  0  0  0  0  0  0  0  0
   49.9219   12.1193   10.3476 O   0  0  0  0  0  0  0  0  0  0  0  0
   45.0345   10.7732   14.6505 C   0  0  2  0  0  0  0  0  0  0  0  0
   44.4109    9.5229   14.3225 O   0  0  0  0  0  0  0  0  0  0  0  0
   44.2026   11.9800   14.1317 C   0  0  2  0  0  0  0  0  0  0  0  0
   42.8396   11.9319   14.7052 N   0  0  0  0  0  0  0  0  0  0  0  0
   44.1333   11.9045   12.5917 C   0  0  1  0  0  0  0  0  0  0  0  0
   43.3859   13.0186   12.0727 O   0  0  0  0  0  0  0  0  0  0  0  0
   45.5687   11.9464   12.0476 C   0  0  2  0  0  0  0  0  0  0  0  0
   45.5404   11.8624   10.6158 O   0  0  0  0  0  0  0  0  0  0  0  0
   46.3476   10.7371   12.6292 C   0  0  2  0  0  0  0  0  0  0  0  0
   46.3753   10.8073   14.0840 O   0  0  0  0  0  0  0  0  0  0  0  0
   47.7958   10.7605   12.1100 C   0  0  0  0  0  0  0  0  0  0  0  0
   48.4572   11.9527   12.5713 O   0  0  0  0  0  0  0  0  0  0  0  0
  1  2  1  1  0  0  0
  1  3  1  0  0  0  0
  1  4  2  0  0  0  0
  1 16  1  0  0  0  0
  5  6  1  6  0  0  0
  5  7  1  0  0  0  0
  5 14  1  0  0  0  0
  7  8  1  1  0  0  0
  7  9  1  0  0  0  0
  9 10  1  6  0  0  0
  9 11  1  0  0  0  0
 11 12  1  6  0  0  0
 11 13  1  0  0  0  0
 13 14  1  0  0  0  0
 13 15  1  6  0  0  0
 15 16  1  0  0  0  0
M  CHG  1   3  -1
M  END
>  <CHROM.1>
62.67514683,-177.30929723,-176.11288657,46.89485476,11.60767611,12.64850274
-0.26561520,-0.10187095,2.16390547

>  <Name>
ligand

>  <RI>
0

>  <Rbt.Current_Directory>
/home/itssahil/PROJECTS/Mol_Feturizer/New_Systems/rnas/3B4B

>  <Rbt.Executable>
rbdock ($Id: //depot/dev/client3/rdock/2013.1/src/exe/rbdock.cxx#4 $)

>  <Rbt.Library>
libRbt.so (2013.1, Build901 2013/11/27)

>  <Rbt.Parameter_File>
/export/apps/rDock/src/rDock_2013.1_src/data/scripts/dock_solv.prm

>  <Rbt.Receptor>
prm/pocket_docking_2.prm

>  <SCORE>
-10.33

>  <SCORE.INTER>
-8.81425

>  <SCORE.INTER.CONST>
1

>  <SCORE.INTER.POLAR>
-1.12464

>  <SCORE.INTER.ROT>
3

>  <SCORE.INTER.SOLV>
17.7116

>  <SCORE.INTER.VDW>
-13.6312

>  <SCORE.INTER.norm>
-0.550891

>  <SCORE.INTRA>
-1.51573

>  <SCORE.INTRA.DIHEDRAL>
-2.13032

>  <SCORE.INTRA.DIHEDRAL.0>
2.21864

>  <SCORE.INTRA.POLAR>
0

>  <SCORE.INTRA.POLAR.0>
0

>  <SCORE.INTRA.REPUL>
0

>  <SCORE.INTRA.REPUL.0>
0

>  <SCORE.INTRA.SOLV>
-0.240537

>  <SCORE.INTRA.SOLV.lig_0>
-58.5963

>  <SCORE.INTRA.VDW>
-0.330299

>  <SCORE.INTRA.VDW.0>
-0.437849

>  <SCORE.INTRA.norm>
-0.0947329

>  <SCORE.RESTR>
0

>  <SCORE.RESTR.CAVITY>
0

>  <SCORE.RESTR.norm>
0

>  <SCORE.SYSTEM>
0

>  <SCORE.SYSTEM.CONST>
0

>  <SCORE.SYSTEM.DIHEDRAL>
0

>  <SCORE.SYSTEM.SOLV>
0

>  <SCORE.SYSTEM.norm>
0

>  <SCORE.heavy>
16

>  <SCORE.norm>
-0.645624

>  <RMSD>
0.536

$$$$
ligand
 OpenBabel11021811463D
libRbt.so/2013.1/901 2013/11/27
 16 16  0  0  0  0  0  0  0  0999 V2000
   49.9314   12.0043   11.9561 P   0  0  2  0  0  0  0  0  0  0  0  0
   50.6300   13.1910   12.5083 O   0  0  0  0  0  0  0  0  0  0  0  0
   50.7167   10.6573   12.3559 O   0  5  0  0  0  0  0  0  0  0  0  0
   49.8891   12.1164   10.3406 O   0  0  0  0  0  0  0  0  0  0  0  0
   45.0195   10.7673   14.6614 C   0  0  2  0  0  0  0  0  0  0  0  0
   44.3900    9.5219   14.3262 O   0  0  0  0  0  0  0  0  0  0  0  0
   44.1918   11.9811   14.1525 C   0  0  2  0  0  0  0  0  0  0  0  0
   42.8296   11.9348   14.7283 N   0  0  0  0  0  0  0  0  0  0  0  0
   44.1191   11.9164   12.6122 C   0  0  1  0  0  0  0  0  0  0  0  0
   43.3754   13.0371   12.1023 O   0  0  0  0  0  0  0  0  0  0  0  0
   45.5536   11.9560   12.0656 C   0  0  2  0  0  0  0  0  0  0  0  0
   45.5223   11.8819   10.6333 O   0  0  0  0  0  0  0  0  0  0  0  0
   46.3286   10.7395   12.6374 C   0  0  2  0  0  0  0  0  0  0  0  0
   46.3594   10.7996   14.0926 O   0  0  0  0  0  0  0  0  0  0  0  0
   47.7758   10.7604   12.1155 C   0  0  0  0  0  0  0  0  0  0  0  0
   48.4398   11.9520   12.5745 O   0  0  0  0  0  0  0  0  0  0  0  0
  1  2  1  1  0  0  0
  1  3  1  0  0  0  0
  1  4  2  0  0  0  0
  1 16  1  0  0  0  0
  5  6  1  6  0  0  0
  5  7  1  0  0  0  0
  5 14  1  0  0  0  0
  7  8  1  1  0  0  0
  7  9  1  0  0  0  0
  9 10  1  6  0  0  0
  9 11  1  0  0  0  0
 11 12  1  6  0  0  0
 11 13  1  0  0  0  0
 13 14  1  0  0  0  0
 13 15  1  6  0  0  0
 15 16  1  0  0  0  0
M  CHG  1   3  -1
M  END
>  <CHROM.1>
62.20486327,-176.95758346,-176.39402400,46.87705871,11.61117695,12.65532549
-0.26850788,-0.10732184,2.17250848

>  <Name>
ligand

>  <RI>
0

>  <Rbt.Current_Directory>
/home/itssahil/PROJECTS/Mol_Feturizer/New_Systems/rnas/3B4B

>  <Rbt.Executable>
rbdock ($Id: //depot/dev/client3/rdock/2013.1/src/exe/rbdock.cxx#4 $)

>  <Rbt.Library>
libRbt.so (2013.1, Build901 2013/11/27)

>  <Rbt.Parameter_File>
/export/apps/rDock/src/rDock_2013.1_src/data/scripts/dock_solv.prm

>  <Rbt.Receptor>
prm/pocket_docking_2.prm

>  <SCORE>
-10.3096

>  <SCORE.INTER>
-8.79744

>  <SCORE.INTER.CONST>
1

>  <SCORE.INTER.POLAR>
-1.125

>  <SCORE.INTER.ROT>
3

>  <SCORE.INTER.SOLV>
17.8123

>  <SCORE.INTER.VDW>
-13.6524

>  <SCORE.INTER.norm>
-0.54984

>  <SCORE.INTRA>
-1.51218

>  <SCORE.INTRA.DIHEDRAL>
-2.13228

>  <SCORE.INTRA.DIHEDRAL.0>
2.21864

>  <SCORE.INTRA.POLAR>
0

>  <SCORE.INTRA.POLAR.0>
0

>  <SCORE.INTRA.REPUL>
0

>  <SCORE.INTRA.REPUL.0>
0

>  <SCORE.INTRA.SOLV>
-0.228609

>  <SCORE.INTRA.SOLV.lig_0>
-58.5963

>  <SCORE.INTRA.VDW>
-0.331737

>  <SCORE.INTRA.VDW.0>
-0.437849

>  <SCORE.INTRA.norm>
-0.0945112

>  <SCORE.RESTR>
0

>  <SCORE.RESTR.CAVITY>
0

>  <SCORE.RESTR.norm>
0

>  <SCORE.SYSTEM>
0

>  <SCORE.SYSTEM.CONST>
0

>  <SCORE.SYSTEM.DIHEDRAL>
0

>  <SCORE.SYSTEM.SOLV>
0

>  <SCORE.SYSTEM.norm>
0

>  <SCORE.heavy>
16

>  <SCORE.norm>
-0.644351

>  <RMSD>
0.537

$$$$
ligand
 OpenBabel11021811463D
libRbt.so/2013.1/901 2013/11/27
 16 16  0  0  0  0  0  0  0  0999 V2000
   49.9006   12.0086   11.9586 P   0  0  2  0  0  0  0  0  0  0  0  0
   50.6069   13.1843   12.5242 O   0  0  0  0  0  0  0  0  0  0  0  0
   50.6646   10.6504   12.3619 O   0  5  0  0  0  0  0  0  0  0  0  0
   49.8790   12.1278   10.3432 O   0  0  0  0  0  0  0  0  0  0  0  0
   44.9915   10.8603   14.7081 C   0  0  2  0  0  0  0  0  0  0  0  0
   44.3934    9.5795   14.4600 O   0  0  0  0  0  0  0  0  0  0  0  0
   44.1415   12.0142   14.1050 C   0  0  2  0  0  0  0  0  0  0  0  0
   42.7753   11.9785   14.6720 N   0  0  0  0  0  0  0  0  0  0  0  0
   44.0851   11.8354   12.5731 C   0  0  1  0  0  0  0  0  0  0  0  0
   43.3212   12.8984   11.9766 O   0  0  0  0  0  0  0  0  0  0  0  0
   45.5235   11.8682   12.0363 C   0  0  2  0  0  0  0  0  0  0  0  0
   45.5075   11.6889   10.6131 O   0  0  0  0  0  0  0  0  0  0  0  0
   46.3201   10.7149   12.7019 C   0  0  2  0  0  0  0  0  0  0  0  0
   46.3357   10.8820   14.1489 O   0  0  0  0  0  0  0  0  0  0  0  0
   47.7715   10.7312   12.1912 C   0  0  0  0  0  0  0  0  0  0  0  0
   48.4011   11.9720   12.5590 O   0  0  0  0  0  0  0  0  0  0  0  0
  1  2  1  1  0  0  0
  1  3  1  0  0  0  0
  1  4  2  0  0  0  0
  1 16  1  0  0  0  0
  5  6  1  6  0  0  0
  5  7  1  0  0  0  0
  5 14  1  0  0  0  0
  7  8  1  1  0  0  0
  7  9  1  0  0  0  0
  9 10  1  6  0  0  0
  9 11  1  0  0  0  0
 11 12  1  6  0  0  0
 11 13  1  0  0  0  0
 13 14  1  0  0  0  0
 13 15  1  6  0  0  0
 15 16  1  0  0  0  0
M  CHG  1   3  -1
M  END
>  <CHROM.1>
61.81302441,-177.34467472,-171.01373920,46.84868459,11.59800005,12.65986250
-0.27352277,-0.08395994,2.10071785

>  <Name>
ligand

>  <RI>
0

>  <Rbt.Current_Directory>
/home/itssahil/PROJECTS/Mol_Feturizer/New_Systems/rnas/3B4B

>  <Rbt.Executable>
rbdock ($Id: //depot/dev/client3/rdock/2013.1/src/exe/rbdock.cxx#4 $)

>  <Rbt.Library>
libRbt.so (2013.1, Build901 2013/11/27)

>  <Rbt.Parameter_File>
/export/apps/rDock/src/rDock_2013.1_src/data/scripts/dock_solv.prm

>  <Rbt.Receptor>
prm/pocket_docking_2.prm

>  <SCORE>
-10.3368

>  <SCORE.INTER>
-8.92672

>  <SCORE.INTER.CONST>
1

>  <SCORE.INTER.POLAR>
-1.125

>  <SCORE.INTER.ROT>
3

>  <SCORE.INTER.SOLV>
17.6973

>  <SCORE.INTER.VDW>
-13.7003

>  <SCORE.INTER.norm>
-0.55792

>  <SCORE.INTRA>
-1.41011

>  <SCORE.INTRA.DIHEDRAL>
-2.03833

>  <SCORE.INTRA.DIHEDRAL.0>
2.21864

>  <SCORE.INTRA.POLAR>
0

>  <SCORE.INTRA.POLAR.0>
0

>  <SCORE.INTRA.REPUL>
0

>  <SCORE.INTRA.REPUL.0>
0

>  <SCORE.INTRA.SOLV>
-0.246855

>  <SCORE.INTRA.SOLV.lig_0>
-58.5963

>  <SCORE.INTRA.VDW>
-0.267518

>  <SCORE.INTRA.VDW.0>
-0.437849

>  <SCORE.INTRA.norm>
-0.0881318

>  <SCORE.RESTR>
0

>  <SCORE.RESTR.CAVITY>
0

>  <SCORE.RESTR.norm>
0

>  <SCORE.SYSTEM>
0

>  <SCORE.SYSTEM.CONST>
0

>  <SCORE.SYSTEM.DIHEDRAL>
0

>  <SCORE.SYSTEM.SOLV>
0

>  <SCORE.SYSTEM.norm>
0

>  <SCORE.heavy>
16

>  <SCORE.norm>
-0.646052

>  <RMSD>
0.540

$$$$
ligand
 OpenBabel11021811463D
libRbt.so/2013.1/901 2013/11/27
 16 16  0  0  0  0  0  0  0  0999 V2000
   49.9623   12.0301   11.9706 P   0  0  2  0  0  0  0  0  0  0  0  0
   50.6680   13.1925   12.5639 O   0  0  0  0  0  0  0  0  0  0  0  0
   50.7236   10.6626   12.3467 O   0  5  0  0  0  0  0  0  0  0  0  0
   49.9460   12.1845   10.3582 O   0  0  0  0  0  0  0  0  0  0  0  0
   45.0439   10.7717   14.6584 C   0  0  2  0  0  0  0  0  0  0  0  0
   44.4234    9.5217   14.3235 O   0  0  0  0  0  0  0  0  0  0  0  0
   44.2120   11.9792   14.1413 C   0  0  2  0  0  0  0  0  0  0  0  0
   42.8470   11.9267   14.7098 N   0  0  0  0  0  0  0  0  0  0  0  0
   44.1482   11.9094   12.6009 C   0  0  1  0  0  0  0  0  0  0  0  0
   43.4008   13.0243   12.0834 O   0  0  0  0  0  0  0  0  0  0  0  0
   45.5854   11.9557   12.0619 C   0  0  2  0  0  0  0  0  0  0  0  0
   45.5624   11.8771   10.6297 O   0  0  0  0  0  0  0  0  0  0  0  0
   46.3642   10.7454   12.6417 C   0  0  2  0  0  0  0  0  0  0  0  0
   46.3867   10.8101   14.0968 O   0  0  0  0  0  0  0  0  0  0  0  0
   47.8142   10.7731   12.1277 C   0  0  0  0  0  0  0  0  0  0  0  0
   48.4609   11.9822   12.5652 O   0  0  0  0  0  0  0  0  0  0  0  0
  1  2  1  1  0  0  0
  1  3  1  0  0  0  0
  1  4  2  0  0  0  0
  1 16  1  0  0  0  0
  5  6  1  6  0  0  0
  5  7  1  0  0  0  0
  5 14  1  0  0  0  0
  7  8  1  1  0  0  0
  7  9  1  0  0  0  0
  9 10  1  6  0  0  0
  9 11  1  0  0  0  0
 11 12  1  6  0  0  0
 11 13  1  0  0  0  0
 13 14  1  0  0  0  0
 13 15  1  6  0  0  0
 15 16  1  0  0  0  0
M  CHG  1   3  -1
M  END
>  <CHROM.1>
61.10800507,-177.71479288,-173.11403384,46.90704422,11.62089199,12.65761798
-0.26833921,-0.10026003,2.17110496

>  <Name>
ligand

>  <RI>
0

>  <Rbt.Current_Directory>
/home/itssahil/PROJECTS/Mol_Feturizer/New_Systems/rnas/3B4B

>  <Rbt.Executable>
rbdock ($Id: //depot/dev/client3/rdock/2013.1/src/exe/rbdock.cxx#4 $)

>  <Rbt.Library>
libRbt.so (2013.1, Build901 2013/11/27)

>  <Rbt.Parameter_File>
/export/apps/rDock/src/rDock_2013.1_src/data/scripts/dock_solv.prm

>  <Rbt.Receptor>
prm/pocket_docking_2.prm

>  <SCORE>
-10.3289

>  <SCORE.INTER>
-8.85882

>  <SCORE.INTER.CONST>
1

>  <SCORE.INTER.POLAR>
-1.125

>  <SCORE.INTER.ROT>
3

>  <SCORE.INTER.SOLV>
17.6958

>  <SCORE.INTER.VDW>
-13.6545

>  <SCORE.INTER.norm>
-0.553677

>  <SCORE.INTRA>
-1.47008

>  <SCORE.INTRA.DIHEDRAL>
-2.10867

>  <SCORE.INTRA.DIHEDRAL.0>
2.21864

>  <SCORE.INTRA.POLAR>
0

>  <SCORE.INTRA.POLAR.0>
0

>  <SCORE.INTRA.REPUL>
0

>  <SCORE.INTRA.REPUL.0>
0

>  <SCORE.INTRA.SOLV>
-0.249035

>  <SCORE.INTRA.SOLV.lig_0>
-58.5963

>  <SCORE.INTRA.VDW>
-0.291225

>  <SCORE.INTRA.VDW.0>
-0.437849

>  <SCORE.INTRA.norm>
-0.0918798

>  <SCORE.RESTR>
0

>  <SCORE.RESTR.CAVITY>
0

>  <SCORE.RESTR.norm>
0

>  <SCORE.SYSTEM>
0

>  <SCORE.SYSTEM.CONST>
0

>  <SCORE.SYSTEM.DIHEDRAL>
0

>  <SCORE.SYSTEM.SOLV>
0

>  <SCORE.SYSTEM.norm>
0

>  <SCORE.heavy>
16

>  <SCORE.norm>
-0.645556

>  <RMSD>
0.556

$$$$
ligand
 OpenBabel11021811463D
libRbt.so/2013.1/901 2013/11/27
 16 16  0  0  0  0  0  0  0  0999 V2000
   49.8128   12.0533   11.9122 P   0  0  2  0  0  0  0  0  0  0  0  0
   50.5209   13.2213   12.4915 O   0  0  0  0  0  0  0  0  0  0  0  0
   50.5878   10.6912   12.2798 O   0  5  0  0  0  0  0  0  0  0  0  0
   49.7706   12.2035   10.2998 O   0  0  0  0  0  0  0  0  0  0  0  0
   44.9763   10.8579   14.7452 C   0  0  2  0  0  0  0  0  0  0  0  0
   44.4041    9.5590   14.5331 O   0  0  0  0  0  0  0  0  0  0  0  0
   44.0855   11.9802   14.1415 C   0  0  2  0  0  0  0  0  0  0  0  0
   42.7334   11.9222   14.7396 N   0  0  0  0  0  0  0  0  0  0  0  0
   43.9995   11.7727   12.6146 C   0  0  1  0  0  0  0  0  0  0  0  0
   43.1971   12.8063   12.0170 O   0  0  0  0  0  0  0  0  0  0  0  0
   45.4245   11.8301   12.0451 C   0  0  2  0  0  0  0  0  0  0  0  0
   45.3814   11.6250   10.6259 O   0  0  0  0  0  0  0  0  0  0  0  0
   46.2634   10.7083   12.7125 C   0  0  2  0  0  0  0  0  0  0  0  0
   46.3068   10.9016   14.1557 O   0  0  0  0  0  0  0  0  0  0  0  0
   47.7022   10.7500   12.1691 C   0  0  0  0  0  0  0  0  0  0  0  0
   48.3211   11.9982   12.5302 O   0  0  0  0  0  0  0  0  0  0  0  0
  1  2  1  1  0  0  0
  1  3  1  0  0  0  0
  1  4  2  0  0  0  0
  1 16  1  0  0  0  0
  5  6  1  6  0  0  0
  5  7  1  0  0  0  0
  5 14  1  0  0  0  0
  7  8  1  1  0  0  0
  7  9  1  0  0  0  0
  9 10  1  6  0  0  0
  9 11  1  0  0  0  0
 11 12  1  6  0  0  0
 11 13  1  0  0  0  0
 13 14  1  0  0  0  0
 13 15  1  6  0  0  0
 15 16  1  0  0  0  0
M  CHG  1   3  -1
M  END
>  <CHROM.1>
63.26336405,-178.07216790,-169.85995118,46.77624498,11.59545548,12.66019925
-0.29528404,-0.07173989,2.07641782

>  <Name>
ligand

>  <RI>
0

>  <Rbt.Current_Directory>
/home/itssahil/PROJECTS/Mol_Feturizer/New_Systems/rnas/3B4B

>  <Rbt.Executable>
rbdock ($Id: //depot/dev/client3/rdock/2013.1/src/exe/rbdock.cxx#4 $)

>  <Rbt.Library>
libRbt.so (2013.1, Build901 2013/11/27)

>  <Rbt.Parameter_File>
/export/apps/rDock/src/rDock_2013.1_src/data/scripts/dock_solv.prm

>  <Rbt.Receptor>
prm/pocket_docking_4.prm

>  <SCORE>
-10.4076

>  <SCORE.INTER>
-9.02397

>  <SCORE.INTER.CONST>
1

>  <SCORE.INTER.POLAR>
-1.125

>  <SCORE.INTER.ROT>
3

>  <SCORE.INTER.SOLV>
17.8183

>  <SCORE.INTER.VDW>
-13.8054

>  <SCORE.INTER.norm>
-0.563998

>  <SCORE.INTRA>
-1.38367

>  <SCORE.INTRA.DIHEDRAL>
-1.99289

>  <SCORE.INTRA.DIHEDRAL.0>
2.21864

>  <SCORE.INTRA.POLAR>
0

>  <SCORE.INTRA.POLAR.0>
0

>  <SCORE.INTRA.REPUL>
0

>  <SCORE.INTRA.REPUL.0>
0

>  <SCORE.INTRA.SOLV>
-0.268028

>  <SCORE.INTRA.SOLV.lig_0>
-58.5963

>  <SCORE.INTRA.VDW>
-0.253215

>  <SCORE.INTRA.VDW.0>
-0.437849

>  <SCORE.INTRA.norm>
-0.0864796

>  <SCORE.RESTR>
0

>  <SCORE.RESTR.CAVITY>
0

>  <SCORE.RESTR.norm>
0

>  <SCORE.SYSTEM>
0

>  <SCORE.SYSTEM.CONST>
0

>  <SCORE.SYSTEM.DIHEDRAL>
0

>  <SCORE.SYSTEM.SOLV>
0

>  <SCORE.SYSTEM.norm>
0

>  <SCORE.heavy>
16

>  <SCORE.norm>
-0.650478

>  <RMSD>
0.556

$$$$
ligand
 OpenBabel11021811463D
libRbt.so/2013.1/901 2013/11/27
 16 16  0  0  0  0  0  0  0  0999 V2000
   49.9725   11.9939   11.9849 P   0  0  2  0  0  0  0  0  0  0  0  0
   50.6767   13.1677   12.5570 O   0  0  0  0  0  0  0  0  0  0  0  0
   50.7291   10.6337   12.3951 O   0  5  0  0  0  0  0  0  0  0  0  0
   49.9662   12.1133   10.3693 O   0  0  0  0  0  0  0  0  0  0  0  0
   45.0447   10.7457   14.6672 C   0  0  2  0  0  0  0  0  0  0  0  0
   44.4075    9.5103   14.3103 O   0  0  0  0  0  0  0  0  0  0  0  0
   44.2281   11.9732   14.1733 C   0  0  2  0  0  0  0  0  0  0  0  0
   42.8631   11.9282   14.7426 N   0  0  0  0  0  0  0  0  0  0  0  0
   44.1617   11.9325   12.6320 C   0  0  1  0  0  0  0  0  0  0  0  0
   43.4285   13.0664   12.1360 O   0  0  0  0  0  0  0  0  0  0  0  0
   45.5989   11.9698   12.0921 C   0  0  2  0  0  0  0  0  0  0  0  0
   45.5732   11.9178   10.6587 O   0  0  0  0  0  0  0  0  0  0  0  0
   46.3623   10.7390   12.6486 C   0  0  2  0  0  0  0  0  0  0  0  0
   46.3872   10.7768   14.1046 O   0  0  0  0  0  0  0  0  0  0  0  0
   47.8120   10.7572   12.1333 C   0  0  0  0  0  0  0  0  0  0  0  0
   48.4674   11.9614   12.5713 O   0  0  0  0  0  0  0  0  0  0  0  0
  1  2  1  1  0  0  0
  1  3  1  0  0  0  0
  1  4  2  0  0  0  0
  1 16  1  0  0  0  0
  5  6  1  6  0  0  0
  5  7  1  0  0  0  0
  5 14  1  0  0  0  0
  7  8  1  1  0  0  0
  7  9  1  0  0  0  0
  9 10  1  6  0  0  0
  9 11  1  0  0  0  0
 11 12  1  6  0  0  0
 11 13  1  0  0  0  0
 13 14  1  0  0  0  0
 13 15  1  6  0  0  0
 15 16  1  0  0  0  0
M  CHG  1   3  -1
M  END
>  <CHROM.1>
60.05019758,-178.15426136,-174.29106178,46.91530751,11.60875766,12.67570252
-0.26399239,-0.11229456,2.19047427

>  <Name>
ligand

>  <RI>
0

>  <Rbt.Current_Directory>
/home/itssahil/PROJECTS/Mol_Feturizer/New_Systems/rnas/3B4B

>  <Rbt.Executable>
rbdock ($Id: //depot/dev/client3/rdock/2013.1/src/exe/rbdock.cxx#4 $)

>  <Rbt.Library>
libRbt.so (2013.1, Build901 2013/11/27)

>  <Rbt.Parameter_File>
/export/apps/rDock/src/rDock_2013.1_src/data/scripts/dock_solv.prm

>  <Rbt.Receptor>
prm/pocket_docking_4.prm

>  <SCORE>
-10.3388

>  <SCORE.INTER>
-8.84113

>  <SCORE.INTER.CONST>
1

>  <SCORE.INTER.POLAR>
-1.12484

>  <SCORE.INTER.ROT>
3

>  <SCORE.INTER.SOLV>
18.0295

>  <SCORE.INTER.VDW>
-13.7545

>  <SCORE.INTER.norm>
-0.552571

>  <SCORE.INTRA>
-1.4977

>  <SCORE.INTRA.DIHEDRAL>
-2.14646

>  <SCORE.INTRA.DIHEDRAL.0>
2.21864

>  <SCORE.INTRA.POLAR>
0

>  <SCORE.INTRA.POLAR.0>
0

>  <SCORE.INTRA.REPUL>
0

>  <SCORE.INTRA.REPUL.0>
0

>  <SCORE.INTRA.SOLV>
-0.254668

>  <SCORE.INTRA.SOLV.lig_0>
-58.5963

>  <SCORE.INTRA.VDW>
-0.297141

>  <SCORE.INTRA.VDW.0>
-0.437849

>  <SCORE.INTRA.norm>
-0.0936064

>  <SCORE.RESTR>
0

>  <SCORE.RESTR.CAVITY>
0

>  <SCORE.RESTR.norm>
0

>  <SCORE.SYSTEM>
0

>  <SCORE.SYSTEM.CONST>
0

>  <SCORE.SYSTEM.DIHEDRAL>
0

>  <SCORE.SYSTEM.SOLV>
0

>  <SCORE.SYSTEM.norm>
0

>  <SCORE.heavy>
16

>  <SCORE.norm>
-0.646177

>  <RMSD>
0.559

$$$$
ligand
 OpenBabel11021811463D
libRbt.so/2013.1/901 2013/11/27
 16 16  0  0  0  0  0  0  0  0999 V2000
   49.8365   12.0403   11.9196 P   0  0  2  0  0  0  0  0  0  0  0  0
   50.5500   13.2168   12.4745 O   0  0  0  0  0  0  0  0  0  0  0  0
   50.6165   10.6840   12.2980 O   0  5  0  0  0  0  0  0  0  0  0  0
   49.7765   12.1676   10.3058 O   0  0  0  0  0  0  0  0  0  0  0  0
   44.9577   10.8015   14.6853 C   0  0  2  0  0  0  0  0  0  0  0  0
   44.3164    9.5632   14.3463 O   0  0  0  0  0  0  0  0  0  0  0  0
   44.1297   12.0251   14.2007 C   0  0  2  0  0  0  0  0  0  0  0  0
   42.7756   11.9803   14.7955 N   0  0  0  0  0  0  0  0  0  0  0  0
   44.0347   11.9767   12.6611 C   0  0  1  0  0  0  0  0  0  0  0  0
   43.2901   13.1068   12.1734 O   0  0  0  0  0  0  0  0  0  0  0  0
   45.4614   12.0141   12.0944 C   0  0  2  0  0  0  0  0  0  0  0  0
   45.4092   11.9550   10.6620 O   0  0  0  0  0  0  0  0  0  0  0  0
   46.2375   10.7874   12.6425 C   0  0  2  0  0  0  0  0  0  0  0  0
   46.2894   10.8323   14.0976 O   0  0  0  0  0  0  0  0  0  0  0  0
   47.6773   10.8057   12.1001 C   0  0  0  0  0  0  0  0  0  0  0  0
   48.3517   11.9931   12.5547 O   0  0  0  0  0  0  0  0  0  0  0  0
  1  2  1  1  0  0  0
  1  3  1  0  0  0  0
  1  4  2  0  0  0  0
  1 16  1  0  0  0  0
  5  6  1  6  0  0  0
  5  7  1  0  0  0  0
  5 14  1  0  0  0  0
  7  8  1  1  0  0  0
  7  9  1  0  0  0  0
  9 10  1  6  0  0  0
  9 11  1  0  0  0  0
 11 12  1  6  0  0  0
 11 13  1  0  0  0  0
 13 14  1  0  0  0  0
 13 15  1  6  0  0  0
 15 16  1  0  0  0  0
M  CHG  1   3  -1
M  END
>  <CHROM.1>
61.83458735,-177.16155369,-175.98571742,46.79082678,11.65624782,12.66035855
-0.27769837,-0.12034862,2.18218833

>  <Name>
ligand

>  <RI>
0

>  <Rbt.Current_Directory>
/home/itssahil/PROJECTS/Mol_Feturizer/New_Systems/rnas/3B4B

>  <Rbt.Executable>
rbdock ($Id: //depot/dev/client3/rdock/2013.1/src/exe/rbdock.cxx#4 $)

>  <Rbt.Library>
libRbt.so (2013.1, Build901 2013/11/27)

>  <Rbt.Parameter_File>
/export/apps/rDock/src/rDock_2013.1_src/data/scripts/dock_solv.prm

>  <Rbt.Receptor>
prm/pocket_docking_2.prm

>  <SCORE>
-10.2915

>  <SCORE.INTER>
-8.77967

>  <SCORE.INTER.CONST>
1

>  <SCORE.INTER.POLAR>
-1.125

>  <SCORE.INTER.ROT>
3

>  <SCORE.INTER.SOLV>
17.9167

>  <SCORE.INTER.VDW>
-13.6754

>  <SCORE.INTER.norm>
-0.54873

>  <SCORE.INTRA>
-1.51184

>  <SCORE.INTRA.DIHEDRAL>
-2.13843

>  <SCORE.INTRA.DIHEDRAL.0>
2.21864

>  <SCORE.INTRA.POLAR>
0

>  <SCORE.INTRA.POLAR.0>
0

>  <SCORE.INTRA.REPUL>
0

>  <SCORE.INTRA.REPUL.0>
0

>  <SCORE.INTRA.SOLV>
-0.233054

>  <SCORE.INTRA.SOLV.lig_0>
-58.5963

>  <SCORE.INTRA.VDW>
-0.326104

>  <SCORE.INTRA.VDW.0>
-0.437849

>  <SCORE.INTRA.norm>
-0.0944903

>  <SCORE.RESTR>
0

>  <SCORE.RESTR.CAVITY>
0

>  <SCORE.RESTR.norm>
0

>  <SCORE.SYSTEM>
0

>  <SCORE.SYSTEM.CONST>
0

>  <SCORE.SYSTEM.DIHEDRAL>
0

>  <SCORE.SYSTEM.SOLV>
0

>  <SCORE.SYSTEM.norm>
0

>  <SCORE.heavy>
16

>  <SCORE.norm>
-0.64322

>  <RMSD>
0.561

$$$$
ligand
 OpenBabel11021811463D
libRbt.so/2013.1/901 2013/11/27
 16 16  0  0  0  0  0  0  0  0999 V2000
   49.6242   12.0697   11.8892 P   0  0  2  0  0  0  0  0  0  0  0  0
   50.3488   13.2026   12.5159 O   0  0  0  0  0  0  0  0  0  0  0  0
   50.3571   10.6786   12.2336 O   0  5  0  0  0  0  0  0  0  0  0  0
   49.6198   12.2659   10.2812 O   0  0  0  0  0  0  0  0  0  0  0  0
   44.7059   10.9057   14.5470 C   0  0  2  0  0  0  0  0  0  0  0  0
   44.0961    9.6393   14.2570 O   0  0  0  0  0  0  0  0  0  0  0  0
   43.8528   12.0878   14.0062 C   0  0  2  0  0  0  0  0  0  0  0  0
   42.4961   12.0361   14.5944 N   0  0  0  0  0  0  0  0  0  0  0  0
   43.7696   11.9723   12.4695 C   0  0  1  0  0  0  0  0  0  0  0  0
   43.0022   13.0628   11.9300 O   0  0  0  0  0  0  0  0  0  0  0  0
   45.1990   12.0195   11.9102 C   0  0  2  0  0  0  0  0  0  0  0  0
   45.1581   11.8988   10.4813 O   0  0  0  0  0  0  0  0  0  0  0  0
   45.9998   10.8357   12.5143 C   0  0  2  0  0  0  0  0  0  0  0  0
   46.0406   10.9432   13.9665 O   0  0  0  0  0  0  0  0  0  0  0  0
   47.4425   10.8653   11.9802 C   0  0  0  0  0  0  0  0  0  0  0  0
   48.1189   12.0354   12.4748 O   0  0  0  0  0  0  0  0  0  0  0  0
  1  2  1  1  0  0  0
  1  3  1  0  0  0  0
  1  4  2  0  0  0  0
  1 16  1  0  0  0  0
  5  6  1  6  0  0  0
  5  7  1  0  0  0  0
  5 14  1  0  0  0  0
  7  8  1  1  0  0  0
  7  9  1  0  0  0  0
  9 10  1  6  0  0  0
  9 11  1  0  0  0  0
 11 12  1  6  0  0  0
 11 13  1  0  0  0  0
 13 14  1  0  0  0  0
 13 15  1  6  0  0  0
 15 16  1  0  0  0  0
M  CHG  1   3  -1
M  END
>  <CHROM.1>
66.31553303,-179.07867767,-174.31347967,46.55137649,11.69063408,12.54656596
-0.25738072,-0.09124641,2.12596183

>  <Name>
ligand

>  <RI>
0

>  <Rbt.Current_Directory>
/home/itssahil/PROJECTS/Mol_Feturizer/New_Systems/rnas/3B4B

>  <Rbt.Executable>
rbdock ($Id: //depot/dev/client3/rdock/2013.1/src/exe/rbdock.cxx#4 $)

>  <Rbt.Library>
libRbt.so (2013.1, Build901 2013/11/27)

>  <Rbt.Parameter_File>
/export/apps/rDock/src/rDock_2013.1_src/data/scripts/dock_solv.prm

>  <Rbt.Receptor>
prm/pocket_docking_7.prm

>  <SCORE>
-10.0802

>  <SCORE.INTER>
-8.62138

>  <SCORE.INTER.CONST>
1

>  <SCORE.INTER.POLAR>
-1.12458

>  <SCORE.INTER.ROT>
3

>  <SCORE.INTER.SOLV>
16.5745

>  <SCORE.INTER.VDW>
-13.1238

>  <SCORE.INTER.norm>
-0.538836

>  <SCORE.INTRA>
-1.45878

>  <SCORE.INTRA.DIHEDRAL>
-2.0156

>  <SCORE.INTRA.DIHEDRAL.0>
2.21864

>  <SCORE.INTRA.POLAR>
0

>  <SCORE.INTRA.POLAR.0>
0

>  <SCORE.INTRA.REPUL>
0

>  <SCORE.INTRA.REPUL.0>
0

>  <SCORE.INTRA.SOLV>
-0.269562

>  <SCORE.INTRA.SOLV.lig_0>
-58.5963

>  <SCORE.INTRA.VDW>
-0.3162

>  <SCORE.INTRA.VDW.0>
-0.437849

>  <SCORE.INTRA.norm>
-0.0911737

>  <SCORE.RESTR>
0

>  <SCORE.RESTR.CAVITY>
0

>  <SCORE.RESTR.norm>
0

>  <SCORE.SYSTEM>
0

>  <SCORE.SYSTEM.CONST>
0

>  <SCORE.SYSTEM.DIHEDRAL>
0

>  <SCORE.SYSTEM.SOLV>
0

>  <SCORE.SYSTEM.norm>
0

>  <SCORE.heavy>
16

>  <SCORE.norm>
-0.63001

>  <RMSD>
0.569

$$$$
ligand
 OpenBabel11021811463D
libRbt.so/2013.1/901 2013/11/27
 16 16  0  0  0  0  0  0  0  0999 V2000
   49.8730   12.0269   11.9635 P   0  0  2  0  0  0  0  0  0  0  0  0
   50.5960   13.1857   12.5425 O   0  0  0  0  0  0  0  0  0  0  0  0
   50.6177   10.6533   12.3504 O   0  5  0  0  0  0  0  0  0  0  0  0
   49.8526   12.1655   10.3496 O   0  0  0  0  0  0  0  0  0  0  0  0
   44.9388   10.8150   14.6608 C   0  0  2  0  0  0  0  0  0  0  0  0
   44.2823    9.5933   14.2922 O   0  0  0  0  0  0  0  0  0  0  0  0
   44.1401   12.0600   14.1815 C   0  0  2  0  0  0  0  0  0  0  0  0
   42.7757   12.0297   14.7531 N   0  0  0  0  0  0  0  0  0  0  0  0
   44.0702   12.0366   12.6400 C   0  0  1  0  0  0  0  0  0  0  0  0
   43.3534   13.1866   12.1574 O   0  0  0  0  0  0  0  0  0  0  0  0
   45.5067   12.0577   12.0976 C   0  0  2  0  0  0  0  0  0  0  0  0
   45.4776   12.0212   10.6638 O   0  0  0  0  0  0  0  0  0  0  0  0
   46.2524   10.8097   12.6395 C   0  0  2  0  0  0  0  0  0  0  0  0
   46.2806   10.8317   14.0958 O   0  0  0  0  0  0  0  0  0  0  0  0
   47.7012   10.8112   12.1214 C   0  0  0  0  0  0  0  0  0  0  0  0
   48.3733   12.0045   12.5640 O   0  0  0  0  0  0  0  0  0  0  0  0
  1  2  1  1  0  0  0
  1  3  1  0  0  0  0
  1  4  2  0  0  0  0
  1 16  1  0  0  0  0
  5  6  1  6  0  0  0
  5  7  1  0  0  0  0
  5 14  1  0  0  0  0
  7  8  1  1  0  0  0
  7  9  1  0  0  0  0
  9 10  1  6  0  0  0
  9 11  1  0  0  0  0
 11 12  1  6  0  0  0
 11 13  1  0  0  0  0
 13 14  1  0  0  0  0
 13 15  1  6  0  0  0
 15 16  1  0  0  0  0
M  CHG  1   3  -1
M  END
>  <CHROM.1>
59.70115749,-177.63085287,-174.12092407,46.81596814,11.67444367,12.66780331
-0.26056580,-0.12690007,2.20396462

>  <Name>
ligand

>  <RI>
0

>  <Rbt.Current_Directory>
/home/itssahil/PROJECTS/Mol_Feturizer/New_Systems/rnas/3B4B

>  <Rbt.Executable>
rbdock ($Id: //depot/dev/client3/rdock/2013.1/src/exe/rbdock.cxx#4 $)

>  <Rbt.Library>
libRbt.so (2013.1, Build901 2013/11/27)

>  <Rbt.Parameter_File>
/export/apps/rDock/src/rDock_2013.1_src/data/scripts/dock_solv.prm

>  <Rbt.Receptor>
prm/pocket_docking_2.prm

>  <SCORE>
-10.3152

>  <SCORE.INTER>
-8.83499

>  <SCORE.INTER.CONST>
1

>  <SCORE.INTER.POLAR>
-1.125

>  <SCORE.INTER.ROT>
3

>  <SCORE.INTER.SOLV>
17.8753

>  <SCORE.INTER.VDW>
-13.6984

>  <SCORE.INTER.norm>
-0.552187

>  <SCORE.INTRA>
-1.48025

>  <SCORE.INTRA.DIHEDRAL>
-2.13209

>  <SCORE.INTRA.DIHEDRAL.0>
2.21864

>  <SCORE.INTRA.POLAR>
0

>  <SCORE.INTRA.POLAR.0>
0

>  <SCORE.INTRA.REPUL>
0

>  <SCORE.INTRA.REPUL.0>
0

>  <SCORE.INTRA.SOLV>
-0.239343

>  <SCORE.INTRA.SOLV.lig_0>
-58.5963

>  <SCORE.INTRA.VDW>
-0.29453

>  <SCORE.INTRA.VDW.0>
-0.437849

>  <SCORE.INTRA.norm>
-0.0925154

>  <SCORE.RESTR>
0

>  <SCORE.RESTR.CAVITY>
0

>  <SCORE.RESTR.norm>
0

>  <SCORE.SYSTEM>
0

>  <SCORE.SYSTEM.CONST>
0

>  <SCORE.SYSTEM.DIHEDRAL>
0

>  <SCORE.SYSTEM.SOLV>
0

>  <SCORE.SYSTEM.norm>
0

>  <SCORE.heavy>
16

>  <SCORE.norm>
-0.644702

>  <RMSD>
0.572

$$$$
ligand
 OpenBabel11021811463D
libRbt.so/2013.1/901 2013/11/27
 16 16  0  0  0  0  0  0  0  0999 V2000
   49.9442   12.1240   11.8756 P   0  0  2  0  0  0  0  0  0  0  0  0
   50.6492   13.2775   12.4867 O   0  0  0  0  0  0  0  0  0  0  0  0
   50.7424   10.7587   12.1750 O   0  5  0  0  0  0  0  0  0  0  0  0
   49.8690   12.3362   10.2714 O   0  0  0  0  0  0  0  0  0  0  0  0
   45.1036   10.7662   14.6336 C   0  0  2  0  0  0  0  0  0  0  0  0
   44.5072    9.5007   14.3137 O   0  0  0  0  0  0  0  0  0  0  0  0
   44.2313   11.9519   14.1328 C   0  0  2  0  0  0  0  0  0  0  0  0
   42.8805   11.8668   14.7305 N   0  0  0  0  0  0  0  0  0  0  0  0
   44.1362   11.8778   12.5942 C   0  0  1  0  0  0  0  0  0  0  0  0
   43.3507   12.9730   12.0915 O   0  0  0  0  0  0  0  0  0  0  0  0
   45.5601   11.9585   12.0245 C   0  0  2  0  0  0  0  0  0  0  0  0
   45.5083   11.8768   10.5933 O   0  0  0  0  0  0  0  0  0  0  0  0
   46.3807   10.7688   12.5890 C   0  0  2  0  0  0  0  0  0  0  0  0
   46.4327   10.8367   14.0432 O   0  0  0  0  0  0  0  0  0  0  0  0
   47.8182   10.8313   12.0440 C   0  0  0  0  0  0  0  0  0  0  0  0
   48.4654   12.0259   12.5189 O   0  0  0  0  0  0  0  0  0  0  0  0
  1  2  1  1  0  0  0
  1  3  1  0  0  0  0
  1  4  2  0  0  0  0
  1 16  1  0  0  0  0
  5  6  1  6  0  0  0
  5  7  1  0  0  0  0
  5 14  1  0  0  0  0
  7  8  1  1  0  0  0
  7  9  1  0  0  0  0
  9 10  1  6  0  0  0
  9 11  1  0  0  0  0
 11 12  1  6  0  0  0
 11 13  1  0  0  0  0
 13 14  1  0  0  0  0
 13 15  1  6  0  0  0
 15 16  1  0  0  0  0
M  CHG  1   3  -1
M  END
>  <CHROM.1>
63.85083223,-176.86974343,-173.95648248,46.90694299,11.65134922,12.60564947
-0.29262486,-0.08950620,2.16315233

>  <Name>
ligand

>  <RI>
0

>  <Rbt.Current_Directory>
/home/itssahil/PROJECTS/Mol_Feturizer/New_Systems/rnas/3B4B

>  <Rbt.Executable>
rbdock ($Id: //depot/dev/client3/rdock/2013.1/src/exe/rbdock.cxx#4 $)

>  <Rbt.Library>
libRbt.so (2013.1, Build901 2013/11/27)

>  <Rbt.Parameter_File>
/export/apps/rDock/src/rDock_2013.1_src/data/scripts/dock_solv.prm

>  <Rbt.Receptor>
prm/pocket_docking_5.prm

>  <SCORE>
-10.2832

>  <SCORE.INTER>
-8.82298

>  <SCORE.INTER.CONST>
1

>  <SCORE.INTER.POLAR>
-1.12358

>  <SCORE.INTER.ROT>
3

>  <SCORE.INTER.SOLV>
17.2105

>  <SCORE.INTER.VDW>
-13.4735

>  <SCORE.INTER.norm>
-0.551437

>  <SCORE.INTRA>
-1.46021

>  <SCORE.INTRA.DIHEDRAL>
-2.05454

>  <SCORE.INTRA.DIHEDRAL.0>
2.21864

>  <SCORE.INTRA.POLAR>
0

>  <SCORE.INTRA.POLAR.0>
0

>  <SCORE.INTRA.REPUL>
0

>  <SCORE.INTRA.REPUL.0>
0

>  <SCORE.INTRA.SOLV>
-0.236898

>  <SCORE.INTRA.SOLV.lig_0>
-58.5963

>  <SCORE.INTRA.VDW>
-0.314491

>  <SCORE.INTRA.VDW.0>
-0.437849

>  <SCORE.INTRA.norm>
-0.0912631

>  <SCORE.RESTR>
0

>  <SCORE.RESTR.CAVITY>
0

>  <SCORE.RESTR.norm>
0

>  <SCORE.SYSTEM>
0

>  <SCORE.SYSTEM.CONST>
0

>  <SCORE.SYSTEM.DIHEDRAL>
0

>  <SCORE.SYSTEM.SOLV>
0

>  <SCORE.SYSTEM.norm>
0

>  <SCORE.heavy>
16

>  <SCORE.norm>
-0.6427

>  <RMSD>
0.572

$$$$
ligand
 OpenBabel11021811463D
libRbt.so/2013.1/901 2013/11/27
 16 16  0  0  0  0  0  0  0  0999 V2000
   49.9372   11.9815   11.9946 P   0  0  2  0  0  0  0  0  0  0  0  0
   50.6419   13.1630   12.5500 O   0  0  0  0  0  0  0  0  0  0  0  0
   50.7086   10.6285   12.4012 O   0  5  0  0  0  0  0  0  0  0  0  0
   49.9065   12.0919   10.3788 O   0  0  0  0  0  0  0  0  0  0  0  0
   45.0562   10.8861   14.7670 C   0  0  2  0  0  0  0  0  0  0  0  0
   44.4803    9.5853   14.5779 O   0  0  0  0  0  0  0  0  0  0  0  0
   44.1747   11.9989   14.1327 C   0  0  2  0  0  0  0  0  0  0  0  0
   42.8179   11.9590   14.7214 N   0  0  0  0  0  0  0  0  0  0  0  0
   44.0997   11.7595   12.6100 C   0  0  1  0  0  0  0  0  0  0  0  0
   43.3062   12.7833   11.9844 O   0  0  0  0  0  0  0  0  0  0  0  0
   45.5293   11.7991   12.0505 C   0  0  2  0  0  0  0  0  0  0  0  0
   45.4963   11.5642   10.6357 O   0  0  0  0  0  0  0  0  0  0  0  0
   46.3583   10.6884   12.7479 C   0  0  2  0  0  0  0  0  0  0  0  0
   46.3914   10.9121   14.1870 O   0  0  0  0  0  0  0  0  0  0  0  0
   47.8015   10.7129   12.2150 C   0  0  0  0  0  0  0  0  0  0  0  0
   48.4411   11.9424   12.6032 O   0  0  0  0  0  0  0  0  0  0  0  0
  1  2  1  1  0  0  0
  1  3  1  0  0  0  0
  1  4  2  0  0  0  0
  1 16  1  0  0  0  0
  5  6  1  6  0  0  0
  5  7  1  0  0  0  0
  5 14  1  0  0  0  0
  7  8  1  1  0  0  0
  7  9  1  0  0  0  0
  9 10  1  6  0  0  0
  9 11  1  0  0  0  0
 11 12  1  6  0  0  0
 11 13  1  0  0  0  0
 13 14  1  0  0  0  0
 13 15  1  6  0  0  0
 15 16  1  0  0  0  0
M  CHG  1   3  -1
M  END
>  <CHROM.1>
65.67909475,-177.99710108,-172.55800907,46.88199461,11.56443254,12.69885337
-0.27637115,-0.06907695,2.05027801

>  <Name>
ligand

>  <RI>
0

>  <Rbt.Current_Directory>
/home/itssahil/PROJECTS/Mol_Feturizer/New_Systems/rnas/3B4B

>  <Rbt.Executable>
rbdock ($Id: //depot/dev/client3/rdock/2013.1/src/exe/rbdock.cxx#4 $)

>  <Rbt.Library>
libRbt.so (2013.1, Build901 2013/11/27)

>  <Rbt.Parameter_File>
/export/apps/rDock/src/rDock_2013.1_src/data/scripts/dock_solv.prm

>  <Rbt.Receptor>
prm/pocket_docking_2.prm

>  <SCORE>
-10.3597

>  <SCORE.INTER>
-8.93408

>  <SCORE.INTER.CONST>
1

>  <SCORE.INTER.POLAR>
-1.125

>  <SCORE.INTER.ROT>
3

>  <SCORE.INTER.SOLV>
18.1819

>  <SCORE.INTER.VDW>
-13.8667

>  <SCORE.INTER.norm>
-0.55838

>  <SCORE.INTRA>
-1.42566

>  <SCORE.INTRA.DIHEDRAL>
-1.98963

>  <SCORE.INTRA.DIHEDRAL.0>
2.21864

>  <SCORE.INTRA.POLAR>
0

>  <SCORE.INTRA.POLAR.0>
0

>  <SCORE.INTRA.REPUL>
0

>  <SCORE.INTRA.REPUL.0>
0

>  <SCORE.INTRA.SOLV>
-0.265934

>  <SCORE.INTRA.SOLV.lig_0>
-58.5963

>  <SCORE.INTRA.VDW>
-0.297875

>  <SCORE.INTRA.VDW.0>
-0.437849

>  <SCORE.INTRA.norm>
-0.0891036

>  <SCORE.RESTR>
0

>  <SCORE.RESTR.CAVITY>
0

>  <SCORE.RESTR.norm>
0

>  <SCORE.SYSTEM>
0

>  <SCORE.SYSTEM.CONST>
0

>  <SCORE.SYSTEM.DIHEDRAL>
0

>  <SCORE.SYSTEM.SOLV>
0

>  <SCORE.SYSTEM.norm>
0

>  <SCORE.heavy>
16

>  <SCORE.norm>
-0.647483

>  <RMSD>
0.574

$$$$
ligand
 OpenBabel11021811463D
libRbt.so/2013.1/901 2013/11/27
 16 16  0  0  0  0  0  0  0  0999 V2000
   49.6632   12.0195   11.9197 P   0  0  2  0  0  0  0  0  0  0  0  0
   50.3920   13.1581   12.5309 O   0  0  0  0  0  0  0  0  0  0  0  0
   50.3617   10.6269   12.3244 O   0  5  0  0  0  0  0  0  0  0  0  0
   49.7031   12.1669   10.3070 O   0  0  0  0  0  0  0  0  0  0  0  0
   44.6964   10.9137   14.4932 C   0  0  2  0  0  0  0  0  0  0  0  0
   44.0526    9.6766   14.1542 O   0  0  0  0  0  0  0  0  0  0  0  0
   43.8776   12.1387   13.9967 C   0  0  2  0  0  0  0  0  0  0  0  0
   42.5185   12.1022   14.5805 N   0  0  0  0  0  0  0  0  0  0  0  0
   43.7950   12.0842   12.4566 C   0  0  1  0  0  0  0  0  0  0  0  0
   43.0593   13.2153   11.9580 O   0  0  0  0  0  0  0  0  0  0  0  0
   45.2265   12.1131   11.9014 C   0  0  2  0  0  0  0  0  0  0  0  0
   45.1858   12.0481   10.4689 O   0  0  0  0  0  0  0  0  0  0  0  0
   45.9928   10.8855   12.4611 C   0  0  2  0  0  0  0  0  0  0  0  0
   46.0330   10.9364   13.9164 O   0  0  0  0  0  0  0  0  0  0  0  0
   47.4371   10.8954   11.9305 C   0  0  0  0  0  0  0  0  0  0  0  0
   48.1431   12.0291   12.4669 O   0  0  0  0  0  0  0  0  0  0  0  0
  1  2  1  1  0  0  0
  1  3  1  0  0  0  0
  1  4  2  0  0  0  0
  1 16  1  0  0  0  0
  5  6  1  6  0  0  0
  5  7  1  0  0  0  0
  5 14  1  0  0  0  0
  7  8  1  1  0  0  0
  7  9  1  0  0  0  0
  9 10  1  6  0  0  0
  9 11  1  0  0  0  0
 11 12  1  6  0  0  0
 11 13  1  0  0  0  0
 13 14  1  0  0  0  0
 13 15  1  6  0  0  0
 15 16  1  0  0  0  0
M  CHG  1   3  -1
M  END
>  <CHROM.1>
66.13227671,179.25489062,-177.44981679,46.57226041,11.71433139,12.53877234
-0.23319105,-0.11205828,2.16046766

>  <Name>
ligand

>  <RI>
0

>  <Rbt.Current_Directory>
/home/itssahil/PROJECTS/Mol_Feturizer/New_Systems/rnas/3B4B

>  <Rbt.Executable>
rbdock ($Id: //depot/dev/client3/rdock/2013.1/src/exe/rbdock.cxx#4 $)

>  <Rbt.Library>
libRbt.so (2013.1, Build901 2013/11/27)

>  <Rbt.Parameter_File>
/export/apps/rDock/src/rDock_2013.1_src/data/scripts/dock_solv.prm

>  <Rbt.Receptor>
prm/pocket_docking_3.prm

>  <SCORE>
-10.0843

>  <SCORE.INTER>
-8.57613

>  <SCORE.INTER.CONST>
1

>  <SCORE.INTER.POLAR>
-1.125

>  <SCORE.INTER.ROT>
3

>  <SCORE.INTER.SOLV>
16.4509

>  <SCORE.INTER.VDW>
-13.051

>  <SCORE.INTER.norm>
-0.536008

>  <SCORE.INTRA>
-1.50813

>  <SCORE.INTRA.DIHEDRAL>
-2.06818

>  <SCORE.INTRA.DIHEDRAL.0>
2.21864

>  <SCORE.INTRA.POLAR>
0

>  <SCORE.INTRA.POLAR.0>
0

>  <SCORE.INTRA.REPUL>
0

>  <SCORE.INTRA.REPUL.0>
0

>  <SCORE.INTRA.SOLV>
-0.269367

>  <SCORE.INTRA.SOLV.lig_0>
-58.5963

>  <SCORE.INTRA.VDW>
-0.33936

>  <SCORE.INTRA.VDW.0>
-0.437849

>  <SCORE.INTRA.norm>
-0.0942583

>  <SCORE.RESTR>
0

>  <SCORE.RESTR.CAVITY>
0

>  <SCORE.RESTR.norm>
0

>  <SCORE.SYSTEM>
0

>  <SCORE.SYSTEM.CONST>
0

>  <SCORE.SYSTEM.DIHEDRAL>
0

>  <SCORE.SYSTEM.SOLV>
0

>  <SCORE.SYSTEM.norm>
0

>  <SCORE.heavy>
16

>  <SCORE.norm>
-0.630267

>  <RMSD>
0.574

$$$$
ligand
 OpenBabel11021811463D
libRbt.so/2013.1/901 2013/11/27
 16 16  0  0  0  0  0  0  0  0999 V2000
   49.9638   11.9769   12.0233 P   0  0  2  0  0  0  0  0  0  0  0  0
   50.6763   13.1413   12.6042 O   0  0  0  0  0  0  0  0  0  0  0  0
   50.7036   10.6075   12.4337 O   0  5  0  0  0  0  0  0  0  0  0  0
   49.9693   12.1020   10.4082 O   0  0  0  0  0  0  0  0  0  0  0  0
   45.0215   10.7633   14.6922 C   0  0  2  0  0  0  0  0  0  0  0  0
   44.3778    9.5312   14.3354 O   0  0  0  0  0  0  0  0  0  0  0  0
   44.2130   11.9950   14.1954 C   0  0  2  0  0  0  0  0  0  0  0  0
   42.8467   11.9586   14.7619 N   0  0  0  0  0  0  0  0  0  0  0  0
   44.1495   11.9530   12.6539 C   0  0  1  0  0  0  0  0  0  0  0  0
   43.4238   13.0906   12.1553 O   0  0  0  0  0  0  0  0  0  0  0  0
   45.5879   11.9814   12.1169 C   0  0  2  0  0  0  0  0  0  0  0  0
   45.5648   11.9279   10.6835 O   0  0  0  0  0  0  0  0  0  0  0  0
   46.3431   10.7468   12.6762 C   0  0  2  0  0  0  0  0  0  0  0  0
   46.3653   10.7860   14.1323 O   0  0  0  0  0  0  0  0  0  0  0  0
   47.7938   10.7559   12.1638 C   0  0  0  0  0  0  0  0  0  0  0  0
   48.4547   11.9579   12.5998 O   0  0  0  0  0  0  0  0  0  0  0  0
  1  2  1  1  0  0  0
  1  3  1  0  0  0  0
  1  4  2  0  0  0  0
  1 16  1  0  0  0  0
  5  6  1  6  0  0  0
  5  7  1  0  0  0  0
  5 14  1  0  0  0  0
  7  8  1  1  0  0  0
  7  9  1  0  0  0  0
  9 10  1  6  0  0  0
  9 11  1  0  0  0  0
 11 12  1  6  0  0  0
 11 13  1  0  0  0  0
 13 14  1  0  0  0  0
 13 15  1  6  0  0  0
 15 16  1  0  0  0  0
M  CHG  1   3  -1
M  END
>  <CHROM.1>
59.94823592,-178.47374934,-173.74892495,46.90178121,11.61218099,12.70533050
-0.25786379,-0.11564920,2.18957662

>  <Name>
ligand

>  <RI>
0

>  <Rbt.Current_Directory>
/home/itssahil/PROJECTS/Mol_Feturizer/New_Systems/rnas/3B4B

>  <Rbt.Executable>
rbdock ($Id: //depot/dev/client3/rdock/2013.1/src/exe/rbdock.cxx#4 $)

>  <Rbt.Library>
libRbt.so (2013.1, Build901 2013/11/27)

>  <Rbt.Parameter_File>
/export/apps/rDock/src/rDock_2013.1_src/data/scripts/dock_solv.prm

>  <Rbt.Receptor>
prm/pocket_docking_4.prm

>  <SCORE>
-10.3338

>  <SCORE.INTER>
-8.84273

>  <SCORE.INTER.CONST>
1

>  <SCORE.INTER.POLAR>
-1.12451

>  <SCORE.INTER.ROT>
3

>  <SCORE.INTER.SOLV>
18.2683

>  <SCORE.INTER.VDW>
-13.8362

>  <SCORE.INTER.norm>
-0.552671

>  <SCORE.INTRA>
-1.49105

>  <SCORE.INTRA.DIHEDRAL>
-2.14114

>  <SCORE.INTRA.DIHEDRAL.0>
2.21864

>  <SCORE.INTRA.POLAR>
0

>  <SCORE.INTRA.POLAR.0>
0

>  <SCORE.INTRA.REPUL>
0

>  <SCORE.INTRA.REPUL.0>
0

>  <SCORE.INTRA.SOLV>
-0.261672

>  <SCORE.INTRA.SOLV.lig_0>
-58.5963

>  <SCORE.INTRA.VDW>
-0.28964

>  <SCORE.INTRA.VDW.0>
-0.437849

>  <SCORE.INTRA.norm>
-0.0931904

>  <SCORE.RESTR>
0

>  <SCORE.RESTR.CAVITY>
0

>  <SCORE.RESTR.norm>
0

>  <SCORE.SYSTEM>
0

>  <SCORE.SYSTEM.CONST>
0

>  <SCORE.SYSTEM.DIHEDRAL>
0

>  <SCORE.SYSTEM.SOLV>
0

>  <SCORE.SYSTEM.norm>
0

>  <SCORE.heavy>
16

>  <SCORE.norm>
-0.645861

>  <RMSD>
0.574

$$$$
ligand
 OpenBabel11021811463D
libRbt.so/2013.1/901 2013/11/27
 16 16  0  0  0  0  0  0  0  0999 V2000
   50.0065   11.9311   12.2373 P   0  0  2  0  0  0  0  0  0  0  0  0
   50.6739   13.0405   12.9618 O   0  0  0  0  0  0  0  0  0  0  0  0
   50.7565   10.5382   12.5349 O   0  5  0  0  0  0  0  0  0  0  0  0
   50.0708   12.2214   10.6449 O   0  0  0  0  0  0  0  0  0  0  0  0
   44.8827   10.3544   14.4076 C   0  0  2  0  0  0  0  0  0  0  0  0
   44.2346    9.2375   13.7813 O   0  0  0  0  0  0  0  0  0  0  0  0
   44.1497   11.6894   14.0946 C   0  0  2  0  0  0  0  0  0  0  0  0
   42.7431   11.6059   14.5460 N   0  0  0  0  0  0  0  0  0  0  0  0
   44.2045   11.9360   12.5721 C   0  0  1  0  0  0  0  0  0  0  0  0
   43.5516   13.1754   12.2455 O   0  0  0  0  0  0  0  0  0  0  0  0
   45.6804   12.0031   12.1532 C   0  0  2  0  0  0  0  0  0  0  0  0
   45.7668   12.2167   10.7373 O   0  0  0  0  0  0  0  0  0  0  0  0
   46.3554   10.6558   12.5231 C   0  0  2  0  0  0  0  0  0  0  0  0
   46.2659   10.4241   13.9585 O   0  0  0  0  0  0  0  0  0  0  0  0
   47.8411   10.6990   12.1255 C   0  0  0  0  0  0  0  0  0  0  0  0
   48.4772   11.8299   12.7485 O   0  0  0  0  0  0  0  0  0  0  0  0
  1  2  1  1  0  0  0
  1  3  1  0  0  0  0
  1  4  2  0  0  0  0
  1 16  1  0  0  0  0
  5  6  1  6  0  0  0
  5  7  1  0  0  0  0
  5 14  1  0  0  0  0
  7  8  1  6  0  0  0
  7  9  1  0  0  0  0
  9 10  1  1  0  0  0
  9 11  1  0  0  0  0
 11 12  1  6  0  0  0
 11 13  1  0  0  0  0
 13 14  1  0  0  0  0
 13 15  1  1  0  0  0
 15 16  1  0  0  0  0
M  CHG  1   3  -1
M  END
>  <CHROM.1>
55.75766994,-175.75302921,-175.97930317,46.91832934,11.51319417,12.70384505
-0.20843505,-0.10191603,2.39956030

>  <Name>
ligand

>  <RI>
0

>  <Rbt.Current_Directory>
/home/itssahil/PROJECTS/Mol_Feturizer/New_Systems/rnas/3B4B

>  <Rbt.Executable>
rbdock ($Id: //depot/dev/client3/rdock/2013.1/src/exe/rbdock.cxx#4 $)

>  <Rbt.Library>
libRbt.so (2013.1, Build901 2013/11/27)

>  <Rbt.Parameter_File>
/export/apps/rDock/src/rDock_2013.1_src/data/scripts/dock_solv.prm

>  <Rbt.Receptor>
prm/pocket_docking_4.prm

>  <SCORE>
-10.071

>  <SCORE.INTER>
-8.68579

>  <SCORE.INTER.CONST>
1

>  <SCORE.INTER.POLAR>
-1.125

>  <SCORE.INTER.ROT>
3

>  <SCORE.INTER.SOLV>
17.5684

>  <SCORE.INTER.VDW>
-13.4967

>  <SCORE.INTER.norm>
-0.542862

>  <SCORE.INTRA>
-1.38524

>  <SCORE.INTRA.DIHEDRAL>
-2.03758

>  <SCORE.INTRA.DIHEDRAL.0>
2.21864

>  <SCORE.INTRA.POLAR>
0

>  <SCORE.INTRA.POLAR.0>
0

>  <SCORE.INTRA.REPUL>
0

>  <SCORE.INTRA.REPUL.0>
0

>  <SCORE.INTRA.SOLV>
-0.165052

>  <SCORE.INTRA.SOLV.lig_0>
-58.5963

>  <SCORE.INTRA.VDW>
-0.283921

>  <SCORE.INTRA.VDW.0>
-0.437849

>  <SCORE.INTRA.norm>
-0.0865773

>  <SCORE.RESTR>
0

>  <SCORE.RESTR.CAVITY>
0

>  <SCORE.RESTR.norm>
0

>  <SCORE.SYSTEM>
0

>  <SCORE.SYSTEM.CONST>
0

>  <SCORE.SYSTEM.DIHEDRAL>
0

>  <SCORE.SYSTEM.SOLV>
0

>  <SCORE.SYSTEM.norm>
0

>  <SCORE.heavy>
16

>  <SCORE.norm>
-0.629439

>  <RMSD>
0.576

$$$$
ligand
 OpenBabel11021811463D
libRbt.so/2013.1/901 2013/11/27
 16 16  0  0  0  0  0  0  0  0999 V2000
   49.7510   12.0342   11.7639 P   0  0  2  0  0  0  0  0  0  0  0  0
   50.4543   13.2480   12.2468 O   0  0  0  0  0  0  0  0  0  0  0  0
   50.5361   10.7096   12.2331 O   0  5  0  0  0  0  0  0  0  0  0  0
   49.7008   12.0576   10.1449 O   0  0  0  0  0  0  0  0  0  0  0  0
   45.0189   10.9209   14.7866 C   0  0  2  0  0  0  0  0  0  0  0  0
   44.4375    9.6188   14.6253 O   0  0  0  0  0  0  0  0  0  0  0  0
   44.1053   12.0318   14.1958 C   0  0  2  0  0  0  0  0  0  0  0  0
   42.7785   11.9887   14.8492 N   0  0  0  0  0  0  0  0  0  0  0  0
   43.9575   11.7921   12.6784 C   0  0  1  0  0  0  0  0  0  0  0  0
   43.1324   12.8142   12.0919 O   0  0  0  0  0  0  0  0  0  0  0  0
   45.3583   11.8351   12.0505 C   0  0  2  0  0  0  0  0  0  0  0  0
   45.2576   11.6001   10.6390 O   0  0  0  0  0  0  0  0  0  0  0  0
   46.2225   10.7262   12.7071 C   0  0  2  0  0  0  0  0  0  0  0  0
   46.3245   10.9499   14.1429 O   0  0  0  0  0  0  0  0  0  0  0  0
   47.6383   10.7539   12.1052 C   0  0  0  0  0  0  0  0  0  0  0  0
   48.2624   12.0188   12.3916 O   0  0  0  0  0  0  0  0  0  0  0  0
  1  2  1  1  0  0  0
  1  3  1  0  0  0  0
  1  4  2  0  0  0  0
  1 16  1  0  0  0  0
  5  6  1  6  0  0  0
  5  7  1  0  0  0  0
  5 14  1  0  0  0  0
  7  8  1  1  0  0  0
  7  9  1  0  0  0  0
  9 10  1  6  0  0  0
  9 11  1  0  0  0  0
 11 12  1  6  0  0  0
 11 13  1  0  0  0  0
 13 14  1  0  0  0  0
 13 15  1  6  0  0  0
 15 16  1  0  0  0  0
M  CHG  1   3  -1
M  END
>  <CHROM.1>
62.12338898,179.63877552,-171.18558872,46.73874837,11.60579548,12.62625584
-0.32396033,-0.09028829,2.04822992

>  <Name>
ligand

>  <RI>
0

>  <Rbt.Current_Directory>
/home/itssahil/PROJECTS/Mol_Feturizer/New_Systems/rnas/3B4B

>  <Rbt.Executable>
rbdock ($Id: //depot/dev/client3/rdock/2013.1/src/exe/rbdock.cxx#4 $)

>  <Rbt.Library>
libRbt.so (2013.1, Build901 2013/11/27)

>  <Rbt.Parameter_File>
/export/apps/rDock/src/rDock_2013.1_src/data/scripts/dock_solv.prm

>  <Rbt.Receptor>
prm/pocket_docking_2.prm

>  <SCORE>
-10.3423

>  <SCORE.INTER>
-8.90773

>  <SCORE.INTER.CONST>
1

>  <SCORE.INTER.POLAR>
-1.125

>  <SCORE.INTER.ROT>
3

>  <SCORE.INTER.SOLV>
18.2553

>  <SCORE.INTER.VDW>
-13.8736

>  <SCORE.INTER.norm>
-0.556733

>  <SCORE.INTRA>
-1.43458

>  <SCORE.INTRA.DIHEDRAL>
-2.07286

>  <SCORE.INTRA.DIHEDRAL.0>
2.21864

>  <SCORE.INTRA.POLAR>
0

>  <SCORE.INTRA.POLAR.0>
0

>  <SCORE.INTRA.REPUL>
0

>  <SCORE.INTRA.REPUL.0>
0

>  <SCORE.INTRA.SOLV>
-0.26921

>  <SCORE.INTRA.SOLV.lig_0>
-58.5963

>  <SCORE.INTRA.VDW>
-0.263545

>  <SCORE.INTRA.VDW.0>
-0.437849

>  <SCORE.INTRA.norm>
-0.0896612

>  <SCORE.RESTR>
0

>  <SCORE.RESTR.CAVITY>
0

>  <SCORE.RESTR.norm>
0

>  <SCORE.SYSTEM>
0

>  <SCORE.SYSTEM.CONST>
0

>  <SCORE.SYSTEM.DIHEDRAL>
0

>  <SCORE.SYSTEM.SOLV>
0

>  <SCORE.SYSTEM.norm>
0

>  <SCORE.heavy>
16

>  <SCORE.norm>
-0.646394

>  <RMSD>
0.582

$$$$
ligand
 OpenBabel11021811463D
libRbt.so/2013.1/901 2013/11/27
 16 16  0  0  0  0  0  0  0  0999 V2000
   49.7574   12.0383   11.5648 P   0  0  2  0  0  0  0  0  0  0  0  0
   50.3821   13.3639   11.7958 O   0  0  0  0  0  0  0  0  0  0  0  0
   50.7899   10.8612   11.9379 O   0  5  0  0  0  0  0  0  0  0  0  0
   49.3636   11.9018    9.9993 O   0  0  0  0  0  0  0  0  0  0  0  0
   45.0038   10.7599   14.7564 C   0  0  2  0  0  0  0  0  0  0  0  0
   44.3079    9.5638   14.3761 O   0  0  0  0  0  0  0  0  0  0  0  0
   44.2624   12.0340   14.2621 C   0  0  2  0  0  0  0  0  0  0  0  0
   42.8875   12.0566   14.8083 N   0  0  0  0  0  0  0  0  0  0  0  0
   44.2202   12.0118   12.7195 C   0  0  1  0  0  0  0  0  0  0  0  0
   43.5570   13.1880   12.2235 O   0  0  0  0  0  0  0  0  0  0  0  0
   45.6663   11.9774   12.2039 C   0  0  2  0  0  0  0  0  0  0  0  0
   45.6623   11.9406   10.7698 O   0  0  0  0  0  0  0  0  0  0  0  0
   46.3535   10.7022   12.7599 C   0  0  2  0  0  0  0  0  0  0  0  0
   46.3555   10.7245   14.2164 O   0  0  0  0  0  0  0  0  0  0  0  0
   47.8106   10.6477   12.2687 C   0  0  0  0  0  0  0  0  0  0  0  0
   48.4500   11.9152   12.5060 O   0  0  0  0  0  0  0  0  0  0  0  0
  1  2  1  1  0  0  0
  1  3  1  0  0  0  0
  1  4  2  0  0  0  0
  1 16  1  0  0  0  0
  5  6  1  6  0  0  0
  5  7  1  0  0  0  0
  5 14  1  0  0  0  0
  7  8  1  1  0  0  0
  7  9  1  0  0  0  0
  9 10  1  6  0  0  0
  9 11  1  0  0  0  0
 11 12  1  6  0  0  0
 11 13  1  0  0  0  0
 13 14  1  0  0  0  0
 13 15  1  6  0  0  0
 15 16  1  0  0  0  0
M  CHG  1   3  -1
M  END
>  <CHROM.1>
49.14528609,-160.61277869,178.49989069,46.84715160,11.64146433,12.57941081
0.34084373,0.19704375,-0.88307488

>  <Name>
ligand

>  <RI>
0

>  <Rbt.Current_Directory>
/home/itssahil/PROJECTS/Mol_Feturizer/New_Systems/rnas/3B4B

>  <Rbt.Executable>
rbdock ($Id: //depot/dev/client3/rdock/2013.1/src/exe/rbdock.cxx#4 $)

>  <Rbt.Library>
libRbt.so (2013.1, Build901 2013/11/27)

>  <Rbt.Parameter_File>
/export/apps/rDock/src/rDock_2013.1_src/data/scripts/dock_solv.prm

>  <Rbt.Receptor>
prm/pocket_docking_3.prm

>  <SCORE>
-8.86505

>  <SCORE.INTER>
-8.76233

>  <SCORE.INTER.CONST>
1

>  <SCORE.INTER.POLAR>
-1.125

>  <SCORE.INTER.ROT>
3

>  <SCORE.INTER.SOLV>
18.0562

>  <SCORE.INTER.VDW>
-13.7103

>  <SCORE.INTER.norm>
-0.547645

>  <SCORE.INTRA>
-0.102723

>  <SCORE.INTRA.DIHEDRAL>
-0.100462

>  <SCORE.INTRA.DIHEDRAL.0>
2.21864

>  <SCORE.INTRA.POLAR>
0

>  <SCORE.INTRA.POLAR.0>
0

>  <SCORE.INTRA.REPUL>
0

>  <SCORE.INTRA.REPUL.0>
0

>  <SCORE.INTRA.SOLV>
0.53705

>  <SCORE.INTRA.SOLV.lig_0>
-58.5963

>  <SCORE.INTRA.VDW>
-0.321017

>  <SCORE.INTRA.VDW.0>
-0.437849

>  <SCORE.INTRA.norm>
-0.00642022

>  <SCORE.RESTR>
0

>  <SCORE.RESTR.CAVITY>
0

>  <SCORE.RESTR.norm>
0

>  <SCORE.SYSTEM>
0

>  <SCORE.SYSTEM.CONST>
0

>  <SCORE.SYSTEM.DIHEDRAL>
0

>  <SCORE.SYSTEM.SOLV>
0

>  <SCORE.SYSTEM.norm>
0

>  <SCORE.heavy>
16

>  <SCORE.norm>
-0.554066

>  <RMSD>
0.583

$$$$
ligand
 OpenBabel11021811463D
libRbt.so/2013.1/901 2013/11/27
 16 16  0  0  0  0  0  0  0  0999 V2000
   49.7637   12.0464   11.7847 P   0  0  2  0  0  0  0  0  0  0  0  0
   50.4397   13.2871   12.2373 O   0  0  0  0  0  0  0  0  0  0  0  0
   50.6484   10.7569   12.1664 O   0  5  0  0  0  0  0  0  0  0  0  0
   49.5884   12.0934   10.1750 O   0  0  0  0  0  0  0  0  0  0  0  0
   45.0678   10.8594   14.8094 C   0  0  2  0  0  0  0  0  0  0  0  0
   44.5116    9.5452   14.6570 O   0  0  0  0  0  0  0  0  0  0  0  0
   44.1262   11.9497   14.2244 C   0  0  2  0  0  0  0  0  0  0  0  0
   42.8068   11.8814   14.8906 N   0  0  0  0  0  0  0  0  0  0  0  0
   43.9688   11.7029   12.7091 C   0  0  1  0  0  0  0  0  0  0  0  0
   43.1176   12.7063   12.1279 O   0  0  0  0  0  0  0  0  0  0  0  0
   45.3625   11.7726   12.0679 C   0  0  2  0  0  0  0  0  0  0  0  0
   45.2532   11.5317   10.6579 O   0  0  0  0  0  0  0  0  0  0  0  0
   46.2554   10.6835   12.7190 C   0  0  2  0  0  0  0  0  0  0  0  0
   46.3664   10.9132   14.1532 O   0  0  0  0  0  0  0  0  0  0  0  0
   47.6645   10.7384   12.1035 C   0  0  0  0  0  0  0  0  0  0  0  0
   48.3303   11.9435   12.5229 O   0  0  0  0  0  0  0  0  0  0  0  0
  1  2  1  1  0  0  0
  1  3  1  0  0  0  0
  1  4  2  0  0  0  0
  1 16  1  0  0  0  0
  5  6  1  6  0  0  0
  5  7  1  0  0  0  0
  5 14  1  0  0  0  0
  7  8  1  1  0  0  0
  7  9  1  0  0  0  0
  9 10  1  6  0  0  0
  9 11  1  0  0  0  0
 11 12  1  6  0  0  0
 11 13  1  0  0  0  0
 13 14  1  0  0  0  0
 13 15  1  6  0  0  0
 15 16  1  0  0  0  0
M  CHG  1   3  -1
M  END
>  <CHROM.1>
69.42415106,-175.79363792,-179.52392944,46.75895193,11.56779176,12.64832863
-0.33258486,-0.07286882,2.03851180

>  <Name>
ligand

>  <RI>
0

>  <Rbt.Current_Directory>
/home/itssahil/PROJECTS/Mol_Feturizer/New_Systems/rnas/3B4B

>  <Rbt.Executable>
rbdock ($Id: //depot/dev/client3/rdock/2013.1/src/exe/rbdock.cxx#4 $)

>  <Rbt.Library>
libRbt.so (2013.1, Build901 2013/11/27)

>  <Rbt.Parameter_File>
/export/apps/rDock/src/rDock_2013.1_src/data/scripts/dock_solv.prm

>  <Rbt.Receptor>
prm/pocket_docking_2.prm

>  <SCORE>
-10.2729

>  <SCORE.INTER>
-8.89097

>  <SCORE.INTER.CONST>
1

>  <SCORE.INTER.POLAR>
-1.125

>  <SCORE.INTER.ROT>
3

>  <SCORE.INTER.SOLV>
18.3944

>  <SCORE.INTER.VDW>
-13.9088

>  <SCORE.INTER.norm>
-0.555686

>  <SCORE.INTRA>
-1.38196

>  <SCORE.INTRA.DIHEDRAL>
-1.81444

>  <SCORE.INTRA.DIHEDRAL.0>
2.21864

>  <SCORE.INTRA.POLAR>
0

>  <SCORE.INTRA.POLAR.0>
0

>  <SCORE.INTRA.REPUL>
0

>  <SCORE.INTRA.REPUL.0>
0

>  <SCORE.INTRA.SOLV>
-0.227829

>  <SCORE.INTRA.SOLV.lig_0>
-58.5963

>  <SCORE.INTRA.VDW>
-0.360828

>  <SCORE.INTRA.VDW.0>
-0.437849

>  <SCORE.INTRA.norm>
-0.0863727

>  <SCORE.RESTR>
0

>  <SCORE.RESTR.CAVITY>
0

>  <SCORE.RESTR.norm>
0

>  <SCORE.SYSTEM>
0

>  <SCORE.SYSTEM.CONST>
0

>  <SCORE.SYSTEM.DIHEDRAL>
0

>  <SCORE.SYSTEM.SOLV>
0

>  <SCORE.SYSTEM.norm>
0

>  <SCORE.heavy>
16

>  <SCORE.norm>
-0.642058

>  <RMSD>
0.585

$$$$
ligand
 OpenBabel11021811463D
libRbt.so/2013.1/901 2013/11/27
 16 16  0  0  0  0  0  0  0  0999 V2000
   49.9862   11.9991   11.8590 P   0  0  2  0  0  0  0  0  0  0  0  0
   50.2762   13.3472   11.3117 O   0  0  0  0  0  0  0  0  0  0  0  0
   50.9757   11.6689   13.0850 O   0  5  0  0  0  0  0  0  0  0  0  0
   50.2169   10.8931   10.6981 O   0  0  0  0  0  0  0  0  0  0  0  0
   45.0643   10.8369   14.8483 C   0  0  2  0  0  0  0  0  0  0  0  0
   44.5369    9.5138   14.6723 O   0  0  0  0  0  0  0  0  0  0  0  0
   44.2228   11.8943   14.0793 C   0  0  2  0  0  0  0  0  0  0  0  0
   42.8177   11.8474   14.5403 N   0  0  0  0  0  0  0  0  0  0  0  0
   44.2969   11.5798   12.5702 C   0  0  1  0  0  0  0  0  0  0  0  0
   43.5442   12.5511   11.8225 O   0  0  0  0  0  0  0  0  0  0  0  0
   45.7717   11.6297   12.1450 C   0  0  2  0  0  0  0  0  0  0  0  0
   45.8774   11.3260   10.7470 O   0  0  0  0  0  0  0  0  0  0  0  0
   46.5549   10.5760   12.9719 C   0  0  2  0  0  0  0  0  0  0  0  0
   46.4474   10.8697   14.3947 O   0  0  0  0  0  0  0  0  0  0  0  0
   48.0411   10.6124   12.5752 C   0  0  0  0  0  0  0  0  0  0  0  0
   48.4600   11.9767   12.3883 O   0  0  0  0  0  0  0  0  0  0  0  0
  1  2  1  6  0  0  0
  1  3  1  0  0  0  0
  1  4  2  0  0  0  0
  1 16  1  0  0  0  0
  5  6  1  6  0  0  0
  5  7  1  0  0  0  0
  5 14  1  0  0  0  0
  7  8  1  1  0  0  0
  7  9  1  0  0  0  0
  9 10  1  6  0  0  0
  9 11  1  0  0  0  0
 11 12  1  6  0  0  0
 11 13  1  0  0  0  0
 13 14  1  0  0  0  0
 13 15  1  6  0  0  0
 15 16  1  0  0  0  0
M  CHG  1   3  -1
M  END
>  <CHROM.1>
40.12160823,-175.54532511,164.19539457,46.99816326,11.48975473,12.69542070
0.31651983,0.05372754,-1.09718824

>  <Name>
ligand

>  <RI>
0

>  <Rbt.Current_Directory>
/home/itssahil/PROJECTS/Mol_Feturizer/New_Systems/rnas/3B4B

>  <Rbt.Executable>
rbdock ($Id: //depot/dev/client3/rdock/2013.1/src/exe/rbdock.cxx#4 $)

>  <Rbt.Library>
libRbt.so (2013.1, Build901 2013/11/27)

>  <Rbt.Parameter_File>
/export/apps/rDock/src/rDock_2013.1_src/data/scripts/dock_solv.prm

>  <Rbt.Receptor>
prm/pocket_docking_2.prm

>  <SCORE>
-9.03964

>  <SCORE.INTER>
-8.83784

>  <SCORE.INTER.CONST>
1

>  <SCORE.INTER.POLAR>
-1.125

>  <SCORE.INTER.ROT>
3

>  <SCORE.INTER.SOLV>
18.3494

>  <SCORE.INTER.VDW>
-13.8584

>  <SCORE.INTER.norm>
-0.552365

>  <SCORE.INTRA>
-0.201801

>  <SCORE.INTRA.DIHEDRAL>
-0.433901

>  <SCORE.INTRA.DIHEDRAL.0>
2.21864

>  <SCORE.INTRA.POLAR>
0

>  <SCORE.INTRA.POLAR.0>
0

>  <SCORE.INTRA.REPUL>
0

>  <SCORE.INTRA.REPUL.0>
0

>  <SCORE.INTRA.SOLV>
-0.122908

>  <SCORE.INTRA.SOLV.lig_0>
-58.5963

>  <SCORE.INTRA.VDW>
0.0766033

>  <SCORE.INTRA.VDW.0>
-0.437849

>  <SCORE.INTRA.norm>
-0.0126126

>  <SCORE.RESTR>
0

>  <SCORE.RESTR.CAVITY>
0

>  <SCORE.RESTR.norm>
0

>  <SCORE.SYSTEM>
0

>  <SCORE.SYSTEM.CONST>
0

>  <SCORE.SYSTEM.DIHEDRAL>
0

>  <SCORE.SYSTEM.SOLV>
0

>  <SCORE.SYSTEM.norm>
0

>  <SCORE.heavy>
16

>  <SCORE.norm>
-0.564977

>  <RMSD>
0.592

$$$$
ligand
 OpenBabel11021811463D
libRbt.so/2013.1/901 2013/11/27
 16 16  0  0  0  0  0  0  0  0999 V2000
   49.9305   12.0755   11.9741 P   0  0  2  0  0  0  0  0  0  0  0  0
   50.6492   13.2044   12.6145 O   0  0  0  0  0  0  0  0  0  0  0  0
   50.6660   10.6832   12.3082 O   0  5  0  0  0  0  0  0  0  0  0  0
   49.9320   12.2871   10.3681 O   0  0  0  0  0  0  0  0  0  0  0  0
   44.9934   10.7065   14.5742 C   0  0  2  0  0  0  0  0  0  0  0  0
   44.3326    9.5148   14.1239 O   0  0  0  0  0  0  0  0  0  0  0  0
   44.1957   11.9835   14.1864 C   0  0  2  0  0  0  0  0  0  0  0  0
   42.8335   11.9161   14.7601 N   0  0  0  0  0  0  0  0  0  0  0  0
   44.1196   12.0680   12.6473 C   0  0  1  0  0  0  0  0  0  0  0  0
   43.4035   13.2504   12.2493 O   0  0  0  0  0  0  0  0  0  0  0  0
   45.5540   12.1241   12.1017 C   0  0  2  0  0  0  0  0  0  0  0  0
   45.5190   12.1879   10.6690 O   0  0  0  0  0  0  0  0  0  0  0  0
   46.2989   10.8397   12.5520 C   0  0  2  0  0  0  0  0  0  0  0  0
   46.3330   10.7598   14.0062 O   0  0  0  0  0  0  0  0  0  0  0  0
   47.7456   10.8745   12.0293 C   0  0  0  0  0  0  0  0  0  0  0  0
   48.4229   12.0313   12.5533 O   0  0  0  0  0  0  0  0  0  0  0  0
  1  2  1  1  0  0  0
  1  3  1  0  0  0  0
  1  4  2  0  0  0  0
  1 16  1  0  0  0  0
  5  6  1  6  0  0  0
  5  7  1  0  0  0  0
  5 14  1  0  0  0  0
  7  8  1  1  0  0  0
  7  9  1  0  0  0  0
  9 10  1  1  0  0  0
  9 11  1  0  0  0  0
 11 12  1  6  0  0  0
 11 13  1  0  0  0  0
 13 14  1  0  0  0  0
 13 15  1  1  0  0  0
 15 16  1  0  0  0  0
M  CHG  1   3  -1
M  END
>  <CHROM.1>
59.80197269,-178.81737097,-175.14067502,46.86875601,11.69227337,12.64840512
-0.25631307,-0.12937386,2.27003573

>  <Name>
ligand

>  <RI>
0

>  <Rbt.Current_Directory>
/home/itssahil/PROJECTS/Mol_Feturizer/New_Systems/rnas/3B4B

>  <Rbt.Executable>
rbdock ($Id: //depot/dev/client3/rdock/2013.1/src/exe/rbdock.cxx#4 $)

>  <Rbt.Library>
libRbt.so (2013.1, Build901 2013/11/27)

>  <Rbt.Parameter_File>
/export/apps/rDock/src/rDock_2013.1_src/data/scripts/dock_solv.prm

>  <Rbt.Receptor>
prm/pocket_docking_5.prm

>  <SCORE>
-10.3013

>  <SCORE.INTER>
-8.78197

>  <SCORE.INTER.CONST>
1

>  <SCORE.INTER.POLAR>
-1.12336

>  <SCORE.INTER.ROT>
3

>  <SCORE.INTER.SOLV>
17.6989

>  <SCORE.INTER.VDW>
-13.6097

>  <SCORE.INTER.norm>
-0.548873

>  <SCORE.INTRA>
-1.5193

>  <SCORE.INTRA.DIHEDRAL>
-2.17107

>  <SCORE.INTRA.DIHEDRAL.0>
2.21864

>  <SCORE.INTRA.POLAR>
0

>  <SCORE.INTRA.POLAR.0>
0

>  <SCORE.INTRA.REPUL>
0

>  <SCORE.INTRA.REPUL.0>
0

>  <SCORE.INTRA.SOLV>
-0.263033

>  <SCORE.INTRA.SOLV.lig_0>
-58.5963

>  <SCORE.INTRA.VDW>
-0.302246

>  <SCORE.INTRA.VDW.0>
-0.437849

>  <SCORE.INTRA.norm>
-0.0949562

>  <SCORE.RESTR>
0

>  <SCORE.RESTR.CAVITY>
0

>  <SCORE.RESTR.norm>
0

>  <SCORE.SYSTEM>
0

>  <SCORE.SYSTEM.CONST>
0

>  <SCORE.SYSTEM.DIHEDRAL>
0

>  <SCORE.SYSTEM.SOLV>
0

>  <SCORE.SYSTEM.norm>
0

>  <SCORE.heavy>
16

>  <SCORE.norm>
-0.643829

>  <RMSD>
0.595

$$$$
ligand
 OpenBabel11021811463D
libRbt.so/2013.1/901 2013/11/27
 16 16  0  0  0  0  0  0  0  0999 V2000
   49.7556   12.0517   11.9116 P   0  0  2  0  0  0  0  0  0  0  0  0
   50.4106   13.2750   12.4366 O   0  0  0  0  0  0  0  0  0  0  0  0
   50.6956   10.7673   12.1521 O   0  5  0  0  0  0  0  0  0  0  0  0
   49.5116   12.2211   10.3191 O   0  0  0  0  0  0  0  0  0  0  0  0
   44.6984   10.4379   14.4141 C   0  0  2  0  0  0  0  0  0  0  0  0
   43.9549    9.4322   13.7102 O   0  0  0  0  0  0  0  0  0  0  0  0
   44.0775   11.8498   14.2176 C   0  0  2  0  0  0  0  0  0  0  0  0
   42.6720   11.8473   14.6800 N   0  0  0  0  0  0  0  0  0  0  0  0
   44.1423   12.2119   12.7187 C   0  0  1  0  0  0  0  0  0  0  0  0
   43.5930   13.5233   12.5001 O   0  0  0  0  0  0  0  0  0  0  0  0
   45.6157   12.1898   12.2866 C   0  0  2  0  0  0  0  0  0  0  0  0
   45.7100   12.5080   10.8909 O   0  0  0  0  0  0  0  0  0  0  0  0
   46.1782   10.7660   12.5396 C   0  0  2  0  0  0  0  0  0  0  0  0
   46.0795   10.4285   13.9533 O   0  0  0  0  0  0  0  0  0  0  0  0
   47.6596   10.7177   12.1267 C   0  0  0  0  0  0  0  0  0  0  0  0
   48.3583   11.8405   12.6946 O   0  0  0  0  0  0  0  0  0  0  0  0
  1  2  1  1  0  0  0
  1  3  1  0  0  0  0
  1  4  2  0  0  0  0
  1 16  1  0  0  0  0
  5  6  1  6  0  0  0
  5  7  1  0  0  0  0
  5 14  1  0  0  0  0
  7  8  1  6  0  0  0
  7  9  1  0  0  0  0
  9 10  1  1  0  0  0
  9 11  1  0  0  0  0
 11 12  1  6  0  0  0
 11 13  1  0  0  0  0
 13 14  1  0  0  0  0
 13 15  1  1  0  0  0
 15 16  1  0  0  0  0
M  CHG  1   3  -1
M  END
>  <CHROM.1>
48.49224736,-162.46091475,175.55352735,46.75033059,11.66792559,12.63268503
0.23726245,0.20016226,-0.61600223

>  <Name>
ligand

>  <RI>
0

>  <Rbt.Current_Directory>
/home/itssahil/PROJECTS/Mol_Feturizer/New_Systems/rnas/3B4B

>  <Rbt.Executable>
rbdock ($Id: //depot/dev/client3/rdock/2013.1/src/exe/rbdock.cxx#4 $)

>  <Rbt.Library>
libRbt.so (2013.1, Build901 2013/11/27)

>  <Rbt.Parameter_File>
/export/apps/rDock/src/rDock_2013.1_src/data/scripts/dock_solv.prm

>  <Rbt.Receptor>
prm/pocket_docking_3.prm

>  <SCORE>
-9.11684

>  <SCORE.INTER>
-8.88689

>  <SCORE.INTER.CONST>
1

>  <SCORE.INTER.POLAR>
-1.12467

>  <SCORE.INTER.ROT>
3

>  <SCORE.INTER.SOLV>
17.4987

>  <SCORE.INTER.VDW>
-13.6086

>  <SCORE.INTER.norm>
-0.555431

>  <SCORE.INTRA>
-0.229949

>  <SCORE.INTRA.DIHEDRAL>
-0.309441

>  <SCORE.INTRA.DIHEDRAL.0>
2.21864

>  <SCORE.INTRA.POLAR>
0

>  <SCORE.INTRA.POLAR.0>
0

>  <SCORE.INTRA.REPUL>
0

>  <SCORE.INTRA.REPUL.0>
0

>  <SCORE.INTRA.SOLV>
0.436349

>  <SCORE.INTRA.SOLV.lig_0>
-58.5963

>  <SCORE.INTRA.VDW>
-0.293403

>  <SCORE.INTRA.VDW.0>
-0.437849

>  <SCORE.INTRA.norm>
-0.0143718

>  <SCORE.RESTR>
0

>  <SCORE.RESTR.CAVITY>
0

>  <SCORE.RESTR.norm>
0

>  <SCORE.SYSTEM>
0

>  <SCORE.SYSTEM.CONST>
0

>  <SCORE.SYSTEM.DIHEDRAL>
0

>  <SCORE.SYSTEM.SOLV>
0

>  <SCORE.SYSTEM.norm>
0

>  <SCORE.heavy>
16

>  <SCORE.norm>
-0.569803

>  <RMSD>
0.601

$$$$
ligand
 OpenBabel11021811463D
libRbt.so/2013.1/901 2013/11/27
 16 16  0  0  0  0  0  0  0  0999 V2000
   50.0220   12.0459   12.0360 P   0  0  2  0  0  0  0  0  0  0  0  0
   50.7224   13.1910   12.6678 O   0  0  0  0  0  0  0  0  0  0  0  0
   50.8132   10.6754   12.3307 O   0  5  0  0  0  0  0  0  0  0  0  0
   49.9670   12.2751   10.4333 O   0  0  0  0  0  0  0  0  0  0  0  0
   45.0839   10.6508   14.6038 C   0  0  2  0  0  0  0  0  0  0  0  0
   44.4398    9.4467   14.1622 O   0  0  0  0  0  0  0  0  0  0  0  0
   44.2728   11.9141   14.1991 C   0  0  2  0  0  0  0  0  0  0  0  0
   42.9086   11.8360   14.7665 N   0  0  0  0  0  0  0  0  0  0  0  0
   44.2036   11.9822   12.6588 C   0  0  1  0  0  0  0  0  0  0  0  0
   43.4754   13.1517   12.2452 O   0  0  0  0  0  0  0  0  0  0  0  0
   45.6400   12.0501   12.1199 C   0  0  2  0  0  0  0  0  0  0  0  0
   45.6117   12.0991   10.6865 O   0  0  0  0  0  0  0  0  0  0  0  0
   46.3981   10.7794   12.5870 C   0  0  2  0  0  0  0  0  0  0  0  0
   46.4256   10.7146   14.0420 O   0  0  0  0  0  0  0  0  0  0  0  0
   47.8469   10.8265   12.0712 C   0  0  0  0  0  0  0  0  0  0  0  0
   48.5353   11.9448   12.6602 O   0  0  0  0  0  0  0  0  0  0  0  0
  1  2  1  1  0  0  0
  1  3  1  0  0  0  0
  1  4  2  0  0  0  0
  1 16  1  0  0  0  0
  5  6  1  6  0  0  0
  5  7  1  0  0  0  0
  5 14  1  0  0  0  0
  7  8  1  1  0  0  0
  7  9  1  0  0  0  0
  9 10  1  1  0  0  0
  9 11  1  0  0  0  0
 11 12  1  6  0  0  0
 11 13  1  0  0  0  0
 13 14  1  0  0  0  0
 13 15  1  1  0  0  0
 15 16  1  0  0  0  0
M  CHG  1   3  -1
M  END
>  <CHROM.1>
63.77768851,-176.13032095,-179.21382692,46.95882722,11.63698329,12.68550840
-0.25635817,-0.11479138,2.25712511

>  <Name>
ligand

>  <RI>
0

>  <Rbt.Current_Directory>
/home/itssahil/PROJECTS/Mol_Feturizer/New_Systems/rnas/3B4B

>  <Rbt.Executable>
rbdock ($Id: //depot/dev/client3/rdock/2013.1/src/exe/rbdock.cxx#4 $)

>  <Rbt.Library>
libRbt.so (2013.1, Build901 2013/11/27)

>  <Rbt.Parameter_File>
/export/apps/rDock/src/rDock_2013.1_src/data/scripts/dock_solv.prm

>  <Rbt.Receptor>
prm/pocket_docking_4.prm

>  <SCORE>
-10.2683

>  <SCORE.INTER>
-8.75985

>  <SCORE.INTER.CONST>
1

>  <SCORE.INTER.POLAR>
-1.12437

>  <SCORE.INTER.ROT>
3

>  <SCORE.INTER.SOLV>
17.9589

>  <SCORE.INTER.VDW>
-13.6783

>  <SCORE.INTER.norm>
-0.54749

>  <SCORE.INTRA>
-1.50844

>  <SCORE.INTRA.DIHEDRAL>
-2.09121

>  <SCORE.INTRA.DIHEDRAL.0>
2.21864

>  <SCORE.INTRA.POLAR>
0

>  <SCORE.INTRA.POLAR.0>
0

>  <SCORE.INTRA.REPUL>
0

>  <SCORE.INTRA.REPUL.0>
0

>  <SCORE.INTRA.SOLV>
-0.21095

>  <SCORE.INTRA.SOLV.lig_0>
-58.5963

>  <SCORE.INTRA.VDW>
-0.357359

>  <SCORE.INTRA.VDW.0>
-0.437849

>  <SCORE.INTRA.norm>
-0.0942774

>  <SCORE.RESTR>
0

>  <SCORE.RESTR.CAVITY>
0

>  <SCORE.RESTR.norm>
0

>  <SCORE.SYSTEM>
0

>  <SCORE.SYSTEM.CONST>
0

>  <SCORE.SYSTEM.DIHEDRAL>
0

>  <SCORE.SYSTEM.SOLV>
0

>  <SCORE.SYSTEM.norm>
0

>  <SCORE.heavy>
16

>  <SCORE.norm>
-0.641768

>  <RMSD>
0.603

$$$$
ligand
 OpenBabel11021811463D
libRbt.so/2013.1/901 2013/11/27
 16 16  0  0  0  0  0  0  0  0999 V2000
   49.7682   12.0281   11.9171 P   0  0  2  0  0  0  0  0  0  0  0  0
   50.4988   13.2015   12.4560 O   0  0  0  0  0  0  0  0  0  0  0  0
   50.5299   10.6660   12.3116 O   0  5  0  0  0  0  0  0  0  0  0  0
   49.7075   12.1357   10.3018 O   0  0  0  0  0  0  0  0  0  0  0  0
   44.8897   10.8485   14.6990 C   0  0  2  0  0  0  0  0  0  0  0  0
   44.2172    9.6320   14.3419 O   0  0  0  0  0  0  0  0  0  0  0  0
   44.0828   12.0999   14.2514 C   0  0  2  0  0  0  0  0  0  0  0  0
   42.7356   12.0717   14.8625 N   0  0  0  0  0  0  0  0  0  0  0  0
   43.9677   12.0870   12.7124 C   0  0  1  0  0  0  0  0  0  0  0  0
   43.2421   13.2432   12.2586 O   0  0  0  0  0  0  0  0  0  0  0  0
   45.3878   12.1056   12.1283 C   0  0  2  0  0  0  0  0  0  0  0  0
   45.3165   12.0787   10.6958 O   0  0  0  0  0  0  0  0  0  0  0  0
   46.1435   10.8508   12.6401 C   0  0  2  0  0  0  0  0  0  0  0  0
   46.2144   10.8631   14.0951 O   0  0  0  0  0  0  0  0  0  0  0  0
   47.5765   10.8496   12.0798 C   0  0  0  0  0  0  0  0  0  0  0  0
   48.2839   12.0096   12.5546 O   0  0  0  0  0  0  0  0  0  0  0  0
  1  2  1  1  0  0  0
  1  3  1  0  0  0  0
  1  4  2  0  0  0  0
  1 16  1  0  0  0  0
  5  6  1  6  0  0  0
  5  7  1  0  0  0  0
  5 14  1  0  0  0  0
  7  8  1  1  0  0  0
  7  9  1  0  0  0  0
  9 10  1  6  0  0  0
  9 11  1  0  0  0  0
 11 12  1  6  0  0  0
 11 13  1  0  0  0  0
 13 14  1  0  0  0  0
 13 15  1  6  0  0  0
 15 16  1  0  0  0  0
M  CHG  1   3  -1
M  END
>  <CHROM.1>
62.03133203,-177.90306130,-177.93192552,46.71911397,11.70199441,12.67679011
-0.27079781,-0.14417618,2.20092998

>  <Name>
ligand

>  <RI>
0

>  <Rbt.Current_Directory>
/home/itssahil/PROJECTS/Mol_Feturizer/New_Systems/rnas/3B4B

>  <Rbt.Executable>
rbdock ($Id: //depot/dev/client3/rdock/2013.1/src/exe/rbdock.cxx#4 $)

>  <Rbt.Library>
libRbt.so (2013.1, Build901 2013/11/27)

>  <Rbt.Parameter_File>
/export/apps/rDock/src/rDock_2013.1_src/data/scripts/dock_solv.prm

>  <Rbt.Receptor>
prm/pocket_docking_3.prm

>  <SCORE>
-10.3053

>  <SCORE.INTER>
-8.75316

>  <SCORE.INTER.CONST>
1

>  <SCORE.INTER.POLAR>
-1.12481

>  <SCORE.INTER.ROT>
3

>  <SCORE.INTER.SOLV>
18.2025

>  <SCORE.INTER.VDW>
-13.7536

>  <SCORE.INTER.norm>
-0.547072

>  <SCORE.INTRA>
-1.55219

>  <SCORE.INTRA.DIHEDRAL>
-2.1736

>  <SCORE.INTRA.DIHEDRAL.0>
2.21864

>  <SCORE.INTRA.POLAR>
0

>  <SCORE.INTRA.POLAR.0>
0

>  <SCORE.INTRA.REPUL>
0

>  <SCORE.INTRA.REPUL.0>
0

>  <SCORE.INTRA.SOLV>
-0.25287

>  <SCORE.INTRA.SOLV.lig_0>
-58.5963

>  <SCORE.INTRA.VDW>
-0.338956

>  <SCORE.INTRA.VDW.0>
-0.437849

>  <SCORE.INTRA.norm>
-0.0970118

>  <SCORE.RESTR>
0

>  <SCORE.RESTR.CAVITY>
0

>  <SCORE.RESTR.norm>
0

>  <SCORE.SYSTEM>
0

>  <SCORE.SYSTEM.CONST>
0

>  <SCORE.SYSTEM.DIHEDRAL>
0

>  <SCORE.SYSTEM.SOLV>
0

>  <SCORE.SYSTEM.norm>
0

>  <SCORE.heavy>
16

>  <SCORE.norm>
-0.644084

>  <RMSD>
0.605

$$$$
ligand
 OpenBabel11021811463D
libRbt.so/2013.1/901 2013/11/27
 16 16  0  0  0  0  0  0  0  0999 V2000
   50.0254   11.9613   12.1363 P   0  0  2  0  0  0  0  0  0  0  0  0
   50.7444   13.0843   12.7867 O   0  0  0  0  0  0  0  0  0  0  0  0
   50.7279   10.5604   12.5036 O   0  5  0  0  0  0  0  0  0  0  0  0
   50.0758   12.1577   10.5291 O   0  0  0  0  0  0  0  0  0  0  0  0
   45.0319   10.7438   14.6850 C   0  0  2  0  0  0  0  0  0  0  0  0
   44.3932    9.5156   14.3066 O   0  0  0  0  0  0  0  0  0  0  0  0
   44.2310   11.9808   14.1888 C   0  0  2  0  0  0  0  0  0  0  0  0
   42.8566   11.9392   14.7352 N   0  0  0  0  0  0  0  0  0  0  0  0
   44.1897   11.9542   12.6463 C   0  0  1  0  0  0  0  0  0  0  0  0
   43.4716   13.0969   12.1486 O   0  0  0  0  0  0  0  0  0  0  0  0
   45.6357   11.9873   12.1304 C   0  0  2  0  0  0  0  0  0  0  0  0
   45.6333   11.9482   10.6964 O   0  0  0  0  0  0  0  0  0  0  0  0
   46.3825   10.7469   12.6882 C   0  0  2  0  0  0  0  0  0  0  0  0
   46.3836   10.7716   14.1447 O   0  0  0  0  0  0  0  0  0  0  0  0
   47.8405   10.7606   12.1969 C   0  0  0  0  0  0  0  0  0  0  0  0
   48.5015   11.9473   12.6727 O   0  0  0  0  0  0  0  0  0  0  0  0
  1  2  1  1  0  0  0
  1  3  1  0  0  0  0
  1  4  2  0  0  0  0
  1 16  1  0  0  0  0
  5  6  1  6  0  0  0
  5  7  1  0  0  0  0
  5 14  1  0  0  0  0
  7  8  1  1  0  0  0
  7  9  1  0  0  0  0
  9 10  1  6  0  0  0
  9 11  1  0  0  0  0
 11 12  1  6  0  0  0
 11 13  1  0  0  0  0
 13 14  1  0  0  0  0
 13 15  1  6  0  0  0
 15 16  1  0  0  0  0
M  CHG  1   3  -1
M  END
>  <CHROM.1>
60.88114217,-179.29596197,-172.17635287,46.94567040,11.60411183,12.74742963
-0.23814696,-0.10557821,2.19760235

>  <Name>
ligand

>  <RI>
0

>  <Rbt.Current_Directory>
/home/itssahil/PROJECTS/Mol_Feturizer/New_Systems/rnas/3B4B

>  <Rbt.Executable>
rbdock ($Id: //depot/dev/client3/rdock/2013.1/src/exe/rbdock.cxx#4 $)

>  <Rbt.Library>
libRbt.so (2013.1, Build901 2013/11/27)

>  <Rbt.Parameter_File>
/export/apps/rDock/src/rDock_2013.1_src/data/scripts/dock_solv.prm

>  <Rbt.Receptor>
prm/pocket_docking_4.prm

>  <SCORE>
-10.2842

>  <SCORE.INTER>
-8.82171

>  <SCORE.INTER.CONST>
1

>  <SCORE.INTER.POLAR>
-1.12488

>  <SCORE.INTER.ROT>
3

>  <SCORE.INTER.SOLV>
18.3733

>  <SCORE.INTER.VDW>
-13.856

>  <SCORE.INTER.norm>
-0.551357

>  <SCORE.INTRA>
-1.46253

>  <SCORE.INTRA.DIHEDRAL>
-2.11125

>  <SCORE.INTRA.DIHEDRAL.0>
2.21864

>  <SCORE.INTRA.POLAR>
0

>  <SCORE.INTRA.POLAR.0>
0

>  <SCORE.INTRA.REPUL>
0

>  <SCORE.INTRA.REPUL.0>
0

>  <SCORE.INTRA.SOLV>
-0.266334

>  <SCORE.INTRA.SOLV.lig_0>
-58.5963

>  <SCORE.INTRA.VDW>
-0.273739

>  <SCORE.INTRA.VDW.0>
-0.437849

>  <SCORE.INTRA.norm>
-0.0914081

>  <SCORE.RESTR>
0

>  <SCORE.RESTR.CAVITY>
0

>  <SCORE.RESTR.norm>
0

>  <SCORE.SYSTEM>
0

>  <SCORE.SYSTEM.CONST>
0

>  <SCORE.SYSTEM.DIHEDRAL>
0

>  <SCORE.SYSTEM.SOLV>
0

>  <SCORE.SYSTEM.norm>
0

>  <SCORE.heavy>
16

>  <SCORE.norm>
-0.642765

>  <RMSD>
0.612

$$$$
ligand
 OpenBabel11021811463D
libRbt.so/2013.1/901 2013/11/27
 16 16  0  0  0  0  0  0  0  0999 V2000
   49.7637   11.8683   12.1910 P   0  0  2  0  0  0  0  0  0  0  0  0
   50.3723   13.0863   12.7804 O   0  0  0  0  0  0  0  0  0  0  0  0
   50.7008   10.5880   12.4624 O   0  5  0  0  0  0  0  0  0  0  0  0
   49.6158   12.0692   10.5904 O   0  0  0  0  0  0  0  0  0  0  0  0
   44.6018   10.1020   14.3597 C   0  0  2  0  0  0  0  0  0  0  0  0
   43.8931    9.1436   13.5604 O   0  0  0  0  0  0  0  0  0  0  0  0
   43.9841   11.5229   14.2294 C   0  0  2  0  0  0  0  0  0  0  0  0
   42.5602   11.4884   14.6298 N   0  0  0  0  0  0  0  0  0  0  0  0
   44.1114   11.9824   12.7615 C   0  0  1  0  0  0  0  0  0  0  0  0
   43.5668   13.3046   12.6056 O   0  0  0  0  0  0  0  0  0  0  0  0
   45.6021   11.9904   12.3925 C   0  0  2  0  0  0  0  0  0  0  0  0
   45.7546   12.3994   11.0259 O   0  0  0  0  0  0  0  0  0  0  0  0
   46.1590   10.5539   12.5759 C   0  0  2  0  0  0  0  0  0  0  0  0
   46.0013   10.1244   13.9590 O   0  0  0  0  0  0  0  0  0  0  0  0
   47.6569   10.5345   12.2247 C   0  0  0  0  0  0  0  0  0  0  0  0
   48.3234   11.6275   12.8822 O   0  0  0  0  0  0  0  0  0  0  0  0
  1  2  1  1  0  0  0
  1  3  1  0  0  0  0
  1  4  2  0  0  0  0
  1 16  1  0  0  0  0
  5  6  1  6  0  0  0
  5  7  1  0  0  0  0
  5 14  1  0  0  0  0
  7  8  1  6  0  0  0
  7  9  1  0  0  0  0
  9 10  1  1  0  0  0
  9 11  1  0  0  0  0
 11 12  1  6  0  0  0
 11 13  1  0  0  0  0
 13 14  1  0  0  0  0
 13 15  1  1  0  0  0
 15 16  1  0  0  0  0
M  CHG  1   3  -1
M  END
>  <CHROM.1>
47.85262691,-163.56109596,173.95057727,46.72644047,11.44302132,12.75378881
0.21267118,0.16273530,-0.54872256

>  <Name>
ligand

>  <RI>
0

>  <Rbt.Current_Directory>
/home/itssahil/PROJECTS/Mol_Feturizer/New_Systems/rnas/3B4B

>  <Rbt.Executable>
rbdock ($Id: //depot/dev/client3/rdock/2013.1/src/exe/rbdock.cxx#4 $)

>  <Rbt.Library>
libRbt.so (2013.1, Build901 2013/11/27)

>  <Rbt.Parameter_File>
/export/apps/rDock/src/rDock_2013.1_src/data/scripts/dock_solv.prm

>  <Rbt.Receptor>
prm/pocket_docking_5.prm

>  <SCORE>
-9.24885

>  <SCORE.INTER>
-8.97398

>  <SCORE.INTER.CONST>
1

>  <SCORE.INTER.POLAR>
-1.12444

>  <SCORE.INTER.ROT>
3

>  <SCORE.INTER.SOLV>
18.2851

>  <SCORE.INTER.VDW>
-13.9295

>  <SCORE.INTER.norm>
-0.560874

>  <SCORE.INTRA>
-0.274872

>  <SCORE.INTRA.DIHEDRAL>
-0.3924

>  <SCORE.INTRA.DIHEDRAL.0>
2.21864

>  <SCORE.INTRA.POLAR>
0

>  <SCORE.INTRA.POLAR.0>
0

>  <SCORE.INTRA.REPUL>
0

>  <SCORE.INTRA.REPUL.0>
0

>  <SCORE.INTRA.SOLV>
0.378725

>  <SCORE.INTRA.SOLV.lig_0>
-58.5963

>  <SCORE.INTRA.VDW>
-0.268035

>  <SCORE.INTRA.VDW.0>
-0.437849

>  <SCORE.INTRA.norm>
-0.0171795

>  <SCORE.RESTR>
0

>  <SCORE.RESTR.CAVITY>
0

>  <SCORE.RESTR.norm>
0

>  <SCORE.SYSTEM>
0

>  <SCORE.SYSTEM.CONST>
0

>  <SCORE.SYSTEM.DIHEDRAL>
0

>  <SCORE.SYSTEM.SOLV>
0

>  <SCORE.SYSTEM.norm>
0

>  <SCORE.heavy>
16

>  <SCORE.norm>
-0.578053

>  <RMSD>
0.615

$$$$
ligand
 OpenBabel11021811463D
libRbt.so/2013.1/901 2013/11/27
 16 16  0  0  0  0  0  0  0  0999 V2000
   50.0163   11.9795   11.8917 P   0  0  2  0  0  0  0  0  0  0  0  0
   50.2590   13.3403   11.3526 O   0  0  0  0  0  0  0  0  0  0  0  0
   51.0644   11.6491   13.0678 O   0  5  0  0  0  0  0  0  0  0  0  0
   50.2140   10.8946   10.7050 O   0  0  0  0  0  0  0  0  0  0  0  0
   45.0094   10.8281   14.7348 C   0  0  2  0  0  0  0  0  0  0  0  0
   44.5538    9.4695   14.6545 O   0  0  0  0  0  0  0  0  0  0  0  0
   44.1688   11.7673   13.8242 C   0  0  2  0  0  0  0  0  0  0  0  0
   42.7420   11.6915   14.2085 N   0  0  0  0  0  0  0  0  0  0  0  0
   44.3478   11.3208   12.3578 C   0  0  1  0  0  0  0  0  0  0  0  0
   43.5984   12.1808   11.4815 O   0  0  0  0  0  0  0  0  0  0  0  0
   45.8418   11.4064   12.0127 C   0  0  2  0  0  0  0  0  0  0  0  0
   46.0451   10.9824   10.6574 O   0  0  0  0  0  0  0  0  0  0  0  0
   46.6206   10.4733   12.9772 C   0  0  2  0  0  0  0  0  0  0  0  0
   46.4144   10.8894   14.3579 O   0  0  0  0  0  0  0  0  0  0  0  0
   48.1248   10.5486   12.6624 C   0  0  0  0  0  0  0  0  0  0  0  0
   48.5155   11.9227   12.4872 O   0  0  0  0  0  0  0  0  0  0  0  0
  1  2  1  6  0  0  0
  1  3  1  0  0  0  0
  1  4  2  0  0  0  0
  1 16  1  0  0  0  0
  5  6  1  6  0  0  0
  5  7  1  0  0  0  0
  5 14  1  0  0  0  0
  7  8  1  1  0  0  0
  7  9  1  0  0  0  0
  9 10  1  6  0  0  0
  9 11  1  0  0  0  0
 11 12  1  6  0  0  0
 11 13  1  0  0  0  0
 13 14  1  0  0  0  0
 13 15  1  6  0  0  0
 15 16  1  0  0  0  0
M  CHG  1   3  -1
M  END
>  <CHROM.1>
45.12137319,-169.56297227,163.77905226,47.02726452,11.38602750,12.62669861
0.29328596,-0.01304915,-1.18517555

>  <Name>
ligand

>  <RI>
0

>  <Rbt.Current_Directory>
/home/itssahil/PROJECTS/Mol_Feturizer/New_Systems/rnas/3B4B

>  <Rbt.Executable>
rbdock ($Id: //depot/dev/client3/rdock/2013.1/src/exe/rbdock.cxx#4 $)

>  <Rbt.Library>
libRbt.so (2013.1, Build901 2013/11/27)

>  <Rbt.Parameter_File>
/export/apps/rDock/src/rDock_2013.1_src/data/scripts/dock_solv.prm

>  <Rbt.Receptor>
prm/pocket_docking_2.prm

>  <SCORE>
-8.87015

>  <SCORE.INTER>
-8.56018

>  <SCORE.INTER.CONST>
1

>  <SCORE.INTER.POLAR>
-1.12212

>  <SCORE.INTER.ROT>
3

>  <SCORE.INTER.SOLV>
17.2919

>  <SCORE.INTER.VDW>
-13.3303

>  <SCORE.INTER.norm>
-0.535011

>  <SCORE.INTRA>
-0.30997

>  <SCORE.INTRA.DIHEDRAL>
-0.531217

>  <SCORE.INTRA.DIHEDRAL.0>
2.21864

>  <SCORE.INTRA.POLAR>
0

>  <SCORE.INTRA.POLAR.0>
0

>  <SCORE.INTRA.REPUL>
0

>  <SCORE.INTRA.REPUL.0>
0

>  <SCORE.INTRA.SOLV>
0.055439

>  <SCORE.INTRA.SOLV.lig_0>
-58.5963

>  <SCORE.INTRA.VDW>
-0.0720815

>  <SCORE.INTRA.VDW.0>
-0.437849

>  <SCORE.INTRA.norm>
-0.0193731

>  <SCORE.RESTR>
0

>  <SCORE.RESTR.CAVITY>
0

>  <SCORE.RESTR.norm>
0

>  <SCORE.SYSTEM>
0

>  <SCORE.SYSTEM.CONST>
0

>  <SCORE.SYSTEM.DIHEDRAL>
0

>  <SCORE.SYSTEM.SOLV>
0

>  <SCORE.SYSTEM.norm>
0

>  <SCORE.heavy>
16

>  <SCORE.norm>
-0.554384

>  <RMSD>
0.620

$$$$
ligand
 OpenBabel11021811463D
libRbt.so/2013.1/901 2013/11/27
 16 16  0  0  0  0  0  0  0  0999 V2000
   49.7782   11.9921   11.9127 P   0  0  2  0  0  0  0  0  0  0  0  0
   50.5139   13.1708   12.4327 O   0  0  0  0  0  0  0  0  0  0  0  0
   50.5119   10.6320   12.3630 O   0  5  0  0  0  0  0  0  0  0  0  0
   49.7529   12.0528   10.2941 O   0  0  0  0  0  0  0  0  0  0  0  0
   44.8643   10.8050   14.6673 C   0  0  2  0  0  0  0  0  0  0  0  0
   44.1516    9.6338   14.2432 O   0  0  0  0  0  0  0  0  0  0  0  0
   44.1056   12.1064   14.2819 C   0  0  2  0  0  0  0  0  0  0  0  0
   42.7539   12.0945   14.8835 N   0  0  0  0  0  0  0  0  0  0  0  0
   44.0011   12.1782   12.7438 C   0  0  1  0  0  0  0  0  0  0  0  0
   43.3204   13.3819   12.3476 O   0  0  0  0  0  0  0  0  0  0  0  0
   45.4251   12.1764   12.1689 C   0  0  2  0  0  0  0  0  0  0  0  0
   45.3632   12.2271   10.7366 O   0  0  0  0  0  0  0  0  0  0  0  0
   46.1321   10.8703   12.6180 C   0  0  2  0  0  0  0  0  0  0  0  0
   46.1930   10.8038   14.0719 O   0  0  0  0  0  0  0  0  0  0  0  0
   47.5681   10.8470   12.0659 C   0  0  0  0  0  0  0  0  0  0  0  0
   48.2807   12.0127   12.5187 O   0  0  0  0  0  0  0  0  0  0  0  0
  1  2  1  1  0  0  0
  1  3  1  0  0  0  0
  1  4  2  0  0  0  0
  1 16  1  0  0  0  0
  5  6  1  6  0  0  0
  5  7  1  0  0  0  0
  5 14  1  0  0  0  0
  7  8  1  1  0  0  0
  7  9  1  0  0  0  0
  9 10  1  1  0  0  0
  9 11  1  0  0  0  0
 11 12  1  6  0  0  0
 11 13  1  0  0  0  0
 13 14  1  0  0  0  0
 13 15  1  6  0  0  0
 15 16  1  0  0  0  0
M  CHG  1   3  -1
M  END
>  <CHROM.1>
57.42649881,-179.00784609,-177.77197702,46.72872775,11.71154949,12.67867916
-0.25708402,-0.17273534,2.26377207

>  <Name>
ligand

>  <RI>
0

>  <Rbt.Current_Directory>
/home/itssahil/PROJECTS/Mol_Feturizer/New_Systems/rnas/3B4B

>  <Rbt.Executable>
rbdock ($Id: //depot/dev/client3/rdock/2013.1/src/exe/rbdock.cxx#4 $)

>  <Rbt.Library>
libRbt.so (2013.1, Build901 2013/11/27)

>  <Rbt.Parameter_File>
/export/apps/rDock/src/rDock_2013.1_src/data/scripts/dock_solv.prm

>  <Rbt.Receptor>
prm/pocket_docking_5.prm

>  <SCORE>
-10.2092

>  <SCORE.INTER>
-8.68589

>  <SCORE.INTER.CONST>
1

>  <SCORE.INTER.POLAR>
-1.125

>  <SCORE.INTER.ROT>
3

>  <SCORE.INTER.SOLV>
18.4466

>  <SCORE.INTER.VDW>
-13.7895

>  <SCORE.INTER.norm>
-0.542868

>  <SCORE.INTRA>
-1.52332

>  <SCORE.INTRA.DIHEDRAL>
-2.1809

>  <SCORE.INTRA.DIHEDRAL.0>
2.21864

>  <SCORE.INTRA.POLAR>
0

>  <SCORE.INTRA.POLAR.0>
0

>  <SCORE.INTRA.REPUL>
0

>  <SCORE.INTRA.REPUL.0>
0

>  <SCORE.INTRA.SOLV>
-0.258503

>  <SCORE.INTRA.SOLV.lig_0>
-58.5963

>  <SCORE.INTRA.VDW>
-0.303615

>  <SCORE.INTRA.VDW.0>
-0.437849

>  <SCORE.INTRA.norm>
-0.0952072

>  <SCORE.RESTR>
0

>  <SCORE.RESTR.CAVITY>
0

>  <SCORE.RESTR.norm>
0

>  <SCORE.SYSTEM>
0

>  <SCORE.SYSTEM.CONST>
0

>  <SCORE.SYSTEM.DIHEDRAL>
0

>  <SCORE.SYSTEM.SOLV>
0

>  <SCORE.SYSTEM.norm>
0

>  <SCORE.heavy>
16

>  <SCORE.norm>
-0.638075

>  <RMSD>
0.620

$$$$
ligand
 OpenBabel11021811463D
libRbt.so/2013.1/901 2013/11/27
 16 16  0  0  0  0  0  0  0  0999 V2000
   50.0409   11.9518   12.1830 P   0  0  2  0  0  0  0  0  0  0  0  0
   50.7456   13.0649   12.8654 O   0  0  0  0  0  0  0  0  0  0  0  0
   50.7528   10.5485   12.5218 O   0  5  0  0  0  0  0  0  0  0  0  0
   50.1012   12.1871   10.5813 O   0  0  0  0  0  0  0  0  0  0  0  0
   44.9919   10.5543   14.5568 C   0  0  2  0  0  0  0  0  0  0  0  0
   44.3238    9.4005   14.0256 O   0  0  0  0  0  0  0  0  0  0  0  0
   44.2352   11.8658   14.2034 C   0  0  2  0  0  0  0  0  0  0  0  0
   42.8517   11.8013   14.7239 N   0  0  0  0  0  0  0  0  0  0  0  0
   44.2176   12.0256   12.6684 C   0  0  1  0  0  0  0  0  0  0  0  0
   43.5410   13.2414   12.3031 O   0  0  0  0  0  0  0  0  0  0  0  0
   45.6719   12.0760   12.1780 C   0  0  2  0  0  0  0  0  0  0  0  0
   45.6911   12.2092   10.7498 O   0  0  0  0  0  0  0  0  0  0  0  0
   46.3734   10.7552   12.5916 C   0  0  2  0  0  0  0  0  0  0  0  0
   46.3522   10.6050   14.0404 O   0  0  0  0  0  0  0  0  0  0  0  0
   47.8388   10.7830   12.1234 C   0  0  0  0  0  0  0  0  0  0  0  0
   48.5134   11.9121   12.7076 O   0  0  0  0  0  0  0  0  0  0  0  0
  1  2  1  1  0  0  0
  1  3  1  0  0  0  0
  1  4  2  0  0  0  0
  1 16  1  0  0  0  0
  5  6  1  6  0  0  0
  5  7  1  0  0  0  0
  5 14  1  0  0  0  0
  7  8  1  6  0  0  0
  7  9  1  0  0  0  0
  9 10  1  1  0  0  0
  9 11  1  0  0  0  0
 11 12  1  6  0  0  0
 11 13  1  0  0  0  0
 13 14  1  0  0  0  0
 13 15  1  1  0  0  0
 15 16  1  0  0  0  0
M  CHG  1   3  -1
M  END
>  <CHROM.1>
58.75661497,-178.69226144,-176.18816572,46.95388576,11.59500369,12.74163292
-0.21948407,-0.12244307,2.32552205

>  <Name>
ligand

>  <RI>
0

>  <Rbt.Current_Directory>
/home/itssahil/PROJECTS/Mol_Feturizer/New_Systems/rnas/3B4B

>  <Rbt.Executable>
rbdock ($Id: //depot/dev/client3/rdock/2013.1/src/exe/rbdock.cxx#4 $)

>  <Rbt.Library>
libRbt.so (2013.1, Build901 2013/11/27)

>  <Rbt.Parameter_File>
/export/apps/rDock/src/rDock_2013.1_src/data/scripts/dock_solv.prm

>  <Rbt.Receptor>
prm/pocket_docking_4.prm

>  <SCORE>
-10.3206

>  <SCORE.INTER>
-8.7974

>  <SCORE.INTER.CONST>
1

>  <SCORE.INTER.POLAR>
-1.12439

>  <SCORE.INTER.ROT>
3

>  <SCORE.INTER.SOLV>
18.3666

>  <SCORE.INTER.VDW>
-13.8392

>  <SCORE.INTER.norm>
-0.549838

>  <SCORE.INTRA>
-1.52318

>  <SCORE.INTRA.DIHEDRAL>
-2.17935

>  <SCORE.INTRA.DIHEDRAL.0>
2.21864

>  <SCORE.INTRA.POLAR>
0

>  <SCORE.INTRA.POLAR.0>
0

>  <SCORE.INTRA.REPUL>
0

>  <SCORE.INTRA.REPUL.0>
0

>  <SCORE.INTRA.SOLV>
-0.258354

>  <SCORE.INTRA.SOLV.lig_0>
-58.5963

>  <SCORE.INTRA.VDW>
-0.304328

>  <SCORE.INTRA.VDW.0>
-0.437849

>  <SCORE.INTRA.norm>
-0.0951986

>  <SCORE.RESTR>
0

>  <SCORE.RESTR.CAVITY>
0

>  <SCORE.RESTR.norm>
0

>  <SCORE.SYSTEM>
0

>  <SCORE.SYSTEM.CONST>
0

>  <SCORE.SYSTEM.DIHEDRAL>
0

>  <SCORE.SYSTEM.SOLV>
0

>  <SCORE.SYSTEM.norm>
0

>  <SCORE.heavy>
16

>  <SCORE.norm>
-0.645036

>  <RMSD>
0.621

$$$$
ligand
 OpenBabel11021811463D
libRbt.so/2013.1/901 2013/11/27
 16 16  0  0  0  0  0  0  0  0999 V2000
   49.6567   11.9440   12.0746 P   0  0  2  0  0  0  0  0  0  0  0  0
   50.3011   13.1592   12.6306 O   0  0  0  0  0  0  0  0  0  0  0  0
   50.5756   10.6505   12.3455 O   0  5  0  0  0  0  0  0  0  0  0  0
   49.4764   12.1226   10.4747 O   0  0  0  0  0  0  0  0  0  0  0  0
   44.5069   10.3260   14.3784 C   0  0  2  0  0  0  0  0  0  0  0  0
   43.7601    9.3710   13.6104 O   0  0  0  0  0  0  0  0  0  0  0  0
   43.9173   11.7579   14.2388 C   0  0  2  0  0  0  0  0  0  0  0  0
   42.5022   11.7608   14.6711 N   0  0  0  0  0  0  0  0  0  0  0  0
   44.0216   12.1915   12.7613 C   0  0  1  0  0  0  0  0  0  0  0  0
   43.5022   13.5227   12.5962 O   0  0  0  0  0  0  0  0  0  0  0  0
   45.5034   12.1611   12.3594 C   0  0  2  0  0  0  0  0  0  0  0  0
   45.6341   12.5453   10.9835 O   0  0  0  0  0  0  0  0  0  0  0  0
   46.0332   10.7158   12.5536 C   0  0  2  0  0  0  0  0  0  0  0  0
   45.8973   10.3115   13.9465 O   0  0  0  0  0  0  0  0  0  0  0  0
   47.5221   10.6581   12.1698 C   0  0  0  0  0  0  0  0  0  0  0  0
   48.2281   11.7415   12.8016 O   0  0  0  0  0  0  0  0  0  0  0  0
  1  2  1  1  0  0  0
  1  3  1  0  0  0  0
  1  4  2  0  0  0  0
  1 16  1  0  0  0  0
  5  6  1  6  0  0  0
  5  7  1  0  0  0  0
  5 14  1  0  0  0  0
  7  8  1  6  0  0  0
  7  9  1  0  0  0  0
  9 10  1  1  0  0  0
  9 11  1  0  0  0  0
 11 12  1  6  0  0  0
 11 13  1  0  0  0  0
 13 14  1  0  0  0  0
 13 15  1  1  0  0  0
 15 16  1  0  0  0  0
M  CHG  1   3  -1
M  END
>  <CHROM.1>
48.20855631,-163.44915719,173.49903701,46.62385201,11.59463537,12.70701564
0.20512724,0.19216090,-0.56364730

>  <Name>
ligand

>  <RI>
0

>  <Rbt.Current_Directory>
/home/itssahil/PROJECTS/Mol_Feturizer/New_Systems/rnas/3B4B

>  <Rbt.Executable>
rbdock ($Id: //depot/dev/client3/rdock/2013.1/src/exe/rbdock.cxx#4 $)

>  <Rbt.Library>
libRbt.so (2013.1, Build901 2013/11/27)

>  <Rbt.Parameter_File>
/export/apps/rDock/src/rDock_2013.1_src/data/scripts/dock_solv.prm

>  <Rbt.Receptor>
prm/pocket_docking_3.prm

>  <SCORE>
-9.19915

>  <SCORE.INTER>
-8.917

>  <SCORE.INTER.CONST>
1

>  <SCORE.INTER.POLAR>
-1.125

>  <SCORE.INTER.ROT>
3

>  <SCORE.INTER.SOLV>
17.9636

>  <SCORE.INTER.VDW>
-13.7825

>  <SCORE.INTER.norm>
-0.557313

>  <SCORE.INTRA>
-0.282148

>  <SCORE.INTRA.DIHEDRAL>
-0.396136

>  <SCORE.INTRA.DIHEDRAL.0>
2.21864

>  <SCORE.INTRA.POLAR>
0

>  <SCORE.INTRA.POLAR.0>
0

>  <SCORE.INTRA.REPUL>
0

>  <SCORE.INTRA.REPUL.0>
0

>  <SCORE.INTRA.SOLV>
0.379212

>  <SCORE.INTRA.SOLV.lig_0>
-58.5963

>  <SCORE.INTRA.VDW>
-0.273686

>  <SCORE.INTRA.VDW.0>
-0.437849

>  <SCORE.INTRA.norm>
-0.0176343

>  <SCORE.RESTR>
0

>  <SCORE.RESTR.CAVITY>
0

>  <SCORE.RESTR.norm>
0

>  <SCORE.SYSTEM>
0

>  <SCORE.SYSTEM.CONST>
0

>  <SCORE.SYSTEM.DIHEDRAL>
0

>  <SCORE.SYSTEM.SOLV>
0

>  <SCORE.SYSTEM.norm>
0

>  <SCORE.heavy>
16

>  <SCORE.norm>
-0.574947

>  <RMSD>
0.634

$$$$
ligand
 OpenBabel11021811463D
libRbt.so/2013.1/901 2013/11/27
 16 16  0  0  0  0  0  0  0  0999 V2000
   49.5686   11.9632   12.0811 P   0  0  2  0  0  0  0  0  0  0  0  0
   50.2387   13.1054   12.7502 O   0  0  0  0  0  0  0  0  0  0  0  0
   50.3660   10.5965   12.3764 O   0  5  0  0  0  0  0  0  0  0  0  0
   49.5557   12.2174   10.4813 O   0  0  0  0  0  0  0  0  0  0  0  0
   44.4711   10.3764   14.2836 C   0  0  2  0  0  0  0  0  0  0  0  0
   43.7627    9.3388   13.5900 O   0  0  0  0  0  0  0  0  0  0  0  0
   43.7736   11.7557   14.1149 C   0  0  2  0  0  0  0  0  0  0  0  0
   42.3824   11.6773   14.6122 N   0  0  0  0  0  0  0  0  0  0  0  0
   43.7816   12.1316   12.6180 C   0  0  1  0  0  0  0  0  0  0  0  0
   43.1603   13.4145   12.4244 O   0  0  0  0  0  0  0  0  0  0  0  0
   45.2428   12.1887   12.1490 C   0  0  2  0  0  0  0  0  0  0  0  0
   45.2851   12.5216   10.7542 O   0  0  0  0  0  0  0  0  0  0  0  0
   45.8840   10.7941   12.3756 C   0  0  2  0  0  0  0  0  0  0  0  0
   45.8387   10.4416   13.7884 O   0  0  0  0  0  0  0  0  0  0  0  0
   47.3550   10.8253   11.9254 C   0  0  0  0  0  0  0  0  0  0  0  0
   48.0662   11.8369   12.6618 O   0  0  0  0  0  0  0  0  0  0  0  0
  1  2  1  1  0  0  0
  1  3  1  0  0  0  0
  1  4  2  0  0  0  0
  1 16  1  0  0  0  0
  5  6  1  6  0  0  0
  5  7  1  0  0  0  0
  5 14  1  0  0  0  0
  7  8  1  6  0  0  0
  7  9  1  0  0  0  0
  9 10  1  1  0  0  0
  9 11  1  0  0  0  0
 11 12  1  6  0  0  0
 11 13  1  0  0  0  0
 13 14  1  0  0  0  0
 13 15  1  1  0  0  0
 15 16  1  0  0  0  0
M  CHG  1   3  -1
M  END
>  <CHROM.1>
58.37182704,-174.40709035,173.99843429,46.48432781,11.60959670,12.61650466
-0.20304948,-0.14866301,2.48060641

>  <Name>
ligand

>  <RI>
0

>  <Rbt.Current_Directory>
/home/itssahil/PROJECTS/Mol_Feturizer/New_Systems/rnas/3B4B

>  <Rbt.Executable>
rbdock ($Id: //depot/dev/client3/rdock/2013.1/src/exe/rbdock.cxx#4 $)

>  <Rbt.Library>
libRbt.so (2013.1, Build901 2013/11/27)

>  <Rbt.Parameter_File>
/export/apps/rDock/src/rDock_2013.1_src/data/scripts/dock_solv.prm

>  <Rbt.Receptor>
prm/pocket_docking_4.prm

>  <SCORE>
-10.0446

>  <SCORE.INTER>
-8.63107

>  <SCORE.INTER.CONST>
1

>  <SCORE.INTER.POLAR>
-1.1243

>  <SCORE.INTER.ROT>
3

>  <SCORE.INTER.SOLV>
16.9189

>  <SCORE.INTER.VDW>
-13.246

>  <SCORE.INTER.norm>
-0.539442

>  <SCORE.INTRA>
-1.41354

>  <SCORE.INTRA.DIHEDRAL>
-1.99844

>  <SCORE.INTRA.DIHEDRAL.0>
2.21864

>  <SCORE.INTRA.POLAR>
0

>  <SCORE.INTRA.POLAR.0>
0

>  <SCORE.INTRA.REPUL>
0

>  <SCORE.INTRA.REPUL.0>
0

>  <SCORE.INTRA.SOLV>
-0.158108

>  <SCORE.INTRA.SOLV.lig_0>
-58.5963

>  <SCORE.INTRA.VDW>
-0.33527

>  <SCORE.INTRA.VDW.0>
-0.437849

>  <SCORE.INTRA.norm>
-0.0883465

>  <SCORE.RESTR>
0

>  <SCORE.RESTR.CAVITY>
0

>  <SCORE.RESTR.norm>
0

>  <SCORE.SYSTEM>
0

>  <SCORE.SYSTEM.CONST>
0

>  <SCORE.SYSTEM.DIHEDRAL>
0

>  <SCORE.SYSTEM.SOLV>
0

>  <SCORE.SYSTEM.norm>
0

>  <SCORE.heavy>
16

>  <SCORE.norm>
-0.627789

>  <RMSD>
0.634

$$$$
ligand
 OpenBabel11021811463D
libRbt.so/2013.1/901 2013/11/27
 16 16  0  0  0  0  0  0  0  0999 V2000
   49.6107   11.9640   12.0247 P   0  0  2  0  0  0  0  0  0  0  0  0
   50.2249   13.1937   12.5830 O   0  0  0  0  0  0  0  0  0  0  0  0
   50.5749   10.6980   12.2672 O   0  5  0  0  0  0  0  0  0  0  0  0
   49.3987   12.1527   10.4298 O   0  0  0  0  0  0  0  0  0  0  0  0
   44.4721   10.3048   14.2954 C   0  0  2  0  0  0  0  0  0  0  0  0
   43.7067    9.3881   13.4995 O   0  0  0  0  0  0  0  0  0  0  0  0
   43.8971   11.7473   14.2173 C   0  0  2  0  0  0  0  0  0  0  0  0
   42.4867   11.7488   14.6645 N   0  0  0  0  0  0  0  0  0  0  0  0
   43.9910   12.2362   12.7565 C   0  0  1  0  0  0  0  0  0  0  0  0
   43.4848   13.5783   12.6481 O   0  0  0  0  0  0  0  0  0  0  0  0
   45.4681   12.2054   12.3378 C   0  0  2  0  0  0  0  0  0  0  0  0
   45.5890   12.6408   10.9763 O   0  0  0  0  0  0  0  0  0  0  0  0
   45.9837   10.7480   12.4707 C   0  0  2  0  0  0  0  0  0  0  0  0
   45.8577   10.2920   13.8485 O   0  0  0  0  0  0  0  0  0  0  0  0
   47.4678   10.6891   12.0690 C   0  0  0  0  0  0  0  0  0  0  0  0
   48.2015   11.7083   12.7722 O   0  0  0  0  0  0  0  0  0  0  0  0
  1  2  1  1  0  0  0
  1  3  1  0  0  0  0
  1  4  2  0  0  0  0
  1 16  1  0  0  0  0
  5  6  1  6  0  0  0
  5  7  1  0  0  0  0
  5 14  1  0  0  0  0
  7  8  1  6  0  0  0
  7  9  1  0  0  0  0
  9 10  1  1  0  0  0
  9 11  1  0  0  0  0
 11 12  1  6  0  0  0
 11 13  1  0  0  0  0
 13 14  1  0  0  0  0
 13 15  1  1  0  0  0
 15 16  1  0  0  0  0
M  CHG  1   3  -1
M  END
>  <CHROM.1>
50.32807003,-161.92038343,168.46221669,46.58414282,11.61721525,12.66073730
0.20059284,0.20254826,-0.52498454

>  <Name>
ligand

>  <RI>
0

>  <Rbt.Current_Directory>
/home/itssahil/PROJECTS/Mol_Feturizer/New_Systems/rnas/3B4B

>  <Rbt.Executable>
rbdock ($Id: //depot/dev/client3/rdock/2013.1/src/exe/rbdock.cxx#4 $)

>  <Rbt.Library>
libRbt.so (2013.1, Build901 2013/11/27)

>  <Rbt.Parameter_File>
/export/apps/rDock/src/rDock_2013.1_src/data/scripts/dock_solv.prm

>  <Rbt.Receptor>
prm/pocket_docking_2.prm

>  <SCORE>
-9.14154

>  <SCORE.INTER>
-8.96766

>  <SCORE.INTER.CONST>
1

>  <SCORE.INTER.POLAR>
-1.12235

>  <SCORE.INTER.ROT>
3

>  <SCORE.INTER.SOLV>
17.5967

>  <SCORE.INTER.VDW>
-13.7028

>  <SCORE.INTER.norm>
-0.560479

>  <SCORE.INTRA>
-0.173881

>  <SCORE.INTRA.DIHEDRAL>
-0.18277

>  <SCORE.INTRA.DIHEDRAL.0>
2.21864

>  <SCORE.INTRA.POLAR>
0

>  <SCORE.INTRA.POLAR.0>
0

>  <SCORE.INTRA.REPUL>
0

>  <SCORE.INTRA.REPUL.0>
0

>  <SCORE.INTRA.SOLV>
0.403449

>  <SCORE.INTRA.SOLV.lig_0>
-58.5963

>  <SCORE.INTRA.VDW>
-0.284221

>  <SCORE.INTRA.VDW.0>
-0.437849

>  <SCORE.INTRA.norm>
-0.0108676

>  <SCORE.RESTR>
0

>  <SCORE.RESTR.CAVITY>
0

>  <SCORE.RESTR.norm>
0

>  <SCORE.SYSTEM>
0

>  <SCORE.SYSTEM.CONST>
0

>  <SCORE.SYSTEM.DIHEDRAL>
0

>  <SCORE.SYSTEM.SOLV>
0

>  <SCORE.SYSTEM.norm>
0

>  <SCORE.heavy>
16

>  <SCORE.norm>
-0.571346

>  <RMSD>
0.659

$$$$
ligand
 OpenBabel11021811463D
libRbt.so/2013.1/901 2013/11/27
 16 16  0  0  0  0  0  0  0  0999 V2000
   49.5933   12.0186   11.2870 P   0  0  2  0  0  0  0  0  0  0  0  0
   50.1425   13.3951   11.3553 O   0  0  0  0  0  0  0  0  0  0  0  0
   50.7317   10.9435   11.6604 O   0  5  0  0  0  0  0  0  0  0  0  0
   49.0816   11.7248    9.7783 O   0  0  0  0  0  0  0  0  0  0  0  0
   45.1211   10.8265   14.8719 C   0  0  2  0  0  0  0  0  0  0  0  0
   44.4894    9.5526   14.6779 O   0  0  0  0  0  0  0  0  0  0  0  0
   44.2709   11.9828   14.2738 C   0  0  2  0  0  0  0  0  0  0  0  0
   42.9271   11.9881   14.8929 N   0  0  0  0  0  0  0  0  0  0  0  0
   44.1523   11.7693   12.7500 C   0  0  1  0  0  0  0  0  0  0  0  0
   43.3867   12.8332   12.1572 O   0  0  0  0  0  0  0  0  0  0  0  0
   45.5694   11.7605   12.1584 C   0  0  2  0  0  0  0  0  0  0  0  0
   45.4953   11.5482   10.7415 O   0  0  0  0  0  0  0  0  0  0  0  0
   46.3686   10.6074   12.8209 C   0  0  2  0  0  0  0  0  0  0  0  0
   46.4429   10.8079   14.2619 O   0  0  0  0  0  0  0  0  0  0  0  0
   47.7994   10.5823   12.2554 C   0  0  0  0  0  0  0  0  0  0  0  0
   48.3800   11.8961   12.3467 O   0  0  0  0  0  0  0  0  0  0  0  0
  1  2  1  1  0  0  0
  1  3  1  0  0  0  0
  1  4  2  0  0  0  0
  1 16  1  0  0  0  0
  5  6  1  6  0  0  0
  5  7  1  0  0  0  0
  5 14  1  0  0  0  0
  7  8  1  1  0  0  0
  7  9  1  0  0  0  0
  9 10  1  6  0  0  0
  9 11  1  0  0  0  0
 11 12  1  6  0  0  0
 11 13  1  0  0  0  0
 13 14  1  0  0  0  0
 13 15  1  6  0  0  0
 15 16  1  0  0  0  0
M  CHG  1   3  -1
M  END
>  <CHROM.1>
51.19671089,-158.50771383,177.68635022,46.78175989,11.55570847,12.50451303
0.42677522,0.17335752,-1.01682424

>  <Name>
ligand

>  <RI>
0

>  <Rbt.Current_Directory>
/home/itssahil/PROJECTS/Mol_Feturizer/New_Systems/rnas/3B4B

>  <Rbt.Executable>
rbdock ($Id: //depot/dev/client3/rdock/2013.1/src/exe/rbdock.cxx#4 $)

>  <Rbt.Library>
libRbt.so (2013.1, Build901 2013/11/27)

>  <Rbt.Parameter_File>
/export/apps/rDock/src/rDock_2013.1_src/data/scripts/dock_solv.prm

>  <Rbt.Receptor>
prm/pocket_docking_3.prm

>  <SCORE>
-8.60059

>  <SCORE.INTER>
-8.59622

>  <SCORE.INTER.CONST>
1

>  <SCORE.INTER.POLAR>
-1.12356

>  <SCORE.INTER.ROT>
3

>  <SCORE.INTER.SOLV>
18.2278

>  <SCORE.INTER.VDW>
-13.6615

>  <SCORE.INTER.norm>
-0.537264

>  <SCORE.INTRA>
-0.00437192

>  <SCORE.INTRA.DIHEDRAL>
0.113106

>  <SCORE.INTRA.DIHEDRAL.0>
2.21864

>  <SCORE.INTRA.POLAR>
0

>  <SCORE.INTRA.POLAR.0>
0

>  <SCORE.INTRA.REPUL>
0

>  <SCORE.INTRA.REPUL.0>
0

>  <SCORE.INTRA.SOLV>
0.625664

>  <SCORE.INTRA.SOLV.lig_0>
-58.5963

>  <SCORE.INTRA.VDW>
-0.373757

>  <SCORE.INTRA.VDW.0>
-0.437849

>  <SCORE.INTRA.norm>
-0.000273245

>  <SCORE.RESTR>
0

>  <SCORE.RESTR.CAVITY>
0

>  <SCORE.RESTR.norm>
0

>  <SCORE.SYSTEM>
0

>  <SCORE.SYSTEM.CONST>
0

>  <SCORE.SYSTEM.DIHEDRAL>
0

>  <SCORE.SYSTEM.SOLV>
0

>  <SCORE.SYSTEM.norm>
0

>  <SCORE.heavy>
16

>  <SCORE.norm>
-0.537537

>  <RMSD>
0.672

$$$$
ligand
 OpenBabel11021811463D
libRbt.so/2013.1/901 2013/11/27
 16 16  0  0  0  0  0  0  0  0999 V2000
   49.4823   11.9641   11.9419 P   0  0  2  0  0  0  0  0  0  0  0  0
   49.3017   13.2412   11.2089 O   0  0  0  0  0  0  0  0  0  0  0  0
   50.6838   12.0950   13.0051 O   0  5  0  0  0  0  0  0  0  0  0  0
   49.8534   10.7930   10.8860 O   0  0  0  0  0  0  0  0  0  0  0  0
   44.4645   10.4398   14.3536 C   0  0  2  0  0  0  0  0  0  0  0  0
   43.6700    9.4672   13.6589 O   0  0  0  0  0  0  0  0  0  0  0  0
   43.8486   11.8633   14.2454 C   0  0  2  0  0  0  0  0  0  0  0  0
   42.4727   11.8561   14.7897 N   0  0  0  0  0  0  0  0  0  0  0  0
   43.8291   12.2797   12.7595 C   0  0  1  0  0  0  0  0  0  0  0  0
   43.2823   13.6031   12.6213 O   0  0  0  0  0  0  0  0  0  0  0  0
   45.2743   12.2607   12.2404 C   0  0  2  0  0  0  0  0  0  0  0  0
   45.2898   12.6292   10.8541 O   0  0  0  0  0  0  0  0  0  0  0  0
   45.8351   10.8237   12.4080 C   0  0  2  0  0  0  0  0  0  0  0  0
   45.8160   10.4352   13.8118 O   0  0  0  0  0  0  0  0  0  0  0  0
   47.2891   10.7776   11.9067 C   0  0  0  0  0  0  0  0  0  0  0  0
   48.1125   11.6249   12.7286 O   0  0  0  0  0  0  0  0  0  0  0  0
  1  2  1  6  0  0  0
  1  3  1  0  0  0  0
  1  4  2  0  0  0  0
  1 16  1  0  0  0  0
  5  6  1  6  0  0  0
  5  7  1  0  0  0  0
  5 14  1  0  0  0  0
  7  8  1  6  0  0  0
  7  9  1  0  0  0  0
  9 10  1  1  0  0  0
  9 11  1  0  0  0  0
 11 12  1  6  0  0  0
 11 13  1  0  0  0  0
 13 14  1  0  0  0  0
 13 15  1  1  0  0  0
 15 16  1  0  0  0  0
M  CHG  1   3  -1
M  END
>  <CHROM.1>
63.97966805,-161.39070979,93.18882719,46.46341741,11.66512674,12.62897813
0.20641588,0.20889922,-0.60407673

>  <Name>
ligand

>  <RI>
0

>  <Rbt.Current_Directory>
/home/itssahil/PROJECTS/Mol_Feturizer/New_Systems/rnas/3B4B

>  <Rbt.Executable>
rbdock ($Id: //depot/dev/client3/rdock/2013.1/src/exe/rbdock.cxx#4 $)

>  <Rbt.Library>
libRbt.so (2013.1, Build901 2013/11/27)

>  <Rbt.Parameter_File>
/export/apps/rDock/src/rDock_2013.1_src/data/scripts/dock_solv.prm

>  <Rbt.Receptor>
prm/pocket_docking_2.prm

>  <SCORE>
-7.95556

>  <SCORE.INTER>
-8.19277

>  <SCORE.INTER.CONST>
1

>  <SCORE.INTER.POLAR>
-1.12309

>  <SCORE.INTER.ROT>
3

>  <SCORE.INTER.SOLV>
18.4981

>  <SCORE.INTER.VDW>
-13.4842

>  <SCORE.INTER.norm>
-0.512048

>  <SCORE.INTRA>
0.234156

>  <SCORE.INTRA.DIHEDRAL>
0.822327

>  <SCORE.INTRA.DIHEDRAL.0>
2.21864

>  <SCORE.INTRA.POLAR>
0

>  <SCORE.INTRA.POLAR.0>
0

>  <SCORE.INTRA.REPUL>
0

>  <SCORE.INTRA.REPUL.0>
0

>  <SCORE.INTRA.SOLV>
-0.512719

>  <SCORE.INTRA.SOLV.lig_0>
-58.5963

>  <SCORE.INTRA.VDW>
0.0793521

>  <SCORE.INTRA.VDW.0>
-0.437849

>  <SCORE.INTRA.norm>
0.0146347

>  <SCORE.RESTR>
0.00305819

>  <SCORE.RESTR.CAVITY>
0.00305819

>  <SCORE.RESTR.norm>
0.000191137

>  <SCORE.SYSTEM>
0

>  <SCORE.SYSTEM.CONST>
0

>  <SCORE.SYSTEM.DIHEDRAL>
0

>  <SCORE.SYSTEM.SOLV>
0

>  <SCORE.SYSTEM.norm>
0

>  <SCORE.heavy>
16

>  <SCORE.norm>
-0.497222

>  <RMSD>
0.703

$$$$
ligand
 OpenBabel11021811463D
libRbt.so/2013.1/901 2013/11/27
 16 16  0  0  0  0  0  0  0  0999 V2000
   49.8408   11.9739   11.8478 P   0  0  2  0  0  0  0  0  0  0  0  0
   50.0728   13.3330   11.3000 O   0  0  0  0  0  0  0  0  0  0  0  0
   50.8183   11.7005   13.0972 O   0  5  0  0  0  0  0  0  0  0  0  0
   50.1544   10.8766   10.6981 O   0  0  0  0  0  0  0  0  0  0  0  0
   44.9629   10.9232   14.7755 C   0  0  2  0  0  0  0  0  0  0  0  0
   44.5954    9.5455   14.9387 O   0  0  0  0  0  0  0  0  0  0  0  0
   44.0113   11.6552   13.7874 C   0  0  2  0  0  0  0  0  0  0  0  0
   42.6168   11.5605   14.2727 N   0  0  0  0  0  0  0  0  0  0  0  0
   44.1365   10.9909   12.4000 C   0  0  1  0  0  0  0  0  0  0  0  0
   43.2829   11.6555   11.4519 O   0  0  0  0  0  0  0  0  0  0  0  0
   45.5995   11.1053   11.9474 C   0  0  2  0  0  0  0  0  0  0  0  0
   45.7537   10.4824   10.6644 O   0  0  0  0  0  0  0  0  0  0  0  0
   46.4922   10.3844   12.9917 C   0  0  2  0  0  0  0  0  0  0  0  0
   46.3371   11.0035   14.3012 O   0  0  0  0  0  0  0  0  0  0  0  0
   47.9678   10.4940   12.5698 C   0  0  0  0  0  0  0  0  0  0  0  0
   48.3062   11.8745   12.3433 O   0  0  0  0  0  0  0  0  0  0  0  0
  1  2  1  6  0  0  0
  1  3  1  0  0  0  0
  1  4  2  0  0  0  0
  1 16  1  0  0  0  0
  5  6  1  6  0  0  0
  5  7  1  0  0  0  0
  5 14  1  0  0  0  0
  7  8  1  1  0  0  0
  7  9  1  0  0  0  0
  9 10  1  6  0  0  0
  9 11  1  0  0  0  0
 11 12  1  6  0  0  0
 11 13  1  0  0  0  0
 13 14  1  0  0  0  0
 13 15  1  6  0  0  0
 15 16  1  0  0  0  0
M  CHG  1   3  -1
M  END
>  <CHROM.1>
53.41508437,-177.90762540,166.05204146,46.86413033,11.28254747,12.62143638
-0.29575246,0.09076588,1.77279716

>  <Name>
ligand

>  <RI>
0

>  <Rbt.Current_Directory>
/home/itssahil/PROJECTS/Mol_Feturizer/New_Systems/rnas/3B4B

>  <Rbt.Executable>
rbdock ($Id: //depot/dev/client3/rdock/2013.1/src/exe/rbdock.cxx#4 $)

>  <Rbt.Library>
libRbt.so (2013.1, Build901 2013/11/27)

>  <Rbt.Parameter_File>
/export/apps/rDock/src/rDock_2013.1_src/data/scripts/dock_solv.prm

>  <Rbt.Receptor>
prm/pocket_docking_2.prm

>  <SCORE>
-9.6201

>  <SCORE.INTER>
-8.41494

>  <SCORE.INTER.CONST>
1

>  <SCORE.INTER.POLAR>
-1.12233

>  <SCORE.INTER.ROT>
3

>  <SCORE.INTER.SOLV>
18.4534

>  <SCORE.INTER.VDW>
-13.62

>  <SCORE.INTER.norm>
-0.525934

>  <SCORE.INTRA>
-1.20516

>  <SCORE.INTRA.DIHEDRAL>
-1.73977

>  <SCORE.INTRA.DIHEDRAL.0>
2.21864

>  <SCORE.INTRA.POLAR>
0

>  <SCORE.INTRA.POLAR.0>
0

>  <SCORE.INTRA.REPUL>
0

>  <SCORE.INTRA.REPUL.0>
0

>  <SCORE.INTRA.SOLV>
-0.26727

>  <SCORE.INTRA.SOLV.lig_0>
-58.5963

>  <SCORE.INTRA.VDW>
-0.201642

>  <SCORE.INTRA.VDW.0>
-0.437849

>  <SCORE.INTRA.norm>
-0.0753226

>  <SCORE.RESTR>
0

>  <SCORE.RESTR.CAVITY>
0

>  <SCORE.RESTR.norm>
0

>  <SCORE.SYSTEM>
0

>  <SCORE.SYSTEM.CONST>
0

>  <SCORE.SYSTEM.DIHEDRAL>
0

>  <SCORE.SYSTEM.SOLV>
0

>  <SCORE.SYSTEM.norm>
0

>  <SCORE.heavy>
16

>  <SCORE.norm>
-0.601256

>  <RMSD>
0.738

$$$$
ligand
 OpenBabel11021811463D
libRbt.so/2013.1/901 2013/11/27
 16 16  0  0  0  0  0  0  0  0999 V2000
   49.4468   11.8146   12.0958 P   0  0  2  0  0  0  0  0  0  0  0  0
   50.0708   13.0587   12.6094 O   0  0  0  0  0  0  0  0  0  0  0  0
   50.3612   10.5402   12.4575 O   0  5  0  0  0  0  0  0  0  0  0  0
   49.3132   11.9128   10.4844 O   0  0  0  0  0  0  0  0  0  0  0  0
   44.2224   10.2877   14.2731 C   0  0  2  0  0  0  0  0  0  0  0  0
   43.4387    9.4119   13.4495 O   0  0  0  0  0  0  0  0  0  0  0  0
   43.6888   11.7473   14.2242 C   0  0  2  0  0  0  0  0  0  0  0  0
   42.2751   11.7783   14.6597 N   0  0  0  0  0  0  0  0  0  0  0  0
   43.8094   12.2673   12.7762 C   0  0  1  0  0  0  0  0  0  0  0  0
   43.3421   13.6254   12.6953 O   0  0  0  0  0  0  0  0  0  0  0  0
   45.2888   12.2045   12.3691 C   0  0  2  0  0  0  0  0  0  0  0  0
   45.4339   12.6680   11.0192 O   0  0  0  0  0  0  0  0  0  0  0  0
   45.7621   10.7304   12.4719 C   0  0  2  0  0  0  0  0  0  0  0  0
   45.6110   10.2461   13.8374 O   0  0  0  0  0  0  0  0  0  0  0  0
   47.2475   10.6390   12.0811 C   0  0  0  0  0  0  0  0  0  0  0  0
   47.9980   11.6419   12.7898 O   0  0  0  0  0  0  0  0  0  0  0  0
  1  2  1  1  0  0  0
  1  3  1  0  0  0  0
  1  4  2  0  0  0  0
  1 16  1  0  0  0  0
  5  6  1  6  0  0  0
  5  7  1  0  0  0  0
  5 14  1  0  0  0  0
  7  8  1  6  0  0  0
  7  9  1  0  0  0  0
  9 10  1  1  0  0  0
  9 11  1  0  0  0  0
 11 12  1  6  0  0  0
 11 13  1  0  0  0  0
 13 14  1  0  0  0  0
 13 15  1  1  0  0  0
 15 16  1  0  0  0  0
M  CHG  1   3  -1
M  END
>  <CHROM.1>
48.93469973,-164.67845964,166.22307961,46.39301600,11.56276049,12.69195419
0.16353775,0.20840303,-0.50032730

>  <Name>
ligand

>  <RI>
0

>  <Rbt.Current_Directory>
/home/itssahil/PROJECTS/Mol_Feturizer/New_Systems/rnas/3B4B

>  <Rbt.Executable>
rbdock ($Id: //depot/dev/client3/rdock/2013.1/src/exe/rbdock.cxx#4 $)

>  <Rbt.Library>
libRbt.so (2013.1, Build901 2013/11/27)

>  <Rbt.Parameter_File>
/export/apps/rDock/src/rDock_2013.1_src/data/scripts/dock_solv.prm

>  <Rbt.Receptor>
prm/pocket_docking_5.prm

>  <SCORE>
-9.02465

>  <SCORE.INTER>
-8.74522

>  <SCORE.INTER.CONST>
1

>  <SCORE.INTER.POLAR>
-1.125

>  <SCORE.INTER.ROT>
3

>  <SCORE.INTER.SOLV>
17.9523

>  <SCORE.INTER.VDW>
-13.6642

>  <SCORE.INTER.norm>
-0.546576

>  <SCORE.INTRA>
-0.279425

>  <SCORE.INTRA.DIHEDRAL>
-0.39598

>  <SCORE.INTRA.DIHEDRAL.0>
2.21864

>  <SCORE.INTRA.POLAR>
0

>  <SCORE.INTRA.POLAR.0>
0

>  <SCORE.INTRA.REPUL>
0

>  <SCORE.INTRA.REPUL.0>
0

>  <SCORE.INTRA.SOLV>
0.265049

>  <SCORE.INTRA.SOLV.lig_0>
-58.5963

>  <SCORE.INTRA.VDW>
-0.213959

>  <SCORE.INTRA.VDW.0>
-0.437849

>  <SCORE.INTRA.norm>
-0.0174641

>  <SCORE.RESTR>
0

>  <SCORE.RESTR.CAVITY>
0

>  <SCORE.RESTR.norm>
0

>  <SCORE.SYSTEM>
0

>  <SCORE.SYSTEM.CONST>
0

>  <SCORE.SYSTEM.DIHEDRAL>
0

>  <SCORE.SYSTEM.SOLV>
0

>  <SCORE.SYSTEM.norm>
0

>  <SCORE.heavy>
16

>  <SCORE.norm>
-0.564041

>  <RMSD>
0.741

$$$$
ligand
 OpenBabel11021811463D
libRbt.so/2013.1/901 2013/11/27
 16 16  0  0  0  0  0  0  0  0999 V2000
   49.3865   11.9919   11.5287 P   0  0  2  0  0  0  0  0  0  0  0  0
   50.0863   13.2543   11.8717 O   0  0  0  0  0  0  0  0  0  0  0  0
   50.2207   10.7258   12.0692 O   0  5  0  0  0  0  0  0  0  0  0  0
   49.2588   11.8756    9.9179 O   0  0  0  0  0  0  0  0  0  0  0  0
   44.7304   11.2390   14.7707 C   0  0  2  0  0  0  0  0  0  0  0  0
   44.2189    9.9019   14.8715 O   0  0  0  0  0  0  0  0  0  0  0  0
   43.7570   12.1657   13.9889 C   0  0  2  0  0  0  0  0  0  0  0  0
   42.4364   12.1812   14.6559 N   0  0  0  0  0  0  0  0  0  0  0  0
   43.6175   11.6299   12.5483 C   0  0  1  0  0  0  0  0  0  0  0  0
   42.7373   12.4751   11.7867 O   0  0  0  0  0  0  0  0  0  0  0  0
   45.0121   11.6231   11.9054 C   0  0  2  0  0  0  0  0  0  0  0  0
   44.9198   11.1147   10.5672 O   0  0  0  0  0  0  0  0  0  0  0  0
   45.9363   10.7085   12.7520 C   0  0  2  0  0  0  0  0  0  0  0  0
   46.0306   11.2106   14.1162 O   0  0  0  0  0  0  0  0  0  0  0  0
   47.3468   10.6926   12.1373 C   0  0  0  0  0  0  0  0  0  0  0  0
   47.9301   12.0052   12.2278 O   0  0  0  0  0  0  0  0  0  0  0  0
  1  2  1  1  0  0  0
  1  3  1  0  0  0  0
  1  4  2  0  0  0  0
  1 16  1  0  0  0  0
  5  6  1  6  0  0  0
  5  7  1  0  0  0  0
  5 14  1  0  0  0  0
  7  8  1  1  0  0  0
  7  9  1  0  0  0  0
  9 10  1  6  0  0  0
  9 11  1  0  0  0  0
 11 12  1  6  0  0  0
 11 13  1  0  0  0  0
 13 14  1  0  0  0  0
 13 15  1  6  0  0  0
 15 16  1  0  0  0  0
M  CHG  1   3  -1
M  END
>  <CHROM.1>
65.04224189,-177.81378500,-168.44331025,46.40409386,11.58219585,12.49599392
-0.35165564,-0.04447914,1.85377500

>  <Name>
ligand

>  <RI>
0

>  <Rbt.Current_Directory>
/home/itssahil/PROJECTS/Mol_Feturizer/New_Systems/rnas/3B4B

>  <Rbt.Executable>
rbdock ($Id: //depot/dev/client3/rdock/2013.1/src/exe/rbdock.cxx#4 $)

>  <Rbt.Library>
libRbt.so (2013.1, Build901 2013/11/27)

>  <Rbt.Parameter_File>
/export/apps/rDock/src/rDock_2013.1_src/data/scripts/dock_solv.prm

>  <Rbt.Receptor>
prm/pocket_docking_7.prm

>  <SCORE>
-9.79708

>  <SCORE.INTER>
-8.48537

>  <SCORE.INTER.CONST>
1

>  <SCORE.INTER.POLAR>
-1.12428

>  <SCORE.INTER.ROT>
3

>  <SCORE.INTER.SOLV>
17.8615

>  <SCORE.INTER.VDW>
-13.4632

>  <SCORE.INTER.norm>
-0.530336

>  <SCORE.INTRA>
-1.3117

>  <SCORE.INTRA.DIHEDRAL>
-1.88617

>  <SCORE.INTRA.DIHEDRAL.0>
2.21864

>  <SCORE.INTRA.POLAR>
0

>  <SCORE.INTRA.POLAR.0>
0

>  <SCORE.INTRA.REPUL>
0

>  <SCORE.INTRA.REPUL.0>
0

>  <SCORE.INTRA.SOLV>
-0.269553

>  <SCORE.INTRA.SOLV.lig_0>
-58.5963

>  <SCORE.INTRA.VDW>
-0.233842

>  <SCORE.INTRA.VDW.0>
-0.437849

>  <SCORE.INTRA.norm>
-0.0819814

>  <SCORE.RESTR>
0

>  <SCORE.RESTR.CAVITY>
0

>  <SCORE.RESTR.norm>
0

>  <SCORE.SYSTEM>
0

>  <SCORE.SYSTEM.CONST>
0

>  <SCORE.SYSTEM.DIHEDRAL>
0

>  <SCORE.SYSTEM.SOLV>
0

>  <SCORE.SYSTEM.norm>
0

>  <SCORE.heavy>
16

>  <SCORE.norm>
-0.612317

>  <RMSD>
0.741

$$$$
ligand
 OpenBabel11021811463D
libRbt.so/2013.1/901 2013/11/27
 16 16  0  0  0  0  0  0  0  0999 V2000
   49.8773   11.9505   11.8490 P   0  0  2  0  0  0  0  0  0  0  0  0
   50.0976   13.3260   11.3385 O   0  0  0  0  0  0  0  0  0  0  0  0
   50.8505   11.6548   13.0965 O   0  5  0  0  0  0  0  0  0  0  0  0
   50.2093   10.8874   10.6727 O   0  0  0  0  0  0  0  0  0  0  0  0
   45.0229   10.8082   14.7473 C   0  0  2  0  0  0  0  0  0  0  0  0
   44.6797    9.4245   14.9118 O   0  0  0  0  0  0  0  0  0  0  0  0
   44.0503   11.5257   13.7690 C   0  0  2  0  0  0  0  0  0  0  0  0
   42.6621   11.4073   14.2668 N   0  0  0  0  0  0  0  0  0  0  0  0
   44.1739   10.8655   12.3795 C   0  0  1  0  0  0  0  0  0  0  0  0
   43.3008   11.5172   11.4403 O   0  0  0  0  0  0  0  0  0  0  0  0
   45.6306   11.0047   11.9138 C   0  0  2  0  0  0  0  0  0  0  0  0
   45.7833   10.3860   10.6285 O   0  0  0  0  0  0  0  0  0  0  0  0
   46.5446   10.2972   12.9489 C   0  0  2  0  0  0  0  0  0  0  0  0
   46.3912   10.9119   14.2607 O   0  0  0  0  0  0  0  0  0  0  0  0
   48.0143   10.4318   12.5137 C   0  0  0  0  0  0  0  0  0  0  0  0
   48.3411   11.8217   12.3325 O   0  0  0  0  0  0  0  0  0  0  0  0
  1  2  1  6  0  0  0
  1  3  1  0  0  0  0
  1  4  2  0  0  0  0
  1 16  1  0  0  0  0
  5  6  1  6  0  0  0
  5  7  1  0  0  0  0
  5 14  1  0  0  0  0
  7  8  1  1  0  0  0
  7  9  1  0  0  0  0
  9 10  1  6  0  0  0
  9 11  1  0  0  0  0
 11 12  1  6  0  0  0
 11 13  1  0  0  0  0
 13 14  1  0  0  0  0
 13 15  1  6  0  0  0
 15 16  1  0  0  0  0
M  CHG  1   3  -1
M  END
>  <CHROM.1>
55.45951401,-178.94285383,165.74729231,46.90618382,11.20448417,12.60354138
-0.29349220,0.11037263,1.76920058

>  <Name>
ligand

>  <RI>
0

>  <Rbt.Current_Directory>
/home/itssahil/PROJECTS/Mol_Feturizer/New_Systems/rnas/3B4B

>  <Rbt.Executable>
rbdock ($Id: //depot/dev/client3/rdock/2013.1/src/exe/rbdock.cxx#4 $)

>  <Rbt.Library>
libRbt.so (2013.1, Build901 2013/11/27)

>  <Rbt.Parameter_File>
/export/apps/rDock/src/rDock_2013.1_src/data/scripts/dock_solv.prm

>  <Rbt.Receptor>
prm/pocket_docking_2.prm

>  <SCORE>
-9.71059

>  <SCORE.INTER>
-8.44044

>  <SCORE.INTER.CONST>
1

>  <SCORE.INTER.POLAR>
-1.122

>  <SCORE.INTER.ROT>
3

>  <SCORE.INTER.SOLV>
18.6972

>  <SCORE.INTER.VDW>
-13.7193

>  <SCORE.INTER.norm>
-0.527527

>  <SCORE.INTRA>
-1.27016

>  <SCORE.INTRA.DIHEDRAL>
-1.82383

>  <SCORE.INTRA.DIHEDRAL.0>
2.21864

>  <SCORE.INTRA.POLAR>
0

>  <SCORE.INTRA.POLAR.0>
0

>  <SCORE.INTRA.REPUL>
0

>  <SCORE.INTRA.REPUL.0>
0

>  <SCORE.INTRA.SOLV>
-0.276144

>  <SCORE.INTRA.SOLV.lig_0>
-58.5963

>  <SCORE.INTRA.VDW>
-0.22017

>  <SCORE.INTRA.VDW.0>
-0.437849

>  <SCORE.INTRA.norm>
-0.0793849

>  <SCORE.RESTR>
0

>  <SCORE.RESTR.CAVITY>
0

>  <SCORE.RESTR.norm>
0

>  <SCORE.SYSTEM>
0

>  <SCORE.SYSTEM.CONST>
0

>  <SCORE.SYSTEM.DIHEDRAL>
0

>  <SCORE.SYSTEM.SOLV>
0

>  <SCORE.SYSTEM.norm>
0

>  <SCORE.heavy>
16

>  <SCORE.norm>
-0.606912

>  <RMSD>
0.767

$$$$
ligand
 OpenBabel11021811463D
libRbt.so/2013.1/901 2013/11/27
 16 16  0  0  0  0  0  0  0  0999 V2000
   49.5289   11.9319   11.0890 P   0  0  2  0  0  0  0  0  0  0  0  0
   49.6328   13.2651   11.7315 O   0  0  0  0  0  0  0  0  0  0  0  0
   50.5499   10.8972   11.7803 O   0  5  0  0  0  0  0  0  0  0  0  0
   49.9134   12.0659    9.5210 O   0  0  0  0  0  0  0  0  0  0  0  0
   44.6007   10.4601   14.5760 C   0  0  2  0  0  0  0  0  0  0  0  0
   44.1715    9.2850   13.8728 O   0  0  0  0  0  0  0  0  0  0  0  0
   43.7563   11.7039   14.1789 C   0  0  2  0  0  0  0  0  0  0  0  0
   42.3257   11.4466   14.4551 N   0  0  0  0  0  0  0  0  0  0  0  0
   43.9650   11.9808   12.6750 C   0  0  1  0  0  0  0  0  0  0  0  0
   43.2126   13.1394   12.2740 O   0  0  0  0  0  0  0  0  0  0  0  0
   45.4620   12.2295   12.4396 C   0  0  2  0  0  0  0  0  0  0  0  0
   45.6928   12.4757   11.0453 O   0  0  0  0  0  0  0  0  0  0  0  0
   46.2437   10.9658   12.8861 C   0  0  2  0  0  0  0  0  0  0  0  0
   46.0097   10.7009   14.2993 O   0  0  0  0  0  0  0  0  0  0  0  0
   47.7507   11.1916   12.6730 C   0  0  0  0  0  0  0  0  0  0  0  0
   48.0183   11.3892   11.2727 O   0  0  0  0  0  0  0  0  0  0  0  0
  1  2  1  1  0  0  0
  1  3  1  0  0  0  0
  1  4  2  0  0  0  0
  1 16  1  0  0  0  0
  5  6  1  6  0  0  0
  5  7  1  0  0  0  0
  5 14  1  0  0  0  0
  7  8  1  6  0  0  0
  7  9  1  0  0  0  0
  9 10  1  1  0  0  0
  9 11  1  0  0  0  0
 11 12  1  6  0  0  0
 11 13  1  0  0  0  0
 13 14  1  0  0  0  0
 13 15  1  1  0  0  0
 15 16  1  0  0  0  0
M  CHG  1   3  -1
M  END
>  <CHROM.1>
-62.43143661,168.07803013,-64.14924809,46.60236492,11.60201128,12.39790424
0.36328668,0.24764610,-0.77807760

>  <Name>
ligand

>  <RI>
0

>  <Rbt.Current_Directory>
/home/itssahil/PROJECTS/Mol_Feturizer/New_Systems/rnas/3B4B

>  <Rbt.Executable>
rbdock ($Id: //depot/dev/client3/rdock/2013.1/src/exe/rbdock.cxx#4 $)

>  <Rbt.Library>
libRbt.so (2013.1, Build901 2013/11/27)

>  <Rbt.Parameter_File>
/export/apps/rDock/src/rDock_2013.1_src/data/scripts/dock_solv.prm

>  <Rbt.Receptor>
prm/pocket_docking_2.prm

>  <SCORE>
-9.54567

>  <SCORE.INTER>
-8.64327

>  <SCORE.INTER.CONST>
1

>  <SCORE.INTER.POLAR>
-1.125

>  <SCORE.INTER.ROT>
3

>  <SCORE.INTER.SOLV>
16.7328

>  <SCORE.INTER.VDW>
-13.1898

>  <SCORE.INTER.norm>
-0.540204

>  <SCORE.INTRA>
-0.902402

>  <SCORE.INTRA.DIHEDRAL>
-1.49116

>  <SCORE.INTRA.DIHEDRAL.0>
2.21864

>  <SCORE.INTRA.POLAR>
0

>  <SCORE.INTRA.POLAR.0>
0

>  <SCORE.INTRA.REPUL>
0

>  <SCORE.INTRA.REPUL.0>
0

>  <SCORE.INTRA.SOLV>
-0.517954

>  <SCORE.INTRA.SOLV.lig_0>
-58.5963

>  <SCORE.INTRA.VDW>
0.102156

>  <SCORE.INTRA.VDW.0>
-0.437849

>  <SCORE.INTRA.norm>
-0.0564001

>  <SCORE.RESTR>
0

>  <SCORE.RESTR.CAVITY>
0

>  <SCORE.RESTR.norm>
0

>  <SCORE.SYSTEM>
0

>  <SCORE.SYSTEM.CONST>
0

>  <SCORE.SYSTEM.DIHEDRAL>
0

>  <SCORE.SYSTEM.SOLV>
0

>  <SCORE.SYSTEM.norm>
0

>  <SCORE.heavy>
16

>  <SCORE.norm>
-0.596605

>  <RMSD>
0.770

$$$$
ligand
 OpenBabel11021811463D
libRbt.so/2013.1/901 2013/11/27
 16 16  0  0  0  0  0  0  0  0999 V2000
   49.4618   11.9224   11.0421 P   0  0  2  0  0  0  0  0  0  0  0  0
   49.5653   13.2648   11.6651 O   0  0  0  0  0  0  0  0  0  0  0  0
   50.4930   10.9017   11.7391 O   0  5  0  0  0  0  0  0  0  0  0  0
   49.8328   12.0362    9.4693 O   0  0  0  0  0  0  0  0  0  0  0  0
   44.5600   10.4568   14.5732 C   0  0  2  0  0  0  0  0  0  0  0  0
   44.1342    9.2827   13.8663 O   0  0  0  0  0  0  0  0  0  0  0  0
   43.7041   11.6968   14.1890 C   0  0  2  0  0  0  0  0  0  0  0  0
   42.2773   11.4278   14.4737 N   0  0  0  0  0  0  0  0  0  0  0  0
   43.9002   11.9836   12.6853 C   0  0  1  0  0  0  0  0  0  0  0  0
   43.1369   13.1391   12.2961 O   0  0  0  0  0  0  0  0  0  0  0  0
   45.3937   12.2442   12.4408 C   0  0  2  0  0  0  0  0  0  0  0  0
   45.6130   12.4999   11.0464 O   0  0  0  0  0  0  0  0  0  0  0  0
   46.1875   10.9836   12.8747 C   0  0  2  0  0  0  0  0  0  0  0  0
   45.9653   10.7091   14.2879 O   0  0  0  0  0  0  0  0  0  0  0  0
   47.6913   11.2212   12.6523 C   0  0  0  0  0  0  0  0  0  0  0  0
   47.9551   11.3759   11.2459 O   0  0  0  0  0  0  0  0  0  0  0  0
  1  2  1  1  0  0  0
  1  3  1  0  0  0  0
  1  4  2  0  0  0  0
  1 16  1  0  0  0  0
  5  6  1  6  0  0  0
  5  7  1  0  0  0  0
  5 14  1  0  0  0  0
  7  8  1  6  0  0  0
  7  9  1  0  0  0  0
  9 10  1  1  0  0  0
  9 11  1  0  0  0  0
 11 12  1  6  0  0  0
 11 13  1  0  0  0  0
 13 14  1  0  0  0  0
 13 15  1  1  0  0  0
 15 16  1  0  0  0  0
M  CHG  1   3  -1
M  END
>  <CHROM.1>
-64.68938632,168.43441540,-63.05432458,46.54147528,11.60216650,12.38092253
0.36770557,0.25509857,-0.77854261

>  <Name>
ligand

>  <RI>
0

>  <Rbt.Current_Directory>
/home/itssahil/PROJECTS/Mol_Feturizer/New_Systems/rnas/3B4B

>  <Rbt.Executable>
rbdock ($Id: //depot/dev/client3/rdock/2013.1/src/exe/rbdock.cxx#4 $)

>  <Rbt.Library>
libRbt.so (2013.1, Build901 2013/11/27)

>  <Rbt.Parameter_File>
/export/apps/rDock/src/rDock_2013.1_src/data/scripts/dock_solv.prm

>  <Rbt.Receptor>
prm/pocket_docking_2.prm

>  <SCORE>
-9.5284

>  <SCORE.INTER>
-8.53309

>  <SCORE.INTER.CONST>
1

>  <SCORE.INTER.POLAR>
-1.12471

>  <SCORE.INTER.ROT>
3

>  <SCORE.INTER.SOLV>
16.7671

>  <SCORE.INTER.VDW>
-13.1288

>  <SCORE.INTER.norm>
-0.533318

>  <SCORE.INTRA>
-0.995305

>  <SCORE.INTRA.DIHEDRAL>
-1.48502

>  <SCORE.INTRA.DIHEDRAL.0>
2.21864

>  <SCORE.INTRA.POLAR>
0

>  <SCORE.INTRA.POLAR.0>
0

>  <SCORE.INTRA.REPUL>
0

>  <SCORE.INTRA.REPUL.0>
0

>  <SCORE.INTRA.SOLV>
-0.548499

>  <SCORE.INTRA.SOLV.lig_0>
-58.5963

>  <SCORE.INTRA.VDW>
0.021453

>  <SCORE.INTRA.VDW.0>
-0.437849

>  <SCORE.INTRA.norm>
-0.0622065

>  <SCORE.RESTR>
0

>  <SCORE.RESTR.CAVITY>
0

>  <SCORE.RESTR.norm>
0

>  <SCORE.SYSTEM>
0

>  <SCORE.SYSTEM.CONST>
0

>  <SCORE.SYSTEM.DIHEDRAL>
0

>  <SCORE.SYSTEM.SOLV>
0

>  <SCORE.SYSTEM.norm>
0

>  <SCORE.heavy>
16

>  <SCORE.norm>
-0.595525

>  <RMSD>
0.797

$$$$
ligand
 OpenBabel11021811463D
libRbt.so/2013.1/901 2013/11/27
 16 16  0  0  0  0  0  0  0  0999 V2000
   49.4326   11.9342   11.1175 P   0  0  2  0  0  0  0  0  0  0  0  0
   49.5537   13.2567   11.7788 O   0  0  0  0  0  0  0  0  0  0  0  0
   50.4295   10.8729   11.8037 O   0  5  0  0  0  0  0  0  0  0  0  0
   49.8334   12.0825    9.5549 O   0  0  0  0  0  0  0  0  0  0  0  0
   44.4776   10.4393   14.5539 C   0  0  2  0  0  0  0  0  0  0  0  0
   44.0142    9.3061   13.8050 O   0  0  0  0  0  0  0  0  0  0  0  0
   43.6675   11.7212   14.2104 C   0  0  2  0  0  0  0  0  0  0  0  0
   42.2308   11.4928   14.4807 N   0  0  0  0  0  0  0  0  0  0  0  0
   43.8803   12.0530   12.7183 C   0  0  1  0  0  0  0  0  0  0  0  0
   43.1597   13.2475   12.3671 O   0  0  0  0  0  0  0  0  0  0  0  0
   45.3831   12.2693   12.4880 C   0  0  2  0  0  0  0  0  0  0  0  0
   45.6176   12.5654   11.1040 O   0  0  0  0  0  0  0  0  0  0  0  0
   46.1303   10.9672   12.8802 C   0  0  2  0  0  0  0  0  0  0  0  0
   45.8922   10.6518   14.2823 O   0  0  0  0  0  0  0  0  0  0  0  0
   47.6425   11.1594   12.6713 C   0  0  0  0  0  0  0  0  0  0  0  0
   47.9114   11.4153   11.2807 O   0  0  0  0  0  0  0  0  0  0  0  0
  1  2  1  1  0  0  0
  1  3  1  0  0  0  0
  1  4  2  0  0  0  0
  1 16  1  0  0  0  0
  5  6  1  6  0  0  0
  5  7  1  0  0  0  0
  5 14  1  0  0  0  0
  7  8  1  6  0  0  0
  7  9  1  0  0  0  0
  9 10  1  1  0  0  0
  9 11  1  0  0  0  0
 11 12  1  6  0  0  0
 11 13  1  0  0  0  0
 13 14  1  0  0  0  0
 13 15  1  1  0  0  0
 15 16  1  0  0  0  0
M  CHG  1   3  -1
M  END
>  <CHROM.1>
-62.04002968,167.61046632,-66.12666688,46.50390381,11.62015477,12.41905108
0.34666414,0.26631043,-0.73221187

>  <Name>
ligand

>  <RI>
0

>  <Rbt.Current_Directory>
/home/itssahil/PROJECTS/Mol_Feturizer/New_Systems/rnas/3B4B

>  <Rbt.Executable>
rbdock ($Id: //depot/dev/client3/rdock/2013.1/src/exe/rbdock.cxx#4 $)

>  <Rbt.Library>
libRbt.so (2013.1, Build901 2013/11/27)

>  <Rbt.Parameter_File>
/export/apps/rDock/src/rDock_2013.1_src/data/scripts/dock_solv.prm

>  <Rbt.Receptor>
prm/pocket_docking_2.prm

>  <SCORE>
-9.55504

>  <SCORE.INTER>
-8.72188

>  <SCORE.INTER.CONST>
1

>  <SCORE.INTER.POLAR>
-1.125

>  <SCORE.INTER.ROT>
3

>  <SCORE.INTER.SOLV>
16.7833

>  <SCORE.INTER.VDW>
-13.259

>  <SCORE.INTER.norm>
-0.545118

>  <SCORE.INTRA>
-0.833159

>  <SCORE.INTRA.DIHEDRAL>
-1.41258

>  <SCORE.INTRA.DIHEDRAL.0>
2.21864

>  <SCORE.INTRA.POLAR>
0

>  <SCORE.INTRA.POLAR.0>
0

>  <SCORE.INTRA.REPUL>
0

>  <SCORE.INTRA.REPUL.0>
0

>  <SCORE.INTRA.SOLV>
-0.489928

>  <SCORE.INTRA.SOLV.lig_0>
-58.5963

>  <SCORE.INTRA.VDW>
0.118097

>  <SCORE.INTRA.VDW.0>
-0.437849

>  <SCORE.INTRA.norm>
-0.0520724

>  <SCORE.RESTR>
0

>  <SCORE.RESTR.CAVITY>
0

>  <SCORE.RESTR.norm>
0

>  <SCORE.SYSTEM>
0

>  <SCORE.SYSTEM.CONST>
0

>  <SCORE.SYSTEM.DIHEDRAL>
0

>  <SCORE.SYSTEM.SOLV>
0

>  <SCORE.SYSTEM.norm>
0

>  <SCORE.heavy>
16

>  <SCORE.norm>
-0.59719

>  <RMSD>
0.805

$$$$
ligand
 OpenBabel11021811463D
libRbt.so/2013.1/901 2013/11/27
 16 16  0  0  0  0  0  0  0  0999 V2000
   49.4267   11.9093   11.1371 P   0  0  2  0  0  0  0  0  0  0  0  0
   49.5440   13.2408   11.7810 O   0  0  0  0  0  0  0  0  0  0  0  0
   50.4189   10.8573   11.8442 O   0  5  0  0  0  0  0  0  0  0  0  0
   49.8376   12.0360    9.5753 O   0  0  0  0  0  0  0  0  0  0  0  0
   44.4756   10.1768   14.4824 C   0  0  2  0  0  0  0  0  0  0  0  0
   44.1875    8.9931   13.7236 O   0  0  0  0  0  0  0  0  0  0  0  0
   43.5164   11.3422   14.1091 C   0  0  2  0  0  0  0  0  0  0  0  0
   42.1140   10.9282   14.3356 N   0  0  0  0  0  0  0  0  0  0  0  0
   43.7307   11.6996   12.6232 C   0  0  1  0  0  0  0  0  0  0  0  0
   42.8719   12.7900   12.2454 O   0  0  0  0  0  0  0  0  0  0  0  0
   45.1990   12.1102   12.4389 C   0  0  2  0  0  0  0  0  0  0  0  0
   45.4360   12.4349   11.0618 O   0  0  0  0  0  0  0  0  0  0  0  0
   46.0969   10.9165   12.8590 C   0  0  2  0  0  0  0  0  0  0  0  0
   45.8582   10.5721   14.2541 O   0  0  0  0  0  0  0  0  0  0  0  0
   47.5769   11.3044   12.6964 C   0  0  0  0  0  0  0  0  0  0  0  0
   47.9043   11.3930   11.2977 O   0  0  0  0  0  0  0  0  0  0  0  0
  1  2  1  1  0  0  0
  1  3  1  0  0  0  0
  1  4  2  0  0  0  0
  1 16  1  0  0  0  0
  5  6  1  6  0  0  0
  5  7  1  0  0  0  0
  5 14  1  0  0  0  0
  7  8  1  6  0  0  0
  7  9  1  0  0  0  0
  9 10  1  1  0  0  0
  9 11  1  0  0  0  0
 11 12  1  6  0  0  0
 11 13  1  0  0  0  0
 13 14  1  0  0  0  0
 13 15  1  1  0  0  0
 15 16  1  0  0  0  0
M  CHG  1   3  -1
M  END
>  <CHROM.1>
-70.82912791,175.73452414,-59.53259486,46.44374542,11.46296486,12.38505794
-0.37245078,-0.19763483,2.37420684

>  <Name>
ligand

>  <RI>
0

>  <Rbt.Current_Directory>
/home/itssahil/PROJECTS/Mol_Feturizer/New_Systems/rnas/3B4B

>  <Rbt.Executable>
rbdock ($Id: //depot/dev/client3/rdock/2013.1/src/exe/rbdock.cxx#4 $)

>  <Rbt.Library>
libRbt.so (2013.1, Build901 2013/11/27)

>  <Rbt.Parameter_File>
/export/apps/rDock/src/rDock_2013.1_src/data/scripts/dock_solv.prm

>  <Rbt.Receptor>
prm/pocket_docking_2.prm

>  <SCORE>
-8.91037

>  <SCORE.INTER>
-7.62783

>  <SCORE.INTER.CONST>
1

>  <SCORE.INTER.POLAR>
-1.125

>  <SCORE.INTER.ROT>
3

>  <SCORE.INTER.SOLV>
16.9457

>  <SCORE.INTER.VDW>
-12.5838

>  <SCORE.INTER.norm>
-0.47674

>  <SCORE.INTRA>
-1.28254

>  <SCORE.INTRA.DIHEDRAL>
-1.71663

>  <SCORE.INTRA.DIHEDRAL.0>
2.21864

>  <SCORE.INTRA.POLAR>
0

>  <SCORE.INTRA.POLAR.0>
0

>  <SCORE.INTRA.REPUL>
0

>  <SCORE.INTRA.REPUL.0>
0

>  <SCORE.INTRA.SOLV>
-0.701274

>  <SCORE.INTRA.SOLV.lig_0>
-58.5963

>  <SCORE.INTRA.VDW>
-0.0735885

>  <SCORE.INTRA.VDW.0>
-0.437849

>  <SCORE.INTRA.norm>
-0.0801589

>  <SCORE.RESTR>
0

>  <SCORE.RESTR.CAVITY>
0

>  <SCORE.RESTR.norm>
0

>  <SCORE.SYSTEM>
0

>  <SCORE.SYSTEM.CONST>
0

>  <SCORE.SYSTEM.DIHEDRAL>
0

>  <SCORE.SYSTEM.SOLV>
0

>  <SCORE.SYSTEM.norm>
0

>  <SCORE.heavy>
16

>  <SCORE.norm>
-0.556898

>  <RMSD>
0.809

$$$$
ligand
 OpenBabel11021811463D
libRbt.so/2013.1/901 2013/11/27
 16 16  0  0  0  0  0  0  0  0999 V2000
   49.4116   12.0406   11.0172 P   0  0  2  0  0  0  0  0  0  0  0  0
   49.5398   13.2929   11.8023 O   0  0  0  0  0  0  0  0  0  0  0  0
   50.4694   10.9443   11.5370 O   0  5  0  0  0  0  0  0  0  0  0  0
   49.7201   12.3565    9.4586 O   0  0  0  0  0  0  0  0  0  0  0  0
   44.5521   10.4468   14.5422 C   0  0  2  0  0  0  0  0  0  0  0  0
   44.1083    9.2934   13.8125 O   0  0  0  0  0  0  0  0  0  0  0  0
   43.7037   11.7030   14.1964 C   0  0  2  0  0  0  0  0  0  0  0  0
   42.2775   11.4401   14.4897 N   0  0  0  0  0  0  0  0  0  0  0  0
   43.8868   12.0235   12.6979 C   0  0  1  0  0  0  0  0  0  0  0  0
   43.1301   13.1946   12.3440 O   0  0  0  0  0  0  0  0  0  0  0  0
   45.3800   12.2765   12.4438 C   0  0  2  0  0  0  0  0  0  0  0  0
   45.5872   12.5630   11.0535 O   0  0  0  0  0  0  0  0  0  0  0  0
   46.1667   10.9990   12.8395 C   0  0  2  0  0  0  0  0  0  0  0  0
   45.9566   10.6932   14.2482 O   0  0  0  0  0  0  0  0  0  0  0  0
   47.6702   11.2284   12.6069 C   0  0  0  0  0  0  0  0  0  0  0  0
   47.9141   11.4652   11.2083 O   0  0  0  0  0  0  0  0  0  0  0  0
  1  2  1  1  0  0  0
  1  3  1  0  0  0  0
  1  4  2  0  0  0  0
  1 16  1  0  0  0  0
  5  6  1  6  0  0  0
  5  7  1  0  0  0  0
  5 14  1  0  0  0  0
  7  8  1  6  0  0  0
  7  9  1  0  0  0  0
  9 10  1  1  0  0  0
  9 11  1  0  0  0  0
 11 12  1  6  0  0  0
 11 13  1  0  0  0  0
 13 14  1  0  0  0  0
 13 15  1  1  0  0  0
 15 16  1  0  0  0  0
M  CHG  1   3  -1
M  END
>  <CHROM.1>
-62.48596320,166.87134128,-58.61873393,46.51409831,11.65977621,12.36436084
0.37829248,0.25946079,-0.74880460

>  <Name>
ligand

>  <RI>
0

>  <Rbt.Current_Directory>
/home/itssahil/PROJECTS/Mol_Feturizer/New_Systems/rnas/3B4B

>  <Rbt.Executable>
rbdock ($Id: //depot/dev/client3/rdock/2013.1/src/exe/rbdock.cxx#4 $)

>  <Rbt.Library>
libRbt.so (2013.1, Build901 2013/11/27)

>  <Rbt.Parameter_File>
/export/apps/rDock/src/rDock_2013.1_src/data/scripts/dock_solv.prm

>  <Rbt.Receptor>
prm/pocket_docking_4.prm

>  <SCORE>
-9.59176

>  <SCORE.INTER>
-8.74021

>  <SCORE.INTER.CONST>
1

>  <SCORE.INTER.POLAR>
-1.12449

>  <SCORE.INTER.ROT>
3

>  <SCORE.INTER.SOLV>
16.3094

>  <SCORE.INTER.VDW>
-13.115

>  <SCORE.INTER.norm>
-0.546263

>  <SCORE.INTRA>
-0.851553

>  <SCORE.INTRA.DIHEDRAL>
-1.375

>  <SCORE.INTRA.DIHEDRAL.0>
2.21864

>  <SCORE.INTRA.POLAR>
0

>  <SCORE.INTRA.POLAR.0>
0

>  <SCORE.INTRA.REPUL>
0

>  <SCORE.INTRA.REPUL.0>
0

>  <SCORE.INTRA.SOLV>
-0.563346

>  <SCORE.INTRA.SOLV.lig_0>
-58.5963

>  <SCORE.INTRA.VDW>
0.117621

>  <SCORE.INTRA.VDW.0>
-0.437849

>  <SCORE.INTRA.norm>
-0.0532221

>  <SCORE.RESTR>
0

>  <SCORE.RESTR.CAVITY>
0

>  <SCORE.RESTR.norm>
0

>  <SCORE.SYSTEM>
0

>  <SCORE.SYSTEM.CONST>
0

>  <SCORE.SYSTEM.DIHEDRAL>
0

>  <SCORE.SYSTEM.SOLV>
0

>  <SCORE.SYSTEM.norm>
0

>  <SCORE.heavy>
16

>  <SCORE.norm>
-0.599485

>  <RMSD>
0.850

$$$$
ligand
 OpenBabel11021811463D
libRbt.so/2013.1/901 2013/11/27
 16 16  0  0  0  0  0  0  0  0999 V2000
   49.3955   11.9572   10.8039 P   0  0  2  0  0  0  0  0  0  0  0  0
   49.5250   13.3127   11.3929 O   0  0  0  0  0  0  0  0  0  0  0  0
   50.4698   10.9562   11.4634 O   0  5  0  0  0  0  0  0  0  0  0  0
   49.6784   12.0406    9.2110 O   0  0  0  0  0  0  0  0  0  0  0  0
   44.6713   10.6247   14.6202 C   0  0  2  0  0  0  0  0  0  0  0  0
   44.2798    9.3685   14.0473 O   0  0  0  0  0  0  0  0  0  0  0  0
   43.7465   11.7815   14.1468 C   0  0  2  0  0  0  0  0  0  0  0  0
   42.3434   11.4799   14.5066 N   0  0  0  0  0  0  0  0  0  0  0  0
   43.8825   11.9256   12.6163 C   0  0  1  0  0  0  0  0  0  0  0  0
   43.0539   13.0020   12.1429 O   0  0  0  0  0  0  0  0  0  0  0  0
   45.3538   12.2259   12.2949 C   0  0  2  0  0  0  0  0  0  0  0  0
   45.5178   12.3508   10.8752 O   0  0  0  0  0  0  0  0  0  0  0  0
   46.2191   11.0507   12.8219 C   0  0  2  0  0  0  0  0  0  0  0  0
   46.0537   10.9088   14.2623 O   0  0  0  0  0  0  0  0  0  0  0  0
   47.7025   11.3308   12.5245 C   0  0  0  0  0  0  0  0  0  0  0  0
   47.9057   11.4076   11.1017 O   0  0  0  0  0  0  0  0  0  0  0  0
  1  2  1  1  0  0  0
  1  3  1  0  0  0  0
  1  4  2  0  0  0  0
  1 16  1  0  0  0  0
  5  6  1  6  0  0  0
  5  7  1  0  0  0  0
  5 14  1  0  0  0  0
  7  8  1  6  0  0  0
  7  9  1  0  0  0  0
  9 10  1  1  0  0  0
  9 11  1  0  0  0  0
 11 12  1  6  0  0  0
 11 13  1  0  0  0  0
 13 14  1  0  0  0  0
 13 15  1  1  0  0  0
 15 16  1  0  0  0  0
M  CHG  1   3  -1
M  END
>  <CHROM.1>
-62.48027998,170.03349542,-60.79176675,46.53079823,11.63673461,12.26176170
0.42366245,0.24171912,-0.88869048

>  <Name>
ligand

>  <RI>
0

>  <Rbt.Current_Directory>
/home/itssahil/PROJECTS/Mol_Feturizer/New_Systems/rnas/3B4B

>  <Rbt.Executable>
rbdock ($Id: //depot/dev/client3/rdock/2013.1/src/exe/rbdock.cxx#4 $)

>  <Rbt.Library>
libRbt.so (2013.1, Build901 2013/11/27)

>  <Rbt.Parameter_File>
/export/apps/rDock/src/rDock_2013.1_src/data/scripts/dock_solv.prm

>  <Rbt.Receptor>
prm/pocket_docking_3.prm

>  <SCORE>
-9.35823

>  <SCORE.INTER>
-8.33581

>  <SCORE.INTER.CONST>
1

>  <SCORE.INTER.POLAR>
-1.125

>  <SCORE.INTER.ROT>
3

>  <SCORE.INTER.SOLV>
16.5154

>  <SCORE.INTER.VDW>
-12.9123

>  <SCORE.INTER.norm>
-0.520988

>  <SCORE.INTRA>
-1.02242

>  <SCORE.INTRA.DIHEDRAL>
-1.71628

>  <SCORE.INTRA.DIHEDRAL.0>
2.21864

>  <SCORE.INTRA.POLAR>
0

>  <SCORE.INTRA.POLAR.0>
0

>  <SCORE.INTRA.REPUL>
0

>  <SCORE.INTRA.REPUL.0>
0

>  <SCORE.INTRA.SOLV>
-0.571546

>  <SCORE.INTRA.SOLV.lig_0>
-58.5963

>  <SCORE.INTRA.VDW>
0.121494

>  <SCORE.INTRA.VDW.0>
-0.437849

>  <SCORE.INTRA.norm>
-0.0639012

>  <SCORE.RESTR>
0

>  <SCORE.RESTR.CAVITY>
0

>  <SCORE.RESTR.norm>
0

>  <SCORE.SYSTEM>
0

>  <SCORE.SYSTEM.CONST>
0

>  <SCORE.SYSTEM.DIHEDRAL>
0

>  <SCORE.SYSTEM.SOLV>
0

>  <SCORE.SYSTEM.norm>
0

>  <SCORE.heavy>
16

>  <SCORE.norm>
-0.584889

>  <RMSD>
0.860

$$$$
ligand
 OpenBabel11021811463D
libRbt.so/2013.1/901 2013/11/27
 16 16  0  0  0  0  0  0  0  0999 V2000
   49.3678   12.0044   10.9633 P   0  0  2  0  0  0  0  0  0  0  0  0
   49.4951   13.2950   11.6839 O   0  0  0  0  0  0  0  0  0  0  0  0
   50.4295   10.9380   11.5350 O   0  5  0  0  0  0  0  0  0  0  0  0
   49.6718   12.2419    9.3900 O   0  0  0  0  0  0  0  0  0  0  0  0
   44.5566   10.4892   14.5880 C   0  0  2  0  0  0  0  0  0  0  0  0
   44.1055    9.3175   13.8928 O   0  0  0  0  0  0  0  0  0  0  0  0
   43.7013   11.7351   14.2224 C   0  0  2  0  0  0  0  0  0  0  0  0
   42.2795   11.4772   14.5408 N   0  0  0  0  0  0  0  0  0  0  0  0
   43.8642   12.0189   12.7142 C   0  0  1  0  0  0  0  0  0  0  0  0
   43.1007   13.1796   12.3415 O   0  0  0  0  0  0  0  0  0  0  0  0
   45.3535   12.2680   12.4345 C   0  0  2  0  0  0  0  0  0  0  0  0
   45.5420   12.5205   11.0350 O   0  0  0  0  0  0  0  0  0  0  0  0
   46.1477   11.0019   12.8512 C   0  0  2  0  0  0  0  0  0  0  0  0
   45.9566   10.7306   14.2697 O   0  0  0  0  0  0  0  0  0  0  0  0
   47.6477   11.2280   12.5935 C   0  0  0  0  0  0  0  0  0  0  0  0
   47.8722   11.4360   11.1871 O   0  0  0  0  0  0  0  0  0  0  0  0
  1  2  1  1  0  0  0
  1  3  1  0  0  0  0
  1  4  2  0  0  0  0
  1 16  1  0  0  0  0
  5  6  1  6  0  0  0
  5  7  1  0  0  0  0
  5 14  1  0  0  0  0
  7  8  1  6  0  0  0
  7  9  1  0  0  0  0
  9 10  1  1  0  0  0
  9 11  1  0  0  0  0
 11 12  1  6  0  0  0
 11 13  1  0  0  0  0
 13 14  1  0  0  0  0
 13 15  1  1  0  0  0
 15 16  1  0  0  0  0
M  CHG  1   3  -1
M  END
>  <CHROM.1>
-62.25164119,167.05335851,-60.49453236,46.48818188,11.65154232,12.35631318
0.38880086,0.26713912,-0.77661329

>  <Name>
ligand

>  <RI>
0

>  <Rbt.Current_Directory>
/home/itssahil/PROJECTS/Mol_Feturizer/New_Systems/rnas/3B4B

>  <Rbt.Executable>
rbdock ($Id: //depot/dev/client3/rdock/2013.1/src/exe/rbdock.cxx#4 $)

>  <Rbt.Library>
libRbt.so (2013.1, Build901 2013/11/27)

>  <Rbt.Parameter_File>
/export/apps/rDock/src/rDock_2013.1_src/data/scripts/dock_solv.prm

>  <Rbt.Receptor>
prm/pocket_docking_3.prm

>  <SCORE>
-9.6234

>  <SCORE.INTER>
-8.76312

>  <SCORE.INTER.CONST>
1

>  <SCORE.INTER.POLAR>
-1.125

>  <SCORE.INTER.ROT>
3

>  <SCORE.INTER.SOLV>
16.5606

>  <SCORE.INTER.VDW>
-13.2123

>  <SCORE.INTER.norm>
-0.547695

>  <SCORE.INTRA>
-0.860278

>  <SCORE.INTRA.DIHEDRAL>
-1.4039

>  <SCORE.INTRA.DIHEDRAL.0>
2.21864

>  <SCORE.INTRA.POLAR>
0

>  <SCORE.INTRA.POLAR.0>
0

>  <SCORE.INTRA.REPUL>
0

>  <SCORE.INTRA.REPUL.0>
0

>  <SCORE.INTRA.SOLV>
-0.544445

>  <SCORE.INTRA.SOLV.lig_0>
-58.5963

>  <SCORE.INTRA.VDW>
0.113892

>  <SCORE.INTRA.VDW.0>
-0.437849

>  <SCORE.INTRA.norm>
-0.0537674

>  <SCORE.RESTR>
0

>  <SCORE.RESTR.CAVITY>
0

>  <SCORE.RESTR.norm>
0

>  <SCORE.SYSTEM>
0

>  <SCORE.SYSTEM.CONST>
0

>  <SCORE.SYSTEM.DIHEDRAL>
0

>  <SCORE.SYSTEM.SOLV>
0

>  <SCORE.SYSTEM.norm>
0

>  <SCORE.heavy>
16

>  <SCORE.norm>
-0.601462

>  <RMSD>
0.860

$$$$
ligand
 OpenBabel11021811463D
libRbt.so/2013.1/901 2013/11/27
 16 16  0  0  0  0  0  0  0  0999 V2000
   49.6811   11.6022   12.5296 P   0  0  2  0  0  0  0  0  0  0  0  0
   49.6381   13.0722   12.3339 O   0  0  0  0  0  0  0  0  0  0  0  0
   50.7865   11.2177   13.6347 O   0  5  0  0  0  0  0  0  0  0  0  0
   50.0816   10.8911   11.1303 O   0  0  0  0  0  0  0  0  0  0  0  0
   44.4810   11.2822   14.6769 C   0  0  2  0  0  0  0  0  0  0  0  0
   44.2690    9.8639   14.6224 O   0  0  0  0  0  0  0  0  0  0  0  0
   43.3500   12.0575   13.9438 C   0  0  2  0  0  0  0  0  0  0  0  0
   42.0410   11.7209   14.5456 N   0  0  0  0  0  0  0  0  0  0  0  0
   43.3666   11.6592   12.4528 C   0  0  1  0  0  0  0  0  0  0  0  0
   42.3437   12.3730   11.7363 O   0  0  0  0  0  0  0  0  0  0  0  0
   44.7454   12.0175   11.8793 C   0  0  2  0  0  0  0  0  0  0  0  0
   44.7995   11.6450   10.4950 O   0  0  0  0  0  0  0  0  0  0  0  0
   45.8241   11.2366   12.6756 C   0  0  2  0  0  0  0  0  0  0  0  0
   45.7726   11.6006   14.0852 O   0  0  0  0  0  0  0  0  0  0  0  0
   47.2195   11.5864   12.1299 C   0  0  0  0  0  0  0  0  0  0  0  0
   48.2290   11.1087   13.0378 O   0  0  0  0  0  0  0  0  0  0  0  0
  1  2  1  6  0  0  0
  1  3  1  0  0  0  0
  1  4  2  0  0  0  0
  1 16  1  0  0  0  0
  5  6  1  6  0  0  0
  5  7  1  0  0  0  0
  5 14  1  0  0  0  0
  7  8  1  1  0  0  0
  7  9  1  0  0  0  0
  9 10  1  6  0  0  0
  9 11  1  0  0  0  0
 11 12  1  6  0  0  0
 11 13  1  0  0  0  0
 13 14  1  0  0  0  0
 13 15  1  6  0  0  0
 15 16  1  0  0  0  0
M  CHG  1   3  -1
M  END
>  <CHROM.1>
167.32884221,-174.65295075,53.07318155,46.37764340,11.55407068,12.82652951
-0.11076184,-0.03953301,1.83779929

>  <Name>
ligand

>  <RI>
0

>  <Rbt.Current_Directory>
/home/itssahil/PROJECTS/Mol_Feturizer/New_Systems/rnas/3B4B

>  <Rbt.Executable>
rbdock ($Id: //depot/dev/client3/rdock/2013.1/src/exe/rbdock.cxx#4 $)

>  <Rbt.Library>
libRbt.so (2013.1, Build901 2013/11/27)

>  <Rbt.Parameter_File>
/export/apps/rDock/src/rDock_2013.1_src/data/scripts/dock_solv.prm

>  <Rbt.Receptor>
prm/pocket_docking_7.prm

>  <SCORE>
-9.74272

>  <SCORE.INTER>
-8.47738

>  <SCORE.INTER.CONST>
1

>  <SCORE.INTER.POLAR>
-1.12451

>  <SCORE.INTER.ROT>
3

>  <SCORE.INTER.SOLV>
19.7756

>  <SCORE.INTER.VDW>
-14.0951

>  <SCORE.INTER.norm>
-0.529836

>  <SCORE.INTRA>
-1.26534

>  <SCORE.INTRA.DIHEDRAL>
-1.44361

>  <SCORE.INTRA.DIHEDRAL.0>
2.21864

>  <SCORE.INTRA.POLAR>
0

>  <SCORE.INTRA.POLAR.0>
0

>  <SCORE.INTRA.REPUL>
0

>  <SCORE.INTRA.REPUL.0>
0

>  <SCORE.INTRA.SOLV>
-1.20093

>  <SCORE.INTRA.SOLV.lig_0>
-58.5963

>  <SCORE.INTRA.VDW>
0.056926

>  <SCORE.INTRA.VDW.0>
-0.437849

>  <SCORE.INTRA.norm>
-0.0790839

>  <SCORE.RESTR>
0

>  <SCORE.RESTR.CAVITY>
0

>  <SCORE.RESTR.norm>
0

>  <SCORE.SYSTEM>
0

>  <SCORE.SYSTEM.CONST>
0

>  <SCORE.SYSTEM.DIHEDRAL>
0

>  <SCORE.SYSTEM.SOLV>
0

>  <SCORE.SYSTEM.norm>
0

>  <SCORE.heavy>
16

>  <SCORE.norm>
-0.60892

>  <RMSD>
0.895

$$$$
ligand
 OpenBabel11021811463D
libRbt.so/2013.1/901 2013/11/27
 16 16  0  0  0  0  0  0  0  0999 V2000
   49.5981   11.7441   12.1024 P   0  0  2  0  0  0  0  0  0  0  0  0
   49.8841   12.9867   12.8608 O   0  0  0  0  0  0  0  0  0  0  0  0
   50.7441   10.6470   12.3746 O   0  5  0  0  0  0  0  0  0  0  0  0
   49.5734   12.0819   10.5183 O   0  0  0  0  0  0  0  0  0  0  0  0
   44.5296   11.1229   14.6050 C   0  0  2  0  0  0  0  0  0  0  0  0
   44.3433    9.7284   14.3216 O   0  0  0  0  0  0  0  0  0  0  0  0
   43.3437   11.9772   14.0743 C   0  0  2  0  0  0  0  0  0  0  0  0
   42.0778   11.5057   14.6780 N   0  0  0  0  0  0  0  0  0  0  0  0
   43.2840   11.8363   12.5386 C   0  0  1  0  0  0  0  0  0  0  0  0
   42.2081   12.6304   12.0082 O   0  0  0  0  0  0  0  0  0  0  0  0
   44.6207   12.3263   11.9630 C   0  0  2  0  0  0  0  0  0  0  0  0
   44.6039   12.1942   10.5346 O   0  0  0  0  0  0  0  0  0  0  0  0
   45.7581   11.4545   12.5576 C   0  0  2  0  0  0  0  0  0  0  0  0
   45.7791   11.5741   14.0092 O   0  0  0  0  0  0  0  0  0  0  0  0
   47.1132   11.9319   12.0070 C   0  0  0  0  0  0  0  0  0  0  0  0
   48.1751   11.1579   12.5941 O   0  0  0  0  0  0  0  0  0  0  0  0
  1  2  1  1  0  0  0
  1  3  1  0  0  0  0
  1  4  2  0  0  0  0
  1 16  1  0  0  0  0
  5  6  1  6  0  0  0
  5  7  1  0  0  0  0
  5 14  1  0  0  0  0
  7  8  1  1  0  0  0
  7  9  1  0  0  0  0
  9 10  1  6  0  0  0
  9 11  1  0  0  0  0
 11 12  1  6  0  0  0
 11 13  1  0  0  0  0
 13 14  1  0  0  0  0
 13 15  1  6  0  0  0
 15 16  1  0  0  0  0
M  CHG  1   3  -1
M  END
>  <CHROM.1>
177.88765937,-175.45916338,76.76371697,46.31301784,11.68071275,12.66255914
-0.18344837,-0.07941526,2.01787194

>  <Name>
ligand

>  <RI>
0

>  <Rbt.Current_Directory>
/home/itssahil/PROJECTS/Mol_Feturizer/New_Systems/rnas/3B4B

>  <Rbt.Executable>
rbdock ($Id: //depot/dev/client3/rdock/2013.1/src/exe/rbdock.cxx#4 $)

>  <Rbt.Library>
libRbt.so (2013.1, Build901 2013/11/27)

>  <Rbt.Parameter_File>
/export/apps/rDock/src/rDock_2013.1_src/data/scripts/dock_solv.prm

>  <Rbt.Receptor>
prm/pocket_docking_2.prm

>  <SCORE>
-9.96502

>  <SCORE.INTER>
-8.56095

>  <SCORE.INTER.CONST>
1

>  <SCORE.INTER.POLAR>
-1.125

>  <SCORE.INTER.ROT>
3

>  <SCORE.INTER.SOLV>
18.1796

>  <SCORE.INTER.VDW>
-13.6172

>  <SCORE.INTER.norm>
-0.53506

>  <SCORE.INTRA>
-1.40407

>  <SCORE.INTRA.DIHEDRAL>
-1.66345

>  <SCORE.INTRA.DIHEDRAL.0>
2.21864

>  <SCORE.INTRA.POLAR>
0

>  <SCORE.INTRA.POLAR.0>
0

>  <SCORE.INTRA.REPUL>
0

>  <SCORE.INTRA.REPUL.0>
0

>  <SCORE.INTRA.SOLV>
-0.998984

>  <SCORE.INTRA.SOLV.lig_0>
-58.5963

>  <SCORE.INTRA.VDW>
-0.0728483

>  <SCORE.INTRA.VDW.0>
-0.437849

>  <SCORE.INTRA.norm>
-0.0877541

>  <SCORE.RESTR>
0

>  <SCORE.RESTR.CAVITY>
0

>  <SCORE.RESTR.norm>
0

>  <SCORE.SYSTEM>
0

>  <SCORE.SYSTEM.CONST>
0

>  <SCORE.SYSTEM.DIHEDRAL>
0

>  <SCORE.SYSTEM.SOLV>
0

>  <SCORE.SYSTEM.norm>
0

>  <SCORE.heavy>
16

>  <SCORE.norm>
-0.622814

>  <RMSD>
0.946

$$$$
ligand
 OpenBabel11021811463D
libRbt.so/2013.1/901 2013/11/27
 16 16  0  0  0  0  0  0  0  0999 V2000
   49.9432   12.0881   11.8500 P   0  0  2  0  0  0  0  0  0  0  0  0
   49.7865   12.2194   10.3805 O   0  0  0  0  0  0  0  0  0  0  0  0
   50.7200   13.3660   12.4456 O   0  5  0  0  0  0  0  0  0  0  0  0
   50.8109   10.7594   12.1754 O   0  0  0  0  0  0  0  0  0  0  0  0
   45.0921   10.7883   14.6611 C   0  0  2  0  0  0  0  0  0  0  0  0
   44.4790    9.5289   14.3484 O   0  0  0  0  0  0  0  0  0  0  0  0
   44.2432   11.9821   14.1398 C   0  0  2  0  0  0  0  0  0  0  0  0
   42.8856   11.9242   14.7253 N   0  0  0  0  0  0  0  0  0  0  0  0
   44.1617   11.8935   12.6012 C   0  0  1  0  0  0  0  0  0  0  0  0
   43.3982   12.9954   12.0797 O   0  0  0  0  0  0  0  0  0  0  0  0
   45.5919   11.9461   12.0445 C   0  0  2  0  0  0  0  0  0  0  0  0
   45.5525   11.8503   10.6137 O   0  0  0  0  0  0  0  0  0  0  0  0
   46.3884   10.7497   12.6291 C   0  0  2  0  0  0  0  0  0  0  0  0
   46.4277   10.8319   14.0830 O   0  0  0  0  0  0  0  0  0  0  0  0
   47.8319   10.7842   12.0974 C   0  0  0  0  0  0  0  0  0  0  0  0
   48.4746   12.0014   12.5177 O   0  0  0  0  0  0  0  0  0  0  0  0
  1  2  1  6  0  0  0
  1  3  1  0  0  0  0
  1  4  2  0  0  0  0
  1 16  1  0  0  0  0
  5  6  1  6  0  0  0
  5  7  1  0  0  0  0
  5 14  1  0  0  0  0
  7  8  1  1  0  0  0
  7  9  1  0  0  0  0
  9 10  1  6  0  0  0
  9 11  1  0  0  0  0
 11 12  1  6  0  0  0
 11 13  1  0  0  0  0
 13 14  1  0  0  0  0
 13 15  1  6  0  0  0
 15 16  1  0  0  0  0
M  CHG  1   3  -1
M  END
>  <CHROM.1>
61.35602039,-175.14858069,65.79855042,46.91915288,11.64730773,12.61997434
-0.28823671,-0.09800700,2.17421154

>  <Name>
ligand

>  <RI>
0

>  <Rbt.Current_Directory>
/home/itssahil/PROJECTS/Mol_Feturizer/New_Systems/rnas/3B4B

>  <Rbt.Executable>
rbdock ($Id: //depot/dev/client3/rdock/2013.1/src/exe/rbdock.cxx#4 $)

>  <Rbt.Library>
libRbt.so (2013.1, Build901 2013/11/27)

>  <Rbt.Parameter_File>
/export/apps/rDock/src/rDock_2013.1_src/data/scripts/dock_solv.prm

>  <Rbt.Receptor>
prm/pocket_docking_4.prm

>  <SCORE>
-9.70836

>  <SCORE.INTER>
-7.99629

>  <SCORE.INTER.CONST>
1

>  <SCORE.INTER.POLAR>
-1.12477

>  <SCORE.INTER.ROT>
3

>  <SCORE.INTER.SOLV>
19.2596

>  <SCORE.INTER.VDW>
-13.6015

>  <SCORE.INTER.norm>
-0.499768

>  <SCORE.INTRA>
-1.71207

>  <SCORE.INTRA.DIHEDRAL>
-2.03921

>  <SCORE.INTRA.DIHEDRAL.0>
2.21864

>  <SCORE.INTRA.POLAR>
0

>  <SCORE.INTRA.POLAR.0>
0

>  <SCORE.INTRA.REPUL>
0

>  <SCORE.INTRA.REPUL.0>
0

>  <SCORE.INTRA.SOLV>
-0.892593

>  <SCORE.INTRA.SOLV.lig_0>
-58.5963

>  <SCORE.INTRA.VDW>
-0.246171

>  <SCORE.INTRA.VDW.0>
-0.437849

>  <SCORE.INTRA.norm>
-0.107004

>  <SCORE.RESTR>
0

>  <SCORE.RESTR.CAVITY>
0

>  <SCORE.RESTR.norm>
0

>  <SCORE.SYSTEM>
0

>  <SCORE.SYSTEM.CONST>
0

>  <SCORE.SYSTEM.DIHEDRAL>
0

>  <SCORE.SYSTEM.SOLV>
0

>  <SCORE.SYSTEM.norm>
0

>  <SCORE.heavy>
16

>  <SCORE.norm>
-0.606773

>  <RMSD>
0.997

$$$$
ligand
 OpenBabel11021811463D
libRbt.so/2013.1/901 2013/11/27
 16 16  0  0  0  0  0  0  0  0999 V2000
   49.9336   12.0665   11.8609 P   0  0  2  0  0  0  0  0  0  0  0  0
   49.7592   12.1780   10.3918 O   0  0  0  0  0  0  0  0  0  0  0  0
   50.7054   13.3587   12.4317 O   0  5  0  0  0  0  0  0  0  0  0  0
   50.8170   10.7499   12.1930 O   0  0  0  0  0  0  0  0  0  0  0  0
   45.0710   10.7863   14.6733 C   0  0  2  0  0  0  0  0  0  0  0  0
   44.4509    9.5310   14.3582 O   0  0  0  0  0  0  0  0  0  0  0  0
   44.2335   11.9855   14.1460 C   0  0  2  0  0  0  0  0  0  0  0  0
   42.8721   11.9377   14.7235 N   0  0  0  0  0  0  0  0  0  0  0  0
   44.1603   11.8960   12.6070 C   0  0  1  0  0  0  0  0  0  0  0  0
   43.4076   13.0027   12.0800 O   0  0  0  0  0  0  0  0  0  0  0  0
   45.5942   11.9381   12.0587 C   0  0  2  0  0  0  0  0  0  0  0  0
   45.5625   11.8412   10.6277 O   0  0  0  0  0  0  0  0  0  0  0  0
   46.3789   10.7368   12.6490 C   0  0  2  0  0  0  0  0  0  0  0  0
   46.4102   10.8201   14.1030 O   0  0  0  0  0  0  0  0  0  0  0  0
   47.8256   10.7607   12.1257 C   0  0  0  0  0  0  0  0  0  0  0  0
   48.4735   11.9750   12.5464 O   0  0  0  0  0  0  0  0  0  0  0  0
  1  2  1  6  0  0  0
  1  3  1  0  0  0  0
  1  4  2  0  0  0  0
  1 16  1  0  0  0  0
  5  6  1  6  0  0  0
  5  7  1  0  0  0  0
  5 14  1  0  0  0  0
  7  8  1  1  0  0  0
  7  9  1  0  0  0  0
  9 10  1  6  0  0  0
  9 11  1  0  0  0  0
 11 12  1  6  0  0  0
 11 13  1  0  0  0  0
 13 14  1  0  0  0  0
 13 15  1  6  0  0  0
 15 16  1  0  0  0  0
M  CHG  1   3  -1
M  END
>  <CHROM.1>
61.23836798,-173.89924398,64.57302255,46.91083354,11.63710305,12.63137432
-0.28593732,-0.10222276,2.17806480

>  <Name>
ligand

>  <RI>
0

>  <Rbt.Current_Directory>
/home/itssahil/PROJECTS/Mol_Feturizer/New_Systems/rnas/3B4B

>  <Rbt.Executable>
rbdock ($Id: //depot/dev/client3/rdock/2013.1/src/exe/rbdock.cxx#4 $)

>  <Rbt.Library>
libRbt.so (2013.1, Build901 2013/11/27)

>  <Rbt.Parameter_File>
/export/apps/rDock/src/rDock_2013.1_src/data/scripts/dock_solv.prm

>  <Rbt.Receptor>
prm/pocket_docking_2.prm

>  <SCORE>
-9.69385

>  <SCORE.INTER>
-7.99498

>  <SCORE.INTER.CONST>
1

>  <SCORE.INTER.POLAR>
-1.125

>  <SCORE.INTER.ROT>
3

>  <SCORE.INTER.SOLV>
19.3706

>  <SCORE.INTER.VDW>
-13.6369

>  <SCORE.INTER.norm>
-0.499686

>  <SCORE.INTRA>
-1.69886

>  <SCORE.INTRA.DIHEDRAL>
-1.99473

>  <SCORE.INTRA.DIHEDRAL.0>
2.21864

>  <SCORE.INTRA.POLAR>
0

>  <SCORE.INTRA.POLAR.0>
0

>  <SCORE.INTRA.REPUL>
0

>  <SCORE.INTRA.REPUL.0>
0

>  <SCORE.INTRA.SOLV>
-0.90772

>  <SCORE.INTRA.SOLV.lig_0>
-58.5963

>  <SCORE.INTRA.VDW>
-0.247641

>  <SCORE.INTRA.VDW.0>
-0.437849

>  <SCORE.INTRA.norm>
-0.106179

>  <SCORE.RESTR>
0

>  <SCORE.RESTR.CAVITY>
0

>  <SCORE.RESTR.norm>
0

>  <SCORE.SYSTEM>
0

>  <SCORE.SYSTEM.CONST>
0

>  <SCORE.SYSTEM.DIHEDRAL>
0

>  <SCORE.SYSTEM.SOLV>
0

>  <SCORE.SYSTEM.norm>
0

>  <SCORE.heavy>
16

>  <SCORE.norm>
-0.605865

>  <RMSD>
1.000

$$$$
ligand
 OpenBabel11021811463D
libRbt.so/2013.1/901 2013/11/27
 16 16  0  0  0  0  0  0  0  0999 V2000
   50.0409   12.1621   11.8381 P   0  0  2  0  0  0  0  0  0  0  0  0
   49.8212   12.4075   10.3915 O   0  0  0  0  0  0  0  0  0  0  0  0
   50.8257   13.4006   12.5022 O   0  5  0  0  0  0  0  0  0  0  0  0
   50.9382   10.8257   12.0203 O   0  0  0  0  0  0  0  0  0  0  0  0
   45.1531   10.6564   14.5337 C   0  0  2  0  0  0  0  0  0  0  0  0
   44.4946    9.4708   14.0644 O   0  0  0  0  0  0  0  0  0  0  0  0
   44.3614   11.9389   14.1518 C   0  0  2  0  0  0  0  0  0  0  0  0
   42.9936   11.8681   14.7116 N   0  0  0  0  0  0  0  0  0  0  0  0
   44.3003   12.0399   12.6130 C   0  0  1  0  0  0  0  0  0  0  0  0
   43.5902   13.2278   12.2207 O   0  0  0  0  0  0  0  0  0  0  0  0
   45.7400   12.0991   12.0819 C   0  0  2  0  0  0  0  0  0  0  0  0
   45.7190   12.1782   10.6497 O   0  0  0  0  0  0  0  0  0  0  0  0
   46.4783   10.8086   12.5257 C   0  0  2  0  0  0  0  0  0  0  0  0
   46.4982   10.7133   13.9792 O   0  0  0  0  0  0  0  0  0  0  0  0
   47.9301   10.8463   12.0173 C   0  0  0  0  0  0  0  0  0  0  0  0
   48.6028   11.9990   12.5560 O   0  0  0  0  0  0  0  0  0  0  0  0
  1  2  1  6  0  0  0
  1  3  1  0  0  0  0
  1  4  2  0  0  0  0
  1 16  1  0  0  0  0
  5  6  1  6  0  0  0
  5  7  1  0  0  0  0
  5 14  1  0  0  0  0
  7  8  1  6  0  0  0
  7  9  1  0  0  0  0
  9 10  1  1  0  0  0
  9 11  1  0  0  0  0
 11 12  1  6  0  0  0
 11 13  1  0  0  0  0
 13 14  1  0  0  0  0
 13 15  1  1  0  0  0
 15 16  1  0  0  0  0
M  CHG  1   3  -1
M  END
>  <CHROM.1>
59.58616816,-171.05143805,62.95550567,47.02465371,11.70871731,12.58802293
-0.27895636,-0.13082189,2.31531269

>  <Name>
ligand

>  <RI>
0

>  <Rbt.Current_Directory>
/home/itssahil/PROJECTS/Mol_Feturizer/New_Systems/rnas/3B4B

>  <Rbt.Executable>
rbdock ($Id: //depot/dev/client3/rdock/2013.1/src/exe/rbdock.cxx#4 $)

>  <Rbt.Library>
libRbt.so (2013.1, Build901 2013/11/27)

>  <Rbt.Parameter_File>
/export/apps/rDock/src/rDock_2013.1_src/data/scripts/dock_solv.prm

>  <Rbt.Receptor>
prm/pocket_docking_3.prm

>  <SCORE>
-9.54549

>  <SCORE.INTER>
-7.94297

>  <SCORE.INTER.CONST>
1

>  <SCORE.INTER.POLAR>
-1.125

>  <SCORE.INTER.ROT>
3

>  <SCORE.INTER.SOLV>
19.0348

>  <SCORE.INTER.VDW>
-13.4902

>  <SCORE.INTER.norm>
-0.496435

>  <SCORE.INTRA>
-1.60253

>  <SCORE.INTRA.DIHEDRAL>
-1.81437

>  <SCORE.INTRA.DIHEDRAL.0>
2.21864

>  <SCORE.INTRA.POLAR>
0

>  <SCORE.INTRA.POLAR.0>
0

>  <SCORE.INTRA.REPUL>
0

>  <SCORE.INTRA.REPUL.0>
0

>  <SCORE.INTRA.SOLV>
-0.90377

>  <SCORE.INTRA.SOLV.lig_0>
-58.5963

>  <SCORE.INTRA.VDW>
-0.243455

>  <SCORE.INTRA.VDW.0>
-0.437849

>  <SCORE.INTRA.norm>
-0.100158

>  <SCORE.RESTR>
0

>  <SCORE.RESTR.CAVITY>
0

>  <SCORE.RESTR.norm>
0

>  <SCORE.SYSTEM>
0

>  <SCORE.SYSTEM.CONST>
0

>  <SCORE.SYSTEM.DIHEDRAL>
0

>  <SCORE.SYSTEM.SOLV>
0

>  <SCORE.SYSTEM.norm>
0

>  <SCORE.heavy>
16

>  <SCORE.norm>
-0.596593

>  <RMSD>
1.000

$$$$
ligand
 OpenBabel11021811463D
libRbt.so/2013.1/901 2013/11/27
 16 16  0  0  0  0  0  0  0  0999 V2000
   49.4973   11.6813   12.1357 P   0  0  2  0  0  0  0  0  0  0  0  0
   49.7805   12.9420   12.8648 O   0  0  0  0  0  0  0  0  0  0  0  0
   50.6261   10.5812   12.4621 O   0  5  0  0  0  0  0  0  0  0  0  0
   49.5086   11.9746   10.5426 O   0  0  0  0  0  0  0  0  0  0  0  0
   44.4039   11.1776   14.6026 C   0  0  2  0  0  0  0  0  0  0  0  0
   44.1853    9.7870   14.3232 O   0  0  0  0  0  0  0  0  0  0  0  0
   43.2413   12.0583   14.0638 C   0  0  2  0  0  0  0  0  0  0  0  0
   41.9617   11.6197   14.6635 N   0  0  0  0  0  0  0  0  0  0  0  0
   43.1848   11.9136   12.5284 C   0  0  1  0  0  0  0  0  0  0  0  0
   42.1307   12.7314   11.9905 O   0  0  0  0  0  0  0  0  0  0  0  0
   44.5354   12.3692   11.9569 C   0  0  2  0  0  0  0  0  0  0  0  0
   44.5216   12.2324   10.5290 O   0  0  0  0  0  0  0  0  0  0  0  0
   45.6489   11.4722   12.5595 C   0  0  2  0  0  0  0  0  0  0  0  0
   45.6665   11.5964   14.0108 O   0  0  0  0  0  0  0  0  0  0  0  0
   47.0175   11.9149   12.0133 C   0  0  0  0  0  0  0  0  0  0  0  0
   48.0586   11.1232   12.6138 O   0  0  0  0  0  0  0  0  0  0  0  0
  1  2  1  1  0  0  0
  1  3  1  0  0  0  0
  1  4  2  0  0  0  0
  1 16  1  0  0  0  0
  5  6  1  6  0  0  0
  5  7  1  0  0  0  0
  5 14  1  0  0  0  0
  7  8  1  1  0  0  0
  7  9  1  0  0  0  0
  9 10  1  6  0  0  0
  9 11  1  0  0  0  0
 11 12  1  6  0  0  0
 11 13  1  0  0  0  0
 13 14  1  0  0  0  0
 13 15  1  6  0  0  0
 15 16  1  0  0  0  0
M  CHG  1   3  -1
M  END
>  <CHROM.1>
177.53622362,-174.99408077,75.14055014,46.20901561,11.69045939,12.67210810
-0.16760508,-0.09614633,2.01506016

>  <Name>
ligand

>  <RI>
0

>  <Rbt.Current_Directory>
/home/itssahil/PROJECTS/Mol_Feturizer/New_Systems/rnas/3B4B

>  <Rbt.Executable>
rbdock ($Id: //depot/dev/client3/rdock/2013.1/src/exe/rbdock.cxx#4 $)

>  <Rbt.Library>
libRbt.so (2013.1, Build901 2013/11/27)

>  <Rbt.Parameter_File>
/export/apps/rDock/src/rDock_2013.1_src/data/scripts/dock_solv.prm

>  <Rbt.Receptor>
prm/pocket_docking_2.prm

>  <SCORE>
-10.0966

>  <SCORE.INTER>
-8.64272

>  <SCORE.INTER.CONST>
1

>  <SCORE.INTER.POLAR>
-1.125

>  <SCORE.INTER.ROT>
3

>  <SCORE.INTER.SOLV>
18.3137

>  <SCORE.INTER.VDW>
-13.7164

>  <SCORE.INTER.norm>
-0.54017

>  <SCORE.INTRA>
-1.45387

>  <SCORE.INTRA.DIHEDRAL>
-1.71192

>  <SCORE.INTRA.DIHEDRAL.0>
2.21864

>  <SCORE.INTRA.POLAR>
0

>  <SCORE.INTRA.POLAR.0>
0

>  <SCORE.INTRA.REPUL>
0

>  <SCORE.INTRA.REPUL.0>
0

>  <SCORE.INTRA.SOLV>
-1.01298

>  <SCORE.INTRA.SOLV.lig_0>
-58.5963

>  <SCORE.INTRA.VDW>
-0.0914199

>  <SCORE.INTRA.VDW.0>
-0.437849

>  <SCORE.INTRA.norm>
-0.0908668

>  <SCORE.RESTR>
0

>  <SCORE.RESTR.CAVITY>
0

>  <SCORE.RESTR.norm>
0

>  <SCORE.SYSTEM>
0

>  <SCORE.SYSTEM.CONST>
0

>  <SCORE.SYSTEM.DIHEDRAL>
0

>  <SCORE.SYSTEM.SOLV>
0

>  <SCORE.SYSTEM.norm>
0

>  <SCORE.heavy>
16

>  <SCORE.norm>
-0.631037

>  <RMSD>
1.002

$$$$
ligand
 OpenBabel11021811463D
libRbt.so/2013.1/901 2013/11/27
 16 16  0  0  0  0  0  0  0  0999 V2000
   49.9639   12.0783   11.8692 P   0  0  2  0  0  0  0  0  0  0  0  0
   49.7989   12.2032   10.4001 O   0  0  0  0  0  0  0  0  0  0  0  0
   50.7480   13.3566   12.4542 O   0  5  0  0  0  0  0  0  0  0  0  0
   50.8297   10.7486   12.1956 O   0  0  0  0  0  0  0  0  0  0  0  0
   45.0134   10.7197   14.6013 C   0  0  2  0  0  0  0  0  0  0  0  0
   44.3485    9.5271   14.1596 O   0  0  0  0  0  0  0  0  0  0  0  0
   44.2544   11.9985   14.1474 C   0  0  2  0  0  0  0  0  0  0  0  0
   42.8704   11.9711   14.6700 N   0  0  0  0  0  0  0  0  0  0  0  0
   44.2382   12.0400   12.6047 C   0  0  1  0  0  0  0  0  0  0  0  0
   43.5594   13.2225   12.1464 O   0  0  0  0  0  0  0  0  0  0  0  0
   45.6930   12.0557   12.1133 C   0  0  2  0  0  0  0  0  0  0  0  0
   45.7135   12.0788   10.6791 O   0  0  0  0  0  0  0  0  0  0  0  0
   46.3968   10.7722   12.6278 C   0  0  2  0  0  0  0  0  0  0  0  0
   46.3743   10.7337   14.0839 O   0  0  0  0  0  0  0  0  0  0  0  0
   47.8627   10.7671   12.1602 C   0  0  0  0  0  0  0  0  0  0  0  0
   48.4991   11.9990   12.5461 O   0  0  0  0  0  0  0  0  0  0  0  0
  1  2  1  6  0  0  0
  1  3  1  0  0  0  0
  1  4  2  0  0  0  0
  1 16  1  0  0  0  0
  5  6  1  6  0  0  0
  5  7  1  0  0  0  0
  5 14  1  0  0  0  0
  7  8  1  6  0  0  0
  7  9  1  0  0  0  0
  9 10  1  1  0  0  0
  9 11  1  0  0  0  0
 11 12  1  6  0  0  0
 11 13  1  0  0  0  0
 13 14  1  0  0  0  0
 13 15  1  1  0  0  0
 15 16  1  0  0  0  0
M  CHG  1   3  -1
M  END
>  <CHROM.1>
53.23691172,-171.82362112,67.12698820,46.94276066,11.67952797,12.62506057
0.26822256,0.13670051,-0.84989824

>  <Name>
ligand

>  <RI>
0

>  <Rbt.Current_Directory>
/home/itssahil/PROJECTS/Mol_Feturizer/New_Systems/rnas/3B4B

>  <Rbt.Executable>
rbdock ($Id: //depot/dev/client3/rdock/2013.1/src/exe/rbdock.cxx#4 $)

>  <Rbt.Library>
libRbt.so (2013.1, Build901 2013/11/27)

>  <Rbt.Parameter_File>
/export/apps/rDock/src/rDock_2013.1_src/data/scripts/dock_solv.prm

>  <Rbt.Receptor>
prm/pocket_docking_2.prm

>  <SCORE>
-9.51232

>  <SCORE.INTER>
-8.09357

>  <SCORE.INTER.CONST>
1

>  <SCORE.INTER.POLAR>
-1.125

>  <SCORE.INTER.ROT>
3

>  <SCORE.INTER.SOLV>
19.229

>  <SCORE.INTER.VDW>
-13.6554

>  <SCORE.INTER.norm>
-0.505848

>  <SCORE.INTRA>
-1.41875

>  <SCORE.INTRA.DIHEDRAL>
-1.6458

>  <SCORE.INTRA.DIHEDRAL.0>
2.21864

>  <SCORE.INTRA.POLAR>
0

>  <SCORE.INTRA.POLAR.0>
0

>  <SCORE.INTRA.REPUL>
0

>  <SCORE.INTRA.REPUL.0>
0

>  <SCORE.INTRA.SOLV>
-0.817606

>  <SCORE.INTRA.SOLV.lig_0>
-58.5963

>  <SCORE.INTRA.VDW>
-0.187042

>  <SCORE.INTRA.VDW.0>
-0.437849

>  <SCORE.INTRA.norm>
-0.0886717

>  <SCORE.RESTR>
0

>  <SCORE.RESTR.CAVITY>
0

>  <SCORE.RESTR.norm>
0

>  <SCORE.SYSTEM>
0

>  <SCORE.SYSTEM.CONST>
0

>  <SCORE.SYSTEM.DIHEDRAL>
0

>  <SCORE.SYSTEM.SOLV>
0

>  <SCORE.SYSTEM.norm>
0

>  <SCORE.heavy>
16

>  <SCORE.norm>
-0.59452

>  <RMSD>
1.003

$$$$
ligand
 OpenBabel11021811463D
libRbt.so/2013.1/901 2013/11/27
 16 16  0  0  0  0  0  0  0  0999 V2000
   49.9735   11.9216   12.0115 P   0  0  2  0  0  0  0  0  0  0  0  0
   50.6294   10.6411   12.3738 O   0  0  0  0  0  0  0  0  0  0  0  0
   49.9352   12.0969   10.4119 O   0  5  0  0  0  0  0  0  0  0  0  0
   50.8189   13.1497   12.6448 O   0  0  0  0  0  0  0  0  0  0  0  0
   45.0374   10.8020   14.6740 C   0  0  2  0  0  0  0  0  0  0  0  0
   44.4302    9.5294   14.4066 O   0  0  0  0  0  0  0  0  0  0  0  0
   44.1909   11.9715   14.0965 C   0  0  2  0  0  0  0  0  0  0  0  0
   42.8278   11.9338   14.6705 N   0  0  0  0  0  0  0  0  0  0  0  0
   44.1248   11.8204   12.5620 C   0  0  1  0  0  0  0  0  0  0  0  0
   43.3640   12.8983   11.9888 O   0  0  0  0  0  0  0  0  0  0  0  0
   45.5603   11.8542   12.0176 C   0  0  2  0  0  0  0  0  0  0  0  0
   45.5352   11.7005   10.5916 O   0  0  0  0  0  0  0  0  0  0  0  0
   46.3538   10.6846   12.6580 C   0  0  2  0  0  0  0  0  0  0  0  0
   46.3784   10.8258   14.1076 O   0  0  0  0  0  0  0  0  0  0  0  0
   47.8023   10.7014   12.1394 C   0  0  0  0  0  0  0  0  0  0  0  0
   48.4611   11.9030   12.5794 O   0  0  0  0  0  0  0  0  0  0  0  0
  1  2  1  1  0  0  0
  1  3  1  0  0  0  0
  1  4  2  0  0  0  0
  1 16  1  0  0  0  0
  5  6  1  6  0  0  0
  5  7  1  0  0  0  0
  5 14  1  0  0  0  0
  7  8  1  1  0  0  0
  7  9  1  0  0  0  0
  9 10  1  6  0  0  0
  9 11  1  0  0  0  0
 11 12  1  6  0  0  0
 11 13  1  0  0  0  0
 13 14  1  0  0  0  0
 13 15  1  6  0  0  0
 15 16  1  0  0  0  0
M  CHG  1   3  -1
M  END
>  <CHROM.1>
64.52271545,-179.15802250,-52.17135944,46.90100009,11.55977122,12.66484092
-0.25890196,-0.07588659,2.09781078

>  <Name>
ligand

>  <RI>
0

>  <Rbt.Current_Directory>
/home/itssahil/PROJECTS/Mol_Feturizer/New_Systems/rnas/3B4B

>  <Rbt.Executable>
rbdock ($Id: //depot/dev/client3/rdock/2013.1/src/exe/rbdock.cxx#4 $)

>  <Rbt.Library>
libRbt.so (2013.1, Build901 2013/11/27)

>  <Rbt.Parameter_File>
/export/apps/rDock/src/rDock_2013.1_src/data/scripts/dock_solv.prm

>  <Rbt.Receptor>
prm/pocket_docking_5.prm

>  <SCORE>
-9.14317

>  <SCORE.INTER>
-7.57736

>  <SCORE.INTER.CONST>
1

>  <SCORE.INTER.POLAR>
-0.897899

>  <SCORE.INTER.ROT>
3

>  <SCORE.INTER.SOLV>
18.1166

>  <SCORE.INTER.VDW>
-13.6975

>  <SCORE.INTER.norm>
-0.473585

>  <SCORE.INTRA>
-1.56581

>  <SCORE.INTRA.DIHEDRAL>
-2.03869

>  <SCORE.INTRA.DIHEDRAL.0>
2.21864

>  <SCORE.INTRA.POLAR>
0

>  <SCORE.INTRA.POLAR.0>
0

>  <SCORE.INTRA.REPUL>
0

>  <SCORE.INTRA.REPUL.0>
0

>  <SCORE.INTRA.SOLV>
-0.972954

>  <SCORE.INTRA.SOLV.lig_0>
-58.5963

>  <SCORE.INTRA.VDW>
-0.0599889

>  <SCORE.INTRA.VDW.0>
-0.437849

>  <SCORE.INTRA.norm>
-0.0978631

>  <SCORE.RESTR>
0

>  <SCORE.RESTR.CAVITY>
0

>  <SCORE.RESTR.norm>
0

>  <SCORE.SYSTEM>
0

>  <SCORE.SYSTEM.CONST>
0

>  <SCORE.SYSTEM.DIHEDRAL>
0

>  <SCORE.SYSTEM.SOLV>
0

>  <SCORE.SYSTEM.norm>
0

>  <SCORE.heavy>
16

>  <SCORE.norm>
-0.571448

>  <RMSD>
1.005

$$$$
ligand
 OpenBabel11021811463D
libRbt.so/2013.1/901 2013/11/27
 16 16  0  0  0  0  0  0  0  0999 V2000
   49.9980   12.1017   11.8724 P   0  0  2  0  0  0  0  0  0  0  0  0
   49.8630   12.2633   10.4038 O   0  0  0  0  0  0  0  0  0  0  0  0
   50.7840   13.3571   12.5028 O   0  5  0  0  0  0  0  0  0  0  0  0
   50.8431   10.7552   12.1835 O   0  0  0  0  0  0  0  0  0  0  0  0
   45.1009   10.7377   14.5757 C   0  0  2  0  0  0  0  0  0  0  0  0
   44.4445    9.5318   14.1578 O   0  0  0  0  0  0  0  0  0  0  0  0
   44.2950   12.0005   14.1594 C   0  0  2  0  0  0  0  0  0  0  0  0
   42.9355   11.9406   14.7400 N   0  0  0  0  0  0  0  0  0  0  0  0
   44.2125   12.0462   12.6189 C   0  0  1  0  0  0  0  0  0  0  0  0
   43.4888   13.2147   12.1944 O   0  0  0  0  0  0  0  0  0  0  0  0
   45.6445   12.0960   12.0664 C   0  0  2  0  0  0  0  0  0  0  0  0
   45.6037   12.1239   10.6327 O   0  0  0  0  0  0  0  0  0  0  0  0
   46.3979   10.8270   12.5456 C   0  0  2  0  0  0  0  0  0  0  0  0
   46.4380   10.7836   14.0012 O   0  0  0  0  0  0  0  0  0  0  0  0
   47.8423   10.8562   12.0164 C   0  0  0  0  0  0  0  0  0  0  0  0
   48.5195   12.0226   12.5188 O   0  0  0  0  0  0  0  0  0  0  0  0
  1  2  1  6  0  0  0
  1  3  1  0  0  0  0
  1  4  2  0  0  0  0
  1 16  1  0  0  0  0
  5  6  1  6  0  0  0
  5  7  1  0  0  0  0
  5 14  1  0  0  0  0
  7  8  1  1  0  0  0
  7  9  1  0  0  0  0
  9 10  1  1  0  0  0
  9 11  1  0  0  0  0
 11 12  1  6  0  0  0
 11 13  1  0  0  0  0
 13 14  1  0  0  0  0
 13 15  1  6  0  0  0
 15 16  1  0  0  0  0
M  CHG  1   3  -1
M  END
>  <CHROM.1>
60.33927235,-175.88753722,63.06734357,46.95946839,11.70354378,12.61026101
-0.26778015,-0.12668387,2.26331584

>  <Name>
ligand

>  <RI>
0

>  <Rbt.Current_Directory>
/home/itssahil/PROJECTS/Mol_Feturizer/New_Systems/rnas/3B4B

>  <Rbt.Executable>
rbdock ($Id: //depot/dev/client3/rdock/2013.1/src/exe/rbdock.cxx#4 $)

>  <Rbt.Library>
libRbt.so (2013.1, Build901 2013/11/27)

>  <Rbt.Parameter_File>
/export/apps/rDock/src/rDock_2013.1_src/data/scripts/dock_solv.prm

>  <Rbt.Receptor>
prm/pocket_docking_5.prm

>  <SCORE>
-9.60606

>  <SCORE.INTER>
-7.85901

>  <SCORE.INTER.CONST>
1

>  <SCORE.INTER.POLAR>
-1.125

>  <SCORE.INTER.ROT>
3

>  <SCORE.INTER.SOLV>
19.2769

>  <SCORE.INTER.VDW>
-13.515

>  <SCORE.INTER.norm>
-0.491188

>  <SCORE.INTRA>
-1.74706

>  <SCORE.INTRA.DIHEDRAL>
-2.11818

>  <SCORE.INTRA.DIHEDRAL.0>
2.21864

>  <SCORE.INTRA.POLAR>
0

>  <SCORE.INTRA.POLAR.0>
0

>  <SCORE.INTRA.REPUL>
0

>  <SCORE.INTRA.REPUL.0>
0

>  <SCORE.INTRA.SOLV>
-0.918218

>  <SCORE.INTRA.SOLV.lig_0>
-58.5963

>  <SCORE.INTRA.VDW>
-0.228859

>  <SCORE.INTRA.VDW.0>
-0.437849

>  <SCORE.INTRA.norm>
-0.109191

>  <SCORE.RESTR>
0

>  <SCORE.RESTR.CAVITY>
0

>  <SCORE.RESTR.norm>
0

>  <SCORE.SYSTEM>
0

>  <SCORE.SYSTEM.CONST>
0

>  <SCORE.SYSTEM.DIHEDRAL>
0

>  <SCORE.SYSTEM.SOLV>
0

>  <SCORE.SYSTEM.norm>
0

>  <SCORE.heavy>
16

>  <SCORE.norm>
-0.600379

>  <RMSD>
1.007

$$$$
ligand
 OpenBabel11021811463D
libRbt.so/2013.1/901 2013/11/27
 16 16  0  0  0  0  0  0  0  0999 V2000
   49.4946   11.7348   11.9520 P   0  0  2  0  0  0  0  0  0  0  0  0
   49.7547   13.0251   12.6364 O   0  0  0  0  0  0  0  0  0  0  0  0
   50.6217   10.6555   12.3469 O   0  5  0  0  0  0  0  0  0  0  0  0
   49.5399   11.9646   10.3491 O   0  0  0  0  0  0  0  0  0  0  0  0
   44.4171   11.1542   14.4556 C   0  0  2  0  0  0  0  0  0  0  0  0
   44.1614    9.7998   14.0559 O   0  0  0  0  0  0  0  0  0  0  0  0
   43.2712   12.1069   14.0116 C   0  0  2  0  0  0  0  0  0  0  0  0
   41.9873   11.6468   14.5852 N   0  0  0  0  0  0  0  0  0  0  0  0
   43.1959   12.1014   12.4701 C   0  0  1  0  0  0  0  0  0  0  0  0
   42.1571   12.9888   12.0202 O   0  0  0  0  0  0  0  0  0  0  0  0
   44.5516   12.5741   11.9253 C   0  0  2  0  0  0  0  0  0  0  0  0
   44.5202   12.5660   10.4911 O   0  0  0  0  0  0  0  0  0  0  0  0
   45.6485   11.6008   12.4319 C   0  0  2  0  0  0  0  0  0  0  0  0
   45.6837   11.5942   13.8882 O   0  0  0  0  0  0  0  0  0  0  0  0
   47.0221   12.0580   11.9108 C   0  0  0  0  0  0  0  0  0  0  0  0
   48.0486   11.1870   12.4201 O   0  0  0  0  0  0  0  0  0  0  0  0
  1  2  1  1  0  0  0
  1  3  1  0  0  0  0
  1  4  2  0  0  0  0
  1 16  1  0  0  0  0
  5  6  1  6  0  0  0
  5  7  1  0  0  0  0
  5 14  1  0  0  0  0
  7  8  1  1  0  0  0
  7  9  1  0  0  0  0
  9 10  1  1  0  0  0
  9 11  1  0  0  0  0
 11 12  1  6  0  0  0
 11 13  1  0  0  0  0
 13 14  1  0  0  0  0
 13 15  1  6  0  0  0
 15 16  1  0  0  0  0
M  CHG  1   3  -1
M  END
>  <CHROM.1>
177.83380993,-176.10341454,67.44382782,46.21457974,11.78630285,12.54631248
-0.16831640,-0.12754606,2.10200956

>  <Name>
ligand

>  <RI>
0

>  <Rbt.Current_Directory>
/home/itssahil/PROJECTS/Mol_Feturizer/New_Systems/rnas/3B4B

>  <Rbt.Executable>
rbdock ($Id: //depot/dev/client3/rdock/2013.1/src/exe/rbdock.cxx#4 $)

>  <Rbt.Library>
libRbt.so (2013.1, Build901 2013/11/27)

>  <Rbt.Parameter_File>
/export/apps/rDock/src/rDock_2013.1_src/data/scripts/dock_solv.prm

>  <Rbt.Receptor>
prm/pocket_docking_2.prm

>  <SCORE>
-10.1484

>  <SCORE.INTER>
-8.44765

>  <SCORE.INTER.CONST>
1

>  <SCORE.INTER.POLAR>
-1.125

>  <SCORE.INTER.ROT>
3

>  <SCORE.INTER.SOLV>
17.2533

>  <SCORE.INTER.VDW>
-13.2329

>  <SCORE.INTER.norm>
-0.527978

>  <SCORE.INTRA>
-1.70071

>  <SCORE.INTRA.DIHEDRAL>
-2.0347

>  <SCORE.INTRA.DIHEDRAL.0>
2.21864

>  <SCORE.INTRA.POLAR>
0

>  <SCORE.INTRA.POLAR.0>
0

>  <SCORE.INTRA.REPUL>
0

>  <SCORE.INTRA.REPUL.0>
0

>  <SCORE.INTRA.SOLV>
-1.09335

>  <SCORE.INTRA.SOLV.lig_0>
-58.5963

>  <SCORE.INTRA.VDW>
-0.136685

>  <SCORE.INTRA.VDW.0>
-0.437849

>  <SCORE.INTRA.norm>
-0.106294

>  <SCORE.RESTR>
0

>  <SCORE.RESTR.CAVITY>
0

>  <SCORE.RESTR.norm>
0

>  <SCORE.SYSTEM>
0

>  <SCORE.SYSTEM.CONST>
0

>  <SCORE.SYSTEM.DIHEDRAL>
0

>  <SCORE.SYSTEM.SOLV>
0

>  <SCORE.SYSTEM.norm>
0

>  <SCORE.heavy>
16

>  <SCORE.norm>
-0.634273

>  <RMSD>
1.010

$$$$
ligand
 OpenBabel11021811463D
libRbt.so/2013.1/901 2013/11/27
 16 16  0  0  0  0  0  0  0  0999 V2000
   49.9114   11.8855   12.0360 P   0  0  2  0  0  0  0  0  0  0  0  0
   50.5872   10.6169   12.4035 O   0  0  0  0  0  0  0  0  0  0  0  0
   49.8447   12.0397   10.4351 O   0  5  0  0  0  0  0  0  0  0  0  0
   50.7537   13.1307   12.6393 O   0  0  0  0  0  0  0  0  0  0  0  0
   44.9045   10.5936   14.5677 C   0  0  2  0  0  0  0  0  0  0  0  0
   44.1995    9.4503   14.0621 O   0  0  0  0  0  0  0  0  0  0  0  0
   44.1666   11.9181   14.2231 C   0  0  2  0  0  0  0  0  0  0  0  0
   42.7956   11.8864   14.7785 N   0  0  0  0  0  0  0  0  0  0  0  0
   44.1139   12.0673   12.6879 C   0  0  1  0  0  0  0  0  0  0  0  0
   43.4537   13.2943   12.3302 O   0  0  0  0  0  0  0  0  0  0  0  0
   45.5562   12.0837   12.1610 C   0  0  2  0  0  0  0  0  0  0  0  0
   45.5424   12.2062   10.7318 O   0  0  0  0  0  0  0  0  0  0  0  0
   46.2402   10.7515   12.5672 C   0  0  2  0  0  0  0  0  0  0  0  0
   46.2523   10.6121   14.0172 O   0  0  0  0  0  0  0  0  0  0  0  0
   47.6937   10.7451   12.0623 C   0  0  0  0  0  0  0  0  0  0  0  0
   48.4089   11.8580   12.6293 O   0  0  0  0  0  0  0  0  0  0  0  0
  1  2  1  1  0  0  0
  1  3  1  0  0  0  0
  1  4  2  0  0  0  0
  1 16  1  0  0  0  0
  5  6  1  6  0  0  0
  5  7  1  0  0  0  0
  5 14  1  0  0  0  0
  7  8  1  6  0  0  0
  7  9  1  0  0  0  0
  9 10  1  1  0  0  0
  9 11  1  0  0  0  0
 11 12  1  6  0  0  0
 11 13  1  0  0  0  0
 13 14  1  0  0  0  0
 13 15  1  1  0  0  0
 15 16  1  0  0  0  0
M  CHG  1   3  -1
M  END
>  <CHROM.1>
59.20766829,-177.18294386,-60.36944138,46.83840299,11.59909005,12.68897277
-0.23438457,-0.14727259,2.31613023

>  <Name>
ligand

>  <RI>
0

>  <Rbt.Current_Directory>
/home/itssahil/PROJECTS/Mol_Feturizer/New_Systems/rnas/3B4B

>  <Rbt.Executable>
rbdock ($Id: //depot/dev/client3/rdock/2013.1/src/exe/rbdock.cxx#4 $)

>  <Rbt.Library>
libRbt.so (2013.1, Build901 2013/11/27)

>  <Rbt.Parameter_File>
/export/apps/rDock/src/rDock_2013.1_src/data/scripts/dock_solv.prm

>  <Rbt.Receptor>
prm/blind_docking_60.prm

>  <SCORE>
-9.07502

>  <SCORE.INTER>
-7.43515

>  <SCORE.INTER.CONST>
1

>  <SCORE.INTER.POLAR>
-0.899856

>  <SCORE.INTER.ROT>
3

>  <SCORE.INTER.SOLV>
18.7018

>  <SCORE.INTER.VDW>
-13.7912

>  <SCORE.INTER.norm>
-0.464697

>  <SCORE.INTRA>
-1.63987

>  <SCORE.INTRA.DIHEDRAL>
-2.17674

>  <SCORE.INTRA.DIHEDRAL.0>
2.21864

>  <SCORE.INTRA.POLAR>
0

>  <SCORE.INTRA.POLAR.0>
0

>  <SCORE.INTRA.REPUL>
0

>  <SCORE.INTRA.REPUL.0>
0

>  <SCORE.INTRA.SOLV>
-0.80717

>  <SCORE.INTRA.SOLV.lig_0>
-58.5963

>  <SCORE.INTRA.VDW>
-0.147914

>  <SCORE.INTRA.VDW.0>
-0.437849

>  <SCORE.INTRA.norm>
-0.102492

>  <SCORE.RESTR>
0

>  <SCORE.RESTR.CAVITY>
0

>  <SCORE.RESTR.norm>
0

>  <SCORE.SYSTEM>
0

>  <SCORE.SYSTEM.CONST>
0

>  <SCORE.SYSTEM.DIHEDRAL>
0

>  <SCORE.SYSTEM.SOLV>
0

>  <SCORE.SYSTEM.norm>
0

>  <SCORE.heavy>
16

>  <SCORE.norm>
-0.567189

>  <RMSD>
1.015

$$$$
ligand
 OpenBabel11021811463D
libRbt.so/2013.1/901 2013/11/27
 16 16  0  0  0  0  0  0  0  0999 V2000
   49.8691   11.9038   11.9144 P   0  0  2  0  0  0  0  0  0  0  0  0
   50.5574   10.6574   12.3314 O   0  0  0  0  0  0  0  0  0  0  0  0
   49.7770   11.9811   10.3092 O   0  5  0  0  0  0  0  0  0  0  0  0
   50.7137   13.1804   12.4445 O   0  0  0  0  0  0  0  0  0  0  0  0
   45.0211   10.8729   14.7601 C   0  0  2  0  0  0  0  0  0  0  0  0
   44.4166    9.5857   14.5666 O   0  0  0  0  0  0  0  0  0  0  0  0
   44.1475   12.0104   14.1595 C   0  0  2  0  0  0  0  0  0  0  0  0
   42.8031   11.9879   14.7768 N   0  0  0  0  0  0  0  0  0  0  0  0
   44.0354   11.7928   12.6358 C   0  0  1  0  0  0  0  0  0  0  0  0
   43.2484   12.8396   12.0408 O   0  0  0  0  0  0  0  0  0  0  0  0
   45.4532   11.8131   12.0460 C   0  0  2  0  0  0  0  0  0  0  0  0
   45.3855   11.5978   10.6294 O   0  0  0  0  0  0  0  0  0  0  0  0
   46.2757   10.6778   12.7109 C   0  0  2  0  0  0  0  0  0  0  0  0
   46.3438   10.8815   14.1517 O   0  0  0  0  0  0  0  0  0  0  0  0
   47.7074   10.6824   12.1473 C   0  0  0  0  0  0  0  0  0  0  0  0
   48.3761   11.8975   12.5316 O   0  0  0  0  0  0  0  0  0  0  0  0
  1  2  1  1  0  0  0
  1  3  1  0  0  0  0
  1  4  2  0  0  0  0
  1 16  1  0  0  0  0
  5  6  1  6  0  0  0
  5  7  1  0  0  0  0
  5 14  1  0  0  0  0
  7  8  1  1  0  0  0
  7  9  1  0  0  0  0
  9 10  1  6  0  0  0
  9 11  1  0  0  0  0
 11 12  1  6  0  0  0
 11 13  1  0  0  0  0
 13 14  1  0  0  0  0
 13 15  1  6  0  0  0
 15 16  1  0  0  0  0
M  CHG  1   3  -1
M  END
>  <CHROM.1>
65.38469105,-179.05199837,-54.16622124,46.81768560,11.55343956,12.66866948
-0.28670041,-0.08354991,2.05063221

>  <Name>
ligand

>  <RI>
0

>  <Rbt.Current_Directory>
/home/itssahil/PROJECTS/Mol_Feturizer/New_Systems/rnas/3B4B

>  <Rbt.Executable>
rbdock ($Id: //depot/dev/client3/rdock/2013.1/src/exe/rbdock.cxx#4 $)

>  <Rbt.Library>
libRbt.so (2013.1, Build901 2013/11/27)

>  <Rbt.Parameter_File>
/export/apps/rDock/src/rDock_2013.1_src/data/scripts/dock_solv.prm

>  <Rbt.Receptor>
prm/pocket_docking_3.prm

>  <SCORE>
-9.15873

>  <SCORE.INTER>
-7.55863

>  <SCORE.INTER.CONST>
1

>  <SCORE.INTER.POLAR>
-0.9

>  <SCORE.INTER.ROT>
3

>  <SCORE.INTER.SOLV>
18.5829

>  <SCORE.INTER.VDW>
-13.8334

>  <SCORE.INTER.norm>
-0.472414

>  <SCORE.INTRA>
-1.6001

>  <SCORE.INTRA.DIHEDRAL>
-2.05148

>  <SCORE.INTRA.DIHEDRAL.0>
2.21864

>  <SCORE.INTRA.POLAR>
0

>  <SCORE.INTRA.POLAR.0>
0

>  <SCORE.INTRA.REPUL>
0

>  <SCORE.INTRA.REPUL.0>
0

>  <SCORE.INTRA.SOLV>
-0.952346

>  <SCORE.INTRA.SOLV.lig_0>
-58.5963

>  <SCORE.INTRA.VDW>
-0.09819

>  <SCORE.INTRA.VDW.0>
-0.437849

>  <SCORE.INTRA.norm>
-0.100006

>  <SCORE.RESTR>
0

>  <SCORE.RESTR.CAVITY>
0

>  <SCORE.RESTR.norm>
0

>  <SCORE.SYSTEM>
0

>  <SCORE.SYSTEM.CONST>
0

>  <SCORE.SYSTEM.DIHEDRAL>
0

>  <SCORE.SYSTEM.SOLV>
0

>  <SCORE.SYSTEM.norm>
0

>  <SCORE.heavy>
16

>  <SCORE.norm>
-0.572421

>  <RMSD>
1.018

$$$$
ligand
 OpenBabel11021811463D
libRbt.so/2013.1/901 2013/11/27
 16 16  0  0  0  0  0  0  0  0999 V2000
   49.9250   11.9290   11.9411 P   0  0  2  0  0  0  0  0  0  0  0  0
   50.5705   10.6551   12.3433 O   0  0  0  0  0  0  0  0  0  0  0  0
   49.8841   12.0525   10.3367 O   0  5  0  0  0  0  0  0  0  0  0  0
   50.7831   13.1694   12.5321 O   0  0  0  0  0  0  0  0  0  0  0  0
   45.0413   10.9185   14.7072 C   0  0  2  0  0  0  0  0  0  0  0  0
   44.4360    9.6332   14.5045 O   0  0  0  0  0  0  0  0  0  0  0  0
   44.1727   12.0601   14.1075 C   0  0  2  0  0  0  0  0  0  0  0  0
   42.8249   12.0368   14.7174 N   0  0  0  0  0  0  0  0  0  0  0  0
   44.0684   11.8499   12.5821 C   0  0  1  0  0  0  0  0  0  0  0  0
   43.2861   12.9007   11.9879 O   0  0  0  0  0  0  0  0  0  0  0  0
   45.4893   11.8709   12.0000 C   0  0  2  0  0  0  0  0  0  0  0  0
   45.4289   11.6624   10.5820 O   0  0  0  0  0  0  0  0  0  0  0  0
   46.3066   10.7313   12.6639 C   0  0  2  0  0  0  0  0  0  0  0  0
   46.3673   10.9281   14.1060 O   0  0  0  0  0  0  0  0  0  0  0  0
   47.7413   10.7363   12.1080 C   0  0  0  0  0  0  0  0  0  0  0  0
   48.4141   11.9425   12.5128 O   0  0  0  0  0  0  0  0  0  0  0  0
  1  2  1  1  0  0  0
  1  3  1  0  0  0  0
  1  4  2  0  0  0  0
  1 16  1  0  0  0  0
  5  6  1  6  0  0  0
  5  7  1  0  0  0  0
  5 14  1  0  0  0  0
  7  8  1  1  0  0  0
  7  9  1  0  0  0  0
  9 10  1  6  0  0  0
  9 11  1  0  0  0  0
 11 12  1  6  0  0  0
 11 13  1  0  0  0  0
 13 14  1  0  0  0  0
 13 15  1  6  0  0  0
 15 16  1  0  0  0  0
M  CHG  1   3  -1
M  END
>  <CHROM.1>
65.95682875,179.24565059,-52.46490124,46.85746319,11.59637222,12.64713314
-0.27037937,-0.08036732,2.04938375

>  <Name>
ligand

>  <RI>
0

>  <Rbt.Current_Directory>
/home/itssahil/PROJECTS/Mol_Feturizer/New_Systems/rnas/3B4B

>  <Rbt.Executable>
rbdock ($Id: //depot/dev/client3/rdock/2013.1/src/exe/rbdock.cxx#4 $)

>  <Rbt.Library>
libRbt.so (2013.1, Build901 2013/11/27)

>  <Rbt.Parameter_File>
/export/apps/rDock/src/rDock_2013.1_src/data/scripts/dock_solv.prm

>  <Rbt.Receptor>
prm/pocket_docking_3.prm

>  <SCORE>
-9.12454

>  <SCORE.INTER>
-7.56751

>  <SCORE.INTER.CONST>
1

>  <SCORE.INTER.POLAR>
-0.894196

>  <SCORE.INTER.ROT>
3

>  <SCORE.INTER.SOLV>
18.1881

>  <SCORE.INTER.VDW>
-13.7271

>  <SCORE.INTER.norm>
-0.472969

>  <SCORE.INTRA>
-1.55704

>  <SCORE.INTRA.DIHEDRAL>
-1.99279

>  <SCORE.INTRA.DIHEDRAL.0>
2.21864

>  <SCORE.INTRA.POLAR>
0

>  <SCORE.INTRA.POLAR.0>
0

>  <SCORE.INTRA.REPUL>
0

>  <SCORE.INTRA.REPUL.0>
0

>  <SCORE.INTRA.SOLV>
-0.993462

>  <SCORE.INTRA.SOLV.lig_0>
-58.5963

>  <SCORE.INTRA.VDW>
-0.0639104

>  <SCORE.INTRA.VDW.0>
-0.437849

>  <SCORE.INTRA.norm>
-0.0973148

>  <SCORE.RESTR>
0

>  <SCORE.RESTR.CAVITY>
0

>  <SCORE.RESTR.norm>
0

>  <SCORE.SYSTEM>
0

>  <SCORE.SYSTEM.CONST>
0

>  <SCORE.SYSTEM.DIHEDRAL>
0

>  <SCORE.SYSTEM.SOLV>
0

>  <SCORE.SYSTEM.norm>
0

>  <SCORE.heavy>
16

>  <SCORE.norm>
-0.570284

>  <RMSD>
1.020

$$$$
ligand
 OpenBabel11021811463D
libRbt.so/2013.1/901 2013/11/27
 16 16  0  0  0  0  0  0  0  0999 V2000
   49.9646   11.9420   11.9881 P   0  0  2  0  0  0  0  0  0  0  0  0
   50.6340   10.6647   12.3365 O   0  0  0  0  0  0  0  0  0  0  0  0
   49.8818   12.1117   10.3895 O   0  5  0  0  0  0  0  0  0  0  0  0
   50.8236   13.1748   12.5936 O   0  0  0  0  0  0  0  0  0  0  0  0
   45.0274   10.7741   14.6979 C   0  0  2  0  0  0  0  0  0  0  0  0
   44.3738    9.5441   14.3523 O   0  0  0  0  0  0  0  0  0  0  0  0
   44.2275   12.0079   14.1925 C   0  0  2  0  0  0  0  0  0  0  0  0
   42.8619   11.9865   14.7618 N   0  0  0  0  0  0  0  0  0  0  0  0
   44.1608   11.9538   12.6516 C   0  0  1  0  0  0  0  0  0  0  0  0
   43.4429   13.0928   12.1450 O   0  0  0  0  0  0  0  0  0  0  0  0
   45.5984   11.9669   12.1118 C   0  0  2  0  0  0  0  0  0  0  0  0
   45.5723   11.9020   10.6790 O   0  0  0  0  0  0  0  0  0  0  0  0
   46.3452   10.7311   12.6798 C   0  0  2  0  0  0  0  0  0  0  0  0
   46.3703   10.7820   14.1355 O   0  0  0  0  0  0  0  0  0  0  0  0
   47.7950   10.7251   12.1648 C   0  0  0  0  0  0  0  0  0  0  0  0
   48.4685   11.9211   12.5975 O   0  0  0  0  0  0  0  0  0  0  0  0
  1  2  1  1  0  0  0
  1  3  1  0  0  0  0
  1  4  2  0  0  0  0
  1 16  1  0  0  0  0
  5  6  1  6  0  0  0
  5  7  1  0  0  0  0
  5 14  1  0  0  0  0
  7  8  1  1  0  0  0
  7  9  1  0  0  0  0
  9 10  1  6  0  0  0
  9 11  1  0  0  0  0
 11 12  1  6  0  0  0
 11 13  1  0  0  0  0
 13 14  1  0  0  0  0
 13 15  1  6  0  0  0
 15 16  1  0  0  0  0
M  CHG  1   3  -1
M  END
>  <CHROM.1>
60.33638507,-177.08139096,-52.96310670,46.90710082,11.61051606,12.69315618
-0.26485147,-0.11378531,2.17757308

>  <Name>
ligand

>  <RI>
0

>  <Rbt.Current_Directory>
/home/itssahil/PROJECTS/Mol_Feturizer/New_Systems/rnas/3B4B

>  <Rbt.Executable>
rbdock ($Id: //depot/dev/client3/rdock/2013.1/src/exe/rbdock.cxx#4 $)

>  <Rbt.Library>
libRbt.so (2013.1, Build901 2013/11/27)

>  <Rbt.Parameter_File>
/export/apps/rDock/src/rDock_2013.1_src/data/scripts/dock_solv.prm

>  <Rbt.Receptor>
prm/pocket_docking_2.prm

>  <SCORE>
-9.162

>  <SCORE.INTER>
-7.61027

>  <SCORE.INTER.CONST>
1

>  <SCORE.INTER.POLAR>
-0.897013

>  <SCORE.INTER.ROT>
3

>  <SCORE.INTER.SOLV>
18.4691

>  <SCORE.INTER.VDW>
-13.8398

>  <SCORE.INTER.norm>
-0.475642

>  <SCORE.INTRA>
-1.55173

>  <SCORE.INTRA.DIHEDRAL>
-2.09318

>  <SCORE.INTRA.DIHEDRAL.0>
2.21864

>  <SCORE.INTRA.POLAR>
0

>  <SCORE.INTRA.POLAR.0>
0

>  <SCORE.INTRA.REPUL>
0

>  <SCORE.INTRA.REPUL.0>
0

>  <SCORE.INTRA.SOLV>
-0.881569

>  <SCORE.INTRA.SOLV.lig_0>
-58.5963

>  <SCORE.INTRA.VDW>
-0.064357

>  <SCORE.INTRA.VDW.0>
-0.437849

>  <SCORE.INTRA.norm>
-0.0969831

>  <SCORE.RESTR>
0

>  <SCORE.RESTR.CAVITY>
0

>  <SCORE.RESTR.norm>
0

>  <SCORE.SYSTEM>
0

>  <SCORE.SYSTEM.CONST>
0

>  <SCORE.SYSTEM.DIHEDRAL>
0

>  <SCORE.SYSTEM.SOLV>
0

>  <SCORE.SYSTEM.norm>
0

>  <SCORE.heavy>
16

>  <SCORE.norm>
-0.572625

>  <RMSD>
1.022

$$$$
ligand
 OpenBabel11021811463D
libRbt.so/2013.1/901 2013/11/27
 16 16  0  0  0  0  0  0  0  0999 V2000
   49.9320   11.9162   11.9759 P   0  0  2  0  0  0  0  0  0  0  0  0
   50.6206   10.6557   12.3471 O   0  0  0  0  0  0  0  0  0  0  0  0
   49.8323   12.0480   10.3747 O   0  5  0  0  0  0  0  0  0  0  0  0
   50.7809   13.1732   12.5449 O   0  0  0  0  0  0  0  0  0  0  0  0
   45.0522   10.8509   14.7718 C   0  0  2  0  0  0  0  0  0  0  0  0
   44.4486    9.5665   14.5579 O   0  0  0  0  0  0  0  0  0  0  0  0
   44.1904   11.9950   14.1669 C   0  0  2  0  0  0  0  0  0  0  0  0
   42.8362   11.9700   14.7624 N   0  0  0  0  0  0  0  0  0  0  0  0
   44.1022   11.7903   12.6397 C   0  0  1  0  0  0  0  0  0  0  0  0
   43.3266   12.8435   12.0411 O   0  0  0  0  0  0  0  0  0  0  0  0
   45.5293   11.8129   12.0729 C   0  0  2  0  0  0  0  0  0  0  0  0
   45.4838   11.6094   10.6536 O   0  0  0  0  0  0  0  0  0  0  0  0
   46.3390   10.6705   12.7413 C   0  0  2  0  0  0  0  0  0  0  0  0
   46.3845   10.8621   14.1847 O   0  0  0  0  0  0  0  0  0  0  0  0
   47.7796   10.6770   12.2007 C   0  0  0  0  0  0  0  0  0  0  0  0
   48.4419   11.8909   12.5998 O   0  0  0  0  0  0  0  0  0  0  0  0
  1  2  1  1  0  0  0
  1  3  1  0  0  0  0
  1  4  2  0  0  0  0
  1 16  1  0  0  0  0
  5  6  1  6  0  0  0
  5  7  1  0  0  0  0
  5 14  1  0  0  0  0
  7  8  1  1  0  0  0
  7  9  1  0  0  0  0
  9 10  1  6  0  0  0
  9 11  1  0  0  0  0
 11 12  1  6  0  0  0
 11 13  1  0  0  0  0
 13 14  1  0  0  0  0
 13 15  1  6  0  0  0
 15 16  1  0  0  0  0
M  CHG  1   3  -1
M  END
>  <CHROM.1>
65.08476482,-177.65239743,-52.97719651,46.87752226,11.55302174,12.70147971
-0.27972863,-0.07911234,2.06486698

>  <Name>
ligand

>  <RI>
0

>  <Rbt.Current_Directory>
/home/itssahil/PROJECTS/Mol_Feturizer/New_Systems/rnas/3B4B

>  <Rbt.Executable>
rbdock ($Id: //depot/dev/client3/rdock/2013.1/src/exe/rbdock.cxx#4 $)

>  <Rbt.Library>
libRbt.so (2013.1, Build901 2013/11/27)

>  <Rbt.Parameter_File>
/export/apps/rDock/src/rDock_2013.1_src/data/scripts/dock_solv.prm

>  <Rbt.Receptor>
prm/pocket_docking_2.prm

>  <SCORE>
-9.18242

>  <SCORE.INTER>
-7.63313

>  <SCORE.INTER.CONST>
1

>  <SCORE.INTER.POLAR>
-0.9

>  <SCORE.INTER.ROT>
3

>  <SCORE.INTER.SOLV>
18.6268

>  <SCORE.INTER.VDW>
-13.8977

>  <SCORE.INTER.norm>
-0.477071

>  <SCORE.INTRA>
-1.54929

>  <SCORE.INTRA.DIHEDRAL>
-2.01502

>  <SCORE.INTRA.DIHEDRAL.0>
2.21864

>  <SCORE.INTRA.POLAR>
0

>  <SCORE.INTRA.POLAR.0>
0

>  <SCORE.INTRA.REPUL>
0

>  <SCORE.INTRA.REPUL.0>
0

>  <SCORE.INTRA.SOLV>
-0.922073

>  <SCORE.INTRA.SOLV.lig_0>
-58.5963

>  <SCORE.INTRA.VDW>
-0.0807446

>  <SCORE.INTRA.VDW.0>
-0.437849

>  <SCORE.INTRA.norm>
-0.0968307

>  <SCORE.RESTR>
0

>  <SCORE.RESTR.CAVITY>
0

>  <SCORE.RESTR.norm>
0

>  <SCORE.SYSTEM>
0

>  <SCORE.SYSTEM.CONST>
0

>  <SCORE.SYSTEM.DIHEDRAL>
0

>  <SCORE.SYSTEM.SOLV>
0

>  <SCORE.SYSTEM.norm>
0

>  <SCORE.heavy>
16

>  <SCORE.norm>
-0.573902

>  <RMSD>
1.024

$$$$
ligand
 OpenBabel11021811463D
libRbt.so/2013.1/901 2013/11/27
 16 16  0  0  0  0  0  0  0  0999 V2000
   49.8551   11.8753   12.0637 P   0  0  2  0  0  0  0  0  0  0  0  0
   50.4558   10.5725   12.4419 O   0  0  0  0  0  0  0  0  0  0  0  0
   49.8701   12.0543   10.4641 O   0  5  0  0  0  0  0  0  0  0  0  0
   50.7232   13.0727   12.7247 O   0  0  0  0  0  0  0  0  0  0  0  0
   44.8219   10.6589   14.5106 C   0  0  2  0  0  0  0  0  0  0  0  0
   44.1113    9.5207   14.0015 O   0  0  0  0  0  0  0  0  0  0  0  0
   44.0850   11.9874   14.1797 C   0  0  2  0  0  0  0  0  0  0  0  0
   42.7173   11.9549   14.7431 N   0  0  0  0  0  0  0  0  0  0  0  0
   44.0233   12.1474   12.6459 C   0  0  1  0  0  0  0  0  0  0  0  0
   43.3638   13.3783   12.3007 O   0  0  0  0  0  0  0  0  0  0  0  0
   45.4624   12.1641   12.1104 C   0  0  2  0  0  0  0  0  0  0  0  0
   45.4402   12.2965   10.6821 O   0  0  0  0  0  0  0  0  0  0  0  0
   46.1458   10.8276   12.5031 C   0  0  2  0  0  0  0  0  0  0  0  0
   46.1663   10.6782   13.9520 O   0  0  0  0  0  0  0  0  0  0  0  0
   47.5962   10.8214   11.9894 C   0  0  0  0  0  0  0  0  0  0  0  0
   48.3269   11.9080   12.5868 O   0  0  0  0  0  0  0  0  0  0  0  0
  1  2  1  1  0  0  0
  1  3  1  0  0  0  0
  1  4  2  0  0  0  0
  1 16  1  0  0  0  0
  5  6  1  6  0  0  0
  5  7  1  0  0  0  0
  5 14  1  0  0  0  0
  7  8  1  6  0  0  0
  7  9  1  0  0  0  0
  9 10  1  1  0  0  0
  9 11  1  0  0  0  0
 11 12  1  6  0  0  0
 11 13  1  0  0  0  0
 13 14  1  0  0  0  0
 13 15  1  1  0  0  0
 15 16  1  0  0  0  0
M  CHG  1   3  -1
M  END
>  <CHROM.1>
60.70926878,178.89791337,-59.30515357,46.76173744,11.64238045,12.66706400
-0.21286052,-0.14649460,2.30747007

>  <Name>
ligand

>  <RI>
0

>  <Rbt.Current_Directory>
/home/itssahil/PROJECTS/Mol_Feturizer/New_Systems/rnas/3B4B

>  <Rbt.Executable>
rbdock ($Id: //depot/dev/client3/rdock/2013.1/src/exe/rbdock.cxx#4 $)

>  <Rbt.Library>
libRbt.so (2013.1, Build901 2013/11/27)

>  <Rbt.Parameter_File>
/export/apps/rDock/src/rDock_2013.1_src/data/scripts/dock_solv.prm

>  <Rbt.Receptor>
prm/pocket_docking_4.prm

>  <SCORE>
-9.08557

>  <SCORE.INTER>
-7.36046

>  <SCORE.INTER.CONST>
1

>  <SCORE.INTER.POLAR>
-0.898142

>  <SCORE.INTER.ROT>
3

>  <SCORE.INTER.SOLV>
18.4245

>  <SCORE.INTER.VDW>
-13.6547

>  <SCORE.INTER.norm>
-0.460029

>  <SCORE.INTRA>
-1.72511

>  <SCORE.INTRA.DIHEDRAL>
-2.2092

>  <SCORE.INTRA.DIHEDRAL.0>
2.21864

>  <SCORE.INTRA.POLAR>
0

>  <SCORE.INTRA.POLAR.0>
0

>  <SCORE.INTRA.REPUL>
0

>  <SCORE.INTRA.REPUL.0>
0

>  <SCORE.INTRA.SOLV>
-0.922621

>  <SCORE.INTRA.SOLV.lig_0>
-58.5963

>  <SCORE.INTRA.VDW>
-0.1592

>  <SCORE.INTRA.VDW.0>
-0.437849

>  <SCORE.INTRA.norm>
-0.107819

>  <SCORE.RESTR>
0

>  <SCORE.RESTR.CAVITY>
0

>  <SCORE.RESTR.norm>
0

>  <SCORE.SYSTEM>
0

>  <SCORE.SYSTEM.CONST>
0

>  <SCORE.SYSTEM.DIHEDRAL>
0

>  <SCORE.SYSTEM.SOLV>
0

>  <SCORE.SYSTEM.norm>
0

>  <SCORE.heavy>
16

>  <SCORE.norm>
-0.567848

>  <RMSD>
1.024

$$$$
ligand
 OpenBabel11021811463D
libRbt.so/2013.1/901 2013/11/27
 16 16  0  0  0  0  0  0  0  0999 V2000
   49.7611   12.1375   11.5326 P   0  0  2  0  0  0  0  0  0  0  0  0
   49.4794   12.1427   10.0760 O   0  0  0  0  0  0  0  0  0  0  0  0
   50.5182   13.4921   11.9603 O   0  5  0  0  0  0  0  0  0  0  0  0
   50.7181   10.8787   11.8844 O   0  0  0  0  0  0  0  0  0  0  0  0
   45.0676   10.7983   14.7027 C   0  0  2  0  0  0  0  0  0  0  0  0
   44.4476    9.5354   14.4194 O   0  0  0  0  0  0  0  0  0  0  0  0
   44.2140   11.9853   14.1735 C   0  0  2  0  0  0  0  0  0  0  0  0
   42.8645   11.9402   14.7786 N   0  0  0  0  0  0  0  0  0  0  0  0
   44.1109   11.8715   12.6379 C   0  0  1  0  0  0  0  0  0  0  0  0
   43.3425   12.9664   12.1088 O   0  0  0  0  0  0  0  0  0  0  0  0
   45.5334   11.9116   12.0606 C   0  0  2  0  0  0  0  0  0  0  0  0
   45.4740   11.7923   10.6323 O   0  0  0  0  0  0  0  0  0  0  0  0
   46.3355   10.7233   12.6538 C   0  0  2  0  0  0  0  0  0  0  0  0
   46.3951   10.8294   14.1055 O   0  0  0  0  0  0  0  0  0  0  0  0
   47.7715   10.7457   12.1017 C   0  0  0  0  0  0  0  0  0  0  0  0
   48.3577   12.0408   12.3271 O   0  0  0  0  0  0  0  0  0  0  0  0
  1  2  1  6  0  0  0
  1  3  1  0  0  0  0
  1  4  2  0  0  0  0
  1 16  1  0  0  0  0
  5  6  1  6  0  0  0
  5  7  1  0  0  0  0
  5 14  1  0  0  0  0
  7  8  1  1  0  0  0
  7  9  1  0  0  0  0
  9 10  1  6  0  0  0
  9 11  1  0  0  0  0
 11 12  1  6  0  0  0
 11 13  1  0  0  0  0
 13 14  1  0  0  0  0
 13 15  1  6  0  0  0
 15 16  1  0  0  0  0
M  CHG  1   3  -1
M  END
>  <CHROM.1>
53.22004305,-170.60106106,68.14292526,46.82290360,11.65645936,12.52034024
0.35307781,0.13268663,-0.95662975

>  <Name>
ligand

>  <RI>
0

>  <Rbt.Current_Directory>
/home/itssahil/PROJECTS/Mol_Feturizer/New_Systems/rnas/3B4B

>  <Rbt.Executable>
rbdock ($Id: //depot/dev/client3/rdock/2013.1/src/exe/rbdock.cxx#4 $)

>  <Rbt.Library>
libRbt.so (2013.1, Build901 2013/11/27)

>  <Rbt.Parameter_File>
/export/apps/rDock/src/rDock_2013.1_src/data/scripts/dock_solv.prm

>  <Rbt.Receptor>
prm/pocket_docking_4.prm

>  <SCORE>
-9.52583

>  <SCORE.INTER>
-8.17704

>  <SCORE.INTER.CONST>
1

>  <SCORE.INTER.POLAR>
-1.12328

>  <SCORE.INTER.ROT>
3

>  <SCORE.INTER.SOLV>
18.5199

>  <SCORE.INTER.VDW>
-13.4804

>  <SCORE.INTER.norm>
-0.511065

>  <SCORE.INTRA>
-1.34879

>  <SCORE.INTRA.DIHEDRAL>
-1.51757

>  <SCORE.INTRA.DIHEDRAL.0>
2.21864

>  <SCORE.INTRA.POLAR>
0

>  <SCORE.INTRA.POLAR.0>
0

>  <SCORE.INTRA.REPUL>
0

>  <SCORE.INTRA.REPUL.0>
0

>  <SCORE.INTRA.SOLV>
-0.796672

>  <SCORE.INTRA.SOLV.lig_0>
-58.5963

>  <SCORE.INTRA.VDW>
-0.191669

>  <SCORE.INTRA.VDW.0>
-0.437849

>  <SCORE.INTRA.norm>
-0.0842995

>  <SCORE.RESTR>
0

>  <SCORE.RESTR.CAVITY>
0

>  <SCORE.RESTR.norm>
0

>  <SCORE.SYSTEM>
0

>  <SCORE.SYSTEM.CONST>
0

>  <SCORE.SYSTEM.DIHEDRAL>
0

>  <SCORE.SYSTEM.SOLV>
0

>  <SCORE.SYSTEM.norm>
0

>  <SCORE.heavy>
16

>  <SCORE.norm>
-0.595365

>  <RMSD>
1.026

$$$$
ligand
 OpenBabel11021811463D
libRbt.so/2013.1/901 2013/11/27
 16 16  0  0  0  0  0  0  0  0999 V2000
   49.9792   11.8973   12.0309 P   0  0  2  0  0  0  0  0  0  0  0  0
   50.6268   10.6170   12.4084 O   0  0  0  0  0  0  0  0  0  0  0  0
   49.9308   12.0481   10.4291 O   0  5  0  0  0  0  0  0  0  0  0  0
   50.8398   13.1278   12.6389 O   0  0  0  0  0  0  0  0  0  0  0  0
   44.9846   10.7178   14.6349 C   0  0  2  0  0  0  0  0  0  0  0  0
   44.2939    9.5354   14.2053 O   0  0  0  0  0  0  0  0  0  0  0  0
   44.2302   12.0079   14.2057 C   0  0  2  0  0  0  0  0  0  0  0  0
   42.8597   11.9951   14.7631 N   0  0  0  0  0  0  0  0  0  0  0  0
   44.1756   12.0564   12.6641 C   0  0  1  0  0  0  0  0  0  0  0  0
   43.5001   13.2493   12.2281 O   0  0  0  0  0  0  0  0  0  0  0  0
   45.6176   12.0564   12.1361 C   0  0  2  0  0  0  0  0  0  0  0  0
   45.6021   12.0857   10.7019 O   0  0  0  0  0  0  0  0  0  0  0  0
   46.3182   10.7621   12.6273 C   0  0  2  0  0  0  0  0  0  0  0  0
   46.3320   10.7173   14.0832 O   0  0  0  0  0  0  0  0  0  0  0  0
   47.7716   10.7410   12.1227 C   0  0  0  0  0  0  0  0  0  0  0  0
   48.4710   11.9008   12.6099 O   0  0  0  0  0  0  0  0  0  0  0  0
  1  2  1  1  0  0  0
  1  3  1  0  0  0  0
  1  4  2  0  0  0  0
  1 16  1  0  0  0  0
  5  6  1  6  0  0  0
  5  7  1  0  0  0  0
  5 14  1  0  0  0  0
  7  8  1  1  0  0  0
  7  9  1  0  0  0  0
  9 10  1  1  0  0  0
  9 11  1  0  0  0  0
 11 12  1  6  0  0  0
 11 13  1  0  0  0  0
 13 14  1  0  0  0  0
 13 15  1  1  0  0  0
 15 16  1  0  0  0  0
M  CHG  1   3  -1
M  END
>  <CHROM.1>
58.91295252,-177.95161015,-55.84573451,46.90761688,11.62060365,12.69758747
-0.24045254,-0.13702620,2.24762657

>  <Name>
ligand

>  <RI>
0

>  <Rbt.Current_Directory>
/home/itssahil/PROJECTS/Mol_Feturizer/New_Systems/rnas/3B4B

>  <Rbt.Executable>
rbdock ($Id: //depot/dev/client3/rdock/2013.1/src/exe/rbdock.cxx#4 $)

>  <Rbt.Library>
libRbt.so (2013.1, Build901 2013/11/27)

>  <Rbt.Parameter_File>
/export/apps/rDock/src/rDock_2013.1_src/data/scripts/dock_solv.prm

>  <Rbt.Receptor>
prm/pocket_docking_4.prm

>  <SCORE>
-9.15078

>  <SCORE.INTER>
-7.53394

>  <SCORE.INTER.CONST>
1

>  <SCORE.INTER.POLAR>
-0.9

>  <SCORE.INTER.ROT>
3

>  <SCORE.INTER.SOLV>
18.5951

>  <SCORE.INTER.VDW>
-13.821

>  <SCORE.INTER.norm>
-0.470871

>  <SCORE.INTRA>
-1.61684

>  <SCORE.INTRA.DIHEDRAL>
-2.16384

>  <SCORE.INTRA.DIHEDRAL.0>
2.21864

>  <SCORE.INTRA.POLAR>
0

>  <SCORE.INTRA.POLAR.0>
0

>  <SCORE.INTRA.REPUL>
0

>  <SCORE.INTRA.REPUL.0>
0

>  <SCORE.INTRA.SOLV>
-0.872851

>  <SCORE.INTRA.SOLV.lig_0>
-58.5963

>  <SCORE.INTRA.VDW>
-0.0984912

>  <SCORE.INTRA.VDW.0>
-0.437849

>  <SCORE.INTRA.norm>
-0.101052

>  <SCORE.RESTR>
0

>  <SCORE.RESTR.CAVITY>
0

>  <SCORE.RESTR.norm>
0

>  <SCORE.SYSTEM>
0

>  <SCORE.SYSTEM.CONST>
0

>  <SCORE.SYSTEM.DIHEDRAL>
0

>  <SCORE.SYSTEM.SOLV>
0

>  <SCORE.SYSTEM.norm>
0

>  <SCORE.heavy>
16

>  <SCORE.norm>
-0.571923

>  <RMSD>
1.028

$$$$
ligand
 OpenBabel11021811463D
libRbt.so/2013.1/901 2013/11/27
 16 16  0  0  0  0  0  0  0  0999 V2000
   49.8117   11.9164   11.7841 P   0  0  2  0  0  0  0  0  0  0  0  0
   50.5444   10.7089   12.2383 O   0  0  0  0  0  0  0  0  0  0  0  0
   49.6704   11.9141   10.1806 O   0  5  0  0  0  0  0  0  0  0  0  0
   50.6379   13.2375   12.2270 O   0  0  0  0  0  0  0  0  0  0  0  0
   45.0631   10.8896   14.7693 C   0  0  2  0  0  0  0  0  0  0  0  0
   44.4712    9.5910   14.6182 O   0  0  0  0  0  0  0  0  0  0  0  0
   44.1515   12.0047   14.1833 C   0  0  2  0  0  0  0  0  0  0  0  0
   42.8308   11.9730   14.8496 N   0  0  0  0  0  0  0  0  0  0  0  0
   43.9874   11.7609   12.6683 C   0  0  1  0  0  0  0  0  0  0  0  0
   43.1638   12.7866   12.0862 O   0  0  0  0  0  0  0  0  0  0  0  0
   45.3824   11.7919   12.0269 C   0  0  2  0  0  0  0  0  0  0  0  0
   45.2665   11.5528   10.6172 O   0  0  0  0  0  0  0  0  0  0  0  0
   46.2453   10.6794   12.6790 C   0  0  2  0  0  0  0  0  0  0  0  0
   46.3626   10.9073   14.1130 O   0  0  0  0  0  0  0  0  0  0  0  0
   47.6553   10.6953   12.0634 C   0  0  0  0  0  0  0  0  0  0  0  0
   48.3382   11.9029   12.4465 O   0  0  0  0  0  0  0  0  0  0  0  0
  1  2  1  1  0  0  0
  1  3  1  0  0  0  0
  1  4  2  0  0  0  0
  1 16  1  0  0  0  0
  5  6  1  6  0  0  0
  5  7  1  0  0  0  0
  5 14  1  0  0  0  0
  7  8  1  1  0  0  0
  7  9  1  0  0  0  0
  9 10  1  6  0  0  0
  9 11  1  0  0  0  0
 11 12  1  6  0  0  0
 11 13  1  0  0  0  0
 13 14  1  0  0  0  0
 13 15  1  6  0  0  0
 15 16  1  0  0  0  0
M  CHG  1   3  -1
M  END
>  <CHROM.1>
67.57606495,-179.47090927,-58.14242171,46.78087621,11.55152440,12.62242506
-0.31457982,-0.08502013,2.02512256

>  <Name>
ligand

>  <RI>
0

>  <Rbt.Current_Directory>
/home/itssahil/PROJECTS/Mol_Feturizer/New_Systems/rnas/3B4B

>  <Rbt.Executable>
rbdock ($Id: //depot/dev/client3/rdock/2013.1/src/exe/rbdock.cxx#4 $)

>  <Rbt.Library>
libRbt.so (2013.1, Build901 2013/11/27)

>  <Rbt.Parameter_File>
/export/apps/rDock/src/rDock_2013.1_src/data/scripts/dock_solv.prm

>  <Rbt.Receptor>
prm/pocket_docking_2.prm

>  <SCORE>
-9.08339

>  <SCORE.INTER>
-7.46988

>  <SCORE.INTER.CONST>
1

>  <SCORE.INTER.POLAR>
-0.9

>  <SCORE.INTER.ROT>
3

>  <SCORE.INTER.SOLV>
18.695

>  <SCORE.INTER.VDW>
-13.8116

>  <SCORE.INTER.norm>
-0.466867

>  <SCORE.INTRA>
-1.61351

>  <SCORE.INTRA.DIHEDRAL>
-2.00448

>  <SCORE.INTRA.DIHEDRAL.0>
2.21864

>  <SCORE.INTRA.POLAR>
0

>  <SCORE.INTRA.POLAR.0>
0

>  <SCORE.INTRA.REPUL>
0

>  <SCORE.INTRA.REPUL.0>
0

>  <SCORE.INTRA.SOLV>
-0.921384

>  <SCORE.INTRA.SOLV.lig_0>
-58.5963

>  <SCORE.INTRA.VDW>
-0.150581

>  <SCORE.INTRA.VDW.0>
-0.437849

>  <SCORE.INTRA.norm>
-0.100845

>  <SCORE.RESTR>
0

>  <SCORE.RESTR.CAVITY>
0

>  <SCORE.RESTR.norm>
0

>  <SCORE.SYSTEM>
0

>  <SCORE.SYSTEM.CONST>
0

>  <SCORE.SYSTEM.DIHEDRAL>
0

>  <SCORE.SYSTEM.SOLV>
0

>  <SCORE.SYSTEM.norm>
0

>  <SCORE.heavy>
16

>  <SCORE.norm>
-0.567712

>  <RMSD>
1.030

$$$$
ligand
 OpenBabel11021811463D
libRbt.so/2013.1/901 2013/11/27
 16 16  0  0  0  0  0  0  0  0999 V2000
   49.7288   11.8692   11.7772 P   0  0  2  0  0  0  0  0  0  0  0  0
   50.4530   10.6746   12.2767 O   0  0  0  0  0  0  0  0  0  0  0  0
   49.5891   11.8085   10.1748 O   0  5  0  0  0  0  0  0  0  0  0  0
   50.5633   13.2003   12.1720 O   0  0  0  0  0  0  0  0  0  0  0  0
   44.9498   10.9145   14.7567 C   0  0  2  0  0  0  0  0  0  0  0  0
   44.3120    9.6425   14.5692 O   0  0  0  0  0  0  0  0  0  0  0  0
   44.0816   12.0769   14.1975 C   0  0  2  0  0  0  0  0  0  0  0  0
   42.7578   12.0755   14.8582 N   0  0  0  0  0  0  0  0  0  0  0  0
   43.9153   11.8792   12.6759 C   0  0  1  0  0  0  0  0  0  0  0  0
   43.1318   12.9491   12.1185 O   0  0  0  0  0  0  0  0  0  0  0  0
   45.3133   11.8766   12.0402 C   0  0  2  0  0  0  0  0  0  0  0  0
   45.1949   11.6791   10.6243 O   0  0  0  0  0  0  0  0  0  0  0  0
   46.1325   10.7168   12.6655 C   0  0  2  0  0  0  0  0  0  0  0  0
   46.2519   10.9024   14.1054 O   0  0  0  0  0  0  0  0  0  0  0  0
   47.5449   10.6978   12.0553 C   0  0  0  0  0  0  0  0  0  0  0  0
   48.2546   11.8900   12.4378 O   0  0  0  0  0  0  0  0  0  0  0  0
  1  2  1  1  0  0  0
  1  3  1  0  0  0  0
  1  4  2  0  0  0  0
  1 16  1  0  0  0  0
  5  6  1  6  0  0  0
  5  7  1  0  0  0  0
  5 14  1  0  0  0  0
  7  8  1  1  0  0  0
  7  9  1  0  0  0  0
  9 10  1  6  0  0  0
  9 11  1  0  0  0  0
 11 12  1  6  0  0  0
 11 13  1  0  0  0  0
 13 14  1  0  0  0  0
 13 15  1  6  0  0  0
 15 16  1  0  0  0  0
M  CHG  1   3  -1
M  END
>  <CHROM.1>
65.75946987,-179.29487238,-60.39514132,46.69320624,11.57821783,12.61901367
-0.30344984,-0.11754230,2.05890807

>  <Name>
ligand

>  <RI>
0

>  <Rbt.Current_Directory>
/home/itssahil/PROJECTS/Mol_Feturizer/New_Systems/rnas/3B4B

>  <Rbt.Executable>
rbdock ($Id: //depot/dev/client3/rdock/2013.1/src/exe/rbdock.cxx#4 $)

>  <Rbt.Library>
libRbt.so (2013.1, Build901 2013/11/27)

>  <Rbt.Parameter_File>
/export/apps/rDock/src/rDock_2013.1_src/data/scripts/dock_solv.prm

>  <Rbt.Receptor>
prm/pocket_docking_2.prm

>  <SCORE>
-8.9562

>  <SCORE.INTER>
-7.29269

>  <SCORE.INTER.CONST>
1

>  <SCORE.INTER.POLAR>
-0.898246

>  <SCORE.INTER.ROT>
3

>  <SCORE.INTER.SOLV>
18.8471

>  <SCORE.INTER.VDW>
-13.75

>  <SCORE.INTER.norm>
-0.455793

>  <SCORE.INTRA>
-1.66351

>  <SCORE.INTRA.DIHEDRAL>
-2.09557

>  <SCORE.INTRA.DIHEDRAL.0>
2.21864

>  <SCORE.INTRA.POLAR>
0

>  <SCORE.INTRA.POLAR.0>
0

>  <SCORE.INTRA.REPUL>
0

>  <SCORE.INTRA.REPUL.0>
0

>  <SCORE.INTRA.SOLV>
-0.893885

>  <SCORE.INTRA.SOLV.lig_0>
-58.5963

>  <SCORE.INTRA.VDW>
-0.168782

>  <SCORE.INTRA.VDW.0>
-0.437849

>  <SCORE.INTRA.norm>
-0.103969

>  <SCORE.RESTR>
0

>  <SCORE.RESTR.CAVITY>
0

>  <SCORE.RESTR.norm>
0

>  <SCORE.SYSTEM>
0

>  <SCORE.SYSTEM.CONST>
0

>  <SCORE.SYSTEM.DIHEDRAL>
0

>  <SCORE.SYSTEM.SOLV>
0

>  <SCORE.SYSTEM.norm>
0

>  <SCORE.heavy>
16

>  <SCORE.norm>
-0.559763

>  <RMSD>
1.032

$$$$
ligand
 OpenBabel11021811463D
libRbt.so/2013.1/901 2013/11/27
 16 16  0  0  0  0  0  0  0  0999 V2000
   49.7502   12.0934   11.6575 P   0  0  2  0  0  0  0  0  0  0  0  0
   49.5563   12.1172   10.1868 O   0  0  0  0  0  0  0  0  0  0  0  0
   50.5123   13.4258   12.1423 O   0  5  0  0  0  0  0  0  0  0  0  0
   50.6546   10.8091   12.0536 O   0  0  0  0  0  0  0  0  0  0  0  0
   45.0732   10.8929   14.7637 C   0  0  2  0  0  0  0  0  0  0  0  0
   44.5097    9.5822   14.6082 O   0  0  0  0  0  0  0  0  0  0  0  0
   44.1431   11.9886   14.1704 C   0  0  2  0  0  0  0  0  0  0  0  0
   42.8182   11.9294   14.8263 N   0  0  0  0  0  0  0  0  0  0  0  0
   43.9960   11.7414   12.6542 C   0  0  1  0  0  0  0  0  0  0  0  0
   43.1558   12.7497   12.0655 O   0  0  0  0  0  0  0  0  0  0  0  0
   45.3951   11.8016   12.0238 C   0  0  2  0  0  0  0  0  0  0  0  0
   45.2952   11.5601   10.6132 O   0  0  0  0  0  0  0  0  0  0  0  0
   46.2758   10.7074   12.6828 C   0  0  2  0  0  0  0  0  0  0  0  0
   46.3771   10.9377   14.1176 O   0  0  0  0  0  0  0  0  0  0  0  0
   47.6900   10.7527   12.0783 C   0  0  0  0  0  0  0  0  0  0  0  0
   48.3000   12.0241   12.3661 O   0  0  0  0  0  0  0  0  0  0  0  0
  1  2  1  6  0  0  0
  1  3  1  0  0  0  0
  1  4  2  0  0  0  0
  1 16  1  0  0  0  0
  5  6  1  6  0  0  0
  5  7  1  0  0  0  0
  5 14  1  0  0  0  0
  7  8  1  1  0  0  0
  7  9  1  0  0  0  0
  9 10  1  6  0  0  0
  9 11  1  0  0  0  0
 11 12  1  6  0  0  0
 11 13  1  0  0  0  0
 13 14  1  0  0  0  0
 13 15  1  6  0  0  0
 15 16  1  0  0  0  0
M  CHG  1   3  -1
M  END
>  <CHROM.1>
62.47730589,-176.84703413,67.34407659,46.77134168,11.61270911,12.58105483
-0.34108560,-0.07846188,2.06045003

>  <Name>
ligand

>  <RI>
0

>  <Rbt.Current_Directory>
/home/itssahil/PROJECTS/Mol_Feturizer/New_Systems/rnas/3B4B

>  <Rbt.Executable>
rbdock ($Id: //depot/dev/client3/rdock/2013.1/src/exe/rbdock.cxx#4 $)

>  <Rbt.Library>
libRbt.so (2013.1, Build901 2013/11/27)

>  <Rbt.Parameter_File>
/export/apps/rDock/src/rDock_2013.1_src/data/scripts/dock_solv.prm

>  <Rbt.Receptor>
prm/pocket_docking_2.prm

>  <SCORE>
-9.8627

>  <SCORE.INTER>
-8.15101

>  <SCORE.INTER.CONST>
1

>  <SCORE.INTER.POLAR>
-1.125

>  <SCORE.INTER.ROT>
3

>  <SCORE.INTER.SOLV>
19.4039

>  <SCORE.INTER.VDW>
-13.752

>  <SCORE.INTER.norm>
-0.509438

>  <SCORE.INTRA>
-1.71169

>  <SCORE.INTRA.DIHEDRAL>
-2.05693

>  <SCORE.INTRA.DIHEDRAL.0>
2.21864

>  <SCORE.INTRA.POLAR>
0

>  <SCORE.INTRA.POLAR.0>
0

>  <SCORE.INTRA.REPUL>
0

>  <SCORE.INTRA.REPUL.0>
0

>  <SCORE.INTRA.SOLV>
-0.875133

>  <SCORE.INTRA.SOLV.lig_0>
-58.5963

>  <SCORE.INTRA.VDW>
-0.24566

>  <SCORE.INTRA.VDW.0>
-0.437849

>  <SCORE.INTRA.norm>
-0.106981

>  <SCORE.RESTR>
0

>  <SCORE.RESTR.CAVITY>
0

>  <SCORE.RESTR.norm>
0

>  <SCORE.SYSTEM>
0

>  <SCORE.SYSTEM.CONST>
0

>  <SCORE.SYSTEM.DIHEDRAL>
0

>  <SCORE.SYSTEM.SOLV>
0

>  <SCORE.SYSTEM.norm>
0

>  <SCORE.heavy>
16

>  <SCORE.norm>
-0.616419

>  <RMSD>
1.032

$$$$
ligand
 OpenBabel11021811463D
libRbt.so/2013.1/901 2013/11/27
 16 16  0  0  0  0  0  0  0  0999 V2000
   49.4562   11.7157   11.9508 P   0  0  2  0  0  0  0  0  0  0  0  0
   49.7271   13.0203   12.6031 O   0  0  0  0  0  0  0  0  0  0  0  0
   50.5794   10.6397   12.3651 O   0  5  0  0  0  0  0  0  0  0  0  0
   49.4941   11.9074   10.3426 O   0  0  0  0  0  0  0  0  0  0  0  0
   44.3905   11.1712   14.4778 C   0  0  2  0  0  0  0  0  0  0  0  0
   44.1169    9.8204   14.0776 O   0  0  0  0  0  0  0  0  0  0  0  0
   43.2517   12.1372   14.0447 C   0  0  2  0  0  0  0  0  0  0  0  0
   41.9673   11.6901   14.6274 N   0  0  0  0  0  0  0  0  0  0  0  0
   43.1643   12.1357   12.5038 C   0  0  1  0  0  0  0  0  0  0  0  0
   42.1318   13.0354   12.0637 O   0  0  0  0  0  0  0  0  0  0  0  0
   44.5208   12.5947   11.9493 C   0  0  2  0  0  0  0  0  0  0  0  0
   44.4782   12.5898   10.5154 O   0  0  0  0  0  0  0  0  0  0  0  0
   45.6109   11.6083   12.4455 C   0  0  2  0  0  0  0  0  0  0  0  0
   45.6574   11.5984   13.9014 O   0  0  0  0  0  0  0  0  0  0  0  0
   46.9854   12.0515   11.9145 C   0  0  0  0  0  0  0  0  0  0  0  0
   48.0097   11.1873   12.4393 O   0  0  0  0  0  0  0  0  0  0  0  0
  1  2  1  1  0  0  0
  1  3  1  0  0  0  0
  1  4  2  0  0  0  0
  1 16  1  0  0  0  0
  5  6  1  6  0  0  0
  5  7  1  0  0  0  0
  5 14  1  0  0  0  0
  7  8  1  1  0  0  0
  7  9  1  0  0  0  0
  9 10  1  1  0  0  0
  9 11  1  0  0  0  0
 11 12  1  6  0  0  0
 11 13  1  0  0  0  0
 13 14  1  0  0  0  0
 13 15  1  6  0  0  0
 15 16  1  0  0  0  0
M  CHG  1   3  -1
M  END
>  <CHROM.1>
176.48975076,-176.50590660,67.46600175,46.18059807,11.79277763,12.56162222
-0.16852205,-0.13763225,2.10313711

>  <Name>
ligand

>  <RI>
0

>  <Rbt.Current_Directory>
/home/itssahil/PROJECTS/Mol_Feturizer/New_Systems/rnas/3B4B

>  <Rbt.Executable>
rbdock ($Id: //depot/dev/client3/rdock/2013.1/src/exe/rbdock.cxx#4 $)

>  <Rbt.Library>
libRbt.so (2013.1, Build901 2013/11/27)

>  <Rbt.Parameter_File>
/export/apps/rDock/src/rDock_2013.1_src/data/scripts/dock_solv.prm

>  <Rbt.Receptor>
prm/pocket_docking_2.prm

>  <SCORE>
-10.1553

>  <SCORE.INTER>
-8.46922

>  <SCORE.INTER.CONST>
1

>  <SCORE.INTER.POLAR>
-1.125

>  <SCORE.INTER.ROT>
3

>  <SCORE.INTER.SOLV>
17.4257

>  <SCORE.INTER.VDW>
-13.3047

>  <SCORE.INTER.norm>
-0.529326

>  <SCORE.INTRA>
-1.6861

>  <SCORE.INTRA.DIHEDRAL>
-2.02145

>  <SCORE.INTRA.DIHEDRAL.0>
2.21864

>  <SCORE.INTRA.POLAR>
0

>  <SCORE.INTRA.POLAR.0>
0

>  <SCORE.INTRA.REPUL>
0

>  <SCORE.INTRA.REPUL.0>
0

>  <SCORE.INTRA.SOLV>
-1.08931

>  <SCORE.INTRA.SOLV.lig_0>
-58.5963

>  <SCORE.INTRA.VDW>
-0.130722

>  <SCORE.INTRA.VDW.0>
-0.437849

>  <SCORE.INTRA.norm>
-0.105382

>  <SCORE.RESTR>
0

>  <SCORE.RESTR.CAVITY>
0

>  <SCORE.RESTR.norm>
0

>  <SCORE.SYSTEM>
0

>  <SCORE.SYSTEM.CONST>
0

>  <SCORE.SYSTEM.DIHEDRAL>
0

>  <SCORE.SYSTEM.SOLV>
0

>  <SCORE.SYSTEM.norm>
0

>  <SCORE.heavy>
16

>  <SCORE.norm>
-0.634708

>  <RMSD>
1.034

$$$$
ligand
 OpenBabel11021811463D
libRbt.so/2013.1/901 2013/11/27
 16 16  0  0  0  0  0  0  0  0999 V2000
   49.7304   12.1174   11.5742 P   0  0  2  0  0  0  0  0  0  0  0  0
   49.4983   12.1207   10.1088 O   0  0  0  0  0  0  0  0  0  0  0  0
   50.4932   13.4622   12.0222 O   0  5  0  0  0  0  0  0  0  0  0  0
   50.6556   10.8458   11.9630 O   0  0  0  0  0  0  0  0  0  0  0  0
   45.0618   10.9258   14.7343 C   0  0  2  0  0  0  0  0  0  0  0  0
   44.4823    9.6234   14.5685 O   0  0  0  0  0  0  0  0  0  0  0  0
   44.1495   12.0367   14.1416 C   0  0  2  0  0  0  0  0  0  0  0  0
   42.8201   11.9912   14.7895 N   0  0  0  0  0  0  0  0  0  0  0  0
   44.0082   11.7995   12.6232 C   0  0  1  0  0  0  0  0  0  0  0  0
   43.1845   12.8218   12.0351 O   0  0  0  0  0  0  0  0  0  0  0  0
   45.4115   11.8449   12.0012 C   0  0  2  0  0  0  0  0  0  0  0  0
   45.3169   11.6122   10.5889 O   0  0  0  0  0  0  0  0  0  0  0  0
   46.2742   10.7359   12.6595 C   0  0  2  0  0  0  0  0  0  0  0  0
   46.3700   10.9572   14.0961 O   0  0  0  0  0  0  0  0  0  0  0  0
   47.6923   10.7660   12.0635 C   0  0  0  0  0  0  0  0  0  0  0  0
   48.2996   12.0453   12.3210 O   0  0  0  0  0  0  0  0  0  0  0  0
  1  2  1  6  0  0  0
  1  3  1  0  0  0  0
  1  4  2  0  0  0  0
  1 16  1  0  0  0  0
  5  6  1  6  0  0  0
  5  7  1  0  0  0  0
  5 14  1  0  0  0  0
  7  8  1  1  0  0  0
  7  9  1  0  0  0  0
  9 10  1  6  0  0  0
  9 11  1  0  0  0  0
 11 12  1  6  0  0  0
 11 13  1  0  0  0  0
 13 14  1  0  0  0  0
 13 15  1  6  0  0  0
 15 16  1  0  0  0  0
M  CHG  1   3  -1
M  END
>  <CHROM.1>
60.46501779,-174.73639450,67.25422510,46.76642526,11.64866764,12.53241048
-0.34857278,-0.09351893,2.07721565

>  <Name>
ligand

>  <RI>
0

>  <Rbt.Current_Directory>
/home/itssahil/PROJECTS/Mol_Feturizer/New_Systems/rnas/3B4B

>  <Rbt.Executable>
rbdock ($Id: //depot/dev/client3/rdock/2013.1/src/exe/rbdock.cxx#4 $)

>  <Rbt.Library>
libRbt.so (2013.1, Build901 2013/11/27)

>  <Rbt.Parameter_File>
/export/apps/rDock/src/rDock_2013.1_src/data/scripts/dock_solv.prm

>  <Rbt.Receptor>
prm/blind_docking_80.prm

>  <SCORE>
-9.9558

>  <SCORE.INTER>
-8.2762

>  <SCORE.INTER.CONST>
1

>  <SCORE.INTER.POLAR>
-1.125

>  <SCORE.INTER.ROT>
3

>  <SCORE.INTER.SOLV>
18.8502

>  <SCORE.INTER.VDW>
-13.6509

>  <SCORE.INTER.norm>
-0.517262

>  <SCORE.INTRA>
-1.6796

>  <SCORE.INTRA.DIHEDRAL>
-1.99383

>  <SCORE.INTRA.DIHEDRAL.0>
2.21864

>  <SCORE.INTRA.POLAR>
0

>  <SCORE.INTRA.POLAR.0>
0

>  <SCORE.INTRA.REPUL>
0

>  <SCORE.INTRA.REPUL.0>
0

>  <SCORE.INTRA.SOLV>
-0.878634

>  <SCORE.INTRA.SOLV.lig_0>
-58.5963

>  <SCORE.INTRA.VDW>
-0.243366

>  <SCORE.INTRA.VDW.0>
-0.437849

>  <SCORE.INTRA.norm>
-0.104975

>  <SCORE.RESTR>
0

>  <SCORE.RESTR.CAVITY>
0

>  <SCORE.RESTR.norm>
0

>  <SCORE.SYSTEM>
0

>  <SCORE.SYSTEM.CONST>
0

>  <SCORE.SYSTEM.DIHEDRAL>
0

>  <SCORE.SYSTEM.SOLV>
0

>  <SCORE.SYSTEM.norm>
0

>  <SCORE.heavy>
16

>  <SCORE.norm>
-0.622237

>  <RMSD>
1.036

$$$$
ligand
 OpenBabel11021811463D
libRbt.so/2013.1/901 2013/11/27
 16 16  0  0  0  0  0  0  0  0999 V2000
   49.9824   11.9086   11.9884 P   0  0  2  0  0  0  0  0  0  0  0  0
   50.6460   10.6398   12.3769 O   0  0  0  0  0  0  0  0  0  0  0  0
   49.9087   12.0327   10.3853 O   0  5  0  0  0  0  0  0  0  0  0  0
   50.8418   13.1557   12.5632 O   0  0  0  0  0  0  0  0  0  0  0  0
   45.0494   10.7699   14.6838 C   0  0  2  0  0  0  0  0  0  0  0  0
   44.3737    9.5585   14.3156 O   0  0  0  0  0  0  0  0  0  0  0  0
   44.2582   12.0274   14.2253 C   0  0  2  0  0  0  0  0  0  0  0  0
   42.9019   12.0083   14.8161 N   0  0  0  0  0  0  0  0  0  0  0  0
   44.1661   12.0165   12.6848 C   0  0  1  0  0  0  0  0  0  0  0  0
   43.4557   13.1782   12.2212 O   0  0  0  0  0  0  0  0  0  0  0  0
   45.5949   12.0255   12.1220 C   0  0  2  0  0  0  0  0  0  0  0  0
   45.5449   12.0002   10.6885 O   0  0  0  0  0  0  0  0  0  0  0  0
   46.3339   10.7649   12.6439 C   0  0  2  0  0  0  0  0  0  0  0  0
   46.3831   10.7755   14.0997 O   0  0  0  0  0  0  0  0  0  0  0  0
   47.7750   10.7539   12.1050 C   0  0  0  0  0  0  0  0  0  0  0  0
   48.4829   11.9094   12.5900 O   0  0  0  0  0  0  0  0  0  0  0  0
  1  2  1  1  0  0  0
  1  3  1  0  0  0  0
  1  4  2  0  0  0  0
  1 16  1  0  0  0  0
  5  6  1  6  0  0  0
  5  7  1  0  0  0  0
  5 14  1  0  0  0  0
  7  8  1  1  0  0  0
  7  9  1  0  0  0  0
  9 10  1  6  0  0  0
  9 11  1  0  0  0  0
 11 12  1  6  0  0  0
 11 13  1  0  0  0  0
 13 14  1  0  0  0  0
 13 15  1  6  0  0  0
 15 16  1  0  0  0  0
M  CHG  1   3  -1
M  END
>  <CHROM.1>
61.95468363,-178.55964187,-57.29118221,46.91703019,11.62164158,12.69496871
-0.25680761,-0.13066168,2.19663787

>  <Name>
ligand

>  <RI>
0

>  <Rbt.Current_Directory>
/home/itssahil/PROJECTS/Mol_Feturizer/New_Systems/rnas/3B4B

>  <Rbt.Executable>
rbdock ($Id: //depot/dev/client3/rdock/2013.1/src/exe/rbdock.cxx#4 $)

>  <Rbt.Library>
libRbt.so (2013.1, Build901 2013/11/27)

>  <Rbt.Parameter_File>
/export/apps/rDock/src/rDock_2013.1_src/data/scripts/dock_solv.prm

>  <Rbt.Receptor>
prm/pocket_docking_2.prm

>  <SCORE>
-9.20041

>  <SCORE.INTER>
-7.53279

>  <SCORE.INTER.CONST>
1

>  <SCORE.INTER.POLAR>
-0.899686

>  <SCORE.INTER.ROT>
3

>  <SCORE.INTER.SOLV>
18.6812

>  <SCORE.INTER.VDW>
-13.85

>  <SCORE.INTER.norm>
-0.4708

>  <SCORE.INTRA>
-1.66761

>  <SCORE.INTRA.DIHEDRAL>
-2.18095

>  <SCORE.INTRA.DIHEDRAL.0>
2.21864

>  <SCORE.INTRA.POLAR>
0

>  <SCORE.INTRA.POLAR.0>
0

>  <SCORE.INTRA.REPUL>
0

>  <SCORE.INTRA.REPUL.0>
0

>  <SCORE.INTRA.SOLV>
-0.887918

>  <SCORE.INTRA.SOLV.lig_0>
-58.5963

>  <SCORE.INTRA.VDW>
-0.133177

>  <SCORE.INTRA.VDW.0>
-0.437849

>  <SCORE.INTRA.norm>
-0.104226

>  <SCORE.RESTR>
0

>  <SCORE.RESTR.CAVITY>
0

>  <SCORE.RESTR.norm>
0

>  <SCORE.SYSTEM>
0

>  <SCORE.SYSTEM.CONST>
0

>  <SCORE.SYSTEM.DIHEDRAL>
0

>  <SCORE.SYSTEM.SOLV>
0

>  <SCORE.SYSTEM.norm>
0

>  <SCORE.heavy>
16

>  <SCORE.norm>
-0.575025

>  <RMSD>
1.036

$$$$
ligand
 OpenBabel11021811463D
libRbt.so/2013.1/901 2013/11/27
 16 16  0  0  0  0  0  0  0  0999 V2000
   50.0569   11.8613   12.1865 P   0  0  2  0  0  0  0  0  0  0  0  0
   50.6822   10.5550   12.5085 O   0  0  0  0  0  0  0  0  0  0  0  0
   50.0643   12.1074   10.5957 O   0  5  0  0  0  0  0  0  0  0  0  0
   50.9048   13.0457   12.8954 O   0  0  0  0  0  0  0  0  0  0  0  0
   44.9993   10.5599   14.5663 C   0  0  2  0  0  0  0  0  0  0  0  0
   44.3193    9.4049   14.0532 O   0  0  0  0  0  0  0  0  0  0  0  0
   44.2497   11.8727   14.2027 C   0  0  2  0  0  0  0  0  0  0  0  0
   42.8694   11.8244   14.7333 N   0  0  0  0  0  0  0  0  0  0  0  0
   44.2228   12.0147   12.6661 C   0  0  1  0  0  0  0  0  0  0  0  0
   43.5525   13.2310   12.2912 O   0  0  0  0  0  0  0  0  0  0  0  0
   45.6741   12.0487   12.1653 C   0  0  2  0  0  0  0  0  0  0  0  0
   45.6844   12.1650   10.7355 O   0  0  0  0  0  0  0  0  0  0  0  0
   46.3687   10.7277   12.5896 C   0  0  2  0  0  0  0  0  0  0  0  0
   46.3564   10.5946   14.0402 O   0  0  0  0  0  0  0  0  0  0  0  0
   47.8311   10.7392   12.1111 C   0  0  0  0  0  0  0  0  0  0  0  0
   48.5298   11.8440   12.7135 O   0  0  0  0  0  0  0  0  0  0  0  0
  1  2  1  1  0  0  0
  1  3  1  0  0  0  0
  1  4  2  0  0  0  0
  1 16  1  0  0  0  0
  5  6  1  6  0  0  0
  5  7  1  0  0  0  0
  5 14  1  0  0  0  0
  7  8  1  6  0  0  0
  7  9  1  0  0  0  0
  9 10  1  1  0  0  0
  9 11  1  0  0  0  0
 11 12  1  6  0  0  0
 11 13  1  0  0  0  0
 13 14  1  0  0  0  0
 13 15  1  1  0  0  0
 15 16  1  0  0  0  0
M  CHG  1   3  -1
M  END
>  <CHROM.1>
60.70113366,-179.09234923,-57.13217752,46.96228389,11.56595040,12.74390692
-0.21493028,-0.12037058,2.30251503

>  <Name>
ligand

>  <RI>
0

>  <Rbt.Current_Directory>
/home/itssahil/PROJECTS/Mol_Feturizer/New_Systems/rnas/3B4B

>  <Rbt.Executable>
rbdock ($Id: //depot/dev/client3/rdock/2013.1/src/exe/rbdock.cxx#4 $)

>  <Rbt.Library>
libRbt.so (2013.1, Build901 2013/11/27)

>  <Rbt.Parameter_File>
/export/apps/rDock/src/rDock_2013.1_src/data/scripts/dock_solv.prm

>  <Rbt.Receptor>
prm/pocket_docking_3.prm

>  <SCORE>
-9.1994

>  <SCORE.INTER>
-7.52689

>  <SCORE.INTER.CONST>
1

>  <SCORE.INTER.POLAR>
-0.898195

>  <SCORE.INTER.ROT>
3

>  <SCORE.INTER.SOLV>
18.831

>  <SCORE.INTER.VDW>
-13.9009

>  <SCORE.INTER.norm>
-0.470431

>  <SCORE.INTRA>
-1.67251

>  <SCORE.INTRA.DIHEDRAL>
-2.19783

>  <SCORE.INTRA.DIHEDRAL.0>
2.21864

>  <SCORE.INTRA.POLAR>
0

>  <SCORE.INTRA.POLAR.0>
0

>  <SCORE.INTRA.REPUL>
0

>  <SCORE.INTRA.REPUL.0>
0

>  <SCORE.INTRA.SOLV>
-0.900449

>  <SCORE.INTRA.SOLV.lig_0>
-58.5963

>  <SCORE.INTRA.VDW>
-0.123369

>  <SCORE.INTRA.VDW.0>
-0.437849

>  <SCORE.INTRA.norm>
-0.104532

>  <SCORE.RESTR>
0

>  <SCORE.RESTR.CAVITY>
0

>  <SCORE.RESTR.norm>
0

>  <SCORE.SYSTEM>
0

>  <SCORE.SYSTEM.CONST>
0

>  <SCORE.SYSTEM.DIHEDRAL>
0

>  <SCORE.SYSTEM.SOLV>
0

>  <SCORE.SYSTEM.norm>
0

>  <SCORE.heavy>
16

>  <SCORE.norm>
-0.574963

>  <RMSD>
1.038

$$$$
ligand
 OpenBabel11021811463D
libRbt.so/2013.1/901 2013/11/27
 16 16  0  0  0  0  0  0  0  0999 V2000
   49.5845   12.0330   11.7991 P   0  0  2  0  0  0  0  0  0  0  0  0
   49.4967   12.0946   10.3194 O   0  0  0  0  0  0  0  0  0  0  0  0
   50.3998   13.3008   12.3639 O   0  5  0  0  0  0  0  0  0  0  0  0
   50.3686   10.6824   12.2294 O   0  0  0  0  0  0  0  0  0  0  0  0
   44.7152   11.0597   14.6572 C   0  0  2  0  0  0  0  0  0  0  0  0
   44.0906    9.7830   14.4587 O   0  0  0  0  0  0  0  0  0  0  0  0
   43.8667   12.2117   14.0486 C   0  0  2  0  0  0  0  0  0  0  0  0
   42.5166   12.2126   14.6539 N   0  0  0  0  0  0  0  0  0  0  0  0
   43.7645   11.9954   12.5239 C   0  0  1  0  0  0  0  0  0  0  0  0
   43.0008   13.0553   11.9217 O   0  0  0  0  0  0  0  0  0  0  0  0
   45.1876   11.9913   11.9469 C   0  0  2  0  0  0  0  0  0  0  0  0
   45.1288   11.7766   10.5297 O   0  0  0  0  0  0  0  0  0  0  0  0
   45.9846   10.8424   12.6194 C   0  0  2  0  0  0  0  0  0  0  0  0
   46.0433   11.0455   14.0607 O   0  0  0  0  0  0  0  0  0  0  0  0
   47.4211   10.8222   12.0686 C   0  0  0  0  0  0  0  0  0  0  0  0
   48.0866   12.0534   12.4042 O   0  0  0  0  0  0  0  0  0  0  0  0
  1  2  1  6  0  0  0
  1  3  1  0  0  0  0
  1  4  2  0  0  0  0
  1 16  1  0  0  0  0
  5  6  1  6  0  0  0
  5  7  1  0  0  0  0
  5 14  1  0  0  0  0
  7  8  1  1  0  0  0
  7  9  1  0  0  0  0
  9 10  1  6  0  0  0
  9 11  1  0  0  0  0
 11 12  1  6  0  0  0
 11 13  1  0  0  0  0
 13 14  1  0  0  0  0
 13 15  1  6  0  0  0
 15 16  1  0  0  0  0
M  CHG  1   3  -1
M  END
>  <CHROM.1>
62.66791570,-179.00301574,68.38302251,46.53799906,11.71209092,12.57109922
-0.27156693,-0.10365889,2.07532320

>  <Name>
ligand

>  <RI>
0

>  <Rbt.Current_Directory>
/home/itssahil/PROJECTS/Mol_Feturizer/New_Systems/rnas/3B4B

>  <Rbt.Executable>
rbdock ($Id: //depot/dev/client3/rdock/2013.1/src/exe/rbdock.cxx#4 $)

>  <Rbt.Library>
libRbt.so (2013.1, Build901 2013/11/27)

>  <Rbt.Parameter_File>
/export/apps/rDock/src/rDock_2013.1_src/data/scripts/dock_solv.prm

>  <Rbt.Receptor>
prm/pocket_docking_7.prm

>  <SCORE>
-9.54997

>  <SCORE.INTER>
-7.84628

>  <SCORE.INTER.CONST>
1

>  <SCORE.INTER.POLAR>
-1.125

>  <SCORE.INTER.ROT>
3

>  <SCORE.INTER.SOLV>
19.1117

>  <SCORE.INTER.VDW>
-13.4514

>  <SCORE.INTER.norm>
-0.490392

>  <SCORE.INTRA>
-1.70369

>  <SCORE.INTRA.DIHEDRAL>
-2.07101

>  <SCORE.INTRA.DIHEDRAL.0>
2.21864

>  <SCORE.INTRA.POLAR>
0

>  <SCORE.INTRA.POLAR.0>
0

>  <SCORE.INTRA.REPUL>
0

>  <SCORE.INTRA.REPUL.0>
0

>  <SCORE.INTRA.SOLV>
-0.859816

>  <SCORE.INTRA.SOLV.lig_0>
-58.5963

>  <SCORE.INTRA.VDW>
-0.238278

>  <SCORE.INTRA.VDW.0>
-0.437849

>  <SCORE.INTRA.norm>
-0.106481

>  <SCORE.RESTR>
0

>  <SCORE.RESTR.CAVITY>
0

>  <SCORE.RESTR.norm>
0

>  <SCORE.SYSTEM>
0

>  <SCORE.SYSTEM.CONST>
0

>  <SCORE.SYSTEM.DIHEDRAL>
0

>  <SCORE.SYSTEM.SOLV>
0

>  <SCORE.SYSTEM.norm>
0

>  <SCORE.heavy>
16

>  <SCORE.norm>
-0.596873

>  <RMSD>
1.040

$$$$
ligand
 OpenBabel11021811463D
libRbt.so/2013.1/901 2013/11/27
 16 16  0  0  0  0  0  0  0  0999 V2000
   49.7624   11.9206   11.9637 P   0  0  2  0  0  0  0  0  0  0  0  0
   50.3624   10.6173   12.3415 O   0  0  0  0  0  0  0  0  0  0  0  0
   49.7352   12.0800   10.3621 O   0  5  0  0  0  0  0  0  0  0  0  0
   50.6580   13.1184   12.5860 O   0  0  0  0  0  0  0  0  0  0  0  0
   44.8315   10.8846   14.6631 C   0  0  2  0  0  0  0  0  0  0  0  0
   44.1450    9.6726   14.3176 O   0  0  0  0  0  0  0  0  0  0  0  0
   44.0409   12.1409   14.2003 C   0  0  2  0  0  0  0  0  0  0  0  0
   42.6922   12.1356   14.8086 N   0  0  0  0  0  0  0  0  0  0  0  0
   43.9290   12.1128   12.6613 C   0  0  1  0  0  0  0  0  0  0  0  0
   43.2186   13.2729   12.1935 O   0  0  0  0  0  0  0  0  0  0  0  0
   45.3505   12.1079   12.0803 C   0  0  2  0  0  0  0  0  0  0  0  0
   45.2820   12.0665   10.6480 O   0  0  0  0  0  0  0  0  0  0  0  0
   46.0897   10.8496   12.6072 C   0  0  2  0  0  0  0  0  0  0  0  0
   46.1576   10.8766   14.0621 O   0  0  0  0  0  0  0  0  0  0  0  0
   47.5238   10.8249   12.0502 C   0  0  0  0  0  0  0  0  0  0  0  0
   48.2493   11.9726   12.5277 O   0  0  0  0  0  0  0  0  0  0  0  0
  1  2  1  1  0  0  0
  1  3  1  0  0  0  0
  1  4  2  0  0  0  0
  1 16  1  0  0  0  0
  5  6  1  6  0  0  0
  5  7  1  0  0  0  0
  5 14  1  0  0  0  0
  7  8  1  1  0  0  0
  7  9  1  0  0  0  0
  9 10  1  6  0  0  0
  9 11  1  0  0  0  0
 11 12  1  6  0  0  0
 11 13  1  0  0  0  0
 13 14  1  0  0  0  0
 13 15  1  6  0  0  0
 15 16  1  0  0  0  0
M  CHG  1   3  -1
M  END
>  <CHROM.1>
62.73950205,178.77995487,-54.67857395,46.68837944,11.68661567,12.66803409
-0.24840204,-0.13832795,2.17420251

>  <Name>
ligand

>  <RI>
0

>  <Rbt.Current_Directory>
/home/itssahil/PROJECTS/Mol_Feturizer/New_Systems/rnas/3B4B

>  <Rbt.Executable>
rbdock ($Id: //depot/dev/client3/rdock/2013.1/src/exe/rbdock.cxx#4 $)

>  <Rbt.Library>
libRbt.so (2013.1, Build901 2013/11/27)

>  <Rbt.Parameter_File>
/export/apps/rDock/src/rDock_2013.1_src/data/scripts/dock_solv.prm

>  <Rbt.Receptor>
prm/pocket_docking_5.prm

>  <SCORE>
-9.11021

>  <SCORE.INTER>
-7.4432

>  <SCORE.INTER.CONST>
1

>  <SCORE.INTER.POLAR>
-0.899769

>  <SCORE.INTER.ROT>
3

>  <SCORE.INTER.SOLV>
18.4447

>  <SCORE.INTER.VDW>
-13.7111

>  <SCORE.INTER.norm>
-0.4652

>  <SCORE.INTRA>
-1.66701

>  <SCORE.INTRA.DIHEDRAL>
-2.13546

>  <SCORE.INTRA.DIHEDRAL.0>
2.21864

>  <SCORE.INTRA.POLAR>
0

>  <SCORE.INTRA.POLAR.0>
0

>  <SCORE.INTRA.REPUL>
0

>  <SCORE.INTRA.REPUL.0>
0

>  <SCORE.INTRA.SOLV>
-0.97044

>  <SCORE.INTRA.SOLV.lig_0>
-58.5963

>  <SCORE.INTRA.VDW>
-0.114061

>  <SCORE.INTRA.VDW.0>
-0.437849

>  <SCORE.INTRA.norm>
-0.104188

>  <SCORE.RESTR>
0

>  <SCORE.RESTR.CAVITY>
0

>  <SCORE.RESTR.norm>
0

>  <SCORE.SYSTEM>
0

>  <SCORE.SYSTEM.CONST>
0

>  <SCORE.SYSTEM.DIHEDRAL>
0

>  <SCORE.SYSTEM.SOLV>
0

>  <SCORE.SYSTEM.norm>
0

>  <SCORE.heavy>
16

>  <SCORE.norm>
-0.569388

>  <RMSD>
1.041

$$$$
ligand
 OpenBabel11021811463D
libRbt.so/2013.1/901 2013/11/27
 16 16  0  0  0  0  0  0  0  0999 V2000
   50.0025   11.8617   12.1724 P   0  0  2  0  0  0  0  0  0  0  0  0
   50.5913   10.5430   12.5125 O   0  0  0  0  0  0  0  0  0  0  0  0
   50.0170   12.0858   10.5784 O   0  5  0  0  0  0  0  0  0  0  0  0
   50.8829   13.0316   12.8656 O   0  0  0  0  0  0  0  0  0  0  0  0
   44.9602   10.7711   14.6801 C   0  0  2  0  0  0  0  0  0  0  0  0
   44.2803    9.5737   14.2756 O   0  0  0  0  0  0  0  0  0  0  0  0
   44.2046   12.0449   14.2068 C   0  0  2  0  0  0  0  0  0  0  0  0
   42.8279   12.0405   14.7488 N   0  0  0  0  0  0  0  0  0  0  0  0
   44.1674   12.0505   12.6640 C   0  0  1  0  0  0  0  0  0  0  0  0
   43.4913   13.2274   12.1875 O   0  0  0  0  0  0  0  0  0  0  0  0
   45.6154   12.0434   12.1525 C   0  0  2  0  0  0  0  0  0  0  0  0
   45.6163   12.0330   10.7180 O   0  0  0  0  0  0  0  0  0  0  0  0
   46.3166   10.7667   12.6873 C   0  0  2  0  0  0  0  0  0  0  0  0
   46.3139   10.7623   14.1440 O   0  0  0  0  0  0  0  0  0  0  0  0
   47.7758   10.7393   12.2000 C   0  0  0  0  0  0  0  0  0  0  0  0
   48.4755   11.8939   12.6988 O   0  0  0  0  0  0  0  0  0  0  0  0
  1  2  1  1  0  0  0
  1  3  1  0  0  0  0
  1  4  2  0  0  0  0
  1 16  1  0  0  0  0
  5  6  1  6  0  0  0
  5  7  1  0  0  0  0
  5 14  1  0  0  0  0
  7  8  1  1  0  0  0
  7  9  1  0  0  0  0
  9 10  1  1  0  0  0
  9 11  1  0  0  0  0
 11 12  1  6  0  0  0
 11 13  1  0  0  0  0
 13 14  1  0  0  0  0
 13 15  1  1  0  0  0
 15 16  1  0  0  0  0
M  CHG  1   3  -1
M  END
>  <CHROM.1>
60.75347871,-179.56139894,-52.40428433,46.91029774,11.61429207,12.76767994
-0.21900868,-0.12142584,2.21101521

>  <Name>
ligand

>  <RI>
0

>  <Rbt.Current_Directory>
/home/itssahil/PROJECTS/Mol_Feturizer/New_Systems/rnas/3B4B

>  <Rbt.Executable>
rbdock ($Id: //depot/dev/client3/rdock/2013.1/src/exe/rbdock.cxx#4 $)

>  <Rbt.Library>
libRbt.so (2013.1, Build901 2013/11/27)

>  <Rbt.Parameter_File>
/export/apps/rDock/src/rDock_2013.1_src/data/scripts/dock_solv.prm

>  <Rbt.Receptor>
prm/pocket_docking_3.prm

>  <SCORE>
-9.17436

>  <SCORE.INTER>
-7.5838

>  <SCORE.INTER.CONST>
1

>  <SCORE.INTER.POLAR>
-0.89938

>  <SCORE.INTER.ROT>
3

>  <SCORE.INTER.SOLV>
18.9074

>  <SCORE.INTER.VDW>
-13.9604

>  <SCORE.INTER.norm>
-0.473987

>  <SCORE.INTRA>
-1.59056

>  <SCORE.INTRA.DIHEDRAL>
-2.1192

>  <SCORE.INTRA.DIHEDRAL.0>
2.21864

>  <SCORE.INTRA.POLAR>
0

>  <SCORE.INTRA.POLAR.0>
0

>  <SCORE.INTRA.REPUL>
0

>  <SCORE.INTRA.REPUL.0>
0

>  <SCORE.INTRA.SOLV>
-0.96414

>  <SCORE.INTRA.SOLV.lig_0>
-58.5963

>  <SCORE.INTRA.VDW>
-0.0488885

>  <SCORE.INTRA.VDW.0>
-0.437849

>  <SCORE.INTRA.norm>
-0.09941

>  <SCORE.RESTR>
0

>  <SCORE.RESTR.CAVITY>
0

>  <SCORE.RESTR.norm>
0

>  <SCORE.SYSTEM>
0

>  <SCORE.SYSTEM.CONST>
0

>  <SCORE.SYSTEM.DIHEDRAL>
0

>  <SCORE.SYSTEM.SOLV>
0

>  <SCORE.SYSTEM.norm>
0

>  <SCORE.heavy>
16

>  <SCORE.norm>
-0.573397

>  <RMSD>
1.047

$$$$
ligand
 OpenBabel11021811463D
libRbt.so/2013.1/901 2013/11/27
 16 16  0  0  0  0  0  0  0  0999 V2000
   49.6797   12.1600   11.4991 P   0  0  2  0  0  0  0  0  0  0  0  0
   49.3153   12.1879   10.0612 O   0  0  0  0  0  0  0  0  0  0  0  0
   50.4416   13.5175   11.9089 O   0  5  0  0  0  0  0  0  0  0  0  0
   50.6723   10.9092   11.7718 O   0  0  0  0  0  0  0  0  0  0  0  0
   45.0705   10.8978   14.7771 C   0  0  2  0  0  0  0  0  0  0  0  0
   44.4947    9.5943   14.6066 O   0  0  0  0  0  0  0  0  0  0  0  0
   44.1654   12.0062   14.1691 C   0  0  2  0  0  0  0  0  0  0  0  0
   42.8272   11.9610   14.7986 N   0  0  0  0  0  0  0  0  0  0  0  0
   44.0453   11.7651   12.6494 C   0  0  1  0  0  0  0  0  0  0  0  0
   43.2288   12.7850   12.0474 O   0  0  0  0  0  0  0  0  0  0  0  0
   45.4571   11.8104   12.0468 C   0  0  2  0  0  0  0  0  0  0  0  0
   45.3823   11.5740   10.6339 O   0  0  0  0  0  0  0  0  0  0  0  0
   46.3117   10.7039   12.7197 C   0  0  2  0  0  0  0  0  0  0  0  0
   46.3874   10.9289   14.1570 O   0  0  0  0  0  0  0  0  0  0  0  0
   47.7379   10.7340   12.1433 C   0  0  0  0  0  0  0  0  0  0  0  0
   48.3255   12.0282   12.3701 O   0  0  0  0  0  0  0  0  0  0  0  0
  1  2  1  6  0  0  0
  1  3  1  0  0  0  0
  1  4  2  0  0  0  0
  1 16  1  0  0  0  0
  5  6  1  6  0  0  0
  5  7  1  0  0  0  0
  5 14  1  0  0  0  0
  7  8  1  1  0  0  0
  7  9  1  0  0  0  0
  9 10  1  6  0  0  0
  9 11  1  0  0  0  0
 11 12  1  6  0  0  0
 11 13  1  0  0  0  0
 13 14  1  0  0  0  0
 13 15  1  6  0  0  0
 15 16  1  0  0  0  0
M  CHG  1   3  -1
M  END
>  <CHROM.1>
58.72548233,-168.01558117,67.57607646,46.76728172,11.64452000,12.52928382
0.37673787,0.10013204,-1.04560154

>  <Name>
ligand

>  <RI>
0

>  <Rbt.Current_Directory>
/home/itssahil/PROJECTS/Mol_Feturizer/New_Systems/rnas/3B4B

>  <Rbt.Executable>
rbdock ($Id: //depot/dev/client3/rdock/2013.1/src/exe/rbdock.cxx#4 $)

>  <Rbt.Library>
libRbt.so (2013.1, Build901 2013/11/27)

>  <Rbt.Parameter_File>
/export/apps/rDock/src/rDock_2013.1_src/data/scripts/dock_solv.prm

>  <Rbt.Receptor>
prm/pocket_docking_3.prm

>  <SCORE>
-9.7405

>  <SCORE.INTER>
-8.35166

>  <SCORE.INTER.CONST>
1

>  <SCORE.INTER.POLAR>
-1.125

>  <SCORE.INTER.ROT>
3

>  <SCORE.INTER.SOLV>
18.7675

>  <SCORE.INTER.VDW>
-13.6736

>  <SCORE.INTER.norm>
-0.521979

>  <SCORE.INTRA>
-1.38884

>  <SCORE.INTRA.DIHEDRAL>
-1.43129

>  <SCORE.INTRA.DIHEDRAL.0>
2.21864

>  <SCORE.INTRA.POLAR>
0

>  <SCORE.INTRA.POLAR.0>
0

>  <SCORE.INTRA.REPUL>
0

>  <SCORE.INTRA.REPUL.0>
0

>  <SCORE.INTRA.SOLV>
-0.820524

>  <SCORE.INTRA.SOLV.lig_0>
-58.5963

>  <SCORE.INTRA.VDW>
-0.262931

>  <SCORE.INTRA.VDW.0>
-0.437849

>  <SCORE.INTRA.norm>
-0.0868025

>  <SCORE.RESTR>
0

>  <SCORE.RESTR.CAVITY>
0

>  <SCORE.RESTR.norm>
0

>  <SCORE.SYSTEM>
0

>  <SCORE.SYSTEM.CONST>
0

>  <SCORE.SYSTEM.DIHEDRAL>
0

>  <SCORE.SYSTEM.SOLV>
0

>  <SCORE.SYSTEM.norm>
0

>  <SCORE.heavy>
16

>  <SCORE.norm>
-0.608781

>  <RMSD>
1.048

$$$$
ligand
 OpenBabel11021811463D
libRbt.so/2013.1/901 2013/11/27
 16 16  0  0  0  0  0  0  0  0999 V2000
   49.6741   12.1080   11.4205 P   0  0  2  0  0  0  0  0  0  0  0  0
   49.3421   12.0319    9.9766 O   0  0  0  0  0  0  0  0  0  0  0  0
   50.3913   13.5095   11.7560 O   0  5  0  0  0  0  0  0  0  0  0  0
   50.6920   10.9051   11.7961 O   0  0  0  0  0  0  0  0  0  0  0  0
   45.1072   10.8897   14.7242 C   0  0  2  0  0  0  0  0  0  0  0  0
   44.5195    9.5899   14.5662 O   0  0  0  0  0  0  0  0  0  0  0  0
   44.1849   12.0063   14.1585 C   0  0  2  0  0  0  0  0  0  0  0  0
   42.8711   11.9622   14.8377 N   0  0  0  0  0  0  0  0  0  0  0  0
   44.0065   11.7767   12.6428 C   0  0  1  0  0  0  0  0  0  0  0  0
   43.1726   12.8044   12.0792 O   0  0  0  0  0  0  0  0  0  0  0  0
   45.3948   11.8204   11.9878 C   0  0  2  0  0  0  0  0  0  0  0  0
   45.2657   11.5946   10.5770 O   0  0  0  0  0  0  0  0  0  0  0  0
   46.2691   10.7054   12.6201 C   0  0  2  0  0  0  0  0  0  0  0  0
   46.3999   10.9197   14.0551 O   0  0  0  0  0  0  0  0  0  0  0  0
   47.6728   10.7337   11.9906 C   0  0  0  0  0  0  0  0  0  0  0  0
   48.3041   11.9967   12.2695 O   0  0  0  0  0  0  0  0  0  0  0  0
  1  2  1  6  0  0  0
  1  3  1  0  0  0  0
  1  4  2  0  0  0  0
  1 16  1  0  0  0  0
  5  6  1  6  0  0  0
  5  7  1  0  0  0  0
  5 14  1  0  0  0  0
  7  8  1  1  0  0  0
  7  9  1  0  0  0  0
  9 10  1  6  0  0  0
  9 11  1  0  0  0  0
 11 12  1  6  0  0  0
 11 13  1  0  0  0  0
 13 14  1  0  0  0  0
 13 15  1  6  0  0  0
 15 16  1  0  0  0  0
M  CHG  1   3  -1
M  END
>  <CHROM.1>
61.96583762,-171.35994840,60.76802102,46.75069124,11.62798499,12.47096175
-0.37795042,-0.11026836,2.08665106

>  <Name>
ligand

>  <RI>
0

>  <Rbt.Current_Directory>
/home/itssahil/PROJECTS/Mol_Feturizer/New_Systems/rnas/3B4B

>  <Rbt.Executable>
rbdock ($Id: //depot/dev/client3/rdock/2013.1/src/exe/rbdock.cxx#4 $)

>  <Rbt.Library>
libRbt.so (2013.1, Build901 2013/11/27)

>  <Rbt.Parameter_File>
/export/apps/rDock/src/rDock_2013.1_src/data/scripts/dock_solv.prm

>  <Rbt.Receptor>
prm/pocket_docking_2.prm

>  <SCORE>
-9.82502

>  <SCORE.INTER>
-8.19127

>  <SCORE.INTER.CONST>
1

>  <SCORE.INTER.POLAR>
-1.125

>  <SCORE.INTER.ROT>
3

>  <SCORE.INTER.SOLV>
18.4356

>  <SCORE.INTER.VDW>
-13.456

>  <SCORE.INTER.norm>
-0.511954

>  <SCORE.INTRA>
-1.63375

>  <SCORE.INTRA.DIHEDRAL>
-1.84051

>  <SCORE.INTRA.DIHEDRAL.0>
2.21864

>  <SCORE.INTRA.POLAR>
0

>  <SCORE.INTRA.POLAR.0>
0

>  <SCORE.INTRA.REPUL>
0

>  <SCORE.INTRA.REPUL.0>
0

>  <SCORE.INTRA.SOLV>
-0.94794

>  <SCORE.INTRA.SOLV.lig_0>
-58.5963

>  <SCORE.INTRA.VDW>
-0.239527

>  <SCORE.INTRA.VDW.0>
-0.437849

>  <SCORE.INTRA.norm>
-0.10211

>  <SCORE.RESTR>
0

>  <SCORE.RESTR.CAVITY>
0

>  <SCORE.RESTR.norm>
0

>  <SCORE.SYSTEM>
0

>  <SCORE.SYSTEM.CONST>
0

>  <SCORE.SYSTEM.DIHEDRAL>
0

>  <SCORE.SYSTEM.SOLV>
0

>  <SCORE.SYSTEM.norm>
0

>  <SCORE.heavy>
16

>  <SCORE.norm>
-0.614064

>  <RMSD>
1.054

$$$$
ligand
 OpenBabel11021811463D
libRbt.so/2013.1/901 2013/11/27
 16 16  0  0  0  0  0  0  0  0999 V2000
   50.0036   11.8232   12.2739 P   0  0  2  0  0  0  0  0  0  0  0  0
   50.5961   11.1728   13.4684 O   0  0  0  0  0  0  0  0  0  0  0  0
   50.2930   10.9435   10.9572 O   0  5  0  0  0  0  0  0  0  0  0  0
   50.6751   13.2840   12.0759 O   0  0  0  0  0  0  0  0  0  0  0  0
   44.7516   11.0714   14.4939 C   0  0  2  0  0  0  0  0  0  0  0  0
   44.1242    9.8019   14.2607 O   0  0  0  0  0  0  0  0  0  0  0  0
   44.0428   12.2116   13.7098 C   0  0  2  0  0  0  0  0  0  0  0  0
   42.6169   12.2759   14.0996 N   0  0  0  0  0  0  0  0  0  0  0  0
   44.1672   11.9214   12.1991 C   0  0  1  0  0  0  0  0  0  0  0  0
   43.5384   12.9679   11.4385 O   0  0  0  0  0  0  0  0  0  0  0  0
   45.6608   11.8535   11.8485 C   0  0  2  0  0  0  0  0  0  0  0  0
   45.8119   11.5692   10.4505 O   0  0  0  0  0  0  0  0  0  0  0  0
   46.3091   10.7208   12.6877 C   0  0  2  0  0  0  0  0  0  0  0  0
   46.1540   10.9947   14.1100 O   0  0  0  0  0  0  0  0  0  0  0  0
   47.8114   10.6379   12.3657 C   0  0  0  0  0  0  0  0  0  0  0  0
   48.4072   11.9419   12.4920 O   0  0  0  0  0  0  0  0  0  0  0  0
  1  2  1  1  0  0  0
  1  3  1  0  0  0  0
  1  4  2  0  0  0  0
  1 16  1  0  0  0  0
  5  6  1  6  0  0  0
  5  7  1  0  0  0  0
  5 14  1  0  0  0  0
  7  8  1  1  0  0  0
  7  9  1  0  0  0  0
  9 10  1  6  0  0  0
  9 11  1  0  0  0  0
 11 12  1  6  0  0  0
 11 13  1  0  0  0  0
 13 14  1  0  0  0  0
 13 15  1  6  0  0  0
 15 16  1  0  0  0  0
M  CHG  1   3  -1
M  END
>  <CHROM.1>
51.40099766,175.29791839,-72.67856473,46.87915598,11.59214341,12.63218705
-0.15414466,-0.06041090,2.04293480

>  <Name>
ligand

>  <RI>
0

>  <Rbt.Current_Directory>
/home/itssahil/PROJECTS/Mol_Feturizer/New_Systems/rnas/3B4B

>  <Rbt.Executable>
rbdock ($Id: //depot/dev/client3/rdock/2013.1/src/exe/rbdock.cxx#4 $)

>  <Rbt.Library>
libRbt.so (2013.1, Build901 2013/11/27)

>  <Rbt.Parameter_File>
/export/apps/rDock/src/rDock_2013.1_src/data/scripts/dock_solv.prm

>  <Rbt.Receptor>
prm/pocket_docking_8.prm

>  <SCORE>
-9.59452

>  <SCORE.INTER>
-8.39964

>  <SCORE.INTER.CONST>
1

>  <SCORE.INTER.POLAR>
-1.125

>  <SCORE.INTER.ROT>
3

>  <SCORE.INTER.SOLV>
17.0812

>  <SCORE.INTER.VDW>
-13.1435

>  <SCORE.INTER.norm>
-0.524978

>  <SCORE.INTRA>
-1.20487

>  <SCORE.INTRA.DIHEDRAL>
-1.59627

>  <SCORE.INTRA.DIHEDRAL.0>
2.21864

>  <SCORE.INTRA.POLAR>
0

>  <SCORE.INTRA.POLAR.0>
0

>  <SCORE.INTRA.REPUL>
0

>  <SCORE.INTRA.REPUL.0>
0

>  <SCORE.INTRA.SOLV>
-0.788596

>  <SCORE.INTRA.SOLV.lig_0>
-58.5963

>  <SCORE.INTRA.VDW>
-0.0124393

>  <SCORE.INTRA.VDW.0>
-0.437849

>  <SCORE.INTRA.norm>
-0.0753045

>  <SCORE.RESTR>
0.00999813

>  <SCORE.RESTR.CAVITY>
0.00999813

>  <SCORE.RESTR.norm>
0.000624883

>  <SCORE.SYSTEM>
0

>  <SCORE.SYSTEM.CONST>
0

>  <SCORE.SYSTEM.DIHEDRAL>
0

>  <SCORE.SYSTEM.SOLV>
0

>  <SCORE.SYSTEM.norm>
0

>  <SCORE.heavy>
16

>  <SCORE.norm>
-0.599657

>  <RMSD>
1.054

$$$$
ligand
 OpenBabel11021811463D
libRbt.so/2013.1/901 2013/11/27
 16 16  0  0  0  0  0  0  0  0999 V2000
   49.6599   12.0911   11.6493 P   0  0  2  0  0  0  0  0  0  0  0  0
   49.5046   12.1010   10.1739 O   0  0  0  0  0  0  0  0  0  0  0  0
   50.4619   13.3993   12.1356 O   0  5  0  0  0  0  0  0  0  0  0  0
   50.5018   10.7780   12.0864 O   0  0  0  0  0  0  0  0  0  0  0  0
   44.9203   10.9321   14.7029 C   0  0  2  0  0  0  0  0  0  0  0  0
   44.2583    9.6898   14.4237 O   0  0  0  0  0  0  0  0  0  0  0  0
   44.0777   12.1485   14.2254 C   0  0  2  0  0  0  0  0  0  0  0  0
   42.7513   12.1267   14.8807 N   0  0  0  0  0  0  0  0  0  0  0  0
   43.9139   12.0629   12.6932 C   0  0  1  0  0  0  0  0  0  0  0  0
   43.1541   13.1851   12.2111 O   0  0  0  0  0  0  0  0  0  0  0  0
   45.3142   12.0775   12.0629 C   0  0  2  0  0  0  0  0  0  0  0  0
   45.1979   11.9834   10.6361 O   0  0  0  0  0  0  0  0  0  0  0  0
   46.1077   10.8599   12.6063 C   0  0  2  0  0  0  0  0  0  0  0  0
   46.2247   10.9403   14.0561 O   0  0  0  0  0  0  0  0  0  0  0  0
   47.5220   10.8560   12.0002 C   0  0  0  0  0  0  0  0  0  0  0  0
   48.1904   12.0897   12.3207 O   0  0  0  0  0  0  0  0  0  0  0  0
  1  2  1  6  0  0  0
  1  3  1  0  0  0  0
  1  4  2  0  0  0  0
  1 16  1  0  0  0  0
  5  6  1  6  0  0  0
  5  7  1  0  0  0  0
  5 14  1  0  0  0  0
  7  8  1  1  0  0  0
  7  9  1  0  0  0  0
  9 10  1  6  0  0  0
  9 11  1  0  0  0  0
 11 12  1  6  0  0  0
 11 13  1  0  0  0  0
 13 14  1  0  0  0  0
 13 15  1  6  0  0  0
 15 16  1  0  0  0  0
M  CHG  1   3  -1
M  END
>  <CHROM.1>
58.04148245,-178.60074079,65.60716408,46.66375657,11.73912745,12.57152960
-0.31349629,-0.14966775,2.17003320

>  <Name>
ligand

>  <RI>
0

>  <Rbt.Current_Directory>
/home/itssahil/PROJECTS/Mol_Feturizer/New_Systems/rnas/3B4B

>  <Rbt.Executable>
rbdock ($Id: //depot/dev/client3/rdock/2013.1/src/exe/rbdock.cxx#4 $)

>  <Rbt.Library>
libRbt.so (2013.1, Build901 2013/11/27)

>  <Rbt.Parameter_File>
/export/apps/rDock/src/rDock_2013.1_src/data/scripts/dock_solv.prm

>  <Rbt.Receptor>
prm/pocket_docking_2.prm

>  <SCORE>
-9.6699

>  <SCORE.INTER>
-7.94417

>  <SCORE.INTER.CONST>
1

>  <SCORE.INTER.POLAR>
-1.125

>  <SCORE.INTER.ROT>
3

>  <SCORE.INTER.SOLV>
19.3096

>  <SCORE.INTER.VDW>
-13.5826

>  <SCORE.INTER.norm>
-0.496511

>  <SCORE.INTRA>
-1.72572

>  <SCORE.INTRA.DIHEDRAL>
-2.14193

>  <SCORE.INTRA.DIHEDRAL.0>
2.21864

>  <SCORE.INTRA.POLAR>
0

>  <SCORE.INTRA.POLAR.0>
0

>  <SCORE.INTRA.REPUL>
0

>  <SCORE.INTRA.REPUL.0>
0

>  <SCORE.INTRA.SOLV>
-0.885125

>  <SCORE.INTRA.SOLV.lig_0>
-58.5963

>  <SCORE.INTRA.VDW>
-0.212199

>  <SCORE.INTRA.VDW.0>
-0.437849

>  <SCORE.INTRA.norm>
-0.107858

>  <SCORE.RESTR>
0

>  <SCORE.RESTR.CAVITY>
0

>  <SCORE.RESTR.norm>
0

>  <SCORE.SYSTEM>
0

>  <SCORE.SYSTEM.CONST>
0

>  <SCORE.SYSTEM.DIHEDRAL>
0

>  <SCORE.SYSTEM.SOLV>
0

>  <SCORE.SYSTEM.norm>
0

>  <SCORE.heavy>
16

>  <SCORE.norm>
-0.604369

>  <RMSD>
1.056

$$$$
ligand
 OpenBabel11021811463D
libRbt.so/2013.1/901 2013/11/27
 16 16  0  0  0  0  0  0  0  0999 V2000
   49.9959   11.7162   12.4846 P   0  0  2  0  0  0  0  0  0  0  0  0
   50.5676   10.9589   13.6251 O   0  0  0  0  0  0  0  0  0  0  0  0
   50.2870   10.9469   11.1009 O   0  5  0  0  0  0  0  0  0  0  0  0
   50.6889   13.1789   12.4169 O   0  0  0  0  0  0  0  0  0  0  0  0
   44.6603   10.7953   14.4789 C   0  0  2  0  0  0  0  0  0  0  0  0
   44.0098    9.5900   14.0503 O   0  0  0  0  0  0  0  0  0  0  0  0
   44.0088   12.0543   13.8402 C   0  0  2  0  0  0  0  0  0  0  0  0
   42.5721   12.1064   14.1897 N   0  0  0  0  0  0  0  0  0  0  0  0
   44.1796   11.9737   12.3085 C   0  0  1  0  0  0  0  0  0  0  0  0
   43.6048   13.1343   11.6825 O   0  0  0  0  0  0  0  0  0  0  0  0
   45.6826   11.9105   11.9994 C   0  0  2  0  0  0  0  0  0  0  0  0
   45.8761   11.8192   10.5809 O   0  0  0  0  0  0  0  0  0  0  0  0
   46.2717   10.6531   12.6917 C   0  0  2  0  0  0  0  0  0  0  0  0
   46.0730   10.7309   14.1327 O   0  0  0  0  0  0  0  0  0  0  0  0
   47.7820   10.5709   12.4091 C   0  0  0  0  0  0  0  0  0  0  0  0
   48.3992   11.8386   12.6977 O   0  0  0  0  0  0  0  0  0  0  0  0
  1  2  1  1  0  0  0
  1  3  1  0  0  0  0
  1  4  2  0  0  0  0
  1 16  1  0  0  0  0
  5  6  1  6  0  0  0
  5  7  1  0  0  0  0
  5 14  1  0  0  0  0
  7  8  1  6  0  0  0
  7  9  1  0  0  0  0
  9 10  1  6  0  0  0
  9 11  1  0  0  0  0
 11 12  1  6  0  0  0
 11 13  1  0  0  0  0
 13 14  1  0  0  0  0
 13 15  1  1  0  0  0
 15 16  1  0  0  0  0
M  CHG  1   3  -1
M  END
>  <CHROM.1>
49.68548662,176.57597535,-74.74561270,46.86152596,11.51525876,12.75069571
-0.12399905,-0.07149007,2.19506756

>  <Name>
ligand

>  <RI>
0

>  <Rbt.Current_Directory>
/home/itssahil/PROJECTS/Mol_Feturizer/New_Systems/rnas/3B4B

>  <Rbt.Executable>
rbdock ($Id: //depot/dev/client3/rdock/2013.1/src/exe/rbdock.cxx#4 $)

>  <Rbt.Library>
libRbt.so (2013.1, Build901 2013/11/27)

>  <Rbt.Parameter_File>
/export/apps/rDock/src/rDock_2013.1_src/data/scripts/dock_solv.prm

>  <Rbt.Receptor>
prm/pocket_docking_7.prm

>  <SCORE>
-9.35324

>  <SCORE.INTER>
-8.29242

>  <SCORE.INTER.CONST>
1

>  <SCORE.INTER.POLAR>
-1.125

>  <SCORE.INTER.ROT>
3

>  <SCORE.INTER.SOLV>
17.8166

>  <SCORE.INTER.VDW>
-13.3171

>  <SCORE.INTER.norm>
-0.518276

>  <SCORE.INTRA>
-1.06101

>  <SCORE.INTRA.DIHEDRAL>
-1.44978

>  <SCORE.INTRA.DIHEDRAL.0>
2.21864

>  <SCORE.INTRA.POLAR>
0

>  <SCORE.INTRA.POLAR.0>
0

>  <SCORE.INTRA.REPUL>
0

>  <SCORE.INTRA.REPUL.0>
0

>  <SCORE.INTRA.SOLV>
-0.765284

>  <SCORE.INTRA.SOLV.lig_0>
-58.5963

>  <SCORE.INTRA.VDW>
0.0465192

>  <SCORE.INTRA.VDW.0>
-0.437849

>  <SCORE.INTRA.norm>
-0.0663132

>  <SCORE.RESTR>
0.000191509

>  <SCORE.RESTR.CAVITY>
0.000191509

>  <SCORE.RESTR.norm>
1.19693e-05

>  <SCORE.SYSTEM>
0

>  <SCORE.SYSTEM.CONST>
0

>  <SCORE.SYSTEM.DIHEDRAL>
0

>  <SCORE.SYSTEM.SOLV>
0

>  <SCORE.SYSTEM.norm>
0

>  <SCORE.heavy>
16

>  <SCORE.norm>
-0.584578

>  <RMSD>
1.059

$$$$
ligand
 OpenBabel11021811463D
libRbt.so/2013.1/901 2013/11/27
 16 16  0  0  0  0  0  0  0  0999 V2000
   49.8149   11.8786   12.0518 P   0  0  2  0  0  0  0  0  0  0  0  0
   50.4072   10.5716   12.4284 O   0  0  0  0  0  0  0  0  0  0  0  0
   49.7879   12.0393   10.4504 O   0  5  0  0  0  0  0  0  0  0  0  0
   50.7179   13.0707   12.6745 O   0  0  0  0  0  0  0  0  0  0  0  0
   44.8252   10.8643   14.6769 C   0  0  2  0  0  0  0  0  0  0  0  0
   44.1092    9.6867   14.2765 O   0  0  0  0  0  0  0  0  0  0  0  0
   44.0801   12.1597   14.2474 C   0  0  2  0  0  0  0  0  0  0  0  0
   42.7215   12.1733   14.8333 N   0  0  0  0  0  0  0  0  0  0  0  0
   43.9938   12.1902   12.7068 C   0  0  1  0  0  0  0  0  0  0  0  0
   43.3261   13.3872   12.2701 O   0  0  0  0  0  0  0  0  0  0  0  0
   45.4243   12.1632   12.1489 C   0  0  2  0  0  0  0  0  0  0  0  0
   45.3792   12.1753   10.7151 O   0  0  0  0  0  0  0  0  0  0  0  0
   46.1168   10.8651   12.6415 C   0  0  2  0  0  0  0  0  0  0  0  0
   46.1606   10.8379   14.0973 O   0  0  0  0  0  0  0  0  0  0  0  0
   47.5589   10.8172   12.1071 C   0  0  0  0  0  0  0  0  0  0  0  0
   48.3024   11.9393   12.6165 O   0  0  0  0  0  0  0  0  0  0  0  0
  1  2  1  1  0  0  0
  1  3  1  0  0  0  0
  1  4  2  0  0  0  0
  1 16  1  0  0  0  0
  5  6  1  6  0  0  0
  5  7  1  0  0  0  0
  5 14  1  0  0  0  0
  7  8  1  1  0  0  0
  7  9  1  0  0  0  0
  9 10  1  1  0  0  0
  9 11  1  0  0  0  0
 11 12  1  6  0  0  0
 11 13  1  0  0  0  0
 13 14  1  0  0  0  0
 13 15  1  6  0  0  0
 15 16  1  0  0  0  0
M  CHG  1   3  -1
M  END
>  <CHROM.1>
61.61226684,179.91379771,-56.33998482,46.73292630,11.69267874,12.72530385
-0.22716588,-0.15520799,2.22131740

>  <Name>
ligand

>  <RI>
0

>  <Rbt.Current_Directory>
/home/itssahil/PROJECTS/Mol_Feturizer/New_Systems/rnas/3B4B

>  <Rbt.Executable>
rbdock ($Id: //depot/dev/client3/rdock/2013.1/src/exe/rbdock.cxx#4 $)

>  <Rbt.Library>
libRbt.so (2013.1, Build901 2013/11/27)

>  <Rbt.Parameter_File>
/export/apps/rDock/src/rDock_2013.1_src/data/scripts/dock_solv.prm

>  <Rbt.Receptor>
prm/pocket_docking_4.prm

>  <SCORE>
-9.19711

>  <SCORE.INTER>
-7.5179

>  <SCORE.INTER.CONST>
1

>  <SCORE.INTER.POLAR>
-0.899155

>  <SCORE.INTER.ROT>
3

>  <SCORE.INTER.SOLV>
18.8644

>  <SCORE.INTER.VDW>
-13.9029

>  <SCORE.INTER.norm>
-0.469869

>  <SCORE.INTRA>
-1.67921

>  <SCORE.INTRA.DIHEDRAL>
-2.18542

>  <SCORE.INTRA.DIHEDRAL.0>
2.21864

>  <SCORE.INTRA.POLAR>
0

>  <SCORE.INTRA.POLAR.0>
0

>  <SCORE.INTRA.REPUL>
0

>  <SCORE.INTRA.REPUL.0>
0

>  <SCORE.INTRA.SOLV>
-0.941164

>  <SCORE.INTRA.SOLV.lig_0>
-58.5963

>  <SCORE.INTRA.VDW>
-0.115923

>  <SCORE.INTRA.VDW.0>
-0.437849

>  <SCORE.INTRA.norm>
-0.104951

>  <SCORE.RESTR>
0

>  <SCORE.RESTR.CAVITY>
0

>  <SCORE.RESTR.norm>
0

>  <SCORE.SYSTEM>
0

>  <SCORE.SYSTEM.CONST>
0

>  <SCORE.SYSTEM.DIHEDRAL>
0

>  <SCORE.SYSTEM.SOLV>
0

>  <SCORE.SYSTEM.norm>
0

>  <SCORE.heavy>
16

>  <SCORE.norm>
-0.57482

>  <RMSD>
1.060

$$$$
ligand
 OpenBabel11021811463D
libRbt.so/2013.1/901 2013/11/27
 16 16  0  0  0  0  0  0  0  0999 V2000
   49.8393   11.8630   11.9407 P   0  0  2  0  0  0  0  0  0  0  0  0
   50.6340   11.4250   13.1144 O   0  0  0  0  0  0  0  0  0  0  0  0
   50.0516   10.8461   10.7111 O   0  5  0  0  0  0  0  0  0  0  0  0
   50.3346   13.3359   11.4830 O   0  0  0  0  0  0  0  0  0  0  0  0
   44.9366   10.9889   14.8505 C   0  0  2  0  0  0  0  0  0  0  0  0
   44.4139    9.6524   14.8489 O   0  0  0  0  0  0  0  0  0  0  0  0
   44.0503   11.9501   14.0090 C   0  0  2  0  0  0  0  0  0  0  0  0
   42.6687   11.9494   14.5387 N   0  0  0  0  0  0  0  0  0  0  0  0
   44.0566   11.4686   12.5428 C   0  0  1  0  0  0  0  0  0  0  0  0
   43.2606   12.3470   11.7278 O   0  0  0  0  0  0  0  0  0  0  0  0
   45.5093   11.4765   12.0450 C   0  0  2  0  0  0  0  0  0  0  0  0
   45.5522   11.0184   10.6862 O   0  0  0  0  0  0  0  0  0  0  0  0
   46.3402   10.5254   12.9463 C   0  0  2  0  0  0  0  0  0  0  0  0
   46.2966   10.9762   14.3308 O   0  0  0  0  0  0  0  0  0  0  0  0
   47.8058   10.5230   12.4778 C   0  0  0  0  0  0  0  0  0  0  0  0
   48.2775   11.8771   12.3537 O   0  0  0  0  0  0  0  0  0  0  0  0
  1  2  1  1  0  0  0
  1  3  1  0  0  0  0
  1  4  2  0  0  0  0
  1 16  1  0  0  0  0
  5  6  1  6  0  0  0
  5  7  1  0  0  0  0
  5 14  1  0  0  0  0
  7  8  1  1  0  0  0
  7  9  1  0  0  0  0
  9 10  1  6  0  0  0
  9 11  1  0  0  0  0
 11 12  1  6  0  0  0
 11 13  1  0  0  0  0
 13 14  1  0  0  0  0
 13 15  1  6  0  0  0
 15 16  1  0  0  0  0
M  CHG  1   3  -1
M  END
>  <CHROM.1>
50.54661668,176.90442990,-72.06386495,46.81013500,11.42577169,12.69716911
-0.29475772,-0.02324126,1.91121801

>  <Name>
ligand

>  <RI>
0

>  <Rbt.Current_Directory>
/home/itssahil/PROJECTS/Mol_Feturizer/New_Systems/rnas/3B4B

>  <Rbt.Executable>
rbdock ($Id: //depot/dev/client3/rdock/2013.1/src/exe/rbdock.cxx#4 $)

>  <Rbt.Library>
libRbt.so (2013.1, Build901 2013/11/27)

>  <Rbt.Parameter_File>
/export/apps/rDock/src/rDock_2013.1_src/data/scripts/dock_solv.prm

>  <Rbt.Receptor>
prm/pocket_docking_2.prm

>  <SCORE>
-9.63986

>  <SCORE.INTER>
-8.42338

>  <SCORE.INTER.CONST>
1

>  <SCORE.INTER.POLAR>
-1.12263

>  <SCORE.INTER.ROT>
3

>  <SCORE.INTER.SOLV>
18.8326

>  <SCORE.INTER.VDW>
-13.751

>  <SCORE.INTER.norm>
-0.526461

>  <SCORE.INTRA>
-1.21833

>  <SCORE.INTRA.DIHEDRAL>
-1.62717

>  <SCORE.INTRA.DIHEDRAL.0>
2.21864

>  <SCORE.INTRA.POLAR>
0

>  <SCORE.INTRA.POLAR.0>
0

>  <SCORE.INTRA.REPUL>
0

>  <SCORE.INTRA.REPUL.0>
0

>  <SCORE.INTRA.SOLV>
-0.792321

>  <SCORE.INTRA.SOLV.lig_0>
-58.5963

>  <SCORE.INTRA.VDW>
-0.0085861

>  <SCORE.INTRA.VDW.0>
-0.437849

>  <SCORE.INTRA.norm>
-0.0761456

>  <SCORE.RESTR>
0.00185427

>  <SCORE.RESTR.CAVITY>
0.00185427

>  <SCORE.RESTR.norm>
0.000115892

>  <SCORE.SYSTEM>
0

>  <SCORE.SYSTEM.CONST>
0

>  <SCORE.SYSTEM.DIHEDRAL>
0

>  <SCORE.SYSTEM.SOLV>
0

>  <SCORE.SYSTEM.norm>
0

>  <SCORE.heavy>
16

>  <SCORE.norm>
-0.602491

>  <RMSD>
1.063

$$$$
ligand
 OpenBabel11021811463D
libRbt.so/2013.1/901 2013/11/27
 16 16  0  0  0  0  0  0  0  0999 V2000
   49.8109   11.8736   12.0705 P   0  0  2  0  0  0  0  0  0  0  0  0
   50.4023   10.5645   12.4415 O   0  0  0  0  0  0  0  0  0  0  0  0
   49.7844   12.0414   10.4698 O   0  5  0  0  0  0  0  0  0  0  0  0
   50.7145   13.0623   12.6986 O   0  0  0  0  0  0  0  0  0  0  0  0
   44.8109   10.8437   14.6834 C   0  0  2  0  0  0  0  0  0  0  0  0
   44.0896    9.6753   14.2661 O   0  0  0  0  0  0  0  0  0  0  0  0
   44.0756   12.1485   14.2659 C   0  0  2  0  0  0  0  0  0  0  0  0
   42.7145   12.1635   14.8459 N   0  0  0  0  0  0  0  0  0  0  0  0
   43.9964   12.1976   12.7254 C   0  0  1  0  0  0  0  0  0  0  0  0
   43.3380   13.4036   12.2998 O   0  0  0  0  0  0  0  0  0  0  0  0
   45.4292   12.1685   12.1736 C   0  0  2  0  0  0  0  0  0  0  0  0
   45.3907   12.1976   10.7398 O   0  0  0  0  0  0  0  0  0  0  0  0
   46.1117   10.8605   12.6540 C   0  0  2  0  0  0  0  0  0  0  0  0
   46.1487   10.8159   14.1096 O   0  0  0  0  0  0  0  0  0  0  0  0
   47.5559   10.8100   12.1255 C   0  0  0  0  0  0  0  0  0  0  0  0
   48.2983   11.9328   12.6351 O   0  0  0  0  0  0  0  0  0  0  0  0
  1  2  1  1  0  0  0
  1  3  1  0  0  0  0
  1  4  2  0  0  0  0
  1 16  1  0  0  0  0
  5  6  1  6  0  0  0
  5  7  1  0  0  0  0
  5 14  1  0  0  0  0
  7  8  1  1  0  0  0
  7  9  1  0  0  0  0
  9 10  1  1  0  0  0
  9 11  1  0  0  0  0
 11 12  1  6  0  0  0
 11 13  1  0  0  0  0
 13 14  1  0  0  0  0
 13 15  1  6  0  0  0
 15 16  1  0  0  0  0
M  CHG  1   3  -1
M  END
>  <CHROM.1>
60.74628584,-179.79756364,-56.07902526,46.72949503,11.68895840,12.74184192
-0.22473179,-0.15848254,2.23721185

>  <Name>
ligand

>  <RI>
0

>  <Rbt.Current_Directory>
/home/itssahil/PROJECTS/Mol_Feturizer/New_Systems/rnas/3B4B

>  <Rbt.Executable>
rbdock ($Id: //depot/dev/client3/rdock/2013.1/src/exe/rbdock.cxx#4 $)

>  <Rbt.Library>
libRbt.so (2013.1, Build901 2013/11/27)

>  <Rbt.Parameter_File>
/export/apps/rDock/src/rDock_2013.1_src/data/scripts/dock_solv.prm

>  <Rbt.Receptor>
prm/pocket_docking_4.prm

>  <SCORE>
-9.22134

>  <SCORE.INTER>
-7.55199

>  <SCORE.INTER.CONST>
1

>  <SCORE.INTER.POLAR>
-0.893207

>  <SCORE.INTER.ROT>
3

>  <SCORE.INTER.SOLV>
19.0095

>  <SCORE.INTER.VDW>
-13.9938

>  <SCORE.INTER.norm>
-0.472

>  <SCORE.INTRA>
-1.66934

>  <SCORE.INTRA.DIHEDRAL>
-2.18946

>  <SCORE.INTRA.DIHEDRAL.0>
2.21864

>  <SCORE.INTRA.POLAR>
0

>  <SCORE.INTRA.POLAR.0>
0

>  <SCORE.INTRA.REPUL>
0

>  <SCORE.INTRA.REPUL.0>
0

>  <SCORE.INTRA.SOLV>
-0.931996

>  <SCORE.INTRA.SOLV.lig_0>
-58.5963

>  <SCORE.INTRA.VDW>
-0.108615

>  <SCORE.INTRA.VDW.0>
-0.437849

>  <SCORE.INTRA.norm>
-0.104334

>  <SCORE.RESTR>
0

>  <SCORE.RESTR.CAVITY>
0

>  <SCORE.RESTR.norm>
0

>  <SCORE.SYSTEM>
0

>  <SCORE.SYSTEM.CONST>
0

>  <SCORE.SYSTEM.DIHEDRAL>
0

>  <SCORE.SYSTEM.SOLV>
0

>  <SCORE.SYSTEM.norm>
0

>  <SCORE.heavy>
16

>  <SCORE.norm>
-0.576334

>  <RMSD>
1.063

$$$$
ligand
 OpenBabel11021811463D
libRbt.so/2013.1/901 2013/11/27
 16 16  0  0  0  0  0  0  0  0999 V2000
   50.0026   11.8212   12.2458 P   0  0  2  0  0  0  0  0  0  0  0  0
   50.7182   11.2238   13.4000 O   0  0  0  0  0  0  0  0  0  0  0  0
   50.2225   10.9249   10.9270 O   0  5  0  0  0  0  0  0  0  0  0  0
   50.5909   13.3043   11.9653 O   0  0  0  0  0  0  0  0  0  0  0  0
   44.9529   10.8923   14.8193 C   0  0  2  0  0  0  0  0  0  0  0  0
   44.3666    9.5935   14.6491 O   0  0  0  0  0  0  0  0  0  0  0  0
   44.1396   11.9884   14.0745 C   0  0  2  0  0  0  0  0  0  0  0  0
   42.7444   11.9977   14.5669 N   0  0  0  0  0  0  0  0  0  0  0  0
   44.1666   11.6794   12.5627 C   0  0  1  0  0  0  0  0  0  0  0  0
   43.4388   12.6857   11.8367 O   0  0  0  0  0  0  0  0  0  0  0  0
   45.6324   11.6700   12.1045 C   0  0  2  0  0  0  0  0  0  0  0  0
   45.6938   11.3699   10.7030 O   0  0  0  0  0  0  0  0  0  0  0  0
   46.3889   10.5798   12.9085 C   0  0  2  0  0  0  0  0  0  0  0  0
   46.3257   10.8697   14.3347 O   0  0  0  0  0  0  0  0  0  0  0  0
   47.8661   10.5561   12.4785 C   0  0  0  0  0  0  0  0  0  0  0  0
   48.4255   11.8774   12.5920 O   0  0  0  0  0  0  0  0  0  0  0  0
  1  2  1  1  0  0  0
  1  3  1  0  0  0  0
  1  4  2  0  0  0  0
  1 16  1  0  0  0  0
  5  6  1  6  0  0  0
  5  7  1  0  0  0  0
  5 14  1  0  0  0  0
  7  8  1  1  0  0  0
  7  9  1  0  0  0  0
  9 10  1  6  0  0  0
  9 11  1  0  0  0  0
 11 12  1  6  0  0  0
 11 13  1  0  0  0  0
 13 14  1  0  0  0  0
 13 15  1  6  0  0  0
 15 16  1  0  0  0  0
M  CHG  1   3  -1
M  END
>  <CHROM.1>
53.54983866,175.77108167,-75.36745412,46.91874069,11.46938657,12.81329370
-0.23198774,-0.05223134,2.01969062

>  <Name>
ligand

>  <RI>
0

>  <Rbt.Current_Directory>
/home/itssahil/PROJECTS/Mol_Feturizer/New_Systems/rnas/3B4B

>  <Rbt.Executable>
rbdock ($Id: //depot/dev/client3/rdock/2013.1/src/exe/rbdock.cxx#4 $)

>  <Rbt.Library>
libRbt.so (2013.1, Build901 2013/11/27)

>  <Rbt.Parameter_File>
/export/apps/rDock/src/rDock_2013.1_src/data/scripts/dock_solv.prm

>  <Rbt.Receptor>
prm/pocket_docking_4.prm

>  <SCORE>
-9.95092

>  <SCORE.INTER>
-8.75841

>  <SCORE.INTER.CONST>
1

>  <SCORE.INTER.POLAR>
-1.12477

>  <SCORE.INTER.ROT>
3

>  <SCORE.INTER.SOLV>
19.2783

>  <SCORE.INTER.VDW>
-14.1158

>  <SCORE.INTER.norm>
-0.547401

>  <SCORE.INTRA>
-1.19251

>  <SCORE.INTRA.DIHEDRAL>
-1.61806

>  <SCORE.INTRA.DIHEDRAL.0>
2.21864

>  <SCORE.INTRA.POLAR>
0

>  <SCORE.INTRA.POLAR.0>
0

>  <SCORE.INTRA.REPUL>
0

>  <SCORE.INTRA.REPUL.0>
0

>  <SCORE.INTRA.SOLV>
-0.762391

>  <SCORE.INTRA.SOLV.lig_0>
-58.5963

>  <SCORE.INTRA.VDW>
-0.0022796

>  <SCORE.INTRA.VDW.0>
-0.437849

>  <SCORE.INTRA.norm>
-0.0745316

>  <SCORE.RESTR>
0

>  <SCORE.RESTR.CAVITY>
0

>  <SCORE.RESTR.norm>
0

>  <SCORE.SYSTEM>
0

>  <SCORE.SYSTEM.CONST>
0

>  <SCORE.SYSTEM.DIHEDRAL>
0

>  <SCORE.SYSTEM.SOLV>
0

>  <SCORE.SYSTEM.norm>
0

>  <SCORE.heavy>
16

>  <SCORE.norm>
-0.621932

>  <RMSD>
1.063

$$$$
ligand
 OpenBabel11021811463D
libRbt.so/2013.1/901 2013/11/27
 16 16  0  0  0  0  0  0  0  0999 V2000
   49.8209   11.8726   12.0856 P   0  0  2  0  0  0  0  0  0  0  0  0
   50.4099   10.5596   12.4463 O   0  0  0  0  0  0  0  0  0  0  0  0
   49.7975   12.0543   10.4864 O   0  5  0  0  0  0  0  0  0  0  0  0
   50.7250   13.0546   12.7257 O   0  0  0  0  0  0  0  0  0  0  0  0
   44.8204   10.8302   14.6966 C   0  0  2  0  0  0  0  0  0  0  0  0
   44.1020    9.6602   14.2785 O   0  0  0  0  0  0  0  0  0  0  0  0
   44.0834   12.1335   14.2771 C   0  0  2  0  0  0  0  0  0  0  0  0
   42.7212   12.1462   14.8546 N   0  0  0  0  0  0  0  0  0  0  0  0
   44.0069   12.1817   12.7364 C   0  0  1  0  0  0  0  0  0  0  0  0
   43.3470   13.3863   12.3091 O   0  0  0  0  0  0  0  0  0  0  0  0
   45.4408   12.1550   12.1872 C   0  0  2  0  0  0  0  0  0  0  0  0
   45.4048   12.1833   10.7534 O   0  0  0  0  0  0  0  0  0  0  0  0
   46.1248   10.8485   12.6695 C   0  0  2  0  0  0  0  0  0  0  0  0
   46.1593   10.8047   14.1252 O   0  0  0  0  0  0  0  0  0  0  0  0
   47.5700   10.8005   12.1436 C   0  0  0  0  0  0  0  0  0  0  0  0
   48.3074   11.9289   12.6481 O   0  0  0  0  0  0  0  0  0  0  0  0
  1  2  1  1  0  0  0
  1  3  1  0  0  0  0
  1  4  2  0  0  0  0
  1 16  1  0  0  0  0
  5  6  1  6  0  0  0
  5  7  1  0  0  0  0
  5 14  1  0  0  0  0
  7  8  1  1  0  0  0
  7  9  1  0  0  0  0
  9 10  1  1  0  0  0
  9 11  1  0  0  0  0
 11 12  1  6  0  0  0
 11 13  1  0  0  0  0
 13 14  1  0  0  0  0
 13 15  1  6  0  0  0
 15 16  1  0  0  0  0
M  CHG  1   3  -1
M  END
>  <CHROM.1>
60.42699500,-179.76982506,-55.21288159,46.74007983,11.67984462,12.75567198
-0.22587961,-0.15619880,2.23753858

>  <Name>
ligand

>  <RI>
0

>  <Rbt.Current_Directory>
/home/itssahil/PROJECTS/Mol_Feturizer/New_Systems/rnas/3B4B

>  <Rbt.Executable>
rbdock ($Id: //depot/dev/client3/rdock/2013.1/src/exe/rbdock.cxx#4 $)

>  <Rbt.Library>
libRbt.so (2013.1, Build901 2013/11/27)

>  <Rbt.Parameter_File>
/export/apps/rDock/src/rDock_2013.1_src/data/scripts/dock_solv.prm

>  <Rbt.Receptor>
prm/pocket_docking_4.prm

>  <SCORE>
-9.17998

>  <SCORE.INTER>
-7.5268

>  <SCORE.INTER.CONST>
1

>  <SCORE.INTER.POLAR>
-0.9

>  <SCORE.INTER.ROT>
3

>  <SCORE.INTER.SOLV>
19.1339

>  <SCORE.INTER.VDW>
-13.9958

>  <SCORE.INTER.norm>
-0.470425

>  <SCORE.INTRA>
-1.65319

>  <SCORE.INTRA.DIHEDRAL>
-2.17826

>  <SCORE.INTRA.DIHEDRAL.0>
2.21864

>  <SCORE.INTRA.POLAR>
0

>  <SCORE.INTRA.POLAR.0>
0

>  <SCORE.INTRA.REPUL>
0

>  <SCORE.INTRA.REPUL.0>
0

>  <SCORE.INTRA.SOLV>
-0.938887

>  <SCORE.INTRA.SOLV.lig_0>
-58.5963

>  <SCORE.INTRA.VDW>
-0.0946127

>  <SCORE.INTRA.VDW.0>
-0.437849

>  <SCORE.INTRA.norm>
-0.103324

>  <SCORE.RESTR>
0

>  <SCORE.RESTR.CAVITY>
0

>  <SCORE.RESTR.norm>
0

>  <SCORE.SYSTEM>
0

>  <SCORE.SYSTEM.CONST>
0

>  <SCORE.SYSTEM.DIHEDRAL>
0

>  <SCORE.SYSTEM.SOLV>
0

>  <SCORE.SYSTEM.norm>
0

>  <SCORE.heavy>
16

>  <SCORE.norm>
-0.573749

>  <RMSD>
1.063

$$$$
ligand
 OpenBabel11021811463D
libRbt.so/2013.1/901 2013/11/27
 16 16  0  0  0  0  0  0  0  0999 V2000
   49.4583   11.7332   11.9115 P   0  0  2  0  0  0  0  0  0  0  0  0
   49.7422   13.0467   12.5401 O   0  0  0  0  0  0  0  0  0  0  0  0
   50.5774   10.6569   12.3363 O   0  5  0  0  0  0  0  0  0  0  0  0
   49.4864   11.8977   10.3002 O   0  0  0  0  0  0  0  0  0  0  0  0
   44.4371   11.2706   14.5095 C   0  0  2  0  0  0  0  0  0  0  0  0
   44.1240    9.9244   14.1231 O   0  0  0  0  0  0  0  0  0  0  0  0
   43.3101   12.2598   14.0984 C   0  0  2  0  0  0  0  0  0  0  0  0
   42.0304   11.8444   14.7139 N   0  0  0  0  0  0  0  0  0  0  0  0
   43.1859   12.2529   12.5601 C   0  0  1  0  0  0  0  0  0  0  0  0
   42.1635   13.1733   12.1399 O   0  0  0  0  0  0  0  0  0  0  0  0
   44.5387   12.6787   11.9711 C   0  0  2  0  0  0  0  0  0  0  0  0
   44.4617   12.6679   10.5386 O   0  0  0  0  0  0  0  0  0  0  0  0
   45.6181   11.6706   12.4464 C   0  0  2  0  0  0  0  0  0  0  0  0
   45.6991   11.6666   13.9009 O   0  0  0  0  0  0  0  0  0  0  0  0
   46.9890   12.0803   11.8806 C   0  0  0  0  0  0  0  0  0  0  0  0
   48.0119   11.2226   12.4186 O   0  0  0  0  0  0  0  0  0  0  0  0
  1  2  1  1  0  0  0
  1  3  1  0  0  0  0
  1  4  2  0  0  0  0
  1 16  1  0  0  0  0
  5  6  1  6  0  0  0
  5  7  1  0  0  0  0
  5 14  1  0  0  0  0
  7  8  1  1  0  0  0
  7  9  1  0  0  0  0
  9 10  1  1  0  0  0
  9 11  1  0  0  0  0
 11 12  1  6  0  0  0
 11 13  1  0  0  0  0
 13 14  1  0  0  0  0
 13 15  1  6  0  0  0
 15 16  1  0  0  0  0
M  CHG  1   3  -1
M  END
>  <CHROM.1>
174.67419457,-175.55440018,67.77127590,46.19694348,11.85921646,12.56755211
-0.17404902,-0.15862130,2.09610390

>  <Name>
ligand

>  <RI>
0

>  <Rbt.Current_Directory>
/home/itssahil/PROJECTS/Mol_Feturizer/New_Systems/rnas/3B4B

>  <Rbt.Executable>
rbdock ($Id: //depot/dev/client3/rdock/2013.1/src/exe/rbdock.cxx#4 $)

>  <Rbt.Library>
libRbt.so (2013.1, Build901 2013/11/27)

>  <Rbt.Parameter_File>
/export/apps/rDock/src/rDock_2013.1_src/data/scripts/dock_solv.prm

>  <Rbt.Receptor>
prm/pocket_docking_6.prm

>  <SCORE>
-10.1952

>  <SCORE.INTER>
-8.57217

>  <SCORE.INTER.CONST>
1

>  <SCORE.INTER.POLAR>
-1.125

>  <SCORE.INTER.ROT>
3

>  <SCORE.INTER.SOLV>
17.4762

>  <SCORE.INTER.VDW>
-13.3902

>  <SCORE.INTER.norm>
-0.535761

>  <SCORE.INTRA>
-1.62307

>  <SCORE.INTRA.DIHEDRAL>
-1.91966

>  <SCORE.INTRA.DIHEDRAL.0>
2.21864

>  <SCORE.INTRA.POLAR>
0

>  <SCORE.INTRA.POLAR.0>
0

>  <SCORE.INTRA.REPUL>
0

>  <SCORE.INTRA.REPUL.0>
0

>  <SCORE.INTRA.SOLV>
-1.07889

>  <SCORE.INTRA.SOLV.lig_0>
-58.5963

>  <SCORE.INTRA.VDW>
-0.123798

>  <SCORE.INTRA.VDW.0>
-0.437849

>  <SCORE.INTRA.norm>
-0.101442

>  <SCORE.RESTR>
0

>  <SCORE.RESTR.CAVITY>
0

>  <SCORE.RESTR.norm>
0

>  <SCORE.SYSTEM>
0

>  <SCORE.SYSTEM.CONST>
0

>  <SCORE.SYSTEM.DIHEDRAL>
0

>  <SCORE.SYSTEM.SOLV>
0

>  <SCORE.SYSTEM.norm>
0

>  <SCORE.heavy>
16

>  <SCORE.norm>
-0.637203

>  <RMSD>
1.067

$$$$
ligand
 OpenBabel11021811463D
libRbt.so/2013.1/901 2013/11/27
 16 16  0  0  0  0  0  0  0  0999 V2000
   49.8096   11.8605   11.9302 P   0  0  2  0  0  0  0  0  0  0  0  0
   50.5936   11.4286   13.1133 O   0  0  0  0  0  0  0  0  0  0  0  0
   50.0381   10.8410   10.7057 O   0  5  0  0  0  0  0  0  0  0  0  0
   50.3045   13.3339   11.4736 O   0  0  0  0  0  0  0  0  0  0  0  0
   44.9487   10.9815   14.8751 C   0  0  2  0  0  0  0  0  0  0  0  0
   44.4331    9.6423   14.8917 O   0  0  0  0  0  0  0  0  0  0  0  0
   44.0419   11.9326   14.0440 C   0  0  2  0  0  0  0  0  0  0  0  0
   42.6704   11.9283   14.5991 N   0  0  0  0  0  0  0  0  0  0  0  0
   44.0237   11.4417   12.5810 C   0  0  1  0  0  0  0  0  0  0  0  0
   43.2083   12.3106   11.7753 O   0  0  0  0  0  0  0  0  0  0  0  0
   45.4670   11.4538   12.0564 C   0  0  2  0  0  0  0  0  0  0  0  0
   45.4872   10.9871   10.7001 O   0  0  0  0  0  0  0  0  0  0  0  0
   46.3193   10.5128   12.9483 C   0  0  2  0  0  0  0  0  0  0  0  0
   46.2989   10.9724   14.3304 O   0  0  0  0  0  0  0  0  0  0  0  0
   47.7760   10.5150   12.4527 C   0  0  0  0  0  0  0  0  0  0  0  0
   48.2435   11.8703   12.3271 O   0  0  0  0  0  0  0  0  0  0  0  0
  1  2  1  1  0  0  0
  1  3  1  0  0  0  0
  1  4  2  0  0  0  0
  1 16  1  0  0  0  0
  5  6  1  6  0  0  0
  5  7  1  0  0  0  0
  5 14  1  0  0  0  0
  7  8  1  1  0  0  0
  7  9  1  0  0  0  0
  9 10  1  6  0  0  0
  9 11  1  0  0  0  0
 11 12  1  6  0  0  0
 11 13  1  0  0  0  0
 13 14  1  0  0  0  0
 13 15  1  6  0  0  0
 15 16  1  0  0  0  0
M  CHG  1   3  -1
M  END
>  <CHROM.1>
51.24824064,175.15127994,-71.94420084,46.78657868,11.41351347,12.70747157
-0.30241774,-0.01927306,1.89859372

>  <Name>
ligand

>  <RI>
0

>  <Rbt.Current_Directory>
/home/itssahil/PROJECTS/Mol_Feturizer/New_Systems/rnas/3B4B

>  <Rbt.Executable>
rbdock ($Id: //depot/dev/client3/rdock/2013.1/src/exe/rbdock.cxx#4 $)

>  <Rbt.Library>
libRbt.so (2013.1, Build901 2013/11/27)

>  <Rbt.Parameter_File>
/export/apps/rDock/src/rDock_2013.1_src/data/scripts/dock_solv.prm

>  <Rbt.Receptor>
prm/pocket_docking_2.prm

>  <SCORE>
-9.67867

>  <SCORE.INTER>
-8.4574

>  <SCORE.INTER.CONST>
1

>  <SCORE.INTER.POLAR>
-1.12098

>  <SCORE.INTER.ROT>
3

>  <SCORE.INTER.SOLV>
19.1358

>  <SCORE.INTER.VDW>
-13.8803

>  <SCORE.INTER.norm>
-0.528587

>  <SCORE.INTRA>
-1.22143

>  <SCORE.INTRA.DIHEDRAL>
-1.60774

>  <SCORE.INTRA.DIHEDRAL.0>
2.21864

>  <SCORE.INTRA.POLAR>
0

>  <SCORE.INTRA.POLAR.0>
0

>  <SCORE.INTRA.REPUL>
0

>  <SCORE.INTRA.REPUL.0>
0

>  <SCORE.INTRA.SOLV>
-0.796091

>  <SCORE.INTRA.SOLV.lig_0>
-58.5963

>  <SCORE.INTRA.VDW>
-0.0195129

>  <SCORE.INTRA.VDW.0>
-0.437849

>  <SCORE.INTRA.norm>
-0.0763393

>  <SCORE.RESTR>
0.000158938

>  <SCORE.RESTR.CAVITY>
0.000158938

>  <SCORE.RESTR.norm>
9.93365e-06

>  <SCORE.SYSTEM>
0

>  <SCORE.SYSTEM.CONST>
0

>  <SCORE.SYSTEM.DIHEDRAL>
0

>  <SCORE.SYSTEM.SOLV>
0

>  <SCORE.SYSTEM.norm>
0

>  <SCORE.heavy>
16

>  <SCORE.norm>
-0.604917

>  <RMSD>
1.072

$$$$
ligand
 OpenBabel11021811463D
libRbt.so/2013.1/901 2013/11/27
 16 16  0  0  0  0  0  0  0  0999 V2000
   49.6350   11.9046   11.6820 P   0  0  2  0  0  0  0  0  0  0  0  0
   50.3490   10.7056   12.1856 O   0  0  0  0  0  0  0  0  0  0  0  0
   49.4903   11.8372   10.0802 O   0  5  0  0  0  0  0  0  0  0  0  0
   50.4835   13.2296   12.0677 O   0  0  0  0  0  0  0  0  0  0  0  0
   44.9604   10.9804   14.8317 C   0  0  2  0  0  0  0  0  0  0  0  0
   44.3415    9.6912   14.7107 O   0  0  0  0  0  0  0  0  0  0  0  0
   44.0553   12.1051   14.2544 C   0  0  2  0  0  0  0  0  0  0  0  0
   42.7509   12.1058   14.9526 N   0  0  0  0  0  0  0  0  0  0  0  0
   43.8500   11.8467   12.7468 C   0  0  1  0  0  0  0  0  0  0  0  0
   43.0313   12.8806   12.1723 O   0  0  0  0  0  0  0  0  0  0  0  0
   45.2293   11.8444   12.0716 C   0  0  2  0  0  0  0  0  0  0  0  0
   45.0748   11.5909   10.6681 O   0  0  0  0  0  0  0  0  0  0  0  0
   46.0874   10.7238   12.7162 C   0  0  2  0  0  0  0  0  0  0  0  0
   46.2437   10.9663   14.1441 O   0  0  0  0  0  0  0  0  0  0  0  0
   47.4821   10.7063   12.0667 C   0  0  0  0  0  0  0  0  0  0  0  0
   48.1629   11.9431   12.3465 O   0  0  0  0  0  0  0  0  0  0  0  0
  1  2  1  1  0  0  0
  1  3  1  0  0  0  0
  1  4  2  0  0  0  0
  1 16  1  0  0  0  0
  5  6  1  6  0  0  0
  5  7  1  0  0  0  0
  5 14  1  0  0  0  0
  7  8  1  1  0  0  0
  7  9  1  0  0  0  0
  9 10  1  6  0  0  0
  9 11  1  0  0  0  0
 11 12  1  6  0  0  0
 11 13  1  0  0  0  0
 13 14  1  0  0  0  0
 13 15  1  6  0  0  0
 15 16  1  0  0  0  0
M  CHG  1   3  -1
M  END
>  <CHROM.1>
63.86806050,179.03979499,-55.55750544,46.63056135,11.59283428,12.62134172
-0.33716832,-0.11385075,2.01650999

>  <Name>
ligand

>  <RI>
0

>  <Rbt.Current_Directory>
/home/itssahil/PROJECTS/Mol_Feturizer/New_Systems/rnas/3B4B

>  <Rbt.Executable>
rbdock ($Id: //depot/dev/client3/rdock/2013.1/src/exe/rbdock.cxx#4 $)

>  <Rbt.Library>
libRbt.so (2013.1, Build901 2013/11/27)

>  <Rbt.Parameter_File>
/export/apps/rDock/src/rDock_2013.1_src/data/scripts/dock_solv.prm

>  <Rbt.Receptor>
prm/pocket_docking_3.prm

>  <SCORE>
-9.05941

>  <SCORE.INTER>
-7.38423

>  <SCORE.INTER.CONST>
1

>  <SCORE.INTER.POLAR>
-0.891834

>  <SCORE.INTER.ROT>
3

>  <SCORE.INTER.SOLV>
19.0562

>  <SCORE.INTER.VDW>
-13.9021

>  <SCORE.INTER.norm>
-0.461515

>  <SCORE.INTRA>
-1.67518

>  <SCORE.INTRA.DIHEDRAL>
-2.12546

>  <SCORE.INTRA.DIHEDRAL.0>
2.21864

>  <SCORE.INTRA.POLAR>
0

>  <SCORE.INTRA.POLAR.0>
0

>  <SCORE.INTRA.REPUL>
0

>  <SCORE.INTRA.REPUL.0>
0

>  <SCORE.INTRA.SOLV>
-0.962061

>  <SCORE.INTRA.SOLV.lig_0>
-58.5963

>  <SCORE.INTRA.VDW>
-0.131418

>  <SCORE.INTRA.VDW.0>
-0.437849

>  <SCORE.INTRA.norm>
-0.104699

>  <SCORE.RESTR>
0

>  <SCORE.RESTR.CAVITY>
0

>  <SCORE.RESTR.norm>
0

>  <SCORE.SYSTEM>
0

>  <SCORE.SYSTEM.CONST>
0

>  <SCORE.SYSTEM.DIHEDRAL>
0

>  <SCORE.SYSTEM.SOLV>
0

>  <SCORE.SYSTEM.norm>
0

>  <SCORE.heavy>
16

>  <SCORE.norm>
-0.566213

>  <RMSD>
1.074

$$$$
ligand
 OpenBabel11021811463D
libRbt.so/2013.1/901 2013/11/27
 16 16  0  0  0  0  0  0  0  0999 V2000
   50.0414   11.8197   12.3163 P   0  0  2  0  0  0  0  0  0  0  0  0
   50.6725   11.1766   13.4949 O   0  0  0  0  0  0  0  0  0  0  0  0
   50.3216   10.9523   10.9895 O   0  5  0  0  0  0  0  0  0  0  0  0
   50.6777   13.2953   12.1116 O   0  0  0  0  0  0  0  0  0  0  0  0
   44.9424   10.9110   14.7932 C   0  0  2  0  0  0  0  0  0  0  0  0
   44.3299    9.6318   14.5732 O   0  0  0  0  0  0  0  0  0  0  0  0
   44.1651   12.0482   14.0719 C   0  0  2  0  0  0  0  0  0  0  0  0
   42.7631   12.0737   14.5440 N   0  0  0  0  0  0  0  0  0  0  0  0
   44.2083   11.7865   12.5516 C   0  0  1  0  0  0  0  0  0  0  0  0
   43.5142   12.8314   11.8475 O   0  0  0  0  0  0  0  0  0  0  0  0
   45.6803   11.7582   12.1147 C   0  0  2  0  0  0  0  0  0  0  0  0
   45.7564   11.5011   10.7054 O   0  0  0  0  0  0  0  0  0  0  0  0
   46.4000   10.6262   12.8945 C   0  0  2  0  0  0  0  0  0  0  0  0
   46.3215   10.8724   14.3281 O   0  0  0  0  0  0  0  0  0  0  0  0
   47.8827   10.5826   12.4854 C   0  0  0  0  0  0  0  0  0  0  0  0
   48.4478   11.9036   12.5684 O   0  0  0  0  0  0  0  0  0  0  0  0
  1  2  1  1  0  0  0
  1  3  1  0  0  0  0
  1  4  2  0  0  0  0
  1 16  1  0  0  0  0
  5  6  1  6  0  0  0
  5  7  1  0  0  0  0
  5 14  1  0  0  0  0
  7  8  1  1  0  0  0
  7  9  1  0  0  0  0
  9 10  1  6  0  0  0
  9 11  1  0  0  0  0
 11 12  1  6  0  0  0
 11 13  1  0  0  0  0
 13 14  1  0  0  0  0
 13 15  1  6  0  0  0
 15 16  1  0  0  0  0
M  CHG  1   3  -1
M  END
>  <CHROM.1>
49.94482788,173.04503363,-71.07443247,46.94793513,11.51144766,12.83218803
-0.21122660,-0.06477429,2.05479784

>  <Name>
ligand

>  <RI>
0

>  <Rbt.Current_Directory>
/home/itssahil/PROJECTS/Mol_Feturizer/New_Systems/rnas/3B4B

>  <Rbt.Executable>
rbdock ($Id: //depot/dev/client3/rdock/2013.1/src/exe/rbdock.cxx#4 $)

>  <Rbt.Library>
libRbt.so (2013.1, Build901 2013/11/27)

>  <Rbt.Parameter_File>
/export/apps/rDock/src/rDock_2013.1_src/data/scripts/dock_solv.prm

>  <Rbt.Receptor>
prm/pocket_docking_4.prm

>  <SCORE>
-9.92099

>  <SCORE.INTER>
-8.8142

>  <SCORE.INTER.CONST>
1

>  <SCORE.INTER.POLAR>
-1.125

>  <SCORE.INTER.ROT>
3

>  <SCORE.INTER.SOLV>
19.2437

>  <SCORE.INTER.VDW>
-14.1407

>  <SCORE.INTER.norm>
-0.550888

>  <SCORE.INTRA>
-1.10679

>  <SCORE.INTRA.DIHEDRAL>
-1.43285

>  <SCORE.INTRA.DIHEDRAL.0>
2.21864

>  <SCORE.INTRA.POLAR>
0

>  <SCORE.INTRA.POLAR.0>
0

>  <SCORE.INTRA.REPUL>
0

>  <SCORE.INTRA.REPUL.0>
0

>  <SCORE.INTRA.SOLV>
-0.804779

>  <SCORE.INTRA.SOLV.lig_0>
-58.5963

>  <SCORE.INTRA.VDW>
0.0120279

>  <SCORE.INTRA.VDW.0>
-0.437849

>  <SCORE.INTRA.norm>
-0.0691742

>  <SCORE.RESTR>
0

>  <SCORE.RESTR.CAVITY>
0

>  <SCORE.RESTR.norm>
0

>  <SCORE.SYSTEM>
0

>  <SCORE.SYSTEM.CONST>
0

>  <SCORE.SYSTEM.DIHEDRAL>
0

>  <SCORE.SYSTEM.SOLV>
0

>  <SCORE.SYSTEM.norm>
0

>  <SCORE.heavy>
16

>  <SCORE.norm>
-0.620062

>  <RMSD>
1.080

$$$$
ligand
 OpenBabel11021811463D
libRbt.so/2013.1/901 2013/11/27
 16 16  0  0  0  0  0  0  0  0999 V2000
   49.5831   12.0163   11.3425 P   0  0  2  0  0  0  0  0  0  0  0  0
   49.2532   11.7802    9.9154 O   0  0  0  0  0  0  0  0  0  0  0  0
   50.2605   13.4647   11.5273 O   0  5  0  0  0  0  0  0  0  0  0  0
   50.6344   10.8882   11.8387 O   0  0  0  0  0  0  0  0  0  0  0  0
   45.0708   10.8992   14.8257 C   0  0  2  0  0  0  0  0  0  0  0  0
   44.5010    9.5853   14.7330 O   0  0  0  0  0  0  0  0  0  0  0  0
   44.1409   11.9713   14.1906 C   0  0  2  0  0  0  0  0  0  0  0  0
   42.8205   11.9473   14.8578 N   0  0  0  0  0  0  0  0  0  0  0  0
   43.9818   11.6572   12.6880 C   0  0  1  0  0  0  0  0  0  0  0  0
   43.1414   12.6418   12.0606 O   0  0  0  0  0  0  0  0  0  0  0  0
   45.3765   11.6831   12.0456 C   0  0  2  0  0  0  0  0  0  0  0  0
   45.2655   11.3791   10.6481 O   0  0  0  0  0  0  0  0  0  0  0  0
   46.2576   10.6156   12.7468 C   0  0  2  0  0  0  0  0  0  0  0  0
   46.3702   10.9094   14.1691 O   0  0  0  0  0  0  0  0  0  0  0  0
   47.6676   10.6276   12.1309 C   0  0  0  0  0  0  0  0  0  0  0  0
   48.2168   11.9561   12.2025 O   0  0  0  0  0  0  0  0  0  0  0  0
  1  2  1  6  0  0  0
  1  3  1  0  0  0  0
  1  4  2  0  0  0  0
  1 16  1  0  0  0  0
  5  6  1  6  0  0  0
  5  7  1  0  0  0  0
  5 14  1  0  0  0  0
  7  8  1  1  0  0  0
  7  9  1  0  0  0  0
  9 10  1  6  0  0  0
  9 11  1  0  0  0  0
 11 12  1  6  0  0  0
 11 13  1  0  0  0  0
 13 14  1  0  0  0  0
 13 15  1  6  0  0  0
 15 16  1  0  0  0  0
M  CHG  1   3  -1
M  END
>  <CHROM.1>
55.04522105,-170.71915421,64.53148571,46.70125213,11.54334033,12.49025300
0.40612963,0.11152554,-1.09450701

>  <Name>
ligand

>  <RI>
0

>  <Rbt.Current_Directory>
/home/itssahil/PROJECTS/Mol_Feturizer/New_Systems/rnas/3B4B

>  <Rbt.Executable>
rbdock ($Id: //depot/dev/client3/rdock/2013.1/src/exe/rbdock.cxx#4 $)

>  <Rbt.Library>
libRbt.so (2013.1, Build901 2013/11/27)

>  <Rbt.Parameter_File>
/export/apps/rDock/src/rDock_2013.1_src/data/scripts/dock_solv.prm

>  <Rbt.Receptor>
prm/pocket_docking_3.prm

>  <SCORE>
-9.76217

>  <SCORE.INTER>
-8.28732

>  <SCORE.INTER.CONST>
1

>  <SCORE.INTER.POLAR>
-1.12434

>  <SCORE.INTER.ROT>
3

>  <SCORE.INTER.SOLV>
18.7157

>  <SCORE.INTER.VDW>
-13.6156

>  <SCORE.INTER.norm>
-0.517958

>  <SCORE.INTRA>
-1.47485

>  <SCORE.INTRA.DIHEDRAL>
-1.67882

>  <SCORE.INTRA.DIHEDRAL.0>
2.21864

>  <SCORE.INTRA.POLAR>
0

>  <SCORE.INTRA.POLAR.0>
0

>  <SCORE.INTRA.REPUL>
0

>  <SCORE.INTRA.REPUL.0>
0

>  <SCORE.INTRA.SOLV>
-0.848531

>  <SCORE.INTRA.SOLV.lig_0>
-58.5963

>  <SCORE.INTRA.VDW>
-0.211171

>  <SCORE.INTRA.VDW.0>
-0.437849

>  <SCORE.INTRA.norm>
-0.0921779

>  <SCORE.RESTR>
0

>  <SCORE.RESTR.CAVITY>
0

>  <SCORE.RESTR.norm>
0

>  <SCORE.SYSTEM>
0

>  <SCORE.SYSTEM.CONST>
0

>  <SCORE.SYSTEM.DIHEDRAL>
0

>  <SCORE.SYSTEM.SOLV>
0

>  <SCORE.SYSTEM.norm>
0

>  <SCORE.heavy>
16

>  <SCORE.norm>
-0.610135

>  <RMSD>
1.082

$$$$
ligand
 OpenBabel11021811463D
libRbt.so/2013.1/901 2013/11/27
 16 16  0  0  0  0  0  0  0  0999 V2000
   49.8853   11.8519   12.1201 P   0  0  2  0  0  0  0  0  0  0  0  0
   50.1696   10.9151   11.0053 O   0  0  0  0  0  0  0  0  0  0  0  0
   50.2906   13.3535   11.7054 O   0  5  0  0  0  0  0  0  0  0  0  0
   50.7601   11.4201   13.4133 O   0  0  0  0  0  0  0  0  0  0  0  0
   44.9053   10.9754   14.8114 C   0  0  2  0  0  0  0  0  0  0  0  0
   44.4875    9.6126   14.9783 O   0  0  0  0  0  0  0  0  0  0  0  0
   43.9832   11.7381   13.8187 C   0  0  2  0  0  0  0  0  0  0  0  0
   42.5851   11.6960   14.3010 N   0  0  0  0  0  0  0  0  0  0  0  0
   44.0872   11.0650   12.4338 C   0  0  1  0  0  0  0  0  0  0  0  0
   43.2604   11.7570   11.4815 O   0  0  0  0  0  0  0  0  0  0  0  0
   45.5543   11.1245   11.9841 C   0  0  2  0  0  0  0  0  0  0  0  0
   45.6885   10.4919   10.7036 O   0  0  0  0  0  0  0  0  0  0  0  0
   46.4179   10.3751   13.0330 C   0  0  2  0  0  0  0  0  0  0  0  0
   46.2826   11.0039   14.3400 O   0  0  0  0  0  0  0  0  0  0  0  0
   47.8975   10.4294   12.6141 C   0  0  0  0  0  0  0  0  0  0  0  0
   48.3035   11.7997   12.4445 O   0  0  0  0  0  0  0  0  0  0  0  0
  1  2  1  6  0  0  0
  1  3  1  0  0  0  0
  1  4  2  0  0  0  0
  1 16  1  0  0  0  0
  5  6  1  6  0  0  0
  5  7  1  0  0  0  0
  5 14  1  0  0  0  0
  7  8  1  1  0  0  0
  7  9  1  0  0  0  0
  9 10  1  6  0  0  0
  9 11  1  0  0  0  0
 11 12  1  6  0  0  0
 11 13  1  0  0  0  0
 13 14  1  0  0  0  0
 13 15  1  6  0  0  0
 15 16  1  0  0  0  0
M  CHG  1   3  -1
M  END
>  <CHROM.1>
56.08885548,175.54292900,50.94755490,46.84584173,11.27532900,12.74921941
-0.24046174,0.07389850,1.76889056

>  <Name>
ligand

>  <RI>
0

>  <Rbt.Current_Directory>
/home/itssahil/PROJECTS/Mol_Feturizer/New_Systems/rnas/3B4B

>  <Rbt.Executable>
rbdock ($Id: //depot/dev/client3/rdock/2013.1/src/exe/rbdock.cxx#4 $)

>  <Rbt.Library>
libRbt.so (2013.1, Build901 2013/11/27)

>  <Rbt.Parameter_File>
/export/apps/rDock/src/rDock_2013.1_src/data/scripts/dock_solv.prm

>  <Rbt.Receptor>
prm/pocket_docking_4.prm

>  <SCORE>
-8.79221

>  <SCORE.INTER>
-7.32954

>  <SCORE.INTER.CONST>
1

>  <SCORE.INTER.POLAR>
-0.9

>  <SCORE.INTER.ROT>
3

>  <SCORE.INTER.SOLV>
19.4789

>  <SCORE.INTER.VDW>
-13.9793

>  <SCORE.INTER.norm>
-0.458096

>  <SCORE.INTRA>
-1.46267

>  <SCORE.INTRA.DIHEDRAL>
-1.93616

>  <SCORE.INTRA.DIHEDRAL.0>
2.21864

>  <SCORE.INTRA.POLAR>
0

>  <SCORE.INTRA.POLAR.0>
0

>  <SCORE.INTRA.REPUL>
0

>  <SCORE.INTRA.REPUL.0>
0

>  <SCORE.INTRA.SOLV>
-0.998036

>  <SCORE.INTRA.SOLV.lig_0>
-58.5963

>  <SCORE.INTRA.VDW>
0.00442449

>  <SCORE.INTRA.VDW.0>
-0.437849

>  <SCORE.INTRA.norm>
-0.0914171

>  <SCORE.RESTR>
0

>  <SCORE.RESTR.CAVITY>
0

>  <SCORE.RESTR.norm>
0

>  <SCORE.SYSTEM>
0

>  <SCORE.SYSTEM.CONST>
0

>  <SCORE.SYSTEM.DIHEDRAL>
0

>  <SCORE.SYSTEM.SOLV>
0

>  <SCORE.SYSTEM.norm>
0

>  <SCORE.heavy>
16

>  <SCORE.norm>
-0.549513

>  <RMSD>
1.154

$$$$
ligand
 OpenBabel11021811463D
libRbt.so/2013.1/901 2013/11/27
 16 16  0  0  0  0  0  0  0  0999 V2000
   49.5487   12.0155   11.2554 P   0  0  2  0  0  0  0  0  0  0  0  0
   50.2489   10.8806   10.6052 O   0  0  0  0  0  0  0  0  0  0  0  0
   49.7327   13.3577   10.3863 O   0  5  0  0  0  0  0  0  0  0  0  0
   50.1852   12.2612   12.7247 O   0  0  0  0  0  0  0  0  0  0  0  0
   44.4949   10.1798   14.3803 C   0  0  2  0  0  0  0  0  0  0  0  0
   44.0396    9.1501   13.4903 O   0  0  0  0  0  0  0  0  0  0  0  0
   43.6963   11.4993   14.1833 C   0  0  2  0  0  0  0  0  0  0  0  0
   42.2543   11.2487   14.3996 N   0  0  0  0  0  0  0  0  0  0  0  0
   43.9365   12.0104   12.7470 C   0  0  1  0  0  0  0  0  0  0  0  0
   43.2273   13.2435   12.5332 O   0  0  0  0  0  0  0  0  0  0  0  0
   45.4440   12.2437   12.5702 C   0  0  2  0  0  0  0  0  0  0  0  0
   45.7037   12.7058   11.2372 O   0  0  0  0  0  0  0  0  0  0  0  0
   46.1786   10.8985   12.8119 C   0  0  2  0  0  0  0  0  0  0  0  0
   45.9148   10.4149   14.1605 O   0  0  0  0  0  0  0  0  0  0  0  0
   47.6950   11.1052   12.6535 C   0  0  0  0  0  0  0  0  0  0  0  0
   47.9759   11.6597   11.3554 O   0  0  0  0  0  0  0  0  0  0  0  0
  1  2  1  6  0  0  0
  1  3  1  0  0  0  0
  1  4  2  0  0  0  0
  1 16  1  0  0  0  0
  5  6  1  6  0  0  0
  5  7  1  0  0  0  0
  5 14  1  0  0  0  0
  7  8  1  6  0  0  0
  7  9  1  0  0  0  0
  9 10  1  1  0  0  0
  9 11  1  0  0  0  0
 11 12  1  6  0  0  0
 11 13  1  0  0  0  0
 13 14  1  0  0  0  0
 13 15  1  1  0  0  0
 15 16  1  0  0  0  0
M  CHG  1   3  -1
M  END
>  <CHROM.1>
-56.11602347,174.17816762,95.61633762,46.57242907,11.59911127,12.45508780
-0.32648427,-0.24838118,2.53678463

>  <Name>
ligand

>  <RI>
0

>  <Rbt.Current_Directory>
/home/itssahil/PROJECTS/Mol_Feturizer/New_Systems/rnas/3B4B

>  <Rbt.Executable>
rbdock ($Id: //depot/dev/client3/rdock/2013.1/src/exe/rbdock.cxx#4 $)

>  <Rbt.Library>
libRbt.so (2013.1, Build901 2013/11/27)

>  <Rbt.Parameter_File>
/export/apps/rDock/src/rDock_2013.1_src/data/scripts/dock_solv.prm

>  <Rbt.Receptor>
prm/pocket_docking_2.prm

>  <SCORE>
-6.40461

>  <SCORE.INTER>
-6.94622

>  <SCORE.INTER.CONST>
1

>  <SCORE.INTER.POLAR>
-0.9

>  <SCORE.INTER.ROT>
3

>  <SCORE.INTER.SOLV>
17.1181

>  <SCORE.INTER.VDW>
-12.9369

>  <SCORE.INTER.norm>
-0.434139

>  <SCORE.INTRA>
0.541604

>  <SCORE.INTRA.DIHEDRAL>
-0.444146

>  <SCORE.INTRA.DIHEDRAL.0>
2.21864

>  <SCORE.INTRA.POLAR>
0

>  <SCORE.INTRA.POLAR.0>
0

>  <SCORE.INTRA.REPUL>
0

>  <SCORE.INTRA.REPUL.0>
0

>  <SCORE.INTRA.SOLV>
-0.094839

>  <SCORE.INTRA.SOLV.lig_0>
-58.5963

>  <SCORE.INTRA.VDW>
0.811097

>  <SCORE.INTRA.VDW.0>
-0.437849

>  <SCORE.INTRA.norm>
0.0338503

>  <SCORE.RESTR>
0

>  <SCORE.RESTR.CAVITY>
0

>  <SCORE.RESTR.norm>
0

>  <SCORE.SYSTEM>
0

>  <SCORE.SYSTEM.CONST>
0

>  <SCORE.SYSTEM.DIHEDRAL>
0

>  <SCORE.SYSTEM.SOLV>
0

>  <SCORE.SYSTEM.norm>
0

>  <SCORE.heavy>
16

>  <SCORE.norm>
-0.400288

>  <RMSD>
1.159

$$$$
ligand
 OpenBabel11021811463D
libRbt.so/2013.1/901 2013/11/27
 16 16  0  0  0  0  0  0  0  0999 V2000
   49.7404   11.9563   11.8817 P   0  0  2  0  0  0  0  0  0  0  0  0
   50.5533   11.6964   13.0952 O   0  0  0  0  0  0  0  0  0  0  0  0
   50.0550   10.8541   10.7516 O   0  5  0  0  0  0  0  0  0  0  0  0
   50.1150   13.4187   11.2942 O   0  0  0  0  0  0  0  0  0  0  0  0
   44.8764   11.0626   14.8116 C   0  0  2  0  0  0  0  0  0  0  0  0
   44.5042    9.6971   15.0492 O   0  0  0  0  0  0  0  0  0  0  0  0
   43.9082   11.7526   13.8096 C   0  0  2  0  0  0  0  0  0  0  0  0
   42.5239   11.6914   14.3283 N   0  0  0  0  0  0  0  0  0  0  0  0
   43.9996   11.0212   12.4537 C   0  0  1  0  0  0  0  0  0  0  0  0
   43.1298   11.6451   11.4928 O   0  0  0  0  0  0  0  0  0  0  0  0
   45.4532   11.1032   11.9651 C   0  0  2  0  0  0  0  0  0  0  0  0
   45.5760   10.4178   10.7109 O   0  0  0  0  0  0  0  0  0  0  0  0
   46.3638   10.4274   13.0241 C   0  0  2  0  0  0  0  0  0  0  0  0
   46.2406   11.1101   14.3050 O   0  0  0  0  0  0  0  0  0  0  0  0
   47.8306   10.5060   12.5662 C   0  0  0  0  0  0  0  0  0  0  0  0
   48.1775   11.8737   12.2826 O   0  0  0  0  0  0  0  0  0  0  0  0
  1  2  1  1  0  0  0
  1  3  1  0  0  0  0
  1  4  2  0  0  0  0
  1 16  1  0  0  0  0
  5  6  1  6  0  0  0
  5  7  1  0  0  0  0
  5 14  1  0  0  0  0
  7  8  1  1  0  0  0
  7  9  1  0  0  0  0
  9 10  1  6  0  0  0
  9 11  1  0  0  0  0
 11 12  1  6  0  0  0
 11 13  1  0  0  0  0
 13 14  1  0  0  0  0
 13 15  1  6  0  0  0
 15 16  1  0  0  0  0
M  CHG  1   3  -1
M  END
>  <CHROM.1>
54.16198038,176.90147642,-70.35373561,46.74644353,11.31956317,12.64871523
-0.29396920,0.09496191,1.72098007

>  <Name>
ligand

>  <RI>
0

>  <Rbt.Current_Directory>
/home/itssahil/PROJECTS/Mol_Feturizer/New_Systems/rnas/3B4B

>  <Rbt.Executable>
rbdock ($Id: //depot/dev/client3/rdock/2013.1/src/exe/rbdock.cxx#4 $)

>  <Rbt.Library>
libRbt.so (2013.1, Build901 2013/11/27)

>  <Rbt.Parameter_File>
/export/apps/rDock/src/rDock_2013.1_src/data/scripts/dock_solv.prm

>  <Rbt.Receptor>
prm/pocket_docking_2.prm

>  <SCORE>
-9.99981

>  <SCORE.INTER>
-8.57213

>  <SCORE.INTER.CONST>
1

>  <SCORE.INTER.POLAR>
-1.12292

>  <SCORE.INTER.ROT>
3

>  <SCORE.INTER.SOLV>
18.5913

>  <SCORE.INTER.VDW>
-13.7688

>  <SCORE.INTER.norm>
-0.535758

>  <SCORE.INTRA>
-1.42768

>  <SCORE.INTRA.DIHEDRAL>
-1.8801

>  <SCORE.INTRA.DIHEDRAL.0>
2.21864

>  <SCORE.INTRA.POLAR>
0

>  <SCORE.INTRA.POLAR.0>
0

>  <SCORE.INTRA.REPUL>
0

>  <SCORE.INTRA.REPUL.0>
0

>  <SCORE.INTRA.SOLV>
-0.811841

>  <SCORE.INTRA.SOLV.lig_0>
-58.5963

>  <SCORE.INTRA.VDW>
-0.0817142

>  <SCORE.INTRA.VDW.0>
-0.437849

>  <SCORE.INTRA.norm>
-0.0892303

>  <SCORE.RESTR>
0

>  <SCORE.RESTR.CAVITY>
0

>  <SCORE.RESTR.norm>
0

>  <SCORE.SYSTEM>
0

>  <SCORE.SYSTEM.CONST>
0

>  <SCORE.SYSTEM.DIHEDRAL>
0

>  <SCORE.SYSTEM.SOLV>
0

>  <SCORE.SYSTEM.norm>
0

>  <SCORE.heavy>
16

>  <SCORE.norm>
-0.624988

>  <RMSD>
1.165

$$$$
ligand
 OpenBabel11021811463D
libRbt.so/2013.1/901 2013/11/27
 16 16  0  0  0  0  0  0  0  0999 V2000
   49.7484   11.9676   11.8644 P   0  0  2  0  0  0  0  0  0  0  0  0
   50.5314   11.7159   13.0992 O   0  0  0  0  0  0  0  0  0  0  0  0
   50.1042   10.8688   10.7433 O   0  5  0  0  0  0  0  0  0  0  0  0
   50.1235   13.4339   11.2868 O   0  0  0  0  0  0  0  0  0  0  0  0
   44.8617   11.0619   14.7820 C   0  0  2  0  0  0  0  0  0  0  0  0
   44.4931    9.6952   15.0182 O   0  0  0  0  0  0  0  0  0  0  0  0
   43.9063   11.7431   13.7617 C   0  0  2  0  0  0  0  0  0  0  0  0
   42.5140   11.6760   14.2579 N   0  0  0  0  0  0  0  0  0  0  0  0
   44.0240   11.0076   12.4101 C   0  0  1  0  0  0  0  0  0  0  0  0
   43.1667   11.6234   11.4329 O   0  0  0  0  0  0  0  0  0  0  0  0
   45.4849   11.0960   11.9452 C   0  0  2  0  0  0  0  0  0  0  0  0
   45.6321   10.4070   10.6956 O   0  0  0  0  0  0  0  0  0  0  0  0
   46.3817   10.4288   13.0214 C   0  0  2  0  0  0  0  0  0  0  0  0
   46.2337   11.1152   14.2977 O   0  0  0  0  0  0  0  0  0  0  0  0
   47.8554   10.5140   12.5873 C   0  0  0  0  0  0  0  0  0  0  0  0
   48.1763   11.8691   12.2237 O   0  0  0  0  0  0  0  0  0  0  0  0
  1  2  1  1  0  0  0
  1  3  1  0  0  0  0
  1  4  2  0  0  0  0
  1 16  1  0  0  0  0
  5  6  1  6  0  0  0
  5  7  1  0  0  0  0
  5 14  1  0  0  0  0
  7  8  1  1  0  0  0
  7  9  1  0  0  0  0
  9 10  1  6  0  0  0
  9 11  1  0  0  0  0
 11 12  1  6  0  0  0
 11 13  1  0  0  0  0
 13 14  1  0  0  0  0
 13 15  1  6  0  0  0
 15 16  1  0  0  0  0
M  CHG  1   3  -1
M  END
>  <CHROM.1>
50.55820856,176.25809186,-66.44998967,46.75816416,11.31998790,12.62473938
-0.29190251,0.09865609,1.72266886

>  <Name>
ligand

>  <RI>
0

>  <Rbt.Current_Directory>
/home/itssahil/PROJECTS/Mol_Feturizer/New_Systems/rnas/3B4B

>  <Rbt.Executable>
rbdock ($Id: //depot/dev/client3/rdock/2013.1/src/exe/rbdock.cxx#4 $)

>  <Rbt.Library>
libRbt.so (2013.1, Build901 2013/11/27)

>  <Rbt.Parameter_File>
/export/apps/rDock/src/rDock_2013.1_src/data/scripts/dock_solv.prm

>  <Rbt.Receptor>
prm/pocket_docking_2.prm

>  <SCORE>
-9.88989

>  <SCORE.INTER>
-8.5253

>  <SCORE.INTER.CONST>
1

>  <SCORE.INTER.POLAR>
-1.12341

>  <SCORE.INTER.ROT>
3

>  <SCORE.INTER.SOLV>
18.3023

>  <SCORE.INTER.VDW>
-13.6396

>  <SCORE.INTER.norm>
-0.532831

>  <SCORE.INTRA>
-1.36459

>  <SCORE.INTRA.DIHEDRAL>
-1.76856

>  <SCORE.INTRA.DIHEDRAL.0>
2.21864

>  <SCORE.INTRA.POLAR>
0

>  <SCORE.INTRA.POLAR.0>
0

>  <SCORE.INTRA.REPUL>
0

>  <SCORE.INTRA.REPUL.0>
0

>  <SCORE.INTRA.SOLV>
-0.850206

>  <SCORE.INTRA.SOLV.lig_0>
-58.5963

>  <SCORE.INTRA.VDW>
-0.0552093

>  <SCORE.INTRA.VDW.0>
-0.437849

>  <SCORE.INTRA.norm>
-0.0852869

>  <SCORE.RESTR>
0

>  <SCORE.RESTR.CAVITY>
0

>  <SCORE.RESTR.norm>
0

>  <SCORE.SYSTEM>
0

>  <SCORE.SYSTEM.CONST>
0

>  <SCORE.SYSTEM.DIHEDRAL>
0

>  <SCORE.SYSTEM.SOLV>
0

>  <SCORE.SYSTEM.norm>
0

>  <SCORE.heavy>
16

>  <SCORE.norm>
-0.618118

>  <RMSD>
1.166

$$$$
ligand
 OpenBabel11021811463D
libRbt.so/2013.1/901 2013/11/27
 16 16  0  0  0  0  0  0  0  0999 V2000
   49.7832   11.8474   11.9325 P   0  0  2  0  0  0  0  0  0  0  0  0
   50.5836   11.4355   13.1118 O   0  0  0  0  0  0  0  0  0  0  0  0
   50.0373   10.8381   10.7045 O   0  5  0  0  0  0  0  0  0  0  0  0
   50.2332   13.3358   11.4782 O   0  0  0  0  0  0  0  0  0  0  0  0
   44.8759   11.1014   14.7943 C   0  0  2  0  0  0  0  0  0  0  0  0
   44.4739    9.7481   15.0523 O   0  0  0  0  0  0  0  0  0  0  0  0
   43.9232   11.7972   13.7815 C   0  0  2  0  0  0  0  0  0  0  0  0
   42.5378   11.7741   14.3005 N   0  0  0  0  0  0  0  0  0  0  0  0
   43.9986   11.0435   12.4369 C   0  0  1  0  0  0  0  0  0  0  0  0
   43.1427   11.6717   11.4663 O   0  0  0  0  0  0  0  0  0  0  0  0
   45.4536   11.0863   11.9477 C   0  0  2  0  0  0  0  0  0  0  0  0
   45.5615   10.3795   10.7040 O   0  0  0  0  0  0  0  0  0  0  0  0
   46.3492   10.4068   13.0171 C   0  0  2  0  0  0  0  0  0  0  0  0
   46.2408   11.1114   14.2875 O   0  0  0  0  0  0  0  0  0  0  0  0
   47.8174   10.4464   12.5587 C   0  0  0  0  0  0  0  0  0  0  0  0
   48.2189   11.8103   12.3346 O   0  0  0  0  0  0  0  0  0  0  0  0
  1  2  1  1  0  0  0
  1  3  1  0  0  0  0
  1  4  2  0  0  0  0
  1 16  1  0  0  0  0
  5  6  1  6  0  0  0
  5  7  1  0  0  0  0
  5 14  1  0  0  0  0
  7  8  1  1  0  0  0
  7  9  1  0  0  0  0
  9 10  1  6  0  0  0
  9 11  1  0  0  0  0
 11 12  1  6  0  0  0
 11 13  1  0  0  0  0
 13 14  1  0  0  0  0
 13 15  1  6  0  0  0
 15 16  1  0  0  0  0
M  CHG  1   3  -1
M  END
>  <CHROM.1>
57.72445625,176.91809187,-67.56191154,46.76061268,11.28670626,12.65853030
-0.27381990,0.07906331,1.69487716

>  <Name>
ligand

>  <RI>
0

>  <Rbt.Current_Directory>
/home/itssahil/PROJECTS/Mol_Feturizer/New_Systems/rnas/3B4B

>  <Rbt.Executable>
rbdock ($Id: //depot/dev/client3/rdock/2013.1/src/exe/rbdock.cxx#4 $)

>  <Rbt.Library>
libRbt.so (2013.1, Build901 2013/11/27)

>  <Rbt.Parameter_File>
/export/apps/rDock/src/rDock_2013.1_src/data/scripts/dock_solv.prm

>  <Rbt.Receptor>
prm/pocket_docking_2.prm

>  <SCORE>
-10.0113

>  <SCORE.INTER>
-8.41608

>  <SCORE.INTER.CONST>
1

>  <SCORE.INTER.POLAR>
-1.125

>  <SCORE.INTER.ROT>
3

>  <SCORE.INTER.SOLV>
18.8707

>  <SCORE.INTER.VDW>
-13.7509

>  <SCORE.INTER.norm>
-0.526005

>  <SCORE.INTRA>
-1.59522

>  <SCORE.INTRA.DIHEDRAL>
-2.06224

>  <SCORE.INTRA.DIHEDRAL.0>
2.21864

>  <SCORE.INTRA.POLAR>
0

>  <SCORE.INTRA.POLAR.0>
0

>  <SCORE.INTRA.REPUL>
0

>  <SCORE.INTRA.REPUL.0>
0

>  <SCORE.INTRA.SOLV>
-0.842925

>  <SCORE.INTRA.SOLV.lig_0>
-58.5963

>  <SCORE.INTRA.VDW>
-0.142636

>  <SCORE.INTRA.VDW.0>
-0.437849

>  <SCORE.INTRA.norm>
-0.0997013

>  <SCORE.RESTR>
0

>  <SCORE.RESTR.CAVITY>
0

>  <SCORE.RESTR.norm>
0

>  <SCORE.SYSTEM>
0

>  <SCORE.SYSTEM.CONST>
0

>  <SCORE.SYSTEM.DIHEDRAL>
0

>  <SCORE.SYSTEM.SOLV>
0

>  <SCORE.SYSTEM.norm>
0

>  <SCORE.heavy>
16

>  <SCORE.norm>
-0.625706

>  <RMSD>
1.168

$$$$
ligand
 OpenBabel11021811463D
libRbt.so/2013.1/901 2013/11/27
 16 16  0  0  0  0  0  0  0  0999 V2000
   49.3239   12.0829   11.1354 P   0  0  2  0  0  0  0  0  0  0  0  0
   48.9312   11.8815    9.7190 O   0  0  0  0  0  0  0  0  0  0  0  0
   50.0456   13.5100   11.3179 O   0  5  0  0  0  0  0  0  0  0  0  0
   50.3645   10.9196   11.5690 O   0  0  0  0  0  0  0  0  0  0  0  0
   44.9596   10.9379   14.7761 C   0  0  2  0  0  0  0  0  0  0  0  0
   44.2911    9.6800   14.6012 O   0  0  0  0  0  0  0  0  0  0  0  0
   44.0681   12.1271   14.3194 C   0  0  2  0  0  0  0  0  0  0  0  0
   42.7988   12.1219   15.0798 N   0  0  0  0  0  0  0  0  0  0  0  0
   43.7830   11.9775   12.8101 C   0  0  1  0  0  0  0  0  0  0  0  0
   42.9746   13.0732   12.3460 O   0  0  0  0  0  0  0  0  0  0  0  0
   45.1280   11.9772   12.0689 C   0  0  2  0  0  0  0  0  0  0  0  0
   44.8987   11.8239   10.6612 O   0  0  0  0  0  0  0  0  0  0  0  0
   45.9759   10.7891   12.5952 C   0  0  2  0  0  0  0  0  0  0  0  0
   46.2078   10.9297   14.0265 O   0  0  0  0  0  0  0  0  0  0  0  0
   47.3369   10.7713   11.8778 C   0  0  0  0  0  0  0  0  0  0  0  0
   47.9919   12.0414   12.0489 O   0  0  0  0  0  0  0  0  0  0  0  0
  1  2  1  6  0  0  0
  1  3  1  0  0  0  0
  1  4  2  0  0  0  0
  1 16  1  0  0  0  0
  5  6  1  6  0  0  0
  5  7  1  0  0  0  0
  5 14  1  0  0  0  0
  7  8  1  1  0  0  0
  7  9  1  0  0  0  0
  9 10  1  6  0  0  0
  9 11  1  0  0  0  0
 11 12  1  6  0  0  0
 11 13  1  0  0  0  0
 13 14  1  0  0  0  0
 13 15  1  6  0  0  0
 15 16  1  0  0  0  0
M  CHG  1   3  -1
M  END
>  <CHROM.1>
55.76029519,-172.60273928,59.14637956,46.47967722,11.69957115,12.41574463
-0.42386474,-0.20209178,2.13699051

>  <Name>
ligand

>  <RI>
0

>  <Rbt.Current_Directory>
/home/itssahil/PROJECTS/Mol_Feturizer/New_Systems/rnas/3B4B

>  <Rbt.Executable>
rbdock ($Id: //depot/dev/client3/rdock/2013.1/src/exe/rbdock.cxx#4 $)

>  <Rbt.Library>
libRbt.so (2013.1, Build901 2013/11/27)

>  <Rbt.Parameter_File>
/export/apps/rDock/src/rDock_2013.1_src/data/scripts/dock_solv.prm

>  <Rbt.Receptor>
prm/pocket_docking_8.prm

>  <SCORE>
-9.69268

>  <SCORE.INTER>
-8.11634

>  <SCORE.INTER.CONST>
1

>  <SCORE.INTER.POLAR>
-1.125

>  <SCORE.INTER.ROT>
3

>  <SCORE.INTER.SOLV>
18.4453

>  <SCORE.INTER.VDW>
-13.4093

>  <SCORE.INTER.norm>
-0.507271

>  <SCORE.INTRA>
-1.57634

>  <SCORE.INTRA.DIHEDRAL>
-1.88632

>  <SCORE.INTRA.DIHEDRAL.0>
2.21864

>  <SCORE.INTRA.POLAR>
0

>  <SCORE.INTRA.POLAR.0>
0

>  <SCORE.INTRA.REPUL>
0

>  <SCORE.INTRA.REPUL.0>
0

>  <SCORE.INTRA.SOLV>
-0.923538

>  <SCORE.INTRA.SOLV.lig_0>
-58.5963

>  <SCORE.INTRA.VDW>
-0.171407

>  <SCORE.INTRA.VDW.0>
-0.437849

>  <SCORE.INTRA.norm>
-0.0985212

>  <SCORE.RESTR>
0

>  <SCORE.RESTR.CAVITY>
0

>  <SCORE.RESTR.norm>
0

>  <SCORE.SYSTEM>
0

>  <SCORE.SYSTEM.CONST>
0

>  <SCORE.SYSTEM.DIHEDRAL>
0

>  <SCORE.SYSTEM.SOLV>
0

>  <SCORE.SYSTEM.norm>
0

>  <SCORE.heavy>
16

>  <SCORE.norm>
-0.605792

>  <RMSD>
1.186

$$$$
ligand
 OpenBabel11021811463D
libRbt.so/2013.1/901 2013/11/27
 16 16  0  0  0  0  0  0  0  0999 V2000
   49.3412   11.6780   11.0183 P   0  0  2  0  0  0  0  0  0  0  0  0
   50.5701   10.9708   11.4551 O   0  0  0  0  0  0  0  0  0  0  0  0
   49.3803   11.9373    9.4301 O   0  5  0  0  0  0  0  0  0  0  0  0
   49.2550   13.1092   11.7723 O   0  0  0  0  0  0  0  0  0  0  0  0
   44.6014   10.9202   14.7576 C   0  0  2  0  0  0  0  0  0  0  0  0
   44.0460    9.6607   14.3518 O   0  0  0  0  0  0  0  0  0  0  0  0
   43.8869   12.1114   14.0589 C   0  0  2  0  0  0  0  0  0  0  0  0
   42.4400   12.0771   14.3661 N   0  0  0  0  0  0  0  0  0  0  0  0
   44.1088   11.9939   12.5361 C   0  0  1  0  0  0  0  0  0  0  0  0
   43.4770   13.0925   11.8556 O   0  0  0  0  0  0  0  0  0  0  0  0
   45.6213   12.0229   12.2715 C   0  0  2  0  0  0  0  0  0  0  0  0
   45.8632   11.8999   10.8628 O   0  0  0  0  0  0  0  0  0  0  0  0
   46.2719   10.8308   13.0220 C   0  0  2  0  0  0  0  0  0  0  0  0
   46.0251   10.9407   14.4534 O   0  0  0  0  0  0  0  0  0  0  0  0
   47.7921   10.8420   12.7847 C   0  0  0  0  0  0  0  0  0  0  0  0
   48.0634   10.7556   11.3739 O   0  0  0  0  0  0  0  0  0  0  0  0
  1  2  1  1  0  0  0
  1  3  1  0  0  0  0
  1  4  2  0  0  0  0
  1 16  1  0  0  0  0
  5  6  1  6  0  0  0
  5  7  1  0  0  0  0
  5 14  1  0  0  0  0
  7  8  1  6  0  0  0
  7  9  1  0  0  0  0
  9 10  1  6  0  0  0
  9 11  1  0  0  0  0
 11 12  1  6  0  0  0
 11 13  1  0  0  0  0
 13 14  1  0  0  0  0
 13 15  1  1  0  0  0
 15 16  1  0  0  0  0
M  CHG  1   3  -1
M  END
>  <CHROM.1>
-58.66042947,142.83967388,76.48745725,46.57878362,11.56018008,12.36948680
0.39106740,0.26609867,-0.95744479

>  <Name>
ligand

>  <RI>
0

>  <Rbt.Current_Directory>
/home/itssahil/PROJECTS/Mol_Feturizer/New_Systems/rnas/3B4B

>  <Rbt.Executable>
rbdock ($Id: //depot/dev/client3/rdock/2013.1/src/exe/rbdock.cxx#4 $)

>  <Rbt.Library>
libRbt.so (2013.1, Build901 2013/11/27)

>  <Rbt.Parameter_File>
/export/apps/rDock/src/rDock_2013.1_src/data/scripts/dock_solv.prm

>  <Rbt.Receptor>
prm/pocket_docking_2.prm

>  <SCORE>
-4.85469

>  <SCORE.INTER>
-7.07373

>  <SCORE.INTER.CONST>
1

>  <SCORE.INTER.POLAR>
-0.898915

>  <SCORE.INTER.ROT>
3

>  <SCORE.INTER.SOLV>
17.7101

>  <SCORE.INTER.VDW>
-13.2228

>  <SCORE.INTER.norm>
-0.442108

>  <SCORE.INTRA>
2.21904

>  <SCORE.INTRA.DIHEDRAL>
3.13111

>  <SCORE.INTRA.DIHEDRAL.0>
2.21864

>  <SCORE.INTRA.POLAR>
0

>  <SCORE.INTRA.POLAR.0>
0

>  <SCORE.INTRA.REPUL>
0

>  <SCORE.INTRA.REPUL.0>
0

>  <SCORE.INTRA.SOLV>
1.30923

>  <SCORE.INTRA.SOLV.lig_0>
-58.5963

>  <SCORE.INTRA.VDW>
-0.00113144

>  <SCORE.INTRA.VDW.0>
-0.437849

>  <SCORE.INTRA.norm>
0.13869

>  <SCORE.RESTR>
0

>  <SCORE.RESTR.CAVITY>
0

>  <SCORE.RESTR.norm>
0

>  <SCORE.SYSTEM>
0

>  <SCORE.SYSTEM.CONST>
0

>  <SCORE.SYSTEM.DIHEDRAL>
0

>  <SCORE.SYSTEM.SOLV>
0

>  <SCORE.SYSTEM.norm>
0

>  <SCORE.heavy>
16

>  <SCORE.norm>
-0.303418

>  <RMSD>
1.195

$$$$
ligand
 OpenBabel11021811463D
libRbt.so/2013.1/901 2013/11/27
 16 16  0  0  0  0  0  0  0  0999 V2000
   49.2857   12.0011   11.0022 P   0  0  2  0  0  0  0  0  0  0  0  0
   48.8755   11.6399    9.6230 O   0  0  0  0  0  0  0  0  0  0  0  0
   49.9473   13.4684   11.0224 O   0  5  0  0  0  0  0  0  0  0  0  0
   50.3847   10.9327   11.5269 O   0  0  0  0  0  0  0  0  0  0  0  0
   44.9798   11.0666   14.8041 C   0  0  2  0  0  0  0  0  0  0  0  0
   44.3788    9.7636   14.7774 O   0  0  0  0  0  0  0  0  0  0  0  0
   44.0374   12.1430   14.1952 C   0  0  2  0  0  0  0  0  0  0  0  0
   42.7569   12.1642   14.9363 N   0  0  0  0  0  0  0  0  0  0  0  0
   43.7866   11.7959   12.7125 C   0  0  1  0  0  0  0  0  0  0  0  0
   42.9321   12.7831   12.1086 O   0  0  0  0  0  0  0  0  0  0  0  0
   45.1426   11.7755   11.9920 C   0  0  2  0  0  0  0  0  0  0  0  0
   44.9460   11.4401   10.6112 O   0  0  0  0  0  0  0  0  0  0  0  0
   46.0402   10.7064   12.6694 C   0  0  2  0  0  0  0  0  0  0  0  0
   46.2396   11.0323   14.0751 O   0  0  0  0  0  0  0  0  0  0  0  0
   47.4127   10.6726   11.9748 C   0  0  0  0  0  0  0  0  0  0  0  0
   47.9745   11.9973   11.9461 O   0  0  0  0  0  0  0  0  0  0  0  0
  1  2  1  6  0  0  0
  1  3  1  0  0  0  0
  1  4  2  0  0  0  0
  1 16  1  0  0  0  0
  5  6  1  6  0  0  0
  5  7  1  0  0  0  0
  5 14  1  0  0  0  0
  7  8  1  1  0  0  0
  7  9  1  0  0  0  0
  9 10  1  6  0  0  0
  9 11  1  0  0  0  0
 11 12  1  6  0  0  0
 11 13  1  0  0  0  0
 13 14  1  0  0  0  0
 13 15  1  6  0  0  0
 15 16  1  0  0  0  0
M  CHG  1   3  -1
M  END
>  <CHROM.1>
53.34981172,-170.44638607,62.10369107,46.47888824,11.61889250,12.34864714
0.45587191,0.16098297,-1.12151089

>  <Name>
ligand

>  <RI>
0

>  <Rbt.Current_Directory>
/home/itssahil/PROJECTS/Mol_Feturizer/New_Systems/rnas/3B4B

>  <Rbt.Executable>
rbdock ($Id: //depot/dev/client3/rdock/2013.1/src/exe/rbdock.cxx#4 $)

>  <Rbt.Library>
libRbt.so (2013.1, Build901 2013/11/27)

>  <Rbt.Parameter_File>
/export/apps/rDock/src/rDock_2013.1_src/data/scripts/dock_solv.prm

>  <Rbt.Receptor>
prm/pocket_docking_3.prm

>  <SCORE>
-9.77318

>  <SCORE.INTER>
-8.35923

>  <SCORE.INTER.CONST>
1

>  <SCORE.INTER.POLAR>
-1.1216

>  <SCORE.INTER.ROT>
3

>  <SCORE.INTER.SOLV>
17.7671

>  <SCORE.INTER.VDW>
-13.3565

>  <SCORE.INTER.norm>
-0.522452

>  <SCORE.INTRA>
-1.41395

>  <SCORE.INTRA.DIHEDRAL>
-1.61168

>  <SCORE.INTRA.DIHEDRAL.0>
2.21864

>  <SCORE.INTRA.POLAR>
0

>  <SCORE.INTRA.POLAR.0>
0

>  <SCORE.INTRA.REPUL>
0

>  <SCORE.INTRA.REPUL.0>
0

>  <SCORE.INTRA.SOLV>
-0.857259

>  <SCORE.INTRA.SOLV.lig_0>
-58.5963

>  <SCORE.INTRA.VDW>
-0.179479

>  <SCORE.INTRA.VDW.0>
-0.437849

>  <SCORE.INTRA.norm>
-0.0883717

>  <SCORE.RESTR>
0

>  <SCORE.RESTR.CAVITY>
0

>  <SCORE.RESTR.norm>
0

>  <SCORE.SYSTEM>
0

>  <SCORE.SYSTEM.CONST>
0

>  <SCORE.SYSTEM.DIHEDRAL>
0

>  <SCORE.SYSTEM.SOLV>
0

>  <SCORE.SYSTEM.norm>
0

>  <SCORE.heavy>
16

>  <SCORE.norm>
-0.610824

>  <RMSD>
1.209

$$$$
ligand
 OpenBabel11021811463D
libRbt.so/2013.1/901 2013/11/27
 16 16  0  0  0  0  0  0  0  0999 V2000
   49.2758   12.2689   10.9796 P   0  0  2  0  0  0  0  0  0  0  0  0
   48.8500   12.4500    9.5700 O   0  0  0  0  0  0  0  0  0  0  0  0
   50.1825   13.5116   11.4536 O   0  5  0  0  0  0  0  0  0  0  0  0
   50.1552   10.9137   11.0993 O   0  0  0  0  0  0  0  0  0  0  0  0
   44.8639   10.9361   14.5167 C   0  0  2  0  0  0  0  0  0  0  0  0
   44.1160    9.7559   14.1888 O   0  0  0  0  0  0  0  0  0  0  0  0
   44.0526   12.2282   14.2172 C   0  0  2  0  0  0  0  0  0  0  0  0
   42.7832   12.2096   14.9771 N   0  0  0  0  0  0  0  0  0  0  0  0
   43.7633   12.2879   12.7024 C   0  0  1  0  0  0  0  0  0  0  0  0
   43.0290   13.4830   12.3833 O   0  0  0  0  0  0  0  0  0  0  0  0
   45.1078   12.2937   11.9605 C   0  0  2  0  0  0  0  0  0  0  0  0
   44.8737   12.3334   10.5457 O   0  0  0  0  0  0  0  0  0  0  0  0
   45.8755   10.9968   12.3294 C   0  0  2  0  0  0  0  0  0  0  0  0
   46.1113   10.9414   13.7659 O   0  0  0  0  0  0  0  0  0  0  0  0
   47.2349   10.9814   11.6088 C   0  0  0  0  0  0  0  0  0  0  0  0
   47.9566   12.1899   11.9089 O   0  0  0  0  0  0  0  0  0  0  0  0
  1  2  1  6  0  0  0
  1  3  1  0  0  0  0
  1  4  2  0  0  0  0
  1 16  1  0  0  0  0
  5  6  1  6  0  0  0
  5  7  1  0  0  0  0
  5 14  1  0  0  0  0
  7  8  1  1  0  0  0
  7  9  1  0  0  0  0
  9 10  1  1  0  0  0
  9 11  1  0  0  0  0
 11 12  1  6  0  0  0
 11 13  1  0  0  0  0
 13 14  1  0  0  0  0
 13 15  1  6  0  0  0
 15 16  1  0  0  0  0
M  CHG  1   3  -1
M  END
>  <CHROM.1>
54.38203300,-171.54089561,67.34239622,46.42686384,11.89636281,12.24513855
0.39503169,0.26027975,-0.86648421

>  <Name>
ligand

>  <RI>
0

>  <Rbt.Current_Directory>
/home/itssahil/PROJECTS/Mol_Feturizer/New_Systems/rnas/3B4B

>  <Rbt.Executable>
rbdock ($Id: //depot/dev/client3/rdock/2013.1/src/exe/rbdock.cxx#4 $)

>  <Rbt.Library>
libRbt.so (2013.1, Build901 2013/11/27)

>  <Rbt.Parameter_File>
/export/apps/rDock/src/rDock_2013.1_src/data/scripts/dock_solv.prm

>  <Rbt.Receptor>
prm/pocket_docking_3.prm

>  <SCORE>
-9.14093

>  <SCORE.INTER>
-7.69284

>  <SCORE.INTER.CONST>
1

>  <SCORE.INTER.POLAR>
-1.125

>  <SCORE.INTER.ROT>
3

>  <SCORE.INTER.SOLV>
17.1778

>  <SCORE.INTER.VDW>
-12.7045

>  <SCORE.INTER.norm>
-0.480802

>  <SCORE.INTRA>
-1.44809

>  <SCORE.INTRA.DIHEDRAL>
-1.6685

>  <SCORE.INTRA.DIHEDRAL.0>
2.21864

>  <SCORE.INTRA.POLAR>
0

>  <SCORE.INTRA.POLAR.0>
0

>  <SCORE.INTRA.REPUL>
0

>  <SCORE.INTRA.REPUL.0>
0

>  <SCORE.INTRA.SOLV>
-0.822033

>  <SCORE.INTRA.SOLV.lig_0>
-58.5963

>  <SCORE.INTRA.VDW>
-0.202829

>  <SCORE.INTRA.VDW.0>
-0.437849

>  <SCORE.INTRA.norm>
-0.0905059

>  <SCORE.RESTR>
0

>  <SCORE.RESTR.CAVITY>
0

>  <SCORE.RESTR.norm>
0

>  <SCORE.SYSTEM>
0

>  <SCORE.SYSTEM.CONST>
0

>  <SCORE.SYSTEM.DIHEDRAL>
0

>  <SCORE.SYSTEM.SOLV>
0

>  <SCORE.SYSTEM.norm>
0

>  <SCORE.heavy>
16

>  <SCORE.norm>
-0.571308

>  <RMSD>
1.231

$$$$
ligand
 OpenBabel11021811463D
libRbt.so/2013.1/901 2013/11/27
 16 16  0  0  0  0  0  0  0  0999 V2000
   49.3405   11.8098   10.8546 P   0  0  2  0  0  0  0  0  0  0  0  0
   49.5978   11.6925    9.3982 O   0  0  0  0  0  0  0  0  0  0  0  0
   49.4939   13.3407   11.3276 O   0  5  0  0  0  0  0  0  0  0  0  0
   50.4213   10.9107   11.6594 O   0  0  0  0  0  0  0  0  0  0  0  0
   44.5701   10.6105   14.6595 C   0  0  2  0  0  0  0  0  0  0  0  0
   44.1174    9.3967   14.0418 O   0  0  0  0  0  0  0  0  0  0  0  0
   43.6992   11.8267   14.2352 C   0  0  2  0  0  0  0  0  0  0  0  0
   42.2848   11.5780   14.5914 N   0  0  0  0  0  0  0  0  0  0  0  0
   43.8359   12.0221   12.7105 C   0  0  1  0  0  0  0  0  0  0  0  0
   43.0573   13.1535   12.2827 O   0  0  0  0  0  0  0  0  0  0  0  0
   45.3185   12.2648   12.3923 C   0  0  2  0  0  0  0  0  0  0  0  0
   45.4827   12.4356   10.9774 O   0  0  0  0  0  0  0  0  0  0  0  0
   46.1293   11.0311   12.8697 C   0  0  2  0  0  0  0  0  0  0  0  0
   45.9630   10.8426   14.3046 O   0  0  0  0  0  0  0  0  0  0  0  0
   47.6231   11.2521   12.5746 C   0  0  0  0  0  0  0  0  0  0  0  0
   47.8329   11.3111   11.1519 O   0  0  0  0  0  0  0  0  0  0  0  0
  1  2  1  6  0  0  0
  1  3  1  0  0  0  0
  1  4  2  0  0  0  0
  1 16  1  0  0  0  0
  5  6  1  6  0  0  0
  5  7  1  0  0  0  0
  5 14  1  0  0  0  0
  7  8  1  6  0  0  0
  7  9  1  0  0  0  0
  9 10  1  1  0  0  0
  9 11  1  0  0  0  0
 11 12  1  6  0  0  0
 11 13  1  0  0  0  0
 13 14  1  0  0  0  0
 13 15  1  1  0  0  0
 15 16  1  0  0  0  0
M  CHG  1   3  -1
M  END
>  <CHROM.1>
-65.12710000,169.69706068,172.56008823,46.46697041,11.61053619,12.33550436
0.38554659,0.28453419,-0.83526637

>  <Name>
ligand

>  <RI>
0

>  <Rbt.Current_Directory>
/home/itssahil/PROJECTS/Mol_Feturizer/New_Systems/rnas/3B4B

>  <Rbt.Executable>
rbdock ($Id: //depot/dev/client3/rdock/2013.1/src/exe/rbdock.cxx#4 $)

>  <Rbt.Library>
libRbt.so (2013.1, Build901 2013/11/27)

>  <Rbt.Parameter_File>
/export/apps/rDock/src/rDock_2013.1_src/data/scripts/dock_solv.prm

>  <Rbt.Receptor>
prm/pocket_docking_2.prm

>  <SCORE>
-9.06131

>  <SCORE.INTER>
-8.32792

>  <SCORE.INTER.CONST>
1

>  <SCORE.INTER.POLAR>
-1.125

>  <SCORE.INTER.ROT>
3

>  <SCORE.INTER.SOLV>
17.3684

>  <SCORE.INTER.VDW>
-13.1914

>  <SCORE.INTER.norm>
-0.520495

>  <SCORE.INTRA>
-0.735235

>  <SCORE.INTRA.DIHEDRAL>
-1.52524

>  <SCORE.INTRA.DIHEDRAL.0>
2.21864

>  <SCORE.INTRA.POLAR>
0

>  <SCORE.INTRA.POLAR.0>
0

>  <SCORE.INTRA.REPUL>
0

>  <SCORE.INTRA.REPUL.0>
0

>  <SCORE.INTRA.SOLV>
0.366103

>  <SCORE.INTRA.SOLV.lig_0>
-58.5963

>  <SCORE.INTRA.VDW>
-0.155665

>  <SCORE.INTRA.VDW.0>
-0.437849

>  <SCORE.INTRA.norm>
-0.0459522

>  <SCORE.RESTR>
0.00184991

>  <SCORE.RESTR.CAVITY>
0.00184991

>  <SCORE.RESTR.norm>
0.00011562

>  <SCORE.SYSTEM>
0

>  <SCORE.SYSTEM.CONST>
0

>  <SCORE.SYSTEM.DIHEDRAL>
0

>  <SCORE.SYSTEM.SOLV>
0

>  <SCORE.SYSTEM.norm>
0

>  <SCORE.heavy>
16

>  <SCORE.norm>
-0.566332

>  <RMSD>
1.234

$$$$
ligand
 OpenBabel11021811463D
libRbt.so/2013.1/901 2013/11/27
 16 16  0  0  0  0  0  0  0  0999 V2000
   49.2746   11.9970   10.8617 P   0  0  2  0  0  0  0  0  0  0  0  0
   48.9634   11.6345    9.4572 O   0  0  0  0  0  0  0  0  0  0  0  0
   49.9258   13.4676   10.9283 O   0  5  0  0  0  0  0  0  0  0  0  0
   50.3397   10.9339   11.4615 O   0  0  0  0  0  0  0  0  0  0  0  0
   45.0376   10.9934   14.6129 C   0  0  2  0  0  0  0  0  0  0  0  0
   44.4784    9.6717   14.6205 O   0  0  0  0  0  0  0  0  0  0  0  0
   44.0264   12.0384   14.0624 C   0  0  2  0  0  0  0  0  0  0  0  0
   42.7923   12.0189   14.8784 N   0  0  0  0  0  0  0  0  0  0  0  0
   43.6991   11.6823   12.5969 C   0  0  1  0  0  0  0  0  0  0  0  0
   42.7788   12.6409   12.0461 O   0  0  0  0  0  0  0  0  0  0  0  0
   45.0098   11.7051   11.7969 C   0  0  2  0  0  0  0  0  0  0  0  0
   44.7422   11.3624   10.4299 O   0  0  0  0  0  0  0  0  0  0  0  0
   45.9801   10.6660   12.4185 C   0  0  2  0  0  0  0  0  0  0  0  0
   46.2523   10.9993   13.8102 O   0  0  0  0  0  0  0  0  0  0  0  0
   47.3092   10.6759   11.6434 C   0  0  0  0  0  0  0  0  0  0  0  0
   47.9008   11.9861   11.7118 O   0  0  0  0  0  0  0  0  0  0  0  0
  1  2  1  6  0  0  0
  1  3  1  0  0  0  0
  1  4  2  0  0  0  0
  1 16  1  0  0  0  0
  5  6  1  6  0  0  0
  5  7  1  0  0  0  0
  5 14  1  0  0  0  0
  7  8  1  1  0  0  0
  7  9  1  0  0  0  0
  9 10  1  6  0  0  0
  9 11  1  0  0  0  0
 11 12  1  6  0  0  0
 11 13  1  0  0  0  0
 13 14  1  0  0  0  0
 13 15  1  6  0  0  0
 15 16  1  0  0  0  0
M  CHG  1   3  -1
M  END
>  <CHROM.1>
59.81742859,-178.46210915,59.14808720,46.44281449,11.56680679,12.18623589
-0.46018063,-0.12483389,1.98169931

>  <Name>
ligand

>  <RI>
0

>  <Rbt.Current_Directory>
/home/itssahil/PROJECTS/Mol_Feturizer/New_Systems/rnas/3B4B

>  <Rbt.Executable>
rbdock ($Id: //depot/dev/client3/rdock/2013.1/src/exe/rbdock.cxx#4 $)

>  <Rbt.Library>
libRbt.so (2013.1, Build901 2013/11/27)

>  <Rbt.Parameter_File>
/export/apps/rDock/src/rDock_2013.1_src/data/scripts/dock_solv.prm

>  <Rbt.Receptor>
prm/pocket_docking_4.prm

>  <SCORE>
-9.88338

>  <SCORE.INTER>
-8.12051

>  <SCORE.INTER.CONST>
1

>  <SCORE.INTER.POLAR>
-1.12388

>  <SCORE.INTER.ROT>
3

>  <SCORE.INTER.SOLV>
16.9649

>  <SCORE.INTER.VDW>
-12.9224

>  <SCORE.INTER.norm>
-0.507532

>  <SCORE.INTRA>
-1.76287

>  <SCORE.INTRA.DIHEDRAL>
-2.2054

>  <SCORE.INTRA.DIHEDRAL.0>
2.21864

>  <SCORE.INTRA.POLAR>
0

>  <SCORE.INTRA.POLAR.0>
0

>  <SCORE.INTRA.REPUL>
0

>  <SCORE.INTRA.REPUL.0>
0

>  <SCORE.INTRA.SOLV>
-0.950357

>  <SCORE.INTRA.SOLV.lig_0>
-58.5963

>  <SCORE.INTRA.VDW>
-0.184988

>  <SCORE.INTRA.VDW.0>
-0.437849

>  <SCORE.INTRA.norm>
-0.110179

>  <SCORE.RESTR>
0

>  <SCORE.RESTR.CAVITY>
0

>  <SCORE.RESTR.norm>
0

>  <SCORE.SYSTEM>
0

>  <SCORE.SYSTEM.CONST>
0

>  <SCORE.SYSTEM.DIHEDRAL>
0

>  <SCORE.SYSTEM.SOLV>
0

>  <SCORE.SYSTEM.norm>
0

>  <SCORE.heavy>
16

>  <SCORE.norm>
-0.617711

>  <RMSD>
1.236

$$$$
ligand
 OpenBabel11021811463D
libRbt.so/2013.1/901 2013/11/27
 16 16  0  0  0  0  0  0  0  0999 V2000
   49.2814   11.9834   10.9138 P   0  0  2  0  0  0  0  0  0  0  0  0
   48.9641   11.6054    9.5147 O   0  0  0  0  0  0  0  0  0  0  0  0
   49.9358   13.4532   10.9609 O   0  5  0  0  0  0  0  0  0  0  0  0
   50.3464   10.9250   11.5218 O   0  0  0  0  0  0  0  0  0  0  0  0
   45.0255   11.1042   14.6917 C   0  0  2  0  0  0  0  0  0  0  0  0
   44.4983    9.7719   14.7743 O   0  0  0  0  0  0  0  0  0  0  0  0
   44.0000   12.0861   14.0576 C   0  0  2  0  0  0  0  0  0  0  0  0
   42.7515   12.0873   14.8515 N   0  0  0  0  0  0  0  0  0  0  0  0
   43.7095   11.6290   12.6125 C   0  0  1  0  0  0  0  0  0  0  0  0
   42.7770   12.5270   11.9852 O   0  0  0  0  0  0  0  0  0  0  0  0
   45.0343   11.6339   11.8358 C   0  0  2  0  0  0  0  0  0  0  0  0
   44.8012   11.1981   10.4891 O   0  0  0  0  0  0  0  0  0  0  0  0
   46.0173   10.6615   12.5396 C   0  0  2  0  0  0  0  0  0  0  0  0
   46.2548   11.0896   13.9117 O   0  0  0  0  0  0  0  0  0  0  0  0
   47.3604   10.6556   11.7889 C   0  0  0  0  0  0  0  0  0  0  0  0
   47.9107   11.9853   11.7691 O   0  0  0  0  0  0  0  0  0  0  0  0
  1  2  1  6  0  0  0
  1  3  1  0  0  0  0
  1  4  2  0  0  0  0
  1 16  1  0  0  0  0
  5  6  1  6  0  0  0
  5  7  1  0  0  0  0
  5 14  1  0  0  0  0
  7  8  1  1  0  0  0
  7  9  1  0  0  0  0
  9 10  1  6  0  0  0
  9 11  1  0  0  0  0
 11 12  1  6  0  0  0
 11 13  1  0  0  0  0
 13 14  1  0  0  0  0
 13 15  1  6  0  0  0
 15 16  1  0  0  0  0
M  CHG  1   3  -1
M  END
>  <CHROM.1>
59.10925564,-177.09565514,62.77416367,46.45273971,11.56039182,12.24140315
-0.46180337,-0.09899631,1.92251207

>  <Name>
ligand

>  <RI>
0

>  <Rbt.Current_Directory>
/home/itssahil/PROJECTS/Mol_Feturizer/New_Systems/rnas/3B4B

>  <Rbt.Executable>
rbdock ($Id: //depot/dev/client3/rdock/2013.1/src/exe/rbdock.cxx#4 $)

>  <Rbt.Library>
libRbt.so (2013.1, Build901 2013/11/27)

>  <Rbt.Parameter_File>
/export/apps/rDock/src/rDock_2013.1_src/data/scripts/dock_solv.prm

>  <Rbt.Receptor>
prm/pocket_docking_4.prm

>  <SCORE>
-9.90215

>  <SCORE.INTER>
-8.14809

>  <SCORE.INTER.CONST>
1

>  <SCORE.INTER.POLAR>
-1.125

>  <SCORE.INTER.ROT>
3

>  <SCORE.INTER.SOLV>
17.3279

>  <SCORE.INTER.VDW>
-13.058

>  <SCORE.INTER.norm>
-0.509256

>  <SCORE.INTRA>
-1.75406

>  <SCORE.INTRA.DIHEDRAL>
-2.16039

>  <SCORE.INTRA.DIHEDRAL.0>
2.21864

>  <SCORE.INTRA.POLAR>
0

>  <SCORE.INTRA.POLAR.0>
0

>  <SCORE.INTRA.REPUL>
0

>  <SCORE.INTRA.REPUL.0>
0

>  <SCORE.INTRA.SOLV>
-0.91795

>  <SCORE.INTRA.SOLV.lig_0>
-58.5963

>  <SCORE.INTRA.VDW>
-0.214894

>  <SCORE.INTRA.VDW.0>
-0.437849

>  <SCORE.INTRA.norm>
-0.109629

>  <SCORE.RESTR>
0

>  <SCORE.RESTR.CAVITY>
0

>  <SCORE.RESTR.norm>
0

>  <SCORE.SYSTEM>
0

>  <SCORE.SYSTEM.CONST>
0

>  <SCORE.SYSTEM.DIHEDRAL>
0

>  <SCORE.SYSTEM.SOLV>
0

>  <SCORE.SYSTEM.norm>
0

>  <SCORE.heavy>
16

>  <SCORE.norm>
-0.618884

>  <RMSD>
1.239

$$$$
ligand
 OpenBabel11021811463D
libRbt.so/2013.1/901 2013/11/27
 16 16  0  0  0  0  0  0  0  0999 V2000
   49.2398   11.8690   11.1452 P   0  0  2  0  0  0  0  0  0  0  0  0
   50.0857   10.8052   11.7399 O   0  0  0  0  0  0  0  0  0  0  0  0
   48.9264   11.5363    9.6017 O   0  5  0  0  0  0  0  0  0  0  0  0
   50.0313   13.2805   11.2179 O   0  0  0  0  0  0  0  0  0  0  0  0
   44.9140   11.1533   14.8659 C   0  0  2  0  0  0  0  0  0  0  0  0
   44.3108    9.8520   14.9153 O   0  0  0  0  0  0  0  0  0  0  0  0
   43.9481   12.2081   14.2560 C   0  0  2  0  0  0  0  0  0  0  0  0
   42.7002   12.2617   15.0492 N   0  0  0  0  0  0  0  0  0  0  0  0
   43.6342   11.8044   12.7999 C   0  0  1  0  0  0  0  0  0  0  0  0
   42.7562   12.7699   12.1947 O   0  0  0  0  0  0  0  0  0  0  0  0
   44.9585   11.7522   12.0240 C   0  0  2  0  0  0  0  0  0  0  0  0
   44.7031   11.3640   10.6668 O   0  0  0  0  0  0  0  0  0  0  0  0
   45.8825   10.7075   12.7039 C   0  0  2  0  0  0  0  0  0  0  0  0
   46.1418   11.0871   14.0862 O   0  0  0  0  0  0  0  0  0  0  0  0
   47.2244   10.6428   11.9537 C   0  0  0  0  0  0  0  0  0  0  0  0
   47.8497   11.9390   11.9655 O   0  0  0  0  0  0  0  0  0  0  0  0
  1  2  1  1  0  0  0
  1  3  1  0  0  0  0
  1  4  2  0  0  0  0
  1 16  1  0  0  0  0
  5  6  1  6  0  0  0
  5  7  1  0  0  0  0
  5 14  1  0  0  0  0
  7  8  1  1  0  0  0
  7  9  1  0  0  0  0
  9 10  1  6  0  0  0
  9 11  1  0  0  0  0
 11 12  1  6  0  0  0
 11 13  1  0  0  0  0
 13 14  1  0  0  0  0
 13 15  1  6  0  0  0
 15 16  1  0  0  0  0
M  CHG  1   3  -1
M  END
>  <CHROM.1>
59.03192524,-178.63951469,-56.02928447,46.37064401,11.58668249,12.42984041
-0.44511790,-0.14129285,1.92899415

>  <Name>
ligand

>  <RI>
0

>  <Rbt.Current_Directory>
/home/itssahil/PROJECTS/Mol_Feturizer/New_Systems/rnas/3B4B

>  <Rbt.Executable>
rbdock ($Id: //depot/dev/client3/rdock/2013.1/src/exe/rbdock.cxx#4 $)

>  <Rbt.Library>
libRbt.so (2013.1, Build901 2013/11/27)

>  <Rbt.Parameter_File>
/export/apps/rDock/src/rDock_2013.1_src/data/scripts/dock_solv.prm

>  <Rbt.Receptor>
prm/pocket_docking_4.prm

>  <SCORE>
-8.69629

>  <SCORE.INTER>
-7.06108

>  <SCORE.INTER.CONST>
1

>  <SCORE.INTER.POLAR>
-0.899354

>  <SCORE.INTER.ROT>
3

>  <SCORE.INTER.SOLV>
18.5792

>  <SCORE.INTER.VDW>
-13.5026

>  <SCORE.INTER.norm>
-0.441317

>  <SCORE.INTRA>
-1.63522

>  <SCORE.INTRA.DIHEDRAL>
-2.17875

>  <SCORE.INTRA.DIHEDRAL.0>
2.21864

>  <SCORE.INTRA.POLAR>
0

>  <SCORE.INTRA.POLAR.0>
0

>  <SCORE.INTRA.REPUL>
0

>  <SCORE.INTRA.REPUL.0>
0

>  <SCORE.INTRA.SOLV>
-0.892041

>  <SCORE.INTRA.SOLV.lig_0>
-58.5963

>  <SCORE.INTRA.VDW>
-0.0998207

>  <SCORE.INTRA.VDW.0>
-0.437849

>  <SCORE.INTRA.norm>
-0.102201

>  <SCORE.RESTR>
0

>  <SCORE.RESTR.CAVITY>
0

>  <SCORE.RESTR.norm>
0

>  <SCORE.SYSTEM>
0

>  <SCORE.SYSTEM.CONST>
0

>  <SCORE.SYSTEM.DIHEDRAL>
0

>  <SCORE.SYSTEM.SOLV>
0

>  <SCORE.SYSTEM.norm>
0

>  <SCORE.heavy>
16

>  <SCORE.norm>
-0.543518

>  <RMSD>
1.250

$$$$
ligand
 OpenBabel11021811463D
libRbt.so/2013.1/901 2013/11/27
 16 16  0  0  0  0  0  0  0  0999 V2000
   49.2279   12.0039   10.9422 P   0  0  2  0  0  0  0  0  0  0  0  0
   48.8536   11.6545    9.5498 O   0  0  0  0  0  0  0  0  0  0  0  0
   49.9068   13.4627   10.9892 O   0  5  0  0  0  0  0  0  0  0  0  0
   50.2977   10.9193   11.4931 O   0  0  0  0  0  0  0  0  0  0  0  0
   44.9696   11.1194   14.7354 C   0  0  2  0  0  0  0  0  0  0  0  0
   44.3794    9.8113   14.7512 O   0  0  0  0  0  0  0  0  0  0  0  0
   43.9923   12.1802   14.1548 C   0  0  2  0  0  0  0  0  0  0  0  0
   42.7451   12.2004   14.9506 N   0  0  0  0  0  0  0  0  0  0  0  0
   43.6803   11.8119   12.6889 C   0  0  1  0  0  0  0  0  0  0  0  0
   42.7918   12.7842   12.1105 O   0  0  0  0  0  0  0  0  0  0  0  0
   45.0038   11.7933   11.9103 C   0  0  2  0  0  0  0  0  0  0  0  0
   44.7503   11.4385   10.5436 O   0  0  0  0  0  0  0  0  0  0  0  0
   45.9392   10.7404   12.5612 C   0  0  2  0  0  0  0  0  0  0  0  0
   46.1968   11.0860   13.9527 O   0  0  0  0  0  0  0  0  0  0  0  0
   47.2805   10.7088   11.8080 C   0  0  0  0  0  0  0  0  0  0  0  0
   47.8898   12.0121   11.8475 O   0  0  0  0  0  0  0  0  0  0  0  0
  1  2  1  6  0  0  0
  1  3  1  0  0  0  0
  1  4  2  0  0  0  0
  1 16  1  0  0  0  0
  5  6  1  6  0  0  0
  5  7  1  0  0  0  0
  5 14  1  0  0  0  0
  7  8  1  1  0  0  0
  7  9  1  0  0  0  0
  9 10  1  6  0  0  0
  9 11  1  0  0  0  0
 11 12  1  6  0  0  0
 11 13  1  0  0  0  0
 13 14  1  0  0  0  0
 13 15  1  6  0  0  0
 15 16  1  0  0  0  0
M  CHG  1   3  -1
M  END
>  <CHROM.1>
58.74634766,-174.88095107,59.73190440,46.40417310,11.63847007,12.28737201
-0.45713752,-0.14891500,1.98215550

>  <Name>
ligand

>  <RI>
0

>  <Rbt.Current_Directory>
/home/itssahil/PROJECTS/Mol_Feturizer/New_Systems/rnas/3B4B

>  <Rbt.Executable>
rbdock ($Id: //depot/dev/client3/rdock/2013.1/src/exe/rbdock.cxx#4 $)

>  <Rbt.Library>
libRbt.so (2013.1, Build901 2013/11/27)

>  <Rbt.Parameter_File>
/export/apps/rDock/src/rDock_2013.1_src/data/scripts/dock_solv.prm

>  <Rbt.Receptor>
prm/pocket_docking_4.prm

>  <SCORE>
-9.92476

>  <SCORE.INTER>
-8.21101

>  <SCORE.INTER.CONST>
1

>  <SCORE.INTER.POLAR>
-1.125

>  <SCORE.INTER.ROT>
3

>  <SCORE.INTER.SOLV>
17.5964

>  <SCORE.INTER.VDW>
-13.1895

>  <SCORE.INTER.norm>
-0.513188

>  <SCORE.INTRA>
-1.71375

>  <SCORE.INTRA.DIHEDRAL>
-2.08402

>  <SCORE.INTRA.DIHEDRAL.0>
2.21864

>  <SCORE.INTRA.POLAR>
0

>  <SCORE.INTRA.POLAR.0>
0

>  <SCORE.INTRA.REPUL>
0

>  <SCORE.INTRA.REPUL.0>
0

>  <SCORE.INTRA.SOLV>
-0.952049

>  <SCORE.INTRA.SOLV.lig_0>
-58.5963

>  <SCORE.INTRA.VDW>
-0.19571

>  <SCORE.INTRA.VDW.0>
-0.437849

>  <SCORE.INTRA.norm>
-0.107109

>  <SCORE.RESTR>
0

>  <SCORE.RESTR.CAVITY>
0

>  <SCORE.RESTR.norm>
0

>  <SCORE.SYSTEM>
0

>  <SCORE.SYSTEM.CONST>
0

>  <SCORE.SYSTEM.DIHEDRAL>
0

>  <SCORE.SYSTEM.SOLV>
0

>  <SCORE.SYSTEM.norm>
0

>  <SCORE.heavy>
16

>  <SCORE.norm>
-0.620297

>  <RMSD>
1.251

$$$$
ligand
 OpenBabel11021811463D
libRbt.so/2013.1/901 2013/11/27
 16 16  0  0  0  0  0  0  0  0999 V2000
   49.7056   11.6012   12.5326 P   0  0  2  0  0  0  0  0  0  0  0  0
   50.7095   11.2307   13.5602 O   0  0  0  0  0  0  0  0  0  0  0  0
   50.0439   10.8784   11.1347 O   0  5  0  0  0  0  0  0  0  0  0  0
   49.7435   13.2048   12.3063 O   0  0  0  0  0  0  0  0  0  0  0  0
   44.4999   11.2665   14.6815 C   0  0  2  0  0  0  0  0  0  0  0  0
   44.2834    9.8507   14.5896 O   0  0  0  0  0  0  0  0  0  0  0  0
   43.3723   12.0644   13.9678 C   0  0  2  0  0  0  0  0  0  0  0  0
   42.0615   11.7164   14.5594 N   0  0  0  0  0  0  0  0  0  0  0  0
   43.3891   11.7052   12.4670 C   0  0  1  0  0  0  0  0  0  0  0  0
   42.3693   12.4409   11.7684 O   0  0  0  0  0  0  0  0  0  0  0  0
   44.7696   12.0738   11.9044 C   0  0  2  0  0  0  0  0  0  0  0  0
   44.8240   11.7376   10.5108 O   0  0  0  0  0  0  0  0  0  0  0  0
   45.8449   11.2688   12.6810 C   0  0  2  0  0  0  0  0  0  0  0  0
   45.7932   11.5959   14.0996 O   0  0  0  0  0  0  0  0  0  0  0  0
   47.2421   11.6282   12.1460 C   0  0  0  0  0  0  0  0  0  0  0  0
   48.2492   11.1199   13.0398 O   0  0  0  0  0  0  0  0  0  0  0  0
  1  2  1  1  0  0  0
  1  3  1  0  0  0  0
  1  4  2  0  0  0  0
  1 16  1  0  0  0  0
  5  6  1  6  0  0  0
  5  7  1  0  0  0  0
  5 14  1  0  0  0  0
  7  8  1  1  0  0  0
  7  9  1  0  0  0  0
  9 10  1  6  0  0  0
  9 11  1  0  0  0  0
 11 12  1  6  0  0  0
 11 13  1  0  0  0  0
 13 14  1  0  0  0  0
 13 15  1  6  0  0  0
 15 16  1  0  0  0  0
M  CHG  1   3  -1
M  END
>  <CHROM.1>
167.50937831,-175.58234804,172.28791589,46.39477333,11.58070888,12.82814090
-0.11621783,-0.04390787,1.87419387

>  <Name>
ligand

>  <RI>
0

>  <Rbt.Current_Directory>
/home/itssahil/PROJECTS/Mol_Feturizer/New_Systems/rnas/3B4B

>  <Rbt.Executable>
rbdock ($Id: //depot/dev/client3/rdock/2013.1/src/exe/rbdock.cxx#4 $)

>  <Rbt.Library>
libRbt.so (2013.1, Build901 2013/11/27)

>  <Rbt.Parameter_File>
/export/apps/rDock/src/rDock_2013.1_src/data/scripts/dock_solv.prm

>  <Rbt.Receptor>
prm/pocket_docking_3.prm

>  <SCORE>
-9.06502

>  <SCORE.INTER>
-7.93401

>  <SCORE.INTER.CONST>
1

>  <SCORE.INTER.POLAR>
-1.125

>  <SCORE.INTER.ROT>
3

>  <SCORE.INTER.SOLV>
20.9861

>  <SCORE.INTER.VDW>
-14.1347

>  <SCORE.INTER.norm>
-0.495876

>  <SCORE.INTRA>
-1.13101

>  <SCORE.INTRA.DIHEDRAL>
-1.48492

>  <SCORE.INTRA.DIHEDRAL.0>
2.21864

>  <SCORE.INTRA.POLAR>
0

>  <SCORE.INTRA.POLAR.0>
0

>  <SCORE.INTRA.REPUL>
0

>  <SCORE.INTRA.REPUL.0>
0

>  <SCORE.INTRA.SOLV>
-0.450102

>  <SCORE.INTRA.SOLV.lig_0>
-58.5963

>  <SCORE.INTRA.VDW>
-0.163504

>  <SCORE.INTRA.VDW.0>
-0.437849

>  <SCORE.INTRA.norm>
-0.0706884

>  <SCORE.RESTR>
0

>  <SCORE.RESTR.CAVITY>
0

>  <SCORE.RESTR.norm>
0

>  <SCORE.SYSTEM>
0

>  <SCORE.SYSTEM.CONST>
0

>  <SCORE.SYSTEM.DIHEDRAL>
0

>  <SCORE.SYSTEM.SOLV>
0

>  <SCORE.SYSTEM.norm>
0

>  <SCORE.heavy>
16

>  <SCORE.norm>
-0.566564

>  <RMSD>
1.254

$$$$
ligand
 OpenBabel11021811463D
libRbt.so/2013.1/901 2013/11/27
 16 16  0  0  0  0  0  0  0  0999 V2000
   49.6637   11.5842   12.4035 P   0  0  2  0  0  0  0  0  0  0  0  0
   49.9507   10.8439   11.1503 O   0  0  0  0  0  0  0  0  0  0  0  0
   49.6407   13.1692   12.1236 O   0  5  0  0  0  0  0  0  0  0  0  0
   50.8271   11.2685   13.4857 O   0  0  0  0  0  0  0  0  0  0  0  0
   44.4916   11.2772   14.6597 C   0  0  2  0  0  0  0  0  0  0  0  0
   44.2855    9.8586   14.5920 O   0  0  0  0  0  0  0  0  0  0  0  0
   43.3466   12.0554   13.9519 C   0  0  2  0  0  0  0  0  0  0  0  0
   42.0480   11.7056   14.5687 N   0  0  0  0  0  0  0  0  0  0  0  0
   43.3434   11.6742   12.4564 C   0  0  1  0  0  0  0  0  0  0  0  0
   42.3070   12.3912   11.7630 O   0  0  0  0  0  0  0  0  0  0  0  0
   44.7121   12.0456   11.8672 C   0  0  2  0  0  0  0  0  0  0  0  0
   44.7479   11.6893   10.4781 O   0  0  0  0  0  0  0  0  0  0  0  0
   45.8058   11.2609   12.6389 C   0  0  2  0  0  0  0  0  0  0  0  0
   45.7731   11.6085   14.0532 O   0  0  0  0  0  0  0  0  0  0  0  0
   47.1916   11.6237   12.0772 C   0  0  0  0  0  0  0  0  0  0  0  0
   48.2168   11.1217   12.9538 O   0  0  0  0  0  0  0  0  0  0  0  0
  1  2  1  6  0  0  0
  1  3  1  0  0  0  0
  1  4  2  0  0  0  0
  1 16  1  0  0  0  0
  5  6  1  6  0  0  0
  5  7  1  0  0  0  0
  5 14  1  0  0  0  0
  7  8  1  1  0  0  0
  7  9  1  0  0  0  0
  9 10  1  6  0  0  0
  9 11  1  0  0  0  0
 11 12  1  6  0  0  0
 11 13  1  0  0  0  0
 13 14  1  0  0  0  0
 13 15  1  6  0  0  0
 15 16  1  0  0  0  0
M  CHG  1   3  -1
M  END
>  <CHROM.1>
168.25300218,-176.59962090,-69.87413382,46.35997290,11.56753780,12.77636178
-0.12609843,-0.04539982,1.86579038

>  <Name>
ligand

>  <RI>
0

>  <Rbt.Current_Directory>
/home/itssahil/PROJECTS/Mol_Feturizer/New_Systems/rnas/3B4B

>  <Rbt.Executable>
rbdock ($Id: //depot/dev/client3/rdock/2013.1/src/exe/rbdock.cxx#4 $)

>  <Rbt.Library>
libRbt.so (2013.1, Build901 2013/11/27)

>  <Rbt.Parameter_File>
/export/apps/rDock/src/rDock_2013.1_src/data/scripts/dock_solv.prm

>  <Rbt.Receptor>
prm/pocket_docking_3.prm

>  <SCORE>
-7.90286

>  <SCORE.INTER>
-6.67389

>  <SCORE.INTER.CONST>
1

>  <SCORE.INTER.POLAR>
-0.9

>  <SCORE.INTER.ROT>
3

>  <SCORE.INTER.SOLV>
21.1434

>  <SCORE.INTER.VDW>
-14.0971

>  <SCORE.INTER.norm>
-0.417118

>  <SCORE.INTRA>
-1.22898

>  <SCORE.INTRA.DIHEDRAL>
-1.52496

>  <SCORE.INTRA.DIHEDRAL.0>
2.21864

>  <SCORE.INTRA.POLAR>
0

>  <SCORE.INTRA.POLAR.0>
0

>  <SCORE.INTRA.REPUL>
0

>  <SCORE.INTRA.REPUL.0>
0

>  <SCORE.INTRA.SOLV>
-0.98827

>  <SCORE.INTRA.SOLV.lig_0>
-58.5963

>  <SCORE.INTRA.VDW>
0.0276373

>  <SCORE.INTRA.VDW.0>
-0.437849

>  <SCORE.INTRA.norm>
-0.076811

>  <SCORE.RESTR>
0

>  <SCORE.RESTR.CAVITY>
0

>  <SCORE.RESTR.norm>
0

>  <SCORE.SYSTEM>
0

>  <SCORE.SYSTEM.CONST>
0

>  <SCORE.SYSTEM.DIHEDRAL>
0

>  <SCORE.SYSTEM.SOLV>
0

>  <SCORE.SYSTEM.norm>
0

>  <SCORE.heavy>
16

>  <SCORE.norm>
-0.493929

>  <RMSD>
1.259

$$$$
ligand
 OpenBabel11021811463D
libRbt.so/2013.1/901 2013/11/27
 16 16  0  0  0  0  0  0  0  0999 V2000
   49.1867   12.0288   11.0864 P   0  0  2  0  0  0  0  0  0  0  0  0
   48.8567   11.7727    9.6628 O   0  0  0  0  0  0  0  0  0  0  0  0
   49.9376   13.4443   11.2401 O   0  5  0  0  0  0  0  0  0  0  0  0
   50.1734   10.8608   11.6217 O   0  0  0  0  0  0  0  0  0  0  0  0
   44.8881   11.1398   14.8225 C   0  0  2  0  0  0  0  0  0  0  0  0
   44.2694    9.8451   14.7997 O   0  0  0  0  0  0  0  0  0  0  0  0
   43.9341   12.2387   14.2751 C   0  0  2  0  0  0  0  0  0  0  0  0
   42.6880   12.2624   15.0726 N   0  0  0  0  0  0  0  0  0  0  0  0
   43.6134   11.9216   12.7992 C   0  0  1  0  0  0  0  0  0  0  0  0
   42.7462   12.9301   12.2513 O   0  0  0  0  0  0  0  0  0  0  0  0
   44.9358   11.8975   12.0189 C   0  0  2  0  0  0  0  0  0  0  0  0
   44.6739   11.5895   10.6425 O   0  0  0  0  0  0  0  0  0  0  0  0
   45.8482   10.8052   12.6368 C   0  0  2  0  0  0  0  0  0  0  0  0
   46.1140   11.1031   14.0378 O   0  0  0  0  0  0  0  0  0  0  0  0
   47.1881   10.7668   11.8814 C   0  0  0  0  0  0  0  0  0  0  0  0
   47.8122   12.0627   11.9347 O   0  0  0  0  0  0  0  0  0  0  0  0
  1  2  1  6  0  0  0
  1  3  1  0  0  0  0
  1  4  2  0  0  0  0
  1 16  1  0  0  0  0
  5  6  1  6  0  0  0
  5  7  1  0  0  0  0
  5 14  1  0  0  0  0
  7  8  1  1  0  0  0
  7  9  1  0  0  0  0
  9 10  1  6  0  0  0
  9 11  1  0  0  0  0
 11 12  1  6  0  0  0
 11 13  1  0  0  0  0
 13 14  1  0  0  0  0
 13 15  1  6  0  0  0
 15 16  1  0  0  0  0
M  CHG  1   3  -1
M  END
>  <CHROM.1>
57.50627341,-177.61894113,63.97755684,46.34128673,11.69456982,12.40234494
-0.44087690,-0.16628614,2.00900471

>  <Name>
ligand

>  <RI>
0

>  <Rbt.Current_Directory>
/home/itssahil/PROJECTS/Mol_Feturizer/New_Systems/rnas/3B4B

>  <Rbt.Executable>
rbdock ($Id: //depot/dev/client3/rdock/2013.1/src/exe/rbdock.cxx#4 $)

>  <Rbt.Library>
libRbt.so (2013.1, Build901 2013/11/27)

>  <Rbt.Parameter_File>
/export/apps/rDock/src/rDock_2013.1_src/data/scripts/dock_solv.prm

>  <Rbt.Receptor>
prm/pocket_docking_4.prm

>  <SCORE>
-9.7203

>  <SCORE.INTER>
-7.99189

>  <SCORE.INTER.CONST>
1

>  <SCORE.INTER.POLAR>
-1.125

>  <SCORE.INTER.ROT>
3

>  <SCORE.INTER.SOLV>
18.5572

>  <SCORE.INTER.VDW>
-13.3637

>  <SCORE.INTER.norm>
-0.499493

>  <SCORE.INTRA>
-1.72841

>  <SCORE.INTRA.DIHEDRAL>
-2.14099

>  <SCORE.INTRA.DIHEDRAL.0>
2.21864

>  <SCORE.INTRA.POLAR>
0

>  <SCORE.INTRA.POLAR.0>
0

>  <SCORE.INTRA.REPUL>
0

>  <SCORE.INTRA.REPUL.0>
0

>  <SCORE.INTRA.SOLV>
-0.903827

>  <SCORE.INTRA.SOLV.lig_0>
-58.5963

>  <SCORE.INTRA.VDW>
-0.206002

>  <SCORE.INTRA.VDW.0>
-0.437849

>  <SCORE.INTRA.norm>
-0.108026

>  <SCORE.RESTR>
0

>  <SCORE.RESTR.CAVITY>
0

>  <SCORE.RESTR.norm>
0

>  <SCORE.SYSTEM>
0

>  <SCORE.SYSTEM.CONST>
0

>  <SCORE.SYSTEM.DIHEDRAL>
0

>  <SCORE.SYSTEM.SOLV>
0

>  <SCORE.SYSTEM.norm>
0

>  <SCORE.heavy>
16

>  <SCORE.norm>
-0.607519

>  <RMSD>
1.264

$$$$
ligand
 OpenBabel11021811463D
libRbt.so/2013.1/901 2013/11/27
 16 16  0  0  0  0  0  0  0  0999 V2000
   49.2259   11.7950   11.1802 P   0  0  2  0  0  0  0  0  0  0  0  0
   50.0395   10.7525   11.8527 O   0  0  0  0  0  0  0  0  0  0  0  0
   49.0058   11.4190    9.6306 O   0  5  0  0  0  0  0  0  0  0  0  0
   50.0059   13.2125   11.2611 O   0  0  0  0  0  0  0  0  0  0  0  0
   44.8200   11.2725   14.7788 C   0  0  2  0  0  0  0  0  0  0  0  0
   44.3054    9.9490   14.9860 O   0  0  0  0  0  0  0  0  0  0  0  0
   43.7948   12.1742   14.0346 C   0  0  2  0  0  0  0  0  0  0  0  0
   42.5337   12.2397   14.8056 N   0  0  0  0  0  0  0  0  0  0  0  0
   43.5322   11.5720   12.6381 C   0  0  1  0  0  0  0  0  0  0  0  0
   42.6008   12.3919   11.9105 O   0  0  0  0  0  0  0  0  0  0  0  0
   44.8692   11.5153   11.8847 C   0  0  2  0  0  0  0  0  0  0  0  0
   44.6623   10.9448   10.5848 O   0  0  0  0  0  0  0  0  0  0  0  0
   45.8508   10.6295   12.6967 C   0  0  2  0  0  0  0  0  0  0  0  0
   46.0618   11.1949   14.0225 O   0  0  0  0  0  0  0  0  0  0  0  0
   47.2057   10.5648   11.9704 C   0  0  0  0  0  0  0  0  0  0  0  0
   47.7894   11.8792   11.9148 O   0  0  0  0  0  0  0  0  0  0  0  0
  1  2  1  1  0  0  0
  1  3  1  0  0  0  0
  1  4  2  0  0  0  0
  1 16  1  0  0  0  0
  5  6  1  6  0  0  0
  5  7  1  0  0  0  0
  5 14  1  0  0  0  0
  7  8  1  1  0  0  0
  7  9  1  0  0  0  0
  9 10  1  6  0  0  0
  9 11  1  0  0  0  0
 11 12  1  6  0  0  0
 11 13  1  0  0  0  0
 13 14  1  0  0  0  0
 13 15  1  6  0  0  0
 15 16  1  0  0  0  0
M  CHG  1   3  -1
M  END
>  <CHROM.1>
63.37957448,178.74361501,-52.71441397,46.31317018,11.49166939,12.37540992
-0.42176493,-0.06076723,1.78605989

>  <Name>
ligand

>  <RI>
0

>  <Rbt.Current_Directory>
/home/itssahil/PROJECTS/Mol_Feturizer/New_Systems/rnas/3B4B

>  <Rbt.Executable>
rbdock ($Id: //depot/dev/client3/rdock/2013.1/src/exe/rbdock.cxx#4 $)

>  <Rbt.Library>
libRbt.so (2013.1, Build901 2013/11/27)

>  <Rbt.Parameter_File>
/export/apps/rDock/src/rDock_2013.1_src/data/scripts/dock_solv.prm

>  <Rbt.Receptor>
prm/pocket_docking_2.prm

>  <SCORE>
-8.64647

>  <SCORE.INTER>
-7.02914

>  <SCORE.INTER.CONST>
1

>  <SCORE.INTER.POLAR>
-0.9

>  <SCORE.INTER.ROT>
3

>  <SCORE.INTER.SOLV>
18.2503

>  <SCORE.INTER.VDW>
-13.3695

>  <SCORE.INTER.norm>
-0.439321

>  <SCORE.INTRA>
-1.61734

>  <SCORE.INTRA.DIHEDRAL>
-2.08031

>  <SCORE.INTRA.DIHEDRAL.0>
2.21864

>  <SCORE.INTRA.POLAR>
0

>  <SCORE.INTRA.POLAR.0>
0

>  <SCORE.INTRA.REPUL>
0

>  <SCORE.INTRA.REPUL.0>
0

>  <SCORE.INTRA.SOLV>
-0.99023

>  <SCORE.INTRA.SOLV.lig_0>
-58.5963

>  <SCORE.INTRA.VDW>
-0.0820684

>  <SCORE.INTRA.VDW.0>
-0.437849

>  <SCORE.INTRA.norm>
-0.101083

>  <SCORE.RESTR>
0

>  <SCORE.RESTR.CAVITY>
0

>  <SCORE.RESTR.norm>
0

>  <SCORE.SYSTEM>
0

>  <SCORE.SYSTEM.CONST>
0

>  <SCORE.SYSTEM.DIHEDRAL>
0

>  <SCORE.SYSTEM.SOLV>
0

>  <SCORE.SYSTEM.norm>
0

>  <SCORE.heavy>
16

>  <SCORE.norm>
-0.540405

>  <RMSD>
1.265

$$$$
ligand
 OpenBabel11021811463D
libRbt.so/2013.1/901 2013/11/27
 16 16  0  0  0  0  0  0  0  0999 V2000
   49.2017   12.2154   10.9491 P   0  0  2  0  0  0  0  0  0  0  0  0
   48.7274   12.3061    9.5463 O   0  0  0  0  0  0  0  0  0  0  0  0
   50.0581   13.5225   11.3352 O   0  5  0  0  0  0  0  0  0  0  0  0
   50.1509   10.9121   11.1061 O   0  0  0  0  0  0  0  0  0  0  0  0
   44.9908   10.9452   14.6743 C   0  0  2  0  0  0  0  0  0  0  0  0
   44.3210    9.6891   14.4924 O   0  0  0  0  0  0  0  0  0  0  0  0
   44.0667   12.1428   14.3144 C   0  0  2  0  0  0  0  0  0  0  0  0
   42.8442   12.0994   15.1466 N   0  0  0  0  0  0  0  0  0  0  0  0
   43.6948   12.0458   12.8197 C   0  0  1  0  0  0  0  0  0  0  0  0
   42.8540   13.1509   12.4441 O   0  0  0  0  0  0  0  0  0  0  0  0
   44.9942   12.0836   12.0020 C   0  0  2  0  0  0  0  0  0  0  0  0
   44.6839   11.9798   10.6053 O   0  0  0  0  0  0  0  0  0  0  0  0
   45.8788   10.8843   12.4340 C   0  0  2  0  0  0  0  0  0  0  0  0
   46.1930   10.9747   13.8535 O   0  0  0  0  0  0  0  0  0  0  0  0
   47.1956   10.9040   11.6384 C   0  0  0  0  0  0  0  0  0  0  0  0
   47.9151   12.1180   11.9214 O   0  0  0  0  0  0  0  0  0  0  0  0
  1  2  1  6  0  0  0
  1  3  1  0  0  0  0
  1  4  2  0  0  0  0
  1 16  1  0  0  0  0
  5  6  1  6  0  0  0
  5  7  1  0  0  0  0
  5 14  1  0  0  0  0
  7  8  1  1  0  0  0
  7  9  1  0  0  0  0
  9 10  1  6  0  0  0
  9 11  1  0  0  0  0
 11 12  1  6  0  0  0
 11 13  1  0  0  0  0
 13 14  1  0  0  0  0
 13 15  1  6  0  0  0
 15 16  1  0  0  0  0
M  CHG  1   3  -1
M  END
>  <CHROM.1>
61.39266632,-173.08478249,63.49982730,46.39348843,11.78749011,12.30390416
-0.45354970,-0.21363388,2.14911695

>  <Name>
ligand

>  <RI>
0

>  <Rbt.Current_Directory>
/home/itssahil/PROJECTS/Mol_Feturizer/New_Systems/rnas/3B4B

>  <Rbt.Executable>
rbdock ($Id: //depot/dev/client3/rdock/2013.1/src/exe/rbdock.cxx#4 $)

>  <Rbt.Library>
libRbt.so (2013.1, Build901 2013/11/27)

>  <Rbt.Parameter_File>
/export/apps/rDock/src/rDock_2013.1_src/data/scripts/dock_solv.prm

>  <Rbt.Receptor>
prm/pocket_docking_4.prm

>  <SCORE>
-9.42593

>  <SCORE.INTER>
-7.74022

>  <SCORE.INTER.CONST>
1

>  <SCORE.INTER.POLAR>
-1.125

>  <SCORE.INTER.ROT>
3

>  <SCORE.INTER.SOLV>
18.1628

>  <SCORE.INTER.VDW>
-13.0644

>  <SCORE.INTER.norm>
-0.483764

>  <SCORE.INTRA>
-1.68571

>  <SCORE.INTRA.DIHEDRAL>
-1.95638

>  <SCORE.INTRA.DIHEDRAL.0>
2.21864

>  <SCORE.INTRA.POLAR>
0

>  <SCORE.INTRA.POLAR.0>
0

>  <SCORE.INTRA.REPUL>
0

>  <SCORE.INTRA.REPUL.0>
0

>  <SCORE.INTRA.SOLV>
-0.919901

>  <SCORE.INTRA.SOLV.lig_0>
-58.5963

>  <SCORE.INTRA.VDW>
-0.247567

>  <SCORE.INTRA.VDW.0>
-0.437849

>  <SCORE.INTRA.norm>
-0.105357

>  <SCORE.RESTR>
0

>  <SCORE.RESTR.CAVITY>
0

>  <SCORE.RESTR.norm>
0

>  <SCORE.SYSTEM>
0

>  <SCORE.SYSTEM.CONST>
0

>  <SCORE.SYSTEM.DIHEDRAL>
0

>  <SCORE.SYSTEM.SOLV>
0

>  <SCORE.SYSTEM.norm>
0

>  <SCORE.heavy>
16

>  <SCORE.norm>
-0.58912

>  <RMSD>
1.273

$$$$
ligand
 OpenBabel11021811463D
libRbt.so/2013.1/901 2013/11/27
 16 16  0  0  0  0  0  0  0  0999 V2000
   49.1789   12.2328   10.9207 P   0  0  2  0  0  0  0  0  0  0  0  0
   48.7189   12.3876    9.5188 O   0  0  0  0  0  0  0  0  0  0  0  0
   50.0867   13.4898   11.3530 O   0  5  0  0  0  0  0  0  0  0  0  0
   50.0714   10.8863   11.0417 O   0  0  0  0  0  0  0  0  0  0  0  0
   44.8360   10.9090   14.5491 C   0  0  2  0  0  0  0  0  0  0  0  0
   44.0627    9.7453   14.2215 O   0  0  0  0  0  0  0  0  0  0  0  0
   44.0378   12.2176   14.2879 C   0  0  2  0  0  0  0  0  0  0  0  0
   42.7863   12.2064   15.0772 N   0  0  0  0  0  0  0  0  0  0  0  0
   43.7141   12.3045   12.7815 C   0  0  1  0  0  0  0  0  0  0  0  0
   42.9909   13.5151   12.4975 O   0  0  0  0  0  0  0  0  0  0  0  0
   45.0409   12.3014   12.0082 C   0  0  2  0  0  0  0  0  0  0  0  0
   44.7744   12.3660   10.6001 O   0  0  0  0  0  0  0  0  0  0  0  0
   45.7970   10.9877   12.3397 C   0  0  2  0  0  0  0  0  0  0  0  0
   46.0655   10.9071   13.7692 O   0  0  0  0  0  0  0  0  0  0  0  0
   47.1388   10.9628   11.5871 C   0  0  0  0  0  0  0  0  0  0  0  0
   47.8825   12.1593   11.8820 O   0  0  0  0  0  0  0  0  0  0  0  0
  1  2  1  6  0  0  0
  1  3  1  0  0  0  0
  1  4  2  0  0  0  0
  1 16  1  0  0  0  0
  5  6  1  6  0  0  0
  5  7  1  0  0  0  0
  5 14  1  0  0  0  0
  7  8  1  1  0  0  0
  7  9  1  0  0  0  0
  9 10  1  1  0  0  0
  9 11  1  0  0  0  0
 11 12  1  6  0  0  0
 11 13  1  0  0  0  0
 13 14  1  0  0  0  0
 13 15  1  6  0  0  0
 15 16  1  0  0  0  0
M  CHG  1   3  -1
M  END
>  <CHROM.1>
54.05972746,-171.43952942,65.41198342,46.35810140,11.88177129,12.25267375
0.40485051,0.28815407,-0.85249835

>  <Name>
ligand

>  <RI>
0

>  <Rbt.Current_Directory>
/home/itssahil/PROJECTS/Mol_Feturizer/New_Systems/rnas/3B4B

>  <Rbt.Executable>
rbdock ($Id: //depot/dev/client3/rdock/2013.1/src/exe/rbdock.cxx#4 $)

>  <Rbt.Library>
libRbt.so (2013.1, Build901 2013/11/27)

>  <Rbt.Parameter_File>
/export/apps/rDock/src/rDock_2013.1_src/data/scripts/dock_solv.prm

>  <Rbt.Receptor>
prm/pocket_docking_3.prm

>  <SCORE>
-9.22734

>  <SCORE.INTER>
-7.76643

>  <SCORE.INTER.CONST>
1

>  <SCORE.INTER.POLAR>
-1.125

>  <SCORE.INTER.ROT>
3

>  <SCORE.INTER.SOLV>
17.4472

>  <SCORE.INTER.VDW>
-12.8433

>  <SCORE.INTER.norm>
-0.485402

>  <SCORE.INTRA>
-1.46091

>  <SCORE.INTRA.DIHEDRAL>
-1.68729

>  <SCORE.INTRA.DIHEDRAL.0>
2.21864

>  <SCORE.INTRA.POLAR>
0

>  <SCORE.INTRA.POLAR.0>
0

>  <SCORE.INTRA.REPUL>
0

>  <SCORE.INTRA.REPUL.0>
0

>  <SCORE.INTRA.SOLV>
-0.838153

>  <SCORE.INTRA.SOLV.lig_0>
-58.5963

>  <SCORE.INTRA.VDW>
-0.198186

>  <SCORE.INTRA.VDW.0>
-0.437849

>  <SCORE.INTRA.norm>
-0.0913068

>  <SCORE.RESTR>
0

>  <SCORE.RESTR.CAVITY>
0

>  <SCORE.RESTR.norm>
0

>  <SCORE.SYSTEM>
0

>  <SCORE.SYSTEM.CONST>
0

>  <SCORE.SYSTEM.DIHEDRAL>
0

>  <SCORE.SYSTEM.SOLV>
0

>  <SCORE.SYSTEM.norm>
0

>  <SCORE.heavy>
16

>  <SCORE.norm>
-0.576708

>  <RMSD>
1.284

$$$$
ligand
 OpenBabel11021811463D
libRbt.so/2013.1/901 2013/11/27
 16 16  0  0  0  0  0  0  0  0999 V2000
   49.1812   11.8484   11.1404 P   0  0  2  0  0  0  0  0  0  0  0  0
   50.0052   10.7742   11.7471 O   0  0  0  0  0  0  0  0  0  0  0  0
   48.9085   11.5330    9.5857 O   0  5  0  0  0  0  0  0  0  0  0  0
   49.9777   13.2549   11.2492 O   0  0  0  0  0  0  0  0  0  0  0  0
   44.8115   11.3180   14.7902 C   0  0  2  0  0  0  0  0  0  0  0  0
   44.3147    9.9911   15.0187 O   0  0  0  0  0  0  0  0  0  0  0  0
   43.7713   12.1960   14.0388 C   0  0  2  0  0  0  0  0  0  0  0  0
   42.5133   12.2566   14.8153 N   0  0  0  0  0  0  0  0  0  0  0  0
   43.5093   11.5710   12.6522 C   0  0  1  0  0  0  0  0  0  0  0  0
   42.5640   12.3688   11.9180 O   0  0  0  0  0  0  0  0  0  0  0  0
   44.8431   11.5204   11.8928 C   0  0  2  0  0  0  0  0  0  0  0  0
   44.6369   10.9290   10.6021 O   0  0  0  0  0  0  0  0  0  0  0  0
   45.8399   10.6586   12.7120 C   0  0  2  0  0  0  0  0  0  0  0  0
   46.0503   11.2453   14.0287 O   0  0  0  0  0  0  0  0  0  0  0  0
   47.1919   10.6006   11.9797 C   0  0  0  0  0  0  0  0  0  0  0  0
   47.7696   11.9176   11.9232 O   0  0  0  0  0  0  0  0  0  0  0  0
  1  2  1  1  0  0  0
  1  3  1  0  0  0  0
  1  4  2  0  0  0  0
  1 16  1  0  0  0  0
  5  6  1  6  0  0  0
  5  7  1  0  0  0  0
  5 14  1  0  0  0  0
  7  8  1  1  0  0  0
  7  9  1  0  0  0  0
  9 10  1  6  0  0  0
  9 11  1  0  0  0  0
 11 12  1  6  0  0  0
 11 13  1  0  0  0  0
 13 14  1  0  0  0  0
 13 15  1  6  0  0  0
 15 16  1  0  0  0  0
M  CHG  1   3  -1
M  END
>  <CHROM.1>
64.37920365,-179.45903939,-51.18038242,46.28553545,11.52350288,12.36857789
-0.43373447,-0.05060140,1.77395047

>  <Name>
ligand

>  <RI>
0

>  <Rbt.Current_Directory>
/home/itssahil/PROJECTS/Mol_Feturizer/New_Systems/rnas/3B4B

>  <Rbt.Executable>
rbdock ($Id: //depot/dev/client3/rdock/2013.1/src/exe/rbdock.cxx#4 $)

>  <Rbt.Library>
libRbt.so (2013.1, Build901 2013/11/27)

>  <Rbt.Parameter_File>
/export/apps/rDock/src/rDock_2013.1_src/data/scripts/dock_solv.prm

>  <Rbt.Receptor>
prm/pocket_docking_2.prm

>  <SCORE>
-8.69152

>  <SCORE.INTER>
-7.15027

>  <SCORE.INTER.CONST>
1

>  <SCORE.INTER.POLAR>
-0.899931

>  <SCORE.INTER.ROT>
3

>  <SCORE.INTER.SOLV>
18.2249

>  <SCORE.INTER.VDW>
-13.442

>  <SCORE.INTER.norm>
-0.446892

>  <SCORE.INTRA>
-1.54125

>  <SCORE.INTRA.DIHEDRAL>
-2.0188

>  <SCORE.INTRA.DIHEDRAL.0>
2.21864

>  <SCORE.INTRA.POLAR>
0

>  <SCORE.INTRA.POLAR.0>
0

>  <SCORE.INTRA.REPUL>
0

>  <SCORE.INTRA.REPUL.0>
0

>  <SCORE.INTRA.SOLV>
-0.98709

>  <SCORE.INTRA.SOLV.lig_0>
-58.5963

>  <SCORE.INTRA.VDW>
-0.0383074

>  <SCORE.INTRA.VDW.0>
-0.437849

>  <SCORE.INTRA.norm>
-0.0963283

>  <SCORE.RESTR>
0

>  <SCORE.RESTR.CAVITY>
0

>  <SCORE.RESTR.norm>
0

>  <SCORE.SYSTEM>
0

>  <SCORE.SYSTEM.CONST>
0

>  <SCORE.SYSTEM.DIHEDRAL>
0

>  <SCORE.SYSTEM.SOLV>
0

>  <SCORE.SYSTEM.norm>
0

>  <SCORE.heavy>
16

>  <SCORE.norm>
-0.54322

>  <RMSD>
1.292

$$$$
ligand
 OpenBabel11021811463D
libRbt.so/2013.1/901 2013/11/27
 16 16  0  0  0  0  0  0  0  0999 V2000
   49.1174   11.9577   10.9346 P   0  0  2  0  0  0  0  0  0  0  0  0
   48.6953   11.5500    9.5720 O   0  0  0  0  0  0  0  0  0  0  0  0
   49.7949   13.4173   10.8965 O   0  5  0  0  0  0  0  0  0  0  0  0
   50.2077   10.8975   11.4928 O   0  0  0  0  0  0  0  0  0  0  0  0
   44.8239   11.2597   14.7857 C   0  0  2  0  0  0  0  0  0  0  0  0
   44.2325    9.9539   14.8546 O   0  0  0  0  0  0  0  0  0  0  0  0
   43.8697   12.2841   14.1091 C   0  0  2  0  0  0  0  0  0  0  0  0
   42.5938   12.3483   14.8555 N   0  0  0  0  0  0  0  0  0  0  0  0
   43.6123   11.8318   12.6562 C   0  0  1  0  0  0  0  0  0  0  0  0
   42.7467   12.7681   11.9902 O   0  0  0  0  0  0  0  0  0  0  0  0
   44.9639   11.7704   11.9297 C   0  0  2  0  0  0  0  0  0  0  0  0
   44.7611   11.3373   10.5772 O   0  0  0  0  0  0  0  0  0  0  0  0
   45.8736   10.7579   12.6745 C   0  0  2  0  0  0  0  0  0  0  0  0
   46.0794   11.1832   14.0524 O   0  0  0  0  0  0  0  0  0  0  0  0
   47.2420   10.6849   11.9747 C   0  0  0  0  0  0  0  0  0  0  0  0
   47.8117   12.0036   11.8849 O   0  0  0  0  0  0  0  0  0  0  0  0
  1  2  1  6  0  0  0
  1  3  1  0  0  0  0
  1  4  2  0  0  0  0
  1 16  1  0  0  0  0
  5  6  1  6  0  0  0
  5  7  1  0  0  0  0
  5 14  1  0  0  0  0
  7  8  1  1  0  0  0
  7  9  1  0  0  0  0
  9 10  1  6  0  0  0
  9 11  1  0  0  0  0
 11 12  1  6  0  0  0
 11 13  1  0  0  0  0
 13 14  1  0  0  0  0
 13 15  1  6  0  0  0
 15 16  1  0  0  0  0
M  CHG  1   3  -1
M  END
>  <CHROM.1>
55.05286009,-170.43303098,62.56562459,46.31049185,11.64937484,12.30109577
0.45819661,0.15233993,-1.19582146

>  <Name>
ligand

>  <RI>
0

>  <Rbt.Current_Directory>
/home/itssahil/PROJECTS/Mol_Feturizer/New_Systems/rnas/3B4B

>  <Rbt.Executable>
rbdock ($Id: //depot/dev/client3/rdock/2013.1/src/exe/rbdock.cxx#4 $)

>  <Rbt.Library>
libRbt.so (2013.1, Build901 2013/11/27)

>  <Rbt.Parameter_File>
/export/apps/rDock/src/rDock_2013.1_src/data/scripts/dock_solv.prm

>  <Rbt.Receptor>
prm/pocket_docking_5.prm

>  <SCORE>
-9.72307

>  <SCORE.INTER>
-8.2482

>  <SCORE.INTER.CONST>
1

>  <SCORE.INTER.POLAR>
-1.12414

>  <SCORE.INTER.ROT>
3

>  <SCORE.INTER.SOLV>
17.3766

>  <SCORE.INTER.VDW>
-13.1439

>  <SCORE.INTER.norm>
-0.515513

>  <SCORE.INTRA>
-1.47487

>  <SCORE.INTRA.DIHEDRAL>
-1.67691

>  <SCORE.INTRA.DIHEDRAL.0>
2.21864

>  <SCORE.INTRA.POLAR>
0

>  <SCORE.INTRA.POLAR.0>
0

>  <SCORE.INTRA.REPUL>
0

>  <SCORE.INTRA.REPUL.0>
0

>  <SCORE.INTRA.SOLV>
-0.865797

>  <SCORE.INTRA.SOLV.lig_0>
-58.5963

>  <SCORE.INTRA.VDW>
-0.203514

>  <SCORE.INTRA.VDW.0>
-0.437849

>  <SCORE.INTRA.norm>
-0.0921792

>  <SCORE.RESTR>
0

>  <SCORE.RESTR.CAVITY>
0

>  <SCORE.RESTR.norm>
0

>  <SCORE.SYSTEM>
0

>  <SCORE.SYSTEM.CONST>
0

>  <SCORE.SYSTEM.DIHEDRAL>
0

>  <SCORE.SYSTEM.SOLV>
0

>  <SCORE.SYSTEM.norm>
0

>  <SCORE.heavy>
16

>  <SCORE.norm>
-0.607692

>  <RMSD>
1.292

$$$$
ligand
 OpenBabel11021811463D
libRbt.so/2013.1/901 2013/11/27
 16 16  0  0  0  0  0  0  0  0999 V2000
   49.0941   11.9084   10.9181 P   0  0  2  0  0  0  0  0  0  0  0  0
   48.7640   11.4675    9.5405 O   0  0  0  0  0  0  0  0  0  0  0  0
   49.7697   13.3692   10.8906 O   0  5  0  0  0  0  0  0  0  0  0  0
   50.1471   10.8655   11.5721 O   0  0  0  0  0  0  0  0  0  0  0  0
   44.8171   11.3328   14.7352 C   0  0  2  0  0  0  0  0  0  0  0  0
   44.2987   10.0090   14.9316 O   0  0  0  0  0  0  0  0  0  0  0  0
   43.7909   12.2458   14.0065 C   0  0  2  0  0  0  0  0  0  0  0  0
   42.5345   12.3079   14.7854 N   0  0  0  0  0  0  0  0  0  0  0  0
   43.5180   11.6592   12.6053 C   0  0  1  0  0  0  0  0  0  0  0  0
   42.5854   12.4900   11.8917 O   0  0  0  0  0  0  0  0  0  0  0  0
   44.8504   11.6055   11.8436 C   0  0  2  0  0  0  0  0  0  0  0  0
   44.6338   11.0493   10.5391 O   0  0  0  0  0  0  0  0  0  0  0  0
   45.8334   10.7077   12.6405 C   0  0  2  0  0  0  0  0  0  0  0  0
   46.0541   11.2585   13.9709 O   0  0  0  0  0  0  0  0  0  0  0  0
   47.1838   10.6457   11.9058 C   0  0  0  0  0  0  0  0  0  0  0  0
   47.7282   11.9719   11.7786 O   0  0  0  0  0  0  0  0  0  0  0  0
  1  2  1  6  0  0  0
  1  3  1  0  0  0  0
  1  4  2  0  0  0  0
  1 16  1  0  0  0  0
  5  6  1  6  0  0  0
  5  7  1  0  0  0  0
  5 14  1  0  0  0  0
  7  8  1  1  0  0  0
  7  9  1  0  0  0  0
  9 10  1  6  0  0  0
  9 11  1  0  0  0  0
 11 12  1  6  0  0  0
 11 13  1  0  0  0  0
 13 14  1  0  0  0  0
 13 15  1  6  0  0  0
 15 16  1  0  0  0  0
M  CHG  1   3  -1
M  END
>  <CHROM.1>
59.41351348,-176.14219155,64.78837960,46.26174177,11.58069716,12.26155980
-0.45822874,-0.08995316,1.83478807

>  <Name>
ligand

>  <RI>
0

>  <Rbt.Current_Directory>
/home/itssahil/PROJECTS/Mol_Feturizer/New_Systems/rnas/3B4B

>  <Rbt.Executable>
rbdock ($Id: //depot/dev/client3/rdock/2013.1/src/exe/rbdock.cxx#4 $)

>  <Rbt.Library>
libRbt.so (2013.1, Build901 2013/11/27)

>  <Rbt.Parameter_File>
/export/apps/rDock/src/rDock_2013.1_src/data/scripts/dock_solv.prm

>  <Rbt.Receptor>
prm/pocket_docking_3.prm

>  <SCORE>
-9.9443

>  <SCORE.INTER>
-8.21289

>  <SCORE.INTER.CONST>
1

>  <SCORE.INTER.POLAR>
-1.12466

>  <SCORE.INTER.ROT>
3

>  <SCORE.INTER.SOLV>
17.3404

>  <SCORE.INTER.VDW>
-13.1065

>  <SCORE.INTER.norm>
-0.513306

>  <SCORE.INTRA>
-1.73141

>  <SCORE.INTRA.DIHEDRAL>
-2.10487

>  <SCORE.INTRA.DIHEDRAL.0>
2.21864

>  <SCORE.INTRA.POLAR>
0

>  <SCORE.INTRA.POLAR.0>
0

>  <SCORE.INTRA.REPUL>
0

>  <SCORE.INTRA.REPUL.0>
0

>  <SCORE.INTRA.SOLV>
-0.900117

>  <SCORE.INTRA.SOLV.lig_0>
-58.5963

>  <SCORE.INTRA.VDW>
-0.228919

>  <SCORE.INTRA.VDW.0>
-0.437849

>  <SCORE.INTRA.norm>
-0.108213

>  <SCORE.RESTR>
0

>  <SCORE.RESTR.CAVITY>
0

>  <SCORE.RESTR.norm>
0

>  <SCORE.SYSTEM>
0

>  <SCORE.SYSTEM.CONST>
0

>  <SCORE.SYSTEM.DIHEDRAL>
0

>  <SCORE.SYSTEM.SOLV>
0

>  <SCORE.SYSTEM.norm>
0

>  <SCORE.heavy>
16

>  <SCORE.norm>
-0.621519

>  <RMSD>
1.330

$$$$
ligand
 OpenBabel11021811463D
libRbt.so/2013.1/901 2013/11/27
 16 16  0  0  0  0  0  0  0  0999 V2000
   49.1648   11.8886   10.6709 P   0  0  2  0  0  0  0  0  0  0  0  0
   48.8585   11.3816    9.3107 O   0  0  0  0  0  0  0  0  0  0  0  0
   49.7505   13.3858   10.5905 O   0  5  0  0  0  0  0  0  0  0  0  0
   50.2809   10.9344   11.3550 O   0  0  0  0  0  0  0  0  0  0  0  0
   45.0894   11.0113   14.6318 C   0  0  2  0  0  0  0  0  0  0  0  0
   44.5794    9.6752   14.7513 O   0  0  0  0  0  0  0  0  0  0  0  0
   44.0243   11.9787   14.0423 C   0  0  2  0  0  0  0  0  0  0  0  0
   42.8171   11.9755   14.8978 N   0  0  0  0  0  0  0  0  0  0  0  0
   43.6660   11.5070   12.6172 C   0  0  1  0  0  0  0  0  0  0  0  0
   42.6949   12.3914   12.0305 O   0  0  0  0  0  0  0  0  0  0  0  0
   44.9501   11.5173   11.7750 C   0  0  2  0  0  0  0  0  0  0  0  0
   44.6539   11.0682   10.4451 O   0  0  0  0  0  0  0  0  0  0  0  0
   45.9762   10.5595   12.4362 C   0  0  2  0  0  0  0  0  0  0  0  0
   46.2781   11.0012   13.7912 O   0  0  0  0  0  0  0  0  0  0  0  0
   47.2799   10.5593   11.6191 C   0  0  0  0  0  0  0  0  0  0  0  0
   47.7999   11.8987   11.5351 O   0  0  0  0  0  0  0  0  0  0  0  0
  1  2  1  6  0  0  0
  1  3  1  0  0  0  0
  1  4  2  0  0  0  0
  1 16  1  0  0  0  0
  5  6  1  6  0  0  0
  5  7  1  0  0  0  0
  5 14  1  0  0  0  0
  7  8  1  1  0  0  0
  7  9  1  0  0  0  0
  9 10  1  6  0  0  0
  9 11  1  0  0  0  0
 11 12  1  6  0  0  0
 11 13  1  0  0  0  0
 13 14  1  0  0  0  0
 13 15  1  6  0  0  0
 15 16  1  0  0  0  0
M  CHG  1   3  -1
M  END
>  <CHROM.1>
57.79143474,-179.78092661,60.22376974,46.39584405,11.45726560,12.12164850
-0.50512084,-0.10433305,1.90648888

>  <Name>
ligand

>  <RI>
0

>  <Rbt.Current_Directory>
/home/itssahil/PROJECTS/Mol_Feturizer/New_Systems/rnas/3B4B

>  <Rbt.Executable>
rbdock ($Id: //depot/dev/client3/rdock/2013.1/src/exe/rbdock.cxx#4 $)

>  <Rbt.Library>
libRbt.so (2013.1, Build901 2013/11/27)

>  <Rbt.Parameter_File>
/export/apps/rDock/src/rDock_2013.1_src/data/scripts/dock_solv.prm

>  <Rbt.Receptor>
prm/pocket_docking_3.prm

>  <SCORE>
-9.86319

>  <SCORE.INTER>
-8.11927

>  <SCORE.INTER.CONST>
1

>  <SCORE.INTER.POLAR>
-1.12421

>  <SCORE.INTER.ROT>
3

>  <SCORE.INTER.SOLV>
16.979

>  <SCORE.INTER.VDW>
-12.9252

>  <SCORE.INTER.norm>
-0.507455

>  <SCORE.INTRA>
-1.74392

>  <SCORE.INTRA.DIHEDRAL>
-2.20041

>  <SCORE.INTRA.DIHEDRAL.0>
2.21864

>  <SCORE.INTRA.POLAR>
0

>  <SCORE.INTRA.POLAR.0>
0

>  <SCORE.INTRA.REPUL>
0

>  <SCORE.INTRA.REPUL.0>
0

>  <SCORE.INTRA.SOLV>
-0.933963

>  <SCORE.INTRA.SOLV.lig_0>
-58.5963

>  <SCORE.INTRA.VDW>
-0.176727

>  <SCORE.INTRA.VDW.0>
-0.437849

>  <SCORE.INTRA.norm>
-0.108995

>  <SCORE.RESTR>
0

>  <SCORE.RESTR.CAVITY>
0

>  <SCORE.RESTR.norm>
0

>  <SCORE.SYSTEM>
0

>  <SCORE.SYSTEM.CONST>
0

>  <SCORE.SYSTEM.DIHEDRAL>
0

>  <SCORE.SYSTEM.SOLV>
0

>  <SCORE.SYSTEM.norm>
0

>  <SCORE.heavy>
16

>  <SCORE.norm>
-0.616449

>  <RMSD>
1.332

$$$$
ligand
 OpenBabel11021811463D
libRbt.so/2013.1/901 2013/11/27
 16 16  0  0  0  0  0  0  0  0999 V2000
   49.1101   12.2084   10.9094 P   0  0  2  0  0  0  0  0  0  0  0  0
   48.6685   12.3351    9.4987 O   0  0  0  0  0  0  0  0  0  0  0  0
   50.0181   13.4705   11.3263 O   0  5  0  0  0  0  0  0  0  0  0  0
   49.9948   10.8610   11.0705 O   0  0  0  0  0  0  0  0  0  0  0  0
   44.7116   10.9073   14.4897 C   0  0  2  0  0  0  0  0  0  0  0  0
   43.8942    9.7894   14.1130 O   0  0  0  0  0  0  0  0  0  0  0  0
   43.9669   12.2560   14.2800 C   0  0  2  0  0  0  0  0  0  0  0  0
   42.7127   12.2625   15.0649 N   0  0  0  0  0  0  0  0  0  0  0  0
   43.6533   12.4167   12.7775 C   0  0  1  0  0  0  0  0  0  0  0  0
   42.9798   13.6657   12.5412 O   0  0  0  0  0  0  0  0  0  0  0  0
   44.9821   12.3924   12.0082 C   0  0  2  0  0  0  0  0  0  0  0  0
   44.7244   12.5246   10.6032 O   0  0  0  0  0  0  0  0  0  0  0  0
   45.6843   11.0373   12.2879 C   0  0  2  0  0  0  0  0  0  0  0  0
   45.9433   10.8881   13.7136 O   0  0  0  0  0  0  0  0  0  0  0  0
   47.0272   10.9898   11.5384 C   0  0  0  0  0  0  0  0  0  0  0  0
   47.8012   12.1611   11.8553 O   0  0  0  0  0  0  0  0  0  0  0  0
  1  2  1  6  0  0  0
  1  3  1  0  0  0  0
  1  4  2  0  0  0  0
  1 16  1  0  0  0  0
  5  6  1  6  0  0  0
  5  7  1  0  0  0  0
  5 14  1  0  0  0  0
  7  8  1  1  0  0  0
  7  9  1  0  0  0  0
  9 10  1  1  0  0  0
  9 11  1  0  0  0  0
 11 12  1  6  0  0  0
 11 13  1  0  0  0  0
 13 14  1  0  0  0  0
 13 15  1  6  0  0  0
 15 16  1  0  0  0  0
M  CHG  1   3  -1
M  END
>  <CHROM.1>
52.49578523,-172.02634154,63.07900365,46.27735901,11.91351280,12.23123990
0.37725203,0.31776443,-0.80080645

>  <Name>
ligand

>  <RI>
0

>  <Rbt.Current_Directory>
/home/itssahil/PROJECTS/Mol_Feturizer/New_Systems/rnas/3B4B

>  <Rbt.Executable>
rbdock ($Id: //depot/dev/client3/rdock/2013.1/src/exe/rbdock.cxx#4 $)

>  <Rbt.Library>
libRbt.so (2013.1, Build901 2013/11/27)

>  <Rbt.Parameter_File>
/export/apps/rDock/src/rDock_2013.1_src/data/scripts/dock_solv.prm

>  <Rbt.Receptor>
prm/pocket_docking_4.prm

>  <SCORE>
-9.07061

>  <SCORE.INTER>
-7.6314

>  <SCORE.INTER.CONST>
1

>  <SCORE.INTER.POLAR>
-1.12488

>  <SCORE.INTER.ROT>
3

>  <SCORE.INTER.SOLV>
17.1848

>  <SCORE.INTER.VDW>
-12.6663

>  <SCORE.INTER.norm>
-0.476963

>  <SCORE.INTRA>
-1.43921

>  <SCORE.INTRA.DIHEDRAL>
-1.69236

>  <SCORE.INTRA.DIHEDRAL.0>
2.21864

>  <SCORE.INTRA.POLAR>
0

>  <SCORE.INTRA.POLAR.0>
0

>  <SCORE.INTRA.REPUL>
0

>  <SCORE.INTRA.REPUL.0>
0

>  <SCORE.INTRA.SOLV>
-0.854211

>  <SCORE.INTRA.SOLV.lig_0>
-58.5963

>  <SCORE.INTRA.VDW>
-0.165924

>  <SCORE.INTRA.VDW.0>
-0.437849

>  <SCORE.INTRA.norm>
-0.0899506

>  <SCORE.RESTR>
0

>  <SCORE.RESTR.CAVITY>
0

>  <SCORE.RESTR.norm>
0

>  <SCORE.SYSTEM>
0

>  <SCORE.SYSTEM.CONST>
0

>  <SCORE.SYSTEM.DIHEDRAL>
0

>  <SCORE.SYSTEM.SOLV>
0

>  <SCORE.SYSTEM.norm>
0

>  <SCORE.heavy>
16

>  <SCORE.norm>
-0.566913

>  <RMSD>
1.333

$$$$
ligand
 OpenBabel11021811463D
libRbt.so/2013.1/901 2013/11/27
 16 16  0  0  0  0  0  0  0  0999 V2000
   49.4885   11.6255   12.2787 P   0  0  2  0  0  0  0  0  0  0  0  0
   50.5184   11.3528   13.3112 O   0  0  0  0  0  0  0  0  0  0  0  0
   49.7890   10.7686   10.9496 O   0  5  0  0  0  0  0  0  0  0  0  0
   49.5227   13.1993   11.8964 O   0  0  0  0  0  0  0  0  0  0  0  0
   44.3601   11.3500   14.6881 C   0  0  2  0  0  0  0  0  0  0  0  0
   44.1317    9.9403   14.5455 O   0  0  0  0  0  0  0  0  0  0  0  0
   43.2120   12.1823   14.0503 C   0  0  2  0  0  0  0  0  0  0  0  0
   41.9217   11.8159   14.6748 N   0  0  0  0  0  0  0  0  0  0  0  0
   43.1717   11.8861   12.5362 C   0  0  1  0  0  0  0  0  0  0  0  0
   42.1315   12.6550   11.9070 O   0  0  0  0  0  0  0  0  0  0  0  0
   44.5330   12.2715   11.9390 C   0  0  2  0  0  0  0  0  0  0  0  0
   44.5341   11.9936   10.5316 O   0  0  0  0  0  0  0  0  0  0  0  0
   45.6310   11.4298   12.6413 C   0  0  2  0  0  0  0  0  0  0  0  0
   45.6333   11.6975   14.0732 O   0  0  0  0  0  0  0  0  0  0  0  0
   47.0098   11.8048   12.0706 C   0  0  0  0  0  0  0  0  0  0  0  0
   48.0451   11.2016   12.8680 O   0  0  0  0  0  0  0  0  0  0  0  0
  1  2  1  1  0  0  0
  1  3  1  0  0  0  0
  1  4  2  0  0  0  0
  1 16  1  0  0  0  0
  5  6  1  6  0  0  0
  5  7  1  0  0  0  0
  5 14  1  0  0  0  0
  7  8  1  1  0  0  0
  7  9  1  0  0  0  0
  9 10  1  6  0  0  0
  9 11  1  0  0  0  0
 11 12  1  6  0  0  0
 11 13  1  0  0  0  0
 13 14  1  0  0  0  0
 13 15  1  6  0  0  0
 15 16  1  0  0  0  0
M  CHG  1   3  -1
M  END
>  <CHROM.1>
170.24946434,-178.86770282,163.24584806,46.18887873,11.68489649,12.74824798
-0.15576107,-0.08506064,1.91720407

>  <Name>
ligand

>  <RI>
0

>  <Rbt.Current_Directory>
/home/itssahil/PROJECTS/Mol_Feturizer/New_Systems/rnas/3B4B

>  <Rbt.Executable>
rbdock ($Id: //depot/dev/client3/rdock/2013.1/src/exe/rbdock.cxx#4 $)

>  <Rbt.Library>
libRbt.so (2013.1, Build901 2013/11/27)

>  <Rbt.Parameter_File>
/export/apps/rDock/src/rDock_2013.1_src/data/scripts/dock_solv.prm

>  <Rbt.Receptor>
prm/pocket_docking_3.prm

>  <SCORE>
-8.99774

>  <SCORE.INTER>
-7.94823

>  <SCORE.INTER.CONST>
1

>  <SCORE.INTER.POLAR>
-1.12437

>  <SCORE.INTER.ROT>
3

>  <SCORE.INTER.SOLV>
20.4168

>  <SCORE.INTER.VDW>
-13.9565

>  <SCORE.INTER.norm>
-0.496765

>  <SCORE.INTRA>
-1.0495

>  <SCORE.INTRA.DIHEDRAL>
-1.44794

>  <SCORE.INTRA.DIHEDRAL.0>
2.21864

>  <SCORE.INTRA.POLAR>
0

>  <SCORE.INTRA.POLAR.0>
0

>  <SCORE.INTRA.REPUL>
0

>  <SCORE.INTRA.REPUL.0>
0

>  <SCORE.INTRA.SOLV>
-0.489134

>  <SCORE.INTRA.SOLV.lig_0>
-58.5963

>  <SCORE.INTRA.VDW>
-0.0809679

>  <SCORE.INTRA.VDW.0>
-0.437849

>  <SCORE.INTRA.norm>
-0.0655939

>  <SCORE.RESTR>
0

>  <SCORE.RESTR.CAVITY>
0

>  <SCORE.RESTR.norm>
0

>  <SCORE.SYSTEM>
0

>  <SCORE.SYSTEM.CONST>
0

>  <SCORE.SYSTEM.DIHEDRAL>
0

>  <SCORE.SYSTEM.SOLV>
0

>  <SCORE.SYSTEM.norm>
0

>  <SCORE.heavy>
16

>  <SCORE.norm>
-0.562359

>  <RMSD>
1.336

$$$$
ligand
 OpenBabel11021811463D
libRbt.so/2013.1/901 2013/11/27
 16 16  0  0  0  0  0  0  0  0999 V2000
   49.1694   12.0814   10.5853 P   0  0  2  0  0  0  0  0  0  0  0  0
   48.6570   11.8463    9.2130 O   0  0  0  0  0  0  0  0  0  0  0  0
   49.8930   13.5166   10.6734 O   0  5  0  0  0  0  0  0  0  0  0  0
   50.2528   10.9343   10.9521 O   0  0  0  0  0  0  0  0  0  0  0  0
   45.1162   10.9337   14.6207 C   0  0  2  0  0  0  0  0  0  0  0  0
   44.4354    9.6768   14.4921 O   0  0  0  0  0  0  0  0  0  0  0  0
   44.2016   12.1232   14.2129 C   0  0  2  0  0  0  0  0  0  0  0  0
   42.9803   12.1247   15.0482 N   0  0  0  0  0  0  0  0  0  0  0  0
   43.8259   11.9675   12.7241 C   0  0  1  0  0  0  0  0  0  0  0  0
   42.9937   13.0632   12.3044 O   0  0  0  0  0  0  0  0  0  0  0  0
   45.1239   11.9603   11.9035 C   0  0  2  0  0  0  0  0  0  0  0  0
   44.8101   11.8013   10.5128 O   0  0  0  0  0  0  0  0  0  0  0  0
   45.9992   10.7724   12.3834 C   0  0  2  0  0  0  0  0  0  0  0  0
   46.3170   10.9188   13.7975 O   0  0  0  0  0  0  0  0  0  0  0  0
   47.3146   10.7479   11.5856 C   0  0  0  0  0  0  0  0  0  0  0  0
   47.9220   12.0525   11.6116 O   0  0  0  0  0  0  0  0  0  0  0  0
  1  2  1  6  0  0  0
  1  3  1  0  0  0  0
  1  4  2  0  0  0  0
  1 16  1  0  0  0  0
  5  6  1  6  0  0  0
  5  7  1  0  0  0  0
  5 14  1  0  0  0  0
  7  8  1  1  0  0  0
  7  9  1  0  0  0  0
  9 10  1  6  0  0  0
  9 11  1  0  0  0  0
 11 12  1  6  0  0  0
 11 13  1  0  0  0  0
 13 14  1  0  0  0  0
 13 15  1  6  0  0  0
 15 16  1  0  0  0  0
M  CHG  1   3  -1
M  END
>  <CHROM.1>
50.62972771,-171.05747270,62.63300623,46.46079558,11.69243654,12.11925428
0.50118507,0.25347925,-1.01049917

>  <Name>
ligand

>  <RI>
0

>  <Rbt.Current_Directory>
/home/itssahil/PROJECTS/Mol_Feturizer/New_Systems/rnas/3B4B

>  <Rbt.Executable>
rbdock ($Id: //depot/dev/client3/rdock/2013.1/src/exe/rbdock.cxx#4 $)

>  <Rbt.Library>
libRbt.so (2013.1, Build901 2013/11/27)

>  <Rbt.Parameter_File>
/export/apps/rDock/src/rDock_2013.1_src/data/scripts/dock_solv.prm

>  <Rbt.Receptor>
prm/pocket_docking_4.prm

>  <SCORE>
-9.26334

>  <SCORE.INTER>
-7.95134

>  <SCORE.INTER.CONST>
1

>  <SCORE.INTER.POLAR>
-1.125

>  <SCORE.INTER.ROT>
3

>  <SCORE.INTER.SOLV>
16.9002

>  <SCORE.INTER.VDW>
-12.7843

>  <SCORE.INTER.norm>
-0.496959

>  <SCORE.INTRA>
-1.312

>  <SCORE.INTRA.DIHEDRAL>
-1.50844

>  <SCORE.INTRA.DIHEDRAL.0>
2.21864

>  <SCORE.INTRA.POLAR>
0

>  <SCORE.INTRA.POLAR.0>
0

>  <SCORE.INTRA.REPUL>
0

>  <SCORE.INTRA.REPUL.0>
0

>  <SCORE.INTRA.SOLV>
-0.836433

>  <SCORE.INTRA.SOLV.lig_0>
-58.5963

>  <SCORE.INTRA.VDW>
-0.139562

>  <SCORE.INTRA.VDW.0>
-0.437849

>  <SCORE.INTRA.norm>
-0.0819998

>  <SCORE.RESTR>
0

>  <SCORE.RESTR.CAVITY>
0

>  <SCORE.RESTR.norm>
0

>  <SCORE.SYSTEM>
0

>  <SCORE.SYSTEM.CONST>
0

>  <SCORE.SYSTEM.DIHEDRAL>
0

>  <SCORE.SYSTEM.SOLV>
0

>  <SCORE.SYSTEM.norm>
0

>  <SCORE.heavy>
16

>  <SCORE.norm>
-0.578959

>  <RMSD>
1.338

$$$$
ligand
 OpenBabel11021811463D
libRbt.so/2013.1/901 2013/11/27
 16 16  0  0  0  0  0  0  0  0999 V2000
   49.5164   11.6778   11.9058 P   0  0  2  0  0  0  0  0  0  0  0  0
   50.5260   10.6676   12.3072 O   0  0  0  0  0  0  0  0  0  0  0  0
   49.5213   11.8684   10.3075 O   0  5  0  0  0  0  0  0  0  0  0  0
   49.8814   13.0974   12.5955 O   0  0  0  0  0  0  0  0  0  0  0  0
   44.4692   11.2623   14.4769 C   0  0  2  0  0  0  0  0  0  0  0  0
   44.1582    9.9158   14.0896 O   0  0  0  0  0  0  0  0  0  0  0  0
   43.3487   12.2526   14.0509 C   0  0  2  0  0  0  0  0  0  0  0  0
   42.0612   11.8405   14.6524 N   0  0  0  0  0  0  0  0  0  0  0  0
   43.2422   12.2428   12.5113 C   0  0  1  0  0  0  0  0  0  0  0  0
   42.2263   13.1641   12.0775 O   0  0  0  0  0  0  0  0  0  0  0  0
   44.6024   12.6651   11.9370 C   0  0  2  0  0  0  0  0  0  0  0  0
   44.5419   12.6516   10.5038 O   0  0  0  0  0  0  0  0  0  0  0  0
   45.6746   11.6561   12.4268 C   0  0  2  0  0  0  0  0  0  0  0  0
   45.7387   11.6550   13.8821 O   0  0  0  0  0  0  0  0  0  0  0  0
   47.0526   12.0624   11.8760 C   0  0  0  0  0  0  0  0  0  0  0  0
   48.0587   11.1618   12.3740 O   0  0  0  0  0  0  0  0  0  0  0  0
  1  2  1  1  0  0  0
  1  3  1  0  0  0  0
  1  4  2  0  0  0  0
  1 16  1  0  0  0  0
  5  6  1  6  0  0  0
  5  7  1  0  0  0  0
  5 14  1  0  0  0  0
  7  8  1  1  0  0  0
  7  9  1  0  0  0  0
  9 10  1  1  0  0  0
  9 11  1  0  0  0  0
 11 12  1  6  0  0  0
 11 13  1  0  0  0  0
 13 14  1  0  0  0  0
 13 15  1  6  0  0  0
 15 16  1  0  0  0  0
M  CHG  1   3  -1
M  END
>  <CHROM.1>
177.58355142,-174.66134358,-174.28315423,46.24660205,11.84368560,12.54355218
-0.16902795,-0.15473804,2.09424809

>  <Name>
ligand

>  <RI>
0

>  <Rbt.Current_Directory>
/home/itssahil/PROJECTS/Mol_Feturizer/New_Systems/rnas/3B4B

>  <Rbt.Executable>
rbdock ($Id: //depot/dev/client3/rdock/2013.1/src/exe/rbdock.cxx#4 $)

>  <Rbt.Library>
libRbt.so (2013.1, Build901 2013/11/27)

>  <Rbt.Parameter_File>
/export/apps/rDock/src/rDock_2013.1_src/data/scripts/dock_solv.prm

>  <Rbt.Receptor>
prm/pocket_docking_6.prm

>  <SCORE>
-8.17366

>  <SCORE.INTER>
-6.7486

>  <SCORE.INTER.CONST>
1

>  <SCORE.INTER.POLAR>
-0.9

>  <SCORE.INTER.ROT>
3

>  <SCORE.INTER.SOLV>
18.7007

>  <SCORE.INTER.VDW>
-13.3326

>  <SCORE.INTER.norm>
-0.421788

>  <SCORE.INTRA>
-1.42506

>  <SCORE.INTRA.DIHEDRAL>
-2.00264

>  <SCORE.INTRA.DIHEDRAL.0>
2.21864

>  <SCORE.INTRA.POLAR>
0

>  <SCORE.INTRA.POLAR.0>
0

>  <SCORE.INTRA.REPUL>
0

>  <SCORE.INTRA.REPUL.0>
0

>  <SCORE.INTRA.SOLV>
-0.467875

>  <SCORE.INTRA.SOLV.lig_0>
-58.5963

>  <SCORE.INTRA.VDW>
-0.189807

>  <SCORE.INTRA.VDW.0>
-0.437849

>  <SCORE.INTRA.norm>
-0.0890665

>  <SCORE.RESTR>
0

>  <SCORE.RESTR.CAVITY>
0

>  <SCORE.RESTR.norm>
0

>  <SCORE.SYSTEM>
0

>  <SCORE.SYSTEM.CONST>
0

>  <SCORE.SYSTEM.DIHEDRAL>
0

>  <SCORE.SYSTEM.SOLV>
0

>  <SCORE.SYSTEM.norm>
0

>  <SCORE.heavy>
16

>  <SCORE.norm>
-0.510854

>  <RMSD>
1.342

$$$$
ligand
 OpenBabel11021811463D
libRbt.so/2013.1/901 2013/11/27
 16 16  0  0  0  0  0  0  0  0999 V2000
   49.1657   11.6607   10.6515 P   0  0  2  0  0  0  0  0  0  0  0  0
   49.4158   11.2387    9.2514 O   0  0  0  0  0  0  0  0  0  0  0  0
   49.4360   13.2389   10.8163 O   0  5  0  0  0  0  0  0  0  0  0  0
   50.1722   10.8596   11.6361 O   0  0  0  0  0  0  0  0  0  0  0  0
   44.4550   10.9160   14.6501 C   0  0  2  0  0  0  0  0  0  0  0  0
   44.0079    9.6473   14.1499 O   0  0  0  0  0  0  0  0  0  0  0  0
   43.5540   12.0786   14.1457 C   0  0  2  0  0  0  0  0  0  0  0  0
   42.1529   11.8408   14.5573 N   0  0  0  0  0  0  0  0  0  0  0  0
   43.6510   12.1445   12.6068 C   0  0  1  0  0  0  0  0  0  0  0  0
   42.8437   13.2236   12.1037 O   0  0  0  0  0  0  0  0  0  0  0  0
   45.1214   12.3805   12.2318 C   0  0  2  0  0  0  0  0  0  0  0  0
   45.2489   12.4317   10.8039 O   0  0  0  0  0  0  0  0  0  0  0  0
   45.9638   11.2042   12.7923 C   0  0  2  0  0  0  0  0  0  0  0  0
   45.8349   11.1370   14.2417 O   0  0  0  0  0  0  0  0  0  0  0  0
   47.4463   11.4208   12.4418 C   0  0  0  0  0  0  0  0  0  0  0  0
   47.6234   11.3459   11.0155 O   0  0  0  0  0  0  0  0  0  0  0  0
  1  2  1  6  0  0  0
  1  3  1  0  0  0  0
  1  4  2  0  0  0  0
  1 16  1  0  0  0  0
  5  6  1  6  0  0  0
  5  7  1  0  0  0  0
  5 14  1  0  0  0  0
  7  8  1  6  0  0  0
  7  9  1  0  0  0  0
  9 10  1  1  0  0  0
  9 11  1  0  0  0  0
 11 12  1  6  0  0  0
 11 13  1  0  0  0  0
 13 14  1  0  0  0  0
 13 15  1  1  0  0  0
 15 16  1  0  0  0  0
M  CHG  1   3  -1
M  END
>  <CHROM.1>
-65.76385373,176.68982450,165.35378914,46.29881325,11.66871685,12.20711142
0.39095697,0.30570126,-0.93806629

>  <Name>
ligand

>  <RI>
0

>  <Rbt.Current_Directory>
/home/itssahil/PROJECTS/Mol_Feturizer/New_Systems/rnas/3B4B

>  <Rbt.Executable>
rbdock ($Id: //depot/dev/client3/rdock/2013.1/src/exe/rbdock.cxx#4 $)

>  <Rbt.Library>
libRbt.so (2013.1, Build901 2013/11/27)

>  <Rbt.Parameter_File>
/export/apps/rDock/src/rDock_2013.1_src/data/scripts/dock_solv.prm

>  <Rbt.Receptor>
prm/pocket_docking_2.prm

>  <SCORE>
-9.1635

>  <SCORE.INTER>
-8.3464

>  <SCORE.INTER.CONST>
1

>  <SCORE.INTER.POLAR>
-1.12094

>  <SCORE.INTER.ROT>
3

>  <SCORE.INTER.SOLV>
15.9171

>  <SCORE.INTER.VDW>
-12.7335

>  <SCORE.INTER.norm>
-0.52165

>  <SCORE.INTRA>
-0.857638

>  <SCORE.INTRA.DIHEDRAL>
-1.71364

>  <SCORE.INTRA.DIHEDRAL.0>
2.21864

>  <SCORE.INTRA.POLAR>
0

>  <SCORE.INTRA.POLAR.0>
0

>  <SCORE.INTRA.REPUL>
0

>  <SCORE.INTRA.REPUL.0>
0

>  <SCORE.INTRA.SOLV>
0.102847

>  <SCORE.INTRA.SOLV.lig_0>
-58.5963

>  <SCORE.INTRA.VDW>
-0.052241

>  <SCORE.INTRA.VDW.0>
-0.437849

>  <SCORE.INTRA.norm>
-0.0536023

>  <SCORE.RESTR>
0.0405432

>  <SCORE.RESTR.CAVITY>
0.0405432

>  <SCORE.RESTR.norm>
0.00253395

>  <SCORE.SYSTEM>
0

>  <SCORE.SYSTEM.CONST>
0

>  <SCORE.SYSTEM.DIHEDRAL>
0

>  <SCORE.SYSTEM.SOLV>
0

>  <SCORE.SYSTEM.norm>
0

>  <SCORE.heavy>
16

>  <SCORE.norm>
-0.572719

>  <RMSD>
1.349

$$$$
ligand
 OpenBabel11021811463D
libRbt.so/2013.1/901 2013/11/27
 16 16  0  0  0  0  0  0  0  0999 V2000
   49.1711   11.6624   10.6388 P   0  0  2  0  0  0  0  0  0  0  0  0
   49.4193   11.2454    9.2368 O   0  0  0  0  0  0  0  0  0  0  0  0
   49.4286   13.2425   10.8058 O   0  5  0  0  0  0  0  0  0  0  0  0
   50.1884   10.8679   11.6177 O   0  0  0  0  0  0  0  0  0  0  0  0
   44.4545   10.9838   14.6420 C   0  0  2  0  0  0  0  0  0  0  0  0
   44.0183    9.6996   14.1727 O   0  0  0  0  0  0  0  0  0  0  0  0
   43.5468   12.1266   14.1058 C   0  0  2  0  0  0  0  0  0  0  0  0
   42.1462   11.8891   14.5191 N   0  0  0  0  0  0  0  0  0  0  0  0
   43.6481   12.1545   12.5660 C   0  0  1  0  0  0  0  0  0  0  0  0
   42.8346   13.2146   12.0335 O   0  0  0  0  0  0  0  0  0  0  0  0
   45.1179   12.3917   12.1895 C   0  0  2  0  0  0  0  0  0  0  0  0
   45.2495   12.4078   10.7611 O   0  0  0  0  0  0  0  0  0  0  0  0
   45.9670   11.2361   12.7820 C   0  0  2  0  0  0  0  0  0  0  0  0
   45.8341   11.2045   14.2323 O   0  0  0  0  0  0  0  0  0  0  0  0
   47.4490   11.4546   12.4305 C   0  0  0  0  0  0  0  0  0  0  0  0
   47.6331   11.3335   11.0082 O   0  0  0  0  0  0  0  0  0  0  0  0
  1  2  1  6  0  0  0
  1  3  1  0  0  0  0
  1  4  2  0  0  0  0
  1 16  1  0  0  0  0
  5  6  1  6  0  0  0
  5  7  1  0  0  0  0
  5 14  1  0  0  0  0
  7  8  1  6  0  0  0
  7  9  1  0  0  0  0
  9 10  1  1  0  0  0
  9 11  1  0  0  0  0
 11 12  1  6  0  0  0
 11 13  1  0  0  0  0
 13 14  1  0  0  0  0
 13 15  1  1  0  0  0
 15 16  1  0  0  0  0
M  CHG  1   3  -1
M  END
>  <CHROM.1>
-66.25831680,176.22180990,167.55685569,46.30015281,11.68812117,12.18595287
0.39287531,0.29823472,-0.96372813

>  <Name>
ligand

>  <RI>
0

>  <Rbt.Current_Directory>
/home/itssahil/PROJECTS/Mol_Feturizer/New_Systems/rnas/3B4B

>  <Rbt.Executable>
rbdock ($Id: //depot/dev/client3/rdock/2013.1/src/exe/rbdock.cxx#4 $)

>  <Rbt.Library>
libRbt.so (2013.1, Build901 2013/11/27)

>  <Rbt.Parameter_File>
/export/apps/rDock/src/rDock_2013.1_src/data/scripts/dock_solv.prm

>  <Rbt.Receptor>
prm/pocket_docking_2.prm

>  <SCORE>
-9.19236

>  <SCORE.INTER>
-8.32151

>  <SCORE.INTER.CONST>
1

>  <SCORE.INTER.POLAR>
-1.12417

>  <SCORE.INTER.ROT>
3

>  <SCORE.INTER.SOLV>
15.751

>  <SCORE.INTER.VDW>
-12.6508

>  <SCORE.INTER.norm>
-0.520094

>  <SCORE.INTRA>
-0.921648

>  <SCORE.INTRA.DIHEDRAL>
-1.76589

>  <SCORE.INTRA.DIHEDRAL.0>
2.21864

>  <SCORE.INTRA.POLAR>
0

>  <SCORE.INTRA.POLAR.0>
0

>  <SCORE.INTRA.REPUL>
0

>  <SCORE.INTRA.REPUL.0>
0

>  <SCORE.INTRA.SOLV>
0.11597

>  <SCORE.INTRA.SOLV.lig_0>
-58.5963

>  <SCORE.INTRA.VDW>
-0.0966893

>  <SCORE.INTRA.VDW.0>
-0.437849

>  <SCORE.INTRA.norm>
-0.057603

>  <SCORE.RESTR>
0.0508025

>  <SCORE.RESTR.CAVITY>
0.0508025

>  <SCORE.RESTR.norm>
0.00317516

>  <SCORE.SYSTEM>
0

>  <SCORE.SYSTEM.CONST>
0

>  <SCORE.SYSTEM.DIHEDRAL>
0

>  <SCORE.SYSTEM.SOLV>
0

>  <SCORE.SYSTEM.norm>
0

>  <SCORE.heavy>
16

>  <SCORE.norm>
-0.574522

>  <RMSD>
1.356

$$$$
ligand
 OpenBabel11021811463D
libRbt.so/2013.1/901 2013/11/27
 16 16  0  0  0  0  0  0  0  0999 V2000
   49.0796   11.8673   10.7860 P   0  0  2  0  0  0  0  0  0  0  0  0
   48.7590   11.3574    9.4302 O   0  0  0  0  0  0  0  0  0  0  0  0
   49.7039   13.3480   10.6931 O   0  5  0  0  0  0  0  0  0  0  0  0
   50.1711   10.8899   11.4771 O   0  0  0  0  0  0  0  0  0  0  0  0
   44.9060   11.2415   14.6813 C   0  0  2  0  0  0  0  0  0  0  0  0
   44.4061    9.9122   14.8880 O   0  0  0  0  0  0  0  0  0  0  0  0
   43.8460   12.1506   13.9976 C   0  0  2  0  0  0  0  0  0  0  0  0
   42.6191   12.1971   14.8233 N   0  0  0  0  0  0  0  0  0  0  0  0
   43.5257   11.5708   12.6036 C   0  0  1  0  0  0  0  0  0  0  0  0
   42.5603   12.3984   11.9310 O   0  0  0  0  0  0  0  0  0  0  0  0
   44.8290   11.5331   11.7924 C   0  0  2  0  0  0  0  0  0  0  0  0
   44.5684   10.9835   10.4931 O   0  0  0  0  0  0  0  0  0  0  0  0
   45.8483   10.6384   12.5460 C   0  0  2  0  0  0  0  0  0  0  0  0
   46.1142   11.1825   13.8709 O   0  0  0  0  0  0  0  0  0  0  0  0
   47.1708   10.5924   11.7609 C   0  0  0  0  0  0  0  0  0  0  0  0
   47.7161   11.9198   11.6511 O   0  0  0  0  0  0  0  0  0  0  0  0
  1  2  1  6  0  0  0
  1  3  1  0  0  0  0
  1  4  2  0  0  0  0
  1 16  1  0  0  0  0
  5  6  1  6  0  0  0
  5  7  1  0  0  0  0
  5 14  1  0  0  0  0
  7  8  1  1  0  0  0
  7  9  1  0  0  0  0
  9 10  1  6  0  0  0
  9 11  1  0  0  0  0
 11 12  1  6  0  0  0
 11 13  1  0  0  0  0
 13 14  1  0  0  0  0
 13 15  1  6  0  0  0
 15 16  1  0  0  0  0
M  CHG  1   3  -1
M  END
>  <CHROM.1>
60.82698921,-178.23852885,60.96523724,46.27259409,11.51394453,12.18532384
-0.48043750,-0.08511381,1.83099676

>  <Name>
ligand

>  <RI>
0

>  <Rbt.Current_Directory>
/home/itssahil/PROJECTS/Mol_Feturizer/New_Systems/rnas/3B4B

>  <Rbt.Executable>
rbdock ($Id: //depot/dev/client3/rdock/2013.1/src/exe/rbdock.cxx#4 $)

>  <Rbt.Library>
libRbt.so (2013.1, Build901 2013/11/27)

>  <Rbt.Parameter_File>
/export/apps/rDock/src/rDock_2013.1_src/data/scripts/dock_solv.prm

>  <Rbt.Receptor>
prm/pocket_docking_4.prm

>  <SCORE>
-9.93648

>  <SCORE.INTER>
-8.1607

>  <SCORE.INTER.CONST>
1

>  <SCORE.INTER.POLAR>
-1.12433

>  <SCORE.INTER.ROT>
3

>  <SCORE.INTER.SOLV>
17.1413

>  <SCORE.INTER.VDW>
-13.0065

>  <SCORE.INTER.norm>
-0.510044

>  <SCORE.INTRA>
-1.77578

>  <SCORE.INTRA.DIHEDRAL>
-2.1984

>  <SCORE.INTRA.DIHEDRAL.0>
2.21864

>  <SCORE.INTRA.POLAR>
0

>  <SCORE.INTRA.POLAR.0>
0

>  <SCORE.INTRA.REPUL>
0

>  <SCORE.INTRA.REPUL.0>
0

>  <SCORE.INTRA.SOLV>
-0.933914

>  <SCORE.INTRA.SOLV.lig_0>
-58.5963

>  <SCORE.INTRA.VDW>
-0.209621

>  <SCORE.INTRA.VDW.0>
-0.437849

>  <SCORE.INTRA.norm>
-0.110986

>  <SCORE.RESTR>
0

>  <SCORE.RESTR.CAVITY>
0

>  <SCORE.RESTR.norm>
0

>  <SCORE.SYSTEM>
0

>  <SCORE.SYSTEM.CONST>
0

>  <SCORE.SYSTEM.DIHEDRAL>
0

>  <SCORE.SYSTEM.SOLV>
0

>  <SCORE.SYSTEM.norm>
0

>  <SCORE.heavy>
16

>  <SCORE.norm>
-0.62103

>  <RMSD>
1.357

$$$$
ligand
 OpenBabel11021811463D
libRbt.so/2013.1/901 2013/11/27
 16 16  0  0  0  0  0  0  0  0999 V2000
   49.5116   11.8621   11.5812 P   0  0  2  0  0  0  0  0  0  0  0  0
   49.4267   11.9731   10.1042 O   0  0  0  0  0  0  0  0  0  0  0  0
   49.8250   13.3003   12.2326 O   0  5  0  0  0  0  0  0  0  0  0  0
   50.7129   10.8472   11.9698 O   0  0  0  0  0  0  0  0  0  0  0  0
   44.5485   11.2998   14.3259 C   0  0  2  0  0  0  0  0  0  0  0  0
   44.2908    9.9359   13.9610 O   0  0  0  0  0  0  0  0  0  0  0  0
   43.3760   12.2333   13.9117 C   0  0  2  0  0  0  0  0  0  0  0  0
   42.1210   11.7716   14.5448 N   0  0  0  0  0  0  0  0  0  0  0  0
   43.2388   12.1991   12.3749 C   0  0  1  0  0  0  0  0  0  0  0  0
   42.1737   13.0683   11.9516 O   0  0  0  0  0  0  0  0  0  0  0  0
   44.5666   12.6747   11.7673 C   0  0  2  0  0  0  0  0  0  0  0  0
   44.4776   12.6402   10.3360 O   0  0  0  0  0  0  0  0  0  0  0  0
   45.6929   11.7211   12.2465 C   0  0  2  0  0  0  0  0  0  0  0  0
   45.7867   11.7414   13.7000 O   0  0  0  0  0  0  0  0  0  0  0  0
   47.0397   12.1818   11.6622 C   0  0  0  0  0  0  0  0  0  0  0  0
   48.0935   11.3250   12.1386 O   0  0  0  0  0  0  0  0  0  0  0  0
  1  2  1  6  0  0  0
  1  3  1  0  0  0  0
  1  4  2  0  0  0  0
  1 16  1  0  0  0  0
  5  6  1  6  0  0  0
  5  7  1  0  0  0  0
  5 14  1  0  0  0  0
  7  8  1  1  0  0  0
  7  9  1  0  0  0  0
  9 10  1  1  0  0  0
  9 11  1  0  0  0  0
 11 12  1  6  0  0  0
 11 13  1  0  0  0  0
 13 14  1  0  0  0  0
 13 15  1  6  0  0  0
 15 16  1  0  0  0  0
M  CHG  1   3  -1
M  END
>  <CHROM.1>
178.18086738,-177.11074581,-54.38114506,46.26156505,11.91294277,12.33503911
-0.20553179,-0.13950694,2.08414005

>  <Name>
ligand

>  <RI>
0

>  <Rbt.Current_Directory>
/home/itssahil/PROJECTS/Mol_Feturizer/New_Systems/rnas/3B4B

>  <Rbt.Executable>
rbdock ($Id: //depot/dev/client3/rdock/2013.1/src/exe/rbdock.cxx#4 $)

>  <Rbt.Library>
libRbt.so (2013.1, Build901 2013/11/27)

>  <Rbt.Parameter_File>
/export/apps/rDock/src/rDock_2013.1_src/data/scripts/dock_solv.prm

>  <Rbt.Receptor>
prm/pocket_docking_6.prm

>  <SCORE>
-8.62874

>  <SCORE.INTER>
-7.01149

>  <SCORE.INTER.CONST>
1

>  <SCORE.INTER.POLAR>
-1.12438

>  <SCORE.INTER.ROT>
3

>  <SCORE.INTER.SOLV>
18.2649

>  <SCORE.INTER.VDW>
-12.6147

>  <SCORE.INTER.norm>
-0.438218

>  <SCORE.INTRA>
-1.61725

>  <SCORE.INTRA.DIHEDRAL>
-2.11213

>  <SCORE.INTRA.DIHEDRAL.0>
2.21864

>  <SCORE.INTRA.POLAR>
0

>  <SCORE.INTRA.POLAR.0>
0

>  <SCORE.INTRA.REPUL>
0

>  <SCORE.INTRA.REPUL.0>
0

>  <SCORE.INTRA.SOLV>
-1.17623

>  <SCORE.INTRA.SOLV.lig_0>
-58.5963

>  <SCORE.INTRA.VDW>
0.02693

>  <SCORE.INTRA.VDW.0>
-0.437849

>  <SCORE.INTRA.norm>
-0.101078

>  <SCORE.RESTR>
0

>  <SCORE.RESTR.CAVITY>
0

>  <SCORE.RESTR.norm>
0

>  <SCORE.SYSTEM>
0

>  <SCORE.SYSTEM.CONST>
0

>  <SCORE.SYSTEM.DIHEDRAL>
0

>  <SCORE.SYSTEM.SOLV>
0

>  <SCORE.SYSTEM.norm>
0

>  <SCORE.heavy>
16

>  <SCORE.norm>
-0.539297

>  <RMSD>
1.361

$$$$
ligand
 OpenBabel11021811463D
libRbt.so/2013.1/901 2013/11/27
 16 16  0  0  0  0  0  0  0  0999 V2000
   49.1738   11.8607   10.5862 P   0  0  2  0  0  0  0  0  0  0  0  0
   50.0445   10.8734   11.2705 O   0  0  0  0  0  0  0  0  0  0  0  0
   49.3845   11.7816    8.9923 O   0  5  0  0  0  0  0  0  0  0  0  0
   49.5661   13.3512   11.0848 O   0  0  0  0  0  0  0  0  0  0  0  0
   44.5254   10.6420   14.5404 C   0  0  2  0  0  0  0  0  0  0  0  0
   44.0692    9.4465   13.8905 O   0  0  0  0  0  0  0  0  0  0  0  0
   43.6165   11.8578   14.2036 C   0  0  2  0  0  0  0  0  0  0  0  0
   42.2226   11.5672   14.6055 N   0  0  0  0  0  0  0  0  0  0  0  0
   43.6871   12.1192   12.6842 C   0  0  1  0  0  0  0  0  0  0  0  0
   42.8718   13.2523   12.3365 O   0  0  0  0  0  0  0  0  0  0  0  0
   45.1509   12.4035   12.3172 C   0  0  2  0  0  0  0  0  0  0  0  0
   45.2539   12.6363   10.9054 O   0  0  0  0  0  0  0  0  0  0  0  0
   46.0022   11.1668   12.7088 C   0  0  2  0  0  0  0  0  0  0  0  0
   45.8982   10.9155   14.1399 O   0  0  0  0  0  0  0  0  0  0  0  0
   47.4785   11.4287   12.3634 C   0  0  0  0  0  0  0  0  0  0  0  0
   47.6342   11.5172   10.9354 O   0  0  0  0  0  0  0  0  0  0  0  0
  1  2  1  1  0  0  0
  1  3  1  0  0  0  0
  1  4  2  0  0  0  0
  1 16  1  0  0  0  0
  5  6  1  6  0  0  0
  5  7  1  0  0  0  0
  5 14  1  0  0  0  0
  7  8  1  6  0  0  0
  7  9  1  0  0  0  0
  9 10  1  1  0  0  0
  9 11  1  0  0  0  0
 11 12  1  6  0  0  0
 11 13  1  0  0  0  0
 13 14  1  0  0  0  0
 13 15  1  1  0  0  0
 15 16  1  0  0  0  0
M  CHG  1   3  -1
M  END
>  <CHROM.1>
-66.58355070,177.37643419,52.85651675,46.32655155,11.69226544,12.16942704
-0.41052036,-0.32156789,2.32014548

>  <Name>
ligand

>  <RI>
0

>  <Rbt.Current_Directory>
/home/itssahil/PROJECTS/Mol_Feturizer/New_Systems/rnas/3B4B

>  <Rbt.Executable>
rbdock ($Id: //depot/dev/client3/rdock/2013.1/src/exe/rbdock.cxx#4 $)

>  <Rbt.Library>
libRbt.so (2013.1, Build901 2013/11/27)

>  <Rbt.Parameter_File>
/export/apps/rDock/src/rDock_2013.1_src/data/scripts/dock_solv.prm

>  <Rbt.Receptor>
prm/pocket_docking_5.prm

>  <SCORE>
-8.20601

>  <SCORE.INTER>
-6.98284

>  <SCORE.INTER.CONST>
1

>  <SCORE.INTER.POLAR>
-0.9

>  <SCORE.INTER.ROT>
3

>  <SCORE.INTER.SOLV>
16.8327

>  <SCORE.INTER.VDW>
-12.8661

>  <SCORE.INTER.norm>
-0.436427

>  <SCORE.INTRA>
-1.22317

>  <SCORE.INTRA.DIHEDRAL>
-1.94891

>  <SCORE.INTRA.DIHEDRAL.0>
2.21864

>  <SCORE.INTRA.POLAR>
0

>  <SCORE.INTRA.POLAR.0>
0

>  <SCORE.INTRA.REPUL>
0

>  <SCORE.INTRA.REPUL.0>
0

>  <SCORE.INTRA.SOLV>
-0.713914

>  <SCORE.INTRA.SOLV.lig_0>
-58.5963

>  <SCORE.INTRA.VDW>
0.108242

>  <SCORE.INTRA.VDW.0>
-0.437849

>  <SCORE.INTRA.norm>
-0.076448

>  <SCORE.RESTR>
0

>  <SCORE.RESTR.CAVITY>
0

>  <SCORE.RESTR.norm>
0

>  <SCORE.SYSTEM>
0

>  <SCORE.SYSTEM.CONST>
0

>  <SCORE.SYSTEM.DIHEDRAL>
0

>  <SCORE.SYSTEM.SOLV>
0

>  <SCORE.SYSTEM.norm>
0

>  <SCORE.heavy>
16

>  <SCORE.norm>
-0.512875

>  <RMSD>
1.365

$$$$
ligand
 OpenBabel11021811463D
libRbt.so/2013.1/901 2013/11/27
 16 16  0  0  0  0  0  0  0  0999 V2000
   49.0516   11.9141   10.8946 P   0  0  2  0  0  0  0  0  0  0  0  0
   48.7197   11.4871    9.5131 O   0  0  0  0  0  0  0  0  0  0  0  0
   49.7471   13.3657   10.8791 O   0  5  0  0  0  0  0  0  0  0  0  0
   50.0884   10.8526   11.5446 O   0  0  0  0  0  0  0  0  0  0  0  0
   44.7951   11.3781   14.6976 C   0  0  2  0  0  0  0  0  0  0  0  0
   44.2653   10.0593   14.8970 O   0  0  0  0  0  0  0  0  0  0  0  0
   43.7630   12.3093   14.0011 C   0  0  2  0  0  0  0  0  0  0  0  0
   42.5269   12.3808   14.8111 N   0  0  0  0  0  0  0  0  0  0  0  0
   43.4486   11.7369   12.6028 C   0  0  1  0  0  0  0  0  0  0  0  0
   42.5092   12.5846   11.9184 O   0  0  0  0  0  0  0  0  0  0  0  0
   44.7611   11.6726   11.8082 C   0  0  2  0  0  0  0  0  0  0  0  0
   44.5058   11.1292   10.5053 O   0  0  0  0  0  0  0  0  0  0  0  0
   45.7520   10.7567   12.5741 C   0  0  2  0  0  0  0  0  0  0  0  0
   46.0121   11.2945   13.9027 O   0  0  0  0  0  0  0  0  0  0  0  0
   47.0832   10.6837   11.8060 C   0  0  0  0  0  0  0  0  0  0  0  0
   47.6841   11.9904   11.7516 O   0  0  0  0  0  0  0  0  0  0  0  0
  1  2  1  6  0  0  0
  1  3  1  0  0  0  0
  1  4  2  0  0  0  0
  1 16  1  0  0  0  0
  5  6  1  6  0  0  0
  5  7  1  0  0  0  0
  5 14  1  0  0  0  0
  7  8  1  1  0  0  0
  7  9  1  0  0  0  0
  9 10  1  6  0  0  0
  9 11  1  0  0  0  0
 11 12  1  6  0  0  0
 11 13  1  0  0  0  0
 13 14  1  0  0  0  0
 13 15  1  6  0  0  0
 15 16  1  0  0  0  0
M  CHG  1   3  -1
M  END
>  <CHROM.1>
63.16810318,-177.82658784,61.66283761,46.20701308,11.62111205,12.23403353
-0.45464213,-0.09844447,1.82864613

>  <Name>
ligand

>  <RI>
0

>  <Rbt.Current_Directory>
/home/itssahil/PROJECTS/Mol_Feturizer/New_Systems/rnas/3B4B

>  <Rbt.Executable>
rbdock ($Id: //depot/dev/client3/rdock/2013.1/src/exe/rbdock.cxx#4 $)

>  <Rbt.Library>
libRbt.so (2013.1, Build901 2013/11/27)

>  <Rbt.Parameter_File>
/export/apps/rDock/src/rDock_2013.1_src/data/scripts/dock_solv.prm

>  <Rbt.Receptor>
prm/pocket_docking_5.prm

>  <SCORE>
-9.877

>  <SCORE.INTER>
-8.10862

>  <SCORE.INTER.CONST>
1

>  <SCORE.INTER.POLAR>
-1.12471

>  <SCORE.INTER.ROT>
3

>  <SCORE.INTER.SOLV>
17.209

>  <SCORE.INTER.VDW>
-12.993

>  <SCORE.INTER.norm>
-0.506789

>  <SCORE.INTRA>
-1.76838

>  <SCORE.INTRA.DIHEDRAL>
-2.15311

>  <SCORE.INTRA.DIHEDRAL.0>
2.21864

>  <SCORE.INTRA.POLAR>
0

>  <SCORE.INTRA.POLAR.0>
0

>  <SCORE.INTRA.REPUL>
0

>  <SCORE.INTRA.REPUL.0>
0

>  <SCORE.INTRA.SOLV>
-0.929945

>  <SCORE.INTRA.SOLV.lig_0>
-58.5963

>  <SCORE.INTRA.VDW>
-0.226855

>  <SCORE.INTRA.VDW.0>
-0.437849

>  <SCORE.INTRA.norm>
-0.110524

>  <SCORE.RESTR>
0

>  <SCORE.RESTR.CAVITY>
0

>  <SCORE.RESTR.norm>
0

>  <SCORE.SYSTEM>
0

>  <SCORE.SYSTEM.CONST>
0

>  <SCORE.SYSTEM.DIHEDRAL>
0

>  <SCORE.SYSTEM.SOLV>
0

>  <SCORE.SYSTEM.norm>
0

>  <SCORE.heavy>
16

>  <SCORE.norm>
-0.617312

>  <RMSD>
1.365

$$$$
ligand
 OpenBabel11021811463D
libRbt.so/2013.1/901 2013/11/27
 16 16  0  0  0  0  0  0  0  0999 V2000
   49.1463   11.8622   10.5456 P   0  0  2  0  0  0  0  0  0  0  0  0
   49.3526   11.6876    9.0869 O   0  0  0  0  0  0  0  0  0  0  0  0
   49.4220   13.3902   10.9702 O   0  5  0  0  0  0  0  0  0  0  0  0
   50.1828   10.9094   11.3468 O   0  0  0  0  0  0  0  0  0  0  0  0
   44.4931   10.6937   14.5090 C   0  0  2  0  0  0  0  0  0  0  0  0
   44.0027    9.5149   13.8536 O   0  0  0  0  0  0  0  0  0  0  0  0
   43.6163   11.9356   14.1825 C   0  0  2  0  0  0  0  0  0  0  0  0
   42.2163   11.6803   14.5875 N   0  0  0  0  0  0  0  0  0  0  0  0
   43.6888   12.2042   12.6645 C   0  0  1  0  0  0  0  0  0  0  0  0
   42.9033   13.3608   12.3263 O   0  0  0  0  0  0  0  0  0  0  0  0
   45.1586   12.4511   12.2941 C   0  0  2  0  0  0  0  0  0  0  0  0
   45.2632   12.6895   10.8834 O   0  0  0  0  0  0  0  0  0  0  0  0
   45.9775   11.1896   12.6755 C   0  0  2  0  0  0  0  0  0  0  0  0
   45.8715   10.9325   14.1054 O   0  0  0  0  0  0  0  0  0  0  0  0
   47.4592   11.4137   12.3266 C   0  0  0  0  0  0  0  0  0  0  0  0
   47.6161   11.4818   10.8975 O   0  0  0  0  0  0  0  0  0  0  0  0
  1  2  1  6  0  0  0
  1  3  1  0  0  0  0
  1  4  2  0  0  0  0
  1 16  1  0  0  0  0
  5  6  1  6  0  0  0
  5  7  1  0  0  0  0
  5 14  1  0  0  0  0
  7  8  1  6  0  0  0
  7  9  1  0  0  0  0
  9 10  1  1  0  0  0
  9 11  1  0  0  0  0
 11 12  1  6  0  0  0
 11 13  1  0  0  0  0
 13 14  1  0  0  0  0
 13 15  1  1  0  0  0
 15 16  1  0  0  0  0
M  CHG  1   3  -1
M  END
>  <CHROM.1>
-67.63968604,174.44113656,169.84319080,46.31240636,11.72484035,12.14934150
0.39062141,0.33753464,-0.80281691

>  <Name>
ligand

>  <RI>
0

>  <Rbt.Current_Directory>
/home/itssahil/PROJECTS/Mol_Feturizer/New_Systems/rnas/3B4B

>  <Rbt.Executable>
rbdock ($Id: //depot/dev/client3/rdock/2013.1/src/exe/rbdock.cxx#4 $)

>  <Rbt.Library>
libRbt.so (2013.1, Build901 2013/11/27)

>  <Rbt.Parameter_File>
/export/apps/rDock/src/rDock_2013.1_src/data/scripts/dock_solv.prm

>  <Rbt.Receptor>
prm/pocket_docking_3.prm

>  <SCORE>
-9.48855

>  <SCORE.INTER>
-8.55898

>  <SCORE.INTER.CONST>
1

>  <SCORE.INTER.POLAR>
-1.125

>  <SCORE.INTER.ROT>
3

>  <SCORE.INTER.SOLV>
15.6596

>  <SCORE.INTER.VDW>
-12.7759

>  <SCORE.INTER.norm>
-0.534937

>  <SCORE.INTRA>
-0.929561

>  <SCORE.INTRA.DIHEDRAL>
-1.69647

>  <SCORE.INTRA.DIHEDRAL.0>
2.21864

>  <SCORE.INTRA.POLAR>
0

>  <SCORE.INTRA.POLAR.0>
0

>  <SCORE.INTRA.REPUL>
0

>  <SCORE.INTRA.REPUL.0>
0

>  <SCORE.INTRA.SOLV>
0.172653

>  <SCORE.INTRA.SOLV.lig_0>
-58.5963

>  <SCORE.INTRA.VDW>
-0.167653

>  <SCORE.INTRA.VDW.0>
-0.437849

>  <SCORE.INTRA.norm>
-0.0580976

>  <SCORE.RESTR>
0

>  <SCORE.RESTR.CAVITY>
0

>  <SCORE.RESTR.norm>
0

>  <SCORE.SYSTEM>
0

>  <SCORE.SYSTEM.CONST>
0

>  <SCORE.SYSTEM.DIHEDRAL>
0

>  <SCORE.SYSTEM.SOLV>
0

>  <SCORE.SYSTEM.norm>
0

>  <SCORE.heavy>
16

>  <SCORE.norm>
-0.593034

>  <RMSD>
1.373

$$$$
ligand
 OpenBabel11021811463D
libRbt.so/2013.1/901 2013/11/27
 16 16  0  0  0  0  0  0  0  0999 V2000
   49.1315   11.8559   10.5357 P   0  0  2  0  0  0  0  0  0  0  0  0
   49.3088   11.7029    9.0707 O   0  0  0  0  0  0  0  0  0  0  0  0
   49.3777   13.3857   10.9717 O   0  5  0  0  0  0  0  0  0  0  0  0
   50.2100   10.9213   11.3021 O   0  0  0  0  0  0  0  0  0  0  0  0
   44.4885   10.9144   14.5703 C   0  0  2  0  0  0  0  0  0  0  0  0
   44.0496    9.6545   14.0414 O   0  0  0  0  0  0  0  0  0  0  0  0
   43.5698   12.0800   14.1066 C   0  0  2  0  0  0  0  0  0  0  0  0
   42.1758   11.8160   14.5267 N   0  0  0  0  0  0  0  0  0  0  0  0
   43.6492   12.1877   12.5691 C   0  0  1  0  0  0  0  0  0  0  0  0
   42.8250   13.2708   12.1036 O   0  0  0  0  0  0  0  0  0  0  0  0
   45.1128   12.4496   12.1849 C   0  0  2  0  0  0  0  0  0  0  0  0
   45.2241   12.5401   10.7575 O   0  0  0  0  0  0  0  0  0  0  0  0
   45.9738   11.2682   12.7049 C   0  0  2  0  0  0  0  0  0  0  0  0
   45.8615   11.1612   14.1533 O   0  0  0  0  0  0  0  0  0  0  0  0
   47.4499   11.5102   12.3445 C   0  0  0  0  0  0  0  0  0  0  0  0
   47.6199   11.4322   10.9175 O   0  0  0  0  0  0  0  0  0  0  0  0
  1  2  1  6  0  0  0
  1  3  1  0  0  0  0
  1  4  2  0  0  0  0
  1 16  1  0  0  0  0
  5  6  1  6  0  0  0
  5  7  1  0  0  0  0
  5 14  1  0  0  0  0
  7  8  1  6  0  0  0
  7  9  1  0  0  0  0
  9 10  1  1  0  0  0
  9 11  1  0  0  0  0
 11 12  1  6  0  0  0
 11 13  1  0  0  0  0
 13 14  1  0  0  0  0
 13 15  1  1  0  0  0
 15 16  1  0  0  0  0
M  CHG  1   3  -1
M  END
>  <CHROM.1>
-67.60408882,173.46862196,177.13238930,46.29186447,11.76544023,12.12626560
0.41213825,0.30121432,-0.91445678

>  <Name>
ligand

>  <RI>
0

>  <Rbt.Current_Directory>
/home/itssahil/PROJECTS/Mol_Feturizer/New_Systems/rnas/3B4B

>  <Rbt.Executable>
rbdock ($Id: //depot/dev/client3/rdock/2013.1/src/exe/rbdock.cxx#4 $)

>  <Rbt.Library>
libRbt.so (2013.1, Build901 2013/11/27)

>  <Rbt.Parameter_File>
/export/apps/rDock/src/rDock_2013.1_src/data/scripts/dock_solv.prm

>  <Rbt.Receptor>
prm/pocket_docking_5.prm

>  <SCORE>
-9.60907

>  <SCORE.INTER>
-8.58585

>  <SCORE.INTER.CONST>
1

>  <SCORE.INTER.POLAR>
-1.125

>  <SCORE.INTER.ROT>
3

>  <SCORE.INTER.SOLV>
15.3216

>  <SCORE.INTER.VDW>
-12.6811

>  <SCORE.INTER.norm>
-0.536616

>  <SCORE.INTRA>
-1.02322

>  <SCORE.INTRA.DIHEDRAL>
-1.79158

>  <SCORE.INTRA.DIHEDRAL.0>
2.21864

>  <SCORE.INTRA.POLAR>
0

>  <SCORE.INTRA.POLAR.0>
0

>  <SCORE.INTRA.REPUL>
0

>  <SCORE.INTRA.REPUL.0>
0

>  <SCORE.INTRA.SOLV>
0.191067

>  <SCORE.INTRA.SOLV.lig_0>
-58.5963

>  <SCORE.INTRA.VDW>
-0.222963

>  <SCORE.INTRA.VDW.0>
-0.437849

>  <SCORE.INTRA.norm>
-0.0639511

>  <SCORE.RESTR>
0

>  <SCORE.RESTR.CAVITY>
0

>  <SCORE.RESTR.norm>
0

>  <SCORE.SYSTEM>
0

>  <SCORE.SYSTEM.CONST>
0

>  <SCORE.SYSTEM.DIHEDRAL>
0

>  <SCORE.SYSTEM.SOLV>
0

>  <SCORE.SYSTEM.norm>
0

>  <SCORE.heavy>
16

>  <SCORE.norm>
-0.600567

>  <RMSD>
1.386

$$$$
ligand
 OpenBabel11021811463D
libRbt.so/2013.1/901 2013/11/27
 16 16  0  0  0  0  0  0  0  0999 V2000
   48.7669   11.4002   10.2310 P   0  0  2  0  0  0  0  0  0  0  0  0
   49.0016   12.8564   10.0711 O   0  0  0  0  0  0  0  0  0  0  0  0
   49.8116   10.7783   11.2858 O   0  5  0  0  0  0  0  0  0  0  0  0
   48.9791   10.6675    8.8019 O   0  0  0  0  0  0  0  0  0  0  0  0
   44.4981   11.1519   14.7316 C   0  0  2  0  0  0  0  0  0  0  0  0
   44.0154    9.8557   14.3487 O   0  0  0  0  0  0  0  0  0  0  0  0
   43.5251   12.2791   14.2841 C   0  0  2  0  0  0  0  0  0  0  0  0
   42.1867   12.0471   14.8706 N   0  0  0  0  0  0  0  0  0  0  0  0
   43.4378   12.2710   12.7432 C   0  0  1  0  0  0  0  0  0  0  0  0
   42.5593   13.3159   12.2898 O   0  0  0  0  0  0  0  0  0  0  0  0
   44.8493   12.5037   12.1848 C   0  0  2  0  0  0  0  0  0  0  0  0
   44.8056   12.4867   10.7510 O   0  0  0  0  0  0  0  0  0  0  0  0
   45.7710   11.3649   12.6956 C   0  0  2  0  0  0  0  0  0  0  0  0
   45.8161   11.3671   14.1516 O   0  0  0  0  0  0  0  0  0  0  0  0
   47.1978   11.5795   12.1610 C   0  0  0  0  0  0  0  0  0  0  0  0
   47.2636   11.1792   10.7801 O   0  0  0  0  0  0  0  0  0  0  0  0
  1  2  1  6  0  0  0
  1  3  1  0  0  0  0
  1  4  2  0  0  0  0
  1 16  1  0  0  0  0
  5  6  1  6  0  0  0
  5  7  1  0  0  0  0
  5 14  1  0  0  0  0
  7  8  1  1  0  0  0
  7  9  1  0  0  0  0
  9 10  1  1  0  0  0
  9 11  1  0  0  0  0
 11 12  1  6  0  0  0
 11 13  1  0  0  0  0
 13 14  1  0  0  0  0
 13 15  1  6  0  0  0
 15 16  1  0  0  0  0
M  CHG  1   3  -1
M  END
>  <CHROM.1>
-77.16715778,-179.67421521,-72.60317204,46.05566657,11.66165795,12.07057973
-0.46449088,-0.39318046,2.08669277

>  <Name>
ligand

>  <RI>
0

>  <Rbt.Current_Directory>
/home/itssahil/PROJECTS/Mol_Feturizer/New_Systems/rnas/3B4B

>  <Rbt.Executable>
rbdock ($Id: //depot/dev/client3/rdock/2013.1/src/exe/rbdock.cxx#4 $)

>  <Rbt.Library>
libRbt.so (2013.1, Build901 2013/11/27)

>  <Rbt.Parameter_File>
/export/apps/rDock/src/rDock_2013.1_src/data/scripts/dock_solv.prm

>  <Rbt.Receptor>
prm/pocket_docking_4.prm

>  <SCORE>
-8.31689

>  <SCORE.INTER>
-7.37448

>  <SCORE.INTER.CONST>
1

>  <SCORE.INTER.POLAR>
-1.125

>  <SCORE.INTER.ROT>
3

>  <SCORE.INTER.SOLV>
18.2107

>  <SCORE.INTER.VDW>
-12.8366

>  <SCORE.INTER.norm>
-0.460905

>  <SCORE.INTRA>
-0.942414

>  <SCORE.INTRA.DIHEDRAL>
-0.974778

>  <SCORE.INTRA.DIHEDRAL.0>
2.21864

>  <SCORE.INTRA.POLAR>
0

>  <SCORE.INTRA.POLAR.0>
0

>  <SCORE.INTRA.REPUL>
0

>  <SCORE.INTRA.REPUL.0>
0

>  <SCORE.INTRA.SOLV>
-0.673265

>  <SCORE.INTRA.SOLV.lig_0>
-58.5963

>  <SCORE.INTRA.VDW>
-0.118393

>  <SCORE.INTRA.VDW.0>
-0.437849

>  <SCORE.INTRA.norm>
-0.0589009

>  <SCORE.RESTR>
0

>  <SCORE.RESTR.CAVITY>
0

>  <SCORE.RESTR.norm>
0

>  <SCORE.SYSTEM>
0

>  <SCORE.SYSTEM.CONST>
0

>  <SCORE.SYSTEM.DIHEDRAL>
0

>  <SCORE.SYSTEM.SOLV>
0

>  <SCORE.SYSTEM.norm>
0

>  <SCORE.heavy>
16

>  <SCORE.norm>
-0.519806

>  <RMSD>
1.391

$$$$
ligand
 OpenBabel11021811463D
libRbt.so/2013.1/901 2013/11/27
 16 16  0  0  0  0  0  0  0  0999 V2000
   49.1108   11.8616   10.5317 P   0  0  2  0  0  0  0  0  0  0  0  0
   49.2973   11.7067    9.0680 O   0  0  0  0  0  0  0  0  0  0  0  0
   49.3777   13.3871   10.9708 O   0  5  0  0  0  0  0  0  0  0  0  0
   50.1683   10.9096   11.3060 O   0  0  0  0  0  0  0  0  0  0  0  0
   44.4900   10.7397   14.5454 C   0  0  2  0  0  0  0  0  0  0  0  0
   43.9916    9.5544   13.9079 O   0  0  0  0  0  0  0  0  0  0  0  0
   43.6139   11.9799   14.2106 C   0  0  2  0  0  0  0  0  0  0  0  0
   42.2163   11.7331   14.6292 N   0  0  0  0  0  0  0  0  0  0  0  0
   43.6757   12.2301   12.6890 C   0  0  1  0  0  0  0  0  0  0  0  0
   42.8906   13.3846   12.3429 O   0  0  0  0  0  0  0  0  0  0  0  0
   45.1432   12.4687   12.3046 C   0  0  2  0  0  0  0  0  0  0  0  0
   45.2377   12.6899   10.8904 O   0  0  0  0  0  0  0  0  0  0  0  0
   45.9618   11.2097   12.6950 C   0  0  2  0  0  0  0  0  0  0  0  0
   45.8659   10.9700   14.1286 O   0  0  0  0  0  0  0  0  0  0  0  0
   47.4414   11.4257   12.3323 C   0  0  0  0  0  0  0  0  0  0  0  0
   47.5897   11.4617   10.9011 O   0  0  0  0  0  0  0  0  0  0  0  0
  1  2  1  6  0  0  0
  1  3  1  0  0  0  0
  1  4  2  0  0  0  0
  1 16  1  0  0  0  0
  5  6  1  6  0  0  0
  5  7  1  0  0  0  0
  5 14  1  0  0  0  0
  7  8  1  6  0  0  0
  7  9  1  0  0  0  0
  9 10  1  1  0  0  0
  9 11  1  0  0  0  0
 11 12  1  6  0  0  0
 11 13  1  0  0  0  0
 13 14  1  0  0  0  0
 13 15  1  1  0  0  0
 15 16  1  0  0  0  0
M  CHG  1   3  -1
M  END
>  <CHROM.1>
-68.26002237,173.36925579,172.05907906,46.29208598,11.74250613,12.15930395
0.39651124,0.34381945,-0.81562209

>  <Name>
ligand

>  <RI>
0

>  <Rbt.Current_Directory>
/home/itssahil/PROJECTS/Mol_Feturizer/New_Systems/rnas/3B4B

>  <Rbt.Executable>
rbdock ($Id: //depot/dev/client3/rdock/2013.1/src/exe/rbdock.cxx#4 $)

>  <Rbt.Library>
libRbt.so (2013.1, Build901 2013/11/27)

>  <Rbt.Parameter_File>
/export/apps/rDock/src/rDock_2013.1_src/data/scripts/dock_solv.prm

>  <Rbt.Receptor>
prm/pocket_docking_3.prm

>  <SCORE>
-9.48768

>  <SCORE.INTER>
-8.53514

>  <SCORE.INTER.CONST>
1

>  <SCORE.INTER.POLAR>
-1.125

>  <SCORE.INTER.ROT>
3

>  <SCORE.INTER.SOLV>
15.7962

>  <SCORE.INTER.VDW>
-12.8055

>  <SCORE.INTER.norm>
-0.533446

>  <SCORE.INTRA>
-0.95254

>  <SCORE.INTRA.DIHEDRAL>
-1.66143

>  <SCORE.INTRA.DIHEDRAL.0>
2.21864

>  <SCORE.INTRA.POLAR>
0

>  <SCORE.INTRA.POLAR.0>
0

>  <SCORE.INTRA.REPUL>
0

>  <SCORE.INTRA.REPUL.0>
0

>  <SCORE.INTRA.SOLV>
0.206861

>  <SCORE.INTRA.SOLV.lig_0>
-58.5963

>  <SCORE.INTRA.VDW>
-0.225257

>  <SCORE.INTRA.VDW.0>
-0.437849

>  <SCORE.INTRA.norm>
-0.0595337

>  <SCORE.RESTR>
0

>  <SCORE.RESTR.CAVITY>
0

>  <SCORE.RESTR.norm>
0

>  <SCORE.SYSTEM>
0

>  <SCORE.SYSTEM.CONST>
0

>  <SCORE.SYSTEM.DIHEDRAL>
0

>  <SCORE.SYSTEM.SOLV>
0

>  <SCORE.SYSTEM.norm>
0

>  <SCORE.heavy>
16

>  <SCORE.norm>
-0.59298

>  <RMSD>
1.393

$$$$
ligand
 OpenBabel11021811463D
libRbt.so/2013.1/901 2013/11/27
 16 16  0  0  0  0  0  0  0  0999 V2000
   49.0825   11.8463   10.5337 P   0  0  2  0  0  0  0  0  0  0  0  0
   49.2639   11.6648    9.0725 O   0  0  0  0  0  0  0  0  0  0  0  0
   49.3677   13.3758   10.9466 O   0  5  0  0  0  0  0  0  0  0  0  0
   50.1309   10.8955   11.3217 O   0  0  0  0  0  0  0  0  0  0  0  0
   44.4556   10.8895   14.5846 C   0  0  2  0  0  0  0  0  0  0  0  0
   44.0125    9.6304   14.0574 O   0  0  0  0  0  0  0  0  0  0  0  0
   43.5361   12.0564   14.1261 C   0  0  2  0  0  0  0  0  0  0  0  0
   42.1439   11.7941   14.5530 N   0  0  0  0  0  0  0  0  0  0  0  0
   43.6079   12.1647   12.5883 C   0  0  1  0  0  0  0  0  0  0  0  0
   42.7828   13.2491   12.1273 O   0  0  0  0  0  0  0  0  0  0  0  0
   45.0699   12.4250   12.1968 C   0  0  2  0  0  0  0  0  0  0  0  0
   45.1741   12.5159   10.7689 O   0  0  0  0  0  0  0  0  0  0  0  0
   45.9320   11.2422   12.7119 C   0  0  2  0  0  0  0  0  0  0  0  0
   45.8268   11.1348   14.1609 O   0  0  0  0  0  0  0  0  0  0  0  0
   47.4066   11.4825   12.3442 C   0  0  0  0  0  0  0  0  0  0  0  0
   47.5578   11.4700   10.9130 O   0  0  0  0  0  0  0  0  0  0  0  0
  1  2  1  6  0  0  0
  1  3  1  0  0  0  0
  1  4  2  0  0  0  0
  1 16  1  0  0  0  0
  5  6  1  6  0  0  0
  5  7  1  0  0  0  0
  5 14  1  0  0  0  0
  7  8  1  6  0  0  0
  7  9  1  0  0  0  0
  9 10  1  1  0  0  0
  9 11  1  0  0  0  0
 11 12  1  6  0  0  0
 11 13  1  0  0  0  0
 13 14  1  0  0  0  0
 13 15  1  1  0  0  0
 15 16  1  0  0  0  0
M  CHG  1   3  -1
M  END
>  <CHROM.1>
-64.80734435,175.25839333,173.05476520,46.24886406,11.74680247,12.13439020
0.41651842,0.30239822,-0.91375216

>  <Name>
ligand

>  <RI>
0

>  <Rbt.Current_Directory>
/home/itssahil/PROJECTS/Mol_Feturizer/New_Systems/rnas/3B4B

>  <Rbt.Executable>
rbdock ($Id: //depot/dev/client3/rdock/2013.1/src/exe/rbdock.cxx#4 $)

>  <Rbt.Library>
libRbt.so (2013.1, Build901 2013/11/27)

>  <Rbt.Parameter_File>
/export/apps/rDock/src/rDock_2013.1_src/data/scripts/dock_solv.prm

>  <Rbt.Receptor>
prm/pocket_docking_4.prm

>  <SCORE>
-9.63652

>  <SCORE.INTER>
-8.61885

>  <SCORE.INTER.CONST>
1

>  <SCORE.INTER.POLAR>
-1.125

>  <SCORE.INTER.ROT>
3

>  <SCORE.INTER.SOLV>
15.3869

>  <SCORE.INTER.VDW>
-12.7249

>  <SCORE.INTER.norm>
-0.538678

>  <SCORE.INTRA>
-1.01767

>  <SCORE.INTRA.DIHEDRAL>
-1.94873

>  <SCORE.INTRA.DIHEDRAL.0>
2.21864

>  <SCORE.INTRA.POLAR>
0

>  <SCORE.INTRA.POLAR.0>
0

>  <SCORE.INTRA.REPUL>
0

>  <SCORE.INTRA.REPUL.0>
0

>  <SCORE.INTRA.SOLV>
0.149159

>  <SCORE.INTRA.SOLV.lig_0>
-58.5963

>  <SCORE.INTRA.VDW>
-0.117883

>  <SCORE.INTRA.VDW.0>
-0.437849

>  <SCORE.INTRA.norm>
-0.0636043

>  <SCORE.RESTR>
0

>  <SCORE.RESTR.CAVITY>
0

>  <SCORE.RESTR.norm>
0

>  <SCORE.SYSTEM>
0

>  <SCORE.SYSTEM.CONST>
0

>  <SCORE.SYSTEM.DIHEDRAL>
0

>  <SCORE.SYSTEM.SOLV>
0

>  <SCORE.SYSTEM.norm>
0

>  <SCORE.heavy>
16

>  <SCORE.norm>
-0.602283

>  <RMSD>
1.395

$$$$
ligand
 OpenBabel11021811463D
libRbt.so/2013.1/901 2013/11/27
 16 16  0  0  0  0  0  0  0  0999 V2000
   49.1026   11.8092   10.5403 P   0  0  2  0  0  0  0  0  0  0  0  0
   49.3349   11.5300    9.1018 O   0  0  0  0  0  0  0  0  0  0  0  0
   49.4347   13.3490   10.8715 O   0  5  0  0  0  0  0  0  0  0  0  0
   50.0777   10.8687   11.4285 O   0  0  0  0  0  0  0  0  0  0  0  0
   44.4016   10.6014   14.4246 C   0  0  2  0  0  0  0  0  0  0  0  0
   43.9087    9.4759   13.6830 O   0  0  0  0  0  0  0  0  0  0  0  0
   43.5282   11.8664   14.1908 C   0  0  2  0  0  0  0  0  0  0  0  0
   42.1273   11.5853   14.5748 N   0  0  0  0  0  0  0  0  0  0  0  0
   43.6028   12.2469   12.6970 C   0  0  1  0  0  0  0  0  0  0  0  0
   42.8205   13.4276   12.4453 O   0  0  0  0  0  0  0  0  0  0  0  0
   45.0734   12.5168   12.3470 C   0  0  2  0  0  0  0  0  0  0  0  0
   45.1798   12.8593   10.9580 O   0  0  0  0  0  0  0  0  0  0  0  0
   45.8888   11.2283   12.6340 C   0  0  2  0  0  0  0  0  0  0  0  0
   45.7809   10.8659   14.0408 O   0  0  0  0  0  0  0  0  0  0  0  0
   47.3714   11.4739   12.3037 C   0  0  0  0  0  0  0  0  0  0  0  0
   47.5494   11.5174   10.8761 O   0  0  0  0  0  0  0  0  0  0  0  0
  1  2  1  6  0  0  0
  1  3  1  0  0  0  0
  1  4  2  0  0  0  0
  1 16  1  0  0  0  0
  5  6  1  6  0  0  0
  5  7  1  0  0  0  0
  5 14  1  0  0  0  0
  7  8  1  6  0  0  0
  7  9  1  0  0  0  0
  9 10  1  1  0  0  0
  9 11  1  0  0  0  0
 11 12  1  6  0  0  0
 11 13  1  0  0  0  0
 13 14  1  0  0  0  0
 13 15  1  1  0  0  0
 15 16  1  0  0  0  0
M  CHG  1   3  -1
M  END
>  <CHROM.1>
-73.22156696,178.71580762,166.54723005,46.24103562,11.71102102,12.14093049
-0.35769043,-0.36080675,2.40504179

>  <Name>
ligand

>  <RI>
0

>  <Rbt.Current_Directory>
/home/itssahil/PROJECTS/Mol_Feturizer/New_Systems/rnas/3B4B

>  <Rbt.Executable>
rbdock ($Id: //depot/dev/client3/rdock/2013.1/src/exe/rbdock.cxx#4 $)

>  <Rbt.Library>
libRbt.so (2013.1, Build901 2013/11/27)

>  <Rbt.Parameter_File>
/export/apps/rDock/src/rDock_2013.1_src/data/scripts/dock_solv.prm

>  <Rbt.Receptor>
prm/pocket_docking_3.prm

>  <SCORE>
-9.24291

>  <SCORE.INTER>
-8.32898

>  <SCORE.INTER.CONST>
1

>  <SCORE.INTER.POLAR>
-1.12366

>  <SCORE.INTER.ROT>
3

>  <SCORE.INTER.SOLV>
15.5855

>  <SCORE.INTER.VDW>
-12.6023

>  <SCORE.INTER.norm>
-0.520561

>  <SCORE.INTRA>
-0.913931

>  <SCORE.INTRA.DIHEDRAL>
-1.3221

>  <SCORE.INTRA.DIHEDRAL.0>
2.21864

>  <SCORE.INTRA.POLAR>
0

>  <SCORE.INTRA.POLAR.0>
0

>  <SCORE.INTRA.REPUL>
0

>  <SCORE.INTRA.REPUL.0>
0

>  <SCORE.INTRA.SOLV>
-0.0265051

>  <SCORE.INTRA.SOLV.lig_0>
-58.5963

>  <SCORE.INTRA.VDW>
-0.239627

>  <SCORE.INTRA.VDW.0>
-0.437849

>  <SCORE.INTRA.norm>
-0.0571207

>  <SCORE.RESTR>
0

>  <SCORE.RESTR.CAVITY>
0

>  <SCORE.RESTR.norm>
0

>  <SCORE.SYSTEM>
0

>  <SCORE.SYSTEM.CONST>
0

>  <SCORE.SYSTEM.DIHEDRAL>
0

>  <SCORE.SYSTEM.SOLV>
0

>  <SCORE.SYSTEM.norm>
0

>  <SCORE.heavy>
16

>  <SCORE.norm>
-0.577682

>  <RMSD>
1.414

$$$$
ligand
 OpenBabel11021811463D
libRbt.so/2013.1/901 2013/11/27
 16 16  0  0  0  0  0  0  0  0999 V2000
   49.0333   11.8177   10.6151 P   0  0  2  0  0  0  0  0  0  0  0  0
   48.7076   11.2281    9.2932 O   0  0  0  0  0  0  0  0  0  0  0  0
   49.6263   13.3031   10.4337 O   0  5  0  0  0  0  0  0  0  0  0  0
   50.1523   10.9013   11.3447 O   0  0  0  0  0  0  0  0  0  0  0  0
   44.9592   11.2510   14.6383 C   0  0  2  0  0  0  0  0  0  0  0  0
   44.4551    9.9270   14.8670 O   0  0  0  0  0  0  0  0  0  0  0  0
   43.8913   12.1610   13.9680 C   0  0  2  0  0  0  0  0  0  0  0  0
   42.6818   12.2230   14.8179 N   0  0  0  0  0  0  0  0  0  0  0  0
   43.5391   11.5710   12.5861 C   0  0  1  0  0  0  0  0  0  0  0  0
   42.5656   12.3989   11.9257 O   0  0  0  0  0  0  0  0  0  0  0  0
   44.8254   11.5175   11.7490 C   0  0  2  0  0  0  0  0  0  0  0  0
   44.5350   10.9582   10.4603 O   0  0  0  0  0  0  0  0  0  0  0  0
   45.8541   10.6229   12.4899 C   0  0  2  0  0  0  0  0  0  0  0  0
   46.1502   11.1769   13.8042 O   0  0  0  0  0  0  0  0  0  0  0  0
   47.1601   10.5611   11.6787 C   0  0  0  0  0  0  0  0  0  0  0  0
   47.6790   11.8907   11.4930 O   0  0  0  0  0  0  0  0  0  0  0  0
  1  2  1  6  0  0  0
  1  3  1  0  0  0  0
  1  4  2  0  0  0  0
  1 16  1  0  0  0  0
  5  6  1  6  0  0  0
  5  7  1  0  0  0  0
  5 14  1  0  0  0  0
  7  8  1  1  0  0  0
  7  9  1  0  0  0  0
  9 10  1  6  0  0  0
  9 11  1  0  0  0  0
 11 12  1  6  0  0  0
 11 13  1  0  0  0  0
 13 14  1  0  0  0  0
 13 15  1  6  0  0  0
 15 16  1  0  0  0  0
M  CHG  1   3  -1
M  END
>  <CHROM.1>
58.18896115,-178.85744607,60.79979585,46.26756322,11.49380340,12.09807197
-0.50675151,-0.10033296,1.82461059

>  <Name>
ligand

>  <RI>
0

>  <Rbt.Current_Directory>
/home/itssahil/PROJECTS/Mol_Feturizer/New_Systems/rnas/3B4B

>  <Rbt.Executable>
rbdock ($Id: //depot/dev/client3/rdock/2013.1/src/exe/rbdock.cxx#4 $)

>  <Rbt.Library>
libRbt.so (2013.1, Build901 2013/11/27)

>  <Rbt.Parameter_File>
/export/apps/rDock/src/rDock_2013.1_src/data/scripts/dock_solv.prm

>  <Rbt.Receptor>
prm/pocket_docking_3.prm

>  <SCORE>
-10.0132

>  <SCORE.INTER>
-8.25993

>  <SCORE.INTER.CONST>
1

>  <SCORE.INTER.POLAR>
-1.125

>  <SCORE.INTER.ROT>
3

>  <SCORE.INTER.SOLV>
16.7345

>  <SCORE.INTER.VDW>
-12.9348

>  <SCORE.INTER.norm>
-0.516246

>  <SCORE.INTRA>
-1.7533

>  <SCORE.INTRA.DIHEDRAL>
-2.19879

>  <SCORE.INTRA.DIHEDRAL.0>
2.21864

>  <SCORE.INTRA.POLAR>
0

>  <SCORE.INTRA.POLAR.0>
0

>  <SCORE.INTRA.REPUL>
0

>  <SCORE.INTRA.REPUL.0>
0

>  <SCORE.INTRA.SOLV>
-0.931849

>  <SCORE.INTRA.SOLV.lig_0>
-58.5963

>  <SCORE.INTRA.VDW>
-0.187984

>  <SCORE.INTRA.VDW.0>
-0.437849

>  <SCORE.INTRA.norm>
-0.109581

>  <SCORE.RESTR>
0

>  <SCORE.RESTR.CAVITY>
0

>  <SCORE.RESTR.norm>
0

>  <SCORE.SYSTEM>
0

>  <SCORE.SYSTEM.CONST>
0

>  <SCORE.SYSTEM.DIHEDRAL>
0

>  <SCORE.SYSTEM.SOLV>
0

>  <SCORE.SYSTEM.norm>
0

>  <SCORE.heavy>
16

>  <SCORE.norm>
-0.625827

>  <RMSD>
1.414

$$$$
ligand
 OpenBabel11021811463D
libRbt.so/2013.1/901 2013/11/27
 16 16  0  0  0  0  0  0  0  0999 V2000
   49.0703   12.1566   10.5781 P   0  0  2  0  0  0  0  0  0  0  0  0
   48.5784   12.2479    9.1813 O   0  0  0  0  0  0  0  0  0  0  0  0
   49.9788   13.4364   10.9355 O   0  5  0  0  0  0  0  0  0  0  0  0
   49.9744   10.8218   10.7370 O   0  0  0  0  0  0  0  0  0  0  0  0
   44.9069   10.9265   14.3920 C   0  0  2  0  0  0  0  0  0  0  0  0
   44.1232    9.7519   14.1352 O   0  0  0  0  0  0  0  0  0  0  0  0
   44.0815   12.2247   14.1662 C   0  0  2  0  0  0  0  0  0  0  0  0
   42.8867   12.2163   15.0389 N   0  0  0  0  0  0  0  0  0  0  0  0
   43.6555   12.2857   12.6841 C   0  0  1  0  0  0  0  0  0  0  0  0
   42.9043   13.4863   12.4319 O   0  0  0  0  0  0  0  0  0  0  0  0
   44.9267   12.2807   11.8224 C   0  0  2  0  0  0  0  0  0  0  0  0
   44.5646   12.3214   10.4349 O   0  0  0  0  0  0  0  0  0  0  0  0
   45.7149   10.9781   12.1214 C   0  0  2  0  0  0  0  0  0  0  0  0
   46.0805   10.9218   13.5303 O   0  0  0  0  0  0  0  0  0  0  0  0
   47.0026   10.9518   11.2796 C   0  0  0  0  0  0  0  0  0  0  0  0
   47.7959   12.1170   11.5702 O   0  0  0  0  0  0  0  0  0  0  0  0
  1  2  1  6  0  0  0
  1  3  1  0  0  0  0
  1  4  2  0  0  0  0
  1 16  1  0  0  0  0
  5  6  1  6  0  0  0
  5  7  1  0  0  0  0
  5 14  1  0  0  0  0
  7  8  1  1  0  0  0
  7  9  1  0  0  0  0
  9 10  1  1  0  0  0
  9 11  1  0  0  0  0
 11 12  1  6  0  0  0
 11 13  1  0  0  0  0
 13 14  1  0  0  0  0
 13 15  1  6  0  0  0
 15 16  1  0  0  0  0
M  CHG  1   3  -1
M  END
>  <CHROM.1>
57.76096411,-174.39680163,61.41159003,46.29409583,11.84873551,12.02870956
-0.43839206,-0.31064618,2.24297535

>  <Name>
ligand

>  <RI>
0

>  <Rbt.Current_Directory>
/home/itssahil/PROJECTS/Mol_Feturizer/New_Systems/rnas/3B4B

>  <Rbt.Executable>
rbdock ($Id: //depot/dev/client3/rdock/2013.1/src/exe/rbdock.cxx#4 $)

>  <Rbt.Library>
libRbt.so (2013.1, Build901 2013/11/27)

>  <Rbt.Parameter_File>
/export/apps/rDock/src/rDock_2013.1_src/data/scripts/dock_solv.prm

>  <Rbt.Receptor>
prm/pocket_docking_6.prm

>  <SCORE>
-9.01383

>  <SCORE.INTER>
-7.32238

>  <SCORE.INTER.CONST>
1

>  <SCORE.INTER.POLAR>
-1.12489

>  <SCORE.INTER.ROT>
3

>  <SCORE.INTER.SOLV>
16.2238

>  <SCORE.INTER.VDW>
-12.1399

>  <SCORE.INTER.norm>
-0.457649

>  <SCORE.INTRA>
-1.69144

>  <SCORE.INTRA.DIHEDRAL>
-2.04281

>  <SCORE.INTRA.DIHEDRAL.0>
2.21864

>  <SCORE.INTRA.POLAR>
0

>  <SCORE.INTRA.POLAR.0>
0

>  <SCORE.INTRA.REPUL>
0

>  <SCORE.INTRA.REPUL.0>
0

>  <SCORE.INTRA.SOLV>
-0.930614

>  <SCORE.INTRA.SOLV.lig_0>
-58.5963

>  <SCORE.INTRA.VDW>
-0.204734

>  <SCORE.INTRA.VDW.0>
-0.437849

>  <SCORE.INTRA.norm>
-0.105715

>  <SCORE.RESTR>
0

>  <SCORE.RESTR.CAVITY>
0

>  <SCORE.RESTR.norm>
0

>  <SCORE.SYSTEM>
0

>  <SCORE.SYSTEM.CONST>
0

>  <SCORE.SYSTEM.DIHEDRAL>
0

>  <SCORE.SYSTEM.SOLV>
0

>  <SCORE.SYSTEM.norm>
0

>  <SCORE.heavy>
16

>  <SCORE.norm>
-0.563364

>  <RMSD>
1.415

$$$$
ligand
 OpenBabel11021811463D
libRbt.so/2013.1/901 2013/11/27
 16 16  0  0  0  0  0  0  0  0999 V2000
   48.9965   11.8282   10.6409 P   0  0  2  0  0  0  0  0  0  0  0  0
   48.6052   11.2483    9.3326 O   0  0  0  0  0  0  0  0  0  0  0  0
   49.5864   13.3124   10.4404 O   0  5  0  0  0  0  0  0  0  0  0  0
   50.1454   10.9028   11.3102 O   0  0  0  0  0  0  0  0  0  0  0  0
   44.9007   11.2925   14.6679 C   0  0  2  0  0  0  0  0  0  0  0  0
   44.3818    9.9732   14.8911 O   0  0  0  0  0  0  0  0  0  0  0  0
   43.8514   12.2102   13.9790 C   0  0  2  0  0  0  0  0  0  0  0  0
   42.6291   12.2841   14.8095 N   0  0  0  0  0  0  0  0  0  0  0  0
   43.5162   11.6204   12.5928 C   0  0  1  0  0  0  0  0  0  0  0  0
   42.5604   12.4553   11.9155 O   0  0  0  0  0  0  0  0  0  0  0  0
   44.8152   11.5544   11.7764 C   0  0  2  0  0  0  0  0  0  0  0  0
   44.5405   10.9950   10.4842 O   0  0  0  0  0  0  0  0  0  0  0  0
   45.8243   10.6526   12.5352 C   0  0  2  0  0  0  0  0  0  0  0  0
   46.1042   11.2067   13.8530 O   0  0  0  0  0  0  0  0  0  0  0  0
   47.1424   10.5782   11.7450 C   0  0  0  0  0  0  0  0  0  0  0  0
   47.6863   11.9009   11.5834 O   0  0  0  0  0  0  0  0  0  0  0  0
  1  2  1  6  0  0  0
  1  3  1  0  0  0  0
  1  4  2  0  0  0  0
  1 16  1  0  0  0  0
  5  6  1  6  0  0  0
  5  7  1  0  0  0  0
  5 14  1  0  0  0  0
  7  8  1  1  0  0  0
  7  9  1  0  0  0  0
  9 10  1  6  0  0  0
  9 11  1  0  0  0  0
 11 12  1  6  0  0  0
 11 13  1  0  0  0  0
 13 14  1  0  0  0  0
 13 15  1  6  0  0  0
 15 16  1  0  0  0  0
M  CHG  1   3  -1
M  END
>  <CHROM.1>
59.08623816,-174.94009132,58.68863168,46.23421346,11.52347294,12.12263080
-0.50426813,-0.11085453,1.83173994

>  <Name>
ligand

>  <RI>
0

>  <Rbt.Current_Directory>
/home/itssahil/PROJECTS/Mol_Feturizer/New_Systems/rnas/3B4B

>  <Rbt.Executable>
rbdock ($Id: //depot/dev/client3/rdock/2013.1/src/exe/rbdock.cxx#4 $)

>  <Rbt.Library>
libRbt.so (2013.1, Build901 2013/11/27)

>  <Rbt.Parameter_File>
/export/apps/rDock/src/rDock_2013.1_src/data/scripts/dock_solv.prm

>  <Rbt.Receptor>
prm/pocket_docking_4.prm

>  <SCORE>
-10.0271

>  <SCORE.INTER>
-8.31583

>  <SCORE.INTER.CONST>
1

>  <SCORE.INTER.POLAR>
-1.12481

>  <SCORE.INTER.ROT>
3

>  <SCORE.INTER.SOLV>
16.7616

>  <SCORE.INTER.VDW>
-12.9817

>  <SCORE.INTER.norm>
-0.519739

>  <SCORE.INTRA>
-1.71123

>  <SCORE.INTRA.DIHEDRAL>
-2.08716

>  <SCORE.INTRA.DIHEDRAL.0>
2.21864

>  <SCORE.INTRA.POLAR>
0

>  <SCORE.INTRA.POLAR.0>
0

>  <SCORE.INTRA.REPUL>
0

>  <SCORE.INTRA.REPUL.0>
0

>  <SCORE.INTRA.SOLV>
-0.96234

>  <SCORE.INTRA.SOLV.lig_0>
-58.5963

>  <SCORE.INTRA.VDW>
-0.186476

>  <SCORE.INTRA.VDW.0>
-0.437849

>  <SCORE.INTRA.norm>
-0.106952

>  <SCORE.RESTR>
0

>  <SCORE.RESTR.CAVITY>
0

>  <SCORE.RESTR.norm>
0

>  <SCORE.SYSTEM>
0

>  <SCORE.SYSTEM.CONST>
0

>  <SCORE.SYSTEM.DIHEDRAL>
0

>  <SCORE.SYSTEM.SOLV>
0

>  <SCORE.SYSTEM.norm>
0

>  <SCORE.heavy>
16

>  <SCORE.norm>
-0.626691

>  <RMSD>
1.417

$$$$
ligand
 OpenBabel11021811463D
libRbt.so/2013.1/901 2013/11/27
 16 16  0  0  0  0  0  0  0  0999 V2000
   49.0146   11.8181   10.6205 P   0  0  2  0  0  0  0  0  0  0  0  0
   48.6670   11.2267    9.3051 O   0  0  0  0  0  0  0  0  0  0  0  0
   49.6107   13.3007   10.4268 O   0  5  0  0  0  0  0  0  0  0  0  0
   50.1407   10.8990   11.3356 O   0  0  0  0  0  0  0  0  0  0  0  0
   44.9131   11.2907   14.6314 C   0  0  2  0  0  0  0  0  0  0  0  0
   44.3994    9.9705   14.8616 O   0  0  0  0  0  0  0  0  0  0  0  0
   43.8576   12.2027   13.9447 C   0  0  2  0  0  0  0  0  0  0  0  0
   42.6392   12.2757   14.7810 N   0  0  0  0  0  0  0  0  0  0  0  0
   43.5173   11.6072   12.5622 C   0  0  1  0  0  0  0  0  0  0  0  0
   42.5555   12.4368   11.8868 O   0  0  0  0  0  0  0  0  0  0  0  0
   44.8124   11.5425   11.7395 C   0  0  2  0  0  0  0  0  0  0  0  0
   44.5330   10.9778   10.4506 O   0  0  0  0  0  0  0  0  0  0  0  0
   45.8281   10.6463   12.4963 C   0  0  2  0  0  0  0  0  0  0  0  0
   46.1128   11.2057   13.8108 O   0  0  0  0  0  0  0  0  0  0  0  0
   47.1425   10.5733   11.6998 C   0  0  0  0  0  0  0  0  0  0  0  0
   47.6739   11.8985   11.5183 O   0  0  0  0  0  0  0  0  0  0  0  0
  1  2  1  6  0  0  0
  1  3  1  0  0  0  0
  1  4  2  0  0  0  0
  1 16  1  0  0  0  0
  5  6  1  6  0  0  0
  5  7  1  0  0  0  0
  5 14  1  0  0  0  0
  7  8  1  1  0  0  0
  7  9  1  0  0  0  0
  9 10  1  6  0  0  0
  9 11  1  0  0  0  0
 11 12  1  6  0  0  0
 11 13  1  0  0  0  0
 13 14  1  0  0  0  0
 13 15  1  6  0  0  0
 15 16  1  0  0  0  0
M  CHG  1   3  -1
M  END
>  <CHROM.1>
58.46293519,-177.28165914,60.03187985,46.24334922,11.51440095,12.09325159
-0.50122966,-0.10559663,1.82356345

>  <Name>
ligand

>  <RI>
0

>  <Rbt.Current_Directory>
/home/itssahil/PROJECTS/Mol_Feturizer/New_Systems/rnas/3B4B

>  <Rbt.Executable>
rbdock ($Id: //depot/dev/client3/rdock/2013.1/src/exe/rbdock.cxx#4 $)

>  <Rbt.Library>
libRbt.so (2013.1, Build901 2013/11/27)

>  <Rbt.Parameter_File>
/export/apps/rDock/src/rDock_2013.1_src/data/scripts/dock_solv.prm

>  <Rbt.Receptor>
prm/pocket_docking_3.prm

>  <SCORE>
-10.0612

>  <SCORE.INTER>
-8.31437

>  <SCORE.INTER.CONST>
1

>  <SCORE.INTER.POLAR>
-1.125

>  <SCORE.INTER.ROT>
3

>  <SCORE.INTER.SOLV>
16.5773

>  <SCORE.INTER.VDW>
-12.9187

>  <SCORE.INTER.norm>
-0.519648

>  <SCORE.INTRA>
-1.74679

>  <SCORE.INTRA.DIHEDRAL>
-2.17337

>  <SCORE.INTRA.DIHEDRAL.0>
2.21864

>  <SCORE.INTRA.POLAR>
0

>  <SCORE.INTRA.POLAR.0>
0

>  <SCORE.INTRA.REPUL>
0

>  <SCORE.INTRA.REPUL.0>
0

>  <SCORE.INTRA.SOLV>
-0.944205

>  <SCORE.INTRA.SOLV.lig_0>
-58.5963

>  <SCORE.INTRA.VDW>
-0.188006

>  <SCORE.INTRA.VDW.0>
-0.437849

>  <SCORE.INTRA.norm>
-0.109175

>  <SCORE.RESTR>
0

>  <SCORE.RESTR.CAVITY>
0

>  <SCORE.RESTR.norm>
0

>  <SCORE.SYSTEM>
0

>  <SCORE.SYSTEM.CONST>
0

>  <SCORE.SYSTEM.DIHEDRAL>
0

>  <SCORE.SYSTEM.SOLV>
0

>  <SCORE.SYSTEM.norm>
0

>  <SCORE.heavy>
16

>  <SCORE.norm>
-0.628823

>  <RMSD>
1.418

$$$$
ligand
 OpenBabel11021811463D
libRbt.so/2013.1/901 2013/11/27
 16 16  0  0  0  0  0  0  0  0999 V2000
   48.9994   11.8312   10.6348 P   0  0  2  0  0  0  0  0  0  0  0  0
   48.6165   11.2540    9.3228 O   0  0  0  0  0  0  0  0  0  0  0  0
   49.5944   13.3142   10.4407 O   0  5  0  0  0  0  0  0  0  0  0  0
   50.1410   10.9021   11.3115 O   0  0  0  0  0  0  0  0  0  0  0  0
   44.9372   11.2822   14.6763 C   0  0  2  0  0  0  0  0  0  0  0  0
   44.4139    9.9637   14.8937 O   0  0  0  0  0  0  0  0  0  0  0  0
   43.8818   12.2143   14.0168 C   0  0  2  0  0  0  0  0  0  0  0  0
   42.6749   12.2862   14.8698 N   0  0  0  0  0  0  0  0  0  0  0  0
   43.5181   11.6426   12.6302 C   0  0  1  0  0  0  0  0  0  0  0  0
   42.5558   12.4911   11.9796 O   0  0  0  0  0  0  0  0  0  0  0  0
   44.8018   11.5778   11.7899 C   0  0  2  0  0  0  0  0  0  0  0  0
   44.5006   11.0350   10.4967 O   0  0  0  0  0  0  0  0  0  0  0  0
   45.8185   10.6610   12.5203 C   0  0  2  0  0  0  0  0  0  0  0  0
   46.1254   11.1982   13.8391 O   0  0  0  0  0  0  0  0  0  0  0  0
   47.1218   10.5875   11.7058 C   0  0  0  0  0  0  0  0  0  0  0  0
   47.6824   11.9059   11.5675 O   0  0  0  0  0  0  0  0  0  0  0  0
  1  2  1  6  0  0  0
  1  3  1  0  0  0  0
  1  4  2  0  0  0  0
  1 16  1  0  0  0  0
  5  6  1  6  0  0  0
  5  7  1  0  0  0  0
  5 14  1  0  0  0  0
  7  8  1  1  0  0  0
  7  9  1  0  0  0  0
  9 10  1  6  0  0  0
  9 11  1  0  0  0  0
 11 12  1  6  0  0  0
 11 13  1  0  0  0  0
 13 14  1  0  0  0  0
 13 15  1  6  0  0  0
 15 16  1  0  0  0  0
M  CHG  1   3  -1
M  END
>  <CHROM.1>
59.98944858,-176.52094519,57.77422438,46.23980521,11.53138146,12.12991757
-0.50858392,-0.11653370,1.83625739

>  <Name>
ligand

>  <RI>
0

>  <Rbt.Current_Directory>
/home/itssahil/PROJECTS/Mol_Feturizer/New_Systems/rnas/3B4B

>  <Rbt.Executable>
rbdock ($Id: //depot/dev/client3/rdock/2013.1/src/exe/rbdock.cxx#4 $)

>  <Rbt.Library>
libRbt.so (2013.1, Build901 2013/11/27)

>  <Rbt.Parameter_File>
/export/apps/rDock/src/rDock_2013.1_src/data/scripts/dock_solv.prm

>  <Rbt.Receptor>
prm/pocket_docking_3.prm

>  <SCORE>
-10.0482

>  <SCORE.INTER>
-8.31265

>  <SCORE.INTER.CONST>
1

>  <SCORE.INTER.POLAR>
-1.12244

>  <SCORE.INTER.ROT>
3

>  <SCORE.INTER.SOLV>
16.9291

>  <SCORE.INTER.VDW>
-13.0433

>  <SCORE.INTER.norm>
-0.519541

>  <SCORE.INTRA>
-1.73556

>  <SCORE.INTRA.DIHEDRAL>
-2.15104

>  <SCORE.INTRA.DIHEDRAL.0>
2.21864

>  <SCORE.INTRA.POLAR>
0

>  <SCORE.INTRA.POLAR.0>
0

>  <SCORE.INTRA.REPUL>
0

>  <SCORE.INTRA.REPUL.0>
0

>  <SCORE.INTRA.SOLV>
-0.96899

>  <SCORE.INTRA.SOLV.lig_0>
-58.5963

>  <SCORE.INTRA.VDW>
-0.175547

>  <SCORE.INTRA.VDW.0>
-0.437849

>  <SCORE.INTRA.norm>
-0.108473

>  <SCORE.RESTR>
0

>  <SCORE.RESTR.CAVITY>
0

>  <SCORE.RESTR.norm>
0

>  <SCORE.SYSTEM>
0

>  <SCORE.SYSTEM.CONST>
0

>  <SCORE.SYSTEM.DIHEDRAL>
0

>  <SCORE.SYSTEM.SOLV>
0

>  <SCORE.SYSTEM.norm>
0

>  <SCORE.heavy>
16

>  <SCORE.norm>
-0.628013

>  <RMSD>
1.423

$$$$
ligand
 OpenBabel11021811463D
libRbt.so/2013.1/901 2013/11/27
 16 16  0  0  0  0  0  0  0  0999 V2000
   48.9968   11.8118   10.6037 P   0  0  2  0  0  0  0  0  0  0  0  0
   48.6538   11.2135    9.2901 O   0  0  0  0  0  0  0  0  0  0  0  0
   49.6023   13.2897   10.4038 O   0  5  0  0  0  0  0  0  0  0  0  0
   50.1133   10.8912   11.3318 O   0  0  0  0  0  0  0  0  0  0  0  0
   44.9021   11.2971   14.6296 C   0  0  2  0  0  0  0  0  0  0  0  0
   44.3657    9.9829   14.8413 O   0  0  0  0  0  0  0  0  0  0  0  0
   43.8615   12.2376   13.9585 C   0  0  2  0  0  0  0  0  0  0  0  0
   42.6461   12.3194   14.7982 N   0  0  0  0  0  0  0  0  0  0  0  0
   43.5084   11.6687   12.5680 C   0  0  1  0  0  0  0  0  0  0  0  0
   42.5602   12.5248   11.9069 O   0  0  0  0  0  0  0  0  0  0  0  0
   44.8008   11.5934   11.7419 C   0  0  2  0  0  0  0  0  0  0  0  0
   44.5093   11.0529   10.4454 O   0  0  0  0  0  0  0  0  0  0  0  0
   45.8019   10.6685   12.4834 C   0  0  2  0  0  0  0  0  0  0  0  0
   46.0987   11.2033   13.8055 O   0  0  0  0  0  0  0  0  0  0  0  0
   47.1134   10.5843   11.6832 C   0  0  0  0  0  0  0  0  0  0  0  0
   47.6510   11.9057   11.4927 O   0  0  0  0  0  0  0  0  0  0  0  0
  1  2  1  6  0  0  0
  1  3  1  0  0  0  0
  1  4  2  0  0  0  0
  1 16  1  0  0  0  0
  5  6  1  6  0  0  0
  5  7  1  0  0  0  0
  5 14  1  0  0  0  0
  7  8  1  1  0  0  0
  7  9  1  0  0  0  0
  9 10  1  6  0  0  0
  9 11  1  0  0  0  0
 11 12  1  6  0  0  0
 11 13  1  0  0  0  0
 13 14  1  0  0  0  0
 13 15  1  6  0  0  0
 15 16  1  0  0  0  0
M  CHG  1   3  -1
M  END
>  <CHROM.1>
57.09192158,-177.84413960,60.21141535,46.22834299,11.53514436,12.08664706
-0.50156242,-0.12465995,1.84007926

>  <Name>
ligand

>  <RI>
0

>  <Rbt.Current_Directory>
/home/itssahil/PROJECTS/Mol_Feturizer/New_Systems/rnas/3B4B

>  <Rbt.Executable>
rbdock ($Id: //depot/dev/client3/rdock/2013.1/src/exe/rbdock.cxx#4 $)

>  <Rbt.Library>
libRbt.so (2013.1, Build901 2013/11/27)

>  <Rbt.Parameter_File>
/export/apps/rDock/src/rDock_2013.1_src/data/scripts/dock_solv.prm

>  <Rbt.Receptor>
prm/pocket_docking_4.prm

>  <SCORE>
-10.0308

>  <SCORE.INTER>
-8.30224

>  <SCORE.INTER.CONST>
1

>  <SCORE.INTER.POLAR>
-1.12448

>  <SCORE.INTER.ROT>
3

>  <SCORE.INTER.SOLV>
16.5105

>  <SCORE.INTER.VDW>
-12.89

>  <SCORE.INTER.norm>
-0.51889

>  <SCORE.INTRA>
-1.72853

>  <SCORE.INTRA.DIHEDRAL>
-2.16494

>  <SCORE.INTRA.DIHEDRAL.0>
2.21864

>  <SCORE.INTRA.POLAR>
0

>  <SCORE.INTRA.POLAR.0>
0

>  <SCORE.INTRA.REPUL>
0

>  <SCORE.INTRA.REPUL.0>
0

>  <SCORE.INTRA.SOLV>
-0.940172

>  <SCORE.INTRA.SOLV.lig_0>
-58.5963

>  <SCORE.INTRA.VDW>
-0.175975

>  <SCORE.INTRA.VDW.0>
-0.437849

>  <SCORE.INTRA.norm>
-0.108033

>  <SCORE.RESTR>
0

>  <SCORE.RESTR.CAVITY>
0

>  <SCORE.RESTR.norm>
0

>  <SCORE.SYSTEM>
0

>  <SCORE.SYSTEM.CONST>
0

>  <SCORE.SYSTEM.DIHEDRAL>
0

>  <SCORE.SYSTEM.SOLV>
0

>  <SCORE.SYSTEM.norm>
0

>  <SCORE.heavy>
16

>  <SCORE.norm>
-0.626923

>  <RMSD>
1.427

$$$$
ligand
 OpenBabel11021811463D
libRbt.so/2013.1/901 2013/11/27
 16 16  0  0  0  0  0  0  0  0999 V2000
   48.9748   11.8262   10.6217 P   0  0  2  0  0  0  0  0  0  0  0  0
   48.6035   11.2543    9.3041 O   0  0  0  0  0  0  0  0  0  0  0  0
   49.5773   13.3076   10.4383 O   0  5  0  0  0  0  0  0  0  0  0  0
   50.1056   10.8908   11.3076 O   0  0  0  0  0  0  0  0  0  0  0  0
   44.8933   11.2919   14.6760 C   0  0  2  0  0  0  0  0  0  0  0  0
   44.3852    9.9701   14.9090 O   0  0  0  0  0  0  0  0  0  0  0  0
   43.8372   12.1953   13.9787 C   0  0  2  0  0  0  0  0  0  0  0  0
   42.6133   12.2655   14.8072 N   0  0  0  0  0  0  0  0  0  0  0  0
   43.5085   11.5918   12.5968 C   0  0  1  0  0  0  0  0  0  0  0  0
   42.5465   12.4132   11.9119 O   0  0  0  0  0  0  0  0  0  0  0  0
   44.8089   11.5302   11.7824 C   0  0  2  0  0  0  0  0  0  0  0  0
   44.5404   10.9583   10.4944 O   0  0  0  0  0  0  0  0  0  0  0  0
   45.8247   10.6429   12.5494 C   0  0  2  0  0  0  0  0  0  0  0  0
   46.0984   11.2097   13.8631 O   0  0  0  0  0  0  0  0  0  0  0  0
   47.1443   10.5732   11.7613 C   0  0  0  0  0  0  0  0  0  0  0  0
   47.6483   11.9032   11.5407 O   0  0  0  0  0  0  0  0  0  0  0  0
  1  2  1  6  0  0  0
  1  3  1  0  0  0  0
  1  4  2  0  0  0  0
  1 16  1  0  0  0  0
  5  6  1  6  0  0  0
  5  7  1  0  0  0  0
  5 14  1  0  0  0  0
  7  8  1  1  0  0  0
  7  9  1  0  0  0  0
  9 10  1  6  0  0  0
  9 11  1  0  0  0  0
 11 12  1  6  0  0  0
 11 13  1  0  0  0  0
 13 14  1  0  0  0  0
 13 15  1  6  0  0  0
 15 16  1  0  0  0  0
M  CHG  1   3  -1
M  END
>  <CHROM.1>
56.67141169,-175.92066538,62.51548696,46.22231755,11.51236058,12.12009607
-0.51060989,-0.10578576,1.82541915

>  <Name>
ligand

>  <RI>
0

>  <Rbt.Current_Directory>
/home/itssahil/PROJECTS/Mol_Feturizer/New_Systems/rnas/3B4B

>  <Rbt.Executable>
rbdock ($Id: //depot/dev/client3/rdock/2013.1/src/exe/rbdock.cxx#4 $)

>  <Rbt.Library>
libRbt.so (2013.1, Build901 2013/11/27)

>  <Rbt.Parameter_File>
/export/apps/rDock/src/rDock_2013.1_src/data/scripts/dock_solv.prm

>  <Rbt.Receptor>
prm/pocket_docking_3.prm

>  <SCORE>
-10.0172

>  <SCORE.INTER>
-8.31678

>  <SCORE.INTER.CONST>
1

>  <SCORE.INTER.POLAR>
-1.1249

>  <SCORE.INTER.ROT>
3

>  <SCORE.INTER.SOLV>
16.8026

>  <SCORE.INTER.VDW>
-12.9957

>  <SCORE.INTER.norm>
-0.519799

>  <SCORE.INTRA>
-1.70042

>  <SCORE.INTRA.DIHEDRAL>
-2.08568

>  <SCORE.INTRA.DIHEDRAL.0>
2.21864

>  <SCORE.INTRA.POLAR>
0

>  <SCORE.INTRA.POLAR.0>
0

>  <SCORE.INTRA.REPUL>
0

>  <SCORE.INTRA.REPUL.0>
0

>  <SCORE.INTRA.SOLV>
-0.922016

>  <SCORE.INTRA.SOLV.lig_0>
-58.5963

>  <SCORE.INTRA.VDW>
-0.196577

>  <SCORE.INTRA.VDW.0>
-0.437849

>  <SCORE.INTRA.norm>
-0.106276

>  <SCORE.RESTR>
0

>  <SCORE.RESTR.CAVITY>
0

>  <SCORE.RESTR.norm>
0

>  <SCORE.SYSTEM>
0

>  <SCORE.SYSTEM.CONST>
0

>  <SCORE.SYSTEM.DIHEDRAL>
0

>  <SCORE.SYSTEM.SOLV>
0

>  <SCORE.SYSTEM.norm>
0

>  <SCORE.heavy>
16

>  <SCORE.norm>
-0.626075

>  <RMSD>
1.429

$$$$
ligand
 OpenBabel11021811463D
libRbt.so/2013.1/901 2013/11/27
 16 16  0  0  0  0  0  0  0  0999 V2000
   48.9775   11.8121   10.5855 P   0  0  2  0  0  0  0  0  0  0  0  0
   48.6262   11.2212    9.2708 O   0  0  0  0  0  0  0  0  0  0  0  0
   49.5829   13.2907   10.3899 O   0  5  0  0  0  0  0  0  0  0  0  0
   50.0976   10.8869   11.3020 O   0  0  0  0  0  0  0  0  0  0  0  0
   44.9361   11.2891   14.6635 C   0  0  2  0  0  0  0  0  0  0  0  0
   44.4114    9.9723   14.8880 O   0  0  0  0  0  0  0  0  0  0  0  0
   43.8808   12.2194   14.0014 C   0  0  2  0  0  0  0  0  0  0  0  0
   42.6755   12.2969   14.8560 N   0  0  0  0  0  0  0  0  0  0  0  0
   43.5141   11.6416   12.6181 C   0  0  1  0  0  0  0  0  0  0  0  0
   42.5518   12.4883   11.9651 O   0  0  0  0  0  0  0  0  0  0  0  0
   44.7964   11.5713   11.7760 C   0  0  2  0  0  0  0  0  0  0  0  0
   44.4923   11.0228   10.4858 O   0  0  0  0  0  0  0  0  0  0  0  0
   45.8131   10.6566   12.5090 C   0  0  2  0  0  0  0  0  0  0  0  0
   46.1229   11.1995   13.8248 O   0  0  0  0  0  0  0  0  0  0  0  0
   47.1150   10.5775   11.6928 C   0  0  0  0  0  0  0  0  0  0  0  0
   47.6371   11.9022   11.4830 O   0  0  0  0  0  0  0  0  0  0  0  0
  1  2  1  6  0  0  0
  1  3  1  0  0  0  0
  1  4  2  0  0  0  0
  1 16  1  0  0  0  0
  5  6  1  6  0  0  0
  5  7  1  0  0  0  0
  5 14  1  0  0  0  0
  7  8  1  1  0  0  0
  7  9  1  0  0  0  0
  9 10  1  6  0  0  0
  9 11  1  0  0  0  0
 11 12  1  6  0  0  0
 11 13  1  0  0  0  0
 13 14  1  0  0  0  0
 13 15  1  6  0  0  0
 15 16  1  0  0  0  0
M  CHG  1   3  -1
M  END
>  <CHROM.1>
56.77144330,-178.20330777,61.38403962,46.22906101,11.52398760,12.10362270
-0.51521020,-0.12128930,1.83344602

>  <Name>
ligand

>  <RI>
0

>  <Rbt.Current_Directory>
/home/itssahil/PROJECTS/Mol_Feturizer/New_Systems/rnas/3B4B

>  <Rbt.Executable>
rbdock ($Id: //depot/dev/client3/rdock/2013.1/src/exe/rbdock.cxx#4 $)

>  <Rbt.Library>
libRbt.so (2013.1, Build901 2013/11/27)

>  <Rbt.Parameter_File>
/export/apps/rDock/src/rDock_2013.1_src/data/scripts/dock_solv.prm

>  <Rbt.Receptor>
prm/pocket_docking_3.prm

>  <SCORE>
-10.0447

>  <SCORE.INTER>
-8.31832

>  <SCORE.INTER.CONST>
1

>  <SCORE.INTER.POLAR>
-1.125

>  <SCORE.INTER.ROT>
3

>  <SCORE.INTER.SOLV>
16.813

>  <SCORE.INTER.VDW>
-12.9999

>  <SCORE.INTER.norm>
-0.519895

>  <SCORE.INTRA>
-1.7264

>  <SCORE.INTRA.DIHEDRAL>
-2.16148

>  <SCORE.INTRA.DIHEDRAL.0>
2.21864

>  <SCORE.INTRA.POLAR>
0

>  <SCORE.INTRA.POLAR.0>
0

>  <SCORE.INTRA.REPUL>
0

>  <SCORE.INTRA.REPUL.0>
0

>  <SCORE.INTRA.SOLV>
-0.927394

>  <SCORE.INTRA.SOLV.lig_0>
-58.5963

>  <SCORE.INTRA.VDW>
-0.181959

>  <SCORE.INTRA.VDW.0>
-0.437849

>  <SCORE.INTRA.norm>
-0.1079

>  <SCORE.RESTR>
0

>  <SCORE.RESTR.CAVITY>
0

>  <SCORE.RESTR.norm>
0

>  <SCORE.SYSTEM>
0

>  <SCORE.SYSTEM.CONST>
0

>  <SCORE.SYSTEM.DIHEDRAL>
0

>  <SCORE.SYSTEM.SOLV>
0

>  <SCORE.SYSTEM.norm>
0

>  <SCORE.heavy>
16

>  <SCORE.norm>
-0.627795

>  <RMSD>
1.443

$$$$
ligand
 OpenBabel11021811463D
libRbt.so/2013.1/901 2013/11/27
 16 16  0  0  0  0  0  0  0  0999 V2000
   48.9341   11.8059   10.5704 P   0  0  2  0  0  0  0  0  0  0  0  0
   48.5798   11.2173    9.2554 O   0  0  0  0  0  0  0  0  0  0  0  0
   49.5489   13.2807   10.3751 O   0  5  0  0  0  0  0  0  0  0  0  0
   50.0481   10.8737   11.2873 O   0  0  0  0  0  0  0  0  0  0  0  0
   44.8909   11.3052   14.6318 C   0  0  2  0  0  0  0  0  0  0  0  0
   44.3561    9.9922   14.8546 O   0  0  0  0  0  0  0  0  0  0  0  0
   43.8389   12.2480   13.9822 C   0  0  2  0  0  0  0  0  0  0  0  0
   42.6411   12.3326   14.8467 N   0  0  0  0  0  0  0  0  0  0  0  0
   43.4560   11.6799   12.5993 C   0  0  1  0  0  0  0  0  0  0  0  0
   42.4963   12.5381   11.9577 O   0  0  0  0  0  0  0  0  0  0  0  0
   44.7309   11.6017   11.7468 C   0  0  2  0  0  0  0  0  0  0  0  0
   44.4117   11.0618   10.4566 O   0  0  0  0  0  0  0  0  0  0  0  0
   45.7450   10.6746   12.4676 C   0  0  2  0  0  0  0  0  0  0  0  0
   46.0701   11.2088   13.7833 O   0  0  0  0  0  0  0  0  0  0  0  0
   47.0397   10.5875   11.6407 C   0  0  0  0  0  0  0  0  0  0  0  0
   47.5939   11.9044   11.4673 O   0  0  0  0  0  0  0  0  0  0  0  0
  1  2  1  6  0  0  0
  1  3  1  0  0  0  0
  1  4  2  0  0  0  0
  1 16  1  0  0  0  0
  5  6  1  6  0  0  0
  5  7  1  0  0  0  0
  5 14  1  0  0  0  0
  7  8  1  1  0  0  0
  7  9  1  0  0  0  0
  9 10  1  6  0  0  0
  9 11  1  0  0  0  0
 11 12  1  6  0  0  0
 11 13  1  0  0  0  0
 13 14  1  0  0  0  0
 13 15  1  6  0  0  0
 15 16  1  0  0  0  0
M  CHG  1   3  -1
M  END
>  <CHROM.1>
58.50517478,-178.74096957,59.55861295,46.17674531,11.53845294,12.08019153
-0.51075931,-0.12734485,1.83299583

>  <Name>
ligand

>  <RI>
0

>  <Rbt.Current_Directory>
/home/itssahil/PROJECTS/Mol_Feturizer/New_Systems/rnas/3B4B

>  <Rbt.Executable>
rbdock ($Id: //depot/dev/client3/rdock/2013.1/src/exe/rbdock.cxx#4 $)

>  <Rbt.Library>
libRbt.so (2013.1, Build901 2013/11/27)

>  <Rbt.Parameter_File>
/export/apps/rDock/src/rDock_2013.1_src/data/scripts/dock_solv.prm

>  <Rbt.Receptor>
prm/pocket_docking_3.prm

>  <SCORE>
-10.0275

>  <SCORE.INTER>
-8.27506

>  <SCORE.INTER.CONST>
1

>  <SCORE.INTER.POLAR>
-1.12489

>  <SCORE.INTER.ROT>
3

>  <SCORE.INTER.SOLV>
16.6492

>  <SCORE.INTER.VDW>
-12.9168

>  <SCORE.INTER.norm>
-0.517191

>  <SCORE.INTRA>
-1.7524

>  <SCORE.INTRA.DIHEDRAL>
-2.20223

>  <SCORE.INTRA.DIHEDRAL.0>
2.21864

>  <SCORE.INTRA.POLAR>
0

>  <SCORE.INTRA.POLAR.0>
0

>  <SCORE.INTRA.REPUL>
0

>  <SCORE.INTRA.REPUL.0>
0

>  <SCORE.INTRA.SOLV>
-0.944592

>  <SCORE.INTRA.SOLV.lig_0>
-58.5963

>  <SCORE.INTRA.VDW>
-0.17899

>  <SCORE.INTRA.VDW.0>
-0.437849

>  <SCORE.INTRA.norm>
-0.109525

>  <SCORE.RESTR>
0

>  <SCORE.RESTR.CAVITY>
0

>  <SCORE.RESTR.norm>
0

>  <SCORE.SYSTEM>
0

>  <SCORE.SYSTEM.CONST>
0

>  <SCORE.SYSTEM.DIHEDRAL>
0

>  <SCORE.SYSTEM.SOLV>
0

>  <SCORE.SYSTEM.norm>
0

>  <SCORE.heavy>
16

>  <SCORE.norm>
-0.626716

>  <RMSD>
1.466

$$$$
ligand
 OpenBabel11021811463D
libRbt.so/2013.1/901 2013/11/27
 16 16  0  0  0  0  0  0  0  0999 V2000
   48.9867   11.6629   10.2495 P   0  0  2  0  0  0  0  0  0  0  0  0
   49.1200   11.2542    8.8295 O   0  0  0  0  0  0  0  0  0  0  0  0
   49.2074   13.2505   10.3972 O   0  5  0  0  0  0  0  0  0  0  0  0
   50.1135   10.9015   11.1297 O   0  0  0  0  0  0  0  0  0  0  0  0
   44.6158   11.0191   14.6319 C   0  0  2  0  0  0  0  0  0  0  0  0
   44.1925    9.7024   14.2486 O   0  0  0  0  0  0  0  0  0  0  0  0
   43.6280   12.1072   14.1241 C   0  0  2  0  0  0  0  0  0  0  0  0
   42.2730   11.8400   14.6546 N   0  0  0  0  0  0  0  0  0  0  0  0
   43.6098   12.0741   12.5812 C   0  0  1  0  0  0  0  0  0  0  0  0
   42.7193   13.0830   12.0730 O   0  0  0  0  0  0  0  0  0  0  0  0
   45.0366   12.3449   12.0820 C   0  0  2  0  0  0  0  0  0  0  0  0
   45.0575   12.3058   10.6481 O   0  0  0  0  0  0  0  0  0  0  0  0
   45.9708   11.2444   12.6509 C   0  0  2  0  0  0  0  0  0  0  0  0
   45.9508   11.2689   14.1073 O   0  0  0  0  0  0  0  0  0  0  0  0
   47.4123   11.4979   12.1764 C   0  0  0  0  0  0  0  0  0  0  0  0
   47.4999   11.2846   10.7557 O   0  0  0  0  0  0  0  0  0  0  0  0
  1  2  1  6  0  0  0
  1  3  1  0  0  0  0
  1  4  2  0  0  0  0
  1 16  1  0  0  0  0
  5  6  1  6  0  0  0
  5  7  1  0  0  0  0
  5 14  1  0  0  0  0
  7  8  1  1  0  0  0
  7  9  1  0  0  0  0
  9 10  1  6  0  0  0
  9 11  1  0  0  0  0
 11 12  1  6  0  0  0
 11 13  1  0  0  0  0
 13 14  1  0  0  0  0
 13 15  1  6  0  0  0
 15 16  1  0  0  0  0
M  CHG  1   3  -1
M  END
>  <CHROM.1>
-67.97897087,175.67582061,171.92320725,46.24175372,11.67209227,12.01383804
0.47838425,0.31363344,-1.03200002

>  <Name>
ligand

>  <RI>
0

>  <Rbt.Current_Directory>
/home/itssahil/PROJECTS/Mol_Feturizer/New_Systems/rnas/3B4B

>  <Rbt.Executable>
rbdock ($Id: //depot/dev/client3/rdock/2013.1/src/exe/rbdock.cxx#4 $)

>  <Rbt.Library>
libRbt.so (2013.1, Build901 2013/11/27)

>  <Rbt.Parameter_File>
/export/apps/rDock/src/rDock_2013.1_src/data/scripts/dock_solv.prm

>  <Rbt.Receptor>
prm/pocket_docking_4.prm

>  <SCORE>
-9.3833

>  <SCORE.INTER>
-8.35852

>  <SCORE.INTER.CONST>
1

>  <SCORE.INTER.POLAR>
-1.12486

>  <SCORE.INTER.ROT>
3

>  <SCORE.INTER.SOLV>
15.3559

>  <SCORE.INTER.VDW>
-12.5415

>  <SCORE.INTER.norm>
-0.522407

>  <SCORE.INTRA>
-1.02478

>  <SCORE.INTRA.DIHEDRAL>
-1.79689

>  <SCORE.INTRA.DIHEDRAL.0>
2.21864

>  <SCORE.INTRA.POLAR>
0

>  <SCORE.INTRA.POLAR.0>
0

>  <SCORE.INTRA.REPUL>
0

>  <SCORE.INTRA.REPUL.0>
0

>  <SCORE.INTRA.SOLV>
0.12029

>  <SCORE.INTRA.SOLV.lig_0>
-58.5963

>  <SCORE.INTRA.VDW>
-0.186483

>  <SCORE.INTRA.VDW.0>
-0.437849

>  <SCORE.INTRA.norm>
-0.0640488

>  <SCORE.RESTR>
0

>  <SCORE.RESTR.CAVITY>
0

>  <SCORE.RESTR.norm>
0

>  <SCORE.SYSTEM>
0

>  <SCORE.SYSTEM.CONST>
0

>  <SCORE.SYSTEM.DIHEDRAL>
0

>  <SCORE.SYSTEM.SOLV>
0

>  <SCORE.SYSTEM.norm>
0

>  <SCORE.heavy>
16

>  <SCORE.norm>
-0.586456

>  <RMSD>
1.499

$$$$
ligand
 OpenBabel11021811463D
libRbt.so/2013.1/901 2013/11/27
 16 16  0  0  0  0  0  0  0  0999 V2000
   49.3793   11.9800   11.0143 P   0  0  2  0  0  0  0  0  0  0  0  0
   49.1687   11.9848    9.5458 O   0  0  0  0  0  0  0  0  0  0  0  0
   49.7519   13.4584   11.5304 O   0  5  0  0  0  0  0  0  0  0  0  0
   50.6062   10.9845   11.3721 O   0  0  0  0  0  0  0  0  0  0  0  0
   44.5901   11.3639   14.1418 C   0  0  2  0  0  0  0  0  0  0  0  0
   44.2902   10.0431   13.6674 O   0  0  0  0  0  0  0  0  0  0  0  0
   43.4171   12.3482   13.8713 C   0  0  2  0  0  0  0  0  0  0  0  0
   42.1847   11.8483   14.5198 N   0  0  0  0  0  0  0  0  0  0  0  0
   43.2074   12.4570   12.3462 C   0  0  1  0  0  0  0  0  0  0  0  0
   42.1400   13.3765   12.0557 O   0  0  0  0  0  0  0  0  0  0  0  0
   44.5139   12.9672   11.7209 C   0  0  2  0  0  0  0  0  0  0  0  0
   44.3573   13.0653   10.2983 O   0  0  0  0  0  0  0  0  0  0  0  0
   45.6435   11.9577   12.0564 C   0  0  2  0  0  0  0  0  0  0  0  0
   45.8056   11.8433   13.4995 O   0  0  0  0  0  0  0  0  0  0  0  0
   46.9697   12.4507   11.4519 C   0  0  0  0  0  0  0  0  0  0  0  0
   48.0124   11.4978   11.7280 O   0  0  0  0  0  0  0  0  0  0  0  0
  1  2  1  6  0  0  0
  1  3  1  0  0  0  0
  1  4  2  0  0  0  0
  1 16  1  0  0  0  0
  5  6  1  6  0  0  0
  5  7  1  0  0  0  0
  5 14  1  0  0  0  0
  7  8  1  1  0  0  0
  7  9  1  0  0  0  0
  9 10  1  1  0  0  0
  9 11  1  0  0  0  0
 11 12  1  6  0  0  0
 11 13  1  0  0  0  0
 13 14  1  0  0  0  0
 13 15  1  6  0  0  0
 15 16  1  0  0  0  0
M  CHG  1   3  -1
M  END
>  <CHROM.1>
-178.35570685,176.62612162,-63.44269925,46.20081644,12.08678681,12.05587870
-0.25594164,-0.21482061,2.17126548

>  <Name>
ligand

>  <RI>
0

>  <Rbt.Current_Directory>
/home/itssahil/PROJECTS/Mol_Feturizer/New_Systems/rnas/3B4B

>  <Rbt.Executable>
rbdock ($Id: //depot/dev/client3/rdock/2013.1/src/exe/rbdock.cxx#4 $)

>  <Rbt.Library>
libRbt.so (2013.1, Build901 2013/11/27)

>  <Rbt.Parameter_File>
/export/apps/rDock/src/rDock_2013.1_src/data/scripts/dock_solv.prm

>  <Rbt.Receptor>
prm/pocket_docking_3.prm

>  <SCORE>
-8.75401

>  <SCORE.INTER>
-7.05514

>  <SCORE.INTER.CONST>
1

>  <SCORE.INTER.POLAR>
-1.12486

>  <SCORE.INTER.ROT>
3

>  <SCORE.INTER.SOLV>
15.323

>  <SCORE.INTER.VDW>
-11.6616

>  <SCORE.INTER.norm>
-0.440947

>  <SCORE.INTRA>
-1.69887

>  <SCORE.INTRA.DIHEDRAL>
-2.13361

>  <SCORE.INTRA.DIHEDRAL.0>
2.21864

>  <SCORE.INTRA.POLAR>
0

>  <SCORE.INTRA.POLAR.0>
0

>  <SCORE.INTRA.REPUL>
0

>  <SCORE.INTRA.REPUL.0>
0

>  <SCORE.INTRA.SOLV>
-1.14802

>  <SCORE.INTRA.SOLV.lig_0>
-58.5963

>  <SCORE.INTRA.VDW>
-0.0580545

>  <SCORE.INTRA.VDW.0>
-0.437849

>  <SCORE.INTRA.norm>
-0.106179

>  <SCORE.RESTR>
0

>  <SCORE.RESTR.CAVITY>
0

>  <SCORE.RESTR.norm>
0

>  <SCORE.SYSTEM>
0

>  <SCORE.SYSTEM.CONST>
0

>  <SCORE.SYSTEM.DIHEDRAL>
0

>  <SCORE.SYSTEM.SOLV>
0

>  <SCORE.SYSTEM.norm>
0

>  <SCORE.heavy>
16

>  <SCORE.norm>
-0.547126

>  <RMSD>
1.552

$$$$
ligand
 OpenBabel11021811463D
libRbt.so/2013.1/901 2013/11/27
 16 16  0  0  0  0  0  0  0  0999 V2000
   48.9440   11.6760   10.1230 P   0  0  2  0  0  0  0  0  0  0  0  0
   49.0588   11.2378    8.7102 O   0  0  0  0  0  0  0  0  0  0  0  0
   49.2477   13.2520   10.2457 O   0  5  0  0  0  0  0  0  0  0  0  0
   50.0271   10.8709   11.0190 O   0  0  0  0  0  0  0  0  0  0  0  0
   44.6254   10.9832   14.5431 C   0  0  2  0  0  0  0  0  0  0  0  0
   44.1815    9.6938   14.0957 O   0  0  0  0  0  0  0  0  0  0  0  0
   43.6366   12.1063   14.1203 C   0  0  2  0  0  0  0  0  0  0  0  0
   42.2914   11.8201   14.6658 N   0  0  0  0  0  0  0  0  0  0  0  0
   43.5835   12.1609   12.5789 C   0  0  1  0  0  0  0  0  0  0  0  0
   42.6912   13.2041   12.1491 O   0  0  0  0  0  0  0  0  0  0  0  0
   45.0012   12.4482   12.0633 C   0  0  2  0  0  0  0  0  0  0  0  0
   44.9896   12.4904   10.6294 O   0  0  0  0  0  0  0  0  0  0  0  0
   45.9377   11.3098   12.5475 C   0  0  2  0  0  0  0  0  0  0  0  0
   45.9505   11.2518   14.0030 O   0  0  0  0  0  0  0  0  0  0  0  0
   47.3705   11.5783   12.0552 C   0  0  0  0  0  0  0  0  0  0  0  0
   47.4381   11.3849   10.6306 O   0  0  0  0  0  0  0  0  0  0  0  0
  1  2  1  6  0  0  0
  1  3  1  0  0  0  0
  1  4  2  0  0  0  0
  1 16  1  0  0  0  0
  5  6  1  6  0  0  0
  5  7  1  0  0  0  0
  5 14  1  0  0  0  0
  7  8  1  1  0  0  0
  7  9  1  0  0  0  0
  9 10  1  1  0  0  0
  9 11  1  0  0  0  0
 11 12  1  6  0  0  0
 11 13  1  0  0  0  0
 13 14  1  0  0  0  0
 13 15  1  1  0  0  0
 15 16  1  0  0  0  0
M  CHG  1   3  -1
M  END
>  <CHROM.1>
-70.61871612,179.73073223,169.83819274,46.21371508,11.70961779,11.93613748
0.47289156,0.34779878,-0.98787715

>  <Name>
ligand

>  <RI>
0

>  <Rbt.Current_Directory>
/home/itssahil/PROJECTS/Mol_Feturizer/New_Systems/rnas/3B4B

>  <Rbt.Executable>
rbdock ($Id: //depot/dev/client3/rdock/2013.1/src/exe/rbdock.cxx#4 $)

>  <Rbt.Library>
libRbt.so (2013.1, Build901 2013/11/27)

>  <Rbt.Parameter_File>
/export/apps/rDock/src/rDock_2013.1_src/data/scripts/dock_solv.prm

>  <Rbt.Receptor>
prm/pocket_docking_4.prm

>  <SCORE>
-9.39968

>  <SCORE.INTER>
-8.3302

>  <SCORE.INTER.CONST>
1

>  <SCORE.INTER.POLAR>
-1.125

>  <SCORE.INTER.ROT>
3

>  <SCORE.INTER.SOLV>
15.0261

>  <SCORE.INTER.VDW>
-12.4122

>  <SCORE.INTER.norm>
-0.520638

>  <SCORE.INTRA>
-1.06948

>  <SCORE.INTRA.DIHEDRAL>
-1.65855

>  <SCORE.INTRA.DIHEDRAL.0>
2.21864

>  <SCORE.INTRA.POLAR>
0

>  <SCORE.INTRA.POLAR.0>
0

>  <SCORE.INTRA.REPUL>
0

>  <SCORE.INTRA.REPUL.0>
0

>  <SCORE.INTRA.SOLV>
-0.0415509

>  <SCORE.INTRA.SOLV.lig_0>
-58.5963

>  <SCORE.INTRA.VDW>
-0.219429

>  <SCORE.INTRA.VDW.0>
-0.437849

>  <SCORE.INTRA.norm>
-0.0668426

>  <SCORE.RESTR>
0

>  <SCORE.RESTR.CAVITY>
0

>  <SCORE.RESTR.norm>
0

>  <SCORE.SYSTEM>
0

>  <SCORE.SYSTEM.CONST>
0

>  <SCORE.SYSTEM.DIHEDRAL>
0

>  <SCORE.SYSTEM.SOLV>
0

>  <SCORE.SYSTEM.norm>
0

>  <SCORE.heavy>
16

>  <SCORE.norm>
-0.58748

>  <RMSD>
1.562

$$$$
ligand
 OpenBabel11021811463D
libRbt.so/2013.1/901 2013/11/27
 16 16  0  0  0  0  0  0  0  0999 V2000
   48.7607   11.9497   10.6359 P   0  0  2  0  0  0  0  0  0  0  0  0
   48.3626   12.3489    9.2635 O   0  0  0  0  0  0  0  0  0  0  0  0
   49.8856   12.9505   11.2049 O   0  5  0  0  0  0  0  0  0  0  0  0
   49.3757   10.4515   10.5964 O   0  0  0  0  0  0  0  0  0  0  0  0
   44.4122   10.9509   14.2605 C   0  0  2  0  0  0  0  0  0  0  0  0
   43.4723    9.9350   13.8809 O   0  0  0  0  0  0  0  0  0  0  0  0
   43.7747   12.3681   14.2060 C   0  0  2  0  0  0  0  0  0  0  0  0
   42.5922   12.4195   15.0939 N   0  0  0  0  0  0  0  0  0  0  0  0
   43.3582   12.6649   12.7499 C   0  0  1  0  0  0  0  0  0  0  0  0
   42.7805   13.9790   12.6563 O   0  0  0  0  0  0  0  0  0  0  0  0
   44.6145   12.5885   11.8700 C   0  0  2  0  0  0  0  0  0  0  0  0
   44.2586   12.8452   10.5042 O   0  0  0  0  0  0  0  0  0  0  0  0
   45.2146   11.1633   11.9973 C   0  0  2  0  0  0  0  0  0  0  0  0
   45.5719   10.8882   13.3825 O   0  0  0  0  0  0  0  0  0  0  0  0
   46.4844   11.0613   11.1343 C   0  0  0  0  0  0  0  0  0  0  0  0
   47.4582   12.0185   11.5893 O   0  0  0  0  0  0  0  0  0  0  0  0
  1  2  1  6  0  0  0
  1  3  1  0  0  0  0
  1  4  2  0  0  0  0
  1 16  1  0  0  0  0
  5  6  1  6  0  0  0
  5  7  1  0  0  0  0
  5 14  1  0  0  0  0
  7  8  1  1  0  0  0
  7  9  1  0  0  0  0
  9 10  1  1  0  0  0
  9 11  1  0  0  0  0
 11 12  1  6  0  0  0
 11 13  1  0  0  0  0
 13 14  1  0  0  0  0
 13 15  1  6  0  0  0
 15 16  1  0  0  0  0
M  CHG  1   3  -1
M  END
>  <CHROM.1>
60.58868805,-177.46508843,63.43276526,45.93223347,11.91423455,12.03322189
-0.32360937,-0.40965879,2.38061089

>  <Name>
ligand

>  <RI>
0

>  <Rbt.Current_Directory>
/home/itssahil/PROJECTS/Mol_Feturizer/New_Systems/rnas/3B4B

>  <Rbt.Executable>
rbdock ($Id: //depot/dev/client3/rdock/2013.1/src/exe/rbdock.cxx#4 $)

>  <Rbt.Library>
libRbt.so (2013.1, Build901 2013/11/27)

>  <Rbt.Parameter_File>
/export/apps/rDock/src/rDock_2013.1_src/data/scripts/dock_solv.prm

>  <Rbt.Receptor>
prm/pocket_docking_6.prm

>  <SCORE>
-9.00796

>  <SCORE.INTER>
-7.24298

>  <SCORE.INTER.CONST>
1

>  <SCORE.INTER.POLAR>
-1.12438

>  <SCORE.INTER.ROT>
3

>  <SCORE.INTER.SOLV>
15.7383

>  <SCORE.INTER.VDW>
-11.9268

>  <SCORE.INTER.norm>
-0.452686

>  <SCORE.INTRA>
-1.76498

>  <SCORE.INTRA.DIHEDRAL>
-2.16479

>  <SCORE.INTRA.DIHEDRAL.0>
2.21864

>  <SCORE.INTRA.POLAR>
0

>  <SCORE.INTRA.POLAR.0>
0

>  <SCORE.INTRA.REPUL>
0

>  <SCORE.INTRA.REPUL.0>
0

>  <SCORE.INTRA.SOLV>
-0.911427

>  <SCORE.INTRA.SOLV.lig_0>
-58.5963

>  <SCORE.INTRA.VDW>
-0.226873

>  <SCORE.INTRA.VDW.0>
-0.437849

>  <SCORE.INTRA.norm>
-0.110311

>  <SCORE.RESTR>
0

>  <SCORE.RESTR.CAVITY>
0

>  <SCORE.RESTR.norm>
0

>  <SCORE.SYSTEM>
0

>  <SCORE.SYSTEM.CONST>
0

>  <SCORE.SYSTEM.DIHEDRAL>
0

>  <SCORE.SYSTEM.SOLV>
0

>  <SCORE.SYSTEM.norm>
0

>  <SCORE.heavy>
16

>  <SCORE.norm>
-0.562998

>  <RMSD>
1.568

$$$$
ligand
 OpenBabel11021811463D
libRbt.so/2013.1/901 2013/11/27
 16 16  0  0  0  0  0  0  0  0999 V2000
   48.7635   11.5326   10.2952 P   0  0  2  0  0  0  0  0  0  0  0  0
   48.8932   10.9760    8.9261 O   0  0  0  0  0  0  0  0  0  0  0  0
   49.0996   13.1068   10.2926 O   0  5  0  0  0  0  0  0  0  0  0  0
   49.8129   10.7829   11.2755 O   0  0  0  0  0  0  0  0  0  0  0  0
   44.4323   11.1201   14.7250 C   0  0  2  0  0  0  0  0  0  0  0  0
   44.0766    9.7672   14.4043 O   0  0  0  0  0  0  0  0  0  0  0  0
   43.3752   12.1297   14.1951 C   0  0  2  0  0  0  0  0  0  0  0  0
   42.0478   11.8099   14.7649 N   0  0  0  0  0  0  0  0  0  0  0  0
   43.3293   12.0317   12.6556 C   0  0  1  0  0  0  0  0  0  0  0  0
   42.3738   12.9677   12.1263 O   0  0  0  0  0  0  0  0  0  0  0  0
   44.7288   12.3604   12.1153 C   0  0  2  0  0  0  0  0  0  0  0  0
   44.7243   12.2631   10.6841 O   0  0  0  0  0  0  0  0  0  0  0  0
   45.7342   11.3379   12.7079 C   0  0  2  0  0  0  0  0  0  0  0  0
   45.7407   11.4217   14.1623 O   0  0  0  0  0  0  0  0  0  0  0  0
   47.1498   11.6512   12.1928 C   0  0  0  0  0  0  0  0  0  0  0  0
   47.2430   11.3157   10.7963 O   0  0  0  0  0  0  0  0  0  0  0  0
  1  2  1  6  0  0  0
  1  3  1  0  0  0  0
  1  4  2  0  0  0  0
  1 16  1  0  0  0  0
  5  6  1  6  0  0  0
  5  7  1  0  0  0  0
  5 14  1  0  0  0  0
  7  8  1  1  0  0  0
  7  9  1  0  0  0  0
  9 10  1  6  0  0  0
  9 11  1  0  0  0  0
 11 12  1  6  0  0  0
 11 13  1  0  0  0  0
 13 14  1  0  0  0  0
 13 15  1  6  0  0  0
 15 16  1  0  0  0  0
M  CHG  1   3  -1
M  END
>  <CHROM.1>
-71.08868359,-175.36278639,170.84718616,46.00169678,11.64421055,12.07383791
-0.48588495,-0.30214764,2.04146203

>  <Name>
ligand

>  <RI>
0

>  <Rbt.Current_Directory>
/home/itssahil/PROJECTS/Mol_Feturizer/New_Systems/rnas/3B4B

>  <Rbt.Executable>
rbdock ($Id: //depot/dev/client3/rdock/2013.1/src/exe/rbdock.cxx#4 $)

>  <Rbt.Library>
libRbt.so (2013.1, Build901 2013/11/27)

>  <Rbt.Parameter_File>
/export/apps/rDock/src/rDock_2013.1_src/data/scripts/dock_solv.prm

>  <Rbt.Receptor>
prm/pocket_docking_5.prm

>  <SCORE>
-9.19976

>  <SCORE.INTER>
-8.13356

>  <SCORE.INTER.CONST>
1

>  <SCORE.INTER.POLAR>
-1.11617

>  <SCORE.INTER.ROT>
3

>  <SCORE.INTER.SOLV>
15.7121

>  <SCORE.INTER.VDW>
-12.5392

>  <SCORE.INTER.norm>
-0.508348

>  <SCORE.INTRA>
-1.06619

>  <SCORE.INTRA.DIHEDRAL>
-1.54886

>  <SCORE.INTRA.DIHEDRAL.0>
2.21864

>  <SCORE.INTRA.POLAR>
0

>  <SCORE.INTRA.POLAR.0>
0

>  <SCORE.INTRA.REPUL>
0

>  <SCORE.INTRA.REPUL.0>
0

>  <SCORE.INTRA.SOLV>
-0.139223

>  <SCORE.INTRA.SOLV.lig_0>
-58.5963

>  <SCORE.INTRA.VDW>
-0.222151

>  <SCORE.INTRA.VDW.0>
-0.437849

>  <SCORE.INTRA.norm>
-0.0666372

>  <SCORE.RESTR>
0

>  <SCORE.RESTR.CAVITY>
0

>  <SCORE.RESTR.norm>
0

>  <SCORE.SYSTEM>
0

>  <SCORE.SYSTEM.CONST>
0

>  <SCORE.SYSTEM.DIHEDRAL>
0

>  <SCORE.SYSTEM.SOLV>
0

>  <SCORE.SYSTEM.norm>
0

>  <SCORE.heavy>
16

>  <SCORE.norm>
-0.574985

>  <RMSD>
1.614

$$$$
ligand
 OpenBabel11021811463D
libRbt.so/2013.1/901 2013/11/27
 16 16  0  0  0  0  0  0  0  0999 V2000
   48.7167   11.5317   10.1403 P   0  0  2  0  0  0  0  0  0  0  0  0
   48.8131   11.0075    8.7558 O   0  0  0  0  0  0  0  0  0  0  0  0
   49.0276   13.1109   10.1630 O   0  5  0  0  0  0  0  0  0  0  0  0
   49.8074   10.7780   11.0712 O   0  0  0  0  0  0  0  0  0  0  0  0
   44.4537   11.1092   14.6367 C   0  0  2  0  0  0  0  0  0  0  0  0
   43.9956    9.8101   14.2340 O   0  0  0  0  0  0  0  0  0  0  0  0
   43.4609   12.2247   14.2035 C   0  0  2  0  0  0  0  0  0  0  0  0
   42.1260   11.9597   14.7839 N   0  0  0  0  0  0  0  0  0  0  0  0
   43.3765   12.2375   12.6626 C   0  0  1  0  0  0  0  0  0  0  0  0
   42.4797   13.2725   12.2226 O   0  0  0  0  0  0  0  0  0  0  0  0
   44.7845   12.5042   12.1105 C   0  0  2  0  0  0  0  0  0  0  0  0
   44.7437   12.5072   10.6765 O   0  0  0  0  0  0  0  0  0  0  0  0
   45.7261   11.3752   12.6066 C   0  0  2  0  0  0  0  0  0  0  0  0
   45.7686   11.3570   14.0626 O   0  0  0  0  0  0  0  0  0  0  0  0
   47.1496   11.6238   12.0781 C   0  0  0  0  0  0  0  0  0  0  0  0
   47.2159   11.2787   10.6824 O   0  0  0  0  0  0  0  0  0  0  0  0
  1  2  1  6  0  0  0
  1  3  1  0  0  0  0
  1  4  2  0  0  0  0
  1 16  1  0  0  0  0
  5  6  1  6  0  0  0
  5  7  1  0  0  0  0
  5 14  1  0  0  0  0
  7  8  1  1  0  0  0
  7  9  1  0  0  0  0
  9 10  1  1  0  0  0
  9 11  1  0  0  0  0
 11 12  1  6  0  0  0
 11 13  1  0  0  0  0
 13 14  1  0  0  0  0
 13 15  1  6  0  0  0
 15 16  1  0  0  0  0
M  CHG  1   3  -1
M  END
>  <CHROM.1>
-75.63130687,-179.54016531,172.72368535,46.00357863,11.70825570,11.98949425
-0.47073220,-0.37357495,2.11566415

>  <Name>
ligand

>  <RI>
0

>  <Rbt.Current_Directory>
/home/itssahil/PROJECTS/Mol_Feturizer/New_Systems/rnas/3B4B

>  <Rbt.Executable>
rbdock ($Id: //depot/dev/client3/rdock/2013.1/src/exe/rbdock.cxx#4 $)

>  <Rbt.Library>
libRbt.so (2013.1, Build901 2013/11/27)

>  <Rbt.Parameter_File>
/export/apps/rDock/src/rDock_2013.1_src/data/scripts/dock_solv.prm

>  <Rbt.Receptor>
prm/pocket_docking_3.prm

>  <SCORE>
-9.28348

>  <SCORE.INTER>
-8.25501

>  <SCORE.INTER.CONST>
1

>  <SCORE.INTER.POLAR>
-1.125

>  <SCORE.INTER.ROT>
3

>  <SCORE.INTER.SOLV>
15.3811

>  <SCORE.INTER.VDW>
-12.4804

>  <SCORE.INTER.norm>
-0.515938

>  <SCORE.INTRA>
-1.02847

>  <SCORE.INTRA.DIHEDRAL>
-1.2993

>  <SCORE.INTRA.DIHEDRAL.0>
2.21864

>  <SCORE.INTRA.POLAR>
0

>  <SCORE.INTRA.POLAR.0>
0

>  <SCORE.INTRA.REPUL>
0

>  <SCORE.INTRA.REPUL.0>
0

>  <SCORE.INTRA.SOLV>
-0.109987

>  <SCORE.INTRA.SOLV.lig_0>
-58.5963

>  <SCORE.INTRA.VDW>
-0.323829

>  <SCORE.INTRA.VDW.0>
-0.437849

>  <SCORE.INTRA.norm>
-0.0642796

>  <SCORE.RESTR>
0

>  <SCORE.RESTR.CAVITY>
0

>  <SCORE.RESTR.norm>
0

>  <SCORE.SYSTEM>
0

>  <SCORE.SYSTEM.CONST>
0

>  <SCORE.SYSTEM.DIHEDRAL>
0

>  <SCORE.SYSTEM.SOLV>
0

>  <SCORE.SYSTEM.norm>
0

>  <SCORE.heavy>
16

>  <SCORE.norm>
-0.580217

>  <RMSD>
1.674

$$$$
ligand
 OpenBabel11021811463D
libRbt.so/2013.1/901 2013/11/27
 16 16  0  0  0  0  0  0  0  0999 V2000
   48.6913   11.8684   10.1789 P   0  0  2  0  0  0  0  0  0  0  0  0
   48.7351   12.1362    8.7204 O   0  0  0  0  0  0  0  0  0  0  0  0
   49.4514   13.0363   10.9847 O   0  5  0  0  0  0  0  0  0  0  0  0
   49.4361   10.4625   10.4839 O   0  0  0  0  0  0  0  0  0  0  0  0
   44.3276   10.8095   14.4360 C   0  0  2  0  0  0  0  0  0  0  0  0
   43.8073    9.6751   13.7275 O   0  0  0  0  0  0  0  0  0  0  0  0
   43.4018   12.0498   14.2873 C   0  0  2  0  0  0  0  0  0  0  0  0
   42.0463   11.7250   14.7836 N   0  0  0  0  0  0  0  0  0  0  0  0
   43.3407   12.4426   12.7960 C   0  0  1  0  0  0  0  0  0  0  0  0
   42.5065   13.6014   12.6211 O   0  0  0  0  0  0  0  0  0  0  0  0
   44.7687   12.7581   12.3276 C   0  0  2  0  0  0  0  0  0  0  0  0
   44.7492   13.1129   10.9377 O   0  0  0  0  0  0  0  0  0  0  0  0
   45.6419   11.4922   12.5340 C   0  0  2  0  0  0  0  0  0  0  0  0
   45.6620   11.1172   13.9414 O   0  0  0  0  0  0  0  0  0  0  0  0
   47.0841   11.7835   12.0840 C   0  0  0  0  0  0  0  0  0  0  0  0
   47.1455   11.8208   10.6465 O   0  0  0  0  0  0  0  0  0  0  0  0
  1  2  1  6  0  0  0
  1  3  1  0  0  0  0
  1  4  2  0  0  0  0
  1 16  1  0  0  0  0
  5  6  1  6  0  0  0
  5  7  1  0  0  0  0
  5 14  1  0  0  0  0
  7  8  1  6  0  0  0
  7  9  1  0  0  0  0
  9 10  1  1  0  0  0
  9 11  1  0  0  0  0
 11 12  1  6  0  0  0
 11 13  1  0  0  0  0
 13 14  1  0  0  0  0
 13 15  1  1  0  0  0
 15 16  1  0  0  0  0
M  CHG  1   3  -1
M  END
>  <CHROM.1>
-74.13602548,-170.20460293,-170.57870170,45.95306257,11.86752941,12.01525342
-0.39772384,-0.43234254,2.37321600

>  <Name>
ligand

>  <RI>
0

>  <Rbt.Current_Directory>
/home/itssahil/PROJECTS/Mol_Feturizer/New_Systems/rnas/3B4B

>  <Rbt.Executable>
rbdock ($Id: //depot/dev/client3/rdock/2013.1/src/exe/rbdock.cxx#4 $)

>  <Rbt.Library>
libRbt.so (2013.1, Build901 2013/11/27)

>  <Rbt.Parameter_File>
/export/apps/rDock/src/rDock_2013.1_src/data/scripts/dock_solv.prm

>  <Rbt.Receptor>
prm/pocket_docking_3.prm

>  <SCORE>
-8.42703

>  <SCORE.INTER>
-7.68843

>  <SCORE.INTER.CONST>
1

>  <SCORE.INTER.POLAR>
-1.125

>  <SCORE.INTER.ROT>
3

>  <SCORE.INTER.SOLV>
15.7373

>  <SCORE.INTER.VDW>
-12.2214

>  <SCORE.INTER.norm>
-0.480527

>  <SCORE.INTRA>
-0.738594

>  <SCORE.INTRA.DIHEDRAL>
-0.920498

>  <SCORE.INTRA.DIHEDRAL.0>
2.21864

>  <SCORE.INTRA.POLAR>
0

>  <SCORE.INTRA.POLAR.0>
0

>  <SCORE.INTRA.REPUL>
0

>  <SCORE.INTRA.REPUL.0>
0

>  <SCORE.INTRA.SOLV>
-0.199002

>  <SCORE.INTRA.SOLV.lig_0>
-58.5963

>  <SCORE.INTRA.VDW>
-0.178844

>  <SCORE.INTRA.VDW.0>
-0.437849

>  <SCORE.INTRA.norm>
-0.0461621

>  <SCORE.RESTR>
0

>  <SCORE.RESTR.CAVITY>
0

>  <SCORE.RESTR.norm>
0

>  <SCORE.SYSTEM>
0

>  <SCORE.SYSTEM.CONST>
0

>  <SCORE.SYSTEM.DIHEDRAL>
0

>  <SCORE.SYSTEM.SOLV>
0

>  <SCORE.SYSTEM.norm>
0

>  <SCORE.heavy>
16

>  <SCORE.norm>
-0.526689

>  <RMSD>
1.687

$$$$
ligand
 OpenBabel11021811463D
libRbt.so/2013.1/901 2013/11/27
 16 16  0  0  0  0  0  0  0  0999 V2000
   48.5912   11.6013   10.6128 P   0  0  2  0  0  0  0  0  0  0  0  0
   48.2584   12.1264    9.2657 O   0  0  0  0  0  0  0  0  0  0  0  0
   49.8349   12.4108   11.2365 O   0  5  0  0  0  0  0  0  0  0  0  0
   49.0030   10.0396   10.4878 O   0  0  0  0  0  0  0  0  0  0  0  0
   44.2027   10.9405   14.2325 C   0  0  2  0  0  0  0  0  0  0  0  0
   43.1623   10.0366   13.8324 O   0  0  0  0  0  0  0  0  0  0  0  0
   43.7040   12.4130   14.2519 C   0  0  2  0  0  0  0  0  0  0  0  0
   42.5490   12.5383   15.1680 N   0  0  0  0  0  0  0  0  0  0  0  0
   43.2907   12.8118   12.8194 C   0  0  1  0  0  0  0  0  0  0  0  0
   42.8409   14.1779   12.7941 O   0  0  0  0  0  0  0  0  0  0  0  0
   44.5170   12.6543   11.9085 C   0  0  2  0  0  0  0  0  0  0  0  0
   44.1619   13.0034   10.5632 O   0  0  0  0  0  0  0  0  0  0  0  0
   44.9792   11.1741   11.9623 C   0  0  2  0  0  0  0  0  0  0  0  0
   45.3343   10.8057   13.3262 O   0  0  0  0  0  0  0  0  0  0  0  0
   46.2167   10.9891   11.0669 C   0  0  0  0  0  0  0  0  0  0  0  0
   47.3031   11.7881   11.5699 O   0  0  0  0  0  0  0  0  0  0  0  0
  1  2  1  6  0  0  0
  1  3  1  0  0  0  0
  1  4  2  0  0  0  0
  1 16  1  0  0  0  0
  5  6  1  6  0  0  0
  5  7  1  0  0  0  0
  5 14  1  0  0  0  0
  7  8  1  1  0  0  0
  7  9  1  0  0  0  0
  9 10  1  1  0  0  0
  9 11  1  0  0  0  0
 11 12  1  6  0  0  0
 11 13  1  0  0  0  0
 13 14  1  0  0  0  0
 13 15  1  6  0  0  0
 15 16  1  0  0  0  0
M  CHG  1   3  -1
M  END
>  <CHROM.1>
62.83088093,-179.29444143,63.77771595,45.77858117,11.82208187,12.03530574
-0.24547414,-0.48419406,2.43924546

>  <Name>
ligand

>  <RI>
0

>  <Rbt.Current_Directory>
/home/itssahil/PROJECTS/Mol_Feturizer/New_Systems/rnas/3B4B

>  <Rbt.Executable>
rbdock ($Id: //depot/dev/client3/rdock/2013.1/src/exe/rbdock.cxx#4 $)

>  <Rbt.Library>
libRbt.so (2013.1, Build901 2013/11/27)

>  <Rbt.Parameter_File>
/export/apps/rDock/src/rDock_2013.1_src/data/scripts/dock_solv.prm

>  <Rbt.Receptor>
prm/pocket_docking_4.prm

>  <SCORE>
-9.11378

>  <SCORE.INTER>
-7.34686

>  <SCORE.INTER.CONST>
1

>  <SCORE.INTER.POLAR>
-1.125

>  <SCORE.INTER.ROT>
3

>  <SCORE.INTER.SOLV>
15.7391

>  <SCORE.INTER.VDW>
-11.9943

>  <SCORE.INTER.norm>
-0.459178

>  <SCORE.INTRA>
-1.76692

>  <SCORE.INTRA.DIHEDRAL>
-2.16182

>  <SCORE.INTRA.DIHEDRAL.0>
2.21864

>  <SCORE.INTRA.POLAR>
0

>  <SCORE.INTRA.POLAR.0>
0

>  <SCORE.INTRA.REPUL>
0

>  <SCORE.INTRA.REPUL.0>
0

>  <SCORE.INTRA.SOLV>
-0.904681

>  <SCORE.INTRA.SOLV.lig_0>
-58.5963

>  <SCORE.INTRA.VDW>
-0.233673

>  <SCORE.INTRA.VDW.0>
-0.437849

>  <SCORE.INTRA.norm>
-0.110433

>  <SCORE.RESTR>
0

>  <SCORE.RESTR.CAVITY>
0

>  <SCORE.RESTR.norm>
0

>  <SCORE.SYSTEM>
0

>  <SCORE.SYSTEM.CONST>
0

>  <SCORE.SYSTEM.DIHEDRAL>
0

>  <SCORE.SYSTEM.SOLV>
0

>  <SCORE.SYSTEM.norm>
0

>  <SCORE.heavy>
16

>  <SCORE.norm>
-0.569611

>  <RMSD>
1.691

$$$$
ligand
 OpenBabel11021811463D
libRbt.so/2013.1/901 2013/11/27
 16 16  0  0  0  0  0  0  0  0999 V2000
   48.7963   11.7519   10.3288 P   0  0  2  0  0  0  0  0  0  0  0  0
   48.3684   12.3350    9.0335 O   0  0  0  0  0  0  0  0  0  0  0  0
   49.6495   12.8263   11.1707 O   0  5  0  0  0  0  0  0  0  0  0  0
   49.7303   10.4587   10.0468 O   0  0  0  0  0  0  0  0  0  0  0  0
   44.4685   11.2994   14.1439 C   0  0  2  0  0  0  0  0  0  0  0  0
   43.8931   10.1444   13.5158 O   0  0  0  0  0  0  0  0  0  0  0  0
   43.4536   12.4751   14.2172 C   0  0  2  0  0  0  0  0  0  0  0  0
   42.2461   12.0485   14.9582 N   0  0  0  0  0  0  0  0  0  0  0  0
   43.0751   12.8891   12.7794 C   0  0  1  0  0  0  0  0  0  0  0  0
   42.1500   13.9903   12.8066 O   0  0  0  0  0  0  0  0  0  0  0  0
   44.3597   13.3109   12.0513 C   0  0  2  0  0  0  0  0  0  0  0  0
   44.0442   13.6882   10.7037 O   0  0  0  0  0  0  0  0  0  0  0  0
   45.3361   12.1050   12.0440 C   0  0  2  0  0  0  0  0  0  0  0  0
   45.6569   11.7074   13.4083 O   0  0  0  0  0  0  0  0  0  0  0  0
   46.6398   12.5034   11.3305 C   0  0  0  0  0  0  0  0  0  0  0  0
   47.4783   11.3448   11.1697 O   0  0  0  0  0  0  0  0  0  0  0  0
  1  2  1  6  0  0  0
  1  3  1  0  0  0  0
  1  4  2  0  0  0  0
  1 16  1  0  0  0  0
  5  6  1  6  0  0  0
  5  7  1  0  0  0  0
  5 14  1  0  0  0  0
  7  8  1  1  0  0  0
  7  9  1  0  0  0  0
  9 10  1  1  0  0  0
  9 11  1  0  0  0  0
 11 12  1  6  0  0  0
 11 13  1  0  0  0  0
 13 14  1  0  0  0  0
 13 15  1  1  0  0  0
 15 16  1  0  0  0  0
M  CHG  1   3  -1
M  END
>  <CHROM.1>
-172.69537729,176.05412828,-56.63082948,45.87850988,12.13901958,11.92911204
-0.28082618,-0.44666970,2.33745288

>  <Name>
ligand

>  <RI>
0

>  <Rbt.Current_Directory>
/home/itssahil/PROJECTS/Mol_Feturizer/New_Systems/rnas/3B4B

>  <Rbt.Executable>
rbdock ($Id: //depot/dev/client3/rdock/2013.1/src/exe/rbdock.cxx#4 $)

>  <Rbt.Library>
libRbt.so (2013.1, Build901 2013/11/27)

>  <Rbt.Parameter_File>
/export/apps/rDock/src/rDock_2013.1_src/data/scripts/dock_solv.prm

>  <Rbt.Receptor>
prm/pocket_docking_4.prm

>  <SCORE>
-8.51102

>  <SCORE.INTER>
-6.90287

>  <SCORE.INTER.CONST>
1

>  <SCORE.INTER.POLAR>
-1.125

>  <SCORE.INTER.ROT>
3

>  <SCORE.INTER.SOLV>
15.5613

>  <SCORE.INTER.VDW>
-11.639

>  <SCORE.INTER.norm>
-0.43143

>  <SCORE.INTRA>
-1.60815

>  <SCORE.INTRA.DIHEDRAL>
-1.9302

>  <SCORE.INTRA.DIHEDRAL.0>
2.21864

>  <SCORE.INTRA.POLAR>
0

>  <SCORE.INTRA.POLAR.0>
0

>  <SCORE.INTRA.REPUL>
0

>  <SCORE.INTRA.REPUL.0>
0

>  <SCORE.INTRA.SOLV>
-1.23858

>  <SCORE.INTRA.SOLV.lig_0>
-58.5963

>  <SCORE.INTRA.VDW>
-0.023758

>  <SCORE.INTRA.VDW.0>
-0.437849

>  <SCORE.INTRA.norm>
-0.100509

>  <SCORE.RESTR>
0

>  <SCORE.RESTR.CAVITY>
0

>  <SCORE.RESTR.norm>
0

>  <SCORE.SYSTEM>
0

>  <SCORE.SYSTEM.CONST>
0

>  <SCORE.SYSTEM.DIHEDRAL>
0

>  <SCORE.SYSTEM.SOLV>
0

>  <SCORE.SYSTEM.norm>
0

>  <SCORE.heavy>
16

>  <SCORE.norm>
-0.531939

>  <RMSD>
1.887

$$$$
ligand
 OpenBabel11021811463D
libRbt.so/2013.1/901 2013/11/27
 16 16  0  0  0  0  0  0  0  0999 V2000
   48.6182   10.9108   12.2507 P   0  0  2  0  0  0  0  0  0  0  0  0
   49.0017    9.4847   12.3931 O   0  0  0  0  0  0  0  0  0  0  0  0
   48.3045   11.2540   10.7096 O   0  5  0  0  0  0  0  0  0  0  0  0
   49.8460   11.8436   12.7471 O   0  0  0  0  0  0  0  0  0  0  0  0
   43.5390   12.1432   14.5398 C   0  0  2  0  0  0  0  0  0  0  0  0
   42.4736   11.1918   14.4006 O   0  0  0  0  0  0  0  0  0  0  0  0
   43.3433   13.3624   13.5948 C   0  0  2  0  0  0  0  0  0  0  0  0
   42.0462   14.0142   13.8808 N   0  0  0  0  0  0  0  0  0  0  0  0
   43.3760   12.8638   12.1346 C   0  0  1  0  0  0  0  0  0  0  0  0
   43.2172   13.9695   11.2283 O   0  0  0  0  0  0  0  0  0  0  0  0
   44.7333   12.1876   11.8924 C   0  0  2  0  0  0  0  0  0  0  0  0
   44.7906   11.6980   10.5452 O   0  0  0  0  0  0  0  0  0  0  0  0
   44.8750   11.0053   12.8871 C   0  0  2  0  0  0  0  0  0  0  0  0
   44.8096   11.4898   14.2593 O   0  0  0  0  0  0  0  0  0  0  0  0
   46.2340   10.3155   12.6755 C   0  0  0  0  0  0  0  0  0  0  0  0
   47.2918   11.1770   13.1340 O   0  0  0  0  0  0  0  0  0  0  0  0
  1  2  1  1  0  0  0
  1  3  1  0  0  0  0
  1  4  2  0  0  0  0
  1 16  1  0  0  0  0
  5  6  1  6  0  0  0
  5  7  1  0  0  0  0
  5 14  1  0  0  0  0
  7  8  1  1  0  0  0
  7  9  1  0  0  0  0
  9 10  1  6  0  0  0
  9 11  1  0  0  0  0
 11 12  1  6  0  0  0
 11 13  1  0  0  0  0
 13 14  1  0  0  0  0
 13 15  1  1  0  0  0
 15 16  1  0  0  0  0
M  CHG  1   3  -1
M  END
>  <CHROM.1>
70.42023442,-149.13590768,-59.06298451,45.70183012,11.71806283,12.65048703
-0.01178686,-0.37640700,2.02440302

>  <Name>
ligand

>  <RI>
0

>  <Rbt.Current_Directory>
/home/itssahil/PROJECTS/Mol_Feturizer/New_Systems/rnas/3B4B

>  <Rbt.Executable>
rbdock ($Id: //depot/dev/client3/rdock/2013.1/src/exe/rbdock.cxx#4 $)

>  <Rbt.Library>
libRbt.so (2013.1, Build901 2013/11/27)

>  <Rbt.Parameter_File>
/export/apps/rDock/src/rDock_2013.1_src/data/scripts/dock_solv.prm

>  <Rbt.Receptor>
prm/pocket_docking_3.prm

>  <SCORE>
-7.21934

>  <SCORE.INTER>
-8.02483

>  <SCORE.INTER.CONST>
1

>  <SCORE.INTER.POLAR>
-0.892201

>  <SCORE.INTER.ROT>
3

>  <SCORE.INTER.SOLV>
18.7347

>  <SCORE.INTER.VDW>
-14.2208

>  <SCORE.INTER.norm>
-0.501552

>  <SCORE.INTRA>
0.805492

>  <SCORE.INTRA.DIHEDRAL>
1.93109

>  <SCORE.INTRA.DIHEDRAL.0>
2.21864

>  <SCORE.INTRA.POLAR>
0

>  <SCORE.INTRA.POLAR.0>
0

>  <SCORE.INTRA.REPUL>
0

>  <SCORE.INTRA.REPUL.0>
0

>  <SCORE.INTRA.SOLV>
0.362484

>  <SCORE.INTRA.SOLV.lig_0>
-58.5963

>  <SCORE.INTRA.VDW>
-0.341295

>  <SCORE.INTRA.VDW.0>
-0.437849

>  <SCORE.INTRA.norm>
0.0503433

>  <SCORE.RESTR>
0

>  <SCORE.RESTR.CAVITY>
0

>  <SCORE.RESTR.norm>
0

>  <SCORE.SYSTEM>
0

>  <SCORE.SYSTEM.CONST>
0

>  <SCORE.SYSTEM.DIHEDRAL>
0

>  <SCORE.SYSTEM.SOLV>
0

>  <SCORE.SYSTEM.norm>
0

>  <SCORE.heavy>
16

>  <SCORE.norm>
-0.451209

>  <RMSD>
1.909

$$$$
ligand
 OpenBabel11021811463D
libRbt.so/2013.1/901 2013/11/27
 16 16  0  0  0  0  0  0  0  0999 V2000
   48.6066   10.9185   12.2291 P   0  0  2  0  0  0  0  0  0  0  0  0
   48.9695    9.4852   12.3517 O   0  0  0  0  0  0  0  0  0  0  0  0
   48.2835   11.2840   10.6952 O   0  5  0  0  0  0  0  0  0  0  0  0
   49.8533   11.8267   12.7241 O   0  0  0  0  0  0  0  0  0  0  0  0
   43.5420   12.2094   14.5113 C   0  0  2  0  0  0  0  0  0  0  0  0
   42.4738   11.2575   14.3995 O   0  0  0  0  0  0  0  0  0  0  0  0
   43.3503   13.4011   13.5313 C   0  0  2  0  0  0  0  0  0  0  0  0
   42.0550   14.0648   13.7977 N   0  0  0  0  0  0  0  0  0  0  0  0
   43.3820   12.8602   12.0862 C   0  0  1  0  0  0  0  0  0  0  0  0
   43.2268   13.9395   11.1480 O   0  0  0  0  0  0  0  0  0  0  0  0
   44.7374   12.1732   11.8643 C   0  0  2  0  0  0  0  0  0  0  0  0
   44.7937   11.6446   10.5319 O   0  0  0  0  0  0  0  0  0  0  0  0
   44.8752   11.0199   12.8931 C   0  0  2  0  0  0  0  0  0  0  0  0
   44.8107   11.5443   14.2506 O   0  0  0  0  0  0  0  0  0  0  0  0
   46.2322   10.3202   12.7022 C   0  0  0  0  0  0  0  0  0  0  0  0
   47.2930   11.1947   13.1282 O   0  0  0  0  0  0  0  0  0  0  0  0
  1  2  1  1  0  0  0
  1  3  1  0  0  0  0
  1  4  2  0  0  0  0
  1 16  1  0  0  0  0
  5  6  1  6  0  0  0
  5  7  1  0  0  0  0
  5 14  1  0  0  0  0
  7  8  1  1  0  0  0
  7  9  1  0  0  0  0
  9 10  1  6  0  0  0
  9 11  1  0  0  0  0
 11 12  1  6  0  0  0
 11 13  1  0  0  0  0
 13 14  1  0  0  0  0
 13 15  1  1  0  0  0
 15 16  1  0  0  0  0
M  CHG  1   3  -1
M  END
>  <CHROM.1>
70.07012313,-147.86680336,-56.99231150,45.69989213,11.73164164,12.62437645
-0.01552975,-0.37863008,2.00147708

>  <Name>
ligand

>  <RI>
0

>  <Rbt.Current_Directory>
/home/itssahil/PROJECTS/Mol_Feturizer/New_Systems/rnas/3B4B

>  <Rbt.Executable>
rbdock ($Id: //depot/dev/client3/rdock/2013.1/src/exe/rbdock.cxx#4 $)

>  <Rbt.Library>
libRbt.so (2013.1, Build901 2013/11/27)

>  <Rbt.Parameter_File>
/export/apps/rDock/src/rDock_2013.1_src/data/scripts/dock_solv.prm

>  <Rbt.Receptor>
prm/pocket_docking_3.prm

>  <SCORE>
-7.26253

>  <SCORE.INTER>
-8.21429

>  <SCORE.INTER.CONST>
1

>  <SCORE.INTER.POLAR>
-0.896147

>  <SCORE.INTER.ROT>
3

>  <SCORE.INTER.SOLV>
18.5949

>  <SCORE.INTER.VDW>
-14.2873

>  <SCORE.INTER.norm>
-0.513393

>  <SCORE.INTRA>
0.951755

>  <SCORE.INTRA.DIHEDRAL>
2.15876

>  <SCORE.INTRA.DIHEDRAL.0>
2.21864

>  <SCORE.INTRA.POLAR>
0

>  <SCORE.INTRA.POLAR.0>
0

>  <SCORE.INTRA.REPUL>
0

>  <SCORE.INTRA.REPUL.0>
0

>  <SCORE.INTRA.SOLV>
0.414443

>  <SCORE.INTRA.SOLV.lig_0>
-58.5963

>  <SCORE.INTRA.VDW>
-0.334844

>  <SCORE.INTRA.VDW.0>
-0.437849

>  <SCORE.INTRA.norm>
0.0594847

>  <SCORE.RESTR>
0

>  <SCORE.RESTR.CAVITY>
0

>  <SCORE.RESTR.norm>
0

>  <SCORE.SYSTEM>
0

>  <SCORE.SYSTEM.CONST>
0

>  <SCORE.SYSTEM.DIHEDRAL>
0

>  <SCORE.SYSTEM.SOLV>
0

>  <SCORE.SYSTEM.norm>
0

>  <SCORE.heavy>
16

>  <SCORE.norm>
-0.453908

>  <RMSD>
1.926

$$$$
ligand
 OpenBabel11021811463D
libRbt.so/2013.1/901 2013/11/27
 16 16  0  0  0  0  0  0  0  0999 V2000
   48.1352   10.9747   10.1430 P   0  0  2  0  0  0  0  0  0  0  0  0
   47.5042   11.0035    8.8006 O   0  0  0  0  0  0  0  0  0  0  0  0
   49.3673   12.0088   10.2036 O   0  5  0  0  0  0  0  0  0  0  0  0
   48.6983    9.4839   10.4338 O   0  0  0  0  0  0  0  0  0  0  0  0
   43.9779   11.9018   14.0709 C   0  0  2  0  0  0  0  0  0  0  0  0
   42.9482   10.9074   14.1729 O   0  0  0  0  0  0  0  0  0  0  0  0
   43.4579   13.1938   13.3794 C   0  0  2  0  0  0  0  0  0  0  0  0
   42.3069   13.7368   14.1341 N   0  0  0  0  0  0  0  0  0  0  0  0
   43.0299   12.8429   11.9388 C   0  0  1  0  0  0  0  0  0  0  0  0
   42.5600   14.0205   11.2592 O   0  0  0  0  0  0  0  0  0  0  0  0
   44.2526   12.2749   11.2035 C   0  0  2  0  0  0  0  0  0  0  0  0
   43.8840   11.9235    9.8624 O   0  0  0  0  0  0  0  0  0  0  0  0
   44.7366   11.0115   11.9631 C   0  0  2  0  0  0  0  0  0  0  0  0
   45.1056   11.3551   13.3298 O   0  0  0  0  0  0  0  0  0  0  0  0
   45.9710   10.4271   11.2546 C   0  0  0  0  0  0  0  0  0  0  0  0
   47.0291   11.4026   11.2401 O   0  0  0  0  0  0  0  0  0  0  0  0
  1  2  1  6  0  0  0
  1  3  1  0  0  0  0
  1  4  2  0  0  0  0
  1 16  1  0  0  0  0
  5  6  1  6  0  0  0
  5  7  1  0  0  0  0
  5 14  1  0  0  0  0
  7  8  1  1  0  0  0
  7  9  1  0  0  0  0
  9 10  1  6  0  0  0
  9 11  1  0  0  0  0
 11 12  1  6  0  0  0
 11 13  1  0  0  0  0
 13 14  1  0  0  0  0
 13 15  1  6  0  0  0
 15 16  1  0  0  0  0
M  CHG  1   3  -1
M  END
>  <CHROM.1>
60.26904067,-163.31762242,63.75762415,45.45363643,11.69908465,11.55586033
0.32977707,0.50415506,-1.16324791

>  <Name>
ligand

>  <RI>
0

>  <Rbt.Current_Directory>
/home/itssahil/PROJECTS/Mol_Feturizer/New_Systems/rnas/3B4B

>  <Rbt.Executable>
rbdock ($Id: //depot/dev/client3/rdock/2013.1/src/exe/rbdock.cxx#4 $)

>  <Rbt.Library>
libRbt.so (2013.1, Build901 2013/11/27)

>  <Rbt.Parameter_File>
/export/apps/rDock/src/rDock_2013.1_src/data/scripts/dock_solv.prm

>  <Rbt.Receptor>
prm/pocket_docking_8.prm

>  <SCORE>
-7.67664

>  <SCORE.INTER>
-6.51936

>  <SCORE.INTER.CONST>
1

>  <SCORE.INTER.POLAR>
-1.125

>  <SCORE.INTER.ROT>
3

>  <SCORE.INTER.SOLV>
14.8665

>  <SCORE.INTER.VDW>
-11.1517

>  <SCORE.INTER.norm>
-0.40746

>  <SCORE.INTRA>
-1.15729

>  <SCORE.INTRA.DIHEDRAL>
-0.905344

>  <SCORE.INTRA.DIHEDRAL.0>
2.21864

>  <SCORE.INTRA.POLAR>
0

>  <SCORE.INTRA.POLAR.0>
0

>  <SCORE.INTRA.REPUL>
0

>  <SCORE.INTRA.REPUL.0>
0

>  <SCORE.INTRA.SOLV>
-0.816782

>  <SCORE.INTRA.SOLV.lig_0>
-58.5963

>  <SCORE.INTRA.VDW>
-0.296224

>  <SCORE.INTRA.VDW.0>
-0.437849

>  <SCORE.INTRA.norm>
-0.0723304

>  <SCORE.RESTR>
0

>  <SCORE.RESTR.CAVITY>
0

>  <SCORE.RESTR.norm>
0

>  <SCORE.SYSTEM>
0

>  <SCORE.SYSTEM.CONST>
0

>  <SCORE.SYSTEM.DIHEDRAL>
0

>  <SCORE.SYSTEM.SOLV>
0

>  <SCORE.SYSTEM.norm>
0

>  <SCORE.heavy>
16

>  <SCORE.norm>
-0.47979

>  <RMSD>
2.208

$$$$
ligand
 OpenBabel11021811463D
libRbt.so/2013.1/901 2013/11/27
 16 16  0  0  0  0  0  0  0  0999 V2000
   47.9214   10.4771   10.1590 P   0  0  2  0  0  0  0  0  0  0  0  0
   47.6540    9.1075    9.6552 O   0  0  0  0  0  0  0  0  0  0  0  0
   47.8913   11.5347    8.9459 O   0  5  0  0  0  0  0  0  0  0  0  0
   49.3908   10.5154   10.8400 O   0  0  0  0  0  0  0  0  0  0  0  0
   43.5945   10.7954   13.8916 C   0  0  2  0  0  0  0  0  0  0  0  0
   42.3125   10.3334   13.4413 O   0  0  0  0  0  0  0  0  0  0  0  0
   43.6015   12.3344   14.1134 C   0  0  2  0  0  0  0  0  0  0  0  0
   42.5598   12.7031   15.0973 N   0  0  0  0  0  0  0  0  0  0  0  0
   43.3247   13.0277   12.7626 C   0  0  1  0  0  0  0  0  0  0  0  0
   43.3429   14.4569   12.9247 O   0  0  0  0  0  0  0  0  0  0  0  0
   44.4234   12.6052   11.7763 C   0  0  2  0  0  0  0  0  0  0  0  0
   44.1864   13.2219   10.5029 O   0  0  0  0  0  0  0  0  0  0  0  0
   44.3801   11.0613   11.6281 C   0  0  2  0  0  0  0  0  0  0  0  0
   44.6110   10.4241   12.9176 O   0  0  0  0  0  0  0  0  0  0  0  0
   45.4806   10.6074   10.6533 C   0  0  0  0  0  0  0  0  0  0  0  0
   46.7745   10.8643   11.2289 O   0  0  0  0  0  0  0  0  0  0  0  0
  1  2  1  6  0  0  0
  1  3  1  0  0  0  0
  1  4  2  0  0  0  0
  1 16  1  0  0  0  0
  5  6  1  6  0  0  0
  5  7  1  0  0  0  0
  5 14  1  0  0  0  0
  7  8  1  1  0  0  0
  7  9  1  0  0  0  0
  9 10  1  1  0  0  0
  9 11  1  0  0  0  0
 11 12  1  6  0  0  0
 11 13  1  0  0  0  0
 13 14  1  0  0  0  0
 13 15  1  6  0  0  0
 15 16  1  0  0  0  0
M  CHG  1   3  -1
M  END
>  <CHROM.1>
66.52709505,-176.21791282,-50.60582000,45.34815175,11.41367473,11.73459024
0.04713364,-0.68447434,2.71932760

>  <Name>
ligand

>  <RI>
0

>  <Rbt.Current_Directory>
/home/itssahil/PROJECTS/Mol_Feturizer/New_Systems/rnas/3B4B

>  <Rbt.Executable>
rbdock ($Id: //depot/dev/client3/rdock/2013.1/src/exe/rbdock.cxx#4 $)

>  <Rbt.Library>
libRbt.so (2013.1, Build901 2013/11/27)

>  <Rbt.Parameter_File>
/export/apps/rDock/src/rDock_2013.1_src/data/scripts/dock_solv.prm

>  <Rbt.Receptor>
prm/pocket_docking_8.prm

>  <SCORE>
-7.44987

>  <SCORE.INTER>
-6.0308

>  <SCORE.INTER.CONST>
1

>  <SCORE.INTER.POLAR>
-1.12298

>  <SCORE.INTER.ROT>
3

>  <SCORE.INTER.SOLV>
18.534

>  <SCORE.INTER.VDW>
-12.0553

>  <SCORE.INTER.norm>
-0.376925

>  <SCORE.INTRA>
-1.41906

>  <SCORE.INTRA.DIHEDRAL>
-1.84931

>  <SCORE.INTRA.DIHEDRAL.0>
2.21864

>  <SCORE.INTRA.POLAR>
0

>  <SCORE.INTRA.POLAR.0>
0

>  <SCORE.INTRA.REPUL>
0

>  <SCORE.INTRA.REPUL.0>
0

>  <SCORE.INTRA.SOLV>
-0.913884

>  <SCORE.INTRA.SOLV.lig_0>
-58.5963

>  <SCORE.INTRA.VDW>
-0.0374686

>  <SCORE.INTRA.VDW.0>
-0.437849

>  <SCORE.INTRA.norm>
-0.0886914

>  <SCORE.RESTR>
0

>  <SCORE.RESTR.CAVITY>
0

>  <SCORE.RESTR.norm>
0

>  <SCORE.SYSTEM>
0

>  <SCORE.SYSTEM.CONST>
0

>  <SCORE.SYSTEM.DIHEDRAL>
0

>  <SCORE.SYSTEM.SOLV>
0

>  <SCORE.SYSTEM.norm>
0

>  <SCORE.heavy>
16

>  <SCORE.norm>
-0.465617

>  <RMSD>
2.384

$$$$
ligand
 OpenBabel11021811463D
libRbt.so/2013.1/901 2013/11/27
 16 16  0  0  0  0  0  0  0  0999 V2000
   47.2887    9.8353   10.1000 P   0  0  2  0  0  0  0  0  0  0  0  0
   45.9820    9.3057   10.5617 O   0  0  0  0  0  0  0  0  0  0  0  0
   47.4436    9.6332    8.5106 O   0  5  0  0  0  0  0  0  0  0  0  0
   48.4815    9.0277   10.8412 O   0  0  0  0  0  0  0  0  0  0  0  0
   44.6820   10.9265   14.4410 C   0  0  2  0  0  0  0  0  0  0  0  0
   44.2133    9.6550   13.9685 O   0  0  0  0  0  0  0  0  0  0  0  0
   43.6850   12.0680   14.0937 C   0  0  2  0  0  0  0  0  0  0  0  0
   42.3596   11.7706   14.6804 N   0  0  0  0  0  0  0  0  0  0  0  0
   43.5736   12.1742   12.5581 C   0  0  1  0  0  0  0  0  0  0  0  0
   42.6722   13.2356   12.1974 O   0  0  0  0  0  0  0  0  0  0  0  0
   44.9725   12.4714   11.9985 C   0  0  2  0  0  0  0  0  0  0  0  0
   44.9067   12.5614   10.5683 O   0  0  0  0  0  0  0  0  0  0  0  0
   45.9195   11.3128   12.4086 C   0  0  2  0  0  0  0  0  0  0  0  0
   45.9873   11.2063   13.8599 O   0  0  0  0  0  0  0  0  0  0  0  0
   47.3342   11.5904   11.8712 C   0  0  0  0  0  0  0  0  0  0  0  0
   47.3540   11.4127   10.4430 O   0  0  0  0  0  0  0  0  0  0  0  0
  1  2  1  1  0  0  0
  1  3  1  0  0  0  0
  1  4  2  0  0  0  0
  1 16  1  0  0  0  0
  5  6  1  6  0  0  0
  5  7  1  0  0  0  0
  5 14  1  0  0  0  0
  7  8  1  1  0  0  0
  7  9  1  0  0  0  0
  9 10  1  1  0  0  0
  9 11  1  0  0  0  0
 11 12  1  6  0  0  0
 11 13  1  0  0  0  0
 13 14  1  0  0  0  0
 13 15  1  1  0  0  0
 15 16  1  0  0  0  0
M  CHG  1   3  -1
M  END
>  <CHROM.1>
-71.99443062,-73.61804525,64.72615918,45.59927968,11.01216193,11.87188513
-0.39913385,-0.72464668,2.06659112

>  <Name>
ligand

>  <RI>
0

>  <Rbt.Current_Directory>
/home/itssahil/PROJECTS/Mol_Feturizer/New_Systems/rnas/3B4B

>  <Rbt.Executable>
rbdock ($Id: //depot/dev/client3/rdock/2013.1/src/exe/rbdock.cxx#4 $)

>  <Rbt.Library>
libRbt.so (2013.1, Build901 2013/11/27)

>  <Rbt.Parameter_File>
/export/apps/rDock/src/rDock_2013.1_src/data/scripts/dock_solv.prm

>  <Rbt.Receptor>
prm/pocket_docking_6.prm

>  <SCORE>
-8.60378

>  <SCORE.INTER>
-8.56723

>  <SCORE.INTER.CONST>
1

>  <SCORE.INTER.POLAR>
-1.125

>  <SCORE.INTER.ROT>
3

>  <SCORE.INTER.SOLV>
18.9029

>  <SCORE.INTER.VDW>
-13.8625

>  <SCORE.INTER.norm>
-0.535452

>  <SCORE.INTRA>
-0.0365523

>  <SCORE.INTRA.DIHEDRAL>
-0.801142

>  <SCORE.INTRA.DIHEDRAL.0>
2.21864

>  <SCORE.INTRA.POLAR>
0

>  <SCORE.INTRA.POLAR.0>
0

>  <SCORE.INTRA.REPUL>
0

>  <SCORE.INTRA.REPUL.0>
0

>  <SCORE.INTRA.SOLV>
0.566011

>  <SCORE.INTRA.SOLV.lig_0>
-58.5963

>  <SCORE.INTRA.VDW>
0.0810133

>  <SCORE.INTRA.VDW.0>
-0.437849

>  <SCORE.INTRA.norm>
-0.00228452

>  <SCORE.RESTR>
0

>  <SCORE.RESTR.CAVITY>
0

>  <SCORE.RESTR.norm>
0

>  <SCORE.SYSTEM>
0

>  <SCORE.SYSTEM.CONST>
0

>  <SCORE.SYSTEM.DIHEDRAL>
0

>  <SCORE.SYSTEM.SOLV>
0

>  <SCORE.SYSTEM.norm>
0

>  <SCORE.heavy>
16

>  <SCORE.norm>
-0.537736

>  <RMSD>
2.470

$$$$
ligand
 OpenBabel11021811463D
libRbt.so/2013.1/901 2013/11/27
 16 16  0  0  0  0  0  0  0  0999 V2000
   47.7820    9.7801    9.4672 P   0  0  2  0  0  0  0  0  0  0  0  0
   47.4935    9.2731    8.1031 O   0  0  0  0  0  0  0  0  0  0  0  0
   48.7093   11.0935    9.3908 O   0  5  0  0  0  0  0  0  0  0  0  0
   48.5722    8.6388   10.3023 O   0  0  0  0  0  0  0  0  0  0  0  0
   44.0743   10.5418   14.3849 C   0  0  2  0  0  0  0  0  0  0  0  0
   42.9550    9.8860   13.7710 O   0  0  0  0  0  0  0  0  0  0  0  0
   43.8957   12.0864   14.3960 C   0  0  2  0  0  0  0  0  0  0  0  0
   42.6502   12.4411   15.1115 N   0  0  0  0  0  0  0  0  0  0  0  0
   43.8297   12.5849   12.9369 C   0  0  1  0  0  0  0  0  0  0  0  0
   43.6840   14.0156   12.9066 O   0  0  0  0  0  0  0  0  0  0  0  0
   45.1362   12.1834   12.2368 C   0  0  2  0  0  0  0  0  0  0  0  0
   45.1008   12.6197   10.8706 O   0  0  0  0  0  0  0  0  0  0  0  0
   45.2653   10.6381   12.2913 C   0  0  2  0  0  0  0  0  0  0  0  0
   45.2935   10.1827   13.6747 O   0  0  0  0  0  0  0  0  0  0  0  0
   46.5742   10.2071   11.6069 C   0  0  0  0  0  0  0  0  0  0  0  0
   46.3831   10.1591   10.1812 O   0  0  0  0  0  0  0  0  0  0  0  0
  1  2  1  6  0  0  0
  1  3  1  0  0  0  0
  1  4  2  0  0  0  0
  1 16  1  0  0  0  0
  5  6  1  6  0  0  0
  5  7  1  0  0  0  0
  5 14  1  0  0  0  0
  7  8  1  1  0  0  0
  7  9  1  0  0  0  0
  9 10  1  1  0  0  0
  9 11  1  0  0  0  0
 11 12  1  6  0  0  0
 11 13  1  0  0  0  0
 13 14  1  0  0  0  0
 13 15  1  1  0  0  0
 15 16  1  0  0  0  0
M  CHG  1   3  -1
M  END
>  <CHROM.1>
-81.88909413,177.11085776,160.39366718,45.67416802,10.90751320,11.73082834
-0.00191750,-0.86112299,2.68140041

>  <Name>
ligand

>  <RI>
0

>  <Rbt.Current_Directory>
/home/itssahil/PROJECTS/Mol_Feturizer/New_Systems/rnas/3B4B

>  <Rbt.Executable>
rbdock ($Id: //depot/dev/client3/rdock/2013.1/src/exe/rbdock.cxx#4 $)

>  <Rbt.Library>
libRbt.so (2013.1, Build901 2013/11/27)

>  <Rbt.Parameter_File>
/export/apps/rDock/src/rDock_2013.1_src/data/scripts/dock_solv.prm

>  <Rbt.Receptor>
prm/pocket_docking_7.prm

>  <SCORE>
-9.10211

>  <SCORE.INTER>
-8.79504

>  <SCORE.INTER.CONST>
1

>  <SCORE.INTER.POLAR>
-1.125

>  <SCORE.INTER.ROT>
3

>  <SCORE.INTER.SOLV>
20.2765

>  <SCORE.INTER.VDW>
-14.4722

>  <SCORE.INTER.norm>
-0.54969

>  <SCORE.INTRA>
-0.307064

>  <SCORE.INTRA.DIHEDRAL>
-0.0536109

>  <SCORE.INTRA.DIHEDRAL.0>
2.21864

>  <SCORE.INTRA.POLAR>
0

>  <SCORE.INTRA.POLAR.0>
0

>  <SCORE.INTRA.REPUL>
0

>  <SCORE.INTRA.REPUL.0>
0

>  <SCORE.INTRA.SOLV>
-0.0676407

>  <SCORE.INTRA.SOLV.lig_0>
-58.5963

>  <SCORE.INTRA.VDW>
-0.246438

>  <SCORE.INTRA.VDW.0>
-0.437849

>  <SCORE.INTRA.norm>
-0.0191915

>  <SCORE.RESTR>
0

>  <SCORE.RESTR.CAVITY>
0

>  <SCORE.RESTR.norm>
0

>  <SCORE.SYSTEM>
0

>  <SCORE.SYSTEM.CONST>
0

>  <SCORE.SYSTEM.DIHEDRAL>
0

>  <SCORE.SYSTEM.SOLV>
0

>  <SCORE.SYSTEM.norm>
0

>  <SCORE.heavy>
16

>  <SCORE.norm>
-0.568882

>  <RMSD>
2.476

$$$$
ligand
 OpenBabel11021811463D
libRbt.so/2013.1/901 2013/11/27
 16 16  0  0  0  0  0  0  0  0999 V2000
   47.7672    9.6187    9.6011 P   0  0  2  0  0  0  0  0  0  0  0  0
   48.5416   10.8764    9.4612 O   0  0  0  0  0  0  0  0  0  0  0  0
   48.7520    8.3903    9.9362 O   0  5  0  0  0  0  0  0  0  0  0  0
   47.0071    9.3044    8.2055 O   0  0  0  0  0  0  0  0  0  0  0  0
   44.4576   11.0620   14.0614 C   0  0  2  0  0  0  0  0  0  0  0  0
   43.5412    9.9675   13.9137 O   0  0  0  0  0  0  0  0  0  0  0  0
   43.7241   12.4321   14.0111 C   0  0  2  0  0  0  0  0  0  0  0  0
   42.6967   12.4891   15.0742 N   0  0  0  0  0  0  0  0  0  0  0  0
   43.0626   12.5857   12.6252 C   0  0  1  0  0  0  0  0  0  0  0  0
   42.3889   13.8534   12.5339 O   0  0  0  0  0  0  0  0  0  0  0  0
   44.1658   12.5087   11.5596 C   0  0  2  0  0  0  0  0  0  0  0  0
   43.5811   12.6331   10.2556 O   0  0  0  0  0  0  0  0  0  0  0  0
   44.8746   11.1345   11.6882 C   0  0  2  0  0  0  0  0  0  0  0  0
   45.4650   10.9933   13.0125 O   0  0  0  0  0  0  0  0  0  0  0  0
   45.9955   11.0340   10.6389 C   0  0  0  0  0  0  0  0  0  0  0  0
   46.7113    9.7972   10.8108 O   0  0  0  0  0  0  0  0  0  0  0  0
  1  2  1  6  0  0  0
  1  3  1  0  0  0  0
  1  4  2  0  0  0  0
  1 16  1  0  0  0  0
  5  6  1  6  0  0  0
  5  7  1  0  0  0  0
  5 14  1  0  0  0  0
  7  8  1  1  0  0  0
  7  9  1  0  0  0  0
  9 10  1  1  0  0  0
  9 11  1  0  0  0  0
 11 12  1  6  0  0  0
 11 13  1  0  0  0  0
 13 14  1  0  0  0  0
 13 15  1  6  0  0  0
 15 16  1  0  0  0  0
M  CHG  1   3  -1
M  END
>  <CHROM.1>
176.32262977,173.32104231,49.14549286,45.40394614,11.02018356,11.50456781
-0.36353064,-0.73656161,2.00806907

>  <Name>
ligand

>  <RI>
0

>  <Rbt.Current_Directory>
/home/itssahil/PROJECTS/Mol_Feturizer/New_Systems/rnas/3B4B

>  <Rbt.Executable>
rbdock ($Id: //depot/dev/client3/rdock/2013.1/src/exe/rbdock.cxx#4 $)

>  <Rbt.Library>
libRbt.so (2013.1, Build901 2013/11/27)

>  <Rbt.Parameter_File>
/export/apps/rDock/src/rDock_2013.1_src/data/scripts/dock_solv.prm

>  <Rbt.Receptor>
prm/pocket_docking_6.prm

>  <SCORE>
-8.01037

>  <SCORE.INTER>
-6.6221

>  <SCORE.INTER.CONST>
1

>  <SCORE.INTER.POLAR>
-1.125

>  <SCORE.INTER.ROT>
3

>  <SCORE.INTER.SOLV>
21.4325

>  <SCORE.INTER.VDW>
-13.4089

>  <SCORE.INTER.norm>
-0.413881

>  <SCORE.INTRA>
-1.38828

>  <SCORE.INTRA.DIHEDRAL>
-1.76629

>  <SCORE.INTRA.DIHEDRAL.0>
2.21864

>  <SCORE.INTRA.POLAR>
0

>  <SCORE.INTRA.POLAR.0>
0

>  <SCORE.INTRA.REPUL>
0

>  <SCORE.INTRA.REPUL.0>
0

>  <SCORE.INTRA.SOLV>
-1.26149

>  <SCORE.INTRA.SOLV.lig_0>
-58.5963

>  <SCORE.INTRA.VDW>
0.125615

>  <SCORE.INTRA.VDW.0>
-0.437849

>  <SCORE.INTRA.norm>
-0.0867673

>  <SCORE.RESTR>
0

>  <SCORE.RESTR.CAVITY>
0

>  <SCORE.RESTR.norm>
0

>  <SCORE.SYSTEM>
0

>  <SCORE.SYSTEM.CONST>
0

>  <SCORE.SYSTEM.DIHEDRAL>
0

>  <SCORE.SYSTEM.SOLV>
0

>  <SCORE.SYSTEM.norm>
0

>  <SCORE.heavy>
16

>  <SCORE.norm>
-0.500648

>  <RMSD>
2.493

$$$$
ligand
 OpenBabel11021811463D
libRbt.so/2013.1/901 2013/11/27
 16 16  0  0  0  0  0  0  0  0999 V2000
   47.6156   10.1516    9.9980 P   0  0  2  0  0  0  0  0  0  0  0  0
   47.5290   11.0342    8.8087 O   0  0  0  0  0  0  0  0  0  0  0  0
   49.0974   10.2020   10.6246 O   0  5  0  0  0  0  0  0  0  0  0  0
   47.2955    8.6272    9.5531 O   0  0  0  0  0  0  0  0  0  0  0  0
   43.5445   10.7010   13.9423 C   0  0  2  0  0  0  0  0  0  0  0  0
   42.2186   10.3037   13.5630 O   0  0  0  0  0  0  0  0  0  0  0  0
   43.6318   12.2328   14.1944 C   0  0  2  0  0  0  0  0  0  0  0  0
   42.6690   12.6223   15.2482 N   0  0  0  0  0  0  0  0  0  0  0  0
   43.3034   12.9680   12.8778 C   0  0  1  0  0  0  0  0  0  0  0  0
   43.3934   14.3910   13.0674 O   0  0  0  0  0  0  0  0  0  0  0  0
   44.3205   12.5224   11.8169 C   0  0  2  0  0  0  0  0  0  0  0  0
   44.0332   13.1776   10.5735 O   0  0  0  0  0  0  0  0  0  0  0  0
   44.2013   10.9855   11.6404 C   0  0  2  0  0  0  0  0  0  0  0  0
   44.4826   10.3097   12.8998 O   0  0  0  0  0  0  0  0  0  0  0  0
   45.2195   10.5082   10.5902 C   0  0  0  0  0  0  0  0  0  0  0  0
   46.5553   10.6701   11.1012 O   0  0  0  0  0  0  0  0  0  0  0  0
  1  2  1  6  0  0  0
  1  3  1  0  0  0  0
  1  4  2  0  0  0  0
  1 16  1  0  0  0  0
  5  6  1  6  0  0  0
  5  7  1  0  0  0  0
  5 14  1  0  0  0  0
  7  8  1  1  0  0  0
  7  9  1  0  0  0  0
  9 10  1  1  0  0  0
  9 11  1  0  0  0  0
 11 12  1  6  0  0  0
 11 13  1  0  0  0  0
 13 14  1  0  0  0  0
 13 15  1  6  0  0  0
 15 16  1  0  0  0  0
M  CHG  1   3  -1
M  END
>  <CHROM.1>
67.77180737,179.39590872,65.07802817,45.18654653,11.23167003,11.71833793
0.10557244,-0.76001041,2.75622794

>  <Name>
ligand

>  <RI>
0

>  <Rbt.Current_Directory>
/home/itssahil/PROJECTS/Mol_Feturizer/New_Systems/rnas/3B4B

>  <Rbt.Executable>
rbdock ($Id: //depot/dev/client3/rdock/2013.1/src/exe/rbdock.cxx#4 $)

>  <Rbt.Library>
libRbt.so (2013.1, Build901 2013/11/27)

>  <Rbt.Parameter_File>
/export/apps/rDock/src/rDock_2013.1_src/data/scripts/dock_solv.prm

>  <Rbt.Receptor>
prm/pocket_docking_5.prm

>  <SCORE>
-8.07355

>  <SCORE.INTER>
-6.40755

>  <SCORE.INTER.CONST>
1

>  <SCORE.INTER.POLAR>
-1.12478

>  <SCORE.INTER.ROT>
3

>  <SCORE.INTER.SOLV>
19.8006

>  <SCORE.INTER.VDW>
-12.7227

>  <SCORE.INTER.norm>
-0.400472

>  <SCORE.INTRA>
-1.666

>  <SCORE.INTRA.DIHEDRAL>
-1.95605

>  <SCORE.INTRA.DIHEDRAL.0>
2.21864

>  <SCORE.INTRA.POLAR>
0

>  <SCORE.INTRA.POLAR.0>
0

>  <SCORE.INTRA.REPUL>
0

>  <SCORE.INTRA.REPUL.0>
0

>  <SCORE.INTRA.SOLV>
-0.892928

>  <SCORE.INTRA.SOLV.lig_0>
-58.5963

>  <SCORE.INTRA.VDW>
-0.241511

>  <SCORE.INTRA.VDW.0>
-0.437849

>  <SCORE.INTRA.norm>
-0.104125

>  <SCORE.RESTR>
0

>  <SCORE.RESTR.CAVITY>
0

>  <SCORE.RESTR.norm>
0

>  <SCORE.SYSTEM>
0

>  <SCORE.SYSTEM.CONST>
0

>  <SCORE.SYSTEM.DIHEDRAL>
0

>  <SCORE.SYSTEM.SOLV>
0

>  <SCORE.SYSTEM.norm>
0

>  <SCORE.heavy>
16

>  <SCORE.norm>
-0.504597

>  <RMSD>
2.507

$$$$
ligand
 OpenBabel11021811463D
libRbt.so/2013.1/901 2013/11/27
 16 16  0  0  0  0  0  0  0  0999 V2000
   48.7274   11.6363   11.2516 P   0  0  2  0  0  0  0  0  0  0  0  0
   48.0368   12.8218   11.8159 O   0  0  0  0  0  0  0  0  0  0  0  0
   50.2495   11.5758   11.7720 O   0  5  0  0  0  0  0  0  0  0  0  0
   48.7390   11.7471    9.6355 O   0  0  0  0  0  0  0  0  0  0  0  0
   43.4899   12.1702   12.0654 C   0  0  2  0  0  0  0  0  0  0  0  0
   44.0044   13.5098   12.0458 O   0  0  0  0  0  0  0  0  0  0  0  0
   43.2798   11.6600   13.5191 C   0  0  2  0  0  0  0  0  0  0  0  0
   42.3558   12.5645   14.2383 N   0  0  0  0  0  0  0  0  0  0  0  0
   44.6487   11.6244   14.2309 C   0  0  1  0  0  0  0  0  0  0  0  0
   44.4969   11.1376   15.5760 O   0  0  0  0  0  0  0  0  0  0  0  0
   45.5717   10.6843   13.4419 C   0  0  2  0  0  0  0  0  0  0  0  0
   46.8606   10.6405   14.0702 O   0  0  0  0  0  0  0  0  0  0  0  0
   45.7101   11.2337   11.9975 C   0  0  2  0  0  0  0  0  0  0  0  0
   44.4053   11.2909   11.3523 O   0  0  0  0  0  0  0  0  0  0  0  0
   46.6213   10.3029   11.1785 C   0  0  0  0  0  0  0  0  0  0  0  0
   47.9475   10.3075   11.7376 O   0  0  0  0  0  0  0  0  0  0  0  0
  1  2  1  1  0  0  0
  1  3  1  0  0  0  0
  1  4  2  0  0  0  0
  1 16  1  0  0  0  0
  5  6  1  1  0  0  0
  5  7  1  0  0  0  0
  5 14  1  0  0  0  0
  7  8  1  1  0  0  0
  7  9  1  0  0  0  0
  9 10  1  1  0  0  0
  9 11  1  0  0  0  0
 11 12  1  1  0  0  0
 11 13  1  0  0  0  0
 13 14  1  0  0  0  0
 13 15  1  6  0  0  0
 15 16  1  0  0  0  0
M  CHG  1   3  -1
M  END
>  <CHROM.1>
-63.86712883,-79.42828218,64.59852193,46.21797920,11.56812981,12.38533724
0.39526526,0.23548308,-1.22438547

>  <Name>
ligand

>  <RI>
0

>  <Rbt.Current_Directory>
/home/itssahil/PROJECTS/Mol_Feturizer/New_Systems/rnas/3B4B

>  <Rbt.Executable>
rbdock ($Id: //depot/dev/client3/rdock/2013.1/src/exe/rbdock.cxx#4 $)

>  <Rbt.Library>
libRbt.so (2013.1, Build901 2013/11/27)

>  <Rbt.Parameter_File>
/export/apps/rDock/src/rDock_2013.1_src/data/scripts/dock_solv.prm

>  <Rbt.Receptor>
prm/pocket_docking_2.prm

>  <SCORE>
-3.57245

>  <SCORE.INTER>
-3.63287

>  <SCORE.INTER.CONST>
1

>  <SCORE.INTER.POLAR>
0

>  <SCORE.INTER.ROT>
3

>  <SCORE.INTER.SOLV>
14.7927

>  <SCORE.INTER.VDW>
-12.9528

>  <SCORE.INTER.norm>
-0.227054

>  <SCORE.INTRA>
0.0506688

>  <SCORE.INTRA.DIHEDRAL>
-0.421319

>  <SCORE.INTRA.DIHEDRAL.0>
2.21864

>  <SCORE.INTRA.POLAR>
0

>  <SCORE.INTRA.POLAR.0>
0

>  <SCORE.INTRA.REPUL>
0

>  <SCORE.INTRA.REPUL.0>
0

>  <SCORE.INTRA.SOLV>
0.599365

>  <SCORE.INTRA.SOLV.lig_0>
-58.5963

>  <SCORE.INTRA.VDW>
-0.0383543

>  <SCORE.INTRA.VDW.0>
-0.437849

>  <SCORE.INTRA.norm>
0.0031668

>  <SCORE.RESTR>
0.0097538

>  <SCORE.RESTR.CAVITY>
0.0097538

>  <SCORE.RESTR.norm>
0.000609612

>  <SCORE.SYSTEM>
0

>  <SCORE.SYSTEM.CONST>
0

>  <SCORE.SYSTEM.DIHEDRAL>
0

>  <SCORE.SYSTEM.SOLV>
0

>  <SCORE.SYSTEM.norm>
0

>  <SCORE.heavy>
16

>  <SCORE.norm>
-0.223278

>  <RMSD>
2.512

$$$$
ligand
 OpenBabel11021811463D
libRbt.so/2013.1/901 2013/11/27
 16 16  0  0  0  0  0  0  0  0999 V2000
   47.5530    9.4232    9.2705 P   0  0  2  0  0  0  0  0  0  0  0  0
   48.0409   10.7847    8.9397 O   0  0  0  0  0  0  0  0  0  0  0  0
   48.7223    8.5646    9.9680 O   0  5  0  0  0  0  0  0  0  0  0  0
   47.1059    8.6727    7.9062 O   0  0  0  0  0  0  0  0  0  0  0  0
   44.9418   11.2560   14.6136 C   0  0  2  0  0  0  0  0  0  0  0  0
   44.2967   10.0112   14.9199 O   0  0  0  0  0  0  0  0  0  0  0  0
   43.9400   12.2891   14.0249 C   0  0  2  0  0  0  0  0  0  0  0  0
   42.8355   12.5171   14.9827 N   0  0  0  0  0  0  0  0  0  0  0  0
   43.3841   11.7341   12.6965 C   0  0  1  0  0  0  0  0  0  0  0  0
   42.4658   12.6737   12.1108 O   0  0  0  0  0  0  0  0  0  0  0  0
   44.5667   11.5046   11.7441 C   0  0  2  0  0  0  0  0  0  0  0  0
   44.0847   10.9731   10.5019 O   0  0  0  0  0  0  0  0  0  0  0  0
   45.5386   10.4926   12.4063 C   0  0  2  0  0  0  0  0  0  0  0  0
   46.0280   11.0185   13.6736 O   0  0  0  0  0  0  0  0  0  0  0  0
   46.7420   10.2528   11.4780 C   0  0  0  0  0  0  0  0  0  0  0  0
   46.3104    9.5572   10.2943 O   0  0  0  0  0  0  0  0  0  0  0  0
  1  2  1  6  0  0  0
  1  3  1  0  0  0  0
  1  4  2  0  0  0  0
  1 16  1  0  0  0  0
  5  6  1  6  0  0  0
  5  7  1  0  0  0  0
  5 14  1  0  0  0  0
  7  8  1  1  0  0  0
  7  9  1  0  0  0  0
  9 10  1  6  0  0  0
  9 11  1  0  0  0  0
 11 12  1  6  0  0  0
 11 13  1  0  0  0  0
 13 14  1  0  0  0  0
 13 15  1  6  0  0  0
 15 16  1  0  0  0  0
M  CHG  1   3  -1
M  END
>  <CHROM.1>
-67.73185913,175.14765947,-58.76473206,45.60230716,10.60197983,11.59682316
0.79221790,0.55583327,-1.56454648

>  <Name>
ligand

>  <RI>
0

>  <Rbt.Current_Directory>
/home/itssahil/PROJECTS/Mol_Feturizer/New_Systems/rnas/3B4B

>  <Rbt.Executable>
rbdock ($Id: //depot/dev/client3/rdock/2013.1/src/exe/rbdock.cxx#4 $)

>  <Rbt.Library>
libRbt.so (2013.1, Build901 2013/11/27)

>  <Rbt.Parameter_File>
/export/apps/rDock/src/rDock_2013.1_src/data/scripts/dock_solv.prm

>  <Rbt.Receptor>
prm/pocket_docking_6.prm

>  <SCORE>
-9.82395

>  <SCORE.INTER>
-8.54875

>  <SCORE.INTER.CONST>
1

>  <SCORE.INTER.POLAR>
-1.12484

>  <SCORE.INTER.ROT>
3

>  <SCORE.INTER.SOLV>
23.8731

>  <SCORE.INTER.VDW>
-15.5074

>  <SCORE.INTER.norm>
-0.534297

>  <SCORE.INTRA>
-1.2752

>  <SCORE.INTRA.DIHEDRAL>
-1.8874

>  <SCORE.INTRA.DIHEDRAL.0>
2.21864

>  <SCORE.INTRA.POLAR>
0

>  <SCORE.INTRA.POLAR.0>
0

>  <SCORE.INTRA.REPUL>
0

>  <SCORE.INTRA.REPUL.0>
0

>  <SCORE.INTRA.SOLV>
-0.675424

>  <SCORE.INTRA.SOLV.lig_0>
-58.5963

>  <SCORE.INTRA.VDW>
0.00621042

>  <SCORE.INTRA.VDW.0>
-0.437849

>  <SCORE.INTRA.norm>
-0.0797002

>  <SCORE.RESTR>
0

>  <SCORE.RESTR.CAVITY>
0

>  <SCORE.RESTR.norm>
0

>  <SCORE.SYSTEM>
0

>  <SCORE.SYSTEM.CONST>
0

>  <SCORE.SYSTEM.DIHEDRAL>
0

>  <SCORE.SYSTEM.SOLV>
0

>  <SCORE.SYSTEM.norm>
0

>  <SCORE.heavy>
16

>  <SCORE.norm>
-0.613997

>  <RMSD>
2.531

$$$$
ligand
 OpenBabel11021811463D
libRbt.so/2013.1/901 2013/11/27
 16 16  0  0  0  0  0  0  0  0999 V2000
   47.5308    9.3642    9.2905 P   0  0  2  0  0  0  0  0  0  0  0  0
   47.9898   10.7322    8.9455 O   0  0  0  0  0  0  0  0  0  0  0  0
   48.7318    8.5224    9.9539 O   0  5  0  0  0  0  0  0  0  0  0  0
   47.0548    8.6068    7.9400 O   0  0  0  0  0  0  0  0  0  0  0  0
   45.0583   11.1093   14.7274 C   0  0  2  0  0  0  0  0  0  0  0  0
   44.4042    9.8642   15.0126 O   0  0  0  0  0  0  0  0  0  0  0  0
   44.0569   12.1710   14.1909 C   0  0  2  0  0  0  0  0  0  0  0  0
   42.9770   12.3848   15.1794 N   0  0  0  0  0  0  0  0  0  0  0  0
   43.4647   11.6610   12.8601 C   0  0  1  0  0  0  0  0  0  0  0  0
   42.5458   12.6281   12.3221 O   0  0  0  0  0  0  0  0  0  0  0  0
   44.6229   11.4446   11.8752 C   0  0  2  0  0  0  0  0  0  0  0  0
   44.1068   10.9548   10.6296 O   0  0  0  0  0  0  0  0  0  0  0  0
   45.5963   10.4023   12.4864 C   0  0  2  0  0  0  0  0  0  0  0  0
   46.1203   10.8857   13.7568 O   0  0  0  0  0  0  0  0  0  0  0  0
   46.7757   10.1746   11.5249 C   0  0  0  0  0  0  0  0  0  0  0  0
   46.3167    9.4814   10.3500 O   0  0  0  0  0  0  0  0  0  0  0  0
  1  2  1  6  0  0  0
  1  3  1  0  0  0  0
  1  4  2  0  0  0  0
  1 16  1  0  0  0  0
  5  6  1  6  0  0  0
  5  7  1  0  0  0  0
  5 14  1  0  0  0  0
  7  8  1  1  0  0  0
  7  9  1  0  0  0  0
  9 10  1  6  0  0  0
  9 11  1  0  0  0  0
 11 12  1  6  0  0  0
 11 13  1  0  0  0  0
 13 14  1  0  0  0  0
 13 15  1  6  0  0  0
 15 16  1  0  0  0  0
M  CHG  1   3  -1
M  END
>  <CHROM.1>
-69.50755605,174.97512139,-59.20358274,45.64509285,10.52099039,11.68446003
0.81584532,0.57098053,-1.55414917

>  <Name>
ligand

>  <RI>
0

>  <Rbt.Current_Directory>
/home/itssahil/PROJECTS/Mol_Feturizer/New_Systems/rnas/3B4B

>  <Rbt.Executable>
rbdock ($Id: //depot/dev/client3/rdock/2013.1/src/exe/rbdock.cxx#4 $)

>  <Rbt.Library>
libRbt.so (2013.1, Build901 2013/11/27)

>  <Rbt.Parameter_File>
/export/apps/rDock/src/rDock_2013.1_src/data/scripts/dock_solv.prm

>  <Rbt.Receptor>
prm/blind_docking_100.prm

>  <SCORE>
-9.93602

>  <SCORE.INTER>
-8.66202

>  <SCORE.INTER.CONST>
1

>  <SCORE.INTER.POLAR>
-1.125

>  <SCORE.INTER.ROT>
3

>  <SCORE.INTER.SOLV>
24.9068

>  <SCORE.INTER.VDW>
-15.9269

>  <SCORE.INTER.norm>
-0.541376

>  <SCORE.INTRA>
-1.274

>  <SCORE.INTRA.DIHEDRAL>
-1.77391

>  <SCORE.INTRA.DIHEDRAL.0>
2.21864

>  <SCORE.INTRA.POLAR>
0

>  <SCORE.INTRA.POLAR.0>
0

>  <SCORE.INTRA.REPUL>
0

>  <SCORE.INTRA.REPUL.0>
0

>  <SCORE.INTRA.SOLV>
-0.685448

>  <SCORE.INTRA.SOLV.lig_0>
-58.5963

>  <SCORE.INTRA.VDW>
-0.0443151

>  <SCORE.INTRA.VDW.0>
-0.437849

>  <SCORE.INTRA.norm>
-0.0796247

>  <SCORE.RESTR>
0

>  <SCORE.RESTR.CAVITY>
0

>  <SCORE.RESTR.norm>
0

>  <SCORE.SYSTEM>
0

>  <SCORE.SYSTEM.CONST>
0

>  <SCORE.SYSTEM.DIHEDRAL>
0

>  <SCORE.SYSTEM.SOLV>
0

>  <SCORE.SYSTEM.norm>
0

>  <SCORE.heavy>
16

>  <SCORE.norm>
-0.621001

>  <RMSD>
2.551

$$$$
ligand
 OpenBabel11021811463D
libRbt.so/2013.1/901 2013/11/27
 16 16  0  0  0  0  0  0  0  0999 V2000
   47.8122    9.4314    9.3521 P   0  0  2  0  0  0  0  0  0  0  0  0
   48.6549    8.4742   10.1101 O   0  0  0  0  0  0  0  0  0  0  0  0
   47.3832    8.7983    7.9357 O   0  5  0  0  0  0  0  0  0  0  0  0
   48.6604   10.7838    9.0766 O   0  0  0  0  0  0  0  0  0  0  0  0
   44.9179   11.1553   14.5721 C   0  0  2  0  0  0  0  0  0  0  0  0
   44.2434    9.9015   14.7526 O   0  0  0  0  0  0  0  0  0  0  0  0
   43.9593   12.2446   14.0134 C   0  0  2  0  0  0  0  0  0  0  0  0
   42.8109   12.4184   14.9298 N   0  0  0  0  0  0  0  0  0  0  0  0
   43.4645   11.7979   12.6215 C   0  0  1  0  0  0  0  0  0  0  0  0
   42.5881   12.7924   12.0628 O   0  0  0  0  0  0  0  0  0  0  0  0
   44.6907   11.6210   11.7140 C   0  0  2  0  0  0  0  0  0  0  0  0
   44.2656   11.1902   10.4134 O   0  0  0  0  0  0  0  0  0  0  0  0
   45.6160   10.5478   12.3462 C   0  0  2  0  0  0  0  0  0  0  0  0
   46.0472   10.9709   13.6717 O   0  0  0  0  0  0  0  0  0  0  0  0
   46.8616   10.3584   11.4631 C   0  0  0  0  0  0  0  0  0  0  0  0
   46.4842    9.7441   10.2174 O   0  0  0  0  0  0  0  0  0  0  0  0
  1  2  1  1  0  0  0
  1  3  1  0  0  0  0
  1  4  2  0  0  0  0
  1 16  1  0  0  0  0
  5  6  1  6  0  0  0
  5  7  1  0  0  0  0
  5 14  1  0  0  0  0
  7  8  1  1  0  0  0
  7  9  1  0  0  0  0
  9 10  1  6  0  0  0
  9 11  1  0  0  0  0
 11 12  1  6  0  0  0
 11 13  1  0  0  0  0
 13 14  1  0  0  0  0
 13 15  1  6  0  0  0
 15 16  1  0  0  0  0
M  CHG  1   3  -1
M  END
>  <CHROM.1>
-68.42085657,-175.08136740,61.93145096,45.73450760,10.63339090,11.58710546
-0.70985918,-0.58486777,1.66619682

>  <Name>
ligand

>  <RI>
0

>  <Rbt.Current_Directory>
/home/itssahil/PROJECTS/Mol_Feturizer/New_Systems/rnas/3B4B

>  <Rbt.Executable>
rbdock ($Id: //depot/dev/client3/rdock/2013.1/src/exe/rbdock.cxx#4 $)

>  <Rbt.Library>
libRbt.so (2013.1, Build901 2013/11/27)

>  <Rbt.Parameter_File>
/export/apps/rDock/src/rDock_2013.1_src/data/scripts/dock_solv.prm

>  <Rbt.Receptor>
prm/pocket_docking_7.prm

>  <SCORE>
-9.09793

>  <SCORE.INTER>
-7.76222

>  <SCORE.INTER.CONST>
1

>  <SCORE.INTER.POLAR>
-0.9

>  <SCORE.INTER.ROT>
3

>  <SCORE.INTER.SOLV>
22.2531

>  <SCORE.INTER.VDW>
-15.1925

>  <SCORE.INTER.norm>
-0.485139

>  <SCORE.INTRA>
-1.3357

>  <SCORE.INTRA.DIHEDRAL>
-1.84144

>  <SCORE.INTRA.DIHEDRAL.0>
2.21864

>  <SCORE.INTRA.POLAR>
0

>  <SCORE.INTRA.POLAR.0>
0

>  <SCORE.INTRA.REPUL>
0

>  <SCORE.INTRA.REPUL.0>
0

>  <SCORE.INTRA.SOLV>
-0.779169

>  <SCORE.INTRA.SOLV.lig_0>
-58.5963

>  <SCORE.INTRA.VDW>
-0.0253991

>  <SCORE.INTRA.VDW.0>
-0.437849

>  <SCORE.INTRA.norm>
-0.0834814

>  <SCORE.RESTR>
0

>  <SCORE.RESTR.CAVITY>
0

>  <SCORE.RESTR.norm>
0

>  <SCORE.SYSTEM>
0

>  <SCORE.SYSTEM.CONST>
0

>  <SCORE.SYSTEM.DIHEDRAL>
0

>  <SCORE.SYSTEM.SOLV>
0

>  <SCORE.SYSTEM.norm>
0

>  <SCORE.heavy>
16

>  <SCORE.norm>
-0.56862

>  <RMSD>
2.551

$$$$
ligand
 OpenBabel11021811463D
libRbt.so/2013.1/901 2013/11/27
 16 16  0  0  0  0  0  0  0  0999 V2000
   47.7884    9.8079    9.6799 P   0  0  2  0  0  0  0  0  0  0  0  0
   47.0798    9.6532    8.3856 O   0  0  0  0  0  0  0  0  0  0  0  0
   48.6939   11.1387    9.6657 O   0  5  0  0  0  0  0  0  0  0  0  0
   48.7549    8.5290    9.9130 O   0  0  0  0  0  0  0  0  0  0  0  0
   44.3720   11.0093   14.1204 C   0  0  2  0  0  0  0  0  0  0  0  0
   43.4158    9.9723   13.8561 O   0  0  0  0  0  0  0  0  0  0  0  0
   43.6983   12.4100   14.1642 C   0  0  2  0  0  0  0  0  0  0  0  0
   42.6411   12.4247   15.1992 N   0  0  0  0  0  0  0  0  0  0  0  0
   43.0880   12.7063   12.7780 C   0  0  1  0  0  0  0  0  0  0  0  0
   42.4710   14.0057   12.7741 O   0  0  0  0  0  0  0  0  0  0  0  0
   44.2200   12.6684   11.7410 C   0  0  2  0  0  0  0  0  0  0  0  0
   43.6826   12.9255   10.4361 O   0  0  0  0  0  0  0  0  0  0  0  0
   44.8664   11.2583   11.7742 C   0  0  2  0  0  0  0  0  0  0  0  0
   45.4083   10.9826   13.0980 O   0  0  0  0  0  0  0  0  0  0  0  0
   46.0147   11.1950   10.7520 C   0  0  0  0  0  0  0  0  0  0  0  0
   46.6883    9.9274   10.8570 O   0  0  0  0  0  0  0  0  0  0  0  0
  1  2  1  6  0  0  0
  1  3  1  0  0  0  0
  1  4  2  0  0  0  0
  1 16  1  0  0  0  0
  5  6  1  6  0  0  0
  5  7  1  0  0  0  0
  5 14  1  0  0  0  0
  7  8  1  1  0  0  0
  7  9  1  0  0  0  0
  9 10  1  1  0  0  0
  9 11  1  0  0  0  0
 11 12  1  6  0  0  0
 11 13  1  0  0  0  0
 13 14  1  0  0  0  0
 13 15  1  6  0  0  0
 15 16  1  0  0  0  0
M  CHG  1   3  -1
M  END
>  <CHROM.1>
175.25241743,174.09387929,-70.37379855,45.41555398,11.14951601,11.61447758
-0.27621971,-0.75181104,2.16172900

>  <Name>
ligand

>  <RI>
0

>  <Rbt.Current_Directory>
/home/itssahil/PROJECTS/Mol_Feturizer/New_Systems/rnas/3B4B

>  <Rbt.Executable>
rbdock ($Id: //depot/dev/client3/rdock/2013.1/src/exe/rbdock.cxx#4 $)

>  <Rbt.Library>
libRbt.so (2013.1, Build901 2013/11/27)

>  <Rbt.Parameter_File>
/export/apps/rDock/src/rDock_2013.1_src/data/scripts/dock_solv.prm

>  <Rbt.Receptor>
prm/pocket_docking_5.prm

>  <SCORE>
-9.02029

>  <SCORE.INTER>
-7.58314

>  <SCORE.INTER.CONST>
1

>  <SCORE.INTER.POLAR>
-1.125

>  <SCORE.INTER.ROT>
3

>  <SCORE.INTER.SOLV>
18.8797

>  <SCORE.INTER.VDW>
-13.1987

>  <SCORE.INTER.norm>
-0.473946

>  <SCORE.INTRA>
-1.43716

>  <SCORE.INTRA.DIHEDRAL>
-1.79703

>  <SCORE.INTRA.DIHEDRAL.0>
2.21864

>  <SCORE.INTRA.POLAR>
0

>  <SCORE.INTRA.POLAR.0>
0

>  <SCORE.INTRA.REPUL>
0

>  <SCORE.INTRA.REPUL.0>
0

>  <SCORE.INTRA.SOLV>
-1.07084

>  <SCORE.INTRA.SOLV.lig_0>
-58.5963

>  <SCORE.INTRA.VDW>
-0.00321717

>  <SCORE.INTRA.VDW.0>
-0.437849

>  <SCORE.INTRA.norm>
-0.0898222

>  <SCORE.RESTR>
0

>  <SCORE.RESTR.CAVITY>
0

>  <SCORE.RESTR.norm>
0

>  <SCORE.SYSTEM>
0

>  <SCORE.SYSTEM.CONST>
0

>  <SCORE.SYSTEM.DIHEDRAL>
0

>  <SCORE.SYSTEM.SOLV>
0

>  <SCORE.SYSTEM.norm>
0

>  <SCORE.heavy>
16

>  <SCORE.norm>
-0.563768

>  <RMSD>
2.557

$$$$
ligand
 OpenBabel11021811463D
libRbt.so/2013.1/901 2013/11/27
 16 16  0  0  0  0  0  0  0  0999 V2000
   47.8396    9.7217    9.5713 P   0  0  2  0  0  0  0  0  0  0  0  0
   47.0917    9.5363    8.3035 O   0  0  0  0  0  0  0  0  0  0  0  0
   48.7207   11.0674    9.5087 O   0  5  0  0  0  0  0  0  0  0  0  0
   48.8356    8.4630    9.7898 O   0  0  0  0  0  0  0  0  0  0  0  0
   44.5720   11.0372   14.1312 C   0  0  2  0  0  0  0  0  0  0  0  0
   43.6703    9.9346   13.9552 O   0  0  0  0  0  0  0  0  0  0  0  0
   43.8204   12.3982   14.1140 C   0  0  2  0  0  0  0  0  0  0  0  0
   42.7913   12.4152   15.1769 N   0  0  0  0  0  0  0  0  0  0  0  0
   43.1583   12.5776   12.7315 C   0  0  1  0  0  0  0  0  0  0  0  0
   42.4679   13.8381   12.6709 O   0  0  0  0  0  0  0  0  0  0  0  0
   44.2634   12.5416   11.6658 C   0  0  2  0  0  0  0  0  0  0  0  0
   43.6784   12.6906   10.3644 O   0  0  0  0  0  0  0  0  0  0  0  0
   44.9903   11.1741   11.7611 C   0  0  2  0  0  0  0  0  0  0  0  0
   45.5812   11.0079   13.0822 O   0  0  0  0  0  0  0  0  0  0  0  0
   46.1134   11.1145   10.7111 C   0  0  0  0  0  0  0  0  0  0  0  0
   46.7770    9.8394   10.7825 O   0  0  0  0  0  0  0  0  0  0  0  0
  1  2  1  6  0  0  0
  1  3  1  0  0  0  0
  1  4  2  0  0  0  0
  1 16  1  0  0  0  0
  5  6  1  6  0  0  0
  5  7  1  0  0  0  0
  5 14  1  0  0  0  0
  7  8  1  1  0  0  0
  7  9  1  0  0  0  0
  9 10  1  1  0  0  0
  9 11  1  0  0  0  0
 11 12  1  6  0  0  0
 11 13  1  0  0  0  0
 13 14  1  0  0  0  0
 13 15  1  6  0  0  0
 15 16  1  0  0  0  0
M  CHG  1   3  -1
M  END
>  <CHROM.1>
-179.12074967,173.66594965,-72.48624902,45.50447101,11.06915531,11.55509454
-0.36218393,-0.73755508,2.05094614

>  <Name>
ligand

>  <RI>
0

>  <Rbt.Current_Directory>
/home/itssahil/PROJECTS/Mol_Feturizer/New_Systems/rnas/3B4B

>  <Rbt.Executable>
rbdock ($Id: //depot/dev/client3/rdock/2013.1/src/exe/rbdock.cxx#4 $)

>  <Rbt.Library>
libRbt.so (2013.1, Build901 2013/11/27)

>  <Rbt.Parameter_File>
/export/apps/rDock/src/rDock_2013.1_src/data/scripts/dock_solv.prm

>  <Rbt.Receptor>
prm/pocket_docking_4.prm

>  <SCORE>
-9.11777

>  <SCORE.INTER>
-7.69462

>  <SCORE.INTER.CONST>
1

>  <SCORE.INTER.POLAR>
-1.125

>  <SCORE.INTER.ROT>
3

>  <SCORE.INTER.SOLV>
19.2457

>  <SCORE.INTER.VDW>
-13.395

>  <SCORE.INTER.norm>
-0.480914

>  <SCORE.INTRA>
-1.42316

>  <SCORE.INTRA.DIHEDRAL>
-1.77492

>  <SCORE.INTRA.DIHEDRAL.0>
2.21864

>  <SCORE.INTRA.POLAR>
0

>  <SCORE.INTRA.POLAR.0>
0

>  <SCORE.INTRA.REPUL>
0

>  <SCORE.INTRA.REPUL.0>
0

>  <SCORE.INTRA.SOLV>
-1.07202

>  <SCORE.INTRA.SOLV.lig_0>
-58.5963

>  <SCORE.INTRA.VDW>
0.00031607

>  <SCORE.INTRA.VDW.0>
-0.437849

>  <SCORE.INTRA.norm>
-0.0889472

>  <SCORE.RESTR>
0

>  <SCORE.RESTR.CAVITY>
0

>  <SCORE.RESTR.norm>
0

>  <SCORE.SYSTEM>
0

>  <SCORE.SYSTEM.CONST>
0

>  <SCORE.SYSTEM.DIHEDRAL>
0

>  <SCORE.SYSTEM.SOLV>
0

>  <SCORE.SYSTEM.norm>
0

>  <SCORE.heavy>
16

>  <SCORE.norm>
-0.569861

>  <RMSD>
2.558

$$$$
ligand
 OpenBabel11021811463D
libRbt.so/2013.1/901 2013/11/27
 16 16  0  0  0  0  0  0  0  0999 V2000
   47.7533    9.5988    9.3283 P   0  0  2  0  0  0  0  0  0  0  0  0
   47.4909    8.9856    8.0031 O   0  0  0  0  0  0  0  0  0  0  0  0
   48.6172   10.9464    9.1594 O   0  5  0  0  0  0  0  0  0  0  0  0
   48.5958    8.5568   10.2386 O   0  0  0  0  0  0  0  0  0  0  0  0
   44.1418   11.0641   14.1649 C   0  0  2  0  0  0  0  0  0  0  0  0
   43.1245   10.1045   13.8424 O   0  0  0  0  0  0  0  0  0  0  0  0
   43.7109   12.5063   13.7751 C   0  0  2  0  0  0  0  0  0  0  0  0
   42.4511   12.8567   14.4674 N   0  0  0  0  0  0  0  0  0  0  0  0
   43.5097   12.5637   12.2460 C   0  0  1  0  0  0  0  0  0  0  0  0
   43.1284   13.8913   11.8444 O   0  0  0  0  0  0  0  0  0  0  0  0
   44.8378   12.1823   11.5761 C   0  0  2  0  0  0  0  0  0  0  0  0
   44.6804   12.2111   10.1505 O   0  0  0  0  0  0  0  0  0  0  0  0
   45.2224   10.7503   12.0330 C   0  0  2  0  0  0  0  0  0  0  0  0
   45.3765   10.7071   13.4809 O   0  0  0  0  0  0  0  0  0  0  0  0
   46.5585   10.3456   11.3859 C   0  0  0  0  0  0  0  0  0  0  0  0
   46.3371    9.9594   10.0172 O   0  0  0  0  0  0  0  0  0  0  0  0
  1  2  1  6  0  0  0
  1  3  1  0  0  0  0
  1  4  2  0  0  0  0
  1 16  1  0  0  0  0
  5  6  1  6  0  0  0
  5  7  1  0  0  0  0
  5 14  1  0  0  0  0
  7  8  1  1  0  0  0
  7  9  1  0  0  0  0
  9 10  1  6  0  0  0
  9 11  1  0  0  0  0
 11 12  1  6  0  0  0
 11 13  1  0  0  0  0
 13 14  1  0  0  0  0
 13 15  1  6  0  0  0
 15 16  1  0  0  0  0
M  CHG  1   3  -1
M  END
>  <CHROM.1>
-78.08966632,177.53968538,170.46891926,45.56515736,10.93719469,11.38273752
-0.24865238,-0.80029792,2.22933094

>  <Name>
ligand

>  <RI>
0

>  <Rbt.Current_Directory>
/home/itssahil/PROJECTS/Mol_Feturizer/New_Systems/rnas/3B4B

>  <Rbt.Executable>
rbdock ($Id: //depot/dev/client3/rdock/2013.1/src/exe/rbdock.cxx#4 $)

>  <Rbt.Library>
libRbt.so (2013.1, Build901 2013/11/27)

>  <Rbt.Parameter_File>
/export/apps/rDock/src/rDock_2013.1_src/data/scripts/dock_solv.prm

>  <Rbt.Receptor>
prm/pocket_docking_6.prm

>  <SCORE>
-8.80284

>  <SCORE.INTER>
-7.96553

>  <SCORE.INTER.CONST>
1

>  <SCORE.INTER.POLAR>
-1.12459

>  <SCORE.INTER.ROT>
3

>  <SCORE.INTER.SOLV>
17.4347

>  <SCORE.INTER.VDW>
-12.9733

>  <SCORE.INTER.norm>
-0.497845

>  <SCORE.INTRA>
-0.837318

>  <SCORE.INTRA.DIHEDRAL>
-0.948732

>  <SCORE.INTRA.DIHEDRAL.0>
2.21864

>  <SCORE.INTRA.POLAR>
0

>  <SCORE.INTRA.POLAR.0>
0

>  <SCORE.INTRA.REPUL>
0

>  <SCORE.INTRA.REPUL.0>
0

>  <SCORE.INTRA.SOLV>
-0.0279918

>  <SCORE.INTRA.SOLV.lig_0>
-58.5963

>  <SCORE.INTRA.VDW>
-0.348956

>  <SCORE.INTRA.VDW.0>
-0.437849

>  <SCORE.INTRA.norm>
-0.0523324

>  <SCORE.RESTR>
0

>  <SCORE.RESTR.CAVITY>
0

>  <SCORE.RESTR.norm>
0

>  <SCORE.SYSTEM>
0

>  <SCORE.SYSTEM.CONST>
0

>  <SCORE.SYSTEM.DIHEDRAL>
0

>  <SCORE.SYSTEM.SOLV>
0

>  <SCORE.SYSTEM.norm>
0

>  <SCORE.heavy>
16

>  <SCORE.norm>
-0.550178

>  <RMSD>
2.561

$$$$
ligand
 OpenBabel11021811463D
libRbt.so/2013.1/901 2013/11/27
 16 16  0  0  0  0  0  0  0  0999 V2000
   47.5991    9.9062    9.7879 P   0  0  2  0  0  0  0  0  0  0  0  0
   47.3720    9.4881    8.3827 O   0  0  0  0  0  0  0  0  0  0  0  0
   48.3777   11.3143    9.8332 O   0  5  0  0  0  0  0  0  0  0  0  0
   48.5066    8.7909   10.5342 O   0  0  0  0  0  0  0  0  0  0  0  0
   43.9877   12.0472   14.3606 C   0  0  2  0  0  0  0  0  0  0  0  0
   43.0413   10.9707   14.4326 O   0  0  0  0  0  0  0  0  0  0  0  0
   43.4283   13.2462   13.5439 C   0  0  2  0  0  0  0  0  0  0  0  0
   42.1685   13.7239   14.1553 N   0  0  0  0  0  0  0  0  0  0  0  0
   43.1712   12.7783   12.0959 C   0  0  1  0  0  0  0  0  0  0  0  0
   42.6700   13.8688   11.3028 O   0  0  0  0  0  0  0  0  0  0  0  0
   44.5024   12.2834   11.5117 C   0  0  2  0  0  0  0  0  0  0  0  0
   44.2948   11.8259   10.1680 O   0  0  0  0  0  0  0  0  0  0  0  0
   45.0173   11.1133   12.3911 C   0  0  2  0  0  0  0  0  0  0  0  0
   45.2234   11.5644   13.7608 O   0  0  0  0  0  0  0  0  0  0  0  0
   46.3590   10.6046   11.8357 C   0  0  0  0  0  0  0  0  0  0  0  0
   46.1650   10.0694   10.5137 O   0  0  0  0  0  0  0  0  0  0  0  0
  1  2  1  6  0  0  0
  1  3  1  0  0  0  0
  1  4  2  0  0  0  0
  1 16  1  0  0  0  0
  5  6  1  6  0  0  0
  5  7  1  0  0  0  0
  5 14  1  0  0  0  0
  7  8  1  1  0  0  0
  7  9  1  0  0  0  0
  9 10  1  6  0  0  0
  9 11  1  0  0  0  0
 11 12  1  6  0  0  0
 11 13  1  0  0  0  0
 13 14  1  0  0  0  0
 13 15  1  6  0  0  0
 15 16  1  0  0  0  0
M  CHG  1   3  -1
M  END
>  <CHROM.1>
-63.39201666,164.98073069,-174.22172041,45.34357538,11.32216060,11.59155501
0.42260140,0.69321516,-1.28996875

>  <Name>
ligand

>  <RI>
0

>  <Rbt.Current_Directory>
/home/itssahil/PROJECTS/Mol_Feturizer/New_Systems/rnas/3B4B

>  <Rbt.Executable>
rbdock ($Id: //depot/dev/client3/rdock/2013.1/src/exe/rbdock.cxx#4 $)

>  <Rbt.Library>
libRbt.so (2013.1, Build901 2013/11/27)

>  <Rbt.Parameter_File>
/export/apps/rDock/src/rDock_2013.1_src/data/scripts/dock_solv.prm

>  <Rbt.Receptor>
prm/pocket_docking_4.prm

>  <SCORE>
-7.82413

>  <SCORE.INTER>
-7.44871

>  <SCORE.INTER.CONST>
1

>  <SCORE.INTER.POLAR>
-1.1242

>  <SCORE.INTER.ROT>
3

>  <SCORE.INTER.SOLV>
17.4194

>  <SCORE.INTER.VDW>
-12.6249

>  <SCORE.INTER.norm>
-0.465544

>  <SCORE.INTRA>
-0.375417

>  <SCORE.INTRA.DIHEDRAL>
-1.06395

>  <SCORE.INTRA.DIHEDRAL.0>
2.21864

>  <SCORE.INTRA.POLAR>
0

>  <SCORE.INTRA.POLAR.0>
0

>  <SCORE.INTRA.REPUL>
0

>  <SCORE.INTRA.REPUL.0>
0

>  <SCORE.INTRA.SOLV>
0.497219

>  <SCORE.INTRA.SOLV.lig_0>
-58.5963

>  <SCORE.INTRA.VDW>
-0.0920536

>  <SCORE.INTRA.VDW.0>
-0.437849

>  <SCORE.INTRA.norm>
-0.0234636

>  <SCORE.RESTR>
0

>  <SCORE.RESTR.CAVITY>
0

>  <SCORE.RESTR.norm>
0

>  <SCORE.SYSTEM>
0

>  <SCORE.SYSTEM.CONST>
0

>  <SCORE.SYSTEM.DIHEDRAL>
0

>  <SCORE.SYSTEM.SOLV>
0

>  <SCORE.SYSTEM.norm>
0

>  <SCORE.heavy>
16

>  <SCORE.norm>
-0.489008

>  <RMSD>
2.566

$$$$
ligand
 OpenBabel11021811463D
libRbt.so/2013.1/901 2013/11/27
 16 16  0  0  0  0  0  0  0  0999 V2000
   47.7369    9.8771    9.7243 P   0  0  2  0  0  0  0  0  0  0  0  0
   47.0523    9.7157    8.4180 O   0  0  0  0  0  0  0  0  0  0  0  0
   48.6192   11.2234    9.7303 O   0  5  0  0  0  0  0  0  0  0  0  0
   48.7216    8.6142    9.9680 O   0  0  0  0  0  0  0  0  0  0  0  0
   44.3451   11.1230   14.1940 C   0  0  2  0  0  0  0  0  0  0  0  0
   43.4228   10.0468   13.9688 O   0  0  0  0  0  0  0  0  0  0  0  0
   43.6254   12.5012   14.1967 C   0  0  2  0  0  0  0  0  0  0  0  0
   42.5731   12.5144   15.2368 N   0  0  0  0  0  0  0  0  0  0  0  0
   42.9989   12.7322   12.8053 C   0  0  1  0  0  0  0  0  0  0  0  0
   42.3390   14.0097   12.7632 O   0  0  0  0  0  0  0  0  0  0  0  0
   44.1267   12.6984   11.7635 C   0  0  2  0  0  0  0  0  0  0  0  0
   43.5748   12.8952   10.4541 O   0  0  0  0  0  0  0  0  0  0  0  0
   44.8199   11.3122   11.8382 C   0  0  2  0  0  0  0  0  0  0  0  0
   45.3769   11.0976   13.1670 O   0  0  0  0  0  0  0  0  0  0  0  0
   45.9648   11.2540   10.8119 C   0  0  0  0  0  0  0  0  0  0  0  0
   46.6158    9.9724   10.8837 O   0  0  0  0  0  0  0  0  0  0  0  0
  1  2  1  6  0  0  0
  1  3  1  0  0  0  0
  1  4  2  0  0  0  0
  1 16  1  0  0  0  0
  5  6  1  6  0  0  0
  5  7  1  0  0  0  0
  5 14  1  0  0  0  0
  7  8  1  1  0  0  0
  7  9  1  0  0  0  0
  9 10  1  1  0  0  0
  9 11  1  0  0  0  0
 11 12  1  6  0  0  0
 11 13  1  0  0  0  0
 13 14  1  0  0  0  0
 13 15  1  6  0  0  0
 15 16  1  0  0  0  0
M  CHG  1   3  -1
M  END
>  <CHROM.1>
179.64750206,175.49681037,-73.04309211,45.35572926,11.21050521,11.66004019
-0.31360516,-0.73561448,2.10750268

>  <Name>
ligand

>  <RI>
0

>  <Rbt.Current_Directory>
/home/itssahil/PROJECTS/Mol_Feturizer/New_Systems/rnas/3B4B

>  <Rbt.Executable>
rbdock ($Id: //depot/dev/client3/rdock/2013.1/src/exe/rbdock.cxx#4 $)

>  <Rbt.Library>
libRbt.so (2013.1, Build901 2013/11/27)

>  <Rbt.Parameter_File>
/export/apps/rDock/src/rDock_2013.1_src/data/scripts/dock_solv.prm

>  <Rbt.Receptor>
prm/pocket_docking_5.prm

>  <SCORE>
-9.06086

>  <SCORE.INTER>
-7.62022

>  <SCORE.INTER.CONST>
1

>  <SCORE.INTER.POLAR>
-1.12482

>  <SCORE.INTER.ROT>
3

>  <SCORE.INTER.SOLV>
18.7915

>  <SCORE.INTER.VDW>
-13.1946

>  <SCORE.INTER.norm>
-0.476264

>  <SCORE.INTRA>
-1.44064

>  <SCORE.INTRA.DIHEDRAL>
-1.85246

>  <SCORE.INTRA.DIHEDRAL.0>
2.21864

>  <SCORE.INTRA.POLAR>
0

>  <SCORE.INTRA.POLAR.0>
0

>  <SCORE.INTRA.REPUL>
0

>  <SCORE.INTRA.REPUL.0>
0

>  <SCORE.INTRA.SOLV>
-1.05157

>  <SCORE.INTRA.SOLV.lig_0>
-58.5963

>  <SCORE.INTRA.VDW>
0.0113788

>  <SCORE.INTRA.VDW.0>
-0.437849

>  <SCORE.INTRA.norm>
-0.0900398

>  <SCORE.RESTR>
0

>  <SCORE.RESTR.CAVITY>
0

>  <SCORE.RESTR.norm>
0

>  <SCORE.SYSTEM>
0

>  <SCORE.SYSTEM.CONST>
0

>  <SCORE.SYSTEM.DIHEDRAL>
0

>  <SCORE.SYSTEM.SOLV>
0

>  <SCORE.SYSTEM.norm>
0

>  <SCORE.heavy>
16

>  <SCORE.norm>
-0.566304

>  <RMSD>
2.566

$$$$
ligand
 OpenBabel11021811463D
libRbt.so/2013.1/901 2013/11/27
 16 16  0  0  0  0  0  0  0  0999 V2000
   47.5421   10.1134    9.8947 P   0  0  2  0  0  0  0  0  0  0  0  0
   47.4871   11.1015    8.7894 O   0  0  0  0  0  0  0  0  0  0  0  0
   49.0160   10.0790   10.5407 O   0  5  0  0  0  0  0  0  0  0  0  0
   47.2010    8.6418    9.3096 O   0  0  0  0  0  0  0  0  0  0  0  0
   43.4039   10.7670   13.7868 C   0  0  2  0  0  0  0  0  0  0  0  0
   42.0641   10.4675   13.3686 O   0  0  0  0  0  0  0  0  0  0  0  0
   43.5899   12.2856   14.0638 C   0  0  2  0  0  0  0  0  0  0  0  0
   42.6292   12.7270   15.0989 N   0  0  0  0  0  0  0  0  0  0  0  0
   43.3473   13.0590   12.7505 C   0  0  1  0  0  0  0  0  0  0  0  0
   43.5301   14.4698   12.9635 O   0  0  0  0  0  0  0  0  0  0  0  0
   44.3584   12.5581   11.7089 C   0  0  2  0  0  0  0  0  0  0  0  0
   44.1494   13.2478   10.4685 O   0  0  0  0  0  0  0  0  0  0  0  0
   44.1383   11.0356   11.5065 C   0  0  2  0  0  0  0  0  0  0  0  0
   44.3396   10.3254   12.7624 O   0  0  0  0  0  0  0  0  0  0  0  0
   45.1482   10.5027   10.4752 C   0  0  0  0  0  0  0  0  0  0  0  0
   46.4763   10.5498   11.0278 O   0  0  0  0  0  0  0  0  0  0  0  0
  1  2  1  6  0  0  0
  1  3  1  0  0  0  0
  1  4  2  0  0  0  0
  1 16  1  0  0  0  0
  5  6  1  6  0  0  0
  5  7  1  0  0  0  0
  5 14  1  0  0  0  0
  7  8  1  1  0  0  0
  7  9  1  0  0  0  0
  9 10  1  1  0  0  0
  9 11  1  0  0  0  0
 11 12  1  6  0  0  0
 11 13  1  0  0  0  0
 13 14  1  0  0  0  0
 13 15  1  6  0  0  0
 15 16  1  0  0  0  0
M  CHG  1   3  -1
M  END
>  <CHROM.1>
68.47003444,-175.01320087,63.18364099,45.14122857,11.25835884,11.59614320
0.19454903,-0.75590276,2.85901377

>  <Name>
ligand

>  <RI>
0

>  <Rbt.Current_Directory>
/home/itssahil/PROJECTS/Mol_Feturizer/New_Systems/rnas/3B4B

>  <Rbt.Executable>
rbdock ($Id: //depot/dev/client3/rdock/2013.1/src/exe/rbdock.cxx#4 $)

>  <Rbt.Library>
libRbt.so (2013.1, Build901 2013/11/27)

>  <Rbt.Parameter_File>
/export/apps/rDock/src/rDock_2013.1_src/data/scripts/dock_solv.prm

>  <Rbt.Receptor>
prm/pocket_docking_6.prm

>  <SCORE>
-7.82239

>  <SCORE.INTER>
-6.19952

>  <SCORE.INTER.CONST>
1

>  <SCORE.INTER.POLAR>
-1.12381

>  <SCORE.INTER.ROT>
3

>  <SCORE.INTER.SOLV>
19.5345

>  <SCORE.INTER.VDW>
-12.4985

>  <SCORE.INTER.norm>
-0.38747

>  <SCORE.INTRA>
-1.62287

>  <SCORE.INTRA.DIHEDRAL>
-1.822

>  <SCORE.INTRA.DIHEDRAL.0>
2.21864

>  <SCORE.INTRA.POLAR>
0

>  <SCORE.INTRA.POLAR.0>
0

>  <SCORE.INTRA.REPUL>
0

>  <SCORE.INTRA.REPUL.0>
0

>  <SCORE.INTRA.SOLV>
-0.924029

>  <SCORE.INTRA.SOLV.lig_0>
-58.5963

>  <SCORE.INTRA.VDW>
-0.249855

>  <SCORE.INTRA.VDW.0>
-0.437849

>  <SCORE.INTRA.norm>
-0.101429

>  <SCORE.RESTR>
0

>  <SCORE.RESTR.CAVITY>
0

>  <SCORE.RESTR.norm>
0

>  <SCORE.SYSTEM>
0

>  <SCORE.SYSTEM.CONST>
0

>  <SCORE.SYSTEM.DIHEDRAL>
0

>  <SCORE.SYSTEM.SOLV>
0

>  <SCORE.SYSTEM.norm>
0

>  <SCORE.heavy>
16

>  <SCORE.norm>
-0.488899

>  <RMSD>
2.591

$$$$
ligand
 OpenBabel11021811463D
libRbt.so/2013.1/901 2013/11/27
 16 16  0  0  0  0  0  0  0  0999 V2000
   49.7044   11.5819   11.8873 P   0  0  2  0  0  0  0  0  0  0  0  0
   50.1679   11.5674   13.2966 O   0  0  0  0  0  0  0  0  0  0  0  0
   50.9498   11.8022   10.8916 O   0  5  0  0  0  0  0  0  0  0  0  0
   48.6594   12.8029   11.6839 O   0  0  0  0  0  0  0  0  0  0  0  0
   45.1175   11.4799   10.8339 C   0  0  2  0  0  0  0  0  0  0  0  0
   45.5385   12.8504   10.8980 O   0  0  0  0  0  0  0  0  0  0  0  0
   43.9933   11.1787   11.8649 C   0  0  2  0  0  0  0  0  0  0  0  0
   42.8388   12.0716   11.6217 N   0  0  0  0  0  0  0  0  0  0  0  0
   44.5526   11.4095   13.2847 C   0  0  1  0  0  0  0  0  0  0  0  0
   43.5441   11.1212   14.2691 O   0  0  0  0  0  0  0  0  0  0  0  0
   45.7517   10.4707   13.4827 C   0  0  2  0  0  0  0  0  0  0  0  0
   46.3059   10.6715   14.7906 O   0  0  0  0  0  0  0  0  0  0  0  0
   46.8166   10.8037   12.4045 C   0  0  2  0  0  0  0  0  0  0  0  0
   46.2619   10.6116   11.0713 O   0  0  0  0  0  0  0  0  0  0  0  0
   48.0267    9.8681   12.5710 C   0  0  0  0  0  0  0  0  0  0  0  0
   49.0088   10.1608   11.5604 O   0  0  0  0  0  0  0  0  0  0  0  0
  1  2  1  1  0  0  0
  1  3  1  0  0  0  0
  1  4  2  0  0  0  0
  1 16  1  0  0  0  0
  5  6  1  1  0  0  0
  5  7  1  0  0  0  0
  5 14  1  0  0  0  0
  7  8  1  6  0  0  0
  7  9  1  0  0  0  0
  9 10  1  1  0  0  0
  9 11  1  0  0  0  0
 11 12  1  1  0  0  0
 11 13  1  0  0  0  0
 13 14  1  0  0  0  0
 13 15  1  1  0  0  0
 15 16  1  0  0  0  0
M  CHG  1   3  -1
M  END
>  <CHROM.1>
179.17543578,71.23959431,51.17332957,46.98694770,11.31345648,12.24973567
0.12828674,0.04099337,-1.15888079

>  <Name>
ligand

>  <RI>
0

>  <Rbt.Current_Directory>
/home/itssahil/PROJECTS/Mol_Feturizer/New_Systems/rnas/3B4B

>  <Rbt.Executable>
rbdock ($Id: //depot/dev/client3/rdock/2013.1/src/exe/rbdock.cxx#4 $)

>  <Rbt.Library>
libRbt.so (2013.1, Build901 2013/11/27)

>  <Rbt.Parameter_File>
/export/apps/rDock/src/rDock_2013.1_src/data/scripts/dock_solv.prm

>  <Rbt.Receptor>
prm/pocket_docking_2.prm

>  <SCORE>
-2.27951

>  <SCORE.INTER>
-2.6398

>  <SCORE.INTER.CONST>
1

>  <SCORE.INTER.POLAR>
-0.822917

>  <SCORE.INTER.ROT>
3

>  <SCORE.INTER.SOLV>
17.7375

>  <SCORE.INTER.VDW>
-10.5293

>  <SCORE.INTER.norm>
-0.164988

>  <SCORE.INTRA>
0.360289

>  <SCORE.INTRA.DIHEDRAL>
-1.48672

>  <SCORE.INTRA.DIHEDRAL.0>
2.21864

>  <SCORE.INTRA.POLAR>
0

>  <SCORE.INTRA.POLAR.0>
0

>  <SCORE.INTRA.REPUL>
0

>  <SCORE.INTRA.REPUL.0>
0

>  <SCORE.INTRA.SOLV>
2.24211

>  <SCORE.INTRA.SOLV.lig_0>
-58.5963

>  <SCORE.INTRA.VDW>
-0.017404

>  <SCORE.INTRA.VDW.0>
-0.437849

>  <SCORE.INTRA.norm>
0.0225181

>  <SCORE.RESTR>
0

>  <SCORE.RESTR.CAVITY>
0

>  <SCORE.RESTR.norm>
0

>  <SCORE.SYSTEM>
0

>  <SCORE.SYSTEM.CONST>
0

>  <SCORE.SYSTEM.DIHEDRAL>
0

>  <SCORE.SYSTEM.SOLV>
0

>  <SCORE.SYSTEM.norm>
0

>  <SCORE.heavy>
16

>  <SCORE.norm>
-0.14247

>  <RMSD>
2.596

$$$$
ligand
 OpenBabel11021811463D
libRbt.so/2013.1/901 2013/11/27
 16 16  0  0  0  0  0  0  0  0999 V2000
   47.5761   10.1533   10.1279 P   0  0  2  0  0  0  0  0  0  0  0  0
   47.2411    8.7480    9.7901 O   0  0  0  0  0  0  0  0  0  0  0  0
   47.5028   11.0772    8.8118 O   0  5  0  0  0  0  0  0  0  0  0  0
   49.0841   10.2134   10.7167 O   0  0  0  0  0  0  0  0  0  0  0  0
   43.4790   10.7314   14.0174 C   0  0  2  0  0  0  0  0  0  0  0  0
   42.1592   10.3231   13.6287 O   0  0  0  0  0  0  0  0  0  0  0  0
   43.5510   12.2635   14.2729 C   0  0  2  0  0  0  0  0  0  0  0  0
   42.5779   12.6424   15.3211 N   0  0  0  0  0  0  0  0  0  0  0  0
   43.2246   12.9982   12.9555 C   0  0  1  0  0  0  0  0  0  0  0  0
   43.3007   14.4216   13.1483 O   0  0  0  0  0  0  0  0  0  0  0  0
   44.2525   12.5637   11.9005 C   0  0  2  0  0  0  0  0  0  0  0  0
   43.9675   13.2186   10.6564 O   0  0  0  0  0  0  0  0  0  0  0  0
   44.1482   11.0261   11.7204 C   0  0  2  0  0  0  0  0  0  0  0  0
   44.4273   10.3505   12.9804 O   0  0  0  0  0  0  0  0  0  0  0  0
   45.1775   10.5599   10.6760 C   0  0  0  0  0  0  0  0  0  0  0  0
   46.5065   10.6901   11.2131 O   0  0  0  0  0  0  0  0  0  0  0  0
  1  2  1  6  0  0  0
  1  3  1  0  0  0  0
  1  4  2  0  0  0  0
  1 16  1  0  0  0  0
  5  6  1  6  0  0  0
  5  7  1  0  0  0  0
  5 14  1  0  0  0  0
  7  8  1  1  0  0  0
  7  9  1  0  0  0  0
  9 10  1  1  0  0  0
  9 11  1  0  0  0  0
 11 12  1  6  0  0  0
 11 13  1  0  0  0  0
 13 14  1  0  0  0  0
 13 15  1  6  0  0  0
 15 16  1  0  0  0  0
M  CHG  1   3  -1
M  END
>  <CHROM.1>
69.72043633,178.17010354,-57.22695573,45.13004452,11.26557306,11.81136720
0.07934533,-0.75173838,2.71755875

>  <Name>
ligand

>  <RI>
0

>  <Rbt.Current_Directory>
/home/itssahil/PROJECTS/Mol_Feturizer/New_Systems/rnas/3B4B

>  <Rbt.Executable>
rbdock ($Id: //depot/dev/client3/rdock/2013.1/src/exe/rbdock.cxx#4 $)

>  <Rbt.Library>
libRbt.so (2013.1, Build901 2013/11/27)

>  <Rbt.Parameter_File>
/export/apps/rDock/src/rDock_2013.1_src/data/scripts/dock_solv.prm

>  <Rbt.Receptor>
prm/pocket_docking_4.prm

>  <SCORE>
-8.03441

>  <SCORE.INTER>
-6.47809

>  <SCORE.INTER.CONST>
1

>  <SCORE.INTER.POLAR>
-1.12436

>  <SCORE.INTER.ROT>
3

>  <SCORE.INTER.SOLV>
19.7112

>  <SCORE.INTER.VDW>
-12.7413

>  <SCORE.INTER.norm>
-0.404881

>  <SCORE.INTRA>
-1.55632

>  <SCORE.INTRA.DIHEDRAL>
-1.85226

>  <SCORE.INTRA.DIHEDRAL.0>
2.21864

>  <SCORE.INTRA.POLAR>
0

>  <SCORE.INTRA.POLAR.0>
0

>  <SCORE.INTRA.REPUL>
0

>  <SCORE.INTRA.REPUL.0>
0

>  <SCORE.INTRA.SOLV>
-0.95641

>  <SCORE.INTRA.SOLV.lig_0>
-58.5963

>  <SCORE.INTRA.VDW>
-0.15198

>  <SCORE.INTRA.VDW.0>
-0.437849

>  <SCORE.INTRA.norm>
-0.0972698

>  <SCORE.RESTR>
0

>  <SCORE.RESTR.CAVITY>
0

>  <SCORE.RESTR.norm>
0

>  <SCORE.SYSTEM>
0

>  <SCORE.SYSTEM.CONST>
0

>  <SCORE.SYSTEM.DIHEDRAL>
0

>  <SCORE.SYSTEM.SOLV>
0

>  <SCORE.SYSTEM.norm>
0

>  <SCORE.heavy>
16

>  <SCORE.norm>
-0.502151

>  <RMSD>
2.611

$$$$
ligand
 OpenBabel11021811463D
libRbt.so/2013.1/901 2013/11/27
 16 16  0  0  0  0  0  0  0  0999 V2000
   47.7497    9.4137    9.1794 P   0  0  2  0  0  0  0  0  0  0  0  0
   47.2694    8.8663    7.8868 O   0  0  0  0  0  0  0  0  0  0  0  0
   48.4781   10.8307    8.9501 O   0  5  0  0  0  0  0  0  0  0  0  0
   48.8183    8.3836    9.8286 O   0  0  0  0  0  0  0  0  0  0  0  0
   45.1230   10.9922   14.5924 C   0  0  2  0  0  0  0  0  0  0  0  0
   44.4467    9.7422   14.7923 O   0  0  0  0  0  0  0  0  0  0  0  0
   44.1494   12.0940   14.0867 C   0  0  2  0  0  0  0  0  0  0  0  0
   43.0447   12.2688   15.0553 N   0  0  0  0  0  0  0  0  0  0  0  0
   43.5889   11.6636   12.7147 C   0  0  1  0  0  0  0  0  0  0  0  0
   42.6966   12.6701   12.2045 O   0  0  0  0  0  0  0  0  0  0  0  0
   44.7716   11.4851   11.7516 C   0  0  2  0  0  0  0  0  0  0  0  0
   44.2849   11.0693   10.4678 O   0  0  0  0  0  0  0  0  0  0  0  0
   45.7153   10.3990   12.3323 C   0  0  2  0  0  0  0  0  0  0  0  0
   46.2091   10.8068   13.6407 O   0  0  0  0  0  0  0  0  0  0  0  0
   46.9185   10.2075   11.3925 C   0  0  0  0  0  0  0  0  0  0  0  0
   46.4779    9.6225   10.1535 O   0  0  0  0  0  0  0  0  0  0  0  0
  1  2  1  6  0  0  0
  1  3  1  0  0  0  0
  1  4  2  0  0  0  0
  1 16  1  0  0  0  0
  5  6  1  6  0  0  0
  5  7  1  0  0  0  0
  5 14  1  0  0  0  0
  7  8  1  1  0  0  0
  7  9  1  0  0  0  0
  9 10  1  6  0  0  0
  9 11  1  0  0  0  0
 11 12  1  6  0  0  0
 11 13  1  0  0  0  0
 13 14  1  0  0  0  0
 13 15  1  6  0  0  0
 15 16  1  0  0  0  0
M  CHG  1   3  -1
M  END
>  <CHROM.1>
-67.71988029,-179.50373659,-177.53671394,45.80159384,10.53454102,11.55974469
0.76041637,0.59183642,-1.47568711

>  <Name>
ligand

>  <RI>
0

>  <Rbt.Current_Directory>
/home/itssahil/PROJECTS/Mol_Feturizer/New_Systems/rnas/3B4B

>  <Rbt.Executable>
rbdock ($Id: //depot/dev/client3/rdock/2013.1/src/exe/rbdock.cxx#4 $)

>  <Rbt.Library>
libRbt.so (2013.1, Build901 2013/11/27)

>  <Rbt.Parameter_File>
/export/apps/rDock/src/rDock_2013.1_src/data/scripts/dock_solv.prm

>  <Rbt.Receptor>
prm/pocket_docking_6.prm

>  <SCORE>
-10.7463

>  <SCORE.INTER>
-9.54319

>  <SCORE.INTER.CONST>
1

>  <SCORE.INTER.POLAR>
-1.125

>  <SCORE.INTER.ROT>
3

>  <SCORE.INTER.SOLV>
21.9422

>  <SCORE.INTER.VDW>
-15.5262

>  <SCORE.INTER.norm>
-0.59645

>  <SCORE.INTRA>
-1.20311

>  <SCORE.INTRA.DIHEDRAL>
-1.9946

>  <SCORE.INTRA.DIHEDRAL.0>
2.21864

>  <SCORE.INTRA.POLAR>
0

>  <SCORE.INTRA.POLAR.0>
0

>  <SCORE.INTRA.REPUL>
0

>  <SCORE.INTRA.REPUL.0>
0

>  <SCORE.INTRA.SOLV>
-0.0541472

>  <SCORE.INTRA.SOLV.lig_0>
-58.5963

>  <SCORE.INTRA.VDW>
-0.178739

>  <SCORE.INTRA.VDW.0>
-0.437849

>  <SCORE.INTRA.norm>
-0.0751944

>  <SCORE.RESTR>
0

>  <SCORE.RESTR.CAVITY>
0

>  <SCORE.RESTR.norm>
0

>  <SCORE.SYSTEM>
0

>  <SCORE.SYSTEM.CONST>
0

>  <SCORE.SYSTEM.DIHEDRAL>
0

>  <SCORE.SYSTEM.SOLV>
0

>  <SCORE.SYSTEM.norm>
0

>  <SCORE.heavy>
16

>  <SCORE.norm>
-0.671644

>  <RMSD>
2.616

$$$$
ligand
 OpenBabel11021811463D
libRbt.so/2013.1/901 2013/11/27
 16 16  0  0  0  0  0  0  0  0999 V2000
   47.5630   10.0875   10.1177 P   0  0  2  0  0  0  0  0  0  0  0  0
   47.2538    8.6666    9.8235 O   0  0  0  0  0  0  0  0  0  0  0  0
   47.4403   10.9747    8.7802 O   0  5  0  0  0  0  0  0  0  0  0  0
   49.0811   10.1975   10.6719 O   0  0  0  0  0  0  0  0  0  0  0  0
   43.5199   10.7366   14.0250 C   0  0  2  0  0  0  0  0  0  0  0  0
   42.2007   10.3072   13.6577 O   0  0  0  0  0  0  0  0  0  0  0  0
   43.5746   12.2716   14.2667 C   0  0  2  0  0  0  0  0  0  0  0  0
   42.6107   12.6463   15.3248 N   0  0  0  0  0  0  0  0  0  0  0  0
   43.2206   12.9905   12.9477 C   0  0  1  0  0  0  0  0  0  0  0  0
   43.2799   14.4165   13.1275 O   0  0  0  0  0  0  0  0  0  0  0  0
   44.2400   12.5609   11.8825 C   0  0  2  0  0  0  0  0  0  0  0  0
   43.9294   13.2013   10.6370 O   0  0  0  0  0  0  0  0  0  0  0  0
   44.1542   11.0206   11.7167 C   0  0  2  0  0  0  0  0  0  0  0  0
   44.4593   10.3596   12.9785 O   0  0  0  0  0  0  0  0  0  0  0  0
   45.1755   10.5593   10.6625 C   0  0  0  0  0  0  0  0  0  0  0  0
   46.5041   10.6281   11.2117 O   0  0  0  0  0  0  0  0  0  0  0  0
  1  2  1  6  0  0  0
  1  3  1  0  0  0  0
  1  4  2  0  0  0  0
  1 16  1  0  0  0  0
  5  6  1  6  0  0  0
  5  7  1  0  0  0  0
  5 14  1  0  0  0  0
  7  8  1  1  0  0  0
  7  9  1  0  0  0  0
  9 10  1  1  0  0  0
  9 11  1  0  0  0  0
 11 12  1  6  0  0  0
 11 13  1  0  0  0  0
 13 14  1  0  0  0  0
 13 15  1  6  0  0  0
 15 16  1  0  0  0  0
M  CHG  1   3  -1
M  END
>  <CHROM.1>
73.51087840,177.80640911,-62.07741084,45.13033902,11.23905673,11.80448592
0.06421622,-0.76131946,2.67897995

>  <Name>
ligand

>  <RI>
0

>  <Rbt.Current_Directory>
/home/itssahil/PROJECTS/Mol_Feturizer/New_Systems/rnas/3B4B

>  <Rbt.Executable>
rbdock ($Id: //depot/dev/client3/rdock/2013.1/src/exe/rbdock.cxx#4 $)

>  <Rbt.Library>
libRbt.so (2013.1, Build901 2013/11/27)

>  <Rbt.Parameter_File>
/export/apps/rDock/src/rDock_2013.1_src/data/scripts/dock_solv.prm

>  <Rbt.Receptor>
prm/pocket_docking_5.prm

>  <SCORE>
-8.04966

>  <SCORE.INTER>
-6.64333

>  <SCORE.INTER.CONST>
1

>  <SCORE.INTER.POLAR>
-1.125

>  <SCORE.INTER.ROT>
3

>  <SCORE.INTER.SOLV>
19.7901

>  <SCORE.INTER.VDW>
-12.8756

>  <SCORE.INTER.norm>
-0.415208

>  <SCORE.INTRA>
-1.40633

>  <SCORE.INTRA.DIHEDRAL>
-1.5527

>  <SCORE.INTRA.DIHEDRAL.0>
2.21864

>  <SCORE.INTRA.POLAR>
0

>  <SCORE.INTRA.POLAR.0>
0

>  <SCORE.INTRA.REPUL>
0

>  <SCORE.INTRA.REPUL.0>
0

>  <SCORE.INTRA.SOLV>
-0.915439

>  <SCORE.INTRA.SOLV.lig_0>
-58.5963

>  <SCORE.INTRA.VDW>
-0.172265

>  <SCORE.INTRA.VDW.0>
-0.437849

>  <SCORE.INTRA.norm>
-0.0878959

>  <SCORE.RESTR>
0

>  <SCORE.RESTR.CAVITY>
0

>  <SCORE.RESTR.norm>
0

>  <SCORE.SYSTEM>
0

>  <SCORE.SYSTEM.CONST>
0

>  <SCORE.SYSTEM.DIHEDRAL>
0

>  <SCORE.SYSTEM.SOLV>
0

>  <SCORE.SYSTEM.norm>
0

>  <SCORE.heavy>
16

>  <SCORE.norm>
-0.503104

>  <RMSD>
2.626

$$$$
ligand
 OpenBabel11021811463D
libRbt.so/2013.1/901 2013/11/27
 16 16  0  0  0  0  0  0  0  0999 V2000
   47.8905    9.5044    9.4048 P   0  0  2  0  0  0  0  0  0  0  0  0
   47.1082    9.2095    8.1793 O   0  0  0  0  0  0  0  0  0  0  0  0
   48.7117   10.8774    9.2267 O   0  5  0  0  0  0  0  0  0  0  0  0
   48.9453    8.3026    9.6642 O   0  0  0  0  0  0  0  0  0  0  0  0
   44.7803   10.9899   13.9778 C   0  0  2  0  0  0  0  0  0  0  0  0
   43.9281    9.8353   13.9678 O   0  0  0  0  0  0  0  0  0  0  0  0
   43.9582   12.3075   13.9029 C   0  0  2  0  0  0  0  0  0  0  0  0
   43.0108   12.3716   15.0375 N   0  0  0  0  0  0  0  0  0  0  0  0
   43.1873   12.3315   12.5661 C   0  0  1  0  0  0  0  0  0  0  0  0
   42.4282   13.5480   12.4518 O   0  0  0  0  0  0  0  0  0  0  0  0
   44.2112   12.2518   11.4243 C   0  0  2  0  0  0  0  0  0  0  0  0
   43.5247   12.2565   10.1646 O   0  0  0  0  0  0  0  0  0  0  0  0
   45.0148   10.9337   11.5793 C   0  0  2  0  0  0  0  0  0  0  0  0
   45.7096   10.9140   12.8595 O   0  0  0  0  0  0  0  0  0  0  0  0
   46.0590   10.8328   10.4537 C   0  0  0  0  0  0  0  0  0  0  0  0
   46.8658    9.6563   10.6446 O   0  0  0  0  0  0  0  0  0  0  0  0
  1  2  1  6  0  0  0
  1  3  1  0  0  0  0
  1  4  2  0  0  0  0
  1 16  1  0  0  0  0
  5  6  1  6  0  0  0
  5  7  1  0  0  0  0
  5 14  1  0  0  0  0
  7  8  1  1  0  0  0
  7  9  1  0  0  0  0
  9 10  1  6  0  0  0
  9 11  1  0  0  0  0
 11 12  1  6  0  0  0
 11 13  1  0  0  0  0
 13 14  1  0  0  0  0
 13 15  1  6  0  0  0
 15 16  1  0  0  0  0
M  CHG  1   3  -1
M  END
>  <CHROM.1>
176.19641175,176.14630872,-67.12254348,45.56313924,10.86432946,11.38093450
-0.46309795,-0.69629099,1.89214588

>  <Name>
ligand

>  <RI>
0

>  <Rbt.Current_Directory>
/home/itssahil/PROJECTS/Mol_Feturizer/New_Systems/rnas/3B4B

>  <Rbt.Executable>
rbdock ($Id: //depot/dev/client3/rdock/2013.1/src/exe/rbdock.cxx#4 $)

>  <Rbt.Library>
libRbt.so (2013.1, Build901 2013/11/27)

>  <Rbt.Parameter_File>
/export/apps/rDock/src/rDock_2013.1_src/data/scripts/dock_solv.prm

>  <Rbt.Receptor>
prm/pocket_docking_8.prm

>  <SCORE>
-9.37491

>  <SCORE.INTER>
-7.78885

>  <SCORE.INTER.CONST>
1

>  <SCORE.INTER.POLAR>
-1.125

>  <SCORE.INTER.ROT>
3

>  <SCORE.INTER.SOLV>
20.0547

>  <SCORE.INTER.VDW>
-13.7275

>  <SCORE.INTER.norm>
-0.486803

>  <SCORE.INTRA>
-1.58606

>  <SCORE.INTRA.DIHEDRAL>
-2.01297

>  <SCORE.INTRA.DIHEDRAL.0>
2.21864

>  <SCORE.INTRA.POLAR>
0

>  <SCORE.INTRA.POLAR.0>
0

>  <SCORE.INTRA.REPUL>
0

>  <SCORE.INTRA.REPUL.0>
0

>  <SCORE.INTRA.SOLV>
-1.09506

>  <SCORE.INTRA.SOLV.lig_0>
-58.5963

>  <SCORE.INTRA.VDW>
-0.0320457

>  <SCORE.INTRA.VDW.0>
-0.437849

>  <SCORE.INTRA.norm>
-0.0991289

>  <SCORE.RESTR>
0

>  <SCORE.RESTR.CAVITY>
0

>  <SCORE.RESTR.norm>
0

>  <SCORE.SYSTEM>
0

>  <SCORE.SYSTEM.CONST>
0

>  <SCORE.SYSTEM.DIHEDRAL>
0

>  <SCORE.SYSTEM.SOLV>
0

>  <SCORE.SYSTEM.norm>
0

>  <SCORE.heavy>
16

>  <SCORE.norm>
-0.585932

>  <RMSD>
2.638

$$$$
ligand
 OpenBabel11021811463D
libRbt.so/2013.1/901 2013/11/27
 16 16  0  0  0  0  0  0  0  0999 V2000
   47.6972    9.3527    9.2479 P   0  0  2  0  0  0  0  0  0  0  0  0
   47.2412    8.7688    7.9625 O   0  0  0  0  0  0  0  0  0  0  0  0
   48.4322   10.7618    8.9922 O   0  5  0  0  0  0  0  0  0  0  0  0
   48.7513    8.3407    9.9472 O   0  0  0  0  0  0  0  0  0  0  0  0
   44.9592   11.1978   14.5207 C   0  0  2  0  0  0  0  0  0  0  0  0
   44.3222    9.9428   14.8020 O   0  0  0  0  0  0  0  0  0  0  0  0
   43.9560   12.2278   13.9289 C   0  0  2  0  0  0  0  0  0  0  0  0
   42.8345   12.4329   14.8721 N   0  0  0  0  0  0  0  0  0  0  0  0
   43.4265   11.6833   12.5854 C   0  0  1  0  0  0  0  0  0  0  0  0
   42.5077   12.6206   11.9968 O   0  0  0  0  0  0  0  0  0  0  0  0
   44.6259   11.4774   11.6489 C   0  0  2  0  0  0  0  0  0  0  0  0
   44.1687   10.9561   10.3930 O   0  0  0  0  0  0  0  0  0  0  0  0
   45.5979   10.4673   12.3140 C   0  0  2  0  0  0  0  0  0  0  0  0
   46.0622   10.9827   13.5950 O   0  0  0  0  0  0  0  0  0  0  0  0
   46.8179   10.2510   11.4018 C   0  0  0  0  0  0  0  0  0  0  0  0
   46.4070    9.5908   10.1907 O   0  0  0  0  0  0  0  0  0  0  0  0
  1  2  1  6  0  0  0
  1  3  1  0  0  0  0
  1  4  2  0  0  0  0
  1 16  1  0  0  0  0
  5  6  1  6  0  0  0
  5  7  1  0  0  0  0
  5 14  1  0  0  0  0
  7  8  1  1  0  0  0
  7  9  1  0  0  0  0
  9 10  1  6  0  0  0
  9 11  1  0  0  0  0
 11 12  1  6  0  0  0
 11 13  1  0  0  0  0
 13 14  1  0  0  0  0
 13 15  1  6  0  0  0
 15 16  1  0  0  0  0
M  CHG  1   3  -1
M  END
>  <CHROM.1>
-66.51874224,-179.33572656,-175.64612928,45.68740838,10.55853602,11.53088432
0.75226454,0.55606644,-1.53911357

>  <Name>
ligand

>  <RI>
0

>  <Rbt.Current_Directory>
/home/itssahil/PROJECTS/Mol_Feturizer/New_Systems/rnas/3B4B

>  <Rbt.Executable>
rbdock ($Id: //depot/dev/client3/rdock/2013.1/src/exe/rbdock.cxx#4 $)

>  <Rbt.Library>
libRbt.so (2013.1, Build901 2013/11/27)

>  <Rbt.Parameter_File>
/export/apps/rDock/src/rDock_2013.1_src/data/scripts/dock_solv.prm

>  <Rbt.Receptor>
prm/pocket_docking_6.prm

>  <SCORE>
-10.6001

>  <SCORE.INTER>
-9.43123

>  <SCORE.INTER.CONST>
1

>  <SCORE.INTER.POLAR>
-1.124

>  <SCORE.INTER.ROT>
3

>  <SCORE.INTER.SOLV>
21.6368

>  <SCORE.INTER.VDW>
-15.3531

>  <SCORE.INTER.norm>
-0.589452

>  <SCORE.INTRA>
-1.16889

>  <SCORE.INTRA.DIHEDRAL>
-2.0323

>  <SCORE.INTRA.DIHEDRAL.0>
2.21864

>  <SCORE.INTRA.POLAR>
0

>  <SCORE.INTRA.POLAR.0>
0

>  <SCORE.INTRA.REPUL>
0

>  <SCORE.INTRA.REPUL.0>
0

>  <SCORE.INTRA.SOLV>
-0.0468479

>  <SCORE.INTRA.SOLV.lig_0>
-58.5963

>  <SCORE.INTRA.VDW>
-0.129319

>  <SCORE.INTRA.VDW.0>
-0.437849

>  <SCORE.INTRA.norm>
-0.0730559

>  <SCORE.RESTR>
0

>  <SCORE.RESTR.CAVITY>
0

>  <SCORE.RESTR.norm>
0

>  <SCORE.SYSTEM>
0

>  <SCORE.SYSTEM.CONST>
0

>  <SCORE.SYSTEM.DIHEDRAL>
0

>  <SCORE.SYSTEM.SOLV>
0

>  <SCORE.SYSTEM.norm>
0

>  <SCORE.heavy>
16

>  <SCORE.norm>
-0.662508

>  <RMSD>
2.643

$$$$
ligand
 OpenBabel11021811463D
libRbt.so/2013.1/901 2013/11/27
 16 16  0  0  0  0  0  0  0  0999 V2000
   49.1091   11.7480   10.6197 P   0  0  2  0  0  0  0  0  0  0  0  0
   48.7443   12.4639    9.3725 O   0  0  0  0  0  0  0  0  0  0  0  0
   50.5553   12.2291   11.1377 O   0  5  0  0  0  0  0  0  0  0  0  0
   49.1716   10.1571   10.3206 O   0  0  0  0  0  0  0  0  0  0  0  0
   43.2742   12.6127   12.5793 C   0  0  2  0  0  0  0  0  0  0  0  0
   43.5391   13.8753   13.2079 O   0  0  0  0  0  0  0  0  0  0  0  0
   43.1647   11.4662   13.6239 C   0  0  2  0  0  0  0  0  0  0  0  0
   42.0957   11.7773   14.5983 N   0  0  0  0  0  0  0  0  0  0  0  0
   44.5202   11.3297   14.3489 C   0  0  1  0  0  0  0  0  0  0  0  0
   44.4634   10.2629   15.3121 O   0  0  0  0  0  0  0  0  0  0  0  0
   45.5944   11.0193   13.2963 C   0  0  2  0  0  0  0  0  0  0  0  0
   46.8725   10.9011   13.9371 O   0  0  0  0  0  0  0  0  0  0  0  0
   45.6264   12.1843   12.2720 C   0  0  2  0  0  0  0  0  0  0  0  0
   44.3303   12.3193   11.6210 O   0  0  0  0  0  0  0  0  0  0  0  0
   46.6872   11.8937   11.1960 C   0  0  0  0  0  0  0  0  0  0  0  0
   48.0027   12.0844   11.7479 O   0  0  0  0  0  0  0  0  0  0  0  0
  1  2  1  6  0  0  0
  1  3  1  0  0  0  0
  1  4  2  0  0  0  0
  1 16  1  0  0  0  0
  5  6  1  1  0  0  0
  5  7  1  0  0  0  0
  5 14  1  0  0  0  0
  7  8  1  1  0  0  0
  7  9  1  0  0  0  0
  9 10  1  1  0  0  0
  9 11  1  0  0  0  0
 11 12  1  1  0  0  0
 11 13  1  0  0  0  0
 13 14  1  0  0  0  0
 13 15  1  6  0  0  0
 15 16  1  0  0  0  0
M  CHG  1   3  -1
M  END
>  <CHROM.1>
-73.81099532,178.85674645,48.88425313,46.28682824,11.77074658,12.28779860
0.40614514,0.34926698,-0.93410988

>  <Name>
ligand

>  <RI>
0

>  <Rbt.Current_Directory>
/home/itssahil/PROJECTS/Mol_Feturizer/New_Systems/rnas/3B4B

>  <Rbt.Executable>
rbdock ($Id: //depot/dev/client3/rdock/2013.1/src/exe/rbdock.cxx#4 $)

>  <Rbt.Library>
libRbt.so (2013.1, Build901 2013/11/27)

>  <Rbt.Parameter_File>
/export/apps/rDock/src/rDock_2013.1_src/data/scripts/dock_solv.prm

>  <Rbt.Receptor>
prm/pocket_docking_4.prm

>  <SCORE>
-8.77346

>  <SCORE.INTER>
-7.71763

>  <SCORE.INTER.CONST>
1

>  <SCORE.INTER.POLAR>
-1.12484

>  <SCORE.INTER.ROT>
3

>  <SCORE.INTER.SOLV>
16.4615

>  <SCORE.INTER.VDW>
-12.4828

>  <SCORE.INTER.norm>
-0.482352

>  <SCORE.INTRA>
-1.05583

>  <SCORE.INTRA.DIHEDRAL>
-1.35837

>  <SCORE.INTRA.DIHEDRAL.0>
2.21864

>  <SCORE.INTRA.POLAR>
0

>  <SCORE.INTRA.POLAR.0>
0

>  <SCORE.INTRA.REPUL>
0

>  <SCORE.INTRA.REPUL.0>
0

>  <SCORE.INTRA.SOLV>
-0.839215

>  <SCORE.INTRA.SOLV.lig_0>
-58.5963

>  <SCORE.INTRA.VDW>
0.0429584

>  <SCORE.INTRA.VDW.0>
-0.437849

>  <SCORE.INTRA.norm>
-0.0659896

>  <SCORE.RESTR>
0

>  <SCORE.RESTR.CAVITY>
0

>  <SCORE.RESTR.norm>
0

>  <SCORE.SYSTEM>
0

>  <SCORE.SYSTEM.CONST>
0

>  <SCORE.SYSTEM.DIHEDRAL>
0

>  <SCORE.SYSTEM.SOLV>
0

>  <SCORE.SYSTEM.norm>
0

>  <SCORE.heavy>
16

>  <SCORE.norm>
-0.548342

>  <RMSD>
2.645

$$$$
ligand
 OpenBabel11021811463D
libRbt.so/2013.1/901 2013/11/27
 16 16  0  0  0  0  0  0  0  0999 V2000
   47.5238    9.7556    9.9072 P   0  0  2  0  0  0  0  0  0  0  0  0
   47.5353    8.3979    9.3091 O   0  0  0  0  0  0  0  0  0  0  0  0
   47.4946   10.8753    8.7511 O   0  5  0  0  0  0  0  0  0  0  0  0
   48.8674    9.9595   10.7888 O   0  0  0  0  0  0  0  0  0  0  0  0
   43.8955   10.9339   14.2398 C   0  0  2  0  0  0  0  0  0  0  0  0
   42.8031   10.1837   13.6887 O   0  0  0  0  0  0  0  0  0  0  0  0
   43.5084   12.4223   14.4689 C   0  0  2  0  0  0  0  0  0  0  0  0
   42.3378   12.5020   15.3702 N   0  0  0  0  0  0  0  0  0  0  0  0
   43.1715   13.0590   13.1040 C   0  0  1  0  0  0  0  0  0  0  0  0
   42.8266   14.4451   13.2738 O   0  0  0  0  0  0  0  0  0  0  0  0
   44.4105   12.9410   12.2044 C   0  0  2  0  0  0  0  0  0  0  0  0
   44.1251   13.5113   10.9194 O   0  0  0  0  0  0  0  0  0  0  0  0
   44.7583   11.4372   12.0459 C   0  0  2  0  0  0  0  0  0  0  0  0
   45.0416   10.8451   13.3464 O   0  0  0  0  0  0  0  0  0  0  0  0
   46.0059   11.2890   11.1578 C   0  0  0  0  0  0  0  0  0  0  0  0
   46.2003    9.9030   10.8220 O   0  0  0  0  0  0  0  0  0  0  0  0
  1  2  1  6  0  0  0
  1  3  1  0  0  0  0
  1  4  2  0  0  0  0
  1 16  1  0  0  0  0
  5  6  1  6  0  0  0
  5  7  1  0  0  0  0
  5 14  1  0  0  0  0
  7  8  1  1  0  0  0
  7  9  1  0  0  0  0
  9 10  1  1  0  0  0
  9 11  1  0  0  0  0
 11 12  1  6  0  0  0
 11 13  1  0  0  0  0
 13 14  1  0  0  0  0
 13 15  1  6  0  0  0
 15 16  1  0  0  0  0
M  CHG  1   3  -1
M  END
>  <CHROM.1>
-170.33626317,-179.20803033,-166.82079379,45.25730996,11.25350395,11.87264686
0.02724090,-0.82911799,2.56098609

>  <Name>
ligand

>  <RI>
0

>  <Rbt.Current_Directory>
/home/itssahil/PROJECTS/Mol_Feturizer/New_Systems/rnas/3B4B

>  <Rbt.Executable>
rbdock ($Id: //depot/dev/client3/rdock/2013.1/src/exe/rbdock.cxx#4 $)

>  <Rbt.Library>
libRbt.so (2013.1, Build901 2013/11/27)

>  <Rbt.Parameter_File>
/export/apps/rDock/src/rDock_2013.1_src/data/scripts/dock_solv.prm

>  <Rbt.Receptor>
prm/pocket_docking_4.prm

>  <SCORE>
-8.56777

>  <SCORE.INTER>
-7.39571

>  <SCORE.INTER.CONST>
1

>  <SCORE.INTER.POLAR>
-1.12364

>  <SCORE.INTER.ROT>
3

>  <SCORE.INTER.SOLV>
20.1194

>  <SCORE.INTER.VDW>
-13.4915

>  <SCORE.INTER.norm>
-0.462232

>  <SCORE.INTRA>
-1.17206

>  <SCORE.INTRA.DIHEDRAL>
-1.60487

>  <SCORE.INTRA.DIHEDRAL.0>
2.21864

>  <SCORE.INTRA.POLAR>
0

>  <SCORE.INTRA.POLAR.0>
0

>  <SCORE.INTRA.REPUL>
0

>  <SCORE.INTRA.REPUL.0>
0

>  <SCORE.INTRA.SOLV>
-0.540565

>  <SCORE.INTRA.SOLV.lig_0>
-58.5963

>  <SCORE.INTRA.VDW>
-0.0993427

>  <SCORE.INTRA.VDW.0>
-0.437849

>  <SCORE.INTRA.norm>
-0.0732537

>  <SCORE.RESTR>
0

>  <SCORE.RESTR.CAVITY>
0

>  <SCORE.RESTR.norm>
0

>  <SCORE.SYSTEM>
0

>  <SCORE.SYSTEM.CONST>
0

>  <SCORE.SYSTEM.DIHEDRAL>
0

>  <SCORE.SYSTEM.SOLV>
0

>  <SCORE.SYSTEM.norm>
0

>  <SCORE.heavy>
16

>  <SCORE.norm>
-0.535486

>  <RMSD>
2.661

$$$$
ligand
 OpenBabel11021811463D
libRbt.so/2013.1/901 2013/11/27
 16 16  0  0  0  0  0  0  0  0999 V2000
   47.4576    9.3602    9.7608 P   0  0  2  0  0  0  0  0  0  0  0  0
   47.2515   10.2020    8.5567 O   0  0  0  0  0  0  0  0  0  0  0  0
   48.8177    9.7819   10.5114 O   0  5  0  0  0  0  0  0  0  0  0  0
   47.5768    7.8087    9.3107 O   0  0  0  0  0  0  0  0  0  0  0  0
   43.9676   10.8431   14.1472 C   0  0  2  0  0  0  0  0  0  0  0  0
   42.8492   10.0999   13.6406 O   0  0  0  0  0  0  0  0  0  0  0  0
   43.6263   12.3517   14.3062 C   0  0  2  0  0  0  0  0  0  0  0  0
   42.4659   12.5097   15.2105 N   0  0  0  0  0  0  0  0  0  0  0  0
   43.2970   12.9313   12.9143 C   0  0  1  0  0  0  0  0  0  0  0  0
   42.9942   14.3337   13.0189 O   0  0  0  0  0  0  0  0  0  0  0  0
   44.5246   12.7332   12.0132 C   0  0  2  0  0  0  0  0  0  0  0  0
   44.2455   13.2489   10.7040 O   0  0  0  0  0  0  0  0  0  0  0  0
   44.8268   11.2139   11.9256 C   0  0  2  0  0  0  0  0  0  0  0  0
   45.1033   10.6772   13.2514 O   0  0  0  0  0  0  0  0  0  0  0  0
   46.0622   10.9858   11.0373 C   0  0  0  0  0  0  0  0  0  0  0  0
   46.2090    9.5808   10.7620 O   0  0  0  0  0  0  0  0  0  0  0  0
  1  2  1  6  0  0  0
  1  3  1  0  0  0  0
  1  4  2  0  0  0  0
  1 16  1  0  0  0  0
  5  6  1  6  0  0  0
  5  7  1  0  0  0  0
  5 14  1  0  0  0  0
  7  8  1  1  0  0  0
  7  9  1  0  0  0  0
  9 10  1  1  0  0  0
  9 11  1  0  0  0  0
 11 12  1  6  0  0  0
 11 13  1  0  0  0  0
 13 14  1  0  0  0  0
 13 15  1  6  0  0  0
 15 16  1  0  0  0  0
M  CHG  1   3  -1
M  END
>  <CHROM.1>
-170.03103355,176.78700543,-54.62304132,45.29488297,10.99973688,11.72744880
0.06797392,-0.86833789,2.55330672

>  <Name>
ligand

>  <RI>
0

>  <Rbt.Current_Directory>
/home/itssahil/PROJECTS/Mol_Feturizer/New_Systems/rnas/3B4B

>  <Rbt.Executable>
rbdock ($Id: //depot/dev/client3/rdock/2013.1/src/exe/rbdock.cxx#4 $)

>  <Rbt.Library>
libRbt.so (2013.1, Build901 2013/11/27)

>  <Rbt.Parameter_File>
/export/apps/rDock/src/rDock_2013.1_src/data/scripts/dock_solv.prm

>  <Rbt.Receptor>
prm/pocket_docking_7.prm

>  <SCORE>
-9.07963

>  <SCORE.INTER>
-7.56692

>  <SCORE.INTER.CONST>
1

>  <SCORE.INTER.POLAR>
-1.11776

>  <SCORE.INTER.ROT>
3

>  <SCORE.INTER.SOLV>
21.4253

>  <SCORE.INTER.VDW>
-14.0605

>  <SCORE.INTER.norm>
-0.472932

>  <SCORE.INTRA>
-1.51271

>  <SCORE.INTRA.DIHEDRAL>
-1.76564

>  <SCORE.INTRA.DIHEDRAL.0>
2.21864

>  <SCORE.INTRA.POLAR>
0

>  <SCORE.INTRA.POLAR.0>
0

>  <SCORE.INTRA.REPUL>
0

>  <SCORE.INTRA.REPUL.0>
0

>  <SCORE.INTRA.SOLV>
-1.26179

>  <SCORE.INTRA.SOLV.lig_0>
-58.5963

>  <SCORE.INTRA.VDW>
0.000997599

>  <SCORE.INTRA.VDW.0>
-0.437849

>  <SCORE.INTRA.norm>
-0.0945447

>  <SCORE.RESTR>
0

>  <SCORE.RESTR.CAVITY>
0

>  <SCORE.RESTR.norm>
0

>  <SCORE.SYSTEM>
0

>  <SCORE.SYSTEM.CONST>
0

>  <SCORE.SYSTEM.DIHEDRAL>
0

>  <SCORE.SYSTEM.SOLV>
0

>  <SCORE.SYSTEM.norm>
0

>  <SCORE.heavy>
16

>  <SCORE.norm>
-0.567477

>  <RMSD>
2.662

$$$$
ligand
 OpenBabel11021811463D
libRbt.so/2013.1/901 2013/11/27
 16 16  0  0  0  0  0  0  0  0999 V2000
   47.6179    9.2535    9.3126 P   0  0  2  0  0  0  0  0  0  0  0  0
   47.1203    8.6135    8.0700 O   0  0  0  0  0  0  0  0  0  0  0  0
   48.2996   10.6723    8.9762 O   0  5  0  0  0  0  0  0  0  0  0  0
   48.7316    8.2952    9.9948 O   0  0  0  0  0  0  0  0  0  0  0  0
   45.0865   11.0663   14.6974 C   0  0  2  0  0  0  0  0  0  0  0  0
   44.4195    9.8242   14.9655 O   0  0  0  0  0  0  0  0  0  0  0  0
   44.0989   12.1412   14.1620 C   0  0  2  0  0  0  0  0  0  0  0  0
   43.0120   12.3552   15.1428 N   0  0  0  0  0  0  0  0  0  0  0  0
   43.5143   11.6484   12.8214 C   0  0  1  0  0  0  0  0  0  0  0  0
   42.6084   12.6282   12.2842 O   0  0  0  0  0  0  0  0  0  0  0  0
   44.6794   11.4312   11.8447 C   0  0  2  0  0  0  0  0  0  0  0  0
   44.1703   10.9571   10.5902 O   0  0  0  0  0  0  0  0  0  0  0  0
   45.6385   10.3752   12.4550 C   0  0  2  0  0  0  0  0  0  0  0  0
   46.1552   10.8425   13.7343 O   0  0  0  0  0  0  0  0  0  0  0  0
   46.8245   10.1462   11.5018 C   0  0  0  0  0  0  0  0  0  0  0  0
   46.3660    9.4888   10.3064 O   0  0  0  0  0  0  0  0  0  0  0  0
  1  2  1  6  0  0  0
  1  3  1  0  0  0  0
  1  4  2  0  0  0  0
  1 16  1  0  0  0  0
  5  6  1  6  0  0  0
  5  7  1  0  0  0  0
  5 14  1  0  0  0  0
  7  8  1  1  0  0  0
  7  9  1  0  0  0  0
  9 10  1  6  0  0  0
  9 11  1  0  0  0  0
 11 12  1  6  0  0  0
 11 13  1  0  0  0  0
 13 14  1  0  0  0  0
 13 15  1  6  0  0  0
 15 16  1  0  0  0  0
M  CHG  1   3  -1
M  END
>  <CHROM.1>
-68.49967129,179.98333722,-178.28012970,45.70986494,10.47521373,11.67631606
0.78315981,0.58957975,-1.53327448

>  <Name>
ligand

>  <RI>
0

>  <Rbt.Current_Directory>
/home/itssahil/PROJECTS/Mol_Feturizer/New_Systems/rnas/3B4B

>  <Rbt.Executable>
rbdock ($Id: //depot/dev/client3/rdock/2013.1/src/exe/rbdock.cxx#4 $)

>  <Rbt.Library>
libRbt.so (2013.1, Build901 2013/11/27)

>  <Rbt.Parameter_File>
/export/apps/rDock/src/rDock_2013.1_src/data/scripts/dock_solv.prm

>  <Rbt.Receptor>
prm/pocket_docking_5.prm

>  <SCORE>
-10.7566

>  <SCORE.INTER>
-9.54679

>  <SCORE.INTER.CONST>
1

>  <SCORE.INTER.POLAR>
-1.12376

>  <SCORE.INTER.ROT>
3

>  <SCORE.INTER.SOLV>
23.2062

>  <SCORE.INTER.VDW>
-15.9541

>  <SCORE.INTER.norm>
-0.596675

>  <SCORE.INTRA>
-1.20983

>  <SCORE.INTRA.DIHEDRAL>
-1.95683

>  <SCORE.INTRA.DIHEDRAL.0>
2.21864

>  <SCORE.INTRA.POLAR>
0

>  <SCORE.INTRA.POLAR.0>
0

>  <SCORE.INTRA.REPUL>
0

>  <SCORE.INTRA.REPUL.0>
0

>  <SCORE.INTRA.SOLV>
-0.0514503

>  <SCORE.INTRA.SOLV.lig_0>
-58.5963

>  <SCORE.INTRA.VDW>
-0.205685

>  <SCORE.INTRA.VDW.0>
-0.437849

>  <SCORE.INTRA.norm>
-0.0756142

>  <SCORE.RESTR>
0

>  <SCORE.RESTR.CAVITY>
0

>  <SCORE.RESTR.norm>
0

>  <SCORE.SYSTEM>
0

>  <SCORE.SYSTEM.CONST>
0

>  <SCORE.SYSTEM.DIHEDRAL>
0

>  <SCORE.SYSTEM.SOLV>
0

>  <SCORE.SYSTEM.norm>
0

>  <SCORE.heavy>
16

>  <SCORE.norm>
-0.672289

>  <RMSD>
2.681

$$$$
ligand
 OpenBabel11021811463D
libRbt.so/2013.1/901 2013/11/27
 16 16  0  0  0  0  0  0  0  0999 V2000
   47.6845    9.2449    9.2385 P   0  0  2  0  0  0  0  0  0  0  0  0
   47.1889    8.5700    8.0137 O   0  0  0  0  0  0  0  0  0  0  0  0
   48.4374   10.6152    8.8557 O   0  5  0  0  0  0  0  0  0  0  0  0
   48.7370    8.2716    9.9929 O   0  0  0  0  0  0  0  0  0  0  0  0
   45.2101   10.9794   14.6498 C   0  0  2  0  0  0  0  0  0  0  0  0
   44.5514    9.7207   14.8537 O   0  0  0  0  0  0  0  0  0  0  0  0
   44.2090   12.0826   14.2044 C   0  0  2  0  0  0  0  0  0  0  0  0
   43.1433   12.2310   15.2200 N   0  0  0  0  0  0  0  0  0  0  0  0
   43.5963   11.6730   12.8484 C   0  0  1  0  0  0  0  0  0  0  0  0
   42.6770   12.6816   12.3936 O   0  0  0  0  0  0  0  0  0  0  0  0
   44.7403   11.5214   11.8352 C   0  0  2  0  0  0  0  0  0  0  0  0
   44.2049   11.1253   10.5646 O   0  0  0  0  0  0  0  0  0  0  0  0
   45.7145   10.4323   12.3569 C   0  0  2  0  0  0  0  0  0  0  0  0
   46.2580   10.8200   13.6517 O   0  0  0  0  0  0  0  0  0  0  0  0
   46.8798   10.2675   11.3659 C   0  0  0  0  0  0  0  0  0  0  0  0
   46.4207    9.5811   10.1871 O   0  0  0  0  0  0  0  0  0  0  0  0
  1  2  1  6  0  0  0
  1  3  1  0  0  0  0
  1  4  2  0  0  0  0
  1 16  1  0  0  0  0
  5  6  1  6  0  0  0
  5  7  1  0  0  0  0
  5 14  1  0  0  0  0
  7  8  1  1  0  0  0
  7  9  1  0  0  0  0
  9 10  1  6  0  0  0
  9 11  1  0  0  0  0
 11 12  1  6  0  0  0
 11 13  1  0  0  0  0
 13 14  1  0  0  0  0
 13 15  1  6  0  0  0
 15 16  1  0  0  0  0
M  CHG  1   3  -1
M  END
>  <CHROM.1>
-73.39675990,-172.79761923,-178.54623255,45.79013642,10.47941805,11.63357731
-0.77816585,-0.61055628,1.63440038

>  <Name>
ligand

>  <RI>
0

>  <Rbt.Current_Directory>
/home/itssahil/PROJECTS/Mol_Feturizer/New_Systems/rnas/3B4B

>  <Rbt.Executable>
rbdock ($Id: //depot/dev/client3/rdock/2013.1/src/exe/rbdock.cxx#4 $)

>  <Rbt.Library>
libRbt.so (2013.1, Build901 2013/11/27)

>  <Rbt.Parameter_File>
/export/apps/rDock/src/rDock_2013.1_src/data/scripts/dock_solv.prm

>  <Rbt.Receptor>
prm/pocket_docking_5.prm

>  <SCORE>
-10.3465

>  <SCORE.INTER>
-9.33725

>  <SCORE.INTER.CONST>
1

>  <SCORE.INTER.POLAR>
-1.125

>  <SCORE.INTER.ROT>
3

>  <SCORE.INTER.SOLV>
23.372

>  <SCORE.INTER.VDW>
-15.8655

>  <SCORE.INTER.norm>
-0.583578

>  <SCORE.INTRA>
-1.00924

>  <SCORE.INTRA.DIHEDRAL>
-1.33986

>  <SCORE.INTRA.DIHEDRAL.0>
2.21864

>  <SCORE.INTRA.POLAR>
0

>  <SCORE.INTRA.POLAR.0>
0

>  <SCORE.INTRA.REPUL>
0

>  <SCORE.INTRA.REPUL.0>
0

>  <SCORE.INTRA.SOLV>
-0.17416

>  <SCORE.INTRA.SOLV.lig_0>
-58.5963

>  <SCORE.INTRA.VDW>
-0.252229

>  <SCORE.INTRA.VDW.0>
-0.437849

>  <SCORE.INTRA.norm>
-0.0630774

>  <SCORE.RESTR>
0

>  <SCORE.RESTR.CAVITY>
0

>  <SCORE.RESTR.norm>
0

>  <SCORE.SYSTEM>
0

>  <SCORE.SYSTEM.CONST>
0

>  <SCORE.SYSTEM.DIHEDRAL>
0

>  <SCORE.SYSTEM.SOLV>
0

>  <SCORE.SYSTEM.norm>
0

>  <SCORE.heavy>
16

>  <SCORE.norm>
-0.646656

>  <RMSD>
2.684

$$$$
ligand
 OpenBabel11021811463D
libRbt.so/2013.1/901 2013/11/27
 16 16  0  0  0  0  0  0  0  0999 V2000
   49.2209   11.7427   10.1159 P   0  0  2  0  0  0  0  0  0  0  0  0
   48.7454   12.3021    8.8267 O   0  0  0  0  0  0  0  0  0  0  0  0
   50.6606   12.3553   10.4939 O   0  5  0  0  0  0  0  0  0  0  0  0
   49.3649   10.1351    9.9770 O   0  0  0  0  0  0  0  0  0  0  0  0
   43.4843   12.5700   12.3264 C   0  0  2  0  0  0  0  0  0  0  0  0
   43.7841   13.8524   12.8966 O   0  0  0  0  0  0  0  0  0  0  0  0
   43.4061   11.4642   13.4167 C   0  0  2  0  0  0  0  0  0  0  0  0
   42.3785   11.8217   14.4194 N   0  0  0  0  0  0  0  0  0  0  0  0
   44.7877   11.3415   14.0935 C   0  0  1  0  0  0  0  0  0  0  0  0
   44.7596   10.3117   15.0975 O   0  0  0  0  0  0  0  0  0  0  0  0
   45.8174   10.9816   13.0125 C   0  0  2  0  0  0  0  0  0  0  0  0
   47.1184   10.8748   13.6074 O   0  0  0  0  0  0  0  0  0  0  0  0
   45.8192   12.1074   11.9448 C   0  0  2  0  0  0  0  0  0  0  0  0
   44.4998   12.2309   11.3397 O   0  0  0  0  0  0  0  0  0  0  0  0
   46.8347   11.7667   10.8402 C   0  0  0  0  0  0  0  0  0  0  0  0
   48.1588   12.1337   11.2688 O   0  0  0  0  0  0  0  0  0  0  0  0
  1  2  1  6  0  0  0
  1  3  1  0  0  0  0
  1  4  2  0  0  0  0
  1 16  1  0  0  0  0
  5  6  1  1  0  0  0
  5  7  1  0  0  0  0
  5 14  1  0  0  0  0
  7  8  1  1  0  0  0
  7  9  1  0  0  0  0
  9 10  1  1  0  0  0
  9 11  1  0  0  0  0
 11 12  1  1  0  0  0
 11 13  1  0  0  0  0
 13 14  1  0  0  0  0
 13 15  1  6  0  0  0
 15 16  1  0  0  0  0
M  CHG  1   3  -1
M  END
>  <CHROM.1>
-81.48156190,178.77601434,51.03843965,46.47273842,11.75170893,11.92779272
0.45762721,0.36721215,-0.97062933

>  <Name>
ligand

>  <RI>
0

>  <Rbt.Current_Directory>
/home/itssahil/PROJECTS/Mol_Feturizer/New_Systems/rnas/3B4B

>  <Rbt.Executable>
rbdock ($Id: //depot/dev/client3/rdock/2013.1/src/exe/rbdock.cxx#4 $)

>  <Rbt.Library>
libRbt.so (2013.1, Build901 2013/11/27)

>  <Rbt.Parameter_File>
/export/apps/rDock/src/rDock_2013.1_src/data/scripts/dock_solv.prm

>  <Rbt.Receptor>
prm/blind_docking_100.prm

>  <SCORE>
-8.09394

>  <SCORE.INTER>
-7.26162

>  <SCORE.INTER.CONST>
1

>  <SCORE.INTER.POLAR>
-1.125

>  <SCORE.INTER.ROT>
3

>  <SCORE.INTER.SOLV>
15.2902

>  <SCORE.INTER.VDW>
-11.7878

>  <SCORE.INTER.norm>
-0.453851

>  <SCORE.INTRA>
-0.832322

>  <SCORE.INTRA.DIHEDRAL>
-0.585145

>  <SCORE.INTRA.DIHEDRAL.0>
2.21864

>  <SCORE.INTRA.POLAR>
0

>  <SCORE.INTRA.POLAR.0>
0

>  <SCORE.INTRA.REPUL>
0

>  <SCORE.INTRA.REPUL.0>
0

>  <SCORE.INTRA.SOLV>
-0.891037

>  <SCORE.INTRA.SOLV.lig_0>
-58.5963

>  <SCORE.INTRA.VDW>
-0.0942306

>  <SCORE.INTRA.VDW.0>
-0.437849

>  <SCORE.INTRA.norm>
-0.0520201

>  <SCORE.RESTR>
0

>  <SCORE.RESTR.CAVITY>
0

>  <SCORE.RESTR.norm>
0

>  <SCORE.SYSTEM>
0

>  <SCORE.SYSTEM.CONST>
0

>  <SCORE.SYSTEM.DIHEDRAL>
0

>  <SCORE.SYSTEM.SOLV>
0

>  <SCORE.SYSTEM.norm>
0

>  <SCORE.heavy>
16

>  <SCORE.norm>
-0.505871

>  <RMSD>
2.699

$$$$
ligand
 OpenBabel11021811463D
libRbt.so/2013.1/901 2013/11/27
 16 16  0  0  0  0  0  0  0  0999 V2000
   47.6894    9.4979    9.7125 P   0  0  2  0  0  0  0  0  0  0  0  0
   48.6145    8.4483   10.2059 O   0  0  0  0  0  0  0  0  0  0  0  0
   47.0313    9.0503    8.3134 O   0  5  0  0  0  0  0  0  0  0  0  0
   48.5187   10.8694    9.4769 O   0  0  0  0  0  0  0  0  0  0  0  0
   44.2991   11.2942   13.9502 C   0  0  2  0  0  0  0  0  0  0  0  0
   43.3689   10.2027   13.8954 O   0  0  0  0  0  0  0  0  0  0  0  0
   43.5834   12.6640   13.7795 C   0  0  2  0  0  0  0  0  0  0  0  0
   42.5550   12.8259   14.8309 N   0  0  0  0  0  0  0  0  0  0  0  0
   42.9261   12.7054   12.3837 C   0  0  1  0  0  0  0  0  0  0  0  0
   42.2689   13.9688   12.1812 O   0  0  0  0  0  0  0  0  0  0  0  0
   44.0299   12.5223   11.3318 C   0  0  2  0  0  0  0  0  0  0  0  0
   43.4490   12.5407   10.0203 O   0  0  0  0  0  0  0  0  0  0  0  0
   44.7208   11.1555   11.5809 C   0  0  2  0  0  0  0  0  0  0  0  0
   45.3072   11.1221   12.9139 O   0  0  0  0  0  0  0  0  0  0  0  0
   45.8419   10.9503   10.5472 C   0  0  0  0  0  0  0  0  0  0  0  0
   46.5189    9.7069   10.8064 O   0  0  0  0  0  0  0  0  0  0  0  0
  1  2  1  1  0  0  0
  1  3  1  0  0  0  0
  1  4  2  0  0  0  0
  1 16  1  0  0  0  0
  5  6  1  6  0  0  0
  5  7  1  0  0  0  0
  5 14  1  0  0  0  0
  7  8  1  1  0  0  0
  7  9  1  0  0  0  0
  9 10  1  6  0  0  0
  9 11  1  0  0  0  0
 11 12  1  6  0  0  0
 11 13  1  0  0  0  0
 13 14  1  0  0  0  0
 13 15  1  6  0  0  0
 15 16  1  0  0  0  0
M  CHG  1   3  -1
M  END
>  <CHROM.1>
177.81606777,179.76044001,163.80467678,45.28269587,11.05728411,11.43210897
-0.34004114,-0.72684500,1.94742429

>  <Name>
ligand

>  <RI>
0

>  <Rbt.Current_Directory>
/home/itssahil/PROJECTS/Mol_Feturizer/New_Systems/rnas/3B4B

>  <Rbt.Executable>
rbdock ($Id: //depot/dev/client3/rdock/2013.1/src/exe/rbdock.cxx#4 $)

>  <Rbt.Library>
libRbt.so (2013.1, Build901 2013/11/27)

>  <Rbt.Parameter_File>
/export/apps/rDock/src/rDock_2013.1_src/data/scripts/dock_solv.prm

>  <Rbt.Receptor>
prm/pocket_docking_8.prm

>  <SCORE>
-7.55147

>  <SCORE.INTER>
-6.26701

>  <SCORE.INTER.CONST>
1

>  <SCORE.INTER.POLAR>
-0.899395

>  <SCORE.INTER.ROT>
3

>  <SCORE.INTER.SOLV>
19.412

>  <SCORE.INTER.VDW>
-13.2507

>  <SCORE.INTER.norm>
-0.391688

>  <SCORE.INTRA>
-1.28445

>  <SCORE.INTRA.DIHEDRAL>
-1.79885

>  <SCORE.INTRA.DIHEDRAL.0>
2.21864

>  <SCORE.INTRA.POLAR>
0

>  <SCORE.INTRA.POLAR.0>
0

>  <SCORE.INTRA.REPUL>
0

>  <SCORE.INTRA.REPUL.0>
0

>  <SCORE.INTRA.SOLV>
-0.516995

>  <SCORE.INTRA.SOLV.lig_0>
-58.5963

>  <SCORE.INTRA.VDW>
-0.126533

>  <SCORE.INTRA.VDW.0>
-0.437849

>  <SCORE.INTRA.norm>
-0.0802784

>  <SCORE.RESTR>
0

>  <SCORE.RESTR.CAVITY>
0

>  <SCORE.RESTR.norm>
0

>  <SCORE.SYSTEM>
0

>  <SCORE.SYSTEM.CONST>
0

>  <SCORE.SYSTEM.DIHEDRAL>
0

>  <SCORE.SYSTEM.SOLV>
0

>  <SCORE.SYSTEM.norm>
0

>  <SCORE.heavy>
16

>  <SCORE.norm>
-0.471967

>  <RMSD>
2.706

$$$$
ligand
 OpenBabel11021811463D
libRbt.so/2013.1/901 2013/11/27
 16 16  0  0  0  0  0  0  0  0999 V2000
   48.6136   11.0645   12.3358 P   0  0  2  0  0  0  0  0  0  0  0  0
   48.0467   12.3473   11.8520 O   0  0  0  0  0  0  0  0  0  0  0  0
   49.9671   11.3293   13.1657 O   0  5  0  0  0  0  0  0  0  0  0  0
   48.9642   10.1249   11.0636 O   0  0  0  0  0  0  0  0  0  0  0  0
   44.0044   12.7091   11.1125 C   0  0  2  0  0  0  0  0  0  0  0  0
   44.8779   13.8474   11.1428 O   0  0  0  0  0  0  0  0  0  0  0  0
   42.9379   12.7771   12.2419 C   0  0  2  0  0  0  0  0  0  0  0  0
   42.1480   14.0213   12.1101 N   0  0  0  0  0  0  0  0  0  0  0  0
   43.6616   12.7501   13.6048 C   0  0  1  0  0  0  0  0  0  0  0  0
   42.7037   12.7920   14.6771 O   0  0  0  0  0  0  0  0  0  0  0  0
   44.4734   11.4491   13.6873 C   0  0  2  0  0  0  0  0  0  0  0  0
   45.1723   11.3997   14.9391 O   0  0  0  0  0  0  0  0  0  0  0  0
   45.4915   11.4330   12.5165 C   0  0  2  0  0  0  0  0  0  0  0  0
   44.7929   11.4917   11.2396 O   0  0  0  0  0  0  0  0  0  0  0  0
   46.3120   10.1324   12.5667 C   0  0  0  0  0  0  0  0  0  0  0  0
   47.5296   10.3551   13.3011 O   0  0  0  0  0  0  0  0  0  0  0  0
  1  2  1  6  0  0  0
  1  3  1  0  0  0  0
  1  4  2  0  0  0  0
  1 16  1  0  0  0  0
  5  6  1  1  0  0  0
  5  7  1  0  0  0  0
  5 14  1  0  0  0  0
  7  8  1  6  0  0  0
  7  9  1  0  0  0  0
  9 10  1  1  0  0  0
  9 11  1  0  0  0  0
 11 12  1  1  0  0  0
 11 13  1  0  0  0  0
 13 14  1  0  0  0  0
 13 15  1  6  0  0  0
 15 16  1  0  0  0  0
M  CHG  1   3  -1
M  END
>  <CHROM.1>
-93.60743626,-80.65702451,58.98316826,45.89472286,11.80443240,12.58376321
-0.04682833,0.36101522,-1.19779764

>  <Name>
ligand

>  <RI>
0

>  <Rbt.Current_Directory>
/home/itssahil/PROJECTS/Mol_Feturizer/New_Systems/rnas/3B4B

>  <Rbt.Executable>
rbdock ($Id: //depot/dev/client3/rdock/2013.1/src/exe/rbdock.cxx#4 $)

>  <Rbt.Library>
libRbt.so (2013.1, Build901 2013/11/27)

>  <Rbt.Parameter_File>
/export/apps/rDock/src/rDock_2013.1_src/data/scripts/dock_solv.prm

>  <Rbt.Receptor>
prm/pocket_docking_7.prm

>  <SCORE>
-8.00295

>  <SCORE.INTER>
-9.117

>  <SCORE.INTER.CONST>
1

>  <SCORE.INTER.POLAR>
-1.12403

>  <SCORE.INTER.ROT>
3

>  <SCORE.INTER.SOLV>
18.196

>  <SCORE.INTER.VDW>
-13.9965

>  <SCORE.INTER.norm>
-0.569813

>  <SCORE.INTRA>
1.11405

>  <SCORE.INTRA.DIHEDRAL>
2.82399

>  <SCORE.INTRA.DIHEDRAL.0>
2.21864

>  <SCORE.INTRA.POLAR>
0

>  <SCORE.INTRA.POLAR.0>
0

>  <SCORE.INTRA.REPUL>
0

>  <SCORE.INTRA.REPUL.0>
0

>  <SCORE.INTRA.SOLV>
-0.0805156

>  <SCORE.INTRA.SOLV.lig_0>
-58.5963

>  <SCORE.INTRA.VDW>
-0.257687

>  <SCORE.INTRA.VDW.0>
-0.437849

>  <SCORE.INTRA.norm>
0.0696283

>  <SCORE.RESTR>
0

>  <SCORE.RESTR.CAVITY>
0

>  <SCORE.RESTR.norm>
0

>  <SCORE.SYSTEM>
0

>  <SCORE.SYSTEM.CONST>
0

>  <SCORE.SYSTEM.DIHEDRAL>
0

>  <SCORE.SYSTEM.SOLV>
0

>  <SCORE.SYSTEM.norm>
0

>  <SCORE.heavy>
16

>  <SCORE.norm>
-0.500184

>  <RMSD>
2.797

$$$$
ligand
 OpenBabel11021811463D
libRbt.so/2013.1/901 2013/11/27
 16 16  0  0  0  0  0  0  0  0999 V2000
   47.2605    9.1630    9.4625 P   0  0  2  0  0  0  0  0  0  0  0  0
   46.9096    8.0931    8.4965 O   0  0  0  0  0  0  0  0  0  0  0  0
   47.5892   10.5330    8.6841 O   0  5  0  0  0  0  0  0  0  0  0  0
   48.5751    8.7157   10.2968 O   0  0  0  0  0  0  0  0  0  0  0  0
   43.8510   10.6084   14.1113 C   0  0  2  0  0  0  0  0  0  0  0  0
   42.7049   10.0093   13.4891 O   0  0  0  0  0  0  0  0  0  0  0  0
   43.6607   12.1393   14.3055 C   0  0  2  0  0  0  0  0  0  0  0  0
   42.4538   12.3940   15.1227 N   0  0  0  0  0  0  0  0  0  0  0  0
   43.5100   12.7967   12.9174 C   0  0  1  0  0  0  0  0  0  0  0  0
   43.3511   14.2196   13.0560 O   0  0  0  0  0  0  0  0  0  0  0  0
   44.7789   12.4947   12.1069 C   0  0  2  0  0  0  0  0  0  0  0  0
   44.6644   13.0803   10.8024 O   0  0  0  0  0  0  0  0  0  0  0  0
   44.9234   10.9550   11.9804 C   0  0  2  0  0  0  0  0  0  0  0  0
   45.0319   10.3483   13.3004 O   0  0  0  0  0  0  0  0  0  0  0  0
   46.1959   10.6220   11.1822 C   0  0  0  0  0  0  0  0  0  0  0  0
   46.0009    9.4008   10.4459 O   0  0  0  0  0  0  0  0  0  0  0  0
  1  2  1  6  0  0  0
  1  3  1  0  0  0  0
  1  4  2  0  0  0  0
  1 16  1  0  0  0  0
  5  6  1  6  0  0  0
  5  7  1  0  0  0  0
  5 14  1  0  0  0  0
  7  8  1  1  0  0  0
  7  9  1  0  0  0  0
  9 10  1  1  0  0  0
  9 11  1  0  0  0  0
 11 12  1  6  0  0  0
 11 13  1  0  0  0  0
 13 14  1  0  0  0  0
 13 15  1  6  0  0  0
 15 16  1  0  0  0  0
M  CHG  1   3  -1
M  END
>  <CHROM.1>
-148.73003042,172.53059396,-167.01784717,45.28832504,10.80852568,11.62473846
0.20584470,-0.90911721,2.77044495

>  <Name>
ligand

>  <RI>
0

>  <Rbt.Current_Directory>
/home/itssahil/PROJECTS/Mol_Feturizer/New_Systems/rnas/3B4B

>  <Rbt.Executable>
rbdock ($Id: //depot/dev/client3/rdock/2013.1/src/exe/rbdock.cxx#4 $)

>  <Rbt.Library>
libRbt.so (2013.1, Build901 2013/11/27)

>  <Rbt.Parameter_File>
/export/apps/rDock/src/rDock_2013.1_src/data/scripts/dock_solv.prm

>  <Rbt.Receptor>
prm/pocket_docking_6.prm

>  <SCORE>
-8.50414

>  <SCORE.INTER>
-8.5883

>  <SCORE.INTER.CONST>
1

>  <SCORE.INTER.POLAR>
-1.12466

>  <SCORE.INTER.ROT>
3

>  <SCORE.INTER.SOLV>
21.9159

>  <SCORE.INTER.VDW>
-14.8819

>  <SCORE.INTER.norm>
-0.536769

>  <SCORE.INTRA>
0.0841662

>  <SCORE.INTRA.DIHEDRAL>
1.14157

>  <SCORE.INTRA.DIHEDRAL.0>
2.21864

>  <SCORE.INTRA.POLAR>
0

>  <SCORE.INTRA.POLAR.0>
0

>  <SCORE.INTRA.REPUL>
0

>  <SCORE.INTRA.REPUL.0>
0

>  <SCORE.INTRA.SOLV>
-0.600619

>  <SCORE.INTRA.SOLV.lig_0>
-58.5963

>  <SCORE.INTRA.VDW>
-0.186312

>  <SCORE.INTRA.VDW.0>
-0.437849

>  <SCORE.INTRA.norm>
0.00526039

>  <SCORE.RESTR>
0

>  <SCORE.RESTR.CAVITY>
0

>  <SCORE.RESTR.norm>
0

>  <SCORE.SYSTEM>
0

>  <SCORE.SYSTEM.CONST>
0

>  <SCORE.SYSTEM.DIHEDRAL>
0

>  <SCORE.SYSTEM.SOLV>
0

>  <SCORE.SYSTEM.norm>
0

>  <SCORE.heavy>
16

>  <SCORE.norm>
-0.531508

>  <RMSD>
2.877

$$$$
ligand
 OpenBabel11021811463D
libRbt.so/2013.1/901 2013/11/27
 16 16  0  0  0  0  0  0  0  0999 V2000
   47.2841    9.9423    9.9110 P   0  0  2  0  0  0  0  0  0  0  0  0
   46.7444    8.6802    9.3482 O   0  0  0  0  0  0  0  0  0  0  0  0
   47.4598   11.0423    8.7490 O   0  5  0  0  0  0  0  0  0  0  0  0
   48.7350    9.6526   10.5706 O   0  0  0  0  0  0  0  0  0  0  0  0
   43.2005   10.8559   13.7255 C   0  0  2  0  0  0  0  0  0  0  0  0
   41.8549   10.6037   13.2948 O   0  0  0  0  0  0  0  0  0  0  0  0
   43.4234   12.3596   14.0524 C   0  0  2  0  0  0  0  0  0  0  0  0
   42.4709   12.7907   15.0994 N   0  0  0  0  0  0  0  0  0  0  0  0
   43.2040   13.1812   12.7646 C   0  0  1  0  0  0  0  0  0  0  0  0
   43.4212   14.5794   13.0240 O   0  0  0  0  0  0  0  0  0  0  0  0
   44.2054   12.6896   11.7093 C   0  0  2  0  0  0  0  0  0  0  0  0
   44.0173   13.4244   10.4918 O   0  0  0  0  0  0  0  0  0  0  0  0
   43.9482   11.1804   11.4568 C   0  0  2  0  0  0  0  0  0  0  0  0
   44.1280   10.4248   12.6892 O   0  0  0  0  0  0  0  0  0  0  0  0
   44.9476   10.6565   10.4108 C   0  0  0  0  0  0  0  0  0  0  0  0
   46.2442   10.4987   11.0152 O   0  0  0  0  0  0  0  0  0  0  0  0
  1  2  1  6  0  0  0
  1  3  1  0  0  0  0
  1  4  2  0  0  0  0
  1 16  1  0  0  0  0
  5  6  1  6  0  0  0
  5  7  1  0  0  0  0
  5 14  1  0  0  0  0
  7  8  1  1  0  0  0
  7  9  1  0  0  0  0
  9 10  1  1  0  0  0
  9 11  1  0  0  0  0
 11 12  1  6  0  0  0
 11 13  1  0  0  0  0
 13 14  1  0  0  0  0
 13 15  1  6  0  0  0
 15 16  1  0  0  0  0
M  CHG  1   3  -1
M  END
>  <CHROM.1>
75.40146705,179.74941859,-56.10791410,44.94006499,11.27993562,11.58598415
0.23266802,-0.77220633,2.85026797

>  <Name>
ligand

>  <RI>
0

>  <Rbt.Current_Directory>
/home/itssahil/PROJECTS/Mol_Feturizer/New_Systems/rnas/3B4B

>  <Rbt.Executable>
rbdock ($Id: //depot/dev/client3/rdock/2013.1/src/exe/rbdock.cxx#4 $)

>  <Rbt.Library>
libRbt.so (2013.1, Build901 2013/11/27)

>  <Rbt.Parameter_File>
/export/apps/rDock/src/rDock_2013.1_src/data/scripts/dock_solv.prm

>  <Rbt.Receptor>
prm/pocket_docking_6.prm

>  <SCORE>
-7.66912

>  <SCORE.INTER>
-6.40246

>  <SCORE.INTER.CONST>
1

>  <SCORE.INTER.POLAR>
-1.125

>  <SCORE.INTER.ROT>
3

>  <SCORE.INTER.SOLV>
19.6262

>  <SCORE.INTER.VDW>
-12.6604

>  <SCORE.INTER.norm>
-0.400154

>  <SCORE.INTRA>
-1.26666

>  <SCORE.INTRA.DIHEDRAL>
-1.37711

>  <SCORE.INTRA.DIHEDRAL.0>
2.21864

>  <SCORE.INTRA.POLAR>
0

>  <SCORE.INTRA.POLAR.0>
0

>  <SCORE.INTRA.REPUL>
0

>  <SCORE.INTRA.REPUL.0>
0

>  <SCORE.INTRA.SOLV>
-0.967845

>  <SCORE.INTRA.SOLV.lig_0>
-58.5963

>  <SCORE.INTRA.VDW>
-0.0941878

>  <SCORE.INTRA.VDW.0>
-0.437849

>  <SCORE.INTRA.norm>
-0.0791665

>  <SCORE.RESTR>
0

>  <SCORE.RESTR.CAVITY>
0

>  <SCORE.RESTR.norm>
0

>  <SCORE.SYSTEM>
0

>  <SCORE.SYSTEM.CONST>
0

>  <SCORE.SYSTEM.DIHEDRAL>
0

>  <SCORE.SYSTEM.SOLV>
0

>  <SCORE.SYSTEM.norm>
0

>  <SCORE.heavy>
16

>  <SCORE.norm>
-0.47932

>  <RMSD>
2.890

$$$$
ligand
 OpenBabel11021811463D
libRbt.so/2013.1/901 2013/11/27
 16 16  0  0  0  0  0  0  0  0999 V2000
   47.2329    9.1682    9.5040 P   0  0  2  0  0  0  0  0  0  0  0  0
   46.8857    8.0672    8.5723 O   0  0  0  0  0  0  0  0  0  0  0  0
   47.5240   10.5228    8.6846 O   0  5  0  0  0  0  0  0  0  0  0  0
   48.5689    8.7665   10.3273 O   0  0  0  0  0  0  0  0  0  0  0  0
   43.7513   10.5939   14.0460 C   0  0  2  0  0  0  0  0  0  0  0  0
   42.5982   10.0565   13.3818 O   0  0  0  0  0  0  0  0  0  0  0  0
   43.5986   12.1182   14.3124 C   0  0  2  0  0  0  0  0  0  0  0  0
   42.3882   12.3652   15.1267 N   0  0  0  0  0  0  0  0  0  0  0  0
   43.4832   12.8458   12.9563 C   0  0  1  0  0  0  0  0  0  0  0  0
   43.3598   14.2641   13.1623 O   0  0  0  0  0  0  0  0  0  0  0  0
   44.7544   12.5497   12.1471 C   0  0  2  0  0  0  0  0  0  0  0  0
   44.6722   13.2007   10.8714 O   0  0  0  0  0  0  0  0  0  0  0  0
   44.8602   11.0146   11.9473 C   0  0  2  0  0  0  0  0  0  0  0  0
   44.9355   10.3420   13.2373 O   0  0  0  0  0  0  0  0  0  0  0  0
   46.1339   10.6868   11.1488 C   0  0  0  0  0  0  0  0  0  0  0  0
   45.9856    9.4096   10.5020 O   0  0  0  0  0  0  0  0  0  0  0  0
  1  2  1  6  0  0  0
  1  3  1  0  0  0  0
  1  4  2  0  0  0  0
  1 16  1  0  0  0  0
  5  6  1  6  0  0  0
  5  7  1  0  0  0  0
  5 14  1  0  0  0  0
  7  8  1  1  0  0  0
  7  9  1  0  0  0  0
  9 10  1  1  0  0  0
  9 11  1  0  0  0  0
 11 12  1  6  0  0  0
 11 13  1  0  0  0  0
 13 14  1  0  0  0  0
 13 15  1  6  0  0  0
 15 16  1  0  0  0  0
M  CHG  1   3  -1
M  END
>  <CHROM.1>
-156.87678197,172.10008417,-163.92742738,45.24472828,10.83232921,11.63820428
0.27365038,-0.89176086,2.84786109

>  <Name>
ligand

>  <RI>
0

>  <Rbt.Current_Directory>
/home/itssahil/PROJECTS/Mol_Feturizer/New_Systems/rnas/3B4B

>  <Rbt.Executable>
rbdock ($Id: //depot/dev/client3/rdock/2013.1/src/exe/rbdock.cxx#4 $)

>  <Rbt.Library>
libRbt.so (2013.1, Build901 2013/11/27)

>  <Rbt.Parameter_File>
/export/apps/rDock/src/rDock_2013.1_src/data/scripts/dock_solv.prm

>  <Rbt.Receptor>
prm/pocket_docking_6.prm

>  <SCORE>
-8.45422

>  <SCORE.INTER>
-8.13335

>  <SCORE.INTER.CONST>
1

>  <SCORE.INTER.POLAR>
-1.125

>  <SCORE.INTER.ROT>
3

>  <SCORE.INTER.SOLV>
21.9491

>  <SCORE.INTER.VDW>
-14.5886

>  <SCORE.INTER.norm>
-0.508334

>  <SCORE.INTRA>
-0.321073

>  <SCORE.INTRA.DIHEDRAL>
0.202151

>  <SCORE.INTRA.DIHEDRAL.0>
2.21864

>  <SCORE.INTRA.POLAR>
0

>  <SCORE.INTRA.POLAR.0>
0

>  <SCORE.INTRA.REPUL>
0

>  <SCORE.INTRA.REPUL.0>
0

>  <SCORE.INTRA.SOLV>
-0.613814

>  <SCORE.INTRA.SOLV.lig_0>
-58.5963

>  <SCORE.INTRA.VDW>
-0.115241

>  <SCORE.INTRA.VDW.0>
-0.437849

>  <SCORE.INTRA.norm>
-0.020067

>  <SCORE.RESTR>
0.000199693

>  <SCORE.RESTR.CAVITY>
0.000199693

>  <SCORE.RESTR.norm>
1.24808e-05

>  <SCORE.SYSTEM>
0

>  <SCORE.SYSTEM.CONST>
0

>  <SCORE.SYSTEM.DIHEDRAL>
0

>  <SCORE.SYSTEM.SOLV>
0

>  <SCORE.SYSTEM.norm>
0

>  <SCORE.heavy>
16

>  <SCORE.norm>
-0.528389

>  <RMSD>
2.900

$$$$
ligand
 OpenBabel11021811463D
libRbt.so/2013.1/901 2013/11/27
 16 16  0  0  0  0  0  0  0  0999 V2000
   49.1390   11.4643    9.5657 P   0  0  2  0  0  0  0  0  0  0  0  0
   48.6729   10.3617    8.6894 O   0  0  0  0  0  0  0  0  0  0  0  0
   49.8725   12.6003    8.6924 O   0  5  0  0  0  0  0  0  0  0  0  0
   50.1981   10.8769   10.6416 O   0  0  0  0  0  0  0  0  0  0  0  0
   43.8728   12.5654   11.7909 C   0  0  2  0  0  0  0  0  0  0  0  0
   44.2358   13.8881   12.2131 O   0  0  0  0  0  0  0  0  0  0  0  0
   43.4193   11.6869   12.9910 C   0  0  2  0  0  0  0  0  0  0  0  0
   42.2755   12.3279   13.6765 N   0  0  0  0  0  0  0  0  0  0  0  0
   44.6056   11.5358   13.9666 C   0  0  1  0  0  0  0  0  0  0  0  0
   44.2288   10.7108   15.0831 O   0  0  0  0  0  0  0  0  0  0  0  0
   45.7667   10.8783   13.2064 C   0  0  2  0  0  0  0  0  0  0  0  0
   46.8935   10.7369   14.0829 O   0  0  0  0  0  0  0  0  0  0  0  0
   46.1445   11.7887   12.0082 C   0  0  2  0  0  0  0  0  0  0  0  0
   45.0043   11.9465   11.1153 O   0  0  0  0  0  0  0  0  0  0  0  0
   47.2994   11.1473   11.2193 C   0  0  0  0  0  0  0  0  0  0  0  0
   47.8562   12.1100   10.3058 O   0  0  0  0  0  0  0  0  0  0  0  0
  1  2  1  6  0  0  0
  1  3  1  0  0  0  0
  1  4  2  0  0  0  0
  1 16  1  0  0  0  0
  5  6  1  1  0  0  0
  5  7  1  0  0  0  0
  5 14  1  0  0  0  0
  7  8  1  1  0  0  0
  7  9  1  0  0  0  0
  9 10  1  1  0  0  0
  9 11  1  0  0  0  0
 11 12  1  1  0  0  0
 11 13  1  0  0  0  0
 13 14  1  0  0  0  0
 13 15  1  6  0  0  0
 15 16  1  0  0  0  0
M  CHG  1   3  -1
M  END
>  <CHROM.1>
-166.89659843,175.65014233,67.04334020,46.50009819,11.64944824,11.62677561
0.51378581,0.40771200,-1.06049712

>  <Name>
ligand

>  <RI>
0

>  <Rbt.Current_Directory>
/home/itssahil/PROJECTS/Mol_Feturizer/New_Systems/rnas/3B4B

>  <Rbt.Executable>
rbdock ($Id: //depot/dev/client3/rdock/2013.1/src/exe/rbdock.cxx#4 $)

>  <Rbt.Library>
libRbt.so (2013.1, Build901 2013/11/27)

>  <Rbt.Parameter_File>
/export/apps/rDock/src/rDock_2013.1_src/data/scripts/dock_solv.prm

>  <Rbt.Receptor>
prm/pocket_docking_5.prm

>  <SCORE>
-7.47644

>  <SCORE.INTER>
-6.03914

>  <SCORE.INTER.CONST>
1

>  <SCORE.INTER.POLAR>
-1.125

>  <SCORE.INTER.ROT>
3

>  <SCORE.INTER.SOLV>
15.8306

>  <SCORE.INTER.VDW>
-11.1529

>  <SCORE.INTER.norm>
-0.377446

>  <SCORE.INTRA>
-1.4373

>  <SCORE.INTRA.DIHEDRAL>
-1.44346

>  <SCORE.INTRA.DIHEDRAL.0>
2.21864

>  <SCORE.INTRA.POLAR>
0

>  <SCORE.INTRA.POLAR.0>
0

>  <SCORE.INTRA.REPUL>
0

>  <SCORE.INTRA.REPUL.0>
0

>  <SCORE.INTRA.SOLV>
-1.15116

>  <SCORE.INTRA.SOLV.lig_0>
-58.5963

>  <SCORE.INTRA.VDW>
-0.139994

>  <SCORE.INTRA.VDW.0>
-0.437849

>  <SCORE.INTRA.norm>
-0.0898315

>  <SCORE.RESTR>
0

>  <SCORE.RESTR.CAVITY>
0

>  <SCORE.RESTR.norm>
0

>  <SCORE.SYSTEM>
0

>  <SCORE.SYSTEM.CONST>
0

>  <SCORE.SYSTEM.DIHEDRAL>
0

>  <SCORE.SYSTEM.SOLV>
0

>  <SCORE.SYSTEM.norm>
0

>  <SCORE.heavy>
16

>  <SCORE.norm>
-0.467277

>  <RMSD>
2.906

$$$$
ligand
 OpenBabel11021811463D
libRbt.so/2013.1/901 2013/11/27
 16 16  0  0  0  0  0  0  0  0999 V2000
   47.9712   10.6266   11.8563 P   0  0  2  0  0  0  0  0  0  0  0  0
   47.7384   12.0272   12.2865 O   0  0  0  0  0  0  0  0  0  0  0  0
   49.4268   10.1305   12.3320 O   0  5  0  0  0  0  0  0  0  0  0  0
   47.9027   10.5487   10.2397 O   0  0  0  0  0  0  0  0  0  0  0  0
   43.3361   12.9077   11.7433 C   0  0  2  0  0  0  0  0  0  0  0  0
   44.3304   13.9400   11.6701 O   0  0  0  0  0  0  0  0  0  0  0  0
   42.7021   12.8245   13.1606 C   0  0  2  0  0  0  0  0  0  0  0  0
   42.1008   14.1285   13.5172 N   0  0  0  0  0  0  0  0  0  0  0  0
   43.8066   12.4550   14.1731 C   0  0  1  0  0  0  0  0  0  0  0  0
   43.2527   12.3495   15.4965 O   0  0  0  0  0  0  0  0  0  0  0  0
   44.4047   11.1041   13.7538 C   0  0  2  0  0  0  0  0  0  0  0  0
   45.4477   10.7380   14.6681 O   0  0  0  0  0  0  0  0  0  0  0  0
   44.9878   11.2504   12.3234 C   0  0  2  0  0  0  0  0  0  0  0  0
   43.9385   11.6309   11.3873 O   0  0  0  0  0  0  0  0  0  0  0  0
   45.5838    9.9059   11.8712 C   0  0  0  0  0  0  0  0  0  0  0  0
   46.8437    9.6872   12.5319 O   0  0  0  0  0  0  0  0  0  0  0  0
  1  2  1  1  0  0  0
  1  3  1  0  0  0  0
  1  4  2  0  0  0  0
  1 16  1  0  0  0  0
  5  6  1  1  0  0  0
  5  7  1  0  0  0  0
  5 14  1  0  0  0  0
  7  8  1  1  0  0  0
  7  9  1  0  0  0  0
  9 10  1  1  0  0  0
  9 11  1  0  0  0  0
 11 12  1  1  0  0  0
 11 13  1  0  0  0  0
 13 14  1  0  0  0  0
 13 15  1  6  0  0  0
 15 16  1  0  0  0  0
M  CHG  1   3  -1
M  END
>  <CHROM.1>
-75.57088184,-75.24914436,73.58024109,45.50249540,11.54695345,12.61836393
0.11530228,0.53397282,-1.19970581

>  <Name>
ligand

>  <RI>
0

>  <Rbt.Current_Directory>
/home/itssahil/PROJECTS/Mol_Feturizer/New_Systems/rnas/3B4B

>  <Rbt.Executable>
rbdock ($Id: //depot/dev/client3/rdock/2013.1/src/exe/rbdock.cxx#4 $)

>  <Rbt.Library>
libRbt.so (2013.1, Build901 2013/11/27)

>  <Rbt.Parameter_File>
/export/apps/rDock/src/rDock_2013.1_src/data/scripts/dock_solv.prm

>  <Rbt.Receptor>
prm/pocket_docking_3.prm

>  <SCORE>
-8.31793

>  <SCORE.INTER>
-8.37144

>  <SCORE.INTER.CONST>
1

>  <SCORE.INTER.POLAR>
-1.125

>  <SCORE.INTER.ROT>
3

>  <SCORE.INTER.SOLV>
19.4775

>  <SCORE.INTER.VDW>
-13.9235

>  <SCORE.INTER.norm>
-0.523215

>  <SCORE.INTRA>
0.0535083

>  <SCORE.INTRA.DIHEDRAL>
-0.0081947

>  <SCORE.INTRA.DIHEDRAL.0>
2.21864

>  <SCORE.INTRA.POLAR>
0

>  <SCORE.INTRA.POLAR.0>
0

>  <SCORE.INTRA.REPUL>
0

>  <SCORE.INTRA.REPUL.0>
0

>  <SCORE.INTRA.SOLV>
0.616752

>  <SCORE.INTRA.SOLV.lig_0>
-58.5963

>  <SCORE.INTRA.VDW>
-0.25077

>  <SCORE.INTRA.VDW.0>
-0.437849

>  <SCORE.INTRA.norm>
0.00334427

>  <SCORE.RESTR>
0

>  <SCORE.RESTR.CAVITY>
0

>  <SCORE.RESTR.norm>
0

>  <SCORE.SYSTEM>
0

>  <SCORE.SYSTEM.CONST>
0

>  <SCORE.SYSTEM.DIHEDRAL>
0

>  <SCORE.SYSTEM.SOLV>
0

>  <SCORE.SYSTEM.norm>
0

>  <SCORE.heavy>
16

>  <SCORE.norm>
-0.519871

>  <RMSD>
2.964

$$$$
ligand
 OpenBabel11021811463D
libRbt.so/2013.1/901 2013/11/27
 16 16  0  0  0  0  0  0  0  0999 V2000
   48.4087   10.9781   10.0381 P   0  0  2  0  0  0  0  0  0  0  0  0
   47.8170    9.6786    9.6354 O   0  0  0  0  0  0  0  0  0  0  0  0
   48.3649   12.0169    8.8092 O   0  5  0  0  0  0  0  0  0  0  0  0
   49.9546   10.7489   10.4646 O   0  0  0  0  0  0  0  0  0  0  0  0
   43.0811   12.7615   12.7152 C   0  0  2  0  0  0  0  0  0  0  0  0
   43.5090   14.0590   13.1548 O   0  0  0  0  0  0  0  0  0  0  0  0
   43.0972   11.7300   13.8785 C   0  0  2  0  0  0  0  0  0  0  0  0
   42.2260   12.2015   14.9776 N   0  0  0  0  0  0  0  0  0  0  0  0
   44.5486   11.5767   14.3805 C   0  0  1  0  0  0  0  0  0  0  0  0
   44.6064   10.6131   15.4470 O   0  0  0  0  0  0  0  0  0  0  0  0
   45.4115   11.0980   13.2039 C   0  0  2  0  0  0  0  0  0  0  0  0
   46.7731   10.9597   13.6340 O   0  0  0  0  0  0  0  0  0  0  0  0
   45.3235   12.1549   12.0712 C   0  0  2  0  0  0  0  0  0  0  0  0
   43.9432   12.3101   11.6322 O   0  0  0  0  0  0  0  0  0  0  0  0
   46.1702   11.6946   10.8718 C   0  0  0  0  0  0  0  0  0  0  0  0
   47.5486   11.5754   11.2684 O   0  0  0  0  0  0  0  0  0  0  0  0
  1  2  1  6  0  0  0
  1  3  1  0  0  0  0
  1  4  2  0  0  0  0
  1 16  1  0  0  0  0
  5  6  1  1  0  0  0
  5  7  1  0  0  0  0
  5 14  1  0  0  0  0
  7  8  1  1  0  0  0
  7  9  1  0  0  0  0
  9 10  1  1  0  0  0
  9 11  1  0  0  0  0
 11 12  1  1  0  0  0
 11 13  1  0  0  0  0
 13 14  1  0  0  0  0
 13 15  1  6  0  0  0
 15 16  1  0  0  0  0
M  CHG  1   3  -1
M  END
>  <CHROM.1>
-61.41966472,175.45974692,-56.84223573,45.94146673,11.57730751,12.06030742
-0.49814845,-0.51556081,2.02788136

>  <Name>
ligand

>  <RI>
0

>  <Rbt.Current_Directory>
/home/itssahil/PROJECTS/Mol_Feturizer/New_Systems/rnas/3B4B

>  <Rbt.Executable>
rbdock ($Id: //depot/dev/client3/rdock/2013.1/src/exe/rbdock.cxx#4 $)

>  <Rbt.Library>
libRbt.so (2013.1, Build901 2013/11/27)

>  <Rbt.Parameter_File>
/export/apps/rDock/src/rDock_2013.1_src/data/scripts/dock_solv.prm

>  <Rbt.Receptor>
prm/pocket_docking_4.prm

>  <SCORE>
-7.8289

>  <SCORE.INTER>
-6.688

>  <SCORE.INTER.CONST>
1

>  <SCORE.INTER.POLAR>
-1.125

>  <SCORE.INTER.ROT>
3

>  <SCORE.INTER.SOLV>
20.2651

>  <SCORE.INTER.VDW>
-13.0637

>  <SCORE.INTER.norm>
-0.418

>  <SCORE.INTRA>
-1.1409

>  <SCORE.INTRA.DIHEDRAL>
-2.0925

>  <SCORE.INTRA.DIHEDRAL.0>
2.21864

>  <SCORE.INTRA.POLAR>
0

>  <SCORE.INTRA.POLAR.0>
0

>  <SCORE.INTRA.REPUL>
0

>  <SCORE.INTRA.REPUL.0>
0

>  <SCORE.INTRA.SOLV>
-0.644385

>  <SCORE.INTRA.SOLV.lig_0>
-58.5963

>  <SCORE.INTRA.VDW>
0.227549

>  <SCORE.INTRA.VDW.0>
-0.437849

>  <SCORE.INTRA.norm>
-0.071306

>  <SCORE.RESTR>
0

>  <SCORE.RESTR.CAVITY>
0

>  <SCORE.RESTR.norm>
0

>  <SCORE.SYSTEM>
0

>  <SCORE.SYSTEM.CONST>
0

>  <SCORE.SYSTEM.DIHEDRAL>
0

>  <SCORE.SYSTEM.SOLV>
0

>  <SCORE.SYSTEM.norm>
0

>  <SCORE.heavy>
16

>  <SCORE.norm>
-0.489306

>  <RMSD>
2.984

$$$$
ligand
 OpenBabel11021811463D
libRbt.so/2013.1/901 2013/11/27
 16 16  0  0  0  0  0  0  0  0999 V2000
   47.9712   10.6656   11.9263 P   0  0  2  0  0  0  0  0  0  0  0  0
   47.7367   12.1306   11.9344 O   0  0  0  0  0  0  0  0  0  0  0  0
   49.5339   10.3486   12.1468 O   0  5  0  0  0  0  0  0  0  0  0  0
   47.5202   10.0630   10.4918 O   0  0  0  0  0  0  0  0  0  0  0  0
   43.7729   12.7851   11.3662 C   0  0  2  0  0  0  0  0  0  0  0  0
   44.7888   13.7980   11.4046 O   0  0  0  0  0  0  0  0  0  0  0  0
   42.7394   12.9687   12.5132 C   0  0  2  0  0  0  0  0  0  0  0  0
   42.1183   14.3083   12.4177 N   0  0  0  0  0  0  0  0  0  0  0  0
   43.4709   12.8183   13.8638 C   0  0  1  0  0  0  0  0  0  0  0  0
   42.5409   12.9629   14.9516 O   0  0  0  0  0  0  0  0  0  0  0  0
   44.1056   11.4206   13.9086 C   0  0  2  0  0  0  0  0  0  0  0  0
   44.8082   11.2535   15.1481 O   0  0  0  0  0  0  0  0  0  0  0  0
   45.0974   11.2957   12.7220 C   0  0  2  0  0  0  0  0  0  0  0  0
   44.3960   11.4724   11.4575 O   0  0  0  0  0  0  0  0  0  0  0  0
   45.7404    9.8979   12.7343 C   0  0  0  0  0  0  0  0  0  0  0  0
   47.1205   10.0023   13.1289 O   0  0  0  0  0  0  0  0  0  0  0  0
  1  2  1  1  0  0  0
  1  3  1  0  0  0  0
  1  4  2  0  0  0  0
  1 16  1  0  0  0  0
  5  6  1  1  0  0  0
  5  7  1  0  0  0  0
  5 14  1  0  0  0  0
  7  8  1  1  0  0  0
  7  9  1  0  0  0  0
  9 10  1  1  0  0  0
  9 11  1  0  0  0  0
 11 12  1  1  0  0  0
 11 13  1  0  0  0  0
 13 14  1  0  0  0  0
 13 15  1  6  0  0  0
 15 16  1  0  0  0  0
M  CHG  1   3  -1
M  END
>  <CHROM.1>
-108.72026764,-72.28697619,78.15852674,45.48189509,11.66200506,12.57686828
0.01242119,0.52132293,-1.11256134

>  <Name>
ligand

>  <RI>
0

>  <Rbt.Current_Directory>
/home/itssahil/PROJECTS/Mol_Feturizer/New_Systems/rnas/3B4B

>  <Rbt.Executable>
rbdock ($Id: //depot/dev/client3/rdock/2013.1/src/exe/rbdock.cxx#4 $)

>  <Rbt.Library>
libRbt.so (2013.1, Build901 2013/11/27)

>  <Rbt.Parameter_File>
/export/apps/rDock/src/rDock_2013.1_src/data/scripts/dock_solv.prm

>  <Rbt.Receptor>
prm/pocket_docking_4.prm

>  <SCORE>
-7.90165

>  <SCORE.INTER>
-9.89199

>  <SCORE.INTER.CONST>
1

>  <SCORE.INTER.POLAR>
-1.1244

>  <SCORE.INTER.ROT>
3

>  <SCORE.INTER.SOLV>
17.0908

>  <SCORE.INTER.VDW>
-14.1436

>  <SCORE.INTER.norm>
-0.618249

>  <SCORE.INTRA>
1.99035

>  <SCORE.INTRA.DIHEDRAL>
3.83913

>  <SCORE.INTRA.DIHEDRAL.0>
2.21864

>  <SCORE.INTRA.POLAR>
0

>  <SCORE.INTRA.POLAR.0>
0

>  <SCORE.INTRA.REPUL>
0

>  <SCORE.INTRA.REPUL.0>
0

>  <SCORE.INTRA.SOLV>
0.714104

>  <SCORE.INTRA.SOLV.lig_0>
-58.5963

>  <SCORE.INTRA.VDW>
-0.286271

>  <SCORE.INTRA.VDW.0>
-0.437849

>  <SCORE.INTRA.norm>
0.124397

>  <SCORE.RESTR>
0

>  <SCORE.RESTR.CAVITY>
0

>  <SCORE.RESTR.norm>
0

>  <SCORE.SYSTEM>
0

>  <SCORE.SYSTEM.CONST>
0

>  <SCORE.SYSTEM.DIHEDRAL>
0

>  <SCORE.SYSTEM.SOLV>
0

>  <SCORE.SYSTEM.norm>
0

>  <SCORE.heavy>
16

>  <SCORE.norm>
-0.493853

>  <RMSD>
3.012

$$$$
ligand
 OpenBabel11021811463D
libRbt.so/2013.1/901 2013/11/27
 16 16  0  0  0  0  0  0  0  0999 V2000
   47.8430   10.4553   11.9792 P   0  0  2  0  0  0  0  0  0  0  0  0
   47.7457   11.9240   12.1655 O   0  0  0  0  0  0  0  0  0  0  0  0
   49.3025    9.9325   12.4126 O   0  5  0  0  0  0  0  0  0  0  0  0
   47.6118   10.1013   10.4155 O   0  0  0  0  0  0  0  0  0  0  0  0
   43.5138   12.7778   11.0580 C   0  0  2  0  0  0  0  0  0  0  0  0
   44.5878   13.7230   10.9452 O   0  0  0  0  0  0  0  0  0  0  0  0
   42.6462   13.0467   12.3200 C   0  0  2  0  0  0  0  0  0  0  0  0
   42.1030   14.4220   12.2702 N   0  0  0  0  0  0  0  0  0  0  0  0
   43.5310   12.8708   13.5723 C   0  0  1  0  0  0  0  0  0  0  0  0
   42.7560   13.0932   14.7635 O   0  0  0  0  0  0  0  0  0  0  0  0
   44.0778   11.4358   13.5715 C   0  0  2  0  0  0  0  0  0  0  0  0
   44.9188   11.2434   14.7176 O   0  0  0  0  0  0  0  0  0  0  0  0
   44.9027   11.2275   12.2740 C   0  0  2  0  0  0  0  0  0  0  0  0
   44.0602   11.4290   11.1028 O   0  0  0  0  0  0  0  0  0  0  0  0
   45.4535    9.7912   12.2400 C   0  0  0  0  0  0  0  0  0  0  0  0
   46.7279    9.7446   12.9073 O   0  0  0  0  0  0  0  0  0  0  0  0
  1  2  1  1  0  0  0
  1  3  1  0  0  0  0
  1  4  2  0  0  0  0
  1 16  1  0  0  0  0
  5  6  1  1  0  0  0
  5  7  1  0  0  0  0
  5 14  1  0  0  0  0
  7  8  1  6  0  0  0
  7  9  1  0  0  0  0
  9 10  1  1  0  0  0
  9 11  1  0  0  0  0
 11 12  1  1  0  0  0
 11 13  1  0  0  0  0
 13 14  1  0  0  0  0
 13 15  1  1  0  0  0
 15 16  1  0  0  0  0
M  CHG  1   3  -1
M  END
>  <CHROM.1>
-88.37282651,-72.83095819,81.18240618,45.37612646,11.58683928,12.38787313
-0.02263104,0.55174780,-1.24520348

>  <Name>
ligand

>  <RI>
0

>  <Rbt.Current_Directory>
/home/itssahil/PROJECTS/Mol_Feturizer/New_Systems/rnas/3B4B

>  <Rbt.Executable>
rbdock ($Id: //depot/dev/client3/rdock/2013.1/src/exe/rbdock.cxx#4 $)

>  <Rbt.Library>
libRbt.so (2013.1, Build901 2013/11/27)

>  <Rbt.Parameter_File>
/export/apps/rDock/src/rDock_2013.1_src/data/scripts/dock_solv.prm

>  <Rbt.Receptor>
prm/pocket_docking_4.prm

>  <SCORE>
-8.38488

>  <SCORE.INTER>
-9.33242

>  <SCORE.INTER.CONST>
1

>  <SCORE.INTER.POLAR>
-1.12369

>  <SCORE.INTER.ROT>
3

>  <SCORE.INTER.SOLV>
17.0219

>  <SCORE.INTER.VDW>
-13.75

>  <SCORE.INTER.norm>
-0.583276

>  <SCORE.INTRA>
0.94754

>  <SCORE.INTRA.DIHEDRAL>
1.64672

>  <SCORE.INTRA.DIHEDRAL.0>
2.21864

>  <SCORE.INTRA.POLAR>
0

>  <SCORE.INTRA.POLAR.0>
0

>  <SCORE.INTRA.REPUL>
0

>  <SCORE.INTRA.REPUL.0>
0

>  <SCORE.INTRA.SOLV>
0.800707

>  <SCORE.INTRA.SOLV.lig_0>
-58.5963

>  <SCORE.INTRA.VDW>
-0.276175

>  <SCORE.INTRA.VDW.0>
-0.437849

>  <SCORE.INTRA.norm>
0.0592213

>  <SCORE.RESTR>
0

>  <SCORE.RESTR.CAVITY>
0

>  <SCORE.RESTR.norm>
0

>  <SCORE.SYSTEM>
0

>  <SCORE.SYSTEM.CONST>
0

>  <SCORE.SYSTEM.DIHEDRAL>
0

>  <SCORE.SYSTEM.SOLV>
0

>  <SCORE.SYSTEM.norm>
0

>  <SCORE.heavy>
16

>  <SCORE.norm>
-0.524055

>  <RMSD>
3.085

$$$$
ligand
 OpenBabel11021811463D
libRbt.so/2013.1/901 2013/11/27
 16 16  0  0  0  0  0  0  0  0999 V2000
   47.7851   10.3454   12.1126 P   0  0  2  0  0  0  0  0  0  0  0  0
   47.7806   11.8062   12.3712 O   0  0  0  0  0  0  0  0  0  0  0  0
   49.2125    9.7129   12.5042 O   0  5  0  0  0  0  0  0  0  0  0  0
   47.5204   10.0838   10.5359 O   0  0  0  0  0  0  0  0  0  0  0  0
   43.5372   12.8266   11.2024 C   0  0  2  0  0  0  0  0  0  0  0  0
   44.6351   13.7497   11.1560 O   0  0  0  0  0  0  0  0  0  0  0  0
   42.6375   13.0709   12.4468 C   0  0  2  0  0  0  0  0  0  0  0  0
   42.1270   14.4595   12.4305 N   0  0  0  0  0  0  0  0  0  0  0  0
   43.4792   12.8299   13.7177 C   0  0  1  0  0  0  0  0  0  0  0  0
   42.6732   13.0280   14.8926 O   0  0  0  0  0  0  0  0  0  0  0  0
   43.9934   11.3833   13.6814 C   0  0  2  0  0  0  0  0  0  0  0  0
   44.7944   11.1307   14.8444 O   0  0  0  0  0  0  0  0  0  0  0  0
   44.8529   11.2019   12.4024 C   0  0  2  0  0  0  0  0  0  0  0  0
   44.0516   11.4646   11.2146 O   0  0  0  0  0  0  0  0  0  0  0  0
   45.3722    9.7552   12.3330 C   0  0  0  0  0  0  0  0  0  0  0  0
   46.6351    9.6598   13.0167 O   0  0  0  0  0  0  0  0  0  0  0  0
  1  2  1  1  0  0  0
  1  3  1  0  0  0  0
  1  4  2  0  0  0  0
  1 16  1  0  0  0  0
  5  6  1  1  0  0  0
  5  7  1  0  0  0  0
  5 14  1  0  0  0  0
  7  8  1  1  0  0  0
  7  9  1  0  0  0  0
  9 10  1  1  0  0  0
  9 11  1  0  0  0  0
 11 12  1  1  0  0  0
 11 13  1  0  0  0  0
 13 14  1  0  0  0  0
 13 15  1  6  0  0  0
 15 16  1  0  0  0  0
M  CHG  1   3  -1
M  END
>  <CHROM.1>
-89.33112109,-73.99956591,84.20668069,45.33109763,11.53576976,12.52234201
-0.05812177,0.56935706,-1.18239838

>  <Name>
ligand

>  <RI>
0

>  <Rbt.Current_Directory>
/home/itssahil/PROJECTS/Mol_Feturizer/New_Systems/rnas/3B4B

>  <Rbt.Executable>
rbdock ($Id: //depot/dev/client3/rdock/2013.1/src/exe/rbdock.cxx#4 $)

>  <Rbt.Library>
libRbt.so (2013.1, Build901 2013/11/27)

>  <Rbt.Parameter_File>
/export/apps/rDock/src/rDock_2013.1_src/data/scripts/dock_solv.prm

>  <Rbt.Receptor>
prm/pocket_docking_3.prm

>  <SCORE>
-8.34258

>  <SCORE.INTER>
-9.50345

>  <SCORE.INTER.CONST>
1

>  <SCORE.INTER.POLAR>
-1.12493

>  <SCORE.INTER.ROT>
3

>  <SCORE.INTER.SOLV>
18.1581

>  <SCORE.INTER.VDW>
-14.2386

>  <SCORE.INTER.norm>
-0.593965

>  <SCORE.INTRA>
1.16087

>  <SCORE.INTRA.DIHEDRAL>
2.09762

>  <SCORE.INTRA.DIHEDRAL.0>
2.21864

>  <SCORE.INTRA.POLAR>
0

>  <SCORE.INTRA.POLAR.0>
0

>  <SCORE.INTRA.REPUL>
0

>  <SCORE.INTRA.REPUL.0>
0

>  <SCORE.INTRA.SOLV>
0.81639

>  <SCORE.INTRA.SOLV.lig_0>
-58.5963

>  <SCORE.INTRA.VDW>
-0.296137

>  <SCORE.INTRA.VDW.0>
-0.437849

>  <SCORE.INTRA.norm>
0.0725542

>  <SCORE.RESTR>
0

>  <SCORE.RESTR.CAVITY>
0

>  <SCORE.RESTR.norm>
0

>  <SCORE.SYSTEM>
0

>  <SCORE.SYSTEM.CONST>
0

>  <SCORE.SYSTEM.DIHEDRAL>
0

>  <SCORE.SYSTEM.SOLV>
0

>  <SCORE.SYSTEM.norm>
0

>  <SCORE.heavy>
16

>  <SCORE.norm>
-0.521411

>  <RMSD>
3.127

$$$$
ligand
 OpenBabel11021811463D
libRbt.so/2013.1/901 2013/11/27
 16 16  0  0  0  0  0  0  0  0999 V2000
   47.6087   10.3638   11.2322 P   0  0  2  0  0  0  0  0  0  0  0  0
   47.5619   11.6572   11.9574 O   0  0  0  0  0  0  0  0  0  0  0  0
   48.6981    9.3865   11.9022 O   0  5  0  0  0  0  0  0  0  0  0  0
   48.0349   10.6328    9.6927 O   0  0  0  0  0  0  0  0  0  0  0  0
   43.6004   12.8231   11.7620 C   0  0  2  0  0  0  0  0  0  0  0  0
   44.6296   13.8222   11.8088 O   0  0  0  0  0  0  0  0  0  0  0  0
   42.6749   12.8974   13.0092 C   0  0  2  0  0  0  0  0  0  0  0  0
   42.0663   14.2429   13.1014 N   0  0  0  0  0  0  0  0  0  0  0  0
   43.5208   12.6104   14.2678 C   0  0  1  0  0  0  0  0  0  0  0  0
   42.6926   12.6512   15.4432 O   0  0  0  0  0  0  0  0  0  0  0  0
   44.1377   11.2120   14.1184 C   0  0  2  0  0  0  0  0  0  0  0  0
   44.9447   10.9196   15.2678 O   0  0  0  0  0  0  0  0  0  0  0  0
   45.0189   11.2002   12.8414 C   0  0  2  0  0  0  0  0  0  0  0  0
   44.2111   11.5047   11.6681 O   0  0  0  0  0  0  0  0  0  0  0  0
   45.6412    9.8049   12.6590 C   0  0  0  0  0  0  0  0  0  0  0  0
   46.1511    9.6725   11.3196 O   0  0  0  0  0  0  0  0  0  0  0  0
  1  2  1  1  0  0  0
  1  3  1  0  0  0  0
  1  4  2  0  0  0  0
  1 16  1  0  0  0  0
  5  6  1  1  0  0  0
  5  7  1  0  0  0  0
  5 14  1  0  0  0  0
  7  8  1  1  0  0  0
  7  9  1  0  0  0  0
  9 10  1  1  0  0  0
  9 11  1  0  0  0  0
 11 12  1  1  0  0  0
 11 13  1  0  0  0  0
 13 14  1  0  0  0  0
 13 15  1  6  0  0  0
 15 16  1  0  0  0  0
M  CHG  1   3  -1
M  END
>  <CHROM.1>
164.52336380,81.70513255,-43.27208947,45.32032521,11.47468285,12.50750267
0.16438097,0.66148868,-1.05970540

>  <Name>
ligand

>  <RI>
0

>  <Rbt.Current_Directory>
/home/itssahil/PROJECTS/Mol_Feturizer/New_Systems/rnas/3B4B

>  <Rbt.Executable>
rbdock ($Id: //depot/dev/client3/rdock/2013.1/src/exe/rbdock.cxx#4 $)

>  <Rbt.Library>
libRbt.so (2013.1, Build901 2013/11/27)

>  <Rbt.Parameter_File>
/export/apps/rDock/src/rDock_2013.1_src/data/scripts/dock_solv.prm

>  <Rbt.Receptor>
prm/pocket_docking_3.prm

>  <SCORE>
-8.27071

>  <SCORE.INTER>
-9.15112

>  <SCORE.INTER.CONST>
1

>  <SCORE.INTER.POLAR>
-1.125

>  <SCORE.INTER.ROT>
3

>  <SCORE.INTER.SOLV>
19.3973

>  <SCORE.INTER.VDW>
-14.4165

>  <SCORE.INTER.norm>
-0.571945

>  <SCORE.INTRA>
0.880414

>  <SCORE.INTRA.DIHEDRAL>
1.12111

>  <SCORE.INTRA.DIHEDRAL.0>
2.21864

>  <SCORE.INTRA.POLAR>
0

>  <SCORE.INTRA.POLAR.0>
0

>  <SCORE.INTRA.REPUL>
0

>  <SCORE.INTRA.REPUL.0>
0

>  <SCORE.INTRA.SOLV>
-0.276475

>  <SCORE.INTRA.SOLV.lig_0>
-58.5963

>  <SCORE.INTRA.VDW>
0.458097

>  <SCORE.INTRA.VDW.0>
-0.437849

>  <SCORE.INTRA.norm>
0.0550259

>  <SCORE.RESTR>
0

>  <SCORE.RESTR.CAVITY>
0

>  <SCORE.RESTR.norm>
0

>  <SCORE.SYSTEM>
0

>  <SCORE.SYSTEM.CONST>
0

>  <SCORE.SYSTEM.DIHEDRAL>
0

>  <SCORE.SYSTEM.SOLV>
0

>  <SCORE.SYSTEM.norm>
0

>  <SCORE.heavy>
16

>  <SCORE.norm>
-0.516919

>  <RMSD>
3.155

$$$$
ligand
 OpenBabel11021811463D
libRbt.so/2013.1/901 2013/11/27
 16 16  0  0  0  0  0  0  0  0999 V2000
   47.8991   10.6202   12.0289 P   0  0  2  0  0  0  0  0  0  0  0  0
   48.4362   10.4832   13.4051 O   0  0  0  0  0  0  0  0  0  0  0  0
   49.0007   10.1574   10.9503 O   0  5  0  0  0  0  0  0  0  0  0  0
   47.5297   12.1734   11.7546 O   0  0  0  0  0  0  0  0  0  0  0  0
   43.8031   12.7026   11.4472 C   0  0  2  0  0  0  0  0  0  0  0  0
   44.8109   13.7238   11.4809 O   0  0  0  0  0  0  0  0  0  0  0  0
   42.7229   12.9296   12.5423 C   0  0  2  0  0  0  0  0  0  0  0  0
   42.0986   14.2588   12.3617 N   0  0  0  0  0  0  0  0  0  0  0  0
   43.3999   12.8450   13.9266 C   0  0  1  0  0  0  0  0  0  0  0  0
   42.4257   13.0312   14.9685 O   0  0  0  0  0  0  0  0  0  0  0  0
   44.0401   11.4556   14.0598 C   0  0  2  0  0  0  0  0  0  0  0  0
   44.6928   11.3493   15.3328 O   0  0  0  0  0  0  0  0  0  0  0  0
   45.0799   11.2852   12.9208 C   0  0  2  0  0  0  0  0  0  0  0  0
   44.4294   11.4000   11.6224 O   0  0  0  0  0  0  0  0  0  0  0  0
   45.7297    9.8941   13.0218 C   0  0  0  0  0  0  0  0  0  0  0  0
   46.5933    9.6789   11.8907 O   0  0  0  0  0  0  0  0  0  0  0  0
  1  2  1  1  0  0  0
  1  3  1  0  0  0  0
  1  4  2  0  0  0  0
  1 16  1  0  0  0  0
  5  6  1  1  0  0  0
  5  7  1  0  0  0  0
  5 14  1  0  0  0  0
  7  8  1  6  0  0  0
  7  9  1  0  0  0  0
  9 10  1  1  0  0  0
  9 11  1  0  0  0  0
 11 12  1  1  0  0  0
 11 13  1  0  0  0  0
 13 14  1  0  0  0  0
 13 15  1  6  0  0  0
 15 16  1  0  0  0  0
M  CHG  1   3  -1
M  END
>  <CHROM.1>
174.17141207,70.87055821,47.61625013,45.43066785,11.64764775,12.67643366
0.00562830,0.52722254,-1.09732244

>  <Name>
ligand

>  <RI>
0

>  <Rbt.Current_Directory>
/home/itssahil/PROJECTS/Mol_Feturizer/New_Systems/rnas/3B4B

>  <Rbt.Executable>
rbdock ($Id: //depot/dev/client3/rdock/2013.1/src/exe/rbdock.cxx#4 $)

>  <Rbt.Library>
libRbt.so (2013.1, Build901 2013/11/27)

>  <Rbt.Parameter_File>
/export/apps/rDock/src/rDock_2013.1_src/data/scripts/dock_solv.prm

>  <Rbt.Receptor>
prm/pocket_docking_3.prm

>  <SCORE>
-9.35544

>  <SCORE.INTER>
-9.88379

>  <SCORE.INTER.CONST>
1

>  <SCORE.INTER.POLAR>
-1.125

>  <SCORE.INTER.ROT>
3

>  <SCORE.INTER.SOLV>
18.0438

>  <SCORE.INTER.VDW>
-14.4538

>  <SCORE.INTER.norm>
-0.617737

>  <SCORE.INTRA>
0.528348

>  <SCORE.INTRA.DIHEDRAL>
-1.2892

>  <SCORE.INTRA.DIHEDRAL.0>
2.21864

>  <SCORE.INTRA.POLAR>
0

>  <SCORE.INTRA.POLAR.0>
0

>  <SCORE.INTRA.REPUL>
0

>  <SCORE.INTRA.REPUL.0>
0

>  <SCORE.INTRA.SOLV>
2.33936

>  <SCORE.INTRA.SOLV.lig_0>
-58.5963

>  <SCORE.INTRA.VDW>
0.00326491

>  <SCORE.INTRA.VDW.0>
-0.437849

>  <SCORE.INTRA.norm>
0.0330217

>  <SCORE.RESTR>
0

>  <SCORE.RESTR.CAVITY>
0

>  <SCORE.RESTR.norm>
0

>  <SCORE.SYSTEM>
0

>  <SCORE.SYSTEM.CONST>
0

>  <SCORE.SYSTEM.DIHEDRAL>
0

>  <SCORE.SYSTEM.SOLV>
0

>  <SCORE.SYSTEM.norm>
0

>  <SCORE.heavy>
16

>  <SCORE.norm>
-0.584715

>  <RMSD>
3.162

$$$$
ligand
 OpenBabel11021811463D
libRbt.so/2013.1/901 2013/11/27
 16 16  0  0  0  0  0  0  0  0999 V2000
   47.8989   10.6122   12.0290 P   0  0  2  0  0  0  0  0  0  0  0  0
   48.4422   10.4647   13.4017 O   0  0  0  0  0  0  0  0  0  0  0  0
   48.9934   10.1515   10.9423 O   0  5  0  0  0  0  0  0  0  0  0  0
   47.5344   12.1685   11.7660 O   0  0  0  0  0  0  0  0  0  0  0  0
   43.7955   12.6968   11.4461 C   0  0  2  0  0  0  0  0  0  0  0  0
   44.8021   13.7193   11.4762 O   0  0  0  0  0  0  0  0  0  0  0  0
   42.7165   12.9249   12.5422 C   0  0  2  0  0  0  0  0  0  0  0  0
   42.0903   14.2529   12.3595 N   0  0  0  0  0  0  0  0  0  0  0  0
   43.3956   12.8443   13.9258 C   0  0  1  0  0  0  0  0  0  0  0  0
   42.4226   13.0315   14.9686 O   0  0  0  0  0  0  0  0  0  0  0  0
   44.0378   11.4559   14.0611 C   0  0  2  0  0  0  0  0  0  0  0  0
   44.6923   11.3533   15.3335 O   0  0  0  0  0  0  0  0  0  0  0  0
   45.0762   11.2843   12.9211 C   0  0  2  0  0  0  0  0  0  0  0  0
   44.4237   11.3954   11.6234 O   0  0  0  0  0  0  0  0  0  0  0  0
   45.7279    9.8943   13.0244 C   0  0  0  0  0  0  0  0  0  0  0  0
   46.5887    9.6769   11.8916 O   0  0  0  0  0  0  0  0  0  0  0  0
  1  2  1  1  0  0  0
  1  3  1  0  0  0  0
  1  4  2  0  0  0  0
  1 16  1  0  0  0  0
  5  6  1  1  0  0  0
  5  7  1  0  0  0  0
  5 14  1  0  0  0  0
  7  8  1  6  0  0  0
  7  9  1  0  0  0  0
  9 10  1  1  0  0  0
  9 11  1  0  0  0  0
 11 12  1  1  0  0  0
 11 13  1  0  0  0  0
 13 14  1  0  0  0  0
 13 15  1  6  0  0  0
 15 16  1  0  0  0  0
M  CHG  1   3  -1
M  END
>  <CHROM.1>
174.09115721,71.28072263,47.94182539,45.42761593,11.64345881,12.67632690
0.00689531,0.52732615,-1.10144734

>  <Name>
ligand

>  <RI>
0

>  <Rbt.Current_Directory>
/home/itssahil/PROJECTS/Mol_Feturizer/New_Systems/rnas/3B4B

>  <Rbt.Executable>
rbdock ($Id: //depot/dev/client3/rdock/2013.1/src/exe/rbdock.cxx#4 $)

>  <Rbt.Library>
libRbt.so (2013.1, Build901 2013/11/27)

>  <Rbt.Parameter_File>
/export/apps/rDock/src/rDock_2013.1_src/data/scripts/dock_solv.prm

>  <Rbt.Receptor>
prm/pocket_docking_3.prm

>  <SCORE>
-9.36355

>  <SCORE.INTER>
-9.87255

>  <SCORE.INTER.CONST>
1

>  <SCORE.INTER.POLAR>
-1.12376

>  <SCORE.INTER.ROT>
3

>  <SCORE.INTER.SOLV>
18.0744

>  <SCORE.INTER.VDW>
-14.4606

>  <SCORE.INTER.norm>
-0.617034

>  <SCORE.INTRA>
0.509

>  <SCORE.INTRA.DIHEDRAL>
-1.25563

>  <SCORE.INTRA.DIHEDRAL.0>
2.21864

>  <SCORE.INTRA.POLAR>
0

>  <SCORE.INTRA.POLAR.0>
0

>  <SCORE.INTRA.REPUL>
0

>  <SCORE.INTRA.REPUL.0>
0

>  <SCORE.INTRA.SOLV>
2.30886

>  <SCORE.INTRA.SOLV.lig_0>
-58.5963

>  <SCORE.INTRA.VDW>
-0.0176152

>  <SCORE.INTRA.VDW.0>
-0.437849

>  <SCORE.INTRA.norm>
0.0318125

>  <SCORE.RESTR>
0

>  <SCORE.RESTR.CAVITY>
0

>  <SCORE.RESTR.norm>
0

>  <SCORE.SYSTEM>
0

>  <SCORE.SYSTEM.CONST>
0

>  <SCORE.SYSTEM.DIHEDRAL>
0

>  <SCORE.SYSTEM.SOLV>
0

>  <SCORE.SYSTEM.norm>
0

>  <SCORE.heavy>
16

>  <SCORE.norm>
-0.585222

>  <RMSD>
3.163

$$$$
ligand
 OpenBabel11021811463D
libRbt.so/2013.1/901 2013/11/27
 16 16  0  0  0  0  0  0  0  0999 V2000
   46.8755    9.2367    9.0490 P   0  0  2  0  0  0  0  0  0  0  0  0
   47.9198   10.2904    9.0365 O   0  0  0  0  0  0  0  0  0  0  0  0
   47.5483    7.7851    9.2257 O   0  5  0  0  0  0  0  0  0  0  0  0
   46.0741    9.2658    7.6414 O   0  0  0  0  0  0  0  0  0  0  0  0
   44.0424   11.0020   13.7146 C   0  0  2  0  0  0  0  0  0  0  0  0
   42.9510   10.0800   13.5787 O   0  0  0  0  0  0  0  0  0  0  0  0
   43.5451   12.4747   13.7499 C   0  0  2  0  0  0  0  0  0  0  0  0
   42.5924   12.6546   14.8675 N   0  0  0  0  0  0  0  0  0  0  0  0
   42.8542   12.7934   12.4072 C   0  0  1  0  0  0  0  0  0  0  0  0
   42.3968   14.1572   12.3950 O   0  0  0  0  0  0  0  0  0  0  0  0
   43.8780   12.5814   11.2824 C   0  0  2  0  0  0  0  0  0  0  0  0
   43.2617   12.8552   10.0163 O   0  0  0  0  0  0  0  0  0  0  0  0
   44.3540   11.1053   11.3264 C   0  0  2  0  0  0  0  0  0  0  0  0
   44.9741   10.8132   12.6118 O   0  0  0  0  0  0  0  0  0  0  0  0
   45.3922   10.8666   10.2161 C   0  0  0  0  0  0  0  0  0  0  0  0
   45.8799    9.5146   10.2906 O   0  0  0  0  0  0  0  0  0  0  0  0
  1  2  1  6  0  0  0
  1  3  1  0  0  0  0
  1  4  2  0  0  0  0
  1 16  1  0  0  0  0
  5  6  1  6  0  0  0
  5  7  1  0  0  0  0
  5 14  1  0  0  0  0
  7  8  1  1  0  0  0
  7  9  1  0  0  0  0
  9 10  1  1  0  0  0
  9 11  1  0  0  0  0
 11 12  1  6  0  0  0
 11 13  1  0  0  0  0
 13 14  1  0  0  0  0
 13 15  1  6  0  0  0
 15 16  1  0  0  0  0
M  CHG  1   3  -1
M  END
>  <CHROM.1>
177.48313454,175.34423862,53.33520158,44.85561924,10.91830676,11.11452330
-0.31487557,-0.90378811,2.08376549

>  <Name>
ligand

>  <RI>
0

>  <Rbt.Current_Directory>
/home/itssahil/PROJECTS/Mol_Feturizer/New_Systems/rnas/3B4B

>  <Rbt.Executable>
rbdock ($Id: //depot/dev/client3/rdock/2013.1/src/exe/rbdock.cxx#4 $)

>  <Rbt.Library>
libRbt.so (2013.1, Build901 2013/11/27)

>  <Rbt.Parameter_File>
/export/apps/rDock/src/rDock_2013.1_src/data/scripts/dock_solv.prm

>  <Rbt.Receptor>
prm/pocket_docking_7.prm

>  <SCORE>
-5.97895

>  <SCORE.INTER>
-4.37771

>  <SCORE.INTER.CONST>
1

>  <SCORE.INTER.POLAR>
0

>  <SCORE.INTER.ROT>
3

>  <SCORE.INTER.SOLV>
22.5869

>  <SCORE.INTER.VDW>
-16.0474

>  <SCORE.INTER.norm>
-0.273607

>  <SCORE.INTRA>
-1.60125

>  <SCORE.INTRA.DIHEDRAL>
-2.01871

>  <SCORE.INTRA.DIHEDRAL.0>
2.21864

>  <SCORE.INTRA.POLAR>
0

>  <SCORE.INTRA.POLAR.0>
0

>  <SCORE.INTRA.REPUL>
0

>  <SCORE.INTRA.REPUL.0>
0

>  <SCORE.INTRA.SOLV>
-1.2304

>  <SCORE.INTRA.SOLV.lig_0>
-58.5963

>  <SCORE.INTRA.VDW>
0.023308

>  <SCORE.INTRA.VDW.0>
-0.437849

>  <SCORE.INTRA.norm>
-0.100078

>  <SCORE.RESTR>
0

>  <SCORE.RESTR.CAVITY>
0

>  <SCORE.RESTR.norm>
0

>  <SCORE.SYSTEM>
0

>  <SCORE.SYSTEM.CONST>
0

>  <SCORE.SYSTEM.DIHEDRAL>
0

>  <SCORE.SYSTEM.SOLV>
0

>  <SCORE.SYSTEM.norm>
0

>  <SCORE.heavy>
16

>  <SCORE.norm>
-0.373685

>  <RMSD>
3.167

$$$$
ligand
 OpenBabel11021811463D
libRbt.so/2013.1/901 2013/11/27
 16 16  0  0  0  0  0  0  0  0999 V2000
   46.9477    9.1079    8.9548 P   0  0  2  0  0  0  0  0  0  0  0  0
   46.1661    9.2149    7.6983 O   0  0  0  0  0  0  0  0  0  0  0  0
   48.0979   10.2332    8.9950 O   0  5  0  0  0  0  0  0  0  0  0  0
   47.6503    7.6498    9.0212 O   0  0  0  0  0  0  0  0  0  0  0  0
   44.3979   10.7638   13.7982 C   0  0  2  0  0  0  0  0  0  0  0  0
   43.2952    9.8479   13.7269 O   0  0  0  0  0  0  0  0  0  0  0  0
   43.9113   12.2372   13.8980 C   0  0  2  0  0  0  0  0  0  0  0  0
   43.0453   12.3988   15.0867 N   0  0  0  0  0  0  0  0  0  0  0  0
   43.1236   12.5834   12.6168 C   0  0  1  0  0  0  0  0  0  0  0  0
   42.6728   13.9486   12.6642 O   0  0  0  0  0  0  0  0  0  0  0  0
   44.0599   12.3896   11.4150 C   0  0  2  0  0  0  0  0  0  0  0  0
   43.3522   12.6892   10.2037 O   0  0  0  0  0  0  0  0  0  0  0  0
   44.5311   10.9114   11.3958 C   0  0  2  0  0  0  0  0  0  0  0  0
   45.2440   10.5931   12.6256 O   0  0  0  0  0  0  0  0  0  0  0  0
   45.4826   10.6906   10.2069 C   0  0  0  0  0  0  0  0  0  0  0  0
   45.9463    9.3281   10.2034 O   0  0  0  0  0  0  0  0  0  0  0  0
  1  2  1  6  0  0  0
  1  3  1  0  0  0  0
  1  4  2  0  0  0  0
  1 16  1  0  0  0  0
  5  6  1  6  0  0  0
  5  7  1  0  0  0  0
  5 14  1  0  0  0  0
  7  8  1  1  0  0  0
  7  9  1  0  0  0  0
  9 10  1  1  0  0  0
  9 11  1  0  0  0  0
 11 12  1  6  0  0  0
 11 13  1  0  0  0  0
 13 14  1  0  0  0  0
 13 15  1  6  0  0  0
 15 16  1  0  0  0  0
M  CHG  1   3  -1
M  END
>  <CHROM.1>
178.68578183,-179.82285239,-67.58781292,45.05446537,10.74338690,11.16955260
-0.38669170,-0.92676470,2.04975099

>  <Name>
ligand

>  <RI>
0

>  <Rbt.Current_Directory>
/home/itssahil/PROJECTS/Mol_Feturizer/New_Systems/rnas/3B4B

>  <Rbt.Executable>
rbdock ($Id: //depot/dev/client3/rdock/2013.1/src/exe/rbdock.cxx#4 $)

>  <Rbt.Library>
libRbt.so (2013.1, Build901 2013/11/27)

>  <Rbt.Parameter_File>
/export/apps/rDock/src/rDock_2013.1_src/data/scripts/dock_solv.prm

>  <Rbt.Receptor>
prm/pocket_docking_6.prm

>  <SCORE>
-7.39316

>  <SCORE.INTER>
-5.7564

>  <SCORE.INTER.CONST>
1

>  <SCORE.INTER.POLAR>
0

>  <SCORE.INTER.ROT>
3

>  <SCORE.INTER.SOLV>
20.4968

>  <SCORE.INTER.VDW>
-16.2699

>  <SCORE.INTER.norm>
-0.359775

>  <SCORE.INTRA>
-1.63676

>  <SCORE.INTRA.DIHEDRAL>
-2.12057

>  <SCORE.INTRA.DIHEDRAL.0>
2.21864

>  <SCORE.INTRA.POLAR>
0

>  <SCORE.INTRA.POLAR.0>
0

>  <SCORE.INTRA.REPUL>
0

>  <SCORE.INTRA.REPUL.0>
0

>  <SCORE.INTRA.SOLV>
-1.07049

>  <SCORE.INTRA.SOLV.lig_0>
-58.5963

>  <SCORE.INTRA.VDW>
-0.0412376

>  <SCORE.INTRA.VDW.0>
-0.437849

>  <SCORE.INTRA.norm>
-0.102298

>  <SCORE.RESTR>
0

>  <SCORE.RESTR.CAVITY>
0

>  <SCORE.RESTR.norm>
0

>  <SCORE.SYSTEM>
0

>  <SCORE.SYSTEM.CONST>
0

>  <SCORE.SYSTEM.DIHEDRAL>
0

>  <SCORE.SYSTEM.SOLV>
0

>  <SCORE.SYSTEM.norm>
0

>  <SCORE.heavy>
16

>  <SCORE.norm>
-0.462073

>  <RMSD>
3.207

$$$$
ligand
 OpenBabel11021811463D
libRbt.so/2013.1/901 2013/11/27
 16 16  0  0  0  0  0  0  0  0999 V2000
   47.5571   10.1965   10.8077 P   0  0  2  0  0  0  0  0  0  0  0  0
   47.4612   11.5707   11.3585 O   0  0  0  0  0  0  0  0  0  0  0  0
   48.6023    9.3224   11.6649 O   0  5  0  0  0  0  0  0  0  0  0  0
   48.0821   10.2727    9.2771 O   0  0  0  0  0  0  0  0  0  0  0  0
   43.5680   12.7402   11.0629 C   0  0  2  0  0  0  0  0  0  0  0  0
   44.6328   13.6989   10.9812 O   0  0  0  0  0  0  0  0  0  0  0  0
   42.6879   12.9698   12.3240 C   0  0  2  0  0  0  0  0  0  0  0  0
   42.1305   14.3402   12.3025 N   0  0  0  0  0  0  0  0  0  0  0  0
   43.5648   12.7733   13.5787 C   0  0  1  0  0  0  0  0  0  0  0  0
   42.7783   12.9590   14.7687 O   0  0  0  0  0  0  0  0  0  0  0  0
   44.1267   11.3444   13.5482 C   0  0  2  0  0  0  0  0  0  0  0  0
   44.9609   11.1335   14.6960 O   0  0  0  0  0  0  0  0  0  0  0  0
   44.9638   11.1758   12.2527 C   0  0  2  0  0  0  0  0  0  0  0  0
   44.1284   11.3965   11.0799 O   0  0  0  0  0  0  0  0  0  0  0  0
   45.5300    9.7466   12.1889 C   0  0  0  0  0  0  0  0  0  0  0  0
   46.0980    9.5075   10.8882 O   0  0  0  0  0  0  0  0  0  0  0  0
  1  2  1  1  0  0  0
  1  3  1  0  0  0  0
  1  4  2  0  0  0  0
  1 16  1  0  0  0  0
  5  6  1  1  0  0  0
  5  7  1  0  0  0  0
  5 14  1  0  0  0  0
  7  8  1  6  0  0  0
  7  9  1  0  0  0  0
  9 10  1  1  0  0  0
  9 11  1  0  0  0  0
 11 12  1  1  0  0  0
 11 13  1  0  0  0  0
 13 14  1  0  0  0  0
 13 15  1  6  0  0  0
 15 16  1  0  0  0  0
M  CHG  1   3  -1
M  END
>  <CHROM.1>
169.62645904,78.76685558,-46.13256017,45.29781285,11.44526710,11.94211528
0.15441605,0.67719350,-1.15817663

>  <Name>
ligand

>  <RI>
0

>  <Rbt.Current_Directory>
/home/itssahil/PROJECTS/Mol_Feturizer/New_Systems/rnas/3B4B

>  <Rbt.Executable>
rbdock ($Id: //depot/dev/client3/rdock/2013.1/src/exe/rbdock.cxx#4 $)

>  <Rbt.Library>
libRbt.so (2013.1, Build901 2013/11/27)

>  <Rbt.Parameter_File>
/export/apps/rDock/src/rDock_2013.1_src/data/scripts/dock_solv.prm

>  <Rbt.Receptor>
prm/pocket_docking_5.prm

>  <SCORE>
-7.48977

>  <SCORE.INTER>
-7.97314

>  <SCORE.INTER.CONST>
1

>  <SCORE.INTER.POLAR>
-1.124

>  <SCORE.INTER.ROT>
3

>  <SCORE.INTER.SOLV>
16.4074

>  <SCORE.INTER.VDW>
-12.6379

>  <SCORE.INTER.norm>
-0.498321

>  <SCORE.INTRA>
0.483368

>  <SCORE.INTRA.DIHEDRAL>
0.069248

>  <SCORE.INTRA.DIHEDRAL.0>
2.21864

>  <SCORE.INTRA.POLAR>
0

>  <SCORE.INTRA.POLAR.0>
0

>  <SCORE.INTRA.REPUL>
0

>  <SCORE.INTRA.REPUL.0>
0

>  <SCORE.INTRA.SOLV>
-0.221905

>  <SCORE.INTRA.SOLV.lig_0>
-58.5963

>  <SCORE.INTRA.VDW>
0.559696

>  <SCORE.INTRA.VDW.0>
-0.437849

>  <SCORE.INTRA.norm>
0.0302105

>  <SCORE.RESTR>
0

>  <SCORE.RESTR.CAVITY>
0

>  <SCORE.RESTR.norm>
0

>  <SCORE.SYSTEM>
0

>  <SCORE.SYSTEM.CONST>
0

>  <SCORE.SYSTEM.DIHEDRAL>
0

>  <SCORE.SYSTEM.SOLV>
0

>  <SCORE.SYSTEM.norm>
0

>  <SCORE.heavy>
16

>  <SCORE.norm>
-0.468111

>  <RMSD>
3.220

$$$$
ligand
 OpenBabel11021811463D
libRbt.so/2013.1/901 2013/11/27
 16 16  0  0  0  0  0  0  0  0999 V2000
   47.7616   10.3714   11.2396 P   0  0  2  0  0  0  0  0  0  0  0  0
   48.6526    9.3387   11.8234 O   0  0  0  0  0  0  0  0  0  0  0  0
   48.2810   10.7951    9.7762 O   0  5  0  0  0  0  0  0  0  0  0  0
   47.7732   11.6827   12.1906 O   0  0  0  0  0  0  0  0  0  0  0  0
   43.6305   12.8898   11.5507 C   0  0  2  0  0  0  0  0  0  0  0  0
   44.6773   13.8699   11.6054 O   0  0  0  0  0  0  0  0  0  0  0  0
   42.7123   12.9639   12.8033 C   0  0  2  0  0  0  0  0  0  0  0  0
   42.1279   14.3185   12.9160 N   0  0  0  0  0  0  0  0  0  0  0  0
   43.5588   12.6456   14.0538 C   0  0  1  0  0  0  0  0  0  0  0  0
   42.7370   12.6856   15.2337 O   0  0  0  0  0  0  0  0  0  0  0  0
   44.1503   11.2387   13.8832 C   0  0  2  0  0  0  0  0  0  0  0  0
   44.9574   10.9171   15.0247 O   0  0  0  0  0  0  0  0  0  0  0  0
   45.0253   11.2282   12.6018 C   0  0  2  0  0  0  0  0  0  0  0  0
   44.2174   11.5622   11.4366 O   0  0  0  0  0  0  0  0  0  0  0  0
   45.6220    9.8247   12.3982 C   0  0  0  0  0  0  0  0  0  0  0  0
   46.2730    9.7557   11.1165 O   0  0  0  0  0  0  0  0  0  0  0  0
  1  2  1  1  0  0  0
  1  3  1  0  0  0  0
  1  4  2  0  0  0  0
  1 16  1  0  0  0  0
  5  6  1  1  0  0  0
  5  7  1  0  0  0  0
  5 14  1  0  0  0  0
  7  8  1  1  0  0  0
  7  9  1  0  0  0  0
  9 10  1  1  0  0  0
  9 11  1  0  0  0  0
 11 12  1  1  0  0  0
 11 13  1  0  0  0  0
 13 14  1  0  0  0  0
 13 15  1  6  0  0  0
 15 16  1  0  0  0  0
M  CHG  1   3  -1
M  END
>  <CHROM.1>
171.75846051,82.77406759,80.30960216,45.38882954,11.51532369,12.37237610
0.11158684,0.64071154,-1.04049126

>  <Name>
ligand

>  <RI>
0

>  <Rbt.Current_Directory>
/home/itssahil/PROJECTS/Mol_Feturizer/New_Systems/rnas/3B4B

>  <Rbt.Executable>
rbdock ($Id: //depot/dev/client3/rdock/2013.1/src/exe/rbdock.cxx#4 $)

>  <Rbt.Library>
libRbt.so (2013.1, Build901 2013/11/27)

>  <Rbt.Parameter_File>
/export/apps/rDock/src/rDock_2013.1_src/data/scripts/dock_solv.prm

>  <Rbt.Receptor>
prm/pocket_docking_3.prm

>  <SCORE>
-6.59417

>  <SCORE.INTER>
-7.86456

>  <SCORE.INTER.CONST>
1

>  <SCORE.INTER.POLAR>
-0.897885

>  <SCORE.INTER.ROT>
3

>  <SCORE.INTER.SOLV>
17.6435

>  <SCORE.INTER.VDW>
-13.7313

>  <SCORE.INTER.norm>
-0.491535

>  <SCORE.INTRA>
1.27039

>  <SCORE.INTRA.DIHEDRAL>
0.914628

>  <SCORE.INTRA.DIHEDRAL.0>
2.21864

>  <SCORE.INTRA.POLAR>
0

>  <SCORE.INTRA.POLAR.0>
0

>  <SCORE.INTRA.REPUL>
0

>  <SCORE.INTRA.REPUL.0>
0

>  <SCORE.INTRA.SOLV>
1.84086

>  <SCORE.INTRA.SOLV.lig_0>
-58.5963

>  <SCORE.INTRA.VDW>
-0.107352

>  <SCORE.INTRA.VDW.0>
-0.437849

>  <SCORE.INTRA.norm>
0.0793994

>  <SCORE.RESTR>
0

>  <SCORE.RESTR.CAVITY>
0

>  <SCORE.RESTR.norm>
0

>  <SCORE.SYSTEM>
0

>  <SCORE.SYSTEM.CONST>
0

>  <SCORE.SYSTEM.DIHEDRAL>
0

>  <SCORE.SYSTEM.SOLV>
0

>  <SCORE.SYSTEM.norm>
0

>  <SCORE.heavy>
16

>  <SCORE.norm>
-0.412136

>  <RMSD>
3.222

$$$$
ligand
 OpenBabel11021811463D
libRbt.so/2013.1/901 2013/11/27
 16 16  0  0  0  0  0  0  0  0999 V2000
   47.7013   10.5608   10.2485 P   0  0  2  0  0  0  0  0  0  0  0  0
   48.2179   10.5270    8.8582 O   0  0  0  0  0  0  0  0  0  0  0  0
   47.6371   12.0774   10.7842 O   0  5  0  0  0  0  0  0  0  0  0  0
   48.6983    9.7172   11.2068 O   0  0  0  0  0  0  0  0  0  0  0  0
   43.5769   12.8704   11.5197 C   0  0  2  0  0  0  0  0  0  0  0  0
   44.5950   13.8811   11.4772 O   0  0  0  0  0  0  0  0  0  0  0  0
   42.9240   12.7760   12.9277 C   0  0  2  0  0  0  0  0  0  0  0  0
   42.3478   14.0866   13.3012 N   0  0  0  0  0  0  0  0  0  0  0  0
   44.0077   12.3633   13.9462 C   0  0  1  0  0  0  0  0  0  0  0  0
   43.4354   12.2464   15.2608 O   0  0  0  0  0  0  0  0  0  0  0  0
   44.5803   11.0070   13.5092 C   0  0  2  0  0  0  0  0  0  0  0  0
   45.6037   10.6008   14.4288 O   0  0  0  0  0  0  0  0  0  0  0  0
   45.1839   11.1660   12.0887 C   0  0  2  0  0  0  0  0  0  0  0  0
   44.1548   11.5869   11.1475 O   0  0  0  0  0  0  0  0  0  0  0  0
   45.7551    9.8167   11.6189 C   0  0  0  0  0  0  0  0  0  0  0  0
   46.2135    9.9311   10.2594 O   0  0  0  0  0  0  0  0  0  0  0  0
  1  2  1  6  0  0  0
  1  3  1  0  0  0  0
  1  4  2  0  0  0  0
  1 16  1  0  0  0  0
  5  6  1  1  0  0  0
  5  7  1  0  0  0  0
  5 14  1  0  0  0  0
  7  8  1  1  0  0  0
  7  9  1  0  0  0  0
  9 10  1  1  0  0  0
  9 11  1  0  0  0  0
 11 12  1  1  0  0  0
 11 13  1  0  0  0  0
 13 14  1  0  0  0  0
 13 15  1  6  0  0  0
 15 16  1  0  0  0  0
M  CHG  1   3  -1
M  END
>  <CHROM.1>
175.15829355,82.93300636,173.58291842,45.52542414,11.48230640,11.87846163
0.32118447,0.69050423,-1.08919287

>  <Name>
ligand

>  <RI>
0

>  <Rbt.Current_Directory>
/home/itssahil/PROJECTS/Mol_Feturizer/New_Systems/rnas/3B4B

>  <Rbt.Executable>
rbdock ($Id: //depot/dev/client3/rdock/2013.1/src/exe/rbdock.cxx#4 $)

>  <Rbt.Library>
libRbt.so (2013.1, Build901 2013/11/27)

>  <Rbt.Parameter_File>
/export/apps/rDock/src/rDock_2013.1_src/data/scripts/dock_solv.prm

>  <Rbt.Receptor>
prm/pocket_docking_3.prm

>  <SCORE>
-6.76445

>  <SCORE.INTER>
-7.51551

>  <SCORE.INTER.CONST>
1

>  <SCORE.INTER.POLAR>
-1.12374

>  <SCORE.INTER.ROT>
3

>  <SCORE.INTER.SOLV>
16.3137

>  <SCORE.INTER.VDW>
-12.3024

>  <SCORE.INTER.norm>
-0.469719

>  <SCORE.INTRA>
0.751055

>  <SCORE.INTRA.DIHEDRAL>
0.228937

>  <SCORE.INTRA.DIHEDRAL.0>
2.21864

>  <SCORE.INTRA.POLAR>
0

>  <SCORE.INTRA.POLAR.0>
0

>  <SCORE.INTRA.REPUL>
0

>  <SCORE.INTRA.REPUL.0>
0

>  <SCORE.INTRA.SOLV>
2.3562

>  <SCORE.INTRA.SOLV.lig_0>
-58.5963

>  <SCORE.INTRA.VDW>
-0.541514

>  <SCORE.INTRA.VDW.0>
-0.437849

>  <SCORE.INTRA.norm>
0.0469409

>  <SCORE.RESTR>
0

>  <SCORE.RESTR.CAVITY>
0

>  <SCORE.RESTR.norm>
0

>  <SCORE.SYSTEM>
0

>  <SCORE.SYSTEM.CONST>
0

>  <SCORE.SYSTEM.DIHEDRAL>
0

>  <SCORE.SYSTEM.SOLV>
0

>  <SCORE.SYSTEM.norm>
0

>  <SCORE.heavy>
16

>  <SCORE.norm>
-0.422778

>  <RMSD>
3.224

$$$$
ligand
 OpenBabel11021811463D
libRbt.so/2013.1/901 2013/11/27
 16 16  0  0  0  0  0  0  0  0999 V2000
   47.5485   10.1556   12.0821 P   0  0  2  0  0  0  0  0  0  0  0  0
   47.5220   11.6234   12.2961 O   0  0  0  0  0  0  0  0  0  0  0  0
   49.0228    9.5757   12.3674 O   0  5  0  0  0  0  0  0  0  0  0  0
   47.1575    9.8356   10.5430 O   0  0  0  0  0  0  0  0  0  0  0  0
   43.4288   12.8674   11.8122 C   0  0  2  0  0  0  0  0  0  0  0  0
   44.5603   13.7499   11.8323 O   0  0  0  0  0  0  0  0  0  0  0  0
   42.5619   13.0204   13.0939 C   0  0  2  0  0  0  0  0  0  0  0  0
   42.1050   14.4216   13.2247 N   0  0  0  0  0  0  0  0  0  0  0  0
   43.4167   12.6248   14.3164 C   0  0  1  0  0  0  0  0  0  0  0  0
   42.6403   12.7354   15.5224 O   0  0  0  0  0  0  0  0  0  0  0  0
   43.8741   11.1711   14.1275 C   0  0  2  0  0  0  0  0  0  0  0  0
   44.6858   10.7760   15.2425 O   0  0  0  0  0  0  0  0  0  0  0  0
   44.7027   11.0854   12.8185 C   0  0  2  0  0  0  0  0  0  0  0  0
   43.8906   11.4930   11.6798 O   0  0  0  0  0  0  0  0  0  0  0  0
   45.1646    9.6346   12.5965 C   0  0  0  0  0  0  0  0  0  0  0  0
   46.5015    9.4684   13.1028 O   0  0  0  0  0  0  0  0  0  0  0  0
  1  2  1  1  0  0  0
  1  3  1  0  0  0  0
  1  4  2  0  0  0  0
  1 16  1  0  0  0  0
  5  6  1  1  0  0  0
  5  7  1  0  0  0  0
  5 14  1  0  0  0  0
  7  8  1  1  0  0  0
  7  9  1  0  0  0  0
  9 10  1  1  0  0  0
  9 11  1  0  0  0  0
 11 12  1  1  0  0  0
 11 13  1  0  0  0  0
 13 14  1  0  0  0  0
 13 15  1  6  0  0  0
 15 16  1  0  0  0  0
M  CHG  1   3  -1
M  END
>  <CHROM.1>
-96.01663375,-75.21282030,78.04835099,45.17869427,11.38810995,12.84787745
-0.00960666,0.63693571,-1.06313368

>  <Name>
ligand

>  <RI>
0

>  <Rbt.Current_Directory>
/home/itssahil/PROJECTS/Mol_Feturizer/New_Systems/rnas/3B4B

>  <Rbt.Executable>
rbdock ($Id: //depot/dev/client3/rdock/2013.1/src/exe/rbdock.cxx#4 $)

>  <Rbt.Library>
libRbt.so (2013.1, Build901 2013/11/27)

>  <Rbt.Parameter_File>
/export/apps/rDock/src/rDock_2013.1_src/data/scripts/dock_solv.prm

>  <Rbt.Receptor>
prm/pocket_docking_3.prm

>  <SCORE>
-8.54515

>  <SCORE.INTER>
-9.88326

>  <SCORE.INTER.CONST>
1

>  <SCORE.INTER.POLAR>
-1.12316

>  <SCORE.INTER.ROT>
3

>  <SCORE.INTER.SOLV>
21.6725

>  <SCORE.INTER.VDW>
-15.6691

>  <SCORE.INTER.norm>
-0.617704

>  <SCORE.INTRA>
1.33812

>  <SCORE.INTRA.DIHEDRAL>
2.82112

>  <SCORE.INTRA.DIHEDRAL.0>
2.21864

>  <SCORE.INTRA.POLAR>
0

>  <SCORE.INTRA.POLAR.0>
0

>  <SCORE.INTRA.REPUL>
0

>  <SCORE.INTRA.REPUL.0>
0

>  <SCORE.INTRA.SOLV>
0.565693

>  <SCORE.INTRA.SOLV.lig_0>
-58.5963

>  <SCORE.INTRA.VDW>
-0.35529

>  <SCORE.INTRA.VDW.0>
-0.437849

>  <SCORE.INTRA.norm>
0.0836322

>  <SCORE.RESTR>
0

>  <SCORE.RESTR.CAVITY>
0

>  <SCORE.RESTR.norm>
0

>  <SCORE.SYSTEM>
0

>  <SCORE.SYSTEM.CONST>
0

>  <SCORE.SYSTEM.DIHEDRAL>
0

>  <SCORE.SYSTEM.SOLV>
0

>  <SCORE.SYSTEM.norm>
0

>  <SCORE.heavy>
16

>  <SCORE.norm>
-0.534072

>  <RMSD>
3.246

$$$$
ligand
 OpenBabel11021811463D
libRbt.so/2013.1/901 2013/11/27
 16 16  0  0  0  0  0  0  0  0999 V2000
   46.8315    9.2908    9.0812 P   0  0  2  0  0  0  0  0  0  0  0  0
   46.1445    9.3879    7.7699 O   0  0  0  0  0  0  0  0  0  0  0  0
   47.9856   10.4074    9.1916 O   0  5  0  0  0  0  0  0  0  0  0  0
   47.5144    7.8281    9.2165 O   0  0  0  0  0  0  0  0  0  0  0  0
   43.9661   11.0142   13.7102 C   0  0  2  0  0  0  0  0  0  0  0  0
   42.8518   10.1212   13.5676 O   0  0  0  0  0  0  0  0  0  0  0  0
   43.5051   12.4979   13.7712 C   0  0  2  0  0  0  0  0  0  0  0  0
   42.5640   12.6837   14.8977 N   0  0  0  0  0  0  0  0  0  0  0  0
   42.8137   12.8538   12.4381 C   0  0  1  0  0  0  0  0  0  0  0  0
   42.3896   14.2284   12.4497 O   0  0  0  0  0  0  0  0  0  0  0  0
   43.8250   12.6344   11.3035 C   0  0  2  0  0  0  0  0  0  0  0  0
   43.2076   12.9425   10.0458 O   0  0  0  0  0  0  0  0  0  0  0  0
   44.2652   11.1466   11.3218 C   0  0  2  0  0  0  0  0  0  0  0  0
   44.8860   10.8199   12.5985 O   0  0  0  0  0  0  0  0  0  0  0  0
   45.2902   10.9000   10.2012 C   0  0  0  0  0  0  0  0  0  0  0  0
   45.7437    9.5349   10.2506 O   0  0  0  0  0  0  0  0  0  0  0  0
  1  2  1  6  0  0  0
  1  3  1  0  0  0  0
  1  4  2  0  0  0  0
  1 16  1  0  0  0  0
  5  6  1  6  0  0  0
  5  7  1  0  0  0  0
  5 14  1  0  0  0  0
  7  8  1  1  0  0  0
  7  9  1  0  0  0  0
  9 10  1  1  0  0  0
  9 11  1  0  0  0  0
 11 12  1  6  0  0  0
 11 13  1  0  0  0  0
 13 14  1  0  0  0  0
 13 15  1  6  0  0  0
 15 16  1  0  0  0  0
M  CHG  1   3  -1
M  END
>  <CHROM.1>
177.57254117,-179.36473620,-67.42356158,44.80960105,10.97053604,11.14131948
-0.26919128,-0.90534928,2.13698794

>  <Name>
ligand

>  <RI>
0

>  <Rbt.Current_Directory>
/home/itssahil/PROJECTS/Mol_Feturizer/New_Systems/rnas/3B4B

>  <Rbt.Executable>
rbdock ($Id: //depot/dev/client3/rdock/2013.1/src/exe/rbdock.cxx#4 $)

>  <Rbt.Library>
libRbt.so (2013.1, Build901 2013/11/27)

>  <Rbt.Parameter_File>
/export/apps/rDock/src/rDock_2013.1_src/data/scripts/dock_solv.prm

>  <Rbt.Receptor>
prm/pocket_docking_6.prm

>  <SCORE>
-7.45642

>  <SCORE.INTER>
-5.83185

>  <SCORE.INTER.CONST>
1

>  <SCORE.INTER.POLAR>
0

>  <SCORE.INTER.ROT>
3

>  <SCORE.INTER.SOLV>
19.1533

>  <SCORE.INTER.VDW>
-15.8723

>  <SCORE.INTER.norm>
-0.36449

>  <SCORE.INTRA>
-1.62457

>  <SCORE.INTRA.DIHEDRAL>
-2.10775

>  <SCORE.INTRA.DIHEDRAL.0>
2.21864

>  <SCORE.INTRA.POLAR>
0

>  <SCORE.INTRA.POLAR.0>
0

>  <SCORE.INTRA.REPUL>
0

>  <SCORE.INTRA.REPUL.0>
0

>  <SCORE.INTRA.SOLV>
-1.06466

>  <SCORE.INTRA.SOLV.lig_0>
-58.5963

>  <SCORE.INTRA.VDW>
-0.0383688

>  <SCORE.INTRA.VDW.0>
-0.437849

>  <SCORE.INTRA.norm>
-0.101536

>  <SCORE.RESTR>
0

>  <SCORE.RESTR.CAVITY>
0

>  <SCORE.RESTR.norm>
0

>  <SCORE.SYSTEM>
0

>  <SCORE.SYSTEM.CONST>
0

>  <SCORE.SYSTEM.DIHEDRAL>
0

>  <SCORE.SYSTEM.SOLV>
0

>  <SCORE.SYSTEM.norm>
0

>  <SCORE.heavy>
16

>  <SCORE.norm>
-0.466026

>  <RMSD>
3.256

$$$$
ligand
 OpenBabel11021811463D
libRbt.so/2013.1/901 2013/11/27
 16 16  0  0  0  0  0  0  0  0999 V2000
   47.3210   10.1567   11.0940 P   0  0  2  0  0  0  0  0  0  0  0  0
   46.2257    9.3368   10.5204 O   0  0  0  0  0  0  0  0  0  0  0  0
   47.1385   11.7015   10.6800 O   0  5  0  0  0  0  0  0  0  0  0  0
   48.7388    9.6312   10.5127 O   0  0  0  0  0  0  0  0  0  0  0  0
   43.9202   12.6092   11.4123 C   0  0  2  0  0  0  0  0  0  0  0  0
   44.8850   13.6709   11.4533 O   0  0  0  0  0  0  0  0  0  0  0  0
   42.7932   12.8204   12.4625 C   0  0  2  0  0  0  0  0  0  0  0  0
   42.1237   14.1181   12.2241 N   0  0  0  0  0  0  0  0  0  0  0  0
   43.4229   12.7991   13.8714 C   0  0  1  0  0  0  0  0  0  0  0  0
   42.4053   12.9725   14.8732 O   0  0  0  0  0  0  0  0  0  0  0  0
   44.1124   11.4406   14.0645 C   0  0  2  0  0  0  0  0  0  0  0  0
   44.7226   11.3938   15.3620 O   0  0  0  0  0  0  0  0  0  0  0  0
   45.1984   11.2832   12.9676 C   0  0  2  0  0  0  0  0  0  0  0  0
   44.5909   11.3380   11.6447 O   0  0  0  0  0  0  0  0  0  0  0  0
   45.8987    9.9227   13.1291 C   0  0  0  0  0  0  0  0  0  0  0  0
   47.2696   10.0293   12.7037 O   0  0  0  0  0  0  0  0  0  0  0  0
  1  2  1  6  0  0  0
  1  3  1  0  0  0  0
  1  4  2  0  0  0  0
  1 16  1  0  0  0  0
  5  6  1  1  0  0  0
  5  7  1  0  0  0  0
  5 14  1  0  0  0  0
  7  8  1  6  0  0  0
  7  9  1  0  0  0  0
  9 10  1  1  0  0  0
  9 11  1  0  0  0  0
 11 12  1  1  0  0  0
 11 13  1  0  0  0  0
 13 14  1  0  0  0  0
 13 15  1  1  0  0  0
 15 16  1  0  0  0  0
M  CHG  1   3  -1
M  END
>  <CHROM.1>
-148.35311219,-72.22945852,-34.75786772,45.26789337,11.44872143,12.32179464
0.18957414,0.69144894,-1.16618710

>  <Name>
ligand

>  <RI>
0

>  <Rbt.Current_Directory>
/home/itssahil/PROJECTS/Mol_Feturizer/New_Systems/rnas/3B4B

>  <Rbt.Executable>
rbdock ($Id: //depot/dev/client3/rdock/2013.1/src/exe/rbdock.cxx#4 $)

>  <Rbt.Library>
libRbt.so (2013.1, Build901 2013/11/27)

>  <Rbt.Parameter_File>
/export/apps/rDock/src/rDock_2013.1_src/data/scripts/dock_solv.prm

>  <Rbt.Receptor>
prm/pocket_docking_4.prm

>  <SCORE>
-7.78722

>  <SCORE.INTER>
-10.6383

>  <SCORE.INTER.CONST>
1

>  <SCORE.INTER.POLAR>
-1.12282

>  <SCORE.INTER.ROT>
3

>  <SCORE.INTER.SOLV>
15.133

>  <SCORE.INTER.VDW>
-13.9938

>  <SCORE.INTER.norm>
-0.664894

>  <SCORE.INTRA>
2.85109

>  <SCORE.INTRA.DIHEDRAL>
2.27412

>  <SCORE.INTRA.DIHEDRAL.0>
2.21864

>  <SCORE.INTRA.POLAR>
0

>  <SCORE.INTRA.POLAR.0>
0

>  <SCORE.INTRA.REPUL>
0

>  <SCORE.INTRA.REPUL.0>
0

>  <SCORE.INTRA.SOLV>
2.81762

>  <SCORE.INTRA.SOLV.lig_0>
-58.5963

>  <SCORE.INTRA.VDW>
0.305216

>  <SCORE.INTRA.VDW.0>
-0.437849

>  <SCORE.INTRA.norm>
0.178193

>  <SCORE.RESTR>
0

>  <SCORE.RESTR.CAVITY>
0

>  <SCORE.RESTR.norm>
0

>  <SCORE.SYSTEM>
0

>  <SCORE.SYSTEM.CONST>
0

>  <SCORE.SYSTEM.DIHEDRAL>
0

>  <SCORE.SYSTEM.SOLV>
0

>  <SCORE.SYSTEM.norm>
0

>  <SCORE.heavy>
16

>  <SCORE.norm>
-0.486701

>  <RMSD>
3.327

$$$$
ligand
 OpenBabel11021811463D
libRbt.so/2013.1/901 2013/11/27
 16 16  0  0  0  0  0  0  0  0999 V2000
   47.5681   10.3172   11.7229 P   0  0  2  0  0  0  0  0  0  0  0  0
   47.9808   10.2545   13.1465 O   0  0  0  0  0  0  0  0  0  0  0  0
   48.6585    9.5852   10.7921 O   0  5  0  0  0  0  0  0  0  0  0  0
   47.4603   11.8684   11.2685 O   0  0  0  0  0  0  0  0  0  0  0  0
   43.7005   12.8819   11.1797 C   0  0  2  0  0  0  0  0  0  0  0  0
   44.8153   13.7852   11.2094 O   0  0  0  0  0  0  0  0  0  0  0  0
   42.6643   13.2165   12.2897 C   0  0  2  0  0  0  0  0  0  0  0  0
   42.1888   14.6081   12.1275 N   0  0  0  0  0  0  0  0  0  0  0  0
   43.3434   13.0447   13.6650 C   0  0  1  0  0  0  0  0  0  0  0  0
   42.4074   13.3275   14.7201 O   0  0  0  0  0  0  0  0  0  0  0  0
   43.8276   11.5919   13.7791 C   0  0  2  0  0  0  0  0  0  0  0  0
   44.4788   11.4022   15.0431 O   0  0  0  0  0  0  0  0  0  0  0  0
   44.8293   11.3184   12.6262 C   0  0  2  0  0  0  0  0  0  0  0  0
   44.1810   11.5165   11.3368 O   0  0  0  0  0  0  0  0  0  0  0  0
   45.3225    9.8633   12.7080 C   0  0  0  0  0  0  0  0  0  0  0  0
   46.1466    9.5655   11.5662 O   0  0  0  0  0  0  0  0  0  0  0  0
  1  2  1  1  0  0  0
  1  3  1  0  0  0  0
  1  4  2  0  0  0  0
  1 16  1  0  0  0  0
  5  6  1  1  0  0  0
  5  7  1  0  0  0  0
  5 14  1  0  0  0  0
  7  8  1  6  0  0  0
  7  9  1  0  0  0  0
  9 10  1  1  0  0  0
  9 11  1  0  0  0  0
 11 12  1  1  0  0  0
 11 13  1  0  0  0  0
 13 14  1  0  0  0  0
 13 15  1  6  0  0  0
 15 16  1  0  0  0  0
M  CHG  1   3  -1
M  END
>  <CHROM.1>
174.29494463,72.69638311,38.68795235,45.22360877,11.62735421,12.39086935
-0.05236086,0.63045222,-1.06380709

>  <Name>
ligand

>  <RI>
0

>  <Rbt.Current_Directory>
/home/itssahil/PROJECTS/Mol_Feturizer/New_Systems/rnas/3B4B

>  <Rbt.Executable>
rbdock ($Id: //depot/dev/client3/rdock/2013.1/src/exe/rbdock.cxx#4 $)

>  <Rbt.Library>
libRbt.so (2013.1, Build901 2013/11/27)

>  <Rbt.Parameter_File>
/export/apps/rDock/src/rDock_2013.1_src/data/scripts/dock_solv.prm

>  <Rbt.Receptor>
prm/pocket_docking_5.prm

>  <SCORE>
-9.0069

>  <SCORE.INTER>
-9.75337

>  <SCORE.INTER.CONST>
1

>  <SCORE.INTER.POLAR>
-1.125

>  <SCORE.INTER.ROT>
3

>  <SCORE.INTER.SOLV>
15.9848

>  <SCORE.INTER.VDW>
-13.6805

>  <SCORE.INTER.norm>
-0.609586

>  <SCORE.INTRA>
0.746476

>  <SCORE.INTRA.DIHEDRAL>
-0.667646

>  <SCORE.INTRA.DIHEDRAL.0>
2.21864

>  <SCORE.INTRA.POLAR>
0

>  <SCORE.INTRA.POLAR.0>
0

>  <SCORE.INTRA.REPUL>
0

>  <SCORE.INTRA.REPUL.0>
0

>  <SCORE.INTRA.SOLV>
1.90384

>  <SCORE.INTRA.SOLV.lig_0>
-58.5963

>  <SCORE.INTRA.VDW>
0.12838

>  <SCORE.INTRA.VDW.0>
-0.437849

>  <SCORE.INTRA.norm>
0.0466548

>  <SCORE.RESTR>
0

>  <SCORE.RESTR.CAVITY>
0

>  <SCORE.RESTR.norm>
0

>  <SCORE.SYSTEM>
0

>  <SCORE.SYSTEM.CONST>
0

>  <SCORE.SYSTEM.DIHEDRAL>
0

>  <SCORE.SYSTEM.SOLV>
0

>  <SCORE.SYSTEM.norm>
0

>  <SCORE.heavy>
16

>  <SCORE.norm>
-0.562931

>  <RMSD>
3.355

$$$$
ligand
 OpenBabel11021811463D
libRbt.so/2013.1/901 2013/11/27
 16 16  0  0  0  0  0  0  0  0999 V2000
   47.6135    9.6294    9.5865 P   0  0  2  0  0  0  0  0  0  0  0  0
   47.1476   10.3449    8.3732 O   0  0  0  0  0  0  0  0  0  0  0  0
   49.2217    9.6335    9.6548 O   0  5  0  0  0  0  0  0  0  0  0  0
   47.1039    8.0929    9.5260 O   0  0  0  0  0  0  0  0  0  0  0  0
   43.0630   12.4966   12.6915 C   0  0  2  0  0  0  0  0  0  0  0  0
   43.7387   13.7618   12.7392 O   0  0  0  0  0  0  0  0  0  0  0  0
   43.1394   11.7563   14.0567 C   0  0  2  0  0  0  0  0  0  0  0  0
   42.5499   12.6018   15.1183 N   0  0  0  0  0  0  0  0  0  0  0  0
   44.6205   11.4613   14.3746 C   0  0  1  0  0  0  0  0  0  0  0  0
   44.7299   10.7577   15.6245 O   0  0  0  0  0  0  0  0  0  0  0  0
   45.1872   10.5934   13.2415 C   0  0  2  0  0  0  0  0  0  0  0  0
   46.5703   10.3132   13.4992 O   0  0  0  0  0  0  0  0  0  0  0  0
   45.0497   11.3774   11.9096 C   0  0  2  0  0  0  0  0  0  0  0  0
   43.6492   11.6754   11.6419 O   0  0  0  0  0  0  0  0  0  0  0  0
   45.5992   10.5252   10.7524 C   0  0  0  0  0  0  0  0  0  0  0  0
   47.0254   10.3862   10.8871 O   0  0  0  0  0  0  0  0  0  0  0  0
  1  2  1  6  0  0  0
  1  3  1  0  0  0  0
  1  4  2  0  0  0  0
  1 16  1  0  0  0  0
  5  6  1  1  0  0  0
  5  7  1  0  0  0  0
  5 14  1  0  0  0  0
  7  8  1  1  0  0  0
  7  9  1  0  0  0  0
  9 10  1  1  0  0  0
  9 11  1  0  0  0  0
 11 12  1  1  0  0  0
 11 13  1  0  0  0  0
 13 14  1  0  0  0  0
 13 15  1  6  0  0  0
 15 16  1  0  0  0  0
M  CHG  1   3  -1
M  END
>  <CHROM.1>
-68.20110078,-173.88926171,52.92074142,45.59788697,10.84026148,11.87400998
0.65609981,0.68322375,-1.38839080

>  <Name>
ligand

>  <RI>
0

>  <Rbt.Current_Directory>
/home/itssahil/PROJECTS/Mol_Feturizer/New_Systems/rnas/3B4B

>  <Rbt.Executable>
rbdock ($Id: //depot/dev/client3/rdock/2013.1/src/exe/rbdock.cxx#4 $)

>  <Rbt.Library>
libRbt.so (2013.1, Build901 2013/11/27)

>  <Rbt.Parameter_File>
/export/apps/rDock/src/rDock_2013.1_src/data/scripts/dock_solv.prm

>  <Rbt.Receptor>
prm/pocket_docking_5.prm

>  <SCORE>
-9.17525

>  <SCORE.INTER>
-7.98331

>  <SCORE.INTER.CONST>
1

>  <SCORE.INTER.POLAR>
-1.125

>  <SCORE.INTER.ROT>
3

>  <SCORE.INTER.SOLV>
23.3723

>  <SCORE.INTER.VDW>
-14.963

>  <SCORE.INTER.norm>
-0.498957

>  <SCORE.INTRA>
-1.19194

>  <SCORE.INTRA.DIHEDRAL>
-1.71743

>  <SCORE.INTRA.DIHEDRAL.0>
2.21864

>  <SCORE.INTRA.POLAR>
0

>  <SCORE.INTRA.POLAR.0>
0

>  <SCORE.INTRA.REPUL>
0

>  <SCORE.INTRA.REPUL.0>
0

>  <SCORE.INTRA.SOLV>
-0.879116

>  <SCORE.INTRA.SOLV.lig_0>
-58.5963

>  <SCORE.INTRA.VDW>
0.106334

>  <SCORE.INTRA.VDW.0>
-0.437849

>  <SCORE.INTRA.norm>
-0.074496

>  <SCORE.RESTR>
0

>  <SCORE.RESTR.CAVITY>
0

>  <SCORE.RESTR.norm>
0

>  <SCORE.SYSTEM>
0

>  <SCORE.SYSTEM.CONST>
0

>  <SCORE.SYSTEM.DIHEDRAL>
0

>  <SCORE.SYSTEM.SOLV>
0

>  <SCORE.SYSTEM.norm>
0

>  <SCORE.heavy>
16

>  <SCORE.norm>
-0.573453

>  <RMSD>
3.367

$$$$
ligand
 OpenBabel11021811463D
libRbt.so/2013.1/901 2013/11/27
 16 16  0  0  0  0  0  0  0  0999 V2000
   47.4954   10.1410   12.0141 P   0  0  2  0  0  0  0  0  0  0  0  0
   47.0277    9.5671   10.7285 O   0  0  0  0  0  0  0  0  0  0  0  0
   47.4693   11.7492   11.9507 O   0  5  0  0  0  0  0  0  0  0  0  0
   49.0179    9.6604   12.2883 O   0  0  0  0  0  0  0  0  0  0  0  0
   43.4762   12.5972   11.0731 C   0  0  2  0  0  0  0  0  0  0  0  0
   44.6105   13.4657   10.9357 O   0  0  0  0  0  0  0  0  0  0  0  0
   42.5445   13.0530   12.2315 C   0  0  2  0  0  0  0  0  0  0  0  0
   42.0898   14.4404   11.9916 N   0  0  0  0  0  0  0  0  0  0  0  0
   43.3319   12.9744   13.5565 C   0  0  1  0  0  0  0  0  0  0  0  0
   42.4943   13.3712   14.6566 O   0  0  0  0  0  0  0  0  0  0  0  0
   43.7898   11.5218   13.7531 C   0  0  2  0  0  0  0  0  0  0  0  0
   44.5397   11.4171   14.9715 O   0  0  0  0  0  0  0  0  0  0  0  0
   44.6851   11.1243   12.5497 C   0  0  2  0  0  0  0  0  0  0  0  0
   43.9361   11.2354   11.3053 O   0  0  0  0  0  0  0  0  0  0  0  0
   45.1492    9.6665   12.7137 C   0  0  0  0  0  0  0  0  0  0  0  0
   46.5071    9.6405   13.1901 O   0  0  0  0  0  0  0  0  0  0  0  0
  1  2  1  6  0  0  0
  1  3  1  0  0  0  0
  1  4  2  0  0  0  0
  1 16  1  0  0  0  0
  5  6  1  1  0  0  0
  5  7  1  0  0  0  0
  5 14  1  0  0  0  0
  7  8  1  6  0  0  0
  7  9  1  0  0  0  0
  9 10  1  1  0  0  0
  9 11  1  0  0  0  0
 11 12  1  1  0  0  0
 11 13  1  0  0  0  0
 13 14  1  0  0  0  0
 13 15  1  1  0  0  0
 15 16  1  0  0  0  0
M  CHG  1   3  -1
M  END
>  <CHROM.1>
-101.68374963,-70.40591770,-40.29682376,45.13837092,11.46895221,12.45992340
-0.05594087,0.61491590,-1.22316852

>  <Name>
ligand

>  <RI>
0

>  <Rbt.Current_Directory>
/home/itssahil/PROJECTS/Mol_Feturizer/New_Systems/rnas/3B4B

>  <Rbt.Executable>
rbdock ($Id: //depot/dev/client3/rdock/2013.1/src/exe/rbdock.cxx#4 $)

>  <Rbt.Library>
libRbt.so (2013.1, Build901 2013/11/27)

>  <Rbt.Parameter_File>
/export/apps/rDock/src/rDock_2013.1_src/data/scripts/dock_solv.prm

>  <Rbt.Receptor>
prm/pocket_docking_5.prm

>  <SCORE>
-7.17667

>  <SCORE.INTER>
-9.80155

>  <SCORE.INTER.CONST>
1

>  <SCORE.INTER.POLAR>
-1.125

>  <SCORE.INTER.ROT>
3

>  <SCORE.INTER.SOLV>
18.8233

>  <SCORE.INTER.VDW>
-14.6588

>  <SCORE.INTER.norm>
-0.612597

>  <SCORE.INTRA>
2.62488

>  <SCORE.INTRA.DIHEDRAL>
3.04493

>  <SCORE.INTRA.DIHEDRAL.0>
2.21864

>  <SCORE.INTRA.POLAR>
0

>  <SCORE.INTRA.POLAR.0>
0

>  <SCORE.INTRA.REPUL>
0

>  <SCORE.INTRA.REPUL.0>
0

>  <SCORE.INTRA.SOLV>
1.87955

>  <SCORE.INTRA.SOLV.lig_0>
-58.5963

>  <SCORE.INTRA.VDW>
0.162634

>  <SCORE.INTRA.VDW.0>
-0.437849

>  <SCORE.INTRA.norm>
0.164055

>  <SCORE.RESTR>
0

>  <SCORE.RESTR.CAVITY>
0

>  <SCORE.RESTR.norm>
0

>  <SCORE.SYSTEM>
0

>  <SCORE.SYSTEM.CONST>
0

>  <SCORE.SYSTEM.DIHEDRAL>
0

>  <SCORE.SYSTEM.SOLV>
0

>  <SCORE.SYSTEM.norm>
0

>  <SCORE.heavy>
16

>  <SCORE.norm>
-0.448542

>  <RMSD>
3.367

$$$$
ligand
 OpenBabel11021811463D
libRbt.so/2013.1/901 2013/11/27
 16 16  0  0  0  0  0  0  0  0999 V2000
   46.4328    9.5896    9.0120 P   0  0  2  0  0  0  0  0  0  0  0  0
   45.7031    9.8658    7.7502 O   0  0  0  0  0  0  0  0  0  0  0  0
   47.6526   10.6247    9.1902 O   0  5  0  0  0  0  0  0  0  0  0  0
   47.0353    8.0868    8.9596 O   0  0  0  0  0  0  0  0  0  0  0  0
   43.8434   10.9744   13.9067 C   0  0  2  0  0  0  0  0  0  0  0  0
   42.6889   10.1388   13.7379 O   0  0  0  0  0  0  0  0  0  0  0  0
   43.4454   12.4615   14.1253 C   0  0  2  0  0  0  0  0  0  0  0  0
   42.5647   12.5752   15.3087 N   0  0  0  0  0  0  0  0  0  0  0  0
   42.7091   12.9643   12.8656 C   0  0  1  0  0  0  0  0  0  0  0  0
   42.3414   14.3460   13.0232 O   0  0  0  0  0  0  0  0  0  0  0  0
   43.6583   12.8152   11.6676 C   0  0  2  0  0  0  0  0  0  0  0  0
   42.9973   13.2608   10.4749 O   0  0  0  0  0  0  0  0  0  0  0  0
   44.0389   11.3175   11.5287 C   0  0  2  0  0  0  0  0  0  0  0  0
   44.7034   10.8515   12.7384 O   0  0  0  0  0  0  0  0  0  0  0  0
   45.0013   11.1396   10.3415 C   0  0  0  0  0  0  0  0  0  0  0  0
   45.4063    9.7617   10.2477 O   0  0  0  0  0  0  0  0  0  0  0  0
  1  2  1  6  0  0  0
  1  3  1  0  0  0  0
  1  4  2  0  0  0  0
  1 16  1  0  0  0  0
  5  6  1  6  0  0  0
  5  7  1  0  0  0  0
  5 14  1  0  0  0  0
  7  8  1  1  0  0  0
  7  9  1  0  0  0  0
  9 10  1  1  0  0  0
  9 11  1  0  0  0  0
 11 12  1  6  0  0  0
 11 13  1  0  0  0  0
 13 14  1  0  0  0  0
 13 15  1  6  0  0  0
 15 16  1  0  0  0  0
M  CHG  1   3  -1
M  END
>  <CHROM.1>
177.31400253,-179.18440412,-65.82791185,44.57017033,11.14020930,11.30894655
-0.29790527,-0.96176986,2.20554060

>  <Name>
ligand

>  <RI>
0

>  <Rbt.Current_Directory>
/home/itssahil/PROJECTS/Mol_Feturizer/New_Systems/rnas/3B4B

>  <Rbt.Executable>
rbdock ($Id: //depot/dev/client3/rdock/2013.1/src/exe/rbdock.cxx#4 $)

>  <Rbt.Library>
libRbt.so (2013.1, Build901 2013/11/27)

>  <Rbt.Parameter_File>
/export/apps/rDock/src/rDock_2013.1_src/data/scripts/dock_solv.prm

>  <Rbt.Receptor>
prm/pocket_docking_7.prm

>  <SCORE>
-7.22392

>  <SCORE.INTER>
-5.57312

>  <SCORE.INTER.CONST>
1

>  <SCORE.INTER.POLAR>
0

>  <SCORE.INTER.ROT>
3

>  <SCORE.INTER.SOLV>
21.2383

>  <SCORE.INTER.VDW>
-16.3948

>  <SCORE.INTER.norm>
-0.34832

>  <SCORE.INTRA>
-1.6508

>  <SCORE.INTRA.DIHEDRAL>
-2.13537

>  <SCORE.INTRA.DIHEDRAL.0>
2.21864

>  <SCORE.INTRA.POLAR>
0

>  <SCORE.INTRA.POLAR.0>
0

>  <SCORE.INTRA.REPUL>
0

>  <SCORE.INTRA.REPUL.0>
0

>  <SCORE.INTRA.SOLV>
-1.07827

>  <SCORE.INTRA.SOLV.lig_0>
-58.5963

>  <SCORE.INTRA.VDW>
-0.0439774

>  <SCORE.INTRA.VDW.0>
-0.437849

>  <SCORE.INTRA.norm>
-0.103175

>  <SCORE.RESTR>
0

>  <SCORE.RESTR.CAVITY>
0

>  <SCORE.RESTR.norm>
0

>  <SCORE.SYSTEM>
0

>  <SCORE.SYSTEM.CONST>
0

>  <SCORE.SYSTEM.DIHEDRAL>
0

>  <SCORE.SYSTEM.SOLV>
0

>  <SCORE.SYSTEM.norm>
0

>  <SCORE.heavy>
16

>  <SCORE.norm>
-0.451495

>  <RMSD>
3.386

$$$$
ligand
 OpenBabel11021811463D
libRbt.so/2013.1/901 2013/11/27
 16 16  0  0  0  0  0  0  0  0999 V2000
   47.5166   10.1829   10.1497 P   0  0  2  0  0  0  0  0  0  0  0  0
   47.9318    9.9358    8.7470 O   0  0  0  0  0  0  0  0  0  0  0  0
   47.4381   11.7645   10.4389 O   0  5  0  0  0  0  0  0  0  0  0  0
   48.6098    9.5294   11.1507 O   0  0  0  0  0  0  0  0  0  0  0  0
   43.4756   12.6868   10.8794 C   0  0  2  0  0  0  0  0  0  0  0  0
   44.4951   13.6759   10.6742 O   0  0  0  0  0  0  0  0  0  0  0  0
   42.7505   12.8876   12.2402 C   0  0  2  0  0  0  0  0  0  0  0  0
   42.1565   14.2415   12.2958 N   0  0  0  0  0  0  0  0  0  0  0  0
   43.7796   12.7125   13.3769 C   0  0  1  0  0  0  0  0  0  0  0  0
   43.1398   12.8722   14.6554 O   0  0  0  0  0  0  0  0  0  0  0  0
   44.3733   11.3004   13.2687 C   0  0  2  0  0  0  0  0  0  0  0  0
   45.3473   11.1100   14.3045 O   0  0  0  0  0  0  0  0  0  0  0  0
   45.0499   11.1595   11.8795 C   0  0  2  0  0  0  0  0  0  0  0  0
   44.0712   11.3597   10.8192 O   0  0  0  0  0  0  0  0  0  0  0  0
   45.6438    9.7472   11.7378 C   0  0  0  0  0  0  0  0  0  0  0  0
   46.0567    9.5291   10.3764 O   0  0  0  0  0  0  0  0  0  0  0  0
  1  2  1  6  0  0  0
  1  3  1  0  0  0  0
  1  4  2  0  0  0  0
  1 16  1  0  0  0  0
  5  6  1  1  0  0  0
  5  7  1  0  0  0  0
  5 14  1  0  0  0  0
  7  8  1  6  0  0  0
  7  9  1  0  0  0  0
  9 10  1  1  0  0  0
  9 11  1  0  0  0  0
 11 12  1  1  0  0  0
 11 13  1  0  0  0  0
 13 14  1  0  0  0  0
 13 15  1  1  0  0  0
 15 16  1  0  0  0  0
M  CHG  1   3  -1
M  END
>  <CHROM.1>
169.72039524,82.16520863,179.39098205,45.34930014,11.41952649,11.55267746
0.30277591,0.69349863,-1.26787077

>  <Name>
ligand

>  <RI>
0

>  <Rbt.Current_Directory>
/home/itssahil/PROJECTS/Mol_Feturizer/New_Systems/rnas/3B4B

>  <Rbt.Executable>
rbdock ($Id: //depot/dev/client3/rdock/2013.1/src/exe/rbdock.cxx#4 $)

>  <Rbt.Library>
libRbt.so (2013.1, Build901 2013/11/27)

>  <Rbt.Parameter_File>
/export/apps/rDock/src/rDock_2013.1_src/data/scripts/dock_solv.prm

>  <Rbt.Receptor>
prm/pocket_docking_5.prm

>  <SCORE>
-7.15726

>  <SCORE.INTER>
-8.18181

>  <SCORE.INTER.CONST>
1

>  <SCORE.INTER.POLAR>
-1.12477

>  <SCORE.INTER.ROT>
3

>  <SCORE.INTER.SOLV>
13.8189

>  <SCORE.INTER.VDW>
-11.9116

>  <SCORE.INTER.norm>
-0.511363

>  <SCORE.INTRA>
1.02455

>  <SCORE.INTRA.DIHEDRAL>
0.318349

>  <SCORE.INTRA.DIHEDRAL.0>
2.21864

>  <SCORE.INTRA.POLAR>
0

>  <SCORE.INTRA.POLAR.0>
0

>  <SCORE.INTRA.REPUL>
0

>  <SCORE.INTRA.REPUL.0>
0

>  <SCORE.INTRA.SOLV>
2.5303

>  <SCORE.INTRA.SOLV.lig_0>
-58.5963

>  <SCORE.INTRA.VDW>
-0.399774

>  <SCORE.INTRA.VDW.0>
-0.437849

>  <SCORE.INTRA.norm>
0.0640343

>  <SCORE.RESTR>
0

>  <SCORE.RESTR.CAVITY>
0

>  <SCORE.RESTR.norm>
0

>  <SCORE.SYSTEM>
0

>  <SCORE.SYSTEM.CONST>
0

>  <SCORE.SYSTEM.DIHEDRAL>
0

>  <SCORE.SYSTEM.SOLV>
0

>  <SCORE.SYSTEM.norm>
0

>  <SCORE.heavy>
16

>  <SCORE.norm>
-0.447329

>  <RMSD>
3.394

$$$$
ligand
 OpenBabel11021811463D
libRbt.so/2013.1/901 2013/11/27
 16 16  0  0  0  0  0  0  0  0999 V2000
   47.6386    9.3758    9.4975 P   0  0  2  0  0  0  0  0  0  0  0  0
   48.5074    8.7386   10.5174 O   0  0  0  0  0  0  0  0  0  0  0  0
   47.0662    8.2677    8.4799 O   0  5  0  0  0  0  0  0  0  0  0  0
   48.5093   10.4500    8.6537 O   0  0  0  0  0  0  0  0  0  0  0  0
   43.5043   12.4524   12.1187 C   0  0  2  0  0  0  0  0  0  0  0  0
   43.8392   13.7900   12.5165 O   0  0  0  0  0  0  0  0  0  0  0  0
   43.4040   11.5002   13.3437 C   0  0  2  0  0  0  0  0  0  0  0  0
   42.3908   12.0112   14.2932 N   0  0  0  0  0  0  0  0  0  0  0  0
   44.7855   11.4312   14.0282 C   0  0  1  0  0  0  0  0  0  0  0  0
   44.7367   10.5419   15.1578 O   0  0  0  0  0  0  0  0  0  0  0  0
   45.8003   10.9076   13.0014 C   0  0  2  0  0  0  0  0  0  0  0  0
   47.1012   10.8458   13.6028 O   0  0  0  0  0  0  0  0  0  0  0  0
   45.8248   11.8845   11.7962 C   0  0  2  0  0  0  0  0  0  0  0  0
   44.5059   11.9620   11.1826 O   0  0  0  0  0  0  0  0  0  0  0  0
   46.8258   11.3772   10.7436 C   0  0  0  0  0  0  0  0  0  0  0  0
   46.4024   10.0929   10.2509 O   0  0  0  0  0  0  0  0  0  0  0  0
  1  2  1  1  0  0  0
  1  3  1  0  0  0  0
  1  4  2  0  0  0  0
  1 16  1  0  0  0  0
  5  6  1  1  0  0  0
  5  7  1  0  0  0  0
  5 14  1  0  0  0  0
  7  8  1  1  0  0  0
  7  9  1  0  0  0  0
  9 10  1  1  0  0  0
  9 11  1  0  0  0  0
 11 12  1  1  0  0  0
 11 13  1  0  0  0  0
 13 14  1  0  0  0  0
 13 15  1  6  0  0  0
 15 16  1  0  0  0  0
M  CHG  1   3  -1
M  END
>  <CHROM.1>
62.25015285,-163.45649320,81.67288556,45.87106786,10.83148994,11.61363703
-0.60109646,-0.72449486,1.78579783

>  <Name>
ligand

>  <RI>
0

>  <Rbt.Current_Directory>
/home/itssahil/PROJECTS/Mol_Feturizer/New_Systems/rnas/3B4B

>  <Rbt.Executable>
rbdock ($Id: //depot/dev/client3/rdock/2013.1/src/exe/rbdock.cxx#4 $)

>  <Rbt.Library>
libRbt.so (2013.1, Build901 2013/11/27)

>  <Rbt.Parameter_File>
/export/apps/rDock/src/rDock_2013.1_src/data/scripts/dock_solv.prm

>  <Rbt.Receptor>
prm/pocket_docking_7.prm

>  <SCORE>
-6.8765

>  <SCORE.INTER>
-6.27478

>  <SCORE.INTER.CONST>
1

>  <SCORE.INTER.POLAR>
-0.898993

>  <SCORE.INTER.ROT>
3

>  <SCORE.INTER.SOLV>
20.6279

>  <SCORE.INTER.VDW>
-13.6625

>  <SCORE.INTER.norm>
-0.392174

>  <SCORE.INTRA>
-0.604492

>  <SCORE.INTRA.DIHEDRAL>
-0.233069

>  <SCORE.INTRA.DIHEDRAL.0>
2.21864

>  <SCORE.INTRA.POLAR>
0

>  <SCORE.INTRA.POLAR.0>
0

>  <SCORE.INTRA.REPUL>
0

>  <SCORE.INTRA.REPUL.0>
0

>  <SCORE.INTRA.SOLV>
-0.647398

>  <SCORE.INTRA.SOLV.lig_0>
-58.5963

>  <SCORE.INTRA.VDW>
-0.164258

>  <SCORE.INTRA.VDW.0>
-0.437849

>  <SCORE.INTRA.norm>
-0.0377808

>  <SCORE.RESTR>
0.00277899

>  <SCORE.RESTR.CAVITY>
0.00277899

>  <SCORE.RESTR.norm>
0.000173687

>  <SCORE.SYSTEM>
0

>  <SCORE.SYSTEM.CONST>
0

>  <SCORE.SYSTEM.DIHEDRAL>
0

>  <SCORE.SYSTEM.SOLV>
0

>  <SCORE.SYSTEM.norm>
0

>  <SCORE.heavy>
16

>  <SCORE.norm>
-0.429781

>  <RMSD>
3.411

$$$$
ligand
 OpenBabel11021811463D
libRbt.so/2013.1/901 2013/11/27
 16 16  0  0  0  0  0  0  0  0999 V2000
   47.5135    9.5169    9.6213 P   0  0  2  0  0  0  0  0  0  0  0  0
   46.9755    8.1347    9.5875 O   0  0  0  0  0  0  0  0  0  0  0  0
   47.0489   10.3297    8.3120 O   0  5  0  0  0  0  0  0  0  0  0  0
   49.1322    9.4568    9.6436 O   0  0  0  0  0  0  0  0  0  0  0  0
   43.0490   12.4918   12.7539 C   0  0  2  0  0  0  0  0  0  0  0  0
   43.7537   13.7409   12.8079 O   0  0  0  0  0  0  0  0  0  0  0  0
   43.1169   11.7383   14.1123 C   0  0  2  0  0  0  0  0  0  0  0  0
   42.5535   12.5880   15.1847 N   0  0  0  0  0  0  0  0  0  0  0  0
   44.5928   11.4069   14.4183 C   0  0  1  0  0  0  0  0  0  0  0  0
   44.6939   10.6904   15.6615 O   0  0  0  0  0  0  0  0  0  0  0  0
   45.1325   10.5361   13.2743 C   0  0  2  0  0  0  0  0  0  0  0  0
   46.5104   10.2222   13.5208 O   0  0  0  0  0  0  0  0  0  0  0  0
   45.0047   11.3344   11.9499 C   0  0  2  0  0  0  0  0  0  0  0  0
   43.6097   11.6664   11.6937 O   0  0  0  0  0  0  0  0  0  0  0  0
   45.5274   10.4798   10.7821 C   0  0  0  0  0  0  0  0  0  0  0  0
   46.9411   10.2591   10.9373 O   0  0  0  0  0  0  0  0  0  0  0  0
  1  2  1  6  0  0  0
  1  3  1  0  0  0  0
  1  4  2  0  0  0  0
  1 16  1  0  0  0  0
  5  6  1  1  0  0  0
  5  7  1  0  0  0  0
  5 14  1  0  0  0  0
  7  8  1  1  0  0  0
  7  9  1  0  0  0  0
  9 10  1  1  0  0  0
  9 11  1  0  0  0  0
 11 12  1  1  0  0  0
 11 13  1  0  0  0  0
 13 14  1  0  0  0  0
 13 15  1  6  0  0  0
 15 16  1  0  0  0  0
M  CHG  1   3  -1
M  END
>  <CHROM.1>
-65.75485677,-173.20986960,-68.97385776,45.54024099,10.78444032,11.90960932
0.65931796,0.70406252,-1.38270285

>  <Name>
ligand

>  <RI>
0

>  <Rbt.Current_Directory>
/home/itssahil/PROJECTS/Mol_Feturizer/New_Systems/rnas/3B4B

>  <Rbt.Executable>
rbdock ($Id: //depot/dev/client3/rdock/2013.1/src/exe/rbdock.cxx#4 $)

>  <Rbt.Library>
libRbt.so (2013.1, Build901 2013/11/27)

>  <Rbt.Parameter_File>
/export/apps/rDock/src/rDock_2013.1_src/data/scripts/dock_solv.prm

>  <Rbt.Receptor>
prm/pocket_docking_7.prm

>  <SCORE>
-9.14479

>  <SCORE.INTER>
-8.05595

>  <SCORE.INTER.CONST>
1

>  <SCORE.INTER.POLAR>
-1.125

>  <SCORE.INTER.ROT>
3

>  <SCORE.INTER.SOLV>
23.2899

>  <SCORE.INTER.VDW>
-14.9839

>  <SCORE.INTER.norm>
-0.503497

>  <SCORE.INTRA>
-1.08913

>  <SCORE.INTRA.DIHEDRAL>
-1.74732

>  <SCORE.INTRA.DIHEDRAL.0>
2.21864

>  <SCORE.INTRA.POLAR>
0

>  <SCORE.INTRA.POLAR.0>
0

>  <SCORE.INTRA.REPUL>
0

>  <SCORE.INTRA.REPUL.0>
0

>  <SCORE.INTRA.SOLV>
-0.625598

>  <SCORE.INTRA.SOLV.lig_0>
-58.5963

>  <SCORE.INTRA.VDW>
0.0973346

>  <SCORE.INTRA.VDW.0>
-0.437849

>  <SCORE.INTRA.norm>
-0.0680704

>  <SCORE.RESTR>
0.000280583

>  <SCORE.RESTR.CAVITY>
0.000280583

>  <SCORE.RESTR.norm>
1.75364e-05

>  <SCORE.SYSTEM>
0

>  <SCORE.SYSTEM.CONST>
0

>  <SCORE.SYSTEM.DIHEDRAL>
0

>  <SCORE.SYSTEM.SOLV>
0

>  <SCORE.SYSTEM.norm>
0

>  <SCORE.heavy>
16

>  <SCORE.norm>
-0.571549

>  <RMSD>
3.453

$$$$
ligand
 OpenBabel11021811463D
libRbt.so/2013.1/901 2013/11/27
 16 16  0  0  0  0  0  0  0  0999 V2000
   47.4546    9.2267    9.5433 P   0  0  2  0  0  0  0  0  0  0  0  0
   47.3001    7.7530    9.4695 O   0  0  0  0  0  0  0  0  0  0  0  0
   47.1013    9.8975    8.1234 O   0  5  0  0  0  0  0  0  0  0  0  0
   48.9910    9.5822    9.9136 O   0  0  0  0  0  0  0  0  0  0  0  0
   43.3300   12.2336   12.3100 C   0  0  2  0  0  0  0  0  0  0  0  0
   43.6090   13.6194   12.5581 O   0  0  0  0  0  0  0  0  0  0  0  0
   43.3822   11.3970   13.6196 C   0  0  2  0  0  0  0  0  0  0  0  0
   42.4132   11.9380   14.5981 N   0  0  0  0  0  0  0  0  0  0  0  0
   44.8129   11.4700   14.1938 C   0  0  1  0  0  0  0  0  0  0  0  0
   44.9052   10.6897   15.3987 O   0  0  0  0  0  0  0  0  0  0  0  0
   45.7785   10.9093   13.1395 C   0  0  2  0  0  0  0  0  0  0  0  0
   47.1223   10.9771   13.6371 O   0  0  0  0  0  0  0  0  0  0  0  0
   45.6508   11.7682   11.8536 C   0  0  2  0  0  0  0  0  0  0  0  0
   44.2873   11.7138   11.3439 O   0  0  0  0  0  0  0  0  0  0  0  0
   46.5998   11.2205   10.7734 C   0  0  0  0  0  0  0  0  0  0  0  0
   46.4400    9.7943   10.6652 O   0  0  0  0  0  0  0  0  0  0  0  0
  1  2  1  6  0  0  0
  1  3  1  0  0  0  0
  1  4  2  0  0  0  0
  1 16  1  0  0  0  0
  5  6  1  1  0  0  0
  5  7  1  0  0  0  0
  5 14  1  0  0  0  0
  7  8  1  1  0  0  0
  7  9  1  0  0  0  0
  9 10  1  1  0  0  0
  9 11  1  0  0  0  0
 11 12  1  1  0  0  0
 11 13  1  0  0  0  0
 13 14  1  0  0  0  0
 13 15  1  6  0  0  0
 15 16  1  0  0  0  0
M  CHG  1   3  -1
M  END
>  <CHROM.1>
48.35517394,-179.22881993,178.61380716,45.76041126,10.73782962,11.72811241
0.73244505,0.65267522,-1.52561581

>  <Name>
ligand

>  <RI>
0

>  <Rbt.Current_Directory>
/home/itssahil/PROJECTS/Mol_Feturizer/New_Systems/rnas/3B4B

>  <Rbt.Executable>
rbdock ($Id: //depot/dev/client3/rdock/2013.1/src/exe/rbdock.cxx#4 $)

>  <Rbt.Library>
libRbt.so (2013.1, Build901 2013/11/27)

>  <Rbt.Parameter_File>
/export/apps/rDock/src/rDock_2013.1_src/data/scripts/dock_solv.prm

>  <Rbt.Receptor>
prm/pocket_docking_6.prm

>  <SCORE>
-8.51287

>  <SCORE.INTER>
-7.35251

>  <SCORE.INTER.CONST>
1

>  <SCORE.INTER.POLAR>
-1.125

>  <SCORE.INTER.ROT>
3

>  <SCORE.INTER.SOLV>
21.5477

>  <SCORE.INTER.VDW>
-13.9342

>  <SCORE.INTER.norm>
-0.459532

>  <SCORE.INTRA>
-1.16392

>  <SCORE.INTRA.DIHEDRAL>
-1.73838

>  <SCORE.INTRA.DIHEDRAL.0>
2.21864

>  <SCORE.INTRA.POLAR>
0

>  <SCORE.INTRA.POLAR.0>
0

>  <SCORE.INTRA.REPUL>
0

>  <SCORE.INTRA.REPUL.0>
0

>  <SCORE.INTRA.SOLV>
-0.210796

>  <SCORE.INTRA.SOLV.lig_0>
-58.5963

>  <SCORE.INTRA.VDW>
-0.189335

>  <SCORE.INTRA.VDW.0>
-0.437849

>  <SCORE.INTRA.norm>
-0.0727452

>  <SCORE.RESTR>
0.00356207

>  <SCORE.RESTR.CAVITY>
0.00356207

>  <SCORE.RESTR.norm>
0.000222629

>  <SCORE.SYSTEM>
0

>  <SCORE.SYSTEM.CONST>
0

>  <SCORE.SYSTEM.DIHEDRAL>
0

>  <SCORE.SYSTEM.SOLV>
0

>  <SCORE.SYSTEM.norm>
0

>  <SCORE.heavy>
16

>  <SCORE.norm>
-0.532054

>  <RMSD>
3.459

$$$$
ligand
 OpenBabel11021811463D
libRbt.so/2013.1/901 2013/11/27
 16 16  0  0  0  0  0  0  0  0999 V2000
   47.4497    9.4606    9.6473 P   0  0  2  0  0  0  0  0  0  0  0  0
   46.4226    8.6654    8.9304 O   0  0  0  0  0  0  0  0  0  0  0  0
   47.9299   10.7007    8.7403 O   0  5  0  0  0  0  0  0  0  0  0  0
   48.7319    8.5195    9.9545 O   0  0  0  0  0  0  0  0  0  0  0  0
   43.1142   12.6349   12.7589 C   0  0  2  0  0  0  0  0  0  0  0  0
   43.8784   13.8474   12.8335 O   0  0  0  0  0  0  0  0  0  0  0  0
   43.1498   11.8537   14.1028 C   0  0  2  0  0  0  0  0  0  0  0  0
   42.6311   12.7091   15.1929 N   0  0  0  0  0  0  0  0  0  0  0  0
   44.6089   11.4460   14.3968 C   0  0  1  0  0  0  0  0  0  0  0  0
   44.6791   10.7023   15.6261 O   0  0  0  0  0  0  0  0  0  0  0  0
   45.1027   10.5719   13.2348 C   0  0  2  0  0  0  0  0  0  0  0  0
   46.4646   10.1875   13.4701 O   0  0  0  0  0  0  0  0  0  0  0  0
   45.0096   11.4001   11.9260 C   0  0  2  0  0  0  0  0  0  0  0  0
   43.6314   11.8036   11.6813 O   0  0  0  0  0  0  0  0  0  0  0  0
   45.4871   10.5434   10.7405 C   0  0  0  0  0  0  0  0  0  0  0  0
   46.8009   10.0240   11.0155 O   0  0  0  0  0  0  0  0  0  0  0  0
  1  2  1  6  0  0  0
  1  3  1  0  0  0  0
  1  4  2  0  0  0  0
  1 16  1  0  0  0  0
  5  6  1  1  0  0  0
  5  7  1  0  0  0  0
  5 14  1  0  0  0  0
  7  8  1  1  0  0  0
  7  9  1  0  0  0  0
  9 10  1  1  0  0  0
  9 11  1  0  0  0  0
 11 12  1  1  0  0  0
 11 13  1  0  0  0  0
 13 14  1  0  0  0  0
 13 15  1  6  0  0  0
 15 16  1  0  0  0  0
M  CHG  1   3  -1
M  END
>  <CHROM.1>
-54.03639660,-165.39921337,-44.70029805,45.53105286,10.80524728,11.91189033
0.62003093,0.75899139,-1.34546732

>  <Name>
ligand

>  <RI>
0

>  <Rbt.Current_Directory>
/home/itssahil/PROJECTS/Mol_Feturizer/New_Systems/rnas/3B4B

>  <Rbt.Executable>
rbdock ($Id: //depot/dev/client3/rdock/2013.1/src/exe/rbdock.cxx#4 $)

>  <Rbt.Library>
libRbt.so (2013.1, Build901 2013/11/27)

>  <Rbt.Parameter_File>
/export/apps/rDock/src/rDock_2013.1_src/data/scripts/dock_solv.prm

>  <Rbt.Receptor>
prm/pocket_docking_5.prm

>  <SCORE>
-8.58959

>  <SCORE.INTER>
-8.79398

>  <SCORE.INTER.CONST>
1

>  <SCORE.INTER.POLAR>
-1.125

>  <SCORE.INTER.ROT>
3

>  <SCORE.INTER.SOLV>
23.5605

>  <SCORE.INTER.VDW>
-15.5662

>  <SCORE.INTER.norm>
-0.549624

>  <SCORE.INTRA>
0.204388

>  <SCORE.INTRA.DIHEDRAL>
-0.719014

>  <SCORE.INTRA.DIHEDRAL.0>
2.21864

>  <SCORE.INTRA.POLAR>
0

>  <SCORE.INTRA.POLAR.0>
0

>  <SCORE.INTRA.REPUL>
0

>  <SCORE.INTRA.REPUL.0>
0

>  <SCORE.INTRA.SOLV>
-0.738024

>  <SCORE.INTRA.SOLV.lig_0>
-58.5963

>  <SCORE.INTRA.VDW>
0.932907

>  <SCORE.INTRA.VDW.0>
-0.437849

>  <SCORE.INTRA.norm>
0.0127743

>  <SCORE.RESTR>
0

>  <SCORE.RESTR.CAVITY>
0

>  <SCORE.RESTR.norm>
0

>  <SCORE.SYSTEM>
0

>  <SCORE.SYSTEM.CONST>
0

>  <SCORE.SYSTEM.DIHEDRAL>
0

>  <SCORE.SYSTEM.SOLV>
0

>  <SCORE.SYSTEM.norm>
0

>  <SCORE.heavy>
16

>  <SCORE.norm>
-0.536849

>  <RMSD>
3.490

$$$$
ligand
 OpenBabel11021811463D
libRbt.so/2013.1/901 2013/11/27
 16 16  0  0  0  0  0  0  0  0999 V2000
   47.4847    9.3761    9.5911 P   0  0  2  0  0  0  0  0  0  0  0  0
   46.4716    8.5856    8.8496 O   0  0  0  0  0  0  0  0  0  0  0  0
   47.9643   10.6358    8.7113 O   0  5  0  0  0  0  0  0  0  0  0  0
   48.7713    8.4397    9.8951 O   0  0  0  0  0  0  0  0  0  0  0  0
   43.1799   12.6089   12.6769 C   0  0  2  0  0  0  0  0  0  0  0  0
   43.9945   13.7830   12.8092 O   0  0  0  0  0  0  0  0  0  0  0  0
   43.1371   11.7913   13.9988 C   0  0  2  0  0  0  0  0  0  0  0  0
   42.6221   12.6400   15.0958 N   0  0  0  0  0  0  0  0  0  0  0  0
   44.5664   11.3100   14.3265 C   0  0  1  0  0  0  0  0  0  0  0  0
   44.5635   10.5313   15.5360 O   0  0  0  0  0  0  0  0  0  0  0  0
   45.0581   10.4456   13.1563 C   0  0  2  0  0  0  0  0  0  0  0  0
   46.3932    9.9936   13.4231 O   0  0  0  0  0  0  0  0  0  0  0  0
   45.0444   11.3118   11.8691 C   0  0  2  0  0  0  0  0  0  0  0  0
   43.6942   11.7839   11.5930 O   0  0  0  0  0  0  0  0  0  0  0  0
   45.5213   10.4663   10.6754 C   0  0  0  0  0  0  0  0  0  0  0  0
   46.8173    9.9099   10.9622 O   0  0  0  0  0  0  0  0  0  0  0  0
  1  2  1  6  0  0  0
  1  3  1  0  0  0  0
  1  4  2  0  0  0  0
  1 16  1  0  0  0  0
  5  6  1  1  0  0  0
  5  7  1  0  0  0  0
  5 14  1  0  0  0  0
  7  8  1  1  0  0  0
  7  9  1  0  0  0  0
  9 10  1  1  0  0  0
  9 11  1  0  0  0  0
 11 12  1  1  0  0  0
 11 13  1  0  0  0  0
 13 14  1  0  0  0  0
 13 15  1  6  0  0  0
 15 16  1  0  0  0  0
M  CHG  1   3  -1
M  END
>  <CHROM.1>
-55.57534545,-164.58772460,-46.69283504,45.54510978,10.71407559,11.84576341
0.56489613,0.78863713,-1.27164372

>  <Name>
ligand

>  <RI>
0

>  <Rbt.Current_Directory>
/home/itssahil/PROJECTS/Mol_Feturizer/New_Systems/rnas/3B4B

>  <Rbt.Executable>
rbdock ($Id: //depot/dev/client3/rdock/2013.1/src/exe/rbdock.cxx#4 $)

>  <Rbt.Library>
libRbt.so (2013.1, Build901 2013/11/27)

>  <Rbt.Parameter_File>
/export/apps/rDock/src/rDock_2013.1_src/data/scripts/dock_solv.prm

>  <Rbt.Receptor>
prm/pocket_docking_6.prm

>  <SCORE>
-8.53183

>  <SCORE.INTER>
-8.57286

>  <SCORE.INTER.CONST>
1

>  <SCORE.INTER.POLAR>
-1.125

>  <SCORE.INTER.ROT>
3

>  <SCORE.INTER.SOLV>
23.2775

>  <SCORE.INTER.VDW>
-15.3244

>  <SCORE.INTER.norm>
-0.535804

>  <SCORE.INTRA>
0.0410278

>  <SCORE.INTRA.DIHEDRAL>
-0.753777

>  <SCORE.INTRA.DIHEDRAL.0>
2.21864

>  <SCORE.INTRA.POLAR>
0

>  <SCORE.INTRA.POLAR.0>
0

>  <SCORE.INTRA.REPUL>
0

>  <SCORE.INTRA.REPUL.0>
0

>  <SCORE.INTRA.SOLV>
-0.733428

>  <SCORE.INTRA.SOLV.lig_0>
-58.5963

>  <SCORE.INTRA.VDW>
0.78463

>  <SCORE.INTRA.VDW.0>
-0.437849

>  <SCORE.INTRA.norm>
0.00256424

>  <SCORE.RESTR>
0

>  <SCORE.RESTR.CAVITY>
0

>  <SCORE.RESTR.norm>
0

>  <SCORE.SYSTEM>
0

>  <SCORE.SYSTEM.CONST>
0

>  <SCORE.SYSTEM.DIHEDRAL>
0

>  <SCORE.SYSTEM.SOLV>
0

>  <SCORE.SYSTEM.norm>
0

>  <SCORE.heavy>
16

>  <SCORE.norm>
-0.533239

>  <RMSD>
3.501

$$$$
ligand
 OpenBabel11021811463D
libRbt.so/2013.1/901 2013/11/27
 16 16  0  0  0  0  0  0  0  0999 V2000
   47.4598    9.3918    9.5734 P   0  0  2  0  0  0  0  0  0  0  0  0
   46.4781    8.5594    8.8356 O   0  0  0  0  0  0  0  0  0  0  0  0
   47.8523   10.6915    8.7086 O   0  5  0  0  0  0  0  0  0  0  0  0
   48.8017    8.5233    9.8368 O   0  0  0  0  0  0  0  0  0  0  0  0
   43.1443   12.5264   12.7197 C   0  0  2  0  0  0  0  0  0  0  0  0
   43.9362   13.7212   12.7898 O   0  0  0  0  0  0  0  0  0  0  0  0
   43.1617   11.7497   14.0665 C   0  0  2  0  0  0  0  0  0  0  0  0
   42.6627   12.6210   15.1533 N   0  0  0  0  0  0  0  0  0  0  0  0
   44.6110   11.3096   14.3624 C   0  0  1  0  0  0  0  0  0  0  0  0
   44.6638   10.5691   15.5945 O   0  0  0  0  0  0  0  0  0  0  0  0
   45.0847   10.4199   13.2038 C   0  0  2  0  0  0  0  0  0  0  0  0
   46.4373   10.0051   13.4408 O   0  0  0  0  0  0  0  0  0  0  0  0
   45.0108   11.2451   11.8919 C   0  0  2  0  0  0  0  0  0  0  0  0
   43.6424   11.6793   11.6453 O   0  0  0  0  0  0  0  0  0  0  0  0
   45.4686   10.3731   10.7097 C   0  0  0  0  0  0  0  0  0  0  0  0
   46.7900    9.8636   10.9659 O   0  0  0  0  0  0  0  0  0  0  0  0
  1  2  1  6  0  0  0
  1  3  1  0  0  0  0
  1  4  2  0  0  0  0
  1 16  1  0  0  0  0
  5  6  1  1  0  0  0
  5  7  1  0  0  0  0
  5 14  1  0  0  0  0
  7  8  1  1  0  0  0
  7  9  1  0  0  0  0
  9 10  1  1  0  0  0
  9 11  1  0  0  0  0
 11 12  1  1  0  0  0
 11 13  1  0  0  0  0
 13 14  1  0  0  0  0
 13 15  1  6  0  0  0
 15 16  1  0  0  0  0
M  CHG  1   3  -1
M  END
>  <CHROM.1>
-56.09114775,-160.89876069,-47.66068173,45.53843358,10.69536761,11.86227908
0.61765966,0.76458903,-1.32554550

>  <Name>
ligand

>  <RI>
0

>  <Rbt.Current_Directory>
/home/itssahil/PROJECTS/Mol_Feturizer/New_Systems/rnas/3B4B

>  <Rbt.Executable>
rbdock ($Id: //depot/dev/client3/rdock/2013.1/src/exe/rbdock.cxx#4 $)

>  <Rbt.Library>
libRbt.so (2013.1, Build901 2013/11/27)

>  <Rbt.Parameter_File>
/export/apps/rDock/src/rDock_2013.1_src/data/scripts/dock_solv.prm

>  <Rbt.Receptor>
prm/pocket_docking_5.prm

>  <SCORE>
-8.6001

>  <SCORE.INTER>
-8.84072

>  <SCORE.INTER.CONST>
1

>  <SCORE.INTER.POLAR>
-1.125

>  <SCORE.INTER.ROT>
3

>  <SCORE.INTER.SOLV>
23.5073

>  <SCORE.INTER.VDW>
-15.5796

>  <SCORE.INTER.norm>
-0.552545

>  <SCORE.INTRA>
0.240626

>  <SCORE.INTRA.DIHEDRAL>
-0.261947

>  <SCORE.INTRA.DIHEDRAL.0>
2.21864

>  <SCORE.INTRA.POLAR>
0

>  <SCORE.INTRA.POLAR.0>
0

>  <SCORE.INTRA.REPUL>
0

>  <SCORE.INTRA.REPUL.0>
0

>  <SCORE.INTRA.SOLV>
-0.715975

>  <SCORE.INTRA.SOLV.lig_0>
-58.5963

>  <SCORE.INTRA.VDW>
0.729586

>  <SCORE.INTRA.VDW.0>
-0.437849

>  <SCORE.INTRA.norm>
0.0150391

>  <SCORE.RESTR>
0

>  <SCORE.RESTR.CAVITY>
0

>  <SCORE.RESTR.norm>
0

>  <SCORE.SYSTEM>
0

>  <SCORE.SYSTEM.CONST>
0

>  <SCORE.SYSTEM.DIHEDRAL>
0

>  <SCORE.SYSTEM.SOLV>
0

>  <SCORE.SYSTEM.norm>
0

>  <SCORE.heavy>
16

>  <SCORE.norm>
-0.537506

>  <RMSD>
3.504

$$$$
ligand
 OpenBabel11021811463D
libRbt.so/2013.1/901 2013/11/27
 16 16  0  0  0  0  0  0  0  0999 V2000
   51.4701   11.9235   12.7841 P   0  0  2  0  0  0  0  0  0  0  0  0
   52.5846   12.9012   12.7315 O   0  0  0  0  0  0  0  0  0  0  0  0
   51.2482   11.4095   14.2933 O   0  5  0  0  0  0  0  0  0  0  0  0
   51.8367   10.6489   11.8539 O   0  0  0  0  0  0  0  0  0  0  0  0
   46.8850   13.1367    9.5793 C   0  0  2  0  0  0  0  0  0  0  0  0
   46.6699   14.4514   10.1131 O   0  0  0  0  0  0  0  0  0  0  0  0
   45.6239   12.2414    9.7401 C   0  0  2  0  0  0  0  0  0  0  0  0
   44.4702   12.8759    9.0651 N   0  0  0  0  0  0  0  0  0  0  0  0
   45.3299   12.0709   11.2455 C   0  0  1  0  0  0  0  0  0  0  0  0
   44.1781   11.2301   11.4348 O   0  0  0  0  0  0  0  0  0  0  0  0
   46.5576   11.4210   11.9001 C   0  0  2  0  0  0  0  0  0  0  0  0
   46.3224   11.2620   13.3063 O   0  0  0  0  0  0  0  0  0  0  0  0
   47.7808   12.3485   11.6739 C   0  0  2  0  0  0  0  0  0  0  0  0
   48.0239   12.5242   10.2484 O   0  0  0  0  0  0  0  0  0  0  0  0
   49.0307   11.7152   12.3096 C   0  0  0  0  0  0  0  0  0  0  0  0
   50.1231   12.6513   12.2682 O   0  0  0  0  0  0  0  0  0  0  0  0
  1  2  1  6  0  0  0
  1  3  1  0  0  0  0
  1  4  2  0  0  0  0
  1 16  1  0  0  0  0
  5  6  1  1  0  0  0
  5  7  1  0  0  0  0
  5 14  1  0  0  0  0
  7  8  1  6  0  0  0
  7  9  1  0  0  0  0
  9 10  1  6  0  0  0
  9 11  1  0  0  0  0
 11 12  1  1  0  0  0
 11 13  1  0  0  0  0
 13 14  1  0  0  0  0
 13 15  1  1  0  0  0
 15 16  1  0  0  0  0
M  CHG  1   3  -1
M  END
>  <CHROM.1>
-171.99041027,-173.70186772,179.86503236,48.32701689,12.15479924,11.66363612
-0.34368511,-0.15712669,-0.94173773

>  <Name>
ligand

>  <RI>
0

>  <Rbt.Current_Directory>
/home/itssahil/PROJECTS/Mol_Feturizer/New_Systems/rnas/3B4B

>  <Rbt.Executable>
rbdock ($Id: //depot/dev/client3/rdock/2013.1/src/exe/rbdock.cxx#4 $)

>  <Rbt.Library>
libRbt.so (2013.1, Build901 2013/11/27)

>  <Rbt.Parameter_File>
/export/apps/rDock/src/rDock_2013.1_src/data/scripts/dock_solv.prm

>  <Rbt.Receptor>
prm/pocket_docking_5.prm

>  <SCORE>
-3.38583

>  <SCORE.INTER>
-1.96557

>  <SCORE.INTER.CONST>
1

>  <SCORE.INTER.POLAR>
-1.125

>  <SCORE.INTER.ROT>
3

>  <SCORE.INTER.SOLV>
12.4434

>  <SCORE.INTER.VDW>
-7.30818

>  <SCORE.INTER.norm>
-0.122848

>  <SCORE.INTRA>
-1.42026

>  <SCORE.INTRA.DIHEDRAL>
-1.79427

>  <SCORE.INTRA.DIHEDRAL.0>
2.21864

>  <SCORE.INTRA.POLAR>
0

>  <SCORE.INTRA.POLAR.0>
0

>  <SCORE.INTRA.REPUL>
0

>  <SCORE.INTRA.REPUL.0>
0

>  <SCORE.INTRA.SOLV>
-0.493412

>  <SCORE.INTRA.SOLV.lig_0>
-58.5963

>  <SCORE.INTRA.VDW>
-0.27642

>  <SCORE.INTRA.VDW.0>
-0.437849

>  <SCORE.INTRA.norm>
-0.0887663

>  <SCORE.RESTR>
0

>  <SCORE.RESTR.CAVITY>
0

>  <SCORE.RESTR.norm>
0

>  <SCORE.SYSTEM>
0

>  <SCORE.SYSTEM.CONST>
0

>  <SCORE.SYSTEM.DIHEDRAL>
0

>  <SCORE.SYSTEM.SOLV>
0

>  <SCORE.SYSTEM.norm>
0

>  <SCORE.heavy>
16

>  <SCORE.norm>
-0.211614

>  <RMSD>
3.582

$$$$
ligand
 OpenBabel11021811463D
libRbt.so/2013.1/901 2013/11/27
 16 16  0  0  0  0  0  0  0  0999 V2000
   48.2129   10.7230    9.6358 P   0  0  2  0  0  0  0  0  0  0  0  0
   47.3475    9.8560    8.7990 O   0  0  0  0  0  0  0  0  0  0  0  0
   49.4561   11.2713    8.7728 O   0  5  0  0  0  0  0  0  0  0  0  0
   48.7892    9.8580   10.8784 O   0  0  0  0  0  0  0  0  0  0  0  0
   43.8093   14.2402   10.6554 C   0  0  2  0  0  0  0  0  0  0  0  0
   44.6016   15.3605   11.0759 O   0  0  0  0  0  0  0  0  0  0  0  0
   42.7826   13.8248   11.7467 C   0  0  2  0  0  0  0  0  0  0  0  0
   41.9032   14.9704   12.0685 N   0  0  0  0  0  0  0  0  0  0  0  0
   43.5556   13.3792   13.0059 C   0  0  1  0  0  0  0  0  0  0  0  0
   42.6369   12.9680   14.0335 O   0  0  0  0  0  0  0  0  0  0  0  0
   44.4590   12.1996   12.6178 C   0  0  2  0  0  0  0  0  0  0  0  0
   45.2049   11.7701   13.7654 O   0  0  0  0  0  0  0  0  0  0  0  0
   45.4323   12.6741   11.5065 C   0  0  2  0  0  0  0  0  0  0  0  0
   44.6852   13.1211   10.3386 O   0  0  0  0  0  0  0  0  0  0  0  0
   46.3432   11.5068   11.0881 C   0  0  0  0  0  0  0  0  0  0  0  0
   47.3354   11.9755   10.1568 O   0  0  0  0  0  0  0  0  0  0  0  0
  1  2  1  6  0  0  0
  1  3  1  0  0  0  0
  1  4  2  0  0  0  0
  1 16  1  0  0  0  0
  5  6  1  1  0  0  0
  5  7  1  0  0  0  0
  5 14  1  0  0  0  0
  7  8  1  1  0  0  0
  7  9  1  0  0  0  0
  9 10  1  1  0  0  0
  9 11  1  0  0  0  0
 11 12  1  1  0  0  0
 11 13  1  0  0  0  0
 13 14  1  0  0  0  0
 13 15  1  6  0  0  0
 15 16  1  0  0  0  0
M  CHG  1   3  -1
M  END
>  <CHROM.1>
-174.22047501,-175.63041806,68.17192616,45.67947869,12.31841546,11.11931709
0.05101803,0.68948736,-0.93420798

>  <Name>
ligand

>  <RI>
0

>  <Rbt.Current_Directory>
/home/itssahil/PROJECTS/Mol_Feturizer/New_Systems/rnas/3B4B

>  <Rbt.Executable>
rbdock ($Id: //depot/dev/client3/rdock/2013.1/src/exe/rbdock.cxx#4 $)

>  <Rbt.Library>
libRbt.so (2013.1, Build901 2013/11/27)

>  <Rbt.Parameter_File>
/export/apps/rDock/src/rDock_2013.1_src/data/scripts/dock_solv.prm

>  <Rbt.Receptor>
prm/blind_docking_100.prm

>  <SCORE>
-7.25702

>  <SCORE.INTER>
-5.59831

>  <SCORE.INTER.CONST>
1

>  <SCORE.INTER.POLAR>
-1.12426

>  <SCORE.INTER.ROT>
3

>  <SCORE.INTER.SOLV>
14.5732

>  <SCORE.INTER.VDW>
-10.4424

>  <SCORE.INTER.norm>
-0.349894

>  <SCORE.INTRA>
-1.65871

>  <SCORE.INTRA.DIHEDRAL>
-1.89306

>  <SCORE.INTRA.DIHEDRAL.0>
2.21864

>  <SCORE.INTRA.POLAR>
0

>  <SCORE.INTRA.POLAR.0>
0

>  <SCORE.INTRA.REPUL>
0

>  <SCORE.INTRA.REPUL.0>
0

>  <SCORE.INTRA.SOLV>
-1.10962

>  <SCORE.INTRA.SOLV.lig_0>
-58.5963

>  <SCORE.INTRA.VDW>
-0.157374

>  <SCORE.INTRA.VDW.0>
-0.437849

>  <SCORE.INTRA.norm>
-0.10367

>  <SCORE.RESTR>
0

>  <SCORE.RESTR.CAVITY>
0

>  <SCORE.RESTR.norm>
0

>  <SCORE.SYSTEM>
0

>  <SCORE.SYSTEM.CONST>
0

>  <SCORE.SYSTEM.DIHEDRAL>
0

>  <SCORE.SYSTEM.SOLV>
0

>  <SCORE.SYSTEM.norm>
0

>  <SCORE.heavy>
16

>  <SCORE.norm>
-0.453564

>  <RMSD>
3.689

$$$$
ligand
 OpenBabel11021811463D
libRbt.so/2013.1/901 2013/11/27
 16 16  0  0  0  0  0  0  0  0999 V2000
   46.6395    9.6871    9.0700 P   0  0  2  0  0  0  0  0  0  0  0  0
   45.9336    9.9916    7.8012 O   0  0  0  0  0  0  0  0  0  0  0  0
   48.0292   10.4959    9.1445 O   0  5  0  0  0  0  0  0  0  0  0  0
   46.9623    8.1008    9.1313 O   0  0  0  0  0  0  0  0  0  0  0  0
   42.5256   12.1199   12.3350 C   0  0  2  0  0  0  0  0  0  0  0  0
   42.6032   13.5421   12.5109 O   0  0  0  0  0  0  0  0  0  0  0  0
   42.8812   11.3619   13.6452 C   0  0  2  0  0  0  0  0  0  0  0  0
   41.9698   11.7850   14.7312 N   0  0  0  0  0  0  0  0  0  0  0  0
   44.3420   11.6876   14.0214 C   0  0  1  0  0  0  0  0  0  0  0  0
   44.7143   10.9869   15.2213 O   0  0  0  0  0  0  0  0  0  0  0  0
   45.2437   11.2412   12.8612 C   0  0  2  0  0  0  0  0  0  0  0  0
   46.6106   11.5444   13.1733 O   0  0  0  0  0  0  0  0  0  0  0  0
   44.8136   12.0101   11.5840 C   0  0  2  0  0  0  0  0  0  0  0  0
   43.4236   11.7163   11.2623 O   0  0  0  0  0  0  0  0  0  0  0  0
   45.6935   11.5727   10.3999 C   0  0  0  0  0  0  0  0  0  0  0  0
   45.6974   10.1367   10.3031 O   0  0  0  0  0  0  0  0  0  0  0  0
  1  2  1  6  0  0  0
  1  3  1  0  0  0  0
  1  4  2  0  0  0  0
  1 16  1  0  0  0  0
  5  6  1  1  0  0  0
  5  7  1  0  0  0  0
  5 14  1  0  0  0  0
  7  8  1  1  0  0  0
  7  9  1  0  0  0  0
  9 10  1  1  0  0  0
  9 11  1  0  0  0  0
 11 12  1  1  0  0  0
 11 13  1  0  0  0  0
 13 14  1  0  0  0  0
 13 15  1  6  0  0  0
 15 16  1  0  0  0  0
M  CHG  1   3  -1
M  END
>  <CHROM.1>
51.50374056,-179.23459208,-73.52827957,45.05566633,10.99654170,11.45940919
0.89635510,0.49345090,-1.65246501

>  <Name>
ligand

>  <RI>
0

>  <Rbt.Current_Directory>
/home/itssahil/PROJECTS/Mol_Feturizer/New_Systems/rnas/3B4B

>  <Rbt.Executable>
rbdock ($Id: //depot/dev/client3/rdock/2013.1/src/exe/rbdock.cxx#4 $)

>  <Rbt.Library>
libRbt.so (2013.1, Build901 2013/11/27)

>  <Rbt.Parameter_File>
/export/apps/rDock/src/rDock_2013.1_src/data/scripts/dock_solv.prm

>  <Rbt.Receptor>
prm/pocket_docking_8.prm

>  <SCORE>
-6.47781

>  <SCORE.INTER>
-5.2742

>  <SCORE.INTER.CONST>
1

>  <SCORE.INTER.POLAR>
0

>  <SCORE.INTER.ROT>
3

>  <SCORE.INTER.SOLV>
19.6962

>  <SCORE.INTER.VDW>
-15.6815

>  <SCORE.INTER.norm>
-0.329637

>  <SCORE.INTRA>
-1.20361

>  <SCORE.INTRA.DIHEDRAL>
-1.67444

>  <SCORE.INTRA.DIHEDRAL.0>
2.21864

>  <SCORE.INTRA.POLAR>
0

>  <SCORE.INTRA.POLAR.0>
0

>  <SCORE.INTRA.REPUL>
0

>  <SCORE.INTRA.REPUL.0>
0

>  <SCORE.INTRA.SOLV>
-0.747682

>  <SCORE.INTRA.SOLV.lig_0>
-58.5963

>  <SCORE.INTRA.VDW>
0.00744772

>  <SCORE.INTRA.VDW.0>
-0.437849

>  <SCORE.INTRA.norm>
-0.0752257

>  <SCORE.RESTR>
0

>  <SCORE.RESTR.CAVITY>
0

>  <SCORE.RESTR.norm>
0

>  <SCORE.SYSTEM>
0

>  <SCORE.SYSTEM.CONST>
0

>  <SCORE.SYSTEM.DIHEDRAL>
0

>  <SCORE.SYSTEM.SOLV>
0

>  <SCORE.SYSTEM.norm>
0

>  <SCORE.heavy>
16

>  <SCORE.norm>
-0.404863

>  <RMSD>
3.696

$$$$
ligand
 OpenBabel11021811463D
libRbt.so/2013.1/901 2013/11/27
 16 16  0  0  0  0  0  0  0  0999 V2000
   47.5774    9.7172    9.9055 P   0  0  2  0  0  0  0  0  0  0  0  0
   46.6210    8.6281    9.5892 O   0  0  0  0  0  0  0  0  0  0  0  0
   48.5181   10.0214    8.6353 O   0  5  0  0  0  0  0  0  0  0  0  0
   48.5155    9.2580   11.1438 O   0  0  0  0  0  0  0  0  0  0  0  0
   43.5788   13.6962   11.0337 C   0  0  2  0  0  0  0  0  0  0  0  0
   44.5101   14.7706   11.2283 O   0  0  0  0  0  0  0  0  0  0  0  0
   42.6803   13.4852   12.2850 C   0  0  2  0  0  0  0  0  0  0  0  0
   41.9500   14.7346   12.5932 N   0  0  0  0  0  0  0  0  0  0  0  0
   43.5791   13.0886   13.4752 C   0  0  1  0  0  0  0  0  0  0  0  0
   42.7788   12.8654   14.6496 O   0  0  0  0  0  0  0  0  0  0  0  0
   44.3212   11.7970   13.1022 C   0  0  2  0  0  0  0  0  0  0  0  0
   45.1792   11.4084   14.1842 O   0  0  0  0  0  0  0  0  0  0  0  0
   45.1691   12.0698   11.8317 C   0  0  2  0  0  0  0  0  0  0  0  0
   44.3085   12.4739   10.7280 O   0  0  0  0  0  0  0  0  0  0  0  0
   45.9155   10.7868   11.4265 C   0  0  0  0  0  0  0  0  0  0  0  0
   46.7378   11.0474   10.2744 O   0  0  0  0  0  0  0  0  0  0  0  0
  1  2  1  6  0  0  0
  1  3  1  0  0  0  0
  1  4  2  0  0  0  0
  1 16  1  0  0  0  0
  5  6  1  1  0  0  0
  5  7  1  0  0  0  0
  5 14  1  0  0  0  0
  7  8  1  1  0  0  0
  7  9  1  0  0  0  0
  9 10  1  1  0  0  0
  9 11  1  0  0  0  0
 11 12  1  1  0  0  0
 11 13  1  0  0  0  0
 13 14  1  0  0  0  0
 13 15  1  6  0  0  0
 15 16  1  0  0  0  0
M  CHG  1   3  -1
M  END
>  <CHROM.1>
-178.09939394,176.96815628,60.85539104,45.36025358,11.66682798,11.47960099
0.13599346,0.82043370,-1.10066668

>  <Name>
ligand

>  <RI>
0

>  <Rbt.Current_Directory>
/home/itssahil/PROJECTS/Mol_Feturizer/New_Systems/rnas/3B4B

>  <Rbt.Executable>
rbdock ($Id: //depot/dev/client3/rdock/2013.1/src/exe/rbdock.cxx#4 $)

>  <Rbt.Library>
libRbt.so (2013.1, Build901 2013/11/27)

>  <Rbt.Parameter_File>
/export/apps/rDock/src/rDock_2013.1_src/data/scripts/dock_solv.prm

>  <Rbt.Receptor>
prm/pocket_docking_6.prm

>  <SCORE>
-8.4881

>  <SCORE.INTER>
-6.72297

>  <SCORE.INTER.CONST>
1

>  <SCORE.INTER.POLAR>
-1.12198

>  <SCORE.INTER.ROT>
3

>  <SCORE.INTER.SOLV>
17.116

>  <SCORE.INTER.VDW>
-12.0474

>  <SCORE.INTER.norm>
-0.420186

>  <SCORE.INTRA>
-1.76513

>  <SCORE.INTRA.DIHEDRAL>
-2.15806

>  <SCORE.INTRA.DIHEDRAL.0>
2.21864

>  <SCORE.INTRA.POLAR>
0

>  <SCORE.INTRA.POLAR.0>
0

>  <SCORE.INTRA.REPUL>
0

>  <SCORE.INTRA.REPUL.0>
0

>  <SCORE.INTRA.SOLV>
-1.17519

>  <SCORE.INTRA.SOLV.lig_0>
-58.5963

>  <SCORE.INTRA.VDW>
-0.0985124

>  <SCORE.INTRA.VDW.0>
-0.437849

>  <SCORE.INTRA.norm>
-0.110321

>  <SCORE.RESTR>
0

>  <SCORE.RESTR.CAVITY>
0

>  <SCORE.RESTR.norm>
0

>  <SCORE.SYSTEM>
0

>  <SCORE.SYSTEM.CONST>
0

>  <SCORE.SYSTEM.DIHEDRAL>
0

>  <SCORE.SYSTEM.SOLV>
0

>  <SCORE.SYSTEM.norm>
0

>  <SCORE.heavy>
16

>  <SCORE.norm>
-0.530506

>  <RMSD>
3.721

$$$$
ligand
 OpenBabel11021811463D
libRbt.so/2013.1/901 2013/11/27
 16 16  0  0  0  0  0  0  0  0999 V2000
   47.7016   10.1941   11.1602 P   0  0  2  0  0  0  0  0  0  0  0  0
   47.6781    9.5770   12.5092 O   0  0  0  0  0  0  0  0  0  0  0  0
   46.9292    9.2573   10.1035 O   0  5  0  0  0  0  0  0  0  0  0  0
   49.2392   10.3572   10.6771 O   0  0  0  0  0  0  0  0  0  0  0  0
   43.7804   14.4916   10.6401 C   0  0  2  0  0  0  0  0  0  0  0  0
   44.7311   15.5046   11.0004 O   0  0  0  0  0  0  0  0  0  0  0  0
   42.5791   14.4587   11.6267 C   0  0  2  0  0  0  0  0  0  0  0  0
   41.9180   15.7821   11.6547 N   0  0  0  0  0  0  0  0  0  0  0  0
   43.1059   14.0990   13.0320 C   0  0  1  0  0  0  0  0  0  0  0  0
   42.0174   14.0398   13.9707 O   0  0  0  0  0  0  0  0  0  0  0  0
   43.7907   12.7271   12.9474 C   0  0  2  0  0  0  0  0  0  0  0  0
   44.3063   12.3691   14.2373 O   0  0  0  0  0  0  0  0  0  0  0  0
   44.9540   12.8236   11.9252 C   0  0  2  0  0  0  0  0  0  0  0  0
   44.4429   13.1954   10.6127 O   0  0  0  0  0  0  0  0  0  0  0  0
   45.6519   11.4572   11.8101 C   0  0  0  0  0  0  0  0  0  0  0  0
   46.9615   11.6281   11.2380 O   0  0  0  0  0  0  0  0  0  0  0  0
  1  2  1  1  0  0  0
  1  3  1  0  0  0  0
  1  4  2  0  0  0  0
  1 16  1  0  0  0  0
  5  6  1  1  0  0  0
  5  7  1  0  0  0  0
  5 14  1  0  0  0  0
  7  8  1  1  0  0  0
  7  9  1  0  0  0  0
  9 10  1  1  0  0  0
  9 11  1  0  0  0  0
 11 12  1  1  0  0  0
 11 13  1  0  0  0  0
 13 14  1  0  0  0  0
 13 15  1  6  0  0  0
 15 16  1  0  0  0  0
M  CHG  1   3  -1
M  END
>  <CHROM.1>
-160.96272565,178.40619655,-53.63898235,45.24651140,12.39762232,11.77112045
-0.27577454,0.71174693,-0.90841544

>  <Name>
ligand

>  <RI>
0

>  <Rbt.Current_Directory>
/home/itssahil/PROJECTS/Mol_Feturizer/New_Systems/rnas/3B4B

>  <Rbt.Executable>
rbdock ($Id: //depot/dev/client3/rdock/2013.1/src/exe/rbdock.cxx#4 $)

>  <Rbt.Library>
libRbt.so (2013.1, Build901 2013/11/27)

>  <Rbt.Parameter_File>
/export/apps/rDock/src/rDock_2013.1_src/data/scripts/dock_solv.prm

>  <Rbt.Receptor>
prm/pocket_docking_7.prm

>  <SCORE>
-6.8572

>  <SCORE.INTER>
-5.76081

>  <SCORE.INTER.CONST>
1

>  <SCORE.INTER.POLAR>
-1.1243

>  <SCORE.INTER.ROT>
3

>  <SCORE.INTER.SOLV>
15.4492

>  <SCORE.INTER.VDW>
-10.8426

>  <SCORE.INTER.norm>
-0.360051

>  <SCORE.INTRA>
-1.09639

>  <SCORE.INTRA.DIHEDRAL>
-0.929245

>  <SCORE.INTRA.DIHEDRAL.0>
2.21864

>  <SCORE.INTRA.POLAR>
0

>  <SCORE.INTRA.POLAR.0>
0

>  <SCORE.INTRA.REPUL>
0

>  <SCORE.INTRA.REPUL.0>
0

>  <SCORE.INTRA.SOLV>
-1.28882

>  <SCORE.INTRA.SOLV.lig_0>
-58.5963

>  <SCORE.INTRA.VDW>
0.0126404

>  <SCORE.INTRA.VDW.0>
-0.437849

>  <SCORE.INTRA.norm>
-0.0685244

>  <SCORE.RESTR>
0

>  <SCORE.RESTR.CAVITY>
0

>  <SCORE.RESTR.norm>
0

>  <SCORE.SYSTEM>
0

>  <SCORE.SYSTEM.CONST>
0

>  <SCORE.SYSTEM.DIHEDRAL>
0

>  <SCORE.SYSTEM.SOLV>
0

>  <SCORE.SYSTEM.norm>
0

>  <SCORE.heavy>
16

>  <SCORE.norm>
-0.428575

>  <RMSD>
3.896

$$$$
ligand
 OpenBabel11021811463D
libRbt.so/2013.1/901 2013/11/27
 16 16  0  0  0  0  0  0  0  0999 V2000
   53.3381   13.4478   11.8470 P   0  0  2  0  0  0  0  0  0  0  0  0
   54.5922   12.6612   11.9446 O   0  0  0  0  0  0  0  0  0  0  0  0
   53.3371   14.3336   10.5029 O   0  5  0  0  0  0  0  0  0  0  0  0
   53.2345   14.4434   13.1207 O   0  0  0  0  0  0  0  0  0  0  0  0
   48.4846   10.4911   12.8299 C   0  0  2  0  0  0  0  0  0  0  0  0
   48.7156    9.5274   11.7918 O   0  0  0  0  0  0  0  0  0  0  0  0
   47.1343   11.2352   12.6285 C   0  0  2  0  0  0  0  0  0  0  0  0
   46.0243   10.2575   12.5936 N   0  0  0  0  0  0  0  0  0  0  0  0
   47.1958   12.0157   11.2986 C   0  0  1  0  0  0  0  0  0  0  0  0
   45.9680   12.7346   11.0869 O   0  0  0  0  0  0  0  0  0  0  0  0
   48.3669   13.0058   11.3810 C   0  0  2  0  0  0  0  0  0  0  0  0
   48.4616   13.7385   10.1513 O   0  0  0  0  0  0  0  0  0  0  0  0
   49.6725   12.2005   11.6142 C   0  0  2  0  0  0  0  0  0  0  0  0
   49.5842   11.4450   12.8566 O   0  0  0  0  0  0  0  0  0  0  0  0
   50.8634   13.1696   11.7137 C   0  0  0  0  0  0  0  0  0  0  0  0
   52.0901   12.4226   11.8075 O   0  0  0  0  0  0  0  0  0  0  0  0
  1  2  1  1  0  0  0
  1  3  1  0  0  0  0
  1  4  2  0  0  0  0
  1 16  1  0  0  0  0
  5  6  1  6  0  0  0
  5  7  1  0  0  0  0
  5 14  1  0  0  0  0
  7  8  1  6  0  0  0
  7  9  1  0  0  0  0
  9 10  1  1  0  0  0
  9 11  1  0  0  0  0
 11 12  1  6  0  0  0
 11 13  1  0  0  0  0
 13 14  1  0  0  0  0
 13 15  1  1  0  0  0
 15 16  1  0  0  0  0
M  CHG  1   3  -1
M  END
>  <CHROM.1>
-174.78207519,177.57050910,179.95684570,50.14469148,12.42860400,11.81169737
-0.29039744,0.15877649,2.63549870

>  <Name>
ligand

>  <RI>
0

>  <Rbt.Current_Directory>
/home/itssahil/PROJECTS/Mol_Feturizer/New_Systems/rnas/3B4B

>  <Rbt.Executable>
rbdock ($Id: //depot/dev/client3/rdock/2013.1/src/exe/rbdock.cxx#4 $)

>  <Rbt.Library>
libRbt.so (2013.1, Build901 2013/11/27)

>  <Rbt.Parameter_File>
/export/apps/rDock/src/rDock_2013.1_src/data/scripts/dock_solv.prm

>  <Rbt.Receptor>
prm/pocket_docking_6.prm

>  <SCORE>
-4.99502

>  <SCORE.INTER>
-3.43955

>  <SCORE.INTER.CONST>
1

>  <SCORE.INTER.POLAR>
-0.9

>  <SCORE.INTER.ROT>
3

>  <SCORE.INTER.SOLV>
17.8892

>  <SCORE.INTER.VDW>
-10.8561

>  <SCORE.INTER.norm>
-0.214972

>  <SCORE.INTRA>
-1.55547

>  <SCORE.INTRA.DIHEDRAL>
-2.09038

>  <SCORE.INTRA.DIHEDRAL.0>
2.21864

>  <SCORE.INTRA.POLAR>
0

>  <SCORE.INTRA.POLAR.0>
0

>  <SCORE.INTRA.REPUL>
0

>  <SCORE.INTRA.REPUL.0>
0

>  <SCORE.INTRA.SOLV>
-0.529495

>  <SCORE.INTRA.SOLV.lig_0>
-58.5963

>  <SCORE.INTRA.VDW>
-0.245531

>  <SCORE.INTRA.VDW.0>
-0.437849

>  <SCORE.INTRA.norm>
-0.0972168

>  <SCORE.RESTR>
0

>  <SCORE.RESTR.CAVITY>
0

>  <SCORE.RESTR.norm>
0

>  <SCORE.SYSTEM>
0

>  <SCORE.SYSTEM.CONST>
0

>  <SCORE.SYSTEM.DIHEDRAL>
0

>  <SCORE.SYSTEM.SOLV>
0

>  <SCORE.SYSTEM.norm>
0

>  <SCORE.heavy>
16

>  <SCORE.norm>
-0.312189

>  <RMSD>
3.929

$$$$
ligand
 OpenBabel11021811463D
libRbt.so/2013.1/901 2013/11/27
 16 16  0  0  0  0  0  0  0  0999 V2000
   45.5971   14.1128    8.7044 P   0  0  2  0  0  0  0  0  0  0  0  0
   46.2910   13.1036    7.8671 O   0  0  0  0  0  0  0  0  0  0  0  0
   44.1994   14.5354    8.0268 O   0  5  0  0  0  0  0  0  0  0  0  0
   46.5293   15.4317    8.8292 O   0  0  0  0  0  0  0  0  0  0  0  0
   45.4224   10.5158   13.1358 C   0  0  2  0  0  0  0  0  0  0  0  0
   44.6178    9.3370   12.9846 O   0  0  0  0  0  0  0  0  0  0  0  0
   44.8288   11.4798   14.2017 C   0  0  2  0  0  0  0  0  0  0  0  0
   44.7128   10.7799   15.5001 N   0  0  0  0  0  0  0  0  0  0  0  0
   43.4373   11.9456   13.7237 C   0  0  1  0  0  0  0  0  0  0  0  0
   42.8635   12.8567   14.6776 O   0  0  0  0  0  0  0  0  0  0  0  0
   43.6102   12.6534   12.3719 C   0  0  2  0  0  0  0  0  0  0  0  0
   42.3298   13.0865   11.8912 O   0  0  0  0  0  0  0  0  0  0  0  0
   44.2344   11.6471   11.3694 C   0  0  2  0  0  0  0  0  0  0  0  0
   45.5320   11.1935   11.8518 O   0  0  0  0  0  0  0  0  0  0  0  0
   44.4313   12.3341   10.0068 C   0  0  0  0  0  0  0  0  0  0  0  0
   45.3084   13.4654   10.1562 O   0  0  0  0  0  0  0  0  0  0  0  0
  1  2  1  6  0  0  0
  1  3  1  0  0  0  0
  1  4  2  0  0  0  0
  1 16  1  0  0  0  0
  5  6  1  6  0  0  0
  5  7  1  0  0  0  0
  5 14  1  0  0  0  0
  7  8  1  1  0  0  0
  7  9  1  0  0  0  0
  9 10  1  1  0  0  0
  9 11  1  0  0  0  0
 11 12  1  6  0  0  0
 11 13  1  0  0  0  0
 13 14  1  0  0  0  0
 13 15  1  6  0  0  0
 15 16  1  0  0  0  0
M  CHG  1   3  -1
M  END
>  <CHROM.1>
59.95961465,175.78895545,-62.48398362,44.69891763,12.56446955,11.31006423
-1.26582413,-0.73829056,2.27762522

>  <Name>
ligand

>  <RI>
0

>  <Rbt.Current_Directory>
/home/itssahil/PROJECTS/Mol_Feturizer/New_Systems/rnas/3B4B

>  <Rbt.Executable>
rbdock ($Id: //depot/dev/client3/rdock/2013.1/src/exe/rbdock.cxx#4 $)

>  <Rbt.Library>
libRbt.so (2013.1, Build901 2013/11/27)

>  <Rbt.Parameter_File>
/export/apps/rDock/src/rDock_2013.1_src/data/scripts/dock_solv.prm

>  <Rbt.Receptor>
prm/pocket_docking_5.prm

>  <SCORE>
-8.29903

>  <SCORE.INTER>
-6.62219

>  <SCORE.INTER.CONST>
1

>  <SCORE.INTER.POLAR>
0

>  <SCORE.INTER.ROT>
3

>  <SCORE.INTER.SOLV>
15.5286

>  <SCORE.INTER.VDW>
-15.191

>  <SCORE.INTER.norm>
-0.413887

>  <SCORE.INTRA>
-1.67684

>  <SCORE.INTRA.DIHEDRAL>
-2.12153

>  <SCORE.INTRA.DIHEDRAL.0>
2.21864

>  <SCORE.INTRA.POLAR>
0

>  <SCORE.INTRA.POLAR.0>
0

>  <SCORE.INTRA.REPUL>
0

>  <SCORE.INTRA.REPUL.0>
0

>  <SCORE.INTRA.SOLV>
-0.898903

>  <SCORE.INTRA.SOLV.lig_0>
-58.5963

>  <SCORE.INTRA.VDW>
-0.166619

>  <SCORE.INTRA.VDW.0>
-0.437849

>  <SCORE.INTRA.norm>
-0.104802

>  <SCORE.RESTR>
0

>  <SCORE.RESTR.CAVITY>
0

>  <SCORE.RESTR.norm>
0

>  <SCORE.SYSTEM>
0

>  <SCORE.SYSTEM.CONST>
0

>  <SCORE.SYSTEM.DIHEDRAL>
0

>  <SCORE.SYSTEM.SOLV>
0

>  <SCORE.SYSTEM.norm>
0

>  <SCORE.heavy>
16

>  <SCORE.norm>
-0.518689

>  <RMSD>
3.956

$$$$
ligand
 OpenBabel11021811463D
libRbt.so/2013.1/901 2013/11/27
 16 16  0  0  0  0  0  0  0  0999 V2000
   45.4145   10.5403    8.9203 P   0  0  2  0  0  0  0  0  0  0  0  0
   45.2318    9.8658   10.2290 O   0  0  0  0  0  0  0  0  0  0  0  0
   45.2929    9.4744    7.7203 O   0  5  0  0  0  0  0  0  0  0  0  0
   46.8889   11.2093    8.8684 O   0  0  0  0  0  0  0  0  0  0  0  0
   43.3395   11.3348   12.9493 C   0  0  2  0  0  0  0  0  0  0  0  0
   42.0364   10.8805   12.5551 O   0  0  0  0  0  0  0  0  0  0  0  0
   43.2596   12.6434   13.7852 C   0  0  2  0  0  0  0  0  0  0  0  0
   42.4204   12.4216   14.9834 N   0  0  0  0  0  0  0  0  0  0  0  0
   42.6457   13.7529   12.9055 C   0  0  1  0  0  0  0  0  0  0  0  0
   42.5736   14.9873   13.6406 O   0  0  0  0  0  0  0  0  0  0  0  0
   43.5445   13.9364   11.6739 C   0  0  2  0  0  0  0  0  0  0  0  0
   42.9923   14.9529   10.8255 O   0  0  0  0  0  0  0  0  0  0  0  0
   43.6050   12.5886   10.9076 C   0  0  2  0  0  0  0  0  0  0  0  0
   44.1565   11.5463   11.7628 O   0  0  0  0  0  0  0  0  0  0  0  0
   44.5108   12.7394    9.6730 C   0  0  0  0  0  0  0  0  0  0  0  0
   44.2618   11.6601    8.7540 O   0  0  0  0  0  0  0  0  0  0  0  0
  1  2  1  1  0  0  0
  1  3  1  0  0  0  0
  1  4  2  0  0  0  0
  1 16  1  0  0  0  0
  5  6  1  6  0  0  0
  5  7  1  0  0  0  0
  5 14  1  0  0  0  0
  7  8  1  1  0  0  0
  7  9  1  0  0  0  0
  9 10  1  1  0  0  0
  9 11  1  0  0  0  0
 11 12  1  6  0  0  0
 11 13  1  0  0  0  0
 13 14  1  0  0  0  0
 13 15  1  6  0  0  0
 15 16  1  0  0  0  0
M  CHG  1   3  -1
M  END
>  <CHROM.1>
-162.73914088,-100.24517694,69.99330956,44.01926559,12.01468654,11.03360925
0.18140562,-1.08717285,2.78379671

>  <Name>
ligand

>  <RI>
0

>  <Rbt.Current_Directory>
/home/itssahil/PROJECTS/Mol_Feturizer/New_Systems/rnas/3B4B

>  <Rbt.Executable>
rbdock ($Id: //depot/dev/client3/rdock/2013.1/src/exe/rbdock.cxx#4 $)

>  <Rbt.Library>
libRbt.so (2013.1, Build901 2013/11/27)

>  <Rbt.Parameter_File>
/export/apps/rDock/src/rDock_2013.1_src/data/scripts/dock_solv.prm

>  <Rbt.Receptor>
prm/pocket_docking_7.prm

>  <SCORE>
-4.00094

>  <SCORE.INTER>
-5.90533

>  <SCORE.INTER.CONST>
1

>  <SCORE.INTER.POLAR>
0

>  <SCORE.INTER.ROT>
3

>  <SCORE.INTER.SOLV>
22.0223

>  <SCORE.INTER.VDW>
-16.8777

>  <SCORE.INTER.norm>
-0.369083

>  <SCORE.INTRA>
1.9044

>  <SCORE.INTRA.DIHEDRAL>
4.39384

>  <SCORE.INTRA.DIHEDRAL.0>
2.21864

>  <SCORE.INTRA.POLAR>
0

>  <SCORE.INTRA.POLAR.0>
0

>  <SCORE.INTRA.REPUL>
0

>  <SCORE.INTRA.REPUL.0>
0

>  <SCORE.INTRA.SOLV>
0.0159205

>  <SCORE.INTRA.SOLV.lig_0>
-58.5963

>  <SCORE.INTRA.VDW>
-0.300486

>  <SCORE.INTRA.VDW.0>
-0.437849

>  <SCORE.INTRA.norm>
0.119025

>  <SCORE.RESTR>
0

>  <SCORE.RESTR.CAVITY>
0

>  <SCORE.RESTR.norm>
0

>  <SCORE.SYSTEM>
0

>  <SCORE.SYSTEM.CONST>
0

>  <SCORE.SYSTEM.DIHEDRAL>
0

>  <SCORE.SYSTEM.SOLV>
0

>  <SCORE.SYSTEM.norm>
0

>  <SCORE.heavy>
16

>  <SCORE.norm>
-0.250059

>  <RMSD>
4.085

$$$$
ligand
 OpenBabel11021811463D
libRbt.so/2013.1/901 2013/11/27
 16 16  0  0  0  0  0  0  0  0999 V2000
   45.0016   14.0620    8.3087 P   0  0  2  0  0  0  0  0  0  0  0  0
   46.1343   13.4062    7.6100 O   0  0  0  0  0  0  0  0  0  0  0  0
   43.7904   14.3277    7.2823 O   0  5  0  0  0  0  0  0  0  0  0  0
   45.4960   15.4857    8.9026 O   0  0  0  0  0  0  0  0  0  0  0  0
   45.8653   10.5410   13.3587 C   0  0  2  0  0  0  0  0  0  0  0  0
   45.1610    9.4018   12.8429 O   0  0  0  0  0  0  0  0  0  0  0  0
   45.0033   11.3289   14.3853 C   0  0  2  0  0  0  0  0  0  0  0  0
   44.6082   10.4359   15.4969 N   0  0  0  0  0  0  0  0  0  0  0  0
   43.7488   11.8664   13.6649 C   0  0  1  0  0  0  0  0  0  0  0  0
   42.9343   12.6195   14.5808 O   0  0  0  0  0  0  0  0  0  0  0  0
   44.2114   12.7754   12.5169 C   0  0  2  0  0  0  0  0  0  0  0  0
   43.0666   13.2809   11.8155 O   0  0  0  0  0  0  0  0  0  0  0  0
   45.0898   11.9358   11.5520 C   0  0  2  0  0  0  0  0  0  0  0  0
   46.2515   11.4098   12.2561 O   0  0  0  0  0  0  0  0  0  0  0  0
   45.5789   12.8258   10.3962 C   0  0  0  0  0  0  0  0  0  0  0  0
   44.4913   13.0850    9.4898 O   0  0  0  0  0  0  0  0  0  0  0  0
  1  2  1  6  0  0  0
  1  3  1  0  0  0  0
  1  4  2  0  0  0  0
  1 16  1  0  0  0  0
  5  6  1  6  0  0  0
  5  7  1  0  0  0  0
  5 14  1  0  0  0  0
  7  8  1  1  0  0  0
  7  9  1  0  0  0  0
  9 10  1  1  0  0  0
  9 11  1  0  0  0  0
 11 12  1  6  0  0  0
 11 13  1  0  0  0  0
 13 14  1  0  0  0  0
 13 15  1  6  0  0  0
 15 16  1  0  0  0  0
M  CHG  1   3  -1
M  END
>  <CHROM.1>
-73.89256151,178.02489273,58.67745629,44.78505297,12.57753677,11.22232385
-1.48789931,-0.72654113,2.10864401

>  <Name>
ligand

>  <RI>
0

>  <Rbt.Current_Directory>
/home/itssahil/PROJECTS/Mol_Feturizer/New_Systems/rnas/3B4B

>  <Rbt.Executable>
rbdock ($Id: //depot/dev/client3/rdock/2013.1/src/exe/rbdock.cxx#4 $)

>  <Rbt.Library>
libRbt.so (2013.1, Build901 2013/11/27)

>  <Rbt.Parameter_File>
/export/apps/rDock/src/rDock_2013.1_src/data/scripts/dock_solv.prm

>  <Rbt.Receptor>
prm/blind_docking_100.prm

>  <SCORE>
-7.64845

>  <SCORE.INTER>
-6.35857

>  <SCORE.INTER.CONST>
1

>  <SCORE.INTER.POLAR>
0

>  <SCORE.INTER.ROT>
3

>  <SCORE.INTER.SOLV>
18.3485

>  <SCORE.INTER.VDW>
-15.9552

>  <SCORE.INTER.norm>
-0.397411

>  <SCORE.INTRA>
-1.28988

>  <SCORE.INTRA.DIHEDRAL>
-1.53016

>  <SCORE.INTRA.DIHEDRAL.0>
2.21864

>  <SCORE.INTRA.POLAR>
0

>  <SCORE.INTRA.POLAR.0>
0

>  <SCORE.INTRA.REPUL>
0

>  <SCORE.INTRA.REPUL.0>
0

>  <SCORE.INTRA.SOLV>
-0.751853

>  <SCORE.INTRA.SOLV.lig_0>
-58.5963

>  <SCORE.INTRA.VDW>
-0.148871

>  <SCORE.INTRA.VDW.0>
-0.437849

>  <SCORE.INTRA.norm>
-0.0806173

>  <SCORE.RESTR>
0

>  <SCORE.RESTR.CAVITY>
0

>  <SCORE.RESTR.norm>
0

>  <SCORE.SYSTEM>
0

>  <SCORE.SYSTEM.CONST>
0

>  <SCORE.SYSTEM.DIHEDRAL>
0

>  <SCORE.SYSTEM.SOLV>
0

>  <SCORE.SYSTEM.norm>
0

>  <SCORE.heavy>
16

>  <SCORE.norm>
-0.478028

>  <RMSD>
4.159

$$$$
ligand
 OpenBabel11021811463D
libRbt.so/2013.1/901 2013/11/27
 16 16  0  0  0  0  0  0  0  0999 V2000
   45.5181   14.2039    8.4256 P   0  0  2  0  0  0  0  0  0  0  0  0
   46.4067   13.6582    7.3702 O   0  0  0  0  0  0  0  0  0  0  0  0
   44.0985   14.6282    7.7966 O   0  5  0  0  0  0  0  0  0  0  0  0
   46.2082   15.5181    9.0743 O   0  0  0  0  0  0  0  0  0  0  0  0
   45.5529   11.0417   13.2097 C   0  0  2  0  0  0  0  0  0  0  0  0
   44.8938    9.9006   12.6412 O   0  0  0  0  0  0  0  0  0  0  0  0
   44.7852   11.5873   14.4468 C   0  0  2  0  0  0  0  0  0  0  0  0
   44.6556   10.5220   15.4654 N   0  0  0  0  0  0  0  0  0  0  0  0
   43.3880   12.0582   13.9909 C   0  0  1  0  0  0  0  0  0  0  0  0
   42.6534   12.5891   15.1079 O   0  0  0  0  0  0  0  0  0  0  0  0
   43.5767   13.1520   12.9295 C   0  0  2  0  0  0  0  0  0  0  0  0
   42.2936   13.6019   12.4723 O   0  0  0  0  0  0  0  0  0  0  0  0
   44.3752   12.5496   11.7433 C   0  0  2  0  0  0  0  0  0  0  0  0
   45.6775   12.0811   12.1978 O   0  0  0  0  0  0  0  0  0  0  0  0
   44.5907   13.6287   10.6679 C   0  0  0  0  0  0  0  0  0  0  0  0
   45.2831   13.0597    9.5417 O   0  0  0  0  0  0  0  0  0  0  0  0
  1  2  1  6  0  0  0
  1  3  1  0  0  0  0
  1  4  2  0  0  0  0
  1 16  1  0  0  0  0
  5  6  1  6  0  0  0
  5  7  1  0  0  0  0
  5 14  1  0  0  0  0
  7  8  1  1  0  0  0
  7  9  1  0  0  0  0
  9 10  1  1  0  0  0
  9 11  1  0  0  0  0
 11 12  1  6  0  0  0
 11 13  1  0  0  0  0
 13 14  1  0  0  0  0
 13 15  1  6  0  0  0
 15 16  1  0  0  0  0
M  CHG  1   3  -1
M  END
>  <CHROM.1>
-177.65495827,-179.40794412,171.52639502,44.69245813,12.87288995,11.38381465
-1.28289164,-0.68183555,2.18936957

>  <Name>
ligand

>  <RI>
0

>  <Rbt.Current_Directory>
/home/itssahil/PROJECTS/Mol_Feturizer/New_Systems/rnas/3B4B

>  <Rbt.Executable>
rbdock ($Id: //depot/dev/client3/rdock/2013.1/src/exe/rbdock.cxx#4 $)

>  <Rbt.Library>
libRbt.so (2013.1, Build901 2013/11/27)

>  <Rbt.Parameter_File>
/export/apps/rDock/src/rDock_2013.1_src/data/scripts/dock_solv.prm

>  <Rbt.Receptor>
prm/pocket_docking_5.prm

>  <SCORE>
-8.49906

>  <SCORE.INTER>
-6.97417

>  <SCORE.INTER.CONST>
1

>  <SCORE.INTER.POLAR>
0

>  <SCORE.INTER.ROT>
3

>  <SCORE.INTER.SOLV>
16.358

>  <SCORE.INTER.VDW>
-15.7021

>  <SCORE.INTER.norm>
-0.435886

>  <SCORE.INTRA>
-1.52489

>  <SCORE.INTRA.DIHEDRAL>
-2.08235

>  <SCORE.INTRA.DIHEDRAL.0>
2.21864

>  <SCORE.INTRA.POLAR>
0

>  <SCORE.INTRA.POLAR.0>
0

>  <SCORE.INTRA.REPUL>
0

>  <SCORE.INTRA.REPUL.0>
0

>  <SCORE.INTRA.SOLV>
-0.515032

>  <SCORE.INTRA.SOLV.lig_0>
-58.5963

>  <SCORE.INTRA.VDW>
-0.226197

>  <SCORE.INTRA.VDW.0>
-0.437849

>  <SCORE.INTRA.norm>
-0.0953056

>  <SCORE.RESTR>
0

>  <SCORE.RESTR.CAVITY>
0

>  <SCORE.RESTR.norm>
0

>  <SCORE.SYSTEM>
0

>  <SCORE.SYSTEM.CONST>
0

>  <SCORE.SYSTEM.DIHEDRAL>
0

>  <SCORE.SYSTEM.SOLV>
0

>  <SCORE.SYSTEM.norm>
0

>  <SCORE.heavy>
16

>  <SCORE.norm>
-0.531191

>  <RMSD>
4.223

$$$$
ligand
 OpenBabel11021811463D
libRbt.so/2013.1/901 2013/11/27
 16 16  0  0  0  0  0  0  0  0999 V2000
   44.5653   13.5815    8.2181 P   0  0  2  0  0  0  0  0  0  0  0  0
   45.9103   13.3698    7.6288 O   0  0  0  0  0  0  0  0  0  0  0  0
   43.4760   13.8127    7.0558 O   0  5  0  0  0  0  0  0  0  0  0  0
   44.5997   14.8977    9.1618 O   0  0  0  0  0  0  0  0  0  0  0  0
   45.5900   10.1932   13.2024 C   0  0  2  0  0  0  0  0  0  0  0  0
   44.6581    9.1176   13.0173 O   0  0  0  0  0  0  0  0  0  0  0  0
   44.9956   11.3161   14.0988 C   0  0  2  0  0  0  0  0  0  0  0  0
   44.6071   10.7555   15.4117 N   0  0  0  0  0  0  0  0  0  0  0  0
   43.7607   11.9106   13.3893 C   0  0  1  0  0  0  0  0  0  0  0  0
   43.1937   12.9688   14.1818 O   0  0  0  0  0  0  0  0  0  0  0  0
   44.2133   12.4671   12.0315 C   0  0  2  0  0  0  0  0  0  0  0  0
   43.0833   13.0149   11.3380 O   0  0  0  0  0  0  0  0  0  0  0  0
   44.8233   11.3042   11.2051 C   0  0  2  0  0  0  0  0  0  0  0  0
   45.9671   10.7342   11.9043 O   0  0  0  0  0  0  0  0  0  0  0  0
   45.2980   11.8361    9.8416 C   0  0  0  0  0  0  0  0  0  0  0  0
   44.1638   12.2673    9.0677 O   0  0  0  0  0  0  0  0  0  0  0  0
  1  2  1  6  0  0  0
  1  3  1  0  0  0  0
  1  4  2  0  0  0  0
  1 16  1  0  0  0  0
  5  6  1  6  0  0  0
  5  7  1  0  0  0  0
  5 14  1  0  0  0  0
  7  8  1  1  0  0  0
  7  9  1  0  0  0  0
  9 10  1  1  0  0  0
  9 11  1  0  0  0  0
 11 12  1  6  0  0  0
 11 13  1  0  0  0  0
 13 14  1  0  0  0  0
 13 15  1  6  0  0  0
 15 16  1  0  0  0  0
M  CHG  1   3  -1
M  END
>  <CHROM.1>
-66.02659198,143.30898236,43.52257873,44.54380682,12.23646213,11.00511530
1.58374579,0.94014823,-1.14227704

>  <Name>
ligand

>  <RI>
0

>  <Rbt.Current_Directory>
/home/itssahil/PROJECTS/Mol_Feturizer/New_Systems/rnas/3B4B

>  <Rbt.Executable>
rbdock ($Id: //depot/dev/client3/rdock/2013.1/src/exe/rbdock.cxx#4 $)

>  <Rbt.Library>
libRbt.so (2013.1, Build901 2013/11/27)

>  <Rbt.Parameter_File>
/export/apps/rDock/src/rDock_2013.1_src/data/scripts/dock_solv.prm

>  <Rbt.Receptor>
prm/pocket_docking_6.prm

>  <SCORE>
-5.61164

>  <SCORE.INTER>
-7.70697

>  <SCORE.INTER.CONST>
1

>  <SCORE.INTER.POLAR>
0

>  <SCORE.INTER.ROT>
3

>  <SCORE.INTER.SOLV>
21.9436

>  <SCORE.INTER.VDW>
-18.0525

>  <SCORE.INTER.norm>
-0.481686

>  <SCORE.INTRA>
2.09533

>  <SCORE.INTRA.DIHEDRAL>
3.16232

>  <SCORE.INTRA.DIHEDRAL.0>
2.21864

>  <SCORE.INTRA.POLAR>
0

>  <SCORE.INTRA.POLAR.0>
0

>  <SCORE.INTRA.REPUL>
0

>  <SCORE.INTRA.REPUL.0>
0

>  <SCORE.INTRA.SOLV>
0.935502

>  <SCORE.INTRA.SOLV.lig_0>
-58.5963

>  <SCORE.INTRA.VDW>
0.0464144

>  <SCORE.INTRA.VDW.0>
-0.437849

>  <SCORE.INTRA.norm>
0.130958

>  <SCORE.RESTR>
0

>  <SCORE.RESTR.CAVITY>
0

>  <SCORE.RESTR.norm>
0

>  <SCORE.SYSTEM>
0

>  <SCORE.SYSTEM.CONST>
0

>  <SCORE.SYSTEM.DIHEDRAL>
0

>  <SCORE.SYSTEM.SOLV>
0

>  <SCORE.SYSTEM.norm>
0

>  <SCORE.heavy>
16

>  <SCORE.norm>
-0.350728

>  <RMSD>
4.228

$$$$
ligand
 OpenBabel11021811463D
libRbt.so/2013.1/901 2013/11/27
 16 16  0  0  0  0  0  0  0  0999 V2000
   44.8524   14.0132    8.1324 P   0  0  2  0  0  0  0  0  0  0  0  0
   43.6605   13.6038    7.3496 O   0  0  0  0  0  0  0  0  0  0  0  0
   44.6521   15.4982    8.7201 O   0  5  0  0  0  0  0  0  0  0  0  0
   46.1506   14.0129    7.1634 O   0  0  0  0  0  0  0  0  0  0  0  0
   45.6542   11.3415   13.1481 C   0  0  2  0  0  0  0  0  0  0  0  0
   45.5854   10.0104   12.6162 O   0  0  0  0  0  0  0  0  0  0  0  0
   44.5980   11.5649   14.2672 C   0  0  2  0  0  0  0  0  0  0  0  0
   44.8013   10.5787   15.3513 N   0  0  0  0  0  0  0  0  0  0  0  0
   43.1906   11.3991   13.6561 C   0  0  1  0  0  0  0  0  0  0  0  0
   42.1839   11.6184   14.6599 O   0  0  0  0  0  0  0  0  0  0  0  0
   43.0342   12.4340   12.5323 C   0  0  2  0  0  0  0  0  0  0  0  0
   41.7388   12.2961   11.9316 O   0  0  0  0  0  0  0  0  0  0  0  0
   44.1356   12.1735   11.4710 C   0  0  2  0  0  0  0  0  0  0  0  0
   45.4562   12.3023   12.0722 O   0  0  0  0  0  0  0  0  0  0  0  0
   44.0110   13.2057   10.3368 C   0  0  0  0  0  0  0  0  0  0  0  0
   45.0421   12.9785    9.3587 O   0  0  0  0  0  0  0  0  0  0  0  0
  1  2  1  6  0  0  0
  1  3  1  0  0  0  0
  1  4  2  0  0  0  0
  1 16  1  0  0  0  0
  5  6  1  6  0  0  0
  5  7  1  0  0  0  0
  5 14  1  0  0  0  0
  7  8  1  1  0  0  0
  7  9  1  0  0  0  0
  9 10  1  1  0  0  0
  9 11  1  0  0  0  0
 11 12  1  6  0  0  0
 11 13  1  0  0  0  0
 13 14  1  0  0  0  0
 13 15  1  6  0  0  0
 15 16  1  0  0  0  0
M  CHG  1   3  -1
M  END
>  <CHROM.1>
179.24577405,176.85068685,-71.85823252,44.33824183,12.58047785,11.11080997
-1.42764853,-0.27691948,2.05742149

>  <Name>
ligand

>  <RI>
0

>  <Rbt.Current_Directory>
/home/itssahil/PROJECTS/Mol_Feturizer/New_Systems/rnas/3B4B

>  <Rbt.Executable>
rbdock ($Id: //depot/dev/client3/rdock/2013.1/src/exe/rbdock.cxx#4 $)

>  <Rbt.Library>
libRbt.so (2013.1, Build901 2013/11/27)

>  <Rbt.Parameter_File>
/export/apps/rDock/src/rDock_2013.1_src/data/scripts/dock_solv.prm

>  <Rbt.Receptor>
prm/pocket_docking_6.prm

>  <SCORE>
-8.05103

>  <SCORE.INTER>
-6.54772

>  <SCORE.INTER.CONST>
1

>  <SCORE.INTER.POLAR>
0

>  <SCORE.INTER.ROT>
3

>  <SCORE.INTER.SOLV>
20.046

>  <SCORE.INTER.VDW>
-16.6472

>  <SCORE.INTER.norm>
-0.409233

>  <SCORE.INTRA>
-1.50331

>  <SCORE.INTRA.DIHEDRAL>
-1.94657

>  <SCORE.INTRA.DIHEDRAL.0>
2.21864

>  <SCORE.INTRA.POLAR>
0

>  <SCORE.INTRA.POLAR.0>
0

>  <SCORE.INTRA.REPUL>
0

>  <SCORE.INTRA.REPUL.0>
0

>  <SCORE.INTRA.SOLV>
-1.05351

>  <SCORE.INTRA.SOLV.lig_0>
-58.5963

>  <SCORE.INTRA.VDW>
-0.00327049

>  <SCORE.INTRA.VDW.0>
-0.437849

>  <SCORE.INTRA.norm>
-0.0939569

>  <SCORE.RESTR>
0

>  <SCORE.RESTR.CAVITY>
0

>  <SCORE.RESTR.norm>
0

>  <SCORE.SYSTEM>
0

>  <SCORE.SYSTEM.CONST>
0

>  <SCORE.SYSTEM.DIHEDRAL>
0

>  <SCORE.SYSTEM.SOLV>
0

>  <SCORE.SYSTEM.norm>
0

>  <SCORE.heavy>
16

>  <SCORE.norm>
-0.50319

>  <RMSD>
4.472

$$$$
ligand
 OpenBabel11021811463D
libRbt.so/2013.1/901 2013/11/27
 16 16  0  0  0  0  0  0  0  0999 V2000
   44.4078   13.9576    7.9526 P   0  0  2  0  0  0  0  0  0  0  0  0
   43.4676   13.6392    6.8500 O   0  0  0  0  0  0  0  0  0  0  0  0
   44.2266   15.4880    8.4173 O   0  5  0  0  0  0  0  0  0  0  0  0
   45.9277   13.7536    7.4307 O   0  0  0  0  0  0  0  0  0  0  0  0
   45.8851   11.1186   13.2701 C   0  0  2  0  0  0  0  0  0  0  0  0
   45.5699    9.8080   12.7777 O   0  0  0  0  0  0  0  0  0  0  0  0
   44.7763   11.6543   14.2194 C   0  0  2  0  0  0  0  0  0  0  0  0
   44.5943   10.7212   15.3531 N   0  0  0  0  0  0  0  0  0  0  0  0
   43.4623   11.7803   13.4198 C   0  0  1  0  0  0  0  0  0  0  0  0
   42.4151   12.2929   14.2623 O   0  0  0  0  0  0  0  0  0  0  0  0
   43.7062   12.7472   12.2519 C   0  0  2  0  0  0  0  0  0  0  0  0
   42.5053   12.8751   11.4776 O   0  0  0  0  0  0  0  0  0  0  0  0
   44.8422   12.1688   11.3673 C   0  0  2  0  0  0  0  0  0  0  0  0
   46.0650   12.0264   12.1460 O   0  0  0  0  0  0  0  0  0  0  0  0
   45.1173   13.1250   10.1937 C   0  0  0  0  0  0  0  0  0  0  0  0
   44.0858   12.9828    9.2002 O   0  0  0  0  0  0  0  0  0  0  0  0
  1  2  1  6  0  0  0
  1  3  1  0  0  0  0
  1  4  2  0  0  0  0
  1 16  1  0  0  0  0
  5  6  1  6  0  0  0
  5  7  1  0  0  0  0
  5 14  1  0  0  0  0
  7  8  1  1  0  0  0
  7  9  1  0  0  0  0
  9 10  1  1  0  0  0
  9 11  1  0  0  0  0
 11 12  1  6  0  0  0
 11 13  1  0  0  0  0
 13 14  1  0  0  0  0
 13 15  1  6  0  0  0
 15 16  1  0  0  0  0
M  CHG  1   3  -1
M  END
>  <CHROM.1>
-76.51625227,-178.29033887,170.82315362,44.42690102,12.64041323,10.96951199
-1.57168737,-0.44673008,1.99526666

>  <Name>
ligand

>  <RI>
0

>  <Rbt.Current_Directory>
/home/itssahil/PROJECTS/Mol_Feturizer/New_Systems/rnas/3B4B

>  <Rbt.Executable>
rbdock ($Id: //depot/dev/client3/rdock/2013.1/src/exe/rbdock.cxx#4 $)

>  <Rbt.Library>
libRbt.so (2013.1, Build901 2013/11/27)

>  <Rbt.Parameter_File>
/export/apps/rDock/src/rDock_2013.1_src/data/scripts/dock_solv.prm

>  <Rbt.Receptor>
prm/pocket_docking_6.prm

>  <SCORE>
-8.90988

>  <SCORE.INTER>
-7.94506

>  <SCORE.INTER.CONST>
1

>  <SCORE.INTER.POLAR>
0

>  <SCORE.INTER.ROT>
3

>  <SCORE.INTER.SOLV>
20.5312

>  <SCORE.INTER.VDW>
-17.7404

>  <SCORE.INTER.norm>
-0.496566

>  <SCORE.INTRA>
-0.964824

>  <SCORE.INTRA.DIHEDRAL>
-1.14548

>  <SCORE.INTRA.DIHEDRAL.0>
2.21864

>  <SCORE.INTRA.POLAR>
0

>  <SCORE.INTRA.POLAR.0>
0

>  <SCORE.INTRA.REPUL>
0

>  <SCORE.INTRA.REPUL.0>
0

>  <SCORE.INTRA.SOLV>
-0.146441

>  <SCORE.INTRA.SOLV.lig_0>
-58.5963

>  <SCORE.INTRA.VDW>
-0.318864

>  <SCORE.INTRA.VDW.0>
-0.437849

>  <SCORE.INTRA.norm>
-0.0603015

>  <SCORE.RESTR>
0

>  <SCORE.RESTR.CAVITY>
0

>  <SCORE.RESTR.norm>
0

>  <SCORE.SYSTEM>
0

>  <SCORE.SYSTEM.CONST>
0

>  <SCORE.SYSTEM.DIHEDRAL>
0

>  <SCORE.SYSTEM.SOLV>
0

>  <SCORE.SYSTEM.norm>
0

>  <SCORE.heavy>
16

>  <SCORE.norm>
-0.556868

>  <RMSD>
4.487

$$$$
ligand
 OpenBabel11021811463D
libRbt.so/2013.1/901 2013/11/27
 16 16  0  0  0  0  0  0  0  0999 V2000
   44.7568   14.1328    7.8113 P   0  0  2  0  0  0  0  0  0  0  0  0
   45.9520   13.9975    6.9428 O   0  0  0  0  0  0  0  0  0  0  0  0
   43.4123   13.9790    6.9397 O   0  5  0  0  0  0  0  0  0  0  0  0
   44.7616   15.6003    8.4972 O   0  0  0  0  0  0  0  0  0  0  0  0
   45.8092   11.0234   12.4119 C   0  0  2  0  0  0  0  0  0  0  0  0
   45.1732    9.7987   12.0179 O   0  0  0  0  0  0  0  0  0  0  0  0
   45.2644   11.5375   13.7744 C   0  0  2  0  0  0  0  0  0  0  0  0
   45.4685   10.5068   14.8161 N   0  0  0  0  0  0  0  0  0  0  0  0
   43.7599   11.8441   13.6190 C   0  0  1  0  0  0  0  0  0  0  0  0
   43.2236   12.3420   14.8574 O   0  0  0  0  0  0  0  0  0  0  0  0
   43.6012   12.9074   12.5223 C   0  0  2  0  0  0  0  0  0  0  0  0
   42.2094   13.2047   12.3417 O   0  0  0  0  0  0  0  0  0  0  0  0
   44.1927   12.3421   11.2040 C   0  0  2  0  0  0  0  0  0  0  0  0
   45.6045   12.0282   11.3783 O   0  0  0  0  0  0  0  0  0  0  0  0
   44.0586   13.3930   10.0882 C   0  0  0  0  0  0  0  0  0  0  0  0
   44.7999   12.9680    8.9300 O   0  0  0  0  0  0  0  0  0  0  0  0
  1  2  1  6  0  0  0
  1  3  1  0  0  0  0
  1  4  2  0  0  0  0
  1 16  1  0  0  0  0
  5  6  1  6  0  0  0
  5  7  1  0  0  0  0
  5 14  1  0  0  0  0
  7  8  1  1  0  0  0
  7  9  1  0  0  0  0
  9 10  1  1  0  0  0
  9 11  1  0  0  0  0
 11 12  1  6  0  0  0
 11 13  1  0  0  0  0
 13 14  1  0  0  0  0
 13 15  1  6  0  0  0
 15 16  1  0  0  0  0
M  CHG  1   3  -1
M  END
>  <CHROM.1>
170.43614712,-175.24342682,154.52316187,44.51258025,12.74129186,10.82328340
-1.52406812,-0.68654856,2.03368716

>  <Name>
ligand

>  <RI>
0

>  <Rbt.Current_Directory>
/home/itssahil/PROJECTS/Mol_Feturizer/New_Systems/rnas/3B4B

>  <Rbt.Executable>
rbdock ($Id: //depot/dev/client3/rdock/2013.1/src/exe/rbdock.cxx#4 $)

>  <Rbt.Library>
libRbt.so (2013.1, Build901 2013/11/27)

>  <Rbt.Parameter_File>
/export/apps/rDock/src/rDock_2013.1_src/data/scripts/dock_solv.prm

>  <Rbt.Receptor>
prm/pocket_docking_6.prm

>  <SCORE>
-7.44628

>  <SCORE.INTER>
-6.82479

>  <SCORE.INTER.CONST>
1

>  <SCORE.INTER.POLAR>
0

>  <SCORE.INTER.ROT>
3

>  <SCORE.INTER.SOLV>
19.9939

>  <SCORE.INTER.VDW>
-16.8145

>  <SCORE.INTER.norm>
-0.426549

>  <SCORE.INTRA>
-0.62149

>  <SCORE.INTRA.DIHEDRAL>
-0.871223

>  <SCORE.INTRA.DIHEDRAL.0>
2.21864

>  <SCORE.INTRA.POLAR>
0

>  <SCORE.INTRA.POLAR.0>
0

>  <SCORE.INTRA.REPUL>
0

>  <SCORE.INTRA.REPUL.0>
0

>  <SCORE.INTRA.SOLV>
-0.503277

>  <SCORE.INTRA.SOLV.lig_0>
-58.5963

>  <SCORE.INTRA.VDW>
0.0657598

>  <SCORE.INTRA.VDW.0>
-0.437849

>  <SCORE.INTRA.norm>
-0.0388431

>  <SCORE.RESTR>
0

>  <SCORE.RESTR.CAVITY>
0

>  <SCORE.RESTR.norm>
0

>  <SCORE.SYSTEM>
0

>  <SCORE.SYSTEM.CONST>
0

>  <SCORE.SYSTEM.DIHEDRAL>
0

>  <SCORE.SYSTEM.SOLV>
0

>  <SCORE.SYSTEM.norm>
0

>  <SCORE.heavy>
16

>  <SCORE.norm>
-0.465392

>  <RMSD>
4.712

$$$$
ligand
 OpenBabel11021811463D
libRbt.so/2013.1/901 2013/11/27
 16 16  0  0  0  0  0  0  0  0999 V2000
   44.7119   14.2957    7.6339 P   0  0  2  0  0  0  0  0  0  0  0  0
   43.8315   13.2953    6.9818 O   0  0  0  0  0  0  0  0  0  0  0  0
   44.5461   15.7319    6.9260 O   0  5  0  0  0  0  0  0  0  0  0  0
   46.2543   13.8231    7.4862 O   0  0  0  0  0  0  0  0  0  0  0  0
   42.4082   13.5120   12.8771 C   0  0  2  0  0  0  0  0  0  0  0  0
   42.8996   14.7532   13.4039 O   0  0  0  0  0  0  0  0  0  0  0  0
   42.9132   12.2987   13.7080 C   0  0  2  0  0  0  0  0  0  0  0  0
   42.4926   12.4484   15.1186 N   0  0  0  0  0  0  0  0  0  0  0  0
   44.4529   12.2458   13.6163 C   0  0  1  0  0  0  0  0  0  0  0  0
   44.9566   11.1216   14.3589 O   0  0  0  0  0  0  0  0  0  0  0  0
   44.8372   12.1021   12.1364 C   0  0  2  0  0  0  0  0  0  0  0  0
   46.2661   12.0652   12.0144 O   0  0  0  0  0  0  0  0  0  0  0  0
   44.2758   13.3252   11.3644 C   0  0  2  0  0  0  0  0  0  0  0  0
   42.8253   13.3778   11.4886 O   0  0  0  0  0  0  0  0  0  0  0  0
   44.6356   13.2015    9.8735 C   0  0  0  0  0  0  0  0  0  0  0  0
   44.2877   14.4182    9.1880 O   0  0  0  0  0  0  0  0  0  0  0  0
  1  2  1  6  0  0  0
  1  3  1  0  0  0  0
  1  4  2  0  0  0  0
  1 16  1  0  0  0  0
  5  6  1  1  0  0  0
  5  7  1  0  0  0  0
  5 14  1  0  0  0  0
  7  8  1  1  0  0  0
  7  9  1  0  0  0  0
  9 10  1  1  0  0  0
  9 11  1  0  0  0  0
 11 12  1  1  0  0  0
 11 13  1  0  0  0  0
 13 14  1  0  0  0  0
 13 15  1  6  0  0  0
 15 16  1  0  0  0  0
M  CHG  1   3  -1
M  END
>  <CHROM.1>
-171.80317596,178.22847433,68.87599616,44.22705127,13.35254238,10.81151674
1.36580822,0.59262064,-1.16868347

>  <Name>
ligand

>  <RI>
0

>  <Rbt.Current_Directory>
/home/itssahil/PROJECTS/Mol_Feturizer/New_Systems/rnas/3B4B

>  <Rbt.Executable>
rbdock ($Id: //depot/dev/client3/rdock/2013.1/src/exe/rbdock.cxx#4 $)

>  <Rbt.Library>
libRbt.so (2013.1, Build901 2013/11/27)

>  <Rbt.Parameter_File>
/export/apps/rDock/src/rDock_2013.1_src/data/scripts/dock_solv.prm

>  <Rbt.Receptor>
prm/pocket_docking_7.prm

>  <SCORE>
-8.40687

>  <SCORE.INTER>
-6.79855

>  <SCORE.INTER.CONST>
1

>  <SCORE.INTER.POLAR>
0

>  <SCORE.INTER.ROT>
3

>  <SCORE.INTER.SOLV>
18.9157

>  <SCORE.INTER.VDW>
-16.4376

>  <SCORE.INTER.norm>
-0.424909

>  <SCORE.INTRA>
-1.60832

>  <SCORE.INTRA.DIHEDRAL>
-1.83234

>  <SCORE.INTRA.DIHEDRAL.0>
2.21864

>  <SCORE.INTRA.POLAR>
0

>  <SCORE.INTRA.POLAR.0>
0

>  <SCORE.INTRA.REPUL>
0

>  <SCORE.INTRA.REPUL.0>
0

>  <SCORE.INTRA.SOLV>
-1.1174

>  <SCORE.INTRA.SOLV.lig_0>
-58.5963

>  <SCORE.INTRA.VDW>
-0.133446

>  <SCORE.INTRA.VDW.0>
-0.437849

>  <SCORE.INTRA.norm>
-0.10052

>  <SCORE.RESTR>
0

>  <SCORE.RESTR.CAVITY>
0

>  <SCORE.RESTR.norm>
0

>  <SCORE.SYSTEM>
0

>  <SCORE.SYSTEM.CONST>
0

>  <SCORE.SYSTEM.DIHEDRAL>
0

>  <SCORE.SYSTEM.SOLV>
0

>  <SCORE.SYSTEM.norm>
0

>  <SCORE.heavy>
16

>  <SCORE.norm>
-0.525429

>  <RMSD>
4.925

$$$$
ligand
 OpenBabel11021811463D
libRbt.so/2013.1/901 2013/11/27
 16 16  0  0  0  0  0  0  0  0999 V2000
   44.6987   14.3035    7.6153 P   0  0  2  0  0  0  0  0  0  0  0  0
   43.8010   13.3009    6.9907 O   0  0  0  0  0  0  0  0  0  0  0  0
   44.5246   15.7336    6.8975 O   0  5  0  0  0  0  0  0  0  0  0  0
   46.2358   13.8226    7.4407 O   0  0  0  0  0  0  0  0  0  0  0  0
   42.4018   13.5551   12.8511 C   0  0  2  0  0  0  0  0  0  0  0  0
   42.9080   14.7865   13.3868 O   0  0  0  0  0  0  0  0  0  0  0  0
   42.8825   12.3309   13.6806 C   0  0  2  0  0  0  0  0  0  0  0  0
   42.4538   12.4809   15.0887 N   0  0  0  0  0  0  0  0  0  0  0  0
   44.4218   12.2552   13.5997 C   0  0  1  0  0  0  0  0  0  0  0  0
   44.9032   11.1204   14.3412 O   0  0  0  0  0  0  0  0  0  0  0  0
   44.8148   12.1118   12.1221 C   0  0  2  0  0  0  0  0  0  0  0  0
   46.2438   12.0539   12.0104 O   0  0  0  0  0  0  0  0  0  0  0  0
   44.2775   13.3465   11.3512 C   0  0  2  0  0  0  0  0  0  0  0  0
   42.8271   13.4204   11.4652 O   0  0  0  0  0  0  0  0  0  0  0  0
   44.6463   13.2235    9.8625 C   0  0  0  0  0  0  0  0  0  0  0  0
   44.3069   14.4423    9.1765 O   0  0  0  0  0  0  0  0  0  0  0  0
  1  2  1  6  0  0  0
  1  3  1  0  0  0  0
  1  4  2  0  0  0  0
  1 16  1  0  0  0  0
  5  6  1  1  0  0  0
  5  7  1  0  0  0  0
  5 14  1  0  0  0  0
  7  8  1  1  0  0  0
  7  9  1  0  0  0  0
  9 10  1  1  0  0  0
  9 11  1  0  0  0  0
 11 12  1  1  0  0  0
 11 13  1  0  0  0  0
 13 14  1  0  0  0  0
 13 15  1  6  0  0  0
 15 16  1  0  0  0  0
M  CHG  1   3  -1
M  END
>  <CHROM.1>
-172.49055052,179.96154381,68.07532119,44.21186881,13.36846834,10.79311702
1.36210101,0.60391255,-1.16615232

>  <Name>
ligand

>  <RI>
0

>  <Rbt.Current_Directory>
/home/itssahil/PROJECTS/Mol_Feturizer/New_Systems/rnas/3B4B

>  <Rbt.Executable>
rbdock ($Id: //depot/dev/client3/rdock/2013.1/src/exe/rbdock.cxx#4 $)

>  <Rbt.Library>
libRbt.so (2013.1, Build901 2013/11/27)

>  <Rbt.Parameter_File>
/export/apps/rDock/src/rDock_2013.1_src/data/scripts/dock_solv.prm

>  <Rbt.Receptor>
prm/pocket_docking_8.prm

>  <SCORE>
-8.38836

>  <SCORE.INTER>
-6.73813

>  <SCORE.INTER.CONST>
1

>  <SCORE.INTER.POLAR>
0

>  <SCORE.INTER.ROT>
3

>  <SCORE.INTER.SOLV>
18.8562

>  <SCORE.INTER.VDW>
-16.3775

>  <SCORE.INTER.norm>
-0.421133

>  <SCORE.INTRA>
-1.65023

>  <SCORE.INTRA.DIHEDRAL>
-1.90768

>  <SCORE.INTRA.DIHEDRAL.0>
2.21864

>  <SCORE.INTRA.POLAR>
0

>  <SCORE.INTRA.POLAR.0>
0

>  <SCORE.INTRA.REPUL>
0

>  <SCORE.INTRA.REPUL.0>
0

>  <SCORE.INTRA.SOLV>
-1.12224

>  <SCORE.INTRA.SOLV.lig_0>
-58.5963

>  <SCORE.INTRA.VDW>
-0.135276

>  <SCORE.INTRA.VDW.0>
-0.437849

>  <SCORE.INTRA.norm>
-0.10314

>  <SCORE.RESTR>
0

>  <SCORE.RESTR.CAVITY>
0

>  <SCORE.RESTR.norm>
0

>  <SCORE.SYSTEM>
0

>  <SCORE.SYSTEM.CONST>
0

>  <SCORE.SYSTEM.DIHEDRAL>
0

>  <SCORE.SYSTEM.SOLV>
0

>  <SCORE.SYSTEM.norm>
0

>  <SCORE.heavy>
16

>  <SCORE.norm>
-0.524273

>  <RMSD>
4.942

$$$$
ligand
 OpenBabel11021811463D
libRbt.so/2013.1/901 2013/11/27
 16 16  0  0  0  0  0  0  0  0999 V2000
   44.6620   14.3492    7.6003 P   0  0  2  0  0  0  0  0  0  0  0  0
   43.8015   13.3259    6.9571 O   0  0  0  0  0  0  0  0  0  0  0  0
   44.4548   15.7794    6.8913 O   0  5  0  0  0  0  0  0  0  0  0  0
   46.2144   13.9147    7.4408 O   0  0  0  0  0  0  0  0  0  0  0  0
   42.3904   13.5692   12.8500 C   0  0  2  0  0  0  0  0  0  0  0  0
   42.9086   14.7949   13.3873 O   0  0  0  0  0  0  0  0  0  0  0  0
   42.8740   12.3377   13.6669 C   0  0  2  0  0  0  0  0  0  0  0  0
   42.4614   12.4815   15.0805 N   0  0  0  0  0  0  0  0  0  0  0  0
   44.4119   12.2549   13.5688 C   0  0  1  0  0  0  0  0  0  0  0  0
   44.8957   11.1134   14.2983 O   0  0  0  0  0  0  0  0  0  0  0  0
   44.7881   12.1184   12.0862 C   0  0  2  0  0  0  0  0  0  0  0  0
   46.2155   12.0542   11.9585 O   0  0  0  0  0  0  0  0  0  0  0  0
   44.2485   13.3603   11.3285 C   0  0  2  0  0  0  0  0  0  0  0  0
   42.7999   13.4406   11.4587 O   0  0  0  0  0  0  0  0  0  0  0  0
   44.6005   13.2443    9.8352 C   0  0  0  0  0  0  0  0  0  0  0  0
   44.2476   14.4641    9.1576 O   0  0  0  0  0  0  0  0  0  0  0  0
  1  2  1  6  0  0  0
  1  3  1  0  0  0  0
  1  4  2  0  0  0  0
  1 16  1  0  0  0  0
  5  6  1  1  0  0  0
  5  7  1  0  0  0  0
  5 14  1  0  0  0  0
  7  8  1  1  0  0  0
  7  9  1  0  0  0  0
  9 10  1  1  0  0  0
  9 11  1  0  0  0  0
 11 12  1  1  0  0  0
 11 13  1  0  0  0  0
 13 14  1  0  0  0  0
 13 15  1  6  0  0  0
 15 16  1  0  0  0  0
M  CHG  1   3  -1
M  END
>  <CHROM.1>
-173.05423852,178.29406569,67.43335630,44.18734428,13.39051544,10.77380641
1.36644707,0.61169962,-1.16077039

>  <Name>
ligand

>  <RI>
0

>  <Rbt.Current_Directory>
/home/itssahil/PROJECTS/Mol_Feturizer/New_Systems/rnas/3B4B

>  <Rbt.Executable>
rbdock ($Id: //depot/dev/client3/rdock/2013.1/src/exe/rbdock.cxx#4 $)

>  <Rbt.Library>
libRbt.so (2013.1, Build901 2013/11/27)

>  <Rbt.Parameter_File>
/export/apps/rDock/src/rDock_2013.1_src/data/scripts/dock_solv.prm

>  <Rbt.Receptor>
prm/pocket_docking_8.prm

>  <SCORE>
-8.41074

>  <SCORE.INTER>
-6.74348

>  <SCORE.INTER.CONST>
1

>  <SCORE.INTER.POLAR>
0

>  <SCORE.INTER.ROT>
3

>  <SCORE.INTER.SOLV>
18.5984

>  <SCORE.INTER.VDW>
-16.2951

>  <SCORE.INTER.norm>
-0.421467

>  <SCORE.INTRA>
-1.66727

>  <SCORE.INTRA.DIHEDRAL>
-1.93829

>  <SCORE.INTRA.DIHEDRAL.0>
2.21864

>  <SCORE.INTRA.POLAR>
0

>  <SCORE.INTRA.POLAR.0>
0

>  <SCORE.INTRA.REPUL>
0

>  <SCORE.INTRA.REPUL.0>
0

>  <SCORE.INTRA.SOLV>
-1.12748

>  <SCORE.INTRA.SOLV.lig_0>
-58.5963

>  <SCORE.INTRA.VDW>
-0.134379

>  <SCORE.INTRA.VDW.0>
-0.437849

>  <SCORE.INTRA.norm>
-0.104204

>  <SCORE.RESTR>
0

>  <SCORE.RESTR.CAVITY>
0

>  <SCORE.RESTR.norm>
0

>  <SCORE.SYSTEM>
0

>  <SCORE.SYSTEM.CONST>
0

>  <SCORE.SYSTEM.DIHEDRAL>
0

>  <SCORE.SYSTEM.SOLV>
0

>  <SCORE.SYSTEM.norm>
0

>  <SCORE.heavy>
16

>  <SCORE.norm>
-0.525671

>  <RMSD>
4.971

$$$$
ligand
 OpenBabel11021811463D
libRbt.so/2013.1/901 2013/11/27
 16 16  0  0  0  0  0  0  0  0999 V2000
   44.6526   10.9052   14.3549 P   0  0  2  0  0  0  0  0  0  0  0  0
   44.9248   11.0989   15.8004 O   0  0  0  0  0  0  0  0  0  0  0  0
   44.5073    9.3377   14.0186 O   0  5  0  0  0  0  0  0  0  0  0  0
   45.8888   11.5043   13.4962 O   0  0  0  0  0  0  0  0  0  0  0  0
   44.5110   12.0620    9.3424 C   0  0  2  0  0  0  0  0  0  0  0  0
   45.8881   11.9420    9.7283 O   0  0  0  0  0  0  0  0  0  0  0  0
   44.0931   13.5499    9.1717 C   0  0  2  0  0  0  0  0  0  0  0  0
   44.9572   14.1997    8.1616 N   0  0  0  0  0  0  0  0  0  0  0  0
   44.2404   14.2620   10.5330 C   0  0  1  0  0  0  0  0  0  0  0  0
   43.8431   15.6398   10.4187 O   0  0  0  0  0  0  0  0  0  0  0  0
   43.3356   13.5453   11.5459 C   0  0  2  0  0  0  0  0  0  0  0  0
   43.4609   14.1747   12.8289 O   0  0  0  0  0  0  0  0  0  0  0  0
   43.7863   12.0637   11.6416 C   0  0  2  0  0  0  0  0  0  0  0  0
   43.6715   11.4164   10.3416 O   0  0  0  0  0  0  0  0  0  0  0  0
   42.8874   11.3165   12.6420 C   0  0  0  0  0  0  0  0  0  0  0  0
   43.2708   11.6570   13.9868 O   0  0  0  0  0  0  0  0  0  0  0  0
  1  2  1  1  0  0  0
  1  3  1  0  0  0  0
  1  4  2  0  0  0  0
  1 16  1  0  0  0  0
  5  6  1  1  0  0  0
  5  7  1  0  0  0  0
  5 14  1  0  0  0  0
  7  8  1  6  0  0  0
  7  9  1  0  0  0  0
  9 10  1  6  0  0  0
  9 11  1  0  0  0  0
 11 12  1  1  0  0  0
 11 13  1  0  0  0  0
 13 14  1  0  0  0  0
 13 15  1  1  0  0  0
 15 16  1  0  0  0  0
M  CHG  1   3  -1
M  END
>  <CHROM.1>
-76.74374212,-74.52997381,-171.52306000,44.28902377,12.28173560,12.00394003
-1.49273561,1.18969353,-1.09319878

>  <Name>
ligand

>  <RI>
0

>  <Rbt.Current_Directory>
/home/itssahil/PROJECTS/Mol_Feturizer/New_Systems/rnas/3B4B

>  <Rbt.Executable>
rbdock ($Id: //depot/dev/client3/rdock/2013.1/src/exe/rbdock.cxx#4 $)

>  <Rbt.Library>
libRbt.so (2013.1, Build901 2013/11/27)

>  <Rbt.Parameter_File>
/export/apps/rDock/src/rDock_2013.1_src/data/scripts/dock_solv.prm

>  <Rbt.Receptor>
prm/pocket_docking_6.prm

>  <SCORE>
-7.92022

>  <SCORE.INTER>
-9.24401

>  <SCORE.INTER.CONST>
1

>  <SCORE.INTER.POLAR>
0

>  <SCORE.INTER.ROT>
3

>  <SCORE.INTER.SOLV>
16.136

>  <SCORE.INTER.VDW>
-17.1413

>  <SCORE.INTER.norm>
-0.577751

>  <SCORE.INTRA>
1.3238

>  <SCORE.INTRA.DIHEDRAL>
-0.158016

>  <SCORE.INTRA.DIHEDRAL.0>
2.21864

>  <SCORE.INTRA.POLAR>
0

>  <SCORE.INTRA.POLAR.0>
0

>  <SCORE.INTRA.REPUL>
0

>  <SCORE.INTRA.REPUL.0>
0

>  <SCORE.INTRA.SOLV>
3.4549

>  <SCORE.INTRA.SOLV.lig_0>
-58.5963

>  <SCORE.INTRA.VDW>
-0.324643

>  <SCORE.INTRA.VDW.0>
-0.437849

>  <SCORE.INTRA.norm>
0.0827373

>  <SCORE.RESTR>
0

>  <SCORE.RESTR.CAVITY>
0

>  <SCORE.RESTR.norm>
0

>  <SCORE.SYSTEM>
0

>  <SCORE.SYSTEM.CONST>
0

>  <SCORE.SYSTEM.DIHEDRAL>
0

>  <SCORE.SYSTEM.SOLV>
0

>  <SCORE.SYSTEM.norm>
0

>  <SCORE.heavy>
16

>  <SCORE.norm>
-0.495014

>  <RMSD>
5.019

$$$$
ligand
 OpenBabel11021811463D
libRbt.so/2013.1/901 2013/11/27
 16 16  0  0  0  0  0  0  0  0999 V2000
   44.7730   14.4622    7.4769 P   0  0  2  0  0  0  0  0  0  0  0  0
   46.1675   14.0799    7.1448 O   0  0  0  0  0  0  0  0  0  0  0  0
   44.1378   15.3452    6.2904 O   0  5  0  0  0  0  0  0  0  0  0  0
   44.7731   15.3463    8.8343 O   0  0  0  0  0  0  0  0  0  0  0  0
   42.4659   13.3487   11.5735 C   0  0  2  0  0  0  0  0  0  0  0  0
   42.9154   14.7068   11.6872 O   0  0  0  0  0  0  0  0  0  0  0  0
   43.0845   12.4476   12.6794 C   0  0  2  0  0  0  0  0  0  0  0  0
   42.7363   12.9829   14.0141 N   0  0  0  0  0  0  0  0  0  0  0  0
   44.6171   12.4286   12.4988 C   0  0  1  0  0  0  0  0  0  0  0  0
   45.2246   11.5871   13.4948 O   0  0  0  0  0  0  0  0  0  0  0  0
   44.9250   11.8776   11.0988 C   0  0  2  0  0  0  0  0  0  0  0  0
   46.3445   11.8610   10.8925 O   0  0  0  0  0  0  0  0  0  0  0  0
   44.2528   12.8030   10.0504 C   0  0  2  0  0  0  0  0  0  0  0  0
   42.8110   12.8344   10.2559 O   0  0  0  0  0  0  0  0  0  0  0  0
   44.5345   12.2670    8.6359 C   0  0  0  0  0  0  0  0  0  0  0  0
   43.9007   13.1148    7.6608 O   0  0  0  0  0  0  0  0  0  0  0  0
  1  2  1  6  0  0  0
  1  3  1  0  0  0  0
  1  4  2  0  0  0  0
  1 16  1  0  0  0  0
  5  6  1  6  0  0  0
  5  7  1  0  0  0  0
  5 14  1  0  0  0  0
  7  8  1  1  0  0  0
  7  9  1  0  0  0  0
  9 10  1  1  0  0  0
  9 11  1  0  0  0  0
 11 12  1  6  0  0  0
 11 13  1  0  0  0  0
 13 14  1  0  0  0  0
 13 15  1  6  0  0  0
 15 16  1  0  0  0  0
M  CHG  1   3  -1
M  END
>  <CHROM.1>
179.39521506,77.09179519,54.52764140,44.29198994,13.33918257,10.00782657
1.38282461,0.59937014,-1.12370521

>  <Name>
ligand

>  <RI>
0

>  <Rbt.Current_Directory>
/home/itssahil/PROJECTS/Mol_Feturizer/New_Systems/rnas/3B4B

>  <Rbt.Executable>
rbdock ($Id: //depot/dev/client3/rdock/2013.1/src/exe/rbdock.cxx#4 $)

>  <Rbt.Library>
libRbt.so (2013.1, Build901 2013/11/27)

>  <Rbt.Parameter_File>
/export/apps/rDock/src/rDock_2013.1_src/data/scripts/dock_solv.prm

>  <Rbt.Receptor>
prm/pocket_docking_7.prm

>  <SCORE>
-7.70697

>  <SCORE.INTER>
-7.96136

>  <SCORE.INTER.CONST>
1

>  <SCORE.INTER.POLAR>
0

>  <SCORE.INTER.ROT>
3

>  <SCORE.INTER.SOLV>
12.8767

>  <SCORE.INTER.VDW>
-15.1998

>  <SCORE.INTER.norm>
-0.497585

>  <SCORE.INTRA>
0.254397

>  <SCORE.INTRA.DIHEDRAL>
-0.821588

>  <SCORE.INTRA.DIHEDRAL.0>
2.21864

>  <SCORE.INTRA.POLAR>
0

>  <SCORE.INTRA.POLAR.0>
0

>  <SCORE.INTRA.REPUL>
0

>  <SCORE.INTRA.REPUL.0>
0

>  <SCORE.INTRA.SOLV>
1.78116

>  <SCORE.INTRA.SOLV.lig_0>
-58.5963

>  <SCORE.INTRA.VDW>
-0.225391

>  <SCORE.INTRA.VDW.0>
-0.437849

>  <SCORE.INTRA.norm>
0.0158998

>  <SCORE.RESTR>
0

>  <SCORE.RESTR.CAVITY>
0

>  <SCORE.RESTR.norm>
0

>  <SCORE.SYSTEM>
0

>  <SCORE.SYSTEM.CONST>
0

>  <SCORE.SYSTEM.DIHEDRAL>
0

>  <SCORE.SYSTEM.SOLV>
0

>  <SCORE.SYSTEM.norm>
0

>  <SCORE.heavy>
16

>  <SCORE.norm>
-0.481685

>  <RMSD>
5.078

$$$$
ligand
 OpenBabel11021811463D
libRbt.so/2013.1/901 2013/11/27
 16 16  0  0  0  0  0  0  0  0999 V2000
   43.2772   12.3530   13.9320 P   0  0  2  0  0  0  0  0  0  0  0  0
   42.4035   12.3500   15.1310 O   0  0  0  0  0  0  0  0  0  0  0  0
   44.7990   12.0341   14.3484 O   0  5  0  0  0  0  0  0  0  0  0  0
   43.2276   13.8177   13.2417 O   0  0  0  0  0  0  0  0  0  0  0  0
   46.6186    9.9846   12.3274 C   0  0  2  0  0  0  0  0  0  0  0  0
   47.1930   11.0587   13.0864 O   0  0  0  0  0  0  0  0  0  0  0  0
   47.2030    9.9261   10.8877 C   0  0  2  0  0  0  0  0  0  0  0  0
   48.6728    9.7682   10.9502 N   0  0  0  0  0  0  0  0  0  0  0  0
   46.8406   11.2356   10.1557 C   0  0  1  0  0  0  0  0  0  0  0  0
   47.3492   11.2099    8.8103 O   0  0  0  0  0  0  0  0  0  0  0  0
   45.3101   11.3579   10.1276 C   0  0  2  0  0  0  0  0  0  0  0  0
   44.9393   12.5754    9.4657 O   0  0  0  0  0  0  0  0  0  0  0  0
   44.7942   11.3776   11.5908 C   0  0  2  0  0  0  0  0  0  0  0  0
   45.1728   10.1490   12.2759 O   0  0  0  0  0  0  0  0  0  0  0  0
   43.2595   11.4870   11.5934 C   0  0  0  0  0  0  0  0  0  0  0  0
   42.7559   11.2124   12.9134 O   0  0  0  0  0  0  0  0  0  0  0  0
  1  2  1  1  0  0  0
  1  3  1  0  0  0  0
  1  4  2  0  0  0  0
  1 16  1  0  0  0  0
  5  6  1  1  0  0  0
  5  7  1  0  0  0  0
  5 14  1  0  0  0  0
  7  8  1  1  0  0  0
  7  9  1  0  0  0  0
  9 10  1  6  0  0  0
  9 11  1  0  0  0  0
 11 12  1  1  0  0  0
 11 13  1  0  0  0  0
 13 14  1  0  0  0  0
 13 15  1  6  0  0  0
 15 16  1  0  0  0  0
M  CHG  1   3  -1
M  END
>  <CHROM.1>
167.45202740,64.53721876,160.32826032,45.05627027,11.47378102,12.11053507
-2.53688509,0.51600796,-1.38889864

>  <Name>
ligand

>  <RI>
0

>  <Rbt.Current_Directory>
/home/itssahil/PROJECTS/Mol_Feturizer/New_Systems/rnas/3B4B

>  <Rbt.Executable>
rbdock ($Id: //depot/dev/client3/rdock/2013.1/src/exe/rbdock.cxx#4 $)

>  <Rbt.Library>
libRbt.so (2013.1, Build901 2013/11/27)

>  <Rbt.Parameter_File>
/export/apps/rDock/src/rDock_2013.1_src/data/scripts/dock_solv.prm

>  <Rbt.Receptor>
prm/pocket_docking_3.prm

>  <SCORE>
-4.93975

>  <SCORE.INTER>
-6.81318

>  <SCORE.INTER.CONST>
1

>  <SCORE.INTER.POLAR>
-0.898627

>  <SCORE.INTER.ROT>
3

>  <SCORE.INTER.SOLV>
19.0504

>  <SCORE.INTER.VDW>
-13.4968

>  <SCORE.INTER.norm>
-0.425824

>  <SCORE.INTRA>
1.87342

>  <SCORE.INTRA.DIHEDRAL>
-0.991722

>  <SCORE.INTRA.DIHEDRAL.0>
2.21864

>  <SCORE.INTRA.POLAR>
0

>  <SCORE.INTRA.POLAR.0>
0

>  <SCORE.INTRA.REPUL>
0

>  <SCORE.INTRA.REPUL.0>
0

>  <SCORE.INTRA.SOLV>
4.49551

>  <SCORE.INTRA.SOLV.lig_0>
-58.5963

>  <SCORE.INTRA.VDW>
0.121531

>  <SCORE.INTRA.VDW.0>
-0.437849

>  <SCORE.INTRA.norm>
0.117089

>  <SCORE.RESTR>
0

>  <SCORE.RESTR.CAVITY>
0

>  <SCORE.RESTR.norm>
0

>  <SCORE.SYSTEM>
0

>  <SCORE.SYSTEM.CONST>
0

>  <SCORE.SYSTEM.DIHEDRAL>
0

>  <SCORE.SYSTEM.SOLV>
0

>  <SCORE.SYSTEM.norm>
0

>  <SCORE.heavy>
16

>  <SCORE.norm>
-0.308734

>  <RMSD>
5.082

$$$$
ligand
 OpenBabel11021811463D
libRbt.so/2013.1/901 2013/11/27
 16 16  0  0  0  0  0  0  0  0999 V2000
   43.9033   11.4803   14.5832 P   0  0  2  0  0  0  0  0  0  0  0  0
   44.6767   10.7928   15.6463 O   0  0  0  0  0  0  0  0  0  0  0  0
   42.8006   12.4548   15.2355 O   0  5  0  0  0  0  0  0  0  0  0  0
   43.1420   10.3726   13.6789 O   0  0  0  0  0  0  0  0  0  0  0  0
   45.3999   10.1501   10.1710 C   0  0  2  0  0  0  0  0  0  0  0  0
   46.8024   10.4535   10.1445 O   0  0  0  0  0  0  0  0  0  0  0  0
   44.6905   10.6130    8.8671 C   0  0  2  0  0  0  0  0  0  0  0  0
   45.3231    9.9663    7.6964 N   0  0  0  0  0  0  0  0  0  0  0  0
   44.8147   12.1474    8.7572 C   0  0  1  0  0  0  0  0  0  0  0  0
   44.1514   12.6159    7.5698 O   0  0  0  0  0  0  0  0  0  0  0  0
   44.1553   12.7688    9.9970 C   0  0  2  0  0  0  0  0  0  0  0  0
   44.2673   14.1976    9.9333 O   0  0  0  0  0  0  0  0  0  0  0  0
   44.8893   12.2404   11.2578 C   0  0  2  0  0  0  0  0  0  0  0  0
   44.7895   10.7888   11.3283 O   0  0  0  0  0  0  0  0  0  0  0  0
   44.2404   12.8378   12.5186 C   0  0  0  0  0  0  0  0  0  0  0  0
   44.9246   12.3575   13.6902 O   0  0  0  0  0  0  0  0  0  0  0  0
  1  2  1  1  0  0  0
  1  3  1  0  0  0  0
  1  4  2  0  0  0  0
  1 16  1  0  0  0  0
  5  6  1  6  0  0  0
  5  7  1  0  0  0  0
  5 14  1  0  0  0  0
  7  8  1  6  0  0  0
  7  9  1  0  0  0  0
  9 10  1  6  0  0  0
  9 11  1  0  0  0  0
 11 12  1  6  0  0  0
 11 13  1  0  0  0  0
 13 14  1  0  0  0  0
 13 15  1  1  0  0  0
 15 16  1  0  0  0  0
M  CHG  1   3  -1
M  END
>  <CHROM.1>
-179.58896205,-116.55684360,169.80764192,44.50457729,11.63752415,11.61951935
-1.99338049,1.12899508,-1.18681451

>  <Name>
ligand

>  <RI>
0

>  <Rbt.Current_Directory>
/home/itssahil/PROJECTS/Mol_Feturizer/New_Systems/rnas/3B4B

>  <Rbt.Executable>
rbdock ($Id: //depot/dev/client3/rdock/2013.1/src/exe/rbdock.cxx#4 $)

>  <Rbt.Library>
libRbt.so (2013.1, Build901 2013/11/27)

>  <Rbt.Parameter_File>
/export/apps/rDock/src/rDock_2013.1_src/data/scripts/dock_solv.prm

>  <Rbt.Receptor>
prm/pocket_docking_5.prm

>  <SCORE>
-5.36711

>  <SCORE.INTER>
-7.96346

>  <SCORE.INTER.CONST>
1

>  <SCORE.INTER.POLAR>
0

>  <SCORE.INTER.ROT>
3

>  <SCORE.INTER.SOLV>
24.5676

>  <SCORE.INTER.VDW>
-19.0982

>  <SCORE.INTER.norm>
-0.497716

>  <SCORE.INTRA>
2.58923

>  <SCORE.INTRA.DIHEDRAL>
5.08827

>  <SCORE.INTRA.DIHEDRAL.0>
2.21864

>  <SCORE.INTRA.POLAR>
0

>  <SCORE.INTRA.POLAR.0>
0

>  <SCORE.INTRA.REPUL>
0

>  <SCORE.INTRA.REPUL.0>
0

>  <SCORE.INTRA.SOLV>
1.48593

>  <SCORE.INTRA.SOLV.lig_0>
-58.5963

>  <SCORE.INTRA.VDW>
-0.697872

>  <SCORE.INTRA.VDW.0>
-0.437849

>  <SCORE.INTRA.norm>
0.161827

>  <SCORE.RESTR>
0.00711956

>  <SCORE.RESTR.CAVITY>
0.00711956

>  <SCORE.RESTR.norm>
0.000444973

>  <SCORE.SYSTEM>
0

>  <SCORE.SYSTEM.CONST>
0

>  <SCORE.SYSTEM.DIHEDRAL>
0

>  <SCORE.SYSTEM.SOLV>
0

>  <SCORE.SYSTEM.norm>
0

>  <SCORE.heavy>
16

>  <SCORE.norm>
-0.335445

>  <RMSD>
5.114

$$$$
ligand
 OpenBabel11021811463D
libRbt.so/2013.1/901 2013/11/27
 16 16  0  0  0  0  0  0  0  0999 V2000
   44.6101   10.9693   14.1652 P   0  0  2  0  0  0  0  0  0  0  0  0
   44.9458   11.1411   15.6000 O   0  0  0  0  0  0  0  0  0  0  0  0
   44.2526    9.4308   13.8552 O   0  5  0  0  0  0  0  0  0  0  0  0
   45.8890   11.3929   13.2656 O   0  0  0  0  0  0  0  0  0  0  0  0
   44.4673   12.3506    9.1585 C   0  0  2  0  0  0  0  0  0  0  0  0
   45.8440   12.1365    9.5029 O   0  0  0  0  0  0  0  0  0  0  0  0
   44.1374   13.8652    9.0380 C   0  0  2  0  0  0  0  0  0  0  0  0
   45.0133   14.4889    8.0215 N   0  0  0  0  0  0  0  0  0  0  0  0
   44.3637   14.5293   10.4126 C   0  0  1  0  0  0  0  0  0  0  0  0
   44.0490   15.9313   10.3451 O   0  0  0  0  0  0  0  0  0  0  0  0
   43.4431   13.8413   11.4313 C   0  0  2  0  0  0  0  0  0  0  0  0
   43.6403   14.4264   12.7262 O   0  0  0  0  0  0  0  0  0  0  0  0
   43.8043   12.3330   11.4761 C   0  0  2  0  0  0  0  0  0  0  0  0
   43.6160   11.7300   10.1635 O   0  0  0  0  0  0  0  0  0  0  0  0
   42.8874   11.6145   12.4813 C   0  0  0  0  0  0  0  0  0  0  0  0
   43.3281   11.8911   13.8233 O   0  0  0  0  0  0  0  0  0  0  0  0
  1  2  1  1  0  0  0
  1  3  1  0  0  0  0
  1  4  2  0  0  0  0
  1 16  1  0  0  0  0
  5  6  1  1  0  0  0
  5  7  1  0  0  0  0
  5 14  1  0  0  0  0
  7  8  1  6  0  0  0
  7  9  1  0  0  0  0
  9 10  1  6  0  0  0
  9 11  1  0  0  0  0
 11 12  1  1  0  0  0
 11 13  1  0  0  0  0
 13 14  1  0  0  0  0
 13 15  1  1  0  0  0
 15 16  1  0  0  0  0
M  CHG  1   3  -1
M  END
>  <CHROM.1>
-76.89454839,-78.33886104,-173.02222417,44.30673580,12.47954798,11.84193265
-1.54003116,1.25488355,-1.01125451

>  <Name>
ligand

>  <RI>
0

>  <Rbt.Current_Directory>
/home/itssahil/PROJECTS/Mol_Feturizer/New_Systems/rnas/3B4B

>  <Rbt.Executable>
rbdock ($Id: //depot/dev/client3/rdock/2013.1/src/exe/rbdock.cxx#4 $)

>  <Rbt.Library>
libRbt.so (2013.1, Build901 2013/11/27)

>  <Rbt.Parameter_File>
/export/apps/rDock/src/rDock_2013.1_src/data/scripts/dock_solv.prm

>  <Rbt.Receptor>
prm/pocket_docking_7.prm

>  <SCORE>
-7.44781

>  <SCORE.INTER>
-8.69975

>  <SCORE.INTER.CONST>
1

>  <SCORE.INTER.POLAR>
0

>  <SCORE.INTER.ROT>
3

>  <SCORE.INTER.SOLV>
14.558

>  <SCORE.INTER.VDW>
-16.2525

>  <SCORE.INTER.norm>
-0.543734

>  <SCORE.INTRA>
1.25189

>  <SCORE.INTRA.DIHEDRAL>
0.364009

>  <SCORE.INTRA.DIHEDRAL.0>
2.21864

>  <SCORE.INTRA.POLAR>
0

>  <SCORE.INTRA.POLAR.0>
0

>  <SCORE.INTRA.REPUL>
0

>  <SCORE.INTRA.REPUL.0>
0

>  <SCORE.INTRA.SOLV>
3.0545

>  <SCORE.INTRA.SOLV.lig_0>
-58.5963

>  <SCORE.INTRA.VDW>
-0.457362

>  <SCORE.INTRA.VDW.0>
-0.437849

>  <SCORE.INTRA.norm>
0.0782433

>  <SCORE.RESTR>
4.09946e-05

>  <SCORE.RESTR.CAVITY>
4.09946e-05

>  <SCORE.RESTR.norm>
2.56216e-06

>  <SCORE.SYSTEM>
0

>  <SCORE.SYSTEM.CONST>
0

>  <SCORE.SYSTEM.DIHEDRAL>
0

>  <SCORE.SYSTEM.SOLV>
0

>  <SCORE.SYSTEM.norm>
0

>  <SCORE.heavy>
16

>  <SCORE.norm>
-0.465488

>  <RMSD>
5.130

$$$$
ligand
 OpenBabel11021811463D
libRbt.so/2013.1/901 2013/11/27
 16 16  0  0  0  0  0  0  0  0999 V2000
   44.4412   10.8522   14.1597 P   0  0  2  0  0  0  0  0  0  0  0  0
   45.5752   11.4620   13.4227 O   0  0  0  0  0  0  0  0  0  0  0  0
   44.0020   11.7946   15.3885 O   0  5  0  0  0  0  0  0  0  0  0  0
   44.9019    9.4159   14.7503 O   0  0  0  0  0  0  0  0  0  0  0  0
   44.5580   12.3447    9.5202 C   0  0  2  0  0  0  0  0  0  0  0  0
   45.9057   12.3048   10.0119 O   0  0  0  0  0  0  0  0  0  0  0  0
   44.1348   13.7891    9.1298 C   0  0  2  0  0  0  0  0  0  0  0  0
   45.0601   14.3222    8.1057 N   0  0  0  0  0  0  0  0  0  0  0  0
   44.1766   14.6730   10.3942 C   0  0  1  0  0  0  0  0  0  0  0  0
   43.7713   16.0159   10.0754 O   0  0  0  0  0  0  0  0  0  0  0  0
   43.2113   14.0731   11.4270 C   0  0  2  0  0  0  0  0  0  0  0  0
   43.2377   14.8645   12.6232 O   0  0  0  0  0  0  0  0  0  0  0  0
   43.6725   12.6261   11.7446 C   0  0  2  0  0  0  0  0  0  0  0  0
   43.6580   11.8149   10.5346 O   0  0  0  0  0  0  0  0  0  0  0  0
   42.7143   11.9943   12.7694 C   0  0  0  0  0  0  0  0  0  0  0  0
   43.1955   10.6905   13.1437 O   0  0  0  0  0  0  0  0  0  0  0  0
  1  2  1  6  0  0  0
  1  3  1  0  0  0  0
  1  4  2  0  0  0  0
  1 16  1  0  0  0  0
  5  6  1  1  0  0  0
  5  7  1  0  0  0  0
  5 14  1  0  0  0  0
  7  8  1  6  0  0  0
  7  9  1  0  0  0  0
  9 10  1  6  0  0  0
  9 11  1  0  0  0  0
 11 12  1  1  0  0  0
 11 13  1  0  0  0  0
 13 14  1  0  0  0  0
 13 15  1  1  0  0  0
 15 16  1  0  0  0  0
M  CHG  1   3  -1
M  END
>  <CHROM.1>
-175.63656605,76.07660153,-66.89206906,44.17144601,12.52528350,11.94050412
-1.55143297,1.06313761,-0.93639075

>  <Name>
ligand

>  <RI>
0

>  <Rbt.Current_Directory>
/home/itssahil/PROJECTS/Mol_Feturizer/New_Systems/rnas/3B4B

>  <Rbt.Executable>
rbdock ($Id: //depot/dev/client3/rdock/2013.1/src/exe/rbdock.cxx#4 $)

>  <Rbt.Library>
libRbt.so (2013.1, Build901 2013/11/27)

>  <Rbt.Parameter_File>
/export/apps/rDock/src/rDock_2013.1_src/data/scripts/dock_solv.prm

>  <Rbt.Receptor>
prm/pocket_docking_5.prm

>  <SCORE>
-6.98514

>  <SCORE.INTER>
-6.48419

>  <SCORE.INTER.CONST>
1

>  <SCORE.INTER.POLAR>
0

>  <SCORE.INTER.ROT>
3

>  <SCORE.INTER.SOLV>
19.2088

>  <SCORE.INTER.VDW>
-16.3257

>  <SCORE.INTER.norm>
-0.405262

>  <SCORE.INTRA>
-0.500951

>  <SCORE.INTRA.DIHEDRAL>
-0.871668

>  <SCORE.INTRA.DIHEDRAL.0>
2.21864

>  <SCORE.INTRA.POLAR>
0

>  <SCORE.INTRA.POLAR.0>
0

>  <SCORE.INTRA.REPUL>
0

>  <SCORE.INTRA.REPUL.0>
0

>  <SCORE.INTRA.SOLV>
0.140248

>  <SCORE.INTRA.SOLV.lig_0>
-58.5963

>  <SCORE.INTRA.VDW>
-0.135241

>  <SCORE.INTRA.VDW.0>
-0.437849

>  <SCORE.INTRA.norm>
-0.0313094

>  <SCORE.RESTR>
0

>  <SCORE.RESTR.CAVITY>
0

>  <SCORE.RESTR.norm>
0

>  <SCORE.SYSTEM>
0

>  <SCORE.SYSTEM.CONST>
0

>  <SCORE.SYSTEM.DIHEDRAL>
0

>  <SCORE.SYSTEM.SOLV>
0

>  <SCORE.SYSTEM.norm>
0

>  <SCORE.heavy>
16

>  <SCORE.norm>
-0.436571

>  <RMSD>
5.209

$$$$
ligand
 OpenBabel11021811463D
libRbt.so/2013.1/901 2013/11/27
 16 16  0  0  0  0  0  0  0  0999 V2000
   44.2818   11.2849   14.3812 P   0  0  2  0  0  0  0  0  0  0  0  0
   45.4731   11.7258   13.6147 O   0  0  0  0  0  0  0  0  0  0  0  0
   44.7299   10.4125   15.6576 O   0  5  0  0  0  0  0  0  0  0  0  0
   43.3482   10.3645   13.4296 O   0  0  0  0  0  0  0  0  0  0  0  0
   44.6818   13.0167   10.6279 C   0  0  2  0  0  0  0  0  0  0  0  0
   45.9833   13.3043   11.1601 O   0  0  0  0  0  0  0  0  0  0  0  0
   44.0779   14.2495    9.8979 C   0  0  2  0  0  0  0  0  0  0  0  0
   44.9828   14.6795    8.8092 N   0  0  0  0  0  0  0  0  0  0  0  0
   43.9008   15.3902   10.9223 C   0  0  1  0  0  0  0  0  0  0  0  0
   43.3245   16.5445   10.2860 O   0  0  0  0  0  0  0  0  0  0  0  0
   42.9656   14.8916   12.0336 C   0  0  2  0  0  0  0  0  0  0  0  0
   42.7918   15.9256   13.0127 O   0  0  0  0  0  0  0  0  0  0  0  0
   43.6125   13.6459   12.6947 C   0  0  2  0  0  0  0  0  0  0  0  0
   43.8019   12.5918   11.7073 O   0  0  0  0  0  0  0  0  0  0  0  0
   42.6896   13.1161   13.8060 C   0  0  0  0  0  0  0  0  0  0  0  0
   43.4829   12.5946   14.8878 O   0  0  0  0  0  0  0  0  0  0  0  0
  1  2  1  6  0  0  0
  1  3  1  0  0  0  0
  1  4  2  0  0  0  0
  1 16  1  0  0  0  0
  5  6  1  1  0  0  0
  5  7  1  0  0  0  0
  5 14  1  0  0  0  0
  7  8  1  6  0  0  0
  7  9  1  0  0  0  0
  9 10  1  6  0  0  0
  9 11  1  0  0  0  0
 11 12  1  1  0  0  0
 11 13  1  0  0  0  0
 13 14  1  0  0  0  0
 13 15  1  1  0  0  0
 15 16  1  0  0  0  0
M  CHG  1   3  -1
M  END
>  <CHROM.1>
-145.16669781,-66.42731877,79.79243087,44.03637720,13.17485940,12.51053574
-1.50361523,0.90849388,-0.85054599

>  <Name>
ligand

>  <RI>
0

>  <Rbt.Current_Directory>
/home/itssahil/PROJECTS/Mol_Feturizer/New_Systems/rnas/3B4B

>  <Rbt.Executable>
rbdock ($Id: //depot/dev/client3/rdock/2013.1/src/exe/rbdock.cxx#4 $)

>  <Rbt.Library>
libRbt.so (2013.1, Build901 2013/11/27)

>  <Rbt.Parameter_File>
/export/apps/rDock/src/rDock_2013.1_src/data/scripts/dock_solv.prm

>  <Rbt.Receptor>
prm/pocket_docking_5.prm

>  <SCORE>
-6.05808

>  <SCORE.INTER>
-8.12572

>  <SCORE.INTER.CONST>
1

>  <SCORE.INTER.POLAR>
0

>  <SCORE.INTER.ROT>
3

>  <SCORE.INTER.SOLV>
15.9784

>  <SCORE.INTER.VDW>
-16.3433

>  <SCORE.INTER.norm>
-0.507857

>  <SCORE.INTRA>
2.06764

>  <SCORE.INTRA.DIHEDRAL>
1.88038

>  <SCORE.INTRA.DIHEDRAL.0>
2.21864

>  <SCORE.INTRA.POLAR>
0

>  <SCORE.INTRA.POLAR.0>
0

>  <SCORE.INTRA.REPUL>
0

>  <SCORE.INTRA.REPUL.0>
0

>  <SCORE.INTRA.SOLV>
2.07763

>  <SCORE.INTRA.SOLV.lig_0>
-58.5963

>  <SCORE.INTRA.VDW>
0.0886312

>  <SCORE.INTRA.VDW.0>
-0.437849

>  <SCORE.INTRA.norm>
0.129227

>  <SCORE.RESTR>
0

>  <SCORE.RESTR.CAVITY>
0

>  <SCORE.RESTR.norm>
0

>  <SCORE.SYSTEM>
0

>  <SCORE.SYSTEM.CONST>
0

>  <SCORE.SYSTEM.DIHEDRAL>
0

>  <SCORE.SYSTEM.SOLV>
0

>  <SCORE.SYSTEM.norm>
0

>  <SCORE.heavy>
16

>  <SCORE.norm>
-0.37863

>  <RMSD>
5.310

$$$$
ligand
 OpenBabel11021811463D
libRbt.so/2013.1/901 2013/11/27
 16 16  0  0  0  0  0  0  0  0999 V2000
   44.6964   10.7914   14.1963 P   0  0  2  0  0  0  0  0  0  0  0  0
   45.1590   11.1021   15.5712 O   0  0  0  0  0  0  0  0  0  0  0  0
   43.0879   10.7619   14.1410 O   0  5  0  0  0  0  0  0  0  0  0  0
   45.2539    9.3329   13.7647 O   0  0  0  0  0  0  0  0  0  0  0  0
   47.1968   13.6100    9.7980 C   0  0  2  0  0  0  0  0  0  0  0  0
   47.0813   14.8989   10.4185 O   0  0  0  0  0  0  0  0  0  0  0  0
   46.4733   13.5712    8.4223 C   0  0  2  0  0  0  0  0  0  0  0  0
   47.0353   14.6105    7.5317 N   0  0  0  0  0  0  0  0  0  0  0  0
   44.9682   13.8252    8.6503 C   0  0  1  0  0  0  0  0  0  0  0  0
   44.2609   13.7774    7.3986 O   0  0  0  0  0  0  0  0  0  0  0  0
   44.4367   12.7302    9.5867 C   0  0  2  0  0  0  0  0  0  0  0  0
   43.0399   12.9465    9.8318 O   0  0  0  0  0  0  0  0  0  0  0  0
   45.2221   12.8057   10.9226 C   0  0  2  0  0  0  0  0  0  0  0  0
   46.6439   12.5960   10.6846 O   0  0  0  0  0  0  0  0  0  0  0  0
   44.7185   11.7095   11.8777 C   0  0  0  0  0  0  0  0  0  0  0  0
   45.2404   11.9402   13.1990 O   0  0  0  0  0  0  0  0  0  0  0  0
  1  2  1  1  0  0  0
  1  3  1  0  0  0  0
  1  4  2  0  0  0  0
  1 16  1  0  0  0  0
  5  6  1  1  0  0  0
  5  7  1  0  0  0  0
  5 14  1  0  0  0  0
  7  8  1  6  0  0  0
  7  9  1  0  0  0  0
  9 10  1  6  0  0  0
  9 11  1  0  0  0  0
 11 12  1  1  0  0  0
 11 13  1  0  0  0  0
 13 14  1  0  0  0  0
 13 15  1  1  0  0  0
 15 16  1  0  0  0  0
M  CHG  1   3  -1
M  END
>  <CHROM.1>
-168.39196054,179.54244033,-175.75653846,45.21559720,12.40428990,11.30019038
-1.75985298,-0.31797841,-1.11481235

>  <Name>
ligand

>  <RI>
0

>  <Rbt.Current_Directory>
/home/itssahil/PROJECTS/Mol_Feturizer/New_Systems/rnas/3B4B

>  <Rbt.Executable>
rbdock ($Id: //depot/dev/client3/rdock/2013.1/src/exe/rbdock.cxx#4 $)

>  <Rbt.Library>
libRbt.so (2013.1, Build901 2013/11/27)

>  <Rbt.Parameter_File>
/export/apps/rDock/src/rDock_2013.1_src/data/scripts/dock_solv.prm

>  <Rbt.Receptor>
prm/pocket_docking_7.prm

>  <SCORE>
-7.94946

>  <SCORE.INTER>
-6.59395

>  <SCORE.INTER.CONST>
1

>  <SCORE.INTER.POLAR>
0

>  <SCORE.INTER.ROT>
3

>  <SCORE.INTER.SOLV>
18.8454

>  <SCORE.INTER.VDW>
-16.2778

>  <SCORE.INTER.norm>
-0.412122

>  <SCORE.INTRA>
-1.35648

>  <SCORE.INTRA.DIHEDRAL>
-1.71206

>  <SCORE.INTRA.DIHEDRAL.0>
2.21864

>  <SCORE.INTRA.POLAR>
0

>  <SCORE.INTRA.POLAR.0>
0

>  <SCORE.INTRA.REPUL>
0

>  <SCORE.INTRA.REPUL.0>
0

>  <SCORE.INTRA.SOLV>
-0.543802

>  <SCORE.INTRA.SOLV.lig_0>
-58.5963

>  <SCORE.INTRA.VDW>
-0.228549

>  <SCORE.INTRA.VDW.0>
-0.437849

>  <SCORE.INTRA.norm>
-0.08478

>  <SCORE.RESTR>
0.000974107

>  <SCORE.RESTR.CAVITY>
0.000974107

>  <SCORE.RESTR.norm>
6.08817e-05

>  <SCORE.SYSTEM>
0

>  <SCORE.SYSTEM.CONST>
0

>  <SCORE.SYSTEM.DIHEDRAL>
0

>  <SCORE.SYSTEM.SOLV>
0

>  <SCORE.SYSTEM.norm>
0

>  <SCORE.heavy>
16

>  <SCORE.norm>
-0.496841

>  <RMSD>
5.412

$$$$
ligand
 OpenBabel11021811463D
libRbt.so/2013.1/901 2013/11/27
 16 16  0  0  0  0  0  0  0  0999 V2000
   43.5508   11.4515   13.9215 P   0  0  2  0  0  0  0  0  0  0  0  0
   43.6759   12.2877   15.1405 O   0  0  0  0  0  0  0  0  0  0  0  0
   42.0114   11.0512   13.6740 O   0  5  0  0  0  0  0  0  0  0  0  0
   44.4116   10.0934   14.1178 O   0  0  0  0  0  0  0  0  0  0  0  0
   47.5289   10.2749   11.4548 C   0  0  2  0  0  0  0  0  0  0  0  0
   48.2028   11.5137   11.1885 O   0  0  0  0  0  0  0  0  0  0  0  0
   47.4900    9.3635   10.1956 C   0  0  2  0  0  0  0  0  0  0  0  0
   48.8682    9.0962    9.7285 N   0  0  0  0  0  0  0  0  0  0  0  0
   46.6858   10.0826    9.0920 C   0  0  1  0  0  0  0  0  0  0  0  0
   46.6114    9.2593    7.9148 O   0  0  0  0  0  0  0  0  0  0  0  0
   45.2713   10.3465    9.6285 C   0  0  2  0  0  0  0  0  0  0  0  0
   44.5003   11.0294    8.6299 O   0  0  0  0  0  0  0  0  0  0  0  0
   45.3871   11.2309   10.8982 C   0  0  2  0  0  0  0  0  0  0  0  0
   46.1759   10.5507   11.9166 O   0  0  0  0  0  0  0  0  0  0  0  0
   43.9828   11.5016   11.4659 C   0  0  0  0  0  0  0  0  0  0  0  0
   44.0874   12.3023   12.6573 O   0  0  0  0  0  0  0  0  0  0  0  0
  1  2  1  1  0  0  0
  1  3  1  0  0  0  0
  1  4  2  0  0  0  0
  1 16  1  0  0  0  0
  5  6  1  6  0  0  0
  5  7  1  0  0  0  0
  5 14  1  0  0  0  0
  7  8  1  6  0  0  0
  7  9  1  0  0  0  0
  9 10  1  6  0  0  0
  9 11  1  0  0  0  0
 11 12  1  6  0  0  0
 11 13  1  0  0  0  0
 13 14  1  0  0  0  0
 13 15  1  1  0  0  0
 15 16  1  0  0  0  0
M  CHG  1   3  -1
M  END
>  <CHROM.1>
179.00126255,-115.87892302,179.55856078,45.33999861,10.79201483,11.58100922
-2.25096277,0.21836089,-1.73937554

>  <Name>
ligand

>  <RI>
0

>  <Rbt.Current_Directory>
/home/itssahil/PROJECTS/Mol_Feturizer/New_Systems/rnas/3B4B

>  <Rbt.Executable>
rbdock ($Id: //depot/dev/client3/rdock/2013.1/src/exe/rbdock.cxx#4 $)

>  <Rbt.Library>
libRbt.so (2013.1, Build901 2013/11/27)

>  <Rbt.Parameter_File>
/export/apps/rDock/src/rDock_2013.1_src/data/scripts/dock_solv.prm

>  <Rbt.Receptor>
prm/blind_docking_60.prm

>  <SCORE>
-6.88419

>  <SCORE.INTER>
-9.39131

>  <SCORE.INTER.CONST>
1

>  <SCORE.INTER.POLAR>
-0.899845

>  <SCORE.INTER.ROT>
3

>  <SCORE.INTER.SOLV>
17.9335

>  <SCORE.INTER.VDW>
-14.8392

>  <SCORE.INTER.norm>
-0.586957

>  <SCORE.INTRA>
2.50712

>  <SCORE.INTRA.DIHEDRAL>
4.90206

>  <SCORE.INTRA.DIHEDRAL.0>
2.21864

>  <SCORE.INTRA.POLAR>
0

>  <SCORE.INTRA.POLAR.0>
0

>  <SCORE.INTRA.REPUL>
0

>  <SCORE.INTRA.REPUL.0>
0

>  <SCORE.INTRA.SOLV>
1.57871

>  <SCORE.INTRA.SOLV.lig_0>
-58.5963

>  <SCORE.INTRA.VDW>
-0.733266

>  <SCORE.INTRA.VDW.0>
-0.437849

>  <SCORE.INTRA.norm>
0.156695

>  <SCORE.RESTR>
0

>  <SCORE.RESTR.CAVITY>
0

>  <SCORE.RESTR.norm>
0

>  <SCORE.SYSTEM>
0

>  <SCORE.SYSTEM.CONST>
0

>  <SCORE.SYSTEM.DIHEDRAL>
0

>  <SCORE.SYSTEM.SOLV>
0

>  <SCORE.SYSTEM.norm>
0

>  <SCORE.heavy>
16

>  <SCORE.norm>
-0.430262

>  <RMSD>
5.430

$$$$
ligand
 OpenBabel11021811463D
libRbt.so/2013.1/901 2013/11/27
 16 16  0  0  0  0  0  0  0  0999 V2000
   44.6774   11.0812   13.9220 P   0  0  2  0  0  0  0  0  0  0  0  0
   45.4490   11.0979   15.1890 O   0  0  0  0  0  0  0  0  0  0  0  0
   43.6265    9.8619   13.9236 O   0  5  0  0  0  0  0  0  0  0  0  0
   45.6984   10.8802   12.6804 O   0  0  0  0  0  0  0  0  0  0  0  0
   41.7511   15.9280   12.5546 C   0  0  2  0  0  0  0  0  0  0  0  0
   40.7899   15.8087   11.4956 O   0  0  0  0  0  0  0  0  0  0  0  0
   43.0682   16.5892   12.0588 C   0  0  2  0  0  0  0  0  0  0  0  0
   42.7756   17.9243   11.4921 N   0  0  0  0  0  0  0  0  0  0  0  0
   43.6992   15.6821   10.9814 C   0  0  1  0  0  0  0  0  0  0  0  0
   44.9331   16.2531   10.5116 O   0  0  0  0  0  0  0  0  0  0  0  0
   43.9724   14.3099   11.6143 C   0  0  2  0  0  0  0  0  0  0  0  0
   44.5466   13.4357   10.6324 O   0  0  0  0  0  0  0  0  0  0  0  0
   42.6250   13.7250   12.1142 C   0  0  2  0  0  0  0  0  0  0  0  0
   42.0282   14.6094   13.1060 O   0  0  0  0  0  0  0  0  0  0  0  0
   42.8704   12.3529   12.7658 C   0  0  0  0  0  0  0  0  0  0  0  0
   43.8718   12.4756   13.7923 O   0  0  0  0  0  0  0  0  0  0  0  0
  1  2  1  1  0  0  0
  1  3  1  0  0  0  0
  1  4  2  0  0  0  0
  1 16  1  0  0  0  0
  5  6  1  6  0  0  0
  5  7  1  0  0  0  0
  5 14  1  0  0  0  0
  7  8  1  6  0  0  0
  7  9  1  0  0  0  0
  9 10  1  1  0  0  0
  9 11  1  0  0  0  0
 11 12  1  6  0  0  0
 11 13  1  0  0  0  0
 13 14  1  0  0  0  0
 13 15  1  1  0  0  0
 15 16  1  0  0  0  0
M  CHG  1   3  -1
M  END
>  <CHROM.1>
54.20031236,-150.28957444,-165.63175223,43.63306733,13.60880590,12.55391688
-1.22476667,0.42339125,-0.56544238

>  <Name>
ligand

>  <RI>
0

>  <Rbt.Current_Directory>
/home/itssahil/PROJECTS/Mol_Feturizer/New_Systems/rnas/3B4B

>  <Rbt.Executable>
rbdock ($Id: //depot/dev/client3/rdock/2013.1/src/exe/rbdock.cxx#4 $)

>  <Rbt.Library>
libRbt.so (2013.1, Build901 2013/11/27)

>  <Rbt.Parameter_File>
/export/apps/rDock/src/rDock_2013.1_src/data/scripts/dock_solv.prm

>  <Rbt.Receptor>
prm/pocket_docking_8.prm

>  <SCORE>
-8.99339

>  <SCORE.INTER>
-10.1203

>  <SCORE.INTER.CONST>
1

>  <SCORE.INTER.POLAR>
0

>  <SCORE.INTER.ROT>
3

>  <SCORE.INTER.SOLV>
11.0156

>  <SCORE.INTER.VDW>
-16.0187

>  <SCORE.INTER.norm>
-0.632516

>  <SCORE.INTRA>
1.12687

>  <SCORE.INTRA.DIHEDRAL>
1.77488

>  <SCORE.INTRA.DIHEDRAL.0>
2.21864

>  <SCORE.INTRA.POLAR>
0

>  <SCORE.INTRA.POLAR.0>
0

>  <SCORE.INTRA.REPUL>
0

>  <SCORE.INTRA.REPUL.0>
0

>  <SCORE.INTRA.SOLV>
1.06143

>  <SCORE.INTRA.SOLV.lig_0>
-58.5963

>  <SCORE.INTRA.VDW>
-0.291286

>  <SCORE.INTRA.VDW.0>
-0.437849

>  <SCORE.INTRA.norm>
0.0704293

>  <SCORE.RESTR>
0

>  <SCORE.RESTR.CAVITY>
0

>  <SCORE.RESTR.norm>
0

>  <SCORE.SYSTEM>
0

>  <SCORE.SYSTEM.CONST>
0

>  <SCORE.SYSTEM.DIHEDRAL>
0

>  <SCORE.SYSTEM.SOLV>
0

>  <SCORE.SYSTEM.norm>
0

>  <SCORE.heavy>
16

>  <SCORE.norm>
-0.562087

>  <RMSD>
5.453

$$$$
ligand
 OpenBabel11021811463D
libRbt.so/2013.1/901 2013/11/27
 16 16  0  0  0  0  0  0  0  0999 V2000
   43.4351   11.5193   13.8064 P   0  0  2  0  0  0  0  0  0  0  0  0
   43.5069   12.3759   15.0155 O   0  0  0  0  0  0  0  0  0  0  0  0
   41.9082   11.1128   13.4993 O   0  5  0  0  0  0  0  0  0  0  0  0
   44.2875   10.1657   14.0625 O   0  0  0  0  0  0  0  0  0  0  0  0
   47.4491   10.2270   11.4650 C   0  0  2  0  0  0  0  0  0  0  0  0
   48.1621   11.4470   11.2146 O   0  0  0  0  0  0  0  0  0  0  0  0
   47.4252    9.3110   10.2088 C   0  0  2  0  0  0  0  0  0  0  0  0
   48.8097    9.0068    9.7847 N   0  0  0  0  0  0  0  0  0  0  0  0
   46.6733   10.0452    9.0785 C   0  0  1  0  0  0  0  0  0  0  0  0
   46.6137    9.2186    7.9027 O   0  0  0  0  0  0  0  0  0  0  0  0
   45.2504   10.3474    9.5707 C   0  0  2  0  0  0  0  0  0  0  0  0
   44.5276   11.0449    8.5466 O   0  0  0  0  0  0  0  0  0  0  0  0
   45.3502   11.2343   10.8399 C   0  0  2  0  0  0  0  0  0  0  0  0
   46.0902   10.5391   11.8844 O   0  0  0  0  0  0  0  0  0  0  0  0
   43.9368   11.5431   11.3637 C   0  0  0  0  0  0  0  0  0  0  0  0
   44.0255   12.3495   12.5525 O   0  0  0  0  0  0  0  0  0  0  0  0
  1  2  1  1  0  0  0
  1  3  1  0  0  0  0
  1  4  2  0  0  0  0
  1 16  1  0  0  0  0
  5  6  1  6  0  0  0
  5  7  1  0  0  0  0
  5 14  1  0  0  0  0
  7  8  1  6  0  0  0
  7  9  1  0  0  0  0
  9 10  1  6  0  0  0
  9 11  1  0  0  0  0
 11 12  1  6  0  0  0
 11 13  1  0  0  0  0
 13 14  1  0  0  0  0
 13 15  1  1  0  0  0
 15 16  1  0  0  0  0
M  CHG  1   3  -1
M  END
>  <CHROM.1>
179.15859448,-115.69967020,-178.76620056,45.27364271,10.80132295,11.52319125
-2.27606250,0.24905200,-1.73811024

>  <Name>
ligand

>  <RI>
0

>  <Rbt.Current_Directory>
/home/itssahil/PROJECTS/Mol_Feturizer/New_Systems/rnas/3B4B

>  <Rbt.Executable>
rbdock ($Id: //depot/dev/client3/rdock/2013.1/src/exe/rbdock.cxx#4 $)

>  <Rbt.Library>
libRbt.so (2013.1, Build901 2013/11/27)

>  <Rbt.Parameter_File>
/export/apps/rDock/src/rDock_2013.1_src/data/scripts/dock_solv.prm

>  <Rbt.Receptor>
prm/pocket_docking_6.prm

>  <SCORE>
-6.89177

>  <SCORE.INTER>
-9.40821

>  <SCORE.INTER.CONST>
1

>  <SCORE.INTER.POLAR>
-0.898963

>  <SCORE.INTER.ROT>
3

>  <SCORE.INTER.SOLV>
17.4221

>  <SCORE.INTER.VDW>
-14.683

>  <SCORE.INTER.norm>
-0.588013

>  <SCORE.INTRA>
2.51645

>  <SCORE.INTRA.DIHEDRAL>
4.89632

>  <SCORE.INTRA.DIHEDRAL.0>
2.21864

>  <SCORE.INTRA.POLAR>
0

>  <SCORE.INTRA.POLAR.0>
0

>  <SCORE.INTRA.REPUL>
0

>  <SCORE.INTRA.REPUL.0>
0

>  <SCORE.INTRA.SOLV>
1.58876

>  <SCORE.INTRA.SOLV.lig_0>
-58.5963

>  <SCORE.INTRA.VDW>
-0.72609

>  <SCORE.INTRA.VDW.0>
-0.437849

>  <SCORE.INTRA.norm>
0.157278

>  <SCORE.RESTR>
0

>  <SCORE.RESTR.CAVITY>
0

>  <SCORE.RESTR.norm>
0

>  <SCORE.SYSTEM>
0

>  <SCORE.SYSTEM.CONST>
0

>  <SCORE.SYSTEM.DIHEDRAL>
0

>  <SCORE.SYSTEM.SOLV>
0

>  <SCORE.SYSTEM.norm>
0

>  <SCORE.heavy>
16

>  <SCORE.norm>
-0.430735

>  <RMSD>
5.457

$$$$
ligand
 OpenBabel11021811463D
libRbt.so/2013.1/901 2013/11/27
 16 16  0  0  0  0  0  0  0  0999 V2000
   43.9027   11.5213   14.4610 P   0  0  2  0  0  0  0  0  0  0  0  0
   44.7329   11.0904   15.6125 O   0  0  0  0  0  0  0  0  0  0  0  0
   42.7698   12.5572   14.9453 O   0  5  0  0  0  0  0  0  0  0  0  0
   43.1749   10.2256   13.8161 O   0  0  0  0  0  0  0  0  0  0  0  0
   49.0664   11.8682   11.0438 C   0  0  2  0  0  0  0  0  0  0  0  0
   49.4753   13.1189   11.6168 O   0  0  0  0  0  0  0  0  0  0  0  0
   48.4849   12.0577    9.6143 C   0  0  2  0  0  0  0  0  0  0  0  0
   49.4933   12.7035    8.7452 N   0  0  0  0  0  0  0  0  0  0  0  0
   47.2227   12.9407    9.7093 C   0  0  1  0  0  0  0  0  0  0  0  0
   46.6441   13.1225    8.4049 O   0  0  0  0  0  0  0  0  0  0  0  0
   46.2151   12.2343   10.6280 C   0  0  2  0  0  0  0  0  0  0  0  0
   45.0333   13.0382   10.7501 O   0  0  0  0  0  0  0  0  0  0  0  0
   46.8707   12.0493   12.0221 C   0  0  2  0  0  0  0  0  0  0  0  0
   48.0774   11.2412   11.9089 O   0  0  0  0  0  0  0  0  0  0  0  0
   45.8865   11.3312   12.9618 C   0  0  0  0  0  0  0  0  0  0  0  0
   44.8594   12.2482   13.3810 O   0  0  0  0  0  0  0  0  0  0  0  0
  1  2  1  1  0  0  0
  1  3  1  0  0  0  0
  1  4  2  0  0  0  0
  1 16  1  0  0  0  0
  5  6  1  1  0  0  0
  5  7  1  0  0  0  0
  5 14  1  0  0  0  0
  7  8  1  6  0  0  0
  7  9  1  0  0  0  0
  9 10  1  6  0  0  0
  9 11  1  0  0  0  0
 11 12  1  1  0  0  0
 11 13  1  0  0  0  0
 13 14  1  0  0  0  0
 13 15  1  1  0  0  0
 15 16  1  0  0  0  0
M  CHG  1   3  -1
M  END
>  <CHROM.1>
-75.09008435,-175.36206483,58.80322915,46.13081068,12.04321614,12.09595551
-2.33194531,0.09135503,-1.25571010

>  <Name>
ligand

>  <RI>
0

>  <Rbt.Current_Directory>
/home/itssahil/PROJECTS/Mol_Feturizer/New_Systems/rnas/3B4B

>  <Rbt.Executable>
rbdock ($Id: //depot/dev/client3/rdock/2013.1/src/exe/rbdock.cxx#4 $)

>  <Rbt.Library>
libRbt.so (2013.1, Build901 2013/11/27)

>  <Rbt.Parameter_File>
/export/apps/rDock/src/rDock_2013.1_src/data/scripts/dock_solv.prm

>  <Rbt.Receptor>
prm/pocket_docking_4.prm

>  <SCORE>
-6.77974

>  <SCORE.INTER>
-5.52756

>  <SCORE.INTER.CONST>
1

>  <SCORE.INTER.POLAR>
0

>  <SCORE.INTER.ROT>
3

>  <SCORE.INTER.SOLV>
18.1129

>  <SCORE.INTER.VDW>
-15.3227

>  <SCORE.INTER.norm>
-0.345473

>  <SCORE.INTRA>
-1.25217

>  <SCORE.INTRA.DIHEDRAL>
-1.33052

>  <SCORE.INTRA.DIHEDRAL.0>
2.21864

>  <SCORE.INTRA.POLAR>
0

>  <SCORE.INTRA.POLAR.0>
0

>  <SCORE.INTRA.REPUL>
0

>  <SCORE.INTRA.REPUL.0>
0

>  <SCORE.INTRA.SOLV>
-0.878236

>  <SCORE.INTRA.SOLV.lig_0>
-58.5963

>  <SCORE.INTRA.VDW>
-0.147796

>  <SCORE.INTRA.VDW.0>
-0.437849

>  <SCORE.INTRA.norm>
-0.0782609

>  <SCORE.RESTR>
0

>  <SCORE.RESTR.CAVITY>
0

>  <SCORE.RESTR.norm>
0

>  <SCORE.SYSTEM>
0

>  <SCORE.SYSTEM.CONST>
0

>  <SCORE.SYSTEM.DIHEDRAL>
0

>  <SCORE.SYSTEM.SOLV>
0

>  <SCORE.SYSTEM.norm>
0

>  <SCORE.heavy>
16

>  <SCORE.norm>
-0.423733

>  <RMSD>
5.467

$$$$
ligand
 OpenBabel11021811463D
libRbt.so/2013.1/901 2013/11/27
 16 16  0  0  0  0  0  0  0  0999 V2000
   42.8253   12.0719   14.1120 P   0  0  2  0  0  0  0  0  0  0  0  0
   43.4737   12.3404   15.4191 O   0  0  0  0  0  0  0  0  0  0  0  0
   42.2311   13.4336   13.4927 O   0  5  0  0  0  0  0  0  0  0  0  0
   41.6052   11.0284   14.3283 O   0  0  0  0  0  0  0  0  0  0  0  0
   47.8761   10.6903   11.9787 C   0  0  2  0  0  0  0  0  0  0  0  0
   48.6928   11.7663   11.4939 O   0  0  0  0  0  0  0  0  0  0  0  0
   47.4490    9.7346   10.8290 C   0  0  2  0  0  0  0  0  0  0  0  0
   48.6502    9.1913   10.1574 N   0  0  0  0  0  0  0  0  0  0  0  0
   46.5913   10.5289    9.8214 C   0  0  1  0  0  0  0  0  0  0  0  0
   46.1601    9.6706    8.7506 O   0  0  0  0  0  0  0  0  0  0  0  0
   45.3672   11.0794   10.5676 C   0  0  2  0  0  0  0  0  0  0  0  0
   44.5548   11.8378    9.6606 O   0  0  0  0  0  0  0  0  0  0  0  0
   45.8661   11.9950   11.7167 C   0  0  2  0  0  0  0  0  0  0  0  0
   46.6998   11.2370   12.6400 O   0  0  0  0  0  0  0  0  0  0  0  0
   44.6588   12.5519   12.4912 C   0  0  0  0  0  0  0  0  0  0  0  0
   43.9336   11.4694   13.1026 O   0  0  0  0  0  0  0  0  0  0  0  0
  1  2  1  1  0  0  0
  1  3  1  0  0  0  0
  1  4  2  0  0  0  0
  1 16  1  0  0  0  0
  5  6  1  6  0  0  0
  5  7  1  0  0  0  0
  5 14  1  0  0  0  0
  7  8  1  6  0  0  0
  7  9  1  0  0  0  0
  9 10  1  6  0  0  0
  9 11  1  0  0  0  0
 11 12  1  6  0  0  0
 11 13  1  0  0  0  0
 13 14  1  0  0  0  0
 13 15  1  1  0  0  0
 15 16  1  0  0  0  0
M  CHG  1   3  -1
M  END
>  <CHROM.1>
62.93296489,170.46577862,-84.40145505,45.16939788,11.37094874,12.10502569
-2.42868704,0.15913510,-1.84031995

>  <Name>
ligand

>  <RI>
0

>  <Rbt.Current_Directory>
/home/itssahil/PROJECTS/Mol_Feturizer/New_Systems/rnas/3B4B

>  <Rbt.Executable>
rbdock ($Id: //depot/dev/client3/rdock/2013.1/src/exe/rbdock.cxx#4 $)

>  <Rbt.Library>
libRbt.so (2013.1, Build901 2013/11/27)

>  <Rbt.Parameter_File>
/export/apps/rDock/src/rDock_2013.1_src/data/scripts/dock_solv.prm

>  <Rbt.Receptor>
prm/pocket_docking_5.prm

>  <SCORE>
-7.87416

>  <SCORE.INTER>
-7.23062

>  <SCORE.INTER.CONST>
1

>  <SCORE.INTER.POLAR>
-0.9

>  <SCORE.INTER.ROT>
3

>  <SCORE.INTER.SOLV>
19.7436

>  <SCORE.INTER.VDW>
-14.0016

>  <SCORE.INTER.norm>
-0.451914

>  <SCORE.INTRA>
-0.643533

>  <SCORE.INTRA.DIHEDRAL>
-0.899339

>  <SCORE.INTRA.DIHEDRAL.0>
2.21864

>  <SCORE.INTRA.POLAR>
0

>  <SCORE.INTRA.POLAR.0>
0

>  <SCORE.INTRA.REPUL>
0

>  <SCORE.INTRA.REPUL.0>
0

>  <SCORE.INTRA.SOLV>
-0.682491

>  <SCORE.INTRA.SOLV.lig_0>
-58.5963

>  <SCORE.INTRA.VDW>
0.147382

>  <SCORE.INTRA.VDW.0>
-0.437849

>  <SCORE.INTRA.norm>
-0.0402208

>  <SCORE.RESTR>
0

>  <SCORE.RESTR.CAVITY>
0

>  <SCORE.RESTR.norm>
0

>  <SCORE.SYSTEM>
0

>  <SCORE.SYSTEM.CONST>
0

>  <SCORE.SYSTEM.DIHEDRAL>
0

>  <SCORE.SYSTEM.SOLV>
0

>  <SCORE.SYSTEM.norm>
0

>  <SCORE.heavy>
16

>  <SCORE.norm>
-0.492135

>  <RMSD>
5.468

$$$$
ligand
 OpenBabel11021811463D
libRbt.so/2013.1/901 2013/11/27
 16 16  0  0  0  0  0  0  0  0999 V2000
   44.6310   11.1046   14.0880 P   0  0  2  0  0  0  0  0  0  0  0  0
   45.8535   10.9818   13.2565 O   0  0  0  0  0  0  0  0  0  0  0  0
   45.0104   11.0480   15.6513 O   0  5  0  0  0  0  0  0  0  0  0  0
   43.6350    9.8714   13.7542 O   0  0  0  0  0  0  0  0  0  0  0  0
   41.7773   15.9013   12.6145 C   0  0  2  0  0  0  0  0  0  0  0  0
   40.7701   15.7797   11.5995 O   0  0  0  0  0  0  0  0  0  0  0  0
   43.0396   16.6363   12.0816 C   0  0  2  0  0  0  0  0  0  0  0  0
   42.6643   17.9775   11.5820 N   0  0  0  0  0  0  0  0  0  0  0  0
   43.6528   15.7975   10.9405 C   0  0  1  0  0  0  0  0  0  0  0  0
   44.8371   16.4378   10.4340 O   0  0  0  0  0  0  0  0  0  0  0  0
   44.0136   14.4159   11.5057 C   0  0  2  0  0  0  0  0  0  0  0  0
   44.5734   13.6039   10.4639 O   0  0  0  0  0  0  0  0  0  0  0  0
   42.7181   13.7556   12.0471 C   0  0  2  0  0  0  0  0  0  0  0  0
   42.1357   14.5764   13.1003 O   0  0  0  0  0  0  0  0  0  0  0  0
   43.0521   12.3723   12.6323 C   0  0  0  0  0  0  0  0  0  0  0  0
   43.9290   12.5231   13.7636 O   0  0  0  0  0  0  0  0  0  0  0  0
  1  2  1  6  0  0  0
  1  3  1  0  0  0  0
  1  4  2  0  0  0  0
  1 16  1  0  0  0  0
  5  6  1  6  0  0  0
  5  7  1  0  0  0  0
  5 14  1  0  0  0  0
  7  8  1  6  0  0  0
  7  9  1  0  0  0  0
  9 10  1  1  0  0  0
  9 11  1  0  0  0  0
 11 12  1  6  0  0  0
 11 13  1  0  0  0  0
 13 14  1  0  0  0  0
 13 15  1  1  0  0  0
 15 16  1  0  0  0  0
M  CHG  1   3  -1
M  END
>  <CHROM.1>
63.81421211,-162.75480815,86.64914781,43.62306004,13.65515388,12.60891056
-1.23829684,0.48307985,-0.61464489

>  <Name>
ligand

>  <RI>
0

>  <Rbt.Current_Directory>
/home/itssahil/PROJECTS/Mol_Feturizer/New_Systems/rnas/3B4B

>  <Rbt.Executable>
rbdock ($Id: //depot/dev/client3/rdock/2013.1/src/exe/rbdock.cxx#4 $)

>  <Rbt.Library>
libRbt.so (2013.1, Build901 2013/11/27)

>  <Rbt.Parameter_File>
/export/apps/rDock/src/rDock_2013.1_src/data/scripts/dock_solv.prm

>  <Rbt.Receptor>
prm/pocket_docking_6.prm

>  <SCORE>
-7.92027

>  <SCORE.INTER>
-7.65133

>  <SCORE.INTER.CONST>
1

>  <SCORE.INTER.POLAR>
0

>  <SCORE.INTER.ROT>
3

>  <SCORE.INTER.SOLV>
17.7836

>  <SCORE.INTER.VDW>
-16.6288

>  <SCORE.INTER.norm>
-0.478208

>  <SCORE.INTRA>
-0.268937

>  <SCORE.INTRA.DIHEDRAL>
0.201387

>  <SCORE.INTRA.DIHEDRAL.0>
2.21864

>  <SCORE.INTRA.POLAR>
0

>  <SCORE.INTRA.POLAR.0>
0

>  <SCORE.INTRA.REPUL>
0

>  <SCORE.INTRA.REPUL.0>
0

>  <SCORE.INTRA.SOLV>
-0.598517

>  <SCORE.INTRA.SOLV.lig_0>
-58.5963

>  <SCORE.INTRA.VDW>
-0.0703718

>  <SCORE.INTRA.VDW.0>
-0.437849

>  <SCORE.INTRA.norm>
-0.0168085

>  <SCORE.RESTR>
0

>  <SCORE.RESTR.CAVITY>
0

>  <SCORE.RESTR.norm>
0

>  <SCORE.SYSTEM>
0

>  <SCORE.SYSTEM.CONST>
0

>  <SCORE.SYSTEM.DIHEDRAL>
0

>  <SCORE.SYSTEM.SOLV>
0

>  <SCORE.SYSTEM.norm>
0

>  <SCORE.heavy>
16

>  <SCORE.norm>
-0.495017

>  <RMSD>
5.474

$$$$
ligand
 OpenBabel11021811463D
libRbt.so/2013.1/901 2013/11/27
 16 16  0  0  0  0  0  0  0  0999 V2000
   44.2803   10.8043   14.2287 P   0  0  2  0  0  0  0  0  0  0  0  0
   44.7026   11.3059   15.5595 O   0  0  0  0  0  0  0  0  0  0  0  0
   42.6821   10.6180   14.1831 O   0  5  0  0  0  0  0  0  0  0  0  0
   44.9749    9.3661   13.9578 O   0  0  0  0  0  0  0  0  0  0  0  0
   45.0499   12.6477    8.3479 C   0  0  2  0  0  0  0  0  0  0  0  0
   46.4613   12.8698    8.4830 O   0  0  0  0  0  0  0  0  0  0  0  0
   44.2574   13.9854    8.3591 C   0  0  2  0  0  0  0  0  0  0  0  0
   44.7361   14.8600    7.2659 N   0  0  0  0  0  0  0  0  0  0  0  0
   44.4738   14.6743    9.7231 C   0  0  1  0  0  0  0  0  0  0  0  0
   43.7381   15.9092    9.7784 O   0  0  0  0  0  0  0  0  0  0  0  0
   43.9731   13.7247   10.8212 C   0  0  2  0  0  0  0  0  0  0  0  0
   44.1744   14.3302   12.1060 O   0  0  0  0  0  0  0  0  0  0  0  0
   44.7817   12.4034   10.7310 C   0  0  2  0  0  0  0  0  0  0  0  0
   44.5916   11.7837    9.4264 O   0  0  0  0  0  0  0  0  0  0  0  0
   44.2918   11.4260   11.8137 C   0  0  0  0  0  0  0  0  0  0  0  0
   44.7208   11.8828   13.1094 O   0  0  0  0  0  0  0  0  0  0  0  0
  1  2  1  1  0  0  0
  1  3  1  0  0  0  0
  1  4  2  0  0  0  0
  1 16  1  0  0  0  0
  5  6  1  1  0  0  0
  5  7  1  0  0  0  0
  5 14  1  0  0  0  0
  7  8  1  6  0  0  0
  7  9  1  0  0  0  0
  9 10  1  6  0  0  0
  9 11  1  0  0  0  0
 11 12  1  1  0  0  0
 11 13  1  0  0  0  0
 13 14  1  0  0  0  0
 13 15  1  1  0  0  0
 15 16  1  0  0  0  0
M  CHG  1   3  -1
M  END
>  <CHROM.1>
-71.61872060,-176.55767822,-178.71958126,44.47929512,12.49513783,11.41813185
1.74857502,-1.15754282,2.28126793

>  <Name>
ligand

>  <RI>
0

>  <Rbt.Current_Directory>
/home/itssahil/PROJECTS/Mol_Feturizer/New_Systems/rnas/3B4B

>  <Rbt.Executable>
rbdock ($Id: //depot/dev/client3/rdock/2013.1/src/exe/rbdock.cxx#4 $)

>  <Rbt.Library>
libRbt.so (2013.1, Build901 2013/11/27)

>  <Rbt.Parameter_File>
/export/apps/rDock/src/rDock_2013.1_src/data/scripts/dock_solv.prm

>  <Rbt.Receptor>
prm/pocket_docking_8.prm

>  <SCORE>
-8.83656

>  <SCORE.INTER>
-7.68312

>  <SCORE.INTER.CONST>
1

>  <SCORE.INTER.POLAR>
0

>  <SCORE.INTER.ROT>
3

>  <SCORE.INTER.SOLV>
16.4013

>  <SCORE.INTER.VDW>
-16.1892

>  <SCORE.INTER.norm>
-0.480195

>  <SCORE.INTRA>
-1.15344

>  <SCORE.INTRA.DIHEDRAL>
-1.68475

>  <SCORE.INTRA.DIHEDRAL.0>
2.21864

>  <SCORE.INTRA.POLAR>
0

>  <SCORE.INTRA.POLAR.0>
0

>  <SCORE.INTRA.REPUL>
0

>  <SCORE.INTRA.REPUL.0>
0

>  <SCORE.INTRA.SOLV>
-0.125015

>  <SCORE.INTRA.SOLV.lig_0>
-58.5963

>  <SCORE.INTRA.VDW>
-0.248556

>  <SCORE.INTRA.VDW.0>
-0.437849

>  <SCORE.INTRA.norm>
-0.0720901

>  <SCORE.RESTR>
0

>  <SCORE.RESTR.CAVITY>
0

>  <SCORE.RESTR.norm>
0

>  <SCORE.SYSTEM>
0

>  <SCORE.SYSTEM.CONST>
0

>  <SCORE.SYSTEM.DIHEDRAL>
0

>  <SCORE.SYSTEM.SOLV>
0

>  <SCORE.SYSTEM.norm>
0

>  <SCORE.heavy>
16

>  <SCORE.norm>
-0.552285

>  <RMSD>
5.486

$$$$
ligand
 OpenBabel11021811463D
libRbt.so/2013.1/901 2013/11/27
 16 16  0  0  0  0  0  0  0  0999 V2000
   42.8037   12.4981   14.0853 P   0  0  2  0  0  0  0  0  0  0  0  0
   42.9230   12.5889   15.5613 O   0  0  0  0  0  0  0  0  0  0  0  0
   42.2815   13.8951   13.4798 O   0  5  0  0  0  0  0  0  0  0  0  0
   41.7343   11.3410   13.7087 O   0  0  0  0  0  0  0  0  0  0  0  0
   47.5136   10.1834   11.8621 C   0  0  2  0  0  0  0  0  0  0  0  0
   48.3214   11.3696   11.8643 O   0  0  0  0  0  0  0  0  0  0  0  0
   47.4182    9.5598   10.4409 C   0  0  2  0  0  0  0  0  0  0  0  0
   48.7745    9.2459    9.9400 N   0  0  0  0  0  0  0  0  0  0  0  0
   46.7279   10.5733    9.5039 C   0  0  1  0  0  0  0  0  0  0  0  0
   46.6039   10.0225    8.1809 O   0  0  0  0  0  0  0  0  0  0  0  0
   45.3331   10.8737   10.0717 C   0  0  2  0  0  0  0  0  0  0  0  0
   44.6688   11.8269    9.2301 O   0  0  0  0  0  0  0  0  0  0  0  0
   45.5018   11.4605   11.4981 C   0  0  2  0  0  0  0  0  0  0  0  0
   46.1835   10.5040   12.3598 O   0  0  0  0  0  0  0  0  0  0  0  0
   44.1169   11.7599   12.0979 C   0  0  0  0  0  0  0  0  0  0  0  0
   44.2606   12.1653   13.4714 O   0  0  0  0  0  0  0  0  0  0  0  0
  1  2  1  1  0  0  0
  1  3  1  0  0  0  0
  1  4  2  0  0  0  0
  1 16  1  0  0  0  0
  5  6  1  6  0  0  0
  5  7  1  0  0  0  0
  5 14  1  0  0  0  0
  7  8  1  6  0  0  0
  7  9  1  0  0  0  0
  9 10  1  6  0  0  0
  9 11  1  0  0  0  0
 11 12  1  6  0  0  0
 11 13  1  0  0  0  0
 13 14  1  0  0  0  0
 13 15  1  1  0  0  0
 15 16  1  0  0  0  0
M  CHG  1   3  -1
M  END
>  <CHROM.1>
173.73211443,179.17662498,166.36468509,45.08589161,11.37015077,11.92297281
-2.41569179,0.37592928,-1.69728287

>  <Name>
ligand

>  <RI>
0

>  <Rbt.Current_Directory>
/home/itssahil/PROJECTS/Mol_Feturizer/New_Systems/rnas/3B4B

>  <Rbt.Executable>
rbdock ($Id: //depot/dev/client3/rdock/2013.1/src/exe/rbdock.cxx#4 $)

>  <Rbt.Library>
libRbt.so (2013.1, Build901 2013/11/27)

>  <Rbt.Parameter_File>
/export/apps/rDock/src/rDock_2013.1_src/data/scripts/dock_solv.prm

>  <Rbt.Receptor>
prm/pocket_docking_7.prm

>  <SCORE>
-9.45677

>  <SCORE.INTER>
-8.17099

>  <SCORE.INTER.CONST>
1

>  <SCORE.INTER.POLAR>
-0.9

>  <SCORE.INTER.ROT>
3

>  <SCORE.INTER.SOLV>
19.0845

>  <SCORE.INTER.VDW>
-14.4088

>  <SCORE.INTER.norm>
-0.510687

>  <SCORE.INTRA>
-1.28578

>  <SCORE.INTRA.DIHEDRAL>
-1.78535

>  <SCORE.INTRA.DIHEDRAL.0>
2.21864

>  <SCORE.INTRA.POLAR>
0

>  <SCORE.INTRA.POLAR.0>
0

>  <SCORE.INTRA.REPUL>
0

>  <SCORE.INTRA.REPUL.0>
0

>  <SCORE.INTRA.SOLV>
-0.499312

>  <SCORE.INTRA.SOLV.lig_0>
-58.5963

>  <SCORE.INTRA.VDW>
-0.143448

>  <SCORE.INTRA.VDW.0>
-0.437849

>  <SCORE.INTRA.norm>
-0.0803611

>  <SCORE.RESTR>
0

>  <SCORE.RESTR.CAVITY>
0

>  <SCORE.RESTR.norm>
0

>  <SCORE.SYSTEM>
0

>  <SCORE.SYSTEM.CONST>
0

>  <SCORE.SYSTEM.DIHEDRAL>
0

>  <SCORE.SYSTEM.SOLV>
0

>  <SCORE.SYSTEM.norm>
0

>  <SCORE.heavy>
16

>  <SCORE.norm>
-0.591048

>  <RMSD>
5.511

$$$$
ligand
 OpenBabel11021811463D
libRbt.so/2013.1/901 2013/11/27
 16 16  0  0  0  0  0  0  0  0999 V2000
   42.8943   12.3354   14.0385 P   0  0  2  0  0  0  0  0  0  0  0  0
   43.0606   12.5372   15.4988 O   0  0  0  0  0  0  0  0  0  0  0  0
   42.3356   13.6783   13.3487 O   0  5  0  0  0  0  0  0  0  0  0  0
   41.8274   11.1432   13.7847 O   0  0  0  0  0  0  0  0  0  0  0  0
   47.6187   10.0880   11.7250 C   0  0  2  0  0  0  0  0  0  0  0  0
   48.3579   11.3156   11.6460 O   0  0  0  0  0  0  0  0  0  0  0  0
   47.4955    9.4047   10.3338 C   0  0  2  0  0  0  0  0  0  0  0  0
   48.8437    9.1456    9.7822 N   0  0  0  0  0  0  0  0  0  0  0  0
   46.7085   10.3415    9.3931 C   0  0  1  0  0  0  0  0  0  0  0  0
   46.5570    9.7330    8.0985 O   0  0  0  0  0  0  0  0  0  0  0  0
   45.3255   10.5876   10.0137 C   0  0  2  0  0  0  0  0  0  0  0  0
   44.5721   11.4693    9.1694 O   0  0  0  0  0  0  0  0  0  0  0  0
   45.5241   11.2384   11.4082 C   0  0  2  0  0  0  0  0  0  0  0  0
   46.2960   10.3551   12.2718 O   0  0  0  0  0  0  0  0  0  0  0  0
   44.1526   11.4854   12.0603 C   0  0  0  0  0  0  0  0  0  0  0  0
   44.3343   11.9720   13.4025 O   0  0  0  0  0  0  0  0  0  0  0  0
  1  2  1  1  0  0  0
  1  3  1  0  0  0  0
  1  4  2  0  0  0  0
  1 16  1  0  0  0  0
  5  6  1  6  0  0  0
  5  7  1  0  0  0  0
  5 14  1  0  0  0  0
  7  8  1  6  0  0  0
  7  9  1  0  0  0  0
  9 10  1  6  0  0  0
  9 11  1  0  0  0  0
 11 12  1  6  0  0  0
 11 13  1  0  0  0  0
 13 14  1  0  0  0  0
 13 15  1  1  0  0  0
 15 16  1  0  0  0  0
M  CHG  1   3  -1
M  END
>  <CHROM.1>
174.64330021,175.69364903,167.33332270,45.13513446,11.18237283,11.84003021
-2.37859715,0.32446283,-1.76312000

>  <Name>
ligand

>  <RI>
0

>  <Rbt.Current_Directory>
/home/itssahil/PROJECTS/Mol_Feturizer/New_Systems/rnas/3B4B

>  <Rbt.Executable>
rbdock ($Id: //depot/dev/client3/rdock/2013.1/src/exe/rbdock.cxx#4 $)

>  <Rbt.Library>
libRbt.so (2013.1, Build901 2013/11/27)

>  <Rbt.Parameter_File>
/export/apps/rDock/src/rDock_2013.1_src/data/scripts/dock_solv.prm

>  <Rbt.Receptor>
prm/pocket_docking_7.prm

>  <SCORE>
-9.47869

>  <SCORE.INTER>
-8.18018

>  <SCORE.INTER.CONST>
1

>  <SCORE.INTER.POLAR>
-0.899965

>  <SCORE.INTER.ROT>
3

>  <SCORE.INTER.SOLV>
19.6521

>  <SCORE.INTER.VDW>
-14.6043

>  <SCORE.INTER.norm>
-0.511261

>  <SCORE.INTRA>
-1.29851

>  <SCORE.INTRA.DIHEDRAL>
-1.77362

>  <SCORE.INTRA.DIHEDRAL.0>
2.21864

>  <SCORE.INTRA.POLAR>
0

>  <SCORE.INTRA.POLAR.0>
0

>  <SCORE.INTRA.REPUL>
0

>  <SCORE.INTRA.REPUL.0>
0

>  <SCORE.INTRA.SOLV>
-0.507519

>  <SCORE.INTRA.SOLV.lig_0>
-58.5963

>  <SCORE.INTRA.VDW>
-0.157939

>  <SCORE.INTRA.VDW.0>
-0.437849

>  <SCORE.INTRA.norm>
-0.0811569

>  <SCORE.RESTR>
0

>  <SCORE.RESTR.CAVITY>
0

>  <SCORE.RESTR.norm>
0

>  <SCORE.SYSTEM>
0

>  <SCORE.SYSTEM.CONST>
0

>  <SCORE.SYSTEM.DIHEDRAL>
0

>  <SCORE.SYSTEM.SOLV>
0

>  <SCORE.SYSTEM.norm>
0

>  <SCORE.heavy>
16

>  <SCORE.norm>
-0.592418

>  <RMSD>
5.528

$$$$
ligand
 OpenBabel11021811463D
libRbt.so/2013.1/901 2013/11/27
 16 16  0  0  0  0  0  0  0  0999 V2000
   43.0014   12.7521   13.7242 P   0  0  2  0  0  0  0  0  0  0  0  0
   43.3551   12.3254   15.1004 O   0  0  0  0  0  0  0  0  0  0  0  0
   42.4421   14.2614   13.7334 O   0  5  0  0  0  0  0  0  0  0  0  0
   41.8442   11.7769   13.1461 O   0  0  0  0  0  0  0  0  0  0  0  0
   47.6789   10.4709   11.5257 C   0  0  2  0  0  0  0  0  0  0  0  0
   48.3228   11.6890   11.1243 O   0  0  0  0  0  0  0  0  0  0  0  0
   47.5328    9.4824   10.3344 C   0  0  2  0  0  0  0  0  0  0  0  0
   48.8657    9.1832    9.7660 N   0  0  0  0  0  0  0  0  0  0  0  0
   46.6327   10.1327    9.2627 C   0  0  1  0  0  0  0  0  0  0  0  0
   46.4581    9.2373    8.1504 O   0  0  0  0  0  0  0  0  0  0  0  0
   45.2698   10.4330    9.9035 C   0  0  2  0  0  0  0  0  0  0  0  0
   44.4120   11.0536    8.9355 O   0  0  0  0  0  0  0  0  0  0  0  0
   45.4935   11.3949   11.1002 C   0  0  2  0  0  0  0  0  0  0  0  0
   46.3707   10.7782   12.0861 O   0  0  0  0  0  0  0  0  0  0  0  0
   44.1435   11.7039   11.7707 C   0  0  0  0  0  0  0  0  0  0  0  0
   44.3302   12.6844   12.8076 O   0  0  0  0  0  0  0  0  0  0  0  0
  1  2  1  1  0  0  0
  1  3  1  0  0  0  0
  1  4  2  0  0  0  0
  1 16  1  0  0  0  0
  5  6  1  6  0  0  0
  5  7  1  0  0  0  0
  5 14  1  0  0  0  0
  7  8  1  6  0  0  0
  7  9  1  0  0  0  0
  9 10  1  6  0  0  0
  9 11  1  0  0  0  0
 11 12  1  6  0  0  0
 11 13  1  0  0  0  0
 13 14  1  0  0  0  0
 13 15  1  1  0  0  0
 15 16  1  0  0  0  0
M  CHG  1   3  -1
M  END
>  <CHROM.1>
-175.08269170,-167.00586321,116.41931326,45.15800603,11.36261351,11.61021105
-2.32083835,0.22412529,-1.98583790

>  <Name>
ligand

>  <RI>
0

>  <Rbt.Current_Directory>
/home/itssahil/PROJECTS/Mol_Feturizer/New_Systems/rnas/3B4B

>  <Rbt.Executable>
rbdock ($Id: //depot/dev/client3/rdock/2013.1/src/exe/rbdock.cxx#4 $)

>  <Rbt.Library>
libRbt.so (2013.1, Build901 2013/11/27)

>  <Rbt.Parameter_File>
/export/apps/rDock/src/rDock_2013.1_src/data/scripts/dock_solv.prm

>  <Rbt.Receptor>
prm/pocket_docking_6.prm

>  <SCORE>
-7.43351

>  <SCORE.INTER>
-8.26237

>  <SCORE.INTER.CONST>
1

>  <SCORE.INTER.POLAR>
-0.9

>  <SCORE.INTER.ROT>
3

>  <SCORE.INTER.SOLV>
19.529

>  <SCORE.INTER.VDW>
-14.6179

>  <SCORE.INTER.norm>
-0.516398

>  <SCORE.INTRA>
0.828498

>  <SCORE.INTRA.DIHEDRAL>
1.05109

>  <SCORE.INTRA.DIHEDRAL.0>
2.21864

>  <SCORE.INTRA.POLAR>
0

>  <SCORE.INTRA.POLAR.0>
0

>  <SCORE.INTRA.REPUL>
0

>  <SCORE.INTRA.REPUL.0>
0

>  <SCORE.INTRA.SOLV>
-0.636654

>  <SCORE.INTRA.SOLV.lig_0>
-58.5963

>  <SCORE.INTRA.VDW>
0.621279

>  <SCORE.INTRA.VDW.0>
-0.437849

>  <SCORE.INTRA.norm>
0.0517811

>  <SCORE.RESTR>
0.000359165

>  <SCORE.RESTR.CAVITY>
0.000359165

>  <SCORE.RESTR.norm>
2.24478e-05

>  <SCORE.SYSTEM>
0

>  <SCORE.SYSTEM.CONST>
0

>  <SCORE.SYSTEM.DIHEDRAL>
0

>  <SCORE.SYSTEM.SOLV>
0

>  <SCORE.SYSTEM.norm>
0

>  <SCORE.heavy>
16

>  <SCORE.norm>
-0.464594

>  <RMSD>
5.532

$$$$
ligand
 OpenBabel11021811463D
libRbt.so/2013.1/901 2013/11/27
 16 16  0  0  0  0  0  0  0  0999 V2000
   42.8709   12.3993   13.9465 P   0  0  2  0  0  0  0  0  0  0  0  0
   43.0283   12.5456   15.4145 O   0  0  0  0  0  0  0  0  0  0  0  0
   42.3092   13.7650   13.3058 O   0  5  0  0  0  0  0  0  0  0  0  0
   41.8114   11.2125   13.6411 O   0  0  0  0  0  0  0  0  0  0  0  0
   47.6155   10.2145   11.6880 C   0  0  2  0  0  0  0  0  0  0  0  0
   48.3497   11.4407   11.5572 O   0  0  0  0  0  0  0  0  0  0  0  0
   47.4994    9.4703   10.3278 C   0  0  2  0  0  0  0  0  0  0  0  0
   48.8505    9.1931    9.7920 N   0  0  0  0  0  0  0  0  0  0  0  0
   46.7113   10.3615    9.3446 C   0  0  1  0  0  0  0  0  0  0  0  0
   46.5664    9.6961    8.0775 O   0  0  0  0  0  0  0  0  0  0  0  0
   45.3254   10.6286    9.9498 C   0  0  2  0  0  0  0  0  0  0  0  0
   44.5708   11.4691    9.0655 O   0  0  0  0  0  0  0  0  0  0  0  0
   45.5171   11.3408   11.3149 C   0  0  2  0  0  0  0  0  0  0  0  0
   46.2900   10.4996   12.2188 O   0  0  0  0  0  0  0  0  0  0  0  0
   44.1425   11.6102   11.9516 C   0  0  0  0  0  0  0  0  0  0  0  0
   44.3162   12.0676   13.3052 O   0  0  0  0  0  0  0  0  0  0  0  0
  1  2  1  1  0  0  0
  1  3  1  0  0  0  0
  1  4  2  0  0  0  0
  1 16  1  0  0  0  0
  5  6  1  6  0  0  0
  5  7  1  0  0  0  0
  5 14  1  0  0  0  0
  7  8  1  6  0  0  0
  7  9  1  0  0  0  0
  9 10  1  6  0  0  0
  9 11  1  0  0  0  0
 11 12  1  6  0  0  0
 11 13  1  0  0  0  0
 13 14  1  0  0  0  0
 13 15  1  1  0  0  0
 15 16  1  0  0  0  0
M  CHG  1   3  -1
M  END
>  <CHROM.1>
170.64417917,177.93447813,166.35528329,45.12561991,11.24942168,11.77009441
-2.37967169,0.30709403,-1.78688633

>  <Name>
ligand

>  <RI>
0

>  <Rbt.Current_Directory>
/home/itssahil/PROJECTS/Mol_Feturizer/New_Systems/rnas/3B4B

>  <Rbt.Executable>
rbdock ($Id: //depot/dev/client3/rdock/2013.1/src/exe/rbdock.cxx#4 $)

>  <Rbt.Library>
libRbt.so (2013.1, Build901 2013/11/27)

>  <Rbt.Parameter_File>
/export/apps/rDock/src/rDock_2013.1_src/data/scripts/dock_solv.prm

>  <Rbt.Receptor>
prm/pocket_docking_4.prm

>  <SCORE>
-9.44986

>  <SCORE.INTER>
-8.27965

>  <SCORE.INTER.CONST>
1

>  <SCORE.INTER.POLAR>
-0.89994

>  <SCORE.INTER.ROT>
3

>  <SCORE.INTER.SOLV>
18.9977

>  <SCORE.INTER.VDW>
-14.4525

>  <SCORE.INTER.norm>
-0.517478

>  <SCORE.INTRA>
-1.17021

>  <SCORE.INTRA.DIHEDRAL>
-1.59814

>  <SCORE.INTRA.DIHEDRAL.0>
2.21864

>  <SCORE.INTRA.POLAR>
0

>  <SCORE.INTRA.POLAR.0>
0

>  <SCORE.INTRA.REPUL>
0

>  <SCORE.INTRA.REPUL.0>
0

>  <SCORE.INTRA.SOLV>
-0.492006

>  <SCORE.INTRA.SOLV.lig_0>
-58.5963

>  <SCORE.INTRA.VDW>
-0.125138

>  <SCORE.INTRA.VDW.0>
-0.437849

>  <SCORE.INTRA.norm>
-0.0731381

>  <SCORE.RESTR>
0

>  <SCORE.RESTR.CAVITY>
0

>  <SCORE.RESTR.norm>
0

>  <SCORE.SYSTEM>
0

>  <SCORE.SYSTEM.CONST>
0

>  <SCORE.SYSTEM.DIHEDRAL>
0

>  <SCORE.SYSTEM.SOLV>
0

>  <SCORE.SYSTEM.norm>
0

>  <SCORE.heavy>
16

>  <SCORE.norm>
-0.590616

>  <RMSD>
5.541

$$$$
ligand
 OpenBabel11021811463D
libRbt.so/2013.1/901 2013/11/27
 16 16  0  0  0  0  0  0  0  0999 V2000
   42.7748   12.7106   14.0732 P   0  0  2  0  0  0  0  0  0  0  0  0
   42.5924   12.6547   15.5445 O   0  0  0  0  0  0  0  0  0  0  0  0
   42.4247   14.1819   13.5221 O   0  5  0  0  0  0  0  0  0  0  0  0
   41.7744   11.6462   13.3728 O   0  0  0  0  0  0  0  0  0  0  0  0
   47.5171   10.3128   11.8737 C   0  0  2  0  0  0  0  0  0  0  0  0
   48.4244   10.9382   12.7930 O   0  0  0  0  0  0  0  0  0  0  0  0
   47.8790   10.6450   10.3985 C   0  0  2  0  0  0  0  0  0  0  0  0
   49.2641   10.2101   10.1129 N   0  0  0  0  0  0  0  0  0  0  0  0
   47.7478   12.1686   10.1905 C   0  0  1  0  0  0  0  0  0  0  0  0
   48.0568   12.5126    8.8284 O   0  0  0  0  0  0  0  0  0  0  0  0
   46.3002   12.5700   10.5095 C   0  0  2  0  0  0  0  0  0  0  0  0
   46.1479   13.9863   10.3403 O   0  0  0  0  0  0  0  0  0  0  0  0
   45.9980   12.1814   11.9809 C   0  0  2  0  0  0  0  0  0  0  0  0
   46.1581   10.7455   12.1667 O   0  0  0  0  0  0  0  0  0  0  0  0
   44.5473   12.5612   12.3253 C   0  0  0  0  0  0  0  0  0  0  0  0
   44.3169   12.3698   13.7331 O   0  0  0  0  0  0  0  0  0  0  0  0
  1  2  1  1  0  0  0
  1  3  1  0  0  0  0
  1  4  2  0  0  0  0
  1 16  1  0  0  0  0
  5  6  1  1  0  0  0
  5  7  1  0  0  0  0
  5 14  1  0  0  0  0
  7  8  1  1  0  0  0
  7  9  1  0  0  0  0
  9 10  1  6  0  0  0
  9 11  1  0  0  0  0
 11 12  1  1  0  0  0
 11 13  1  0  0  0  0
 13 14  1  0  0  0  0
 13 15  1  6  0  0  0
 15 16  1  0  0  0  0
M  CHG  1   3  -1
M  END
>  <CHROM.1>
-172.33155687,-177.60234699,-173.79874054,45.47095537,12.10212137,12.18029845
-2.85502775,0.56774736,-0.85558794

>  <Name>
ligand

>  <RI>
0

>  <Rbt.Current_Directory>
/home/itssahil/PROJECTS/Mol_Feturizer/New_Systems/rnas/3B4B

>  <Rbt.Executable>
rbdock ($Id: //depot/dev/client3/rdock/2013.1/src/exe/rbdock.cxx#4 $)

>  <Rbt.Library>
libRbt.so (2013.1, Build901 2013/11/27)

>  <Rbt.Parameter_File>
/export/apps/rDock/src/rDock_2013.1_src/data/scripts/dock_solv.prm

>  <Rbt.Receptor>
prm/pocket_docking_7.prm

>  <SCORE>
-8.90605

>  <SCORE.INTER>
-7.48343

>  <SCORE.INTER.CONST>
1

>  <SCORE.INTER.POLAR>
-0.899455

>  <SCORE.INTER.ROT>
3

>  <SCORE.INTER.SOLV>
17.5112

>  <SCORE.INTER.VDW>
-13.4278

>  <SCORE.INTER.norm>
-0.467714

>  <SCORE.INTRA>
-1.42262

>  <SCORE.INTRA.DIHEDRAL>
-1.91431

>  <SCORE.INTRA.DIHEDRAL.0>
2.21864

>  <SCORE.INTRA.POLAR>
0

>  <SCORE.INTRA.POLAR.0>
0

>  <SCORE.INTRA.REPUL>
0

>  <SCORE.INTRA.REPUL.0>
0

>  <SCORE.INTRA.SOLV>
-0.517591

>  <SCORE.INTRA.SOLV.lig_0>
-58.5963

>  <SCORE.INTRA.VDW>
-0.206673

>  <SCORE.INTRA.VDW.0>
-0.437849

>  <SCORE.INTRA.norm>
-0.0889138

>  <SCORE.RESTR>
0

>  <SCORE.RESTR.CAVITY>
0

>  <SCORE.RESTR.norm>
0

>  <SCORE.SYSTEM>
0

>  <SCORE.SYSTEM.CONST>
0

>  <SCORE.SYSTEM.DIHEDRAL>
0

>  <SCORE.SYSTEM.SOLV>
0

>  <SCORE.SYSTEM.norm>
0

>  <SCORE.heavy>
16

>  <SCORE.norm>
-0.556628

>  <RMSD>
5.541

$$$$
ligand
 OpenBabel11021811463D
libRbt.so/2013.1/901 2013/11/27
 16 16  0  0  0  0  0  0  0  0999 V2000
   42.7730   12.5562   14.1265 P   0  0  2  0  0  0  0  0  0  0  0  0
   42.9246   12.6139   15.6012 O   0  0  0  0  0  0  0  0  0  0  0  0
   42.2610   13.9738   13.5614 O   0  5  0  0  0  0  0  0  0  0  0  0
   41.6774   11.4244   13.7487 O   0  0  0  0  0  0  0  0  0  0  0  0
   47.5818   10.5143   11.8479 C   0  0  2  0  0  0  0  0  0  0  0  0
   48.2030   11.7796   11.5780 O   0  0  0  0  0  0  0  0  0  0  0  0
   47.4707    9.6467   10.5624 C   0  0  2  0  0  0  0  0  0  0  0  0
   48.8159    9.4337    9.9844 N   0  0  0  0  0  0  0  0  0  0  0  0
   46.5681   10.3816    9.5489 C   0  0  1  0  0  0  0  0  0  0  0  0
   46.4254    9.5981    8.3510 O   0  0  0  0  0  0  0  0  0  0  0  0
   45.1920   10.5879   10.1987 C   0  0  2  0  0  0  0  0  0  0  0  0
   44.3313   11.2838    9.2861 O   0  0  0  0  0  0  0  0  0  0  0  0
   45.3813   11.4302   11.4879 C   0  0  2  0  0  0  0  0  0  0  0  0
   46.2612   10.7367   12.4190 O   0  0  0  0  0  0  0  0  0  0  0  0
   44.0176   11.6424   12.1681 C   0  0  0  0  0  0  0  0  0  0  0  0
   44.2112   12.2136   13.4750 O   0  0  0  0  0  0  0  0  0  0  0  0
  1  2  1  1  0  0  0
  1  3  1  0  0  0  0
  1  4  2  0  0  0  0
  1 16  1  0  0  0  0
  5  6  1  6  0  0  0
  5  7  1  0  0  0  0
  5 14  1  0  0  0  0
  7  8  1  6  0  0  0
  7  9  1  0  0  0  0
  9 10  1  6  0  0  0
  9 11  1  0  0  0  0
 11 12  1  6  0  0  0
 11 13  1  0  0  0  0
 13 14  1  0  0  0  0
 13 15  1  1  0  0  0
 15 16  1  0  0  0  0
M  CHG  1   3  -1
M  END
>  <CHROM.1>
169.91677650,174.92161174,157.48278728,45.02009511,11.37086613,11.95870630
-2.35491827,0.21928359,-1.89002243

>  <Name>
ligand

>  <RI>
0

>  <Rbt.Current_Directory>
/home/itssahil/PROJECTS/Mol_Feturizer/New_Systems/rnas/3B4B

>  <Rbt.Executable>
rbdock ($Id: //depot/dev/client3/rdock/2013.1/src/exe/rbdock.cxx#4 $)

>  <Rbt.Library>
libRbt.so (2013.1, Build901 2013/11/27)

>  <Rbt.Parameter_File>
/export/apps/rDock/src/rDock_2013.1_src/data/scripts/dock_solv.prm

>  <Rbt.Receptor>
prm/pocket_docking_5.prm

>  <SCORE>
-8.9074

>  <SCORE.INTER>
-8.18414

>  <SCORE.INTER.CONST>
1

>  <SCORE.INTER.POLAR>
-0.899909

>  <SCORE.INTER.ROT>
3

>  <SCORE.INTER.SOLV>
19.768

>  <SCORE.INTER.VDW>
-14.6457

>  <SCORE.INTER.norm>
-0.511509

>  <SCORE.INTRA>
-0.725166

>  <SCORE.INTRA.DIHEDRAL>
-0.99693

>  <SCORE.INTRA.DIHEDRAL.0>
2.21864

>  <SCORE.INTRA.POLAR>
0

>  <SCORE.INTRA.POLAR.0>
0

>  <SCORE.INTRA.REPUL>
0

>  <SCORE.INTRA.REPUL.0>
0

>  <SCORE.INTRA.SOLV>
-0.513591

>  <SCORE.INTRA.SOLV.lig_0>
-58.5963

>  <SCORE.INTRA.VDW>
0.0300945

>  <SCORE.INTRA.VDW.0>
-0.437849

>  <SCORE.INTRA.norm>
-0.0453229

>  <SCORE.RESTR>
0.0019076

>  <SCORE.RESTR.CAVITY>
0.0019076

>  <SCORE.RESTR.norm>
0.000119225

>  <SCORE.SYSTEM>
0

>  <SCORE.SYSTEM.CONST>
0

>  <SCORE.SYSTEM.DIHEDRAL>
0

>  <SCORE.SYSTEM.SOLV>
0

>  <SCORE.SYSTEM.norm>
0

>  <SCORE.heavy>
16

>  <SCORE.norm>
-0.556712

>  <RMSD>
5.543

$$$$
ligand
 OpenBabel11021811463D
libRbt.so/2013.1/901 2013/11/27
 16 16  0  0  0  0  0  0  0  0999 V2000
   42.9255   12.2368   14.0129 P   0  0  2  0  0  0  0  0  0  0  0  0
   43.1286   12.4948   15.4597 O   0  0  0  0  0  0  0  0  0  0  0  0
   42.2829   13.5288   13.2996 O   0  5  0  0  0  0  0  0  0  0  0  0
   41.9082   10.9890   13.8331 O   0  0  0  0  0  0  0  0  0  0  0  0
   47.6861   10.1271   11.6444 C   0  0  2  0  0  0  0  0  0  0  0  0
   48.3478   11.3878   11.4646 O   0  0  0  0  0  0  0  0  0  0  0  0
   47.5522    9.3554   10.3012 C   0  0  2  0  0  0  0  0  0  0  0  0
   48.8921    9.1408    9.7116 N   0  0  0  0  0  0  0  0  0  0  0  0
   46.6769   10.1876    9.3405 C   0  0  1  0  0  0  0  0  0  0  0  0
   46.5139    9.4947    8.0905 O   0  0  0  0  0  0  0  0  0  0  0  0
   45.3056   10.3914   10.0011 C   0  0  2  0  0  0  0  0  0  0  0  0
   44.4706   11.1764    9.1383 O   0  0  0  0  0  0  0  0  0  0  0  0
   45.5168   11.1352   11.3464 C   0  0  2  0  0  0  0  0  0  0  0  0
   46.3710   10.3508   12.2279 O   0  0  0  0  0  0  0  0  0  0  0  0
   44.1580   11.3425   12.0380 C   0  0  0  0  0  0  0  0  0  0  0  0
   44.3601   11.9187   13.3413 O   0  0  0  0  0  0  0  0  0  0  0  0
  1  2  1  1  0  0  0
  1  3  1  0  0  0  0
  1  4  2  0  0  0  0
  1 16  1  0  0  0  0
  5  6  1  6  0  0  0
  5  7  1  0  0  0  0
  5 14  1  0  0  0  0
  7  8  1  6  0  0  0
  7  9  1  0  0  0  0
  9 10  1  6  0  0  0
  9 11  1  0  0  0  0
 11 12  1  6  0  0  0
 11 13  1  0  0  0  0
 13 14  1  0  0  0  0
 13 15  1  1  0  0  0
 15 16  1  0  0  0  0
M  CHG  1   3  -1
M  END
>  <CHROM.1>
174.64840406,175.70524556,165.63327962,45.14801760,11.08334333,11.79613146
-2.35267420,0.25887293,-1.83012200

>  <Name>
ligand

>  <RI>
0

>  <Rbt.Current_Directory>
/home/itssahil/PROJECTS/Mol_Feturizer/New_Systems/rnas/3B4B

>  <Rbt.Executable>
rbdock ($Id: //depot/dev/client3/rdock/2013.1/src/exe/rbdock.cxx#4 $)

>  <Rbt.Library>
libRbt.so (2013.1, Build901 2013/11/27)

>  <Rbt.Parameter_File>
/export/apps/rDock/src/rDock_2013.1_src/data/scripts/dock_solv.prm

>  <Rbt.Receptor>
prm/pocket_docking_7.prm

>  <SCORE>
-9.4913

>  <SCORE.INTER>
-8.24649

>  <SCORE.INTER.CONST>
1

>  <SCORE.INTER.POLAR>
-0.9

>  <SCORE.INTER.ROT>
3

>  <SCORE.INTER.SOLV>
19.9641

>  <SCORE.INTER.VDW>
-14.7524

>  <SCORE.INTER.norm>
-0.515405

>  <SCORE.INTRA>
-1.24482

>  <SCORE.INTRA.DIHEDRAL>
-1.70526

>  <SCORE.INTRA.DIHEDRAL.0>
2.21864

>  <SCORE.INTRA.POLAR>
0

>  <SCORE.INTRA.POLAR.0>
0

>  <SCORE.INTRA.REPUL>
0

>  <SCORE.INTRA.REPUL.0>
0

>  <SCORE.INTRA.SOLV>
-0.510411

>  <SCORE.INTRA.SOLV.lig_0>
-58.5963

>  <SCORE.INTRA.VDW>
-0.136983

>  <SCORE.INTRA.VDW.0>
-0.437849

>  <SCORE.INTRA.norm>
-0.0778012

>  <SCORE.RESTR>
0

>  <SCORE.RESTR.CAVITY>
0

>  <SCORE.RESTR.norm>
0

>  <SCORE.SYSTEM>
0

>  <SCORE.SYSTEM.CONST>
0

>  <SCORE.SYSTEM.DIHEDRAL>
0

>  <SCORE.SYSTEM.SOLV>
0

>  <SCORE.SYSTEM.norm>
0

>  <SCORE.heavy>
16

>  <SCORE.norm>
-0.593207

>  <RMSD>
5.552

$$$$
ligand
 OpenBabel11021811463D
libRbt.so/2013.1/901 2013/11/27
 16 16  0  0  0  0  0  0  0  0999 V2000
   42.9312   12.2552   14.0745 P   0  0  2  0  0  0  0  0  0  0  0  0
   43.6413   12.1330   15.3714 O   0  0  0  0  0  0  0  0  0  0  0  0
   42.3974   13.7598   13.8692 O   0  5  0  0  0  0  0  0  0  0  0  0
   41.6596   11.2515   14.0681 O   0  0  0  0  0  0  0  0  0  0  0  0
   46.1328   10.2094    9.6965 C   0  0  2  0  0  0  0  0  0  0  0  0
   46.4495    8.8100    9.7290 O   0  0  0  0  0  0  0  0  0  0  0  0
   47.3778   11.0845   10.0158 C   0  0  2  0  0  0  0  0  0  0  0  0
   48.4578   10.7904    9.0482 N   0  0  0  0  0  0  0  0  0  0  0  0
   47.8491   10.7652   11.4503 C   0  0  1  0  0  0  0  0  0  0  0  0
   48.9907   11.5721   11.7894 O   0  0  0  0  0  0  0  0  0  0  0  0
   46.6927   11.0755   12.4119 C   0  0  2  0  0  0  0  0  0  0  0  0
   47.0938   10.7743   13.7558 O   0  0  0  0  0  0  0  0  0  0  0  0
   45.4782   10.1944   12.0165 C   0  0  2  0  0  0  0  0  0  0  0  0
   45.0674   10.4857   10.6496 O   0  0  0  0  0  0  0  0  0  0  0  0
   44.2980   10.4938   12.9571 C   0  0  0  0  0  0  0  0  0  0  0  0
   43.9643   11.8921   12.8867 O   0  0  0  0  0  0  0  0  0  0  0  0
  1  2  1  1  0  0  0
  1  3  1  0  0  0  0
  1  4  2  0  0  0  0
  1 16  1  0  0  0  0
  5  6  1  1  0  0  0
  5  7  1  0  0  0  0
  5 14  1  0  0  0  0
  7  8  1  6  0  0  0
  7  9  1  0  0  0  0
  9 10  1  1  0  0  0
  9 11  1  0  0  0  0
 11 12  1  1  0  0  0
 11 13  1  0  0  0  0
 13 14  1  0  0  0  0
 13 15  1  1  0  0  0
 15 16  1  0  0  0  0
M  CHG  1   3  -1
M  END
>  <CHROM.1>
57.99267978,-169.02607607,67.74285875,45.29268908,11.19811100,12.30479023
-2.42293728,-0.04926665,-2.05878700

>  <Name>
ligand

>  <RI>
0

>  <Rbt.Current_Directory>
/home/itssahil/PROJECTS/Mol_Feturizer/New_Systems/rnas/3B4B

>  <Rbt.Executable>
rbdock ($Id: //depot/dev/client3/rdock/2013.1/src/exe/rbdock.cxx#4 $)

>  <Rbt.Library>
libRbt.so (2013.1, Build901 2013/11/27)

>  <Rbt.Parameter_File>
/export/apps/rDock/src/rDock_2013.1_src/data/scripts/dock_solv.prm

>  <Rbt.Receptor>
prm/pocket_docking_5.prm

>  <SCORE>
-6.72749

>  <SCORE.INTER>
-5.30112

>  <SCORE.INTER.CONST>
1

>  <SCORE.INTER.POLAR>
0

>  <SCORE.INTER.ROT>
3

>  <SCORE.INTER.SOLV>
19.3011

>  <SCORE.INTER.VDW>
-15.5678

>  <SCORE.INTER.norm>
-0.33132

>  <SCORE.INTRA>
-1.42637

>  <SCORE.INTRA.DIHEDRAL>
-1.52628

>  <SCORE.INTRA.DIHEDRAL.0>
2.21864

>  <SCORE.INTRA.POLAR>
0

>  <SCORE.INTRA.POLAR.0>
0

>  <SCORE.INTRA.REPUL>
0

>  <SCORE.INTRA.REPUL.0>
0

>  <SCORE.INTRA.SOLV>
-0.823345

>  <SCORE.INTRA.SOLV.lig_0>
-58.5963

>  <SCORE.INTRA.VDW>
-0.251559

>  <SCORE.INTRA.VDW.0>
-0.437849

>  <SCORE.INTRA.norm>
-0.0891481

>  <SCORE.RESTR>
0

>  <SCORE.RESTR.CAVITY>
0

>  <SCORE.RESTR.norm>
0

>  <SCORE.SYSTEM>
0

>  <SCORE.SYSTEM.CONST>
0

>  <SCORE.SYSTEM.DIHEDRAL>
0

>  <SCORE.SYSTEM.SOLV>
0

>  <SCORE.SYSTEM.norm>
0

>  <SCORE.heavy>
16

>  <SCORE.norm>
-0.420468

>  <RMSD>
5.580

$$$$
ligand
 OpenBabel11021811463D
libRbt.so/2013.1/901 2013/11/27
 16 16  0  0  0  0  0  0  0  0999 V2000
   44.0503   10.6688   14.0322 P   0  0  2  0  0  0  0  0  0  0  0  0
   44.8499    9.4894   14.4453 O   0  0  0  0  0  0  0  0  0  0  0  0
   44.0159   11.7621   15.2130 O   0  5  0  0  0  0  0  0  0  0  0  0
   42.5318   10.1987   13.7203 O   0  0  0  0  0  0  0  0  0  0  0  0
   45.0134   12.6460    8.7286 C   0  0  2  0  0  0  0  0  0  0  0  0
   46.4303   12.8074    8.8899 O   0  0  0  0  0  0  0  0  0  0  0  0
   44.3297   13.9802    8.3161 C   0  0  2  0  0  0  0  0  0  0  0  0
   44.9257   14.4798    7.0574 N   0  0  0  0  0  0  0  0  0  0  0  0
   44.5373   15.0099    9.4468 C   0  0  1  0  0  0  0  0  0  0  0  0
   43.9000   16.2545    9.1088 O   0  0  0  0  0  0  0  0  0  0  0  0
   43.9132   14.4412   10.7296 C   0  0  2  0  0  0  0  0  0  0  0  0
   44.1029   15.3698   11.8065 O   0  0  0  0  0  0  0  0  0  0  0  0
   44.6178   13.0996   11.0629 C   0  0  2  0  0  0  0  0  0  0  0  0
   44.4392   12.1512    9.9717 O   0  0  0  0  0  0  0  0  0  0  0  0
   44.0030   12.4993   12.3392 C   0  0  0  0  0  0  0  0  0  0  0  0
   44.7368   11.3224   12.7239 O   0  0  0  0  0  0  0  0  0  0  0  0
  1  2  1  1  0  0  0
  1  3  1  0  0  0  0
  1  4  2  0  0  0  0
  1 16  1  0  0  0  0
  5  6  1  1  0  0  0
  5  7  1  0  0  0  0
  5 14  1  0  0  0  0
  7  8  1  6  0  0  0
  7  9  1  0  0  0  0
  9 10  1  6  0  0  0
  9 11  1  0  0  0  0
 11 12  1  1  0  0  0
 11 13  1  0  0  0  0
 13 14  1  0  0  0  0
 13 15  1  1  0  0  0
 15 16  1  0  0  0  0
M  CHG  1   3  -1
M  END
>  <CHROM.1>
-174.53760702,-177.89933158,-177.80365729,44.37313371,12.68887651,11.38126496
-1.83226593,1.17182296,-0.70516590

>  <Name>
ligand

>  <RI>
0

>  <Rbt.Current_Directory>
/home/itssahil/PROJECTS/Mol_Feturizer/New_Systems/rnas/3B4B

>  <Rbt.Executable>
rbdock ($Id: //depot/dev/client3/rdock/2013.1/src/exe/rbdock.cxx#4 $)

>  <Rbt.Library>
libRbt.so (2013.1, Build901 2013/11/27)

>  <Rbt.Parameter_File>
/export/apps/rDock/src/rDock_2013.1_src/data/scripts/dock_solv.prm

>  <Rbt.Receptor>
prm/pocket_docking_5.prm

>  <SCORE>
-7.47456

>  <SCORE.INTER>
-5.94134

>  <SCORE.INTER.CONST>
1

>  <SCORE.INTER.POLAR>
0

>  <SCORE.INTER.ROT>
3

>  <SCORE.INTER.SOLV>
18.1208

>  <SCORE.INTER.VDW>
-15.6011

>  <SCORE.INTER.norm>
-0.371334

>  <SCORE.INTRA>
-1.53323

>  <SCORE.INTRA.DIHEDRAL>
-2.07979

>  <SCORE.INTRA.DIHEDRAL.0>
2.21864

>  <SCORE.INTRA.POLAR>
0

>  <SCORE.INTRA.POLAR.0>
0

>  <SCORE.INTRA.REPUL>
0

>  <SCORE.INTRA.REPUL.0>
0

>  <SCORE.INTRA.SOLV>
-0.511078

>  <SCORE.INTRA.SOLV.lig_0>
-58.5963

>  <SCORE.INTRA.VDW>
-0.237794

>  <SCORE.INTRA.VDW.0>
-0.437849

>  <SCORE.INTRA.norm>
-0.0958266

>  <SCORE.RESTR>
0

>  <SCORE.RESTR.CAVITY>
0

>  <SCORE.RESTR.norm>
0

>  <SCORE.SYSTEM>
0

>  <SCORE.SYSTEM.CONST>
0

>  <SCORE.SYSTEM.DIHEDRAL>
0

>  <SCORE.SYSTEM.SOLV>
0

>  <SCORE.SYSTEM.norm>
0

>  <SCORE.heavy>
16

>  <SCORE.norm>
-0.46716

>  <RMSD>
5.611

$$$$
ligand
 OpenBabel11021811463D
libRbt.so/2013.1/901 2013/11/27
 16 16  0  0  0  0  0  0  0  0999 V2000
   44.0125   10.6715   14.0503 P   0  0  2  0  0  0  0  0  0  0  0  0
   44.8134    9.4925   14.4621 O   0  0  0  0  0  0  0  0  0  0  0  0
   43.9753   11.7626   15.2331 O   0  5  0  0  0  0  0  0  0  0  0  0
   42.4950   10.1997   13.7360 O   0  0  0  0  0  0  0  0  0  0  0  0
   45.0141   12.6775    8.7632 C   0  0  2  0  0  0  0  0  0  0  0  0
   46.4276   12.8507    8.9408 O   0  0  0  0  0  0  0  0  0  0  0  0
   44.3231   14.0073    8.3489 C   0  0  2  0  0  0  0  0  0  0  0  0
   44.9284   14.5176    7.0990 N   0  0  0  0  0  0  0  0  0  0  0  0
   44.5091   15.0339    9.4861 C   0  0  1  0  0  0  0  0  0  0  0  0
   43.8645   16.2742    9.1464 O   0  0  0  0  0  0  0  0  0  0  0  0
   43.8760   14.4542   10.7595 C   0  0  2  0  0  0  0  0  0  0  0  0
   44.0455   15.3797   11.8424 O   0  0  0  0  0  0  0  0  0  0  0  0
   44.5888   13.1174   11.0949 C   0  0  2  0  0  0  0  0  0  0  0  0
   44.4306   12.1722    9.9978 O   0  0  0  0  0  0  0  0  0  0  0  0
   43.9654   12.5062   12.3618 C   0  0  0  0  0  0  0  0  0  0  0  0
   44.6993   11.3285   12.7439 O   0  0  0  0  0  0  0  0  0  0  0  0
  1  2  1  1  0  0  0
  1  3  1  0  0  0  0
  1  4  2  0  0  0  0
  1 16  1  0  0  0  0
  5  6  1  1  0  0  0
  5  7  1  0  0  0  0
  5 14  1  0  0  0  0
  7  8  1  6  0  0  0
  7  9  1  0  0  0  0
  9 10  1  6  0  0  0
  9 11  1  0  0  0  0
 11 12  1  1  0  0  0
 11 13  1  0  0  0  0
 13 14  1  0  0  0  0
 13 15  1  1  0  0  0
 15 16  1  0  0  0  0
M  CHG  1   3  -1
M  END
>  <CHROM.1>
-174.96330848,-178.43862084,-177.71560245,44.34513852,12.70418660,11.40989578
-1.83225536,1.15766080,-0.70159636

>  <Name>
ligand

>  <RI>
0

>  <Rbt.Current_Directory>
/home/itssahil/PROJECTS/Mol_Feturizer/New_Systems/rnas/3B4B

>  <Rbt.Executable>
rbdock ($Id: //depot/dev/client3/rdock/2013.1/src/exe/rbdock.cxx#4 $)

>  <Rbt.Library>
libRbt.so (2013.1, Build901 2013/11/27)

>  <Rbt.Parameter_File>
/export/apps/rDock/src/rDock_2013.1_src/data/scripts/dock_solv.prm

>  <Rbt.Receptor>
prm/pocket_docking_5.prm

>  <SCORE>
-7.48815

>  <SCORE.INTER>
-5.94335

>  <SCORE.INTER.CONST>
1

>  <SCORE.INTER.POLAR>
0

>  <SCORE.INTER.ROT>
3

>  <SCORE.INTER.SOLV>
17.8805

>  <SCORE.INTER.VDW>
-15.5224

>  <SCORE.INTER.norm>
-0.37146

>  <SCORE.INTRA>
-1.54479

>  <SCORE.INTRA.DIHEDRAL>
-2.10487

>  <SCORE.INTRA.DIHEDRAL.0>
2.21864

>  <SCORE.INTRA.POLAR>
0

>  <SCORE.INTRA.POLAR.0>
0

>  <SCORE.INTRA.REPUL>
0

>  <SCORE.INTRA.REPUL.0>
0

>  <SCORE.INTRA.SOLV>
-0.512559

>  <SCORE.INTRA.SOLV.lig_0>
-58.5963

>  <SCORE.INTRA.VDW>
-0.236079

>  <SCORE.INTRA.VDW.0>
-0.437849

>  <SCORE.INTRA.norm>
-0.0965497

>  <SCORE.RESTR>
0

>  <SCORE.RESTR.CAVITY>
0

>  <SCORE.RESTR.norm>
0

>  <SCORE.SYSTEM>
0

>  <SCORE.SYSTEM.CONST>
0

>  <SCORE.SYSTEM.DIHEDRAL>
0

>  <SCORE.SYSTEM.SOLV>
0

>  <SCORE.SYSTEM.norm>
0

>  <SCORE.heavy>
16

>  <SCORE.norm>
-0.468009

>  <RMSD>
5.623

$$$$
ligand
 OpenBabel11021811463D
libRbt.so/2013.1/901 2013/11/27
 16 16  0  0  0  0  0  0  0  0999 V2000
   44.1830   10.7725   14.1720 P   0  0  2  0  0  0  0  0  0  0  0  0
   44.2068   11.7010   15.3289 O   0  0  0  0  0  0  0  0  0  0  0  0
   42.6669   10.3737   13.8066 O   0  5  0  0  0  0  0  0  0  0  0  0
   44.9927    9.4231   14.5566 O   0  0  0  0  0  0  0  0  0  0  0  0
   45.0955   12.9073    8.9354 C   0  0  2  0  0  0  0  0  0  0  0  0
   46.4935   13.1747    9.1193 O   0  0  0  0  0  0  0  0  0  0  0  0
   44.3174   14.1897    8.5261 C   0  0  2  0  0  0  0  0  0  0  0  0
   44.8910   14.7474    7.2815 N   0  0  0  0  0  0  0  0  0  0  0  0
   44.4297   15.2197    9.6700 C   0  0  1  0  0  0  0  0  0  0  0  0
   43.7038   16.4156    9.3350 O   0  0  0  0  0  0  0  0  0  0  0  0
   43.8331   14.5908   10.9376 C   0  0  2  0  0  0  0  0  0  0  0  0
   43.9359   15.5191   12.0265 O   0  0  0  0  0  0  0  0  0  0  0  0
   44.6336   13.3033   11.2679 C   0  0  2  0  0  0  0  0  0  0  0  0
   44.5435   12.3562   10.1648 O   0  0  0  0  0  0  0  0  0  0  0  0
   44.0487   12.6437   12.5290 C   0  0  0  0  0  0  0  0  0  0  0  0
   44.8568   11.5134   12.9043 O   0  0  0  0  0  0  0  0  0  0  0  0
  1  2  1  1  0  0  0
  1  3  1  0  0  0  0
  1  4  2  0  0  0  0
  1 16  1  0  0  0  0
  5  6  1  1  0  0  0
  5  7  1  0  0  0  0
  5 14  1  0  0  0  0
  7  8  1  6  0  0  0
  7  9  1  0  0  0  0
  9 10  1  6  0  0  0
  9 11  1  0  0  0  0
 11 12  1  1  0  0  0
 11 13  1  0  0  0  0
 13 14  1  0  0  0  0
 13 15  1  1  0  0  0
 15 16  1  0  0  0  0
M  CHG  1   3  -1
M  END
>  <CHROM.1>
-175.15843331,-176.43707232,-64.56371073,44.40972339,12.84907056,11.56229601
-1.71920782,1.10055773,-0.78305902

>  <Name>
ligand

>  <RI>
0

>  <Rbt.Current_Directory>
/home/itssahil/PROJECTS/Mol_Feturizer/New_Systems/rnas/3B4B

>  <Rbt.Executable>
rbdock ($Id: //depot/dev/client3/rdock/2013.1/src/exe/rbdock.cxx#4 $)

>  <Rbt.Library>
libRbt.so (2013.1, Build901 2013/11/27)

>  <Rbt.Parameter_File>
/export/apps/rDock/src/rDock_2013.1_src/data/scripts/dock_solv.prm

>  <Rbt.Receptor>
prm/pocket_docking_7.prm

>  <SCORE>
-8.17427

>  <SCORE.INTER>
-6.52038

>  <SCORE.INTER.CONST>
1

>  <SCORE.INTER.POLAR>
0

>  <SCORE.INTER.ROT>
3

>  <SCORE.INTER.SOLV>
15.5175

>  <SCORE.INTER.VDW>
-15.1194

>  <SCORE.INTER.norm>
-0.407524

>  <SCORE.INTRA>
-1.65389

>  <SCORE.INTRA.DIHEDRAL>
-2.0378

>  <SCORE.INTRA.DIHEDRAL.0>
2.21864

>  <SCORE.INTRA.POLAR>
0

>  <SCORE.INTRA.POLAR.0>
0

>  <SCORE.INTRA.REPUL>
0

>  <SCORE.INTRA.REPUL.0>
0

>  <SCORE.INTRA.SOLV>
-1.09097

>  <SCORE.INTRA.SOLV.lig_0>
-58.5963

>  <SCORE.INTRA.VDW>
-0.0895056

>  <SCORE.INTRA.VDW.0>
-0.437849

>  <SCORE.INTRA.norm>
-0.103368

>  <SCORE.RESTR>
0

>  <SCORE.RESTR.CAVITY>
0

>  <SCORE.RESTR.norm>
0

>  <SCORE.SYSTEM>
0

>  <SCORE.SYSTEM.CONST>
0

>  <SCORE.SYSTEM.DIHEDRAL>
0

>  <SCORE.SYSTEM.SOLV>
0

>  <SCORE.SYSTEM.norm>
0

>  <SCORE.heavy>
16

>  <SCORE.norm>
-0.510892

>  <RMSD>
5.626

$$$$
ligand
 OpenBabel11021811463D
libRbt.so/2013.1/901 2013/11/27
 16 16  0  0  0  0  0  0  0  0999 V2000
   43.0712   12.6418   13.7882 P   0  0  2  0  0  0  0  0  0  0  0  0
   43.2103   12.4074   15.2465 O   0  0  0  0  0  0  0  0  0  0  0  0
   42.6537   14.1704   13.5052 O   0  5  0  0  0  0  0  0  0  0  0  0
   41.9118   11.6738   13.2025 O   0  0  0  0  0  0  0  0  0  0  0  0
   48.1394   12.3587   11.2039 C   0  0  2  0  0  0  0  0  0  0  0  0
   48.2960   13.1151    9.9944 O   0  0  0  0  0  0  0  0  0  0  0  0
   48.1957   10.8288   10.9324 C   0  0  2  0  0  0  0  0  0  0  0  0
   49.4802   10.4823   10.2850 N   0  0  0  0  0  0  0  0  0  0  0  0
   47.0176   10.4487   10.0107 C   0  0  1  0  0  0  0  0  0  0  0  0
   47.0252    9.0336    9.7523 O   0  0  0  0  0  0  0  0  0  0  0  0
   45.7126   10.8375   10.7207 C   0  0  2  0  0  0  0  0  0  0  0  0
   44.5956   10.5107    9.8820 O   0  0  0  0  0  0  0  0  0  0  0  0
   45.7384   12.3655   10.9889 C   0  0  2  0  0  0  0  0  0  0  0  0
   46.8743   12.7105   11.8331 O   0  0  0  0  0  0  0  0  0  0  0  0
   44.4460   12.7824   11.7123 C   0  0  0  0  0  0  0  0  0  0  0  0
   44.4923   12.3404   13.0813 O   0  0  0  0  0  0  0  0  0  0  0  0
  1  2  1  1  0  0  0
  1  3  1  0  0  0  0
  1  4  2  0  0  0  0
  1 16  1  0  0  0  0
  5  6  1  6  0  0  0
  5  7  1  0  0  0  0
  5 14  1  0  0  0  0
  7  8  1  6  0  0  0
  7  9  1  0  0  0  0
  9 10  1  1  0  0  0
  9 11  1  0  0  0  0
 11 12  1  6  0  0  0
 11 13  1  0  0  0  0
 13 14  1  0  0  0  0
 13 15  1  1  0  0  0
 15 16  1  0  0  0  0
M  CHG  1   3  -1
M  END
>  <CHROM.1>
73.63165653,-174.00697238,-170.06014495,45.42768905,11.87242144,11.82270776
-2.56421944,-0.35923677,-2.52477056

>  <Name>
ligand

>  <RI>
0

>  <Rbt.Current_Directory>
/home/itssahil/PROJECTS/Mol_Feturizer/New_Systems/rnas/3B4B

>  <Rbt.Executable>
rbdock ($Id: //depot/dev/client3/rdock/2013.1/src/exe/rbdock.cxx#4 $)

>  <Rbt.Library>
libRbt.so (2013.1, Build901 2013/11/27)

>  <Rbt.Parameter_File>
/export/apps/rDock/src/rDock_2013.1_src/data/scripts/dock_solv.prm

>  <Rbt.Receptor>
prm/pocket_docking_4.prm

>  <SCORE>
-7.70269

>  <SCORE.INTER>
-6.71848

>  <SCORE.INTER.CONST>
1

>  <SCORE.INTER.POLAR>
-0.899225

>  <SCORE.INTER.ROT>
3

>  <SCORE.INTER.SOLV>
17.096

>  <SCORE.INTER.VDW>
-12.7802

>  <SCORE.INTER.norm>
-0.419905

>  <SCORE.INTRA>
-0.984209

>  <SCORE.INTRA.DIHEDRAL>
-1.2346

>  <SCORE.INTRA.DIHEDRAL.0>
2.21864

>  <SCORE.INTRA.POLAR>
0

>  <SCORE.INTRA.POLAR.0>
0

>  <SCORE.INTRA.REPUL>
0

>  <SCORE.INTRA.REPUL.0>
0

>  <SCORE.INTRA.SOLV>
-0.227375

>  <SCORE.INTRA.SOLV.lig_0>
-58.5963

>  <SCORE.INTRA.VDW>
-0.253221

>  <SCORE.INTRA.VDW.0>
-0.437849

>  <SCORE.INTRA.norm>
-0.061513

>  <SCORE.RESTR>
0

>  <SCORE.RESTR.CAVITY>
0

>  <SCORE.RESTR.norm>
0

>  <SCORE.SYSTEM>
0

>  <SCORE.SYSTEM.CONST>
0

>  <SCORE.SYSTEM.DIHEDRAL>
0

>  <SCORE.SYSTEM.SOLV>
0

>  <SCORE.SYSTEM.norm>
0

>  <SCORE.heavy>
16

>  <SCORE.norm>
-0.481418

>  <RMSD>
5.627

$$$$
ligand
 OpenBabel11021811463D
libRbt.so/2013.1/901 2013/11/27
 16 16  0  0  0  0  0  0  0  0999 V2000
   44.2789   11.3811   14.2423 P   0  0  2  0  0  0  0  0  0  0  0  0
   44.7853   11.0773   15.6034 O   0  0  0  0  0  0  0  0  0  0  0  0
   43.3429   12.6902   14.2735 O   0  5  0  0  0  0  0  0  0  0  0  0
   43.3977   10.1297   13.7115 O   0  0  0  0  0  0  0  0  0  0  0  0
   48.3015   13.2375   10.5812 C   0  0  2  0  0  0  0  0  0  0  0  0
   47.8578   13.6399    9.2771 O   0  0  0  0  0  0  0  0  0  0  0  0
   49.1333   11.9252   10.5220 C   0  0  2  0  0  0  0  0  0  0  0  0
   50.2985   12.1110    9.6292 N   0  0  0  0  0  0  0  0  0  0  0  0
   48.2303   10.7936    9.9873 C   0  0  1  0  0  0  0  0  0  0  0  0
   48.9618    9.5560    9.9367 O   0  0  0  0  0  0  0  0  0  0  0  0
   47.0341   10.6486   10.9393 C   0  0  2  0  0  0  0  0  0  0  0  0
   46.1648    9.6124   10.4613 O   0  0  0  0  0  0  0  0  0  0  0  0
   46.2711   11.9992   10.9750 C   0  0  2  0  0  0  0  0  0  0  0  0
   47.1472   13.0612   11.4510 O   0  0  0  0  0  0  0  0  0  0  0  0
   45.0721   11.8871   11.9328 C   0  0  0  0  0  0  0  0  0  0  0  0
   45.5422   11.6552   13.2732 O   0  0  0  0  0  0  0  0  0  0  0  0
  1  2  1  1  0  0  0
  1  3  1  0  0  0  0
  1  4  2  0  0  0  0
  1 16  1  0  0  0  0
  5  6  1  6  0  0  0
  5  7  1  0  0  0  0
  5 14  1  0  0  0  0
  7  8  1  6  0  0  0
  7  9  1  0  0  0  0
  9 10  1  1  0  0  0
  9 11  1  0  0  0  0
 11 12  1  6  0  0  0
 11 13  1  0  0  0  0
 13 14  1  0  0  0  0
 13 15  1  1  0  0  0
 15 16  1  0  0  0  0
M  CHG  1   3  -1
M  END
>  <CHROM.1>
63.78167634,-173.96527861,177.19963940,46.38820261,11.56120847,11.90494869
-3.14022289,-0.75667593,-3.04828946

>  <Name>
ligand

>  <RI>
0

>  <Rbt.Current_Directory>
/home/itssahil/PROJECTS/Mol_Feturizer/New_Systems/rnas/3B4B

>  <Rbt.Executable>
rbdock ($Id: //depot/dev/client3/rdock/2013.1/src/exe/rbdock.cxx#4 $)

>  <Rbt.Library>
libRbt.so (2013.1, Build901 2013/11/27)

>  <Rbt.Parameter_File>
/export/apps/rDock/src/rDock_2013.1_src/data/scripts/dock_solv.prm

>  <Rbt.Receptor>
prm/pocket_docking_7.prm

>  <SCORE>
-9.17092

>  <SCORE.INTER>
-7.73796

>  <SCORE.INTER.CONST>
1

>  <SCORE.INTER.POLAR>
-0.898376

>  <SCORE.INTER.ROT>
3

>  <SCORE.INTER.SOLV>
16.8139

>  <SCORE.INTER.VDW>
-13.3687

>  <SCORE.INTER.norm>
-0.483623

>  <SCORE.INTRA>
-1.43631

>  <SCORE.INTRA.DIHEDRAL>
-1.97569

>  <SCORE.INTRA.DIHEDRAL.0>
2.21864

>  <SCORE.INTRA.POLAR>
0

>  <SCORE.INTRA.POLAR.0>
0

>  <SCORE.INTRA.REPUL>
0

>  <SCORE.INTRA.REPUL.0>
0

>  <SCORE.INTRA.SOLV>
-0.151599

>  <SCORE.INTRA.SOLV.lig_0>
-58.5963

>  <SCORE.INTRA.VDW>
-0.372667

>  <SCORE.INTRA.VDW.0>
-0.437849

>  <SCORE.INTRA.norm>
-0.0897695

>  <SCORE.RESTR>
0.00335228

>  <SCORE.RESTR.CAVITY>
0.00335228

>  <SCORE.RESTR.norm>
0.000209517

>  <SCORE.SYSTEM>
0

>  <SCORE.SYSTEM.CONST>
0

>  <SCORE.SYSTEM.DIHEDRAL>
0

>  <SCORE.SYSTEM.SOLV>
0

>  <SCORE.SYSTEM.norm>
0

>  <SCORE.heavy>
16

>  <SCORE.norm>
-0.573183

>  <RMSD>
5.628

$$$$
ligand
 OpenBabel11021811463D
libRbt.so/2013.1/901 2013/11/27
 16 16  0  0  0  0  0  0  0  0999 V2000
   44.0556   11.5134   14.4347 P   0  0  2  0  0  0  0  0  0  0  0  0
   44.9066   11.0460   15.5565 O   0  0  0  0  0  0  0  0  0  0  0  0
   43.0607   12.6759   14.9347 O   0  5  0  0  0  0  0  0  0  0  0  0
   43.1671   10.2736   13.8893 O   0  0  0  0  0  0  0  0  0  0  0  0
   48.4539   12.9515   10.9640 C   0  0  2  0  0  0  0  0  0  0  0  0
   47.6568   13.7987   10.1234 O   0  0  0  0  0  0  0  0  0  0  0  0
   49.1270   11.8101   10.1506 C   0  0  2  0  0  0  0  0  0  0  0  0
   49.9664   12.3877    9.0777 N   0  0  0  0  0  0  0  0  0  0  0  0
   48.0218   10.9228    9.5398 C   0  0  1  0  0  0  0  0  0  0  0  0
   48.6080    9.8414    8.7940 O   0  0  0  0  0  0  0  0  0  0  0  0
   47.1744   10.3583   10.6895 C   0  0  2  0  0  0  0  0  0  0  0  0
   46.1257    9.5391   10.1537 O   0  0  0  0  0  0  0  0  0  0  0  0
   46.5619   11.5478   11.4752 C   0  0  2  0  0  0  0  0  0  0  0  0
   47.6184   12.3920   12.0169 O   0  0  0  0  0  0  0  0  0  0  0  0
   45.7162   11.0113   12.6433 C   0  0  0  0  0  0  0  0  0  0  0  0
   45.0131   12.0983   13.2723 O   0  0  0  0  0  0  0  0  0  0  0  0
  1  2  1  1  0  0  0
  1  3  1  0  0  0  0
  1  4  2  0  0  0  0
  1 16  1  0  0  0  0
  5  6  1  6  0  0  0
  5  7  1  0  0  0  0
  5 14  1  0  0  0  0
  7  8  1  6  0  0  0
  7  9  1  0  0  0  0
  9 10  1  1  0  0  0
  9 11  1  0  0  0  0
 11 12  1  6  0  0  0
 11 13  1  0  0  0  0
 13 14  1  0  0  0  0
 13 15  1  1  0  0  0
 15 16  1  0  0  0  0
M  CHG  1   3  -1
M  END
>  <CHROM.1>
-172.86630228,176.37833251,70.89284344,46.33096012,11.50719812,11.97567608
-2.77282258,-0.73368406,-2.59978476

>  <Name>
ligand

>  <RI>
0

>  <Rbt.Current_Directory>
/home/itssahil/PROJECTS/Mol_Feturizer/New_Systems/rnas/3B4B

>  <Rbt.Executable>
rbdock ($Id: //depot/dev/client3/rdock/2013.1/src/exe/rbdock.cxx#4 $)

>  <Rbt.Library>
libRbt.so (2013.1, Build901 2013/11/27)

>  <Rbt.Parameter_File>
/export/apps/rDock/src/rDock_2013.1_src/data/scripts/dock_solv.prm

>  <Rbt.Receptor>
prm/pocket_docking_6.prm

>  <SCORE>
-7.11215

>  <SCORE.INTER>
-5.55345

>  <SCORE.INTER.CONST>
1

>  <SCORE.INTER.POLAR>
0

>  <SCORE.INTER.ROT>
3

>  <SCORE.INTER.SOLV>
17.6417

>  <SCORE.INTER.VDW>
-15.1829

>  <SCORE.INTER.norm>
-0.34709

>  <SCORE.INTRA>
-1.55871

>  <SCORE.INTRA.DIHEDRAL>
-1.77765

>  <SCORE.INTRA.DIHEDRAL.0>
2.21864

>  <SCORE.INTRA.POLAR>
0

>  <SCORE.INTRA.POLAR.0>
0

>  <SCORE.INTRA.REPUL>
0

>  <SCORE.INTRA.REPUL.0>
0

>  <SCORE.INTRA.SOLV>
-1.09407

>  <SCORE.INTRA.SOLV.lig_0>
-58.5963

>  <SCORE.INTRA.VDW>
-0.122852

>  <SCORE.INTRA.VDW.0>
-0.437849

>  <SCORE.INTRA.norm>
-0.0974194

>  <SCORE.RESTR>
0

>  <SCORE.RESTR.CAVITY>
0

>  <SCORE.RESTR.norm>
0

>  <SCORE.SYSTEM>
0

>  <SCORE.SYSTEM.CONST>
0

>  <SCORE.SYSTEM.DIHEDRAL>
0

>  <SCORE.SYSTEM.SOLV>
0

>  <SCORE.SYSTEM.norm>
0

>  <SCORE.heavy>
16

>  <SCORE.norm>
-0.44451

>  <RMSD>
5.631

$$$$
ligand
 OpenBabel11021811463D
libRbt.so/2013.1/901 2013/11/27
 16 16  0  0  0  0  0  0  0  0999 V2000
   44.2826   11.3945   14.2396 P   0  0  2  0  0  0  0  0  0  0  0  0
   44.8306   11.1167   15.5900 O   0  0  0  0  0  0  0  0  0  0  0  0
   43.2839   12.6559   14.2903 O   0  5  0  0  0  0  0  0  0  0  0  0
   43.4537   10.1009   13.7259 O   0  0  0  0  0  0  0  0  0  0  0  0
   48.0833   13.4646   10.4258 C   0  0  2  0  0  0  0  0  0  0  0  0
   47.5922   13.7383    9.1054 O   0  0  0  0  0  0  0  0  0  0  0  0
   49.0331   12.2336   10.4384 C   0  0  2  0  0  0  0  0  0  0  0  0
   50.1677   12.4674    9.5179 N   0  0  0  0  0  0  0  0  0  0  0  0
   48.2345   10.9910    9.9912 C   0  0  1  0  0  0  0  0  0  0  0  0
   49.0775    9.8256   10.0090 O   0  0  0  0  0  0  0  0  0  0  0  0
   47.0657   10.7988   10.9686 C   0  0  2  0  0  0  0  0  0  0  0  0
   46.2923    9.6578   10.5713 O   0  0  0  0  0  0  0  0  0  0  0  0
   46.1807   12.0726   10.9290 C   0  0  2  0  0  0  0  0  0  0  0  0
   46.9585   13.2397   11.3225 O   0  0  0  0  0  0  0  0  0  0  0  0
   45.0062   11.9131   11.9101 C   0  0  0  0  0  0  0  0  0  0  0  0
   45.5111   11.7301   13.2454 O   0  0  0  0  0  0  0  0  0  0  0  0
  1  2  1  1  0  0  0
  1  3  1  0  0  0  0
  1  4  2  0  0  0  0
  1 16  1  0  0  0  0
  5  6  1  6  0  0  0
  5  7  1  0  0  0  0
  5 14  1  0  0  0  0
  7  8  1  6  0  0  0
  7  9  1  0  0  0  0
  9 10  1  1  0  0  0
  9 11  1  0  0  0  0
 11 12  1  6  0  0  0
 11 13  1  0  0  0  0
 13 14  1  0  0  0  0
 13 15  1  1  0  0  0
 15 16  1  0  0  0  0
M  CHG  1   3  -1
M  END
>  <CHROM.1>
60.22259146,-173.53464694,176.12803405,46.34577099,11.67430465,11.87604334
2.98954649,-0.76587985,3.07027698

>  <Name>
ligand

>  <RI>
0

>  <Rbt.Current_Directory>
/home/itssahil/PROJECTS/Mol_Feturizer/New_Systems/rnas/3B4B

>  <Rbt.Executable>
rbdock ($Id: //depot/dev/client3/rdock/2013.1/src/exe/rbdock.cxx#4 $)

>  <Rbt.Library>
libRbt.so (2013.1, Build901 2013/11/27)

>  <Rbt.Parameter_File>
/export/apps/rDock/src/rDock_2013.1_src/data/scripts/dock_solv.prm

>  <Rbt.Receptor>
prm/pocket_docking_5.prm

>  <SCORE>
-9.06194

>  <SCORE.INTER>
-7.6439

>  <SCORE.INTER.CONST>
1

>  <SCORE.INTER.POLAR>
-0.9

>  <SCORE.INTER.ROT>
3

>  <SCORE.INTER.SOLV>
16.5107

>  <SCORE.INTER.VDW>
-13.1995

>  <SCORE.INTER.norm>
-0.477744

>  <SCORE.INTRA>
-1.41804

>  <SCORE.INTRA.DIHEDRAL>
-1.99011

>  <SCORE.INTRA.DIHEDRAL.0>
2.21864

>  <SCORE.INTRA.POLAR>
0

>  <SCORE.INTRA.POLAR.0>
0

>  <SCORE.INTRA.REPUL>
0

>  <SCORE.INTRA.REPUL.0>
0

>  <SCORE.INTRA.SOLV>
-0.130733

>  <SCORE.INTRA.SOLV.lig_0>
-58.5963

>  <SCORE.INTRA.VDW>
-0.357613

>  <SCORE.INTRA.VDW.0>
-0.437849

>  <SCORE.INTRA.norm>
-0.0886273

>  <SCORE.RESTR>
0

>  <SCORE.RESTR.CAVITY>
0

>  <SCORE.RESTR.norm>
0

>  <SCORE.SYSTEM>
0

>  <SCORE.SYSTEM.CONST>
0

>  <SCORE.SYSTEM.DIHEDRAL>
0

>  <SCORE.SYSTEM.SOLV>
0

>  <SCORE.SYSTEM.norm>
0

>  <SCORE.heavy>
16

>  <SCORE.norm>
-0.566371

>  <RMSD>
5.636

$$$$
ligand
 OpenBabel11021811463D
libRbt.so/2013.1/901 2013/11/27
 16 16  0  0  0  0  0  0  0  0999 V2000
   44.0174   10.6869   13.9543 P   0  0  2  0  0  0  0  0  0  0  0  0
   44.8302    9.5380   14.4237 O   0  0  0  0  0  0  0  0  0  0  0  0
   44.0620   11.8809   15.0329 O   0  5  0  0  0  0  0  0  0  0  0  0
   42.4793   10.2116   13.7743 O   0  0  0  0  0  0  0  0  0  0  0  0
   44.6939   12.3569    8.4665 C   0  0  2  0  0  0  0  0  0  0  0  0
   46.1272   12.3923    8.5303 O   0  0  0  0  0  0  0  0  0  0  0  0
   44.1059   13.7372    8.0583 C   0  0  2  0  0  0  0  0  0  0  0  0
   44.6578   14.1488    6.7487 N   0  0  0  0  0  0  0  0  0  0  0  0
   44.4806   14.7715    9.1407 C   0  0  1  0  0  0  0  0  0  0  0  0
   43.9358   16.0602    8.8065 O   0  0  0  0  0  0  0  0  0  0  0  0
   43.8963   14.2943   10.4783 C   0  0  2  0  0  0  0  0  0  0  0  0
   44.2404   15.2282   11.5114 O   0  0  0  0  0  0  0  0  0  0  0  0
   44.4990   12.9027   10.8064 C   0  0  2  0  0  0  0  0  0  0  0  0
   44.1630   11.9477    9.7590 O   0  0  0  0  0  0  0  0  0  0  0  0
   43.9205   12.3930   12.1380 C   0  0  0  0  0  0  0  0  0  0  0  0
   44.6308   11.2128   12.5552 O   0  0  0  0  0  0  0  0  0  0  0  0
  1  2  1  1  0  0  0
  1  3  1  0  0  0  0
  1  4  2  0  0  0  0
  1 16  1  0  0  0  0
  5  6  1  1  0  0  0
  5  7  1  0  0  0  0
  5 14  1  0  0  0  0
  7  8  1  6  0  0  0
  7  9  1  0  0  0  0
  9 10  1  6  0  0  0
  9 11  1  0  0  0  0
 11 12  1  1  0  0  0
 11 13  1  0  0  0  0
 13 14  1  0  0  0  0
 13 15  1  1  0  0  0
 15 16  1  0  0  0  0
M  CHG  1   3  -1
M  END
>  <CHROM.1>
-170.74765485,179.93370219,-175.48237341,44.27749038,12.55316019,11.18012886
-1.86533590,1.28331407,-0.72089173

>  <Name>
ligand

>  <RI>
0

>  <Rbt.Current_Directory>
/home/itssahil/PROJECTS/Mol_Feturizer/New_Systems/rnas/3B4B

>  <Rbt.Executable>
rbdock ($Id: //depot/dev/client3/rdock/2013.1/src/exe/rbdock.cxx#4 $)

>  <Rbt.Library>
libRbt.so (2013.1, Build901 2013/11/27)

>  <Rbt.Parameter_File>
/export/apps/rDock/src/rDock_2013.1_src/data/scripts/dock_solv.prm

>  <Rbt.Receptor>
prm/pocket_docking_7.prm

>  <SCORE>
-7.71743

>  <SCORE.INTER>
-6.28686

>  <SCORE.INTER.CONST>
1

>  <SCORE.INTER.POLAR>
0

>  <SCORE.INTER.ROT>
3

>  <SCORE.INTER.SOLV>
20.6123

>  <SCORE.INTER.VDW>
-16.662

>  <SCORE.INTER.norm>
-0.392929

>  <SCORE.INTRA>
-1.43056

>  <SCORE.INTRA.DIHEDRAL>
-1.87836

>  <SCORE.INTRA.DIHEDRAL.0>
2.21864

>  <SCORE.INTRA.POLAR>
0

>  <SCORE.INTRA.POLAR.0>
0

>  <SCORE.INTRA.REPUL>
0

>  <SCORE.INTRA.REPUL.0>
0

>  <SCORE.INTRA.SOLV>
-0.534504

>  <SCORE.INTRA.SOLV.lig_0>
-58.5963

>  <SCORE.INTRA.VDW>
-0.224133

>  <SCORE.INTRA.VDW.0>
-0.437849

>  <SCORE.INTRA.norm>
-0.0894102

>  <SCORE.RESTR>
0

>  <SCORE.RESTR.CAVITY>
0

>  <SCORE.RESTR.norm>
0

>  <SCORE.SYSTEM>
0

>  <SCORE.SYSTEM.CONST>
0

>  <SCORE.SYSTEM.DIHEDRAL>
0

>  <SCORE.SYSTEM.SOLV>
0

>  <SCORE.SYSTEM.norm>
0

>  <SCORE.heavy>
16

>  <SCORE.norm>
-0.482339

>  <RMSD>
5.639

$$$$
ligand
 OpenBabel11021811463D
libRbt.so/2013.1/901 2013/11/27
 16 16  0  0  0  0  0  0  0  0999 V2000
   44.0715   11.5191   14.3945 P   0  0  2  0  0  0  0  0  0  0  0  0
   44.9093   11.0493   15.5251 O   0  0  0  0  0  0  0  0  0  0  0  0
   43.0658   12.6755   14.8869 O   0  5  0  0  0  0  0  0  0  0  0  0
   43.1948   10.2788   13.8312 O   0  0  0  0  0  0  0  0  0  0  0  0
   48.5342   12.9631   10.9752 C   0  0  2  0  0  0  0  0  0  0  0  0
   47.7431   13.8297   10.1488 O   0  0  0  0  0  0  0  0  0  0  0  0
   49.1896   11.8235   10.1449 C   0  0  2  0  0  0  0  0  0  0  0  0
   50.0305   12.4039    9.0747 N   0  0  0  0  0  0  0  0  0  0  0  0
   48.0708   10.9568    9.5293 C   0  0  1  0  0  0  0  0  0  0  0  0
   48.6404    9.8775    8.7677 O   0  0  0  0  0  0  0  0  0  0  0  0
   47.2225   10.3888   10.6764 C   0  0  2  0  0  0  0  0  0  0  0  0
   46.1615    9.5885   10.1363 O   0  0  0  0  0  0  0  0  0  0  0  0
   46.6282   11.5760   11.4794 C   0  0  2  0  0  0  0  0  0  0  0  0
   47.6973   12.4011   12.0257 O   0  0  0  0  0  0  0  0  0  0  0  0
   45.7819   11.0357   12.6453 C   0  0  0  0  0  0  0  0  0  0  0  0
   45.0421   12.1133   13.2477 O   0  0  0  0  0  0  0  0  0  0  0  0
  1  2  1  1  0  0  0
  1  3  1  0  0  0  0
  1  4  2  0  0  0  0
  1 16  1  0  0  0  0
  5  6  1  6  0  0  0
  5  7  1  0  0  0  0
  5 14  1  0  0  0  0
  7  8  1  6  0  0  0
  7  9  1  0  0  0  0
  9 10  1  1  0  0  0
  9 11  1  0  0  0  0
 11 12  1  6  0  0  0
 11 13  1  0  0  0  0
 13 14  1  0  0  0  0
 13 15  1  1  0  0  0
 15 16  1  0  0  0  0
M  CHG  1   3  -1
M  END
>  <CHROM.1>
-169.95390290,175.65759658,69.48080556,46.37485448,11.52566542,11.95907922
-2.77014119,-0.72205815,-2.58470740

>  <Name>
ligand

>  <RI>
0

>  <Rbt.Current_Directory>
/home/itssahil/PROJECTS/Mol_Feturizer/New_Systems/rnas/3B4B

>  <Rbt.Executable>
rbdock ($Id: //depot/dev/client3/rdock/2013.1/src/exe/rbdock.cxx#4 $)

>  <Rbt.Library>
libRbt.so (2013.1, Build901 2013/11/27)

>  <Rbt.Parameter_File>
/export/apps/rDock/src/rDock_2013.1_src/data/scripts/dock_solv.prm

>  <Rbt.Receptor>
prm/blind_docking_60.prm

>  <SCORE>
-6.97306

>  <SCORE.INTER>
-5.47186

>  <SCORE.INTER.CONST>
1

>  <SCORE.INTER.POLAR>
0

>  <SCORE.INTER.ROT>
3

>  <SCORE.INTER.SOLV>
17.2821

>  <SCORE.INTER.VDW>
-15.0086

>  <SCORE.INTER.norm>
-0.341991

>  <SCORE.INTRA>
-1.5012

>  <SCORE.INTRA.DIHEDRAL>
-1.61977

>  <SCORE.INTRA.DIHEDRAL.0>
2.21864

>  <SCORE.INTRA.POLAR>
0

>  <SCORE.INTRA.POLAR.0>
0

>  <SCORE.INTRA.REPUL>
0

>  <SCORE.INTRA.REPUL.0>
0

>  <SCORE.INTRA.SOLV>
-1.11719

>  <SCORE.INTRA.SOLV.lig_0>
-58.5963

>  <SCORE.INTRA.VDW>
-0.132721

>  <SCORE.INTRA.VDW.0>
-0.437849

>  <SCORE.INTRA.norm>
-0.0938251

>  <SCORE.RESTR>
0

>  <SCORE.RESTR.CAVITY>
0

>  <SCORE.RESTR.norm>
0

>  <SCORE.SYSTEM>
0

>  <SCORE.SYSTEM.CONST>
0

>  <SCORE.SYSTEM.DIHEDRAL>
0

>  <SCORE.SYSTEM.SOLV>
0

>  <SCORE.SYSTEM.norm>
0

>  <SCORE.heavy>
16

>  <SCORE.norm>
-0.435816

>  <RMSD>
5.641

$$$$
ligand
 OpenBabel11021811463D
libRbt.so/2013.1/901 2013/11/27
 16 16  0  0  0  0  0  0  0  0999 V2000
   43.0193   12.6234   13.6490 P   0  0  2  0  0  0  0  0  0  0  0  0
   43.1168   12.3338   15.1008 O   0  0  0  0  0  0  0  0  0  0  0  0
   42.6593   14.1742   13.4114 O   0  5  0  0  0  0  0  0  0  0  0  0
   41.8424   11.7161   13.0039 O   0  0  0  0  0  0  0  0  0  0  0  0
   48.1444   12.3833   11.1308 C   0  0  2  0  0  0  0  0  0  0  0  0
   48.3003   13.1070    9.9013 O   0  0  0  0  0  0  0  0  0  0  0  0
   48.2159   10.8470   10.9024 C   0  0  2  0  0  0  0  0  0  0  0  0
   49.5068   10.4944   10.2712 N   0  0  0  0  0  0  0  0  0  0  0  0
   47.0460   10.4304    9.9862 C   0  0  1  0  0  0  0  0  0  0  0  0
   47.0679    9.0088    9.7675 O   0  0  0  0  0  0  0  0  0  0  0  0
   45.7340   10.8269   10.6787 C   0  0  2  0  0  0  0  0  0  0  0  0
   44.6243   10.4664    9.8442 O   0  0  0  0  0  0  0  0  0  0  0  0
   45.7445   12.3620   10.9041 C   0  0  2  0  0  0  0  0  0  0  0  0
   46.8730   12.7409   11.7437 O   0  0  0  0  0  0  0  0  0  0  0  0
   44.4448   12.7870   11.6093 C   0  0  0  0  0  0  0  0  0  0  0  0
   44.4457   12.2988   12.9633 O   0  0  0  0  0  0  0  0  0  0  0  0
  1  2  1  1  0  0  0
  1  3  1  0  0  0  0
  1  4  2  0  0  0  0
  1 16  1  0  0  0  0
  5  6  1  6  0  0  0
  5  7  1  0  0  0  0
  5 14  1  0  0  0  0
  7  8  1  6  0  0  0
  7  9  1  0  0  0  0
  9 10  1  1  0  0  0
  9 11  1  0  0  0  0
 11 12  1  6  0  0  0
 11 13  1  0  0  0  0
 13 14  1  0  0  0  0
 13 15  1  1  0  0  0
 15 16  1  0  0  0  0
M  CHG  1   3  -1
M  END
>  <CHROM.1>
69.44763435,-174.48279913,-170.17851254,45.41868884,11.86424770,11.73767474
-2.59424323,-0.36363667,-2.56443529

>  <Name>
ligand

>  <RI>
0

>  <Rbt.Current_Directory>
/home/itssahil/PROJECTS/Mol_Feturizer/New_Systems/rnas/3B4B

>  <Rbt.Executable>
rbdock ($Id: //depot/dev/client3/rdock/2013.1/src/exe/rbdock.cxx#4 $)

>  <Rbt.Library>
libRbt.so (2013.1, Build901 2013/11/27)

>  <Rbt.Parameter_File>
/export/apps/rDock/src/rDock_2013.1_src/data/scripts/dock_solv.prm

>  <Rbt.Receptor>
prm/pocket_docking_6.prm

>  <SCORE>
-7.46721

>  <SCORE.INTER>
-6.29397

>  <SCORE.INTER.CONST>
1

>  <SCORE.INTER.POLAR>
-0.9

>  <SCORE.INTER.ROT>
3

>  <SCORE.INTER.SOLV>
16.6038

>  <SCORE.INTER.VDW>
-12.3306

>  <SCORE.INTER.norm>
-0.393373

>  <SCORE.INTRA>
-1.17407

>  <SCORE.INTRA.DIHEDRAL>
-1.59328

>  <SCORE.INTRA.DIHEDRAL.0>
2.21864

>  <SCORE.INTRA.POLAR>
0

>  <SCORE.INTRA.POLAR.0>
0

>  <SCORE.INTRA.REPUL>
0

>  <SCORE.INTRA.REPUL.0>
0

>  <SCORE.INTRA.SOLV>
-0.212334

>  <SCORE.INTRA.SOLV.lig_0>
-58.5963

>  <SCORE.INTRA.VDW>
-0.271262

>  <SCORE.INTRA.VDW.0>
-0.437849

>  <SCORE.INTRA.norm>
-0.0733795

>  <SCORE.RESTR>
0.000828199

>  <SCORE.RESTR.CAVITY>
0.000828199

>  <SCORE.RESTR.norm>
5.17624e-05

>  <SCORE.SYSTEM>
0

>  <SCORE.SYSTEM.CONST>
0

>  <SCORE.SYSTEM.DIHEDRAL>
0

>  <SCORE.SYSTEM.SOLV>
0

>  <SCORE.SYSTEM.norm>
0

>  <SCORE.heavy>
16

>  <SCORE.norm>
-0.466701

>  <RMSD>
5.652

$$$$
ligand
 OpenBabel11021811463D
libRbt.so/2013.1/901 2013/11/27
 16 16  0  0  0  0  0  0  0  0999 V2000
   44.3667   11.1742   14.0695 P   0  0  2  0  0  0  0  0  0  0  0  0
   44.8741   11.2931   15.4585 O   0  0  0  0  0  0  0  0  0  0  0  0
   43.1329   10.1420   14.0116 O   0  5  0  0  0  0  0  0  0  0  0  0
   45.5517   10.6153   13.1168 O   0  0  0  0  0  0  0  0  0  0  0  0
   41.6133   15.9409   12.4845 C   0  0  2  0  0  0  0  0  0  0  0  0
   40.6348   15.8107   11.4427 O   0  0  0  0  0  0  0  0  0  0  0  0
   42.8477   16.7586   12.0100 C   0  0  2  0  0  0  0  0  0  0  0  0
   42.4156   18.0986   11.5552 N   0  0  0  0  0  0  0  0  0  0  0  0
   43.5261   15.9981   10.8510 C   0  0  1  0  0  0  0  0  0  0  0  0
   44.6868   16.7165   10.3974 O   0  0  0  0  0  0  0  0  0  0  0  0
   43.9444   14.6144   11.3694 C   0  0  2  0  0  0  0  0  0  0  0  0
   44.5661   13.8741   10.3096 O   0  0  0  0  0  0  0  0  0  0  0  0
   42.6729   13.8692   11.8547 C   0  0  2  0  0  0  0  0  0  0  0  0
   42.0279   14.6168   12.9258 O   0  0  0  0  0  0  0  0  0  0  0  0
   43.0640   12.4817   12.3924 C   0  0  0  0  0  0  0  0  0  0  0  0
   43.8643   12.6294   13.5795 O   0  0  0  0  0  0  0  0  0  0  0  0
  1  2  1  1  0  0  0
  1  3  1  0  0  0  0
  1  4  2  0  0  0  0
  1 16  1  0  0  0  0
  5  6  1  6  0  0  0
  5  7  1  0  0  0  0
  5 14  1  0  0  0  0
  7  8  1  6  0  0  0
  7  9  1  0  0  0  0
  9 10  1  1  0  0  0
  9 11  1  0  0  0  0
 11 12  1  6  0  0  0
 11 13  1  0  0  0  0
 13 14  1  0  0  0  0
 13 15  1  1  0  0  0
 15 16  1  0  0  0  0
M  CHG  1   3  -1
M  END
>  <CHROM.1>
66.09393082,-175.57060935,-165.29710996,43.45739910,13.76695157,12.51019963
1.26992255,-0.47020313,2.54222747

>  <Name>
ligand

>  <RI>
0

>  <Rbt.Current_Directory>
/home/itssahil/PROJECTS/Mol_Feturizer/New_Systems/rnas/3B4B

>  <Rbt.Executable>
rbdock ($Id: //depot/dev/client3/rdock/2013.1/src/exe/rbdock.cxx#4 $)

>  <Rbt.Library>
libRbt.so (2013.1, Build901 2013/11/27)

>  <Rbt.Parameter_File>
/export/apps/rDock/src/rDock_2013.1_src/data/scripts/dock_solv.prm

>  <Rbt.Receptor>
prm/pocket_docking_6.prm

>  <SCORE>
-10.7428

>  <SCORE.INTER>
-9.61935

>  <SCORE.INTER.CONST>
1

>  <SCORE.INTER.POLAR>
0

>  <SCORE.INTER.ROT>
3

>  <SCORE.INTER.SOLV>
12.071

>  <SCORE.INTER.VDW>
-16.0366

>  <SCORE.INTER.norm>
-0.60121

>  <SCORE.INTRA>
-1.12342

>  <SCORE.INTRA.DIHEDRAL>
-1.64542

>  <SCORE.INTRA.DIHEDRAL.0>
2.21864

>  <SCORE.INTRA.POLAR>
0

>  <SCORE.INTRA.POLAR.0>
0

>  <SCORE.INTRA.REPUL>
0

>  <SCORE.INTRA.REPUL.0>
0

>  <SCORE.INTRA.SOLV>
-0.24453

>  <SCORE.INTRA.SOLV.lig_0>
-58.5963

>  <SCORE.INTRA.VDW>
-0.178445

>  <SCORE.INTRA.VDW.0>
-0.437849

>  <SCORE.INTRA.norm>
-0.0702138

>  <SCORE.RESTR>
0

>  <SCORE.RESTR.CAVITY>
0

>  <SCORE.RESTR.norm>
0

>  <SCORE.SYSTEM>
0

>  <SCORE.SYSTEM.CONST>
0

>  <SCORE.SYSTEM.DIHEDRAL>
0

>  <SCORE.SYSTEM.SOLV>
0

>  <SCORE.SYSTEM.norm>
0

>  <SCORE.heavy>
16

>  <SCORE.norm>
-0.671423

>  <RMSD>
5.656

$$$$
ligand
 OpenBabel11021811463D
libRbt.so/2013.1/901 2013/11/27
 16 16  0  0  0  0  0  0  0  0999 V2000
   44.4601   10.8475   14.1642 P   0  0  2  0  0  0  0  0  0  0  0  0
   44.7591   11.0794   15.5988 O   0  0  0  0  0  0  0  0  0  0  0  0
   42.9834   11.3802   13.8080 O   0  5  0  0  0  0  0  0  0  0  0  0
   44.5225    9.2579   13.8584 O   0  0  0  0  0  0  0  0  0  0  0  0
   47.3810   13.8190   10.0131 C   0  0  2  0  0  0  0  0  0  0  0  0
   47.5016   13.1469    8.7508 O   0  0  0  0  0  0  0  0  0  0  0  0
   48.7187   13.7910   10.8053 C   0  0  2  0  0  0  0  0  0  0  0  0
   49.7899   14.4193   10.0010 N   0  0  0  0  0  0  0  0  0  0  0  0
   49.0783   12.3220   11.1126 C   0  0  1  0  0  0  0  0  0  0  0  0
   50.3034   12.2569   11.8637 O   0  0  0  0  0  0  0  0  0  0  0  0
   47.9339   11.7137   11.9365 C   0  0  2  0  0  0  0  0  0  0  0  0
   48.2304   10.3405   12.2267 O   0  0  0  0  0  0  0  0  0  0  0  0
   46.6290   11.8040   11.1019 C   0  0  2  0  0  0  0  0  0  0  0  0
   46.3224   13.1943   10.7936 O   0  0  0  0  0  0  0  0  0  0  0  0
   45.4604   11.2122   11.9092 C   0  0  0  0  0  0  0  0  0  0  0  0
   45.5431   11.6533   13.2767 O   0  0  0  0  0  0  0  0  0  0  0  0
  1  2  1  1  0  0  0
  1  3  1  0  0  0  0
  1  4  2  0  0  0  0
  1 16  1  0  0  0  0
  5  6  1  6  0  0  0
  5  7  1  0  0  0  0
  5 14  1  0  0  0  0
  7  8  1  6  0  0  0
  7  9  1  0  0  0  0
  9 10  1  1  0  0  0
  9 11  1  0  0  0  0
 11 12  1  6  0  0  0
 11 13  1  0  0  0  0
 13 14  1  0  0  0  0
 13 15  1  1  0  0  0
 15 16  1  0  0  0  0
M  CHG  1   3  -1
M  END
>  <CHROM.1>
42.51237195,-171.07544291,167.34919144,46.63184486,11.89290670,12.15506601
-2.34649018,0.06196340,-0.92809303

>  <Name>
ligand

>  <RI>
0

>  <Rbt.Current_Directory>
/home/itssahil/PROJECTS/Mol_Feturizer/New_Systems/rnas/3B4B

>  <Rbt.Executable>
rbdock ($Id: //depot/dev/client3/rdock/2013.1/src/exe/rbdock.cxx#4 $)

>  <Rbt.Library>
libRbt.so (2013.1, Build901 2013/11/27)

>  <Rbt.Parameter_File>
/export/apps/rDock/src/rDock_2013.1_src/data/scripts/dock_solv.prm

>  <Rbt.Receptor>
prm/pocket_docking_5.prm

>  <SCORE>
-5.58448

>  <SCORE.INTER>
-5.27741

>  <SCORE.INTER.CONST>
1

>  <SCORE.INTER.POLAR>
0

>  <SCORE.INTER.ROT>
3

>  <SCORE.INTER.SOLV>
14.7232

>  <SCORE.INTER.VDW>
-14.026

>  <SCORE.INTER.norm>
-0.329838

>  <SCORE.INTRA>
-0.307069

>  <SCORE.INTRA.DIHEDRAL>
-0.552665

>  <SCORE.INTRA.DIHEDRAL.0>
2.21864

>  <SCORE.INTRA.POLAR>
0

>  <SCORE.INTRA.POLAR.0>
0

>  <SCORE.INTRA.REPUL>
0

>  <SCORE.INTRA.REPUL.0>
0

>  <SCORE.INTRA.SOLV>
0.0374995

>  <SCORE.INTRA.SOLV.lig_0>
-58.5963

>  <SCORE.INTRA.VDW>
-0.0494863

>  <SCORE.INTRA.VDW.0>
-0.437849

>  <SCORE.INTRA.norm>
-0.0191918

>  <SCORE.RESTR>
0

>  <SCORE.RESTR.CAVITY>
0

>  <SCORE.RESTR.norm>
0

>  <SCORE.SYSTEM>
0

>  <SCORE.SYSTEM.CONST>
0

>  <SCORE.SYSTEM.DIHEDRAL>
0

>  <SCORE.SYSTEM.SOLV>
0

>  <SCORE.SYSTEM.norm>
0

>  <SCORE.heavy>
16

>  <SCORE.norm>
-0.34903

>  <RMSD>
5.666

$$$$
ligand
 OpenBabel11021811463D
libRbt.so/2013.1/901 2013/11/27
 16 16  0  0  0  0  0  0  0  0999 V2000
   44.0881   10.7123   13.9458 P   0  0  2  0  0  0  0  0  0  0  0  0
   44.3116   11.7858   14.9451 O   0  0  0  0  0  0  0  0  0  0  0  0
   42.5152   10.4017   13.8016 O   0  5  0  0  0  0  0  0  0  0  0  0
   44.8370    9.3630   14.4386 O   0  0  0  0  0  0  0  0  0  0  0  0
   44.7013   12.3344    8.4479 C   0  0  2  0  0  0  0  0  0  0  0  0
   46.1354   12.3718    8.4870 O   0  0  0  0  0  0  0  0  0  0  0  0
   44.1052   13.7086    8.0309 C   0  0  2  0  0  0  0  0  0  0  0  0
   44.6345   14.1028    6.7067 N   0  0  0  0  0  0  0  0  0  0  0  0
   44.4970   14.7578    9.0927 C   0  0  1  0  0  0  0  0  0  0  0  0
   43.9454   16.0414    8.7502 O   0  0  0  0  0  0  0  0  0  0  0  0
   43.9358   14.2984   10.4463 C   0  0  2  0  0  0  0  0  0  0  0  0
   44.2964   15.2466   11.4606 O   0  0  0  0  0  0  0  0  0  0  0  0
   44.5453   12.9119   10.7831 C   0  0  2  0  0  0  0  0  0  0  0  0
   44.1927   11.9424    9.7546 O   0  0  0  0  0  0  0  0  0  0  0  0
   43.9899   12.4199   12.1311 C   0  0  0  0  0  0  0  0  0  0  0  0
   44.6636   11.2091   12.5203 O   0  0  0  0  0  0  0  0  0  0  0  0
  1  2  1  1  0  0  0
  1  3  1  0  0  0  0
  1  4  2  0  0  0  0
  1 16  1  0  0  0  0
  5  6  1  1  0  0  0
  5  7  1  0  0  0  0
  5 14  1  0  0  0  0
  7  8  1  6  0  0  0
  7  9  1  0  0  0  0
  9 10  1  6  0  0  0
  9 11  1  0  0  0  0
 11 12  1  1  0  0  0
 11 13  1  0  0  0  0
 13 14  1  0  0  0  0
 13 15  1  1  0  0  0
 15 16  1  0  0  0  0
M  CHG  1   3  -1
M  END
>  <CHROM.1>
-173.55013011,179.21702726,-58.96726314,44.32155560,12.54559697,11.15374254
-1.81883917,1.28610937,-0.76626286

>  <Name>
ligand

>  <RI>
0

>  <Rbt.Current_Directory>
/home/itssahil/PROJECTS/Mol_Feturizer/New_Systems/rnas/3B4B

>  <Rbt.Executable>
rbdock ($Id: //depot/dev/client3/rdock/2013.1/src/exe/rbdock.cxx#4 $)

>  <Rbt.Library>
libRbt.so (2013.1, Build901 2013/11/27)

>  <Rbt.Parameter_File>
/export/apps/rDock/src/rDock_2013.1_src/data/scripts/dock_solv.prm

>  <Rbt.Receptor>
prm/pocket_docking_6.prm

>  <SCORE>
-8.36291

>  <SCORE.INTER>
-6.68897

>  <SCORE.INTER.CONST>
1

>  <SCORE.INTER.POLAR>
0

>  <SCORE.INTER.ROT>
3

>  <SCORE.INTER.SOLV>
19.9631

>  <SCORE.INTER.VDW>
-16.7137

>  <SCORE.INTER.norm>
-0.418061

>  <SCORE.INTRA>
-1.67393

>  <SCORE.INTRA.DIHEDRAL>
-2.06302

>  <SCORE.INTRA.DIHEDRAL.0>
2.21864

>  <SCORE.INTRA.POLAR>
0

>  <SCORE.INTRA.POLAR.0>
0

>  <SCORE.INTRA.REPUL>
0

>  <SCORE.INTRA.REPUL.0>
0

>  <SCORE.INTRA.SOLV>
-1.18885

>  <SCORE.INTRA.SOLV.lig_0>
-58.5963

>  <SCORE.INTRA.VDW>
-0.0480004

>  <SCORE.INTRA.VDW.0>
-0.437849

>  <SCORE.INTRA.norm>
-0.104621

>  <SCORE.RESTR>
0

>  <SCORE.RESTR.CAVITY>
0

>  <SCORE.RESTR.norm>
0

>  <SCORE.SYSTEM>
0

>  <SCORE.SYSTEM.CONST>
0

>  <SCORE.SYSTEM.DIHEDRAL>
0

>  <SCORE.SYSTEM.SOLV>
0

>  <SCORE.SYSTEM.norm>
0

>  <SCORE.heavy>
16

>  <SCORE.norm>
-0.522682

>  <RMSD>
5.666

$$$$
ligand
 OpenBabel11021811463D
libRbt.so/2013.1/901 2013/11/27
 16 16  0  0  0  0  0  0  0  0999 V2000
   43.9164   11.1280   14.1879 P   0  0  2  0  0  0  0  0  0  0  0  0
   44.5693   11.4849   15.4714 O   0  0  0  0  0  0  0  0  0  0  0  0
   42.3209   11.3071   14.3036 O   0  5  0  0  0  0  0  0  0  0  0  0
   44.2376    9.5787   13.8408 O   0  0  0  0  0  0  0  0  0  0  0  0
   44.8680   12.6953    8.2570 C   0  0  2  0  0  0  0  0  0  0  0  0
   46.2928   12.7919    8.4001 O   0  0  0  0  0  0  0  0  0  0  0  0
   44.2022   14.0996    8.2087 C   0  0  2  0  0  0  0  0  0  0  0  0
   44.7684   14.8838    7.0890 N   0  0  0  0  0  0  0  0  0  0  0  0
   44.4701   14.8178    9.5482 C   0  0  1  0  0  0  0  0  0  0  0  0
   43.8510   16.1162    9.5484 O   0  0  0  0  0  0  0  0  0  0  0  0
   43.8750   13.9612   10.6754 C   0  0  2  0  0  0  0  0  0  0  0  0
   44.1208   14.5947   11.9387 O   0  0  0  0  0  0  0  0  0  0  0  0
   44.5589   12.5688   10.6443 C   0  0  2  0  0  0  0  0  0  0  0  0
   44.3232   11.9193    9.3619 O   0  0  0  0  0  0  0  0  0  0  0  0
   43.9722   11.6829   11.7572 C   0  0  0  0  0  0  0  0  0  0  0  0
   44.4782   12.1106   13.0349 O   0  0  0  0  0  0  0  0  0  0  0  0
  1  2  1  1  0  0  0
  1  3  1  0  0  0  0
  1  4  2  0  0  0  0
  1 16  1  0  0  0  0
  5  6  1  1  0  0  0
  5  7  1  0  0  0  0
  5 14  1  0  0  0  0
  7  8  1  6  0  0  0
  7  9  1  0  0  0  0
  9 10  1  6  0  0  0
  9 11  1  0  0  0  0
 11 12  1  1  0  0  0
 11 13  1  0  0  0  0
 13 14  1  0  0  0  0
 13 15  1  1  0  0  0
 15 16  1  0  0  0  0
M  CHG  1   3  -1
M  END
>  <CHROM.1>
-74.17403394,-177.12858285,173.53696079,44.27206134,12.70367244,11.32198284
-1.92759074,1.21754258,-0.72760839

>  <Name>
ligand

>  <RI>
0

>  <Rbt.Current_Directory>
/home/itssahil/PROJECTS/Mol_Feturizer/New_Systems/rnas/3B4B

>  <Rbt.Executable>
rbdock ($Id: //depot/dev/client3/rdock/2013.1/src/exe/rbdock.cxx#4 $)

>  <Rbt.Library>
libRbt.so (2013.1, Build901 2013/11/27)

>  <Rbt.Parameter_File>
/export/apps/rDock/src/rDock_2013.1_src/data/scripts/dock_solv.prm

>  <Rbt.Receptor>
prm/pocket_docking_8.prm

>  <SCORE>
-8.88852

>  <SCORE.INTER>
-7.80428

>  <SCORE.INTER.CONST>
1

>  <SCORE.INTER.POLAR>
0

>  <SCORE.INTER.ROT>
3

>  <SCORE.INTER.SOLV>
16.2621

>  <SCORE.INTER.VDW>
-16.2236

>  <SCORE.INTER.norm>
-0.487768

>  <SCORE.INTRA>
-1.08423

>  <SCORE.INTRA.DIHEDRAL>
-1.419

>  <SCORE.INTRA.DIHEDRAL.0>
2.21864

>  <SCORE.INTRA.POLAR>
0

>  <SCORE.INTRA.POLAR.0>
0

>  <SCORE.INTRA.REPUL>
0

>  <SCORE.INTRA.REPUL.0>
0

>  <SCORE.INTRA.SOLV>
-0.151908

>  <SCORE.INTRA.SOLV.lig_0>
-58.5963

>  <SCORE.INTRA.VDW>
-0.29878

>  <SCORE.INTRA.VDW.0>
-0.437849

>  <SCORE.INTRA.norm>
-0.0677646

>  <SCORE.RESTR>
0

>  <SCORE.RESTR.CAVITY>
0

>  <SCORE.RESTR.norm>
0

>  <SCORE.SYSTEM>
0

>  <SCORE.SYSTEM.CONST>
0

>  <SCORE.SYSTEM.DIHEDRAL>
0

>  <SCORE.SYSTEM.SOLV>
0

>  <SCORE.SYSTEM.norm>
0

>  <SCORE.heavy>
16

>  <SCORE.norm>
-0.555532

>  <RMSD>
5.676

$$$$
ligand
 OpenBabel11021811463D
libRbt.so/2013.1/901 2013/11/27
 16 16  0  0  0  0  0  0  0  0999 V2000
   44.3561   11.1930   14.0066 P   0  0  2  0  0  0  0  0  0  0  0  0
   44.8737   11.2951   15.3932 O   0  0  0  0  0  0  0  0  0  0  0  0
   43.1189   10.1650   13.9461 O   0  5  0  0  0  0  0  0  0  0  0  0
   45.5327   10.6413   13.0393 O   0  0  0  0  0  0  0  0  0  0  0  0
   41.6030   15.9703   12.5055 C   0  0  2  0  0  0  0  0  0  0  0  0
   40.6177   15.8537   11.4686 O   0  0  0  0  0  0  0  0  0  0  0  0
   42.8262   16.8096   12.0396 C   0  0  2  0  0  0  0  0  0  0  0  0
   42.3783   18.1551   11.6174 N   0  0  0  0  0  0  0  0  0  0  0  0
   43.5025   16.0809   10.8592 C   0  0  1  0  0  0  0  0  0  0  0  0
   44.6530   16.8197   10.4125 O   0  0  0  0  0  0  0  0  0  0  0  0
   43.9374   14.6902   11.3441 C   0  0  2  0  0  0  0  0  0  0  0  0
   44.5576   13.9789   10.2637 O   0  0  0  0  0  0  0  0  0  0  0  0
   42.6766   13.9228   11.8226 C   0  0  2  0  0  0  0  0  0  0  0  0
   42.0332   14.6409   12.9146 O   0  0  0  0  0  0  0  0  0  0  0  0
   43.0846   12.5276   12.3269 C   0  0  0  0  0  0  0  0  0  0  0  0
   43.8545   12.6550   13.5362 O   0  0  0  0  0  0  0  0  0  0  0  0
  1  2  1  1  0  0  0
  1  3  1  0  0  0  0
  1  4  2  0  0  0  0
  1 16  1  0  0  0  0
  5  6  1  6  0  0  0
  5  7  1  0  0  0  0
  5 14  1  0  0  0  0
  7  8  1  6  0  0  0
  7  9  1  0  0  0  0
  9 10  1  1  0  0  0
  9 11  1  0  0  0  0
 11 12  1  6  0  0  0
 11 13  1  0  0  0  0
 13 14  1  0  0  0  0
 13 15  1  1  0  0  0
 15 16  1  0  0  0  0
M  CHG  1   3  -1
M  END
>  <CHROM.1>
68.03670265,-176.47962171,-167.30316601,43.44596843,13.81237518,12.48537232
1.26846420,-0.47837408,2.55467543

>  <Name>
ligand

>  <RI>
0

>  <Rbt.Current_Directory>
/home/itssahil/PROJECTS/Mol_Feturizer/New_Systems/rnas/3B4B

>  <Rbt.Executable>
rbdock ($Id: //depot/dev/client3/rdock/2013.1/src/exe/rbdock.cxx#4 $)

>  <Rbt.Library>
libRbt.so (2013.1, Build901 2013/11/27)

>  <Rbt.Parameter_File>
/export/apps/rDock/src/rDock_2013.1_src/data/scripts/dock_solv.prm

>  <Rbt.Receptor>
prm/pocket_docking_8.prm

>  <SCORE>
-10.8367

>  <SCORE.INTER>
-9.65718

>  <SCORE.INTER.CONST>
1

>  <SCORE.INTER.POLAR>
0

>  <SCORE.INTER.ROT>
3

>  <SCORE.INTER.SOLV>
11.6397

>  <SCORE.INTER.VDW>
-15.918

>  <SCORE.INTER.norm>
-0.603574

>  <SCORE.INTRA>
-1.17954

>  <SCORE.INTRA.DIHEDRAL>
-1.66678

>  <SCORE.INTRA.DIHEDRAL.0>
2.21864

>  <SCORE.INTRA.POLAR>
0

>  <SCORE.INTRA.POLAR.0>
0

>  <SCORE.INTRA.REPUL>
0

>  <SCORE.INTRA.REPUL.0>
0

>  <SCORE.INTRA.SOLV>
-0.259019

>  <SCORE.INTRA.SOLV.lig_0>
-58.5963

>  <SCORE.INTRA.VDW>
-0.216644

>  <SCORE.INTRA.VDW.0>
-0.437849

>  <SCORE.INTRA.norm>
-0.0737213

>  <SCORE.RESTR>
0

>  <SCORE.RESTR.CAVITY>
0

>  <SCORE.RESTR.norm>
0

>  <SCORE.SYSTEM>
0

>  <SCORE.SYSTEM.CONST>
0

>  <SCORE.SYSTEM.DIHEDRAL>
0

>  <SCORE.SYSTEM.SOLV>
0

>  <SCORE.SYSTEM.norm>
0

>  <SCORE.heavy>
16

>  <SCORE.norm>
-0.677295

>  <RMSD>
5.676

$$$$
ligand
 OpenBabel11021811463D
libRbt.so/2013.1/901 2013/11/27
 16 16  0  0  0  0  0  0  0  0999 V2000
   44.3546   11.2126   14.0251 P   0  0  2  0  0  0  0  0  0  0  0  0
   44.8791   11.3134   15.4092 O   0  0  0  0  0  0  0  0  0  0  0  0
   43.1303   10.1692   13.9659 O   0  5  0  0  0  0  0  0  0  0  0  0
   45.5323   10.6817   13.0477 O   0  0  0  0  0  0  0  0  0  0  0  0
   41.6237   15.9996   12.5158 C   0  0  2  0  0  0  0  0  0  0  0  0
   40.6294   15.8847   11.4872 O   0  0  0  0  0  0  0  0  0  0  0  0
   42.8504   16.8252   12.0349 C   0  0  2  0  0  0  0  0  0  0  0  0
   42.4109   18.1717   11.6071 N   0  0  0  0  0  0  0  0  0  0  0  0
   43.5112   16.0828   10.8542 C   0  0  1  0  0  0  0  0  0  0  0  0
   44.6646   16.8086   10.3937 O   0  0  0  0  0  0  0  0  0  0  0  0
   43.9379   14.6916   11.3451 C   0  0  2  0  0  0  0  0  0  0  0  0
   44.5436   13.9678   10.2648 O   0  0  0  0  0  0  0  0  0  0  0  0
   42.6743   13.9384   11.8385 C   0  0  2  0  0  0  0  0  0  0  0  0
   42.0455   14.6693   12.9305 O   0  0  0  0  0  0  0  0  0  0  0  0
   43.0741   12.5431   12.3490 C   0  0  0  0  0  0  0  0  0  0  0  0
   43.8314   12.6707   13.5662 O   0  0  0  0  0  0  0  0  0  0  0  0
  1  2  1  1  0  0  0
  1  3  1  0  0  0  0
  1  4  2  0  0  0  0
  1 16  1  0  0  0  0
  5  6  1  6  0  0  0
  5  7  1  0  0  0  0
  5 14  1  0  0  0  0
  7  8  1  6  0  0  0
  7  9  1  0  0  0  0
  9 10  1  1  0  0  0
  9 11  1  0  0  0  0
 11 12  1  6  0  0  0
 11 13  1  0  0  0  0
 13 14  1  0  0  0  0
 13 15  1  1  0  0  0
 15 16  1  0  0  0  0
M  CHG  1   3  -1
M  END
>  <CHROM.1>
69.19098837,-175.15595526,-168.21991020,43.45062958,13.82720761,12.49496395
1.27001891,-0.48870322,2.54913519

>  <Name>
ligand

>  <RI>
0

>  <Rbt.Current_Directory>
/home/itssahil/PROJECTS/Mol_Feturizer/New_Systems/rnas/3B4B

>  <Rbt.Executable>
rbdock ($Id: //depot/dev/client3/rdock/2013.1/src/exe/rbdock.cxx#4 $)

>  <Rbt.Library>
libRbt.so (2013.1, Build901 2013/11/27)

>  <Rbt.Parameter_File>
/export/apps/rDock/src/rDock_2013.1_src/data/scripts/dock_solv.prm

>  <Rbt.Receptor>
prm/pocket_docking_8.prm

>  <SCORE>
-10.8339

>  <SCORE.INTER>
-9.68941

>  <SCORE.INTER.CONST>
1

>  <SCORE.INTER.POLAR>
0

>  <SCORE.INTER.ROT>
3

>  <SCORE.INTER.SOLV>
11.6579

>  <SCORE.INTER.VDW>
-15.9456

>  <SCORE.INTER.norm>
-0.605588

>  <SCORE.INTRA>
-1.14447

>  <SCORE.INTRA.DIHEDRAL>
-1.57755

>  <SCORE.INTRA.DIHEDRAL.0>
2.21864

>  <SCORE.INTRA.POLAR>
0

>  <SCORE.INTRA.POLAR.0>
0

>  <SCORE.INTRA.REPUL>
0

>  <SCORE.INTRA.REPUL.0>
0

>  <SCORE.INTRA.SOLV>
-0.239334

>  <SCORE.INTRA.SOLV.lig_0>
-58.5963

>  <SCORE.INTRA.VDW>
-0.236028

>  <SCORE.INTRA.VDW.0>
-0.437849

>  <SCORE.INTRA.norm>
-0.0715294

>  <SCORE.RESTR>
0

>  <SCORE.RESTR.CAVITY>
0

>  <SCORE.RESTR.norm>
0

>  <SCORE.SYSTEM>
0

>  <SCORE.SYSTEM.CONST>
0

>  <SCORE.SYSTEM.DIHEDRAL>
0

>  <SCORE.SYSTEM.SOLV>
0

>  <SCORE.SYSTEM.norm>
0

>  <SCORE.heavy>
16

>  <SCORE.norm>
-0.677117

>  <RMSD>
5.684

$$$$
ligand
 OpenBabel11021811463D
libRbt.so/2013.1/901 2013/11/27
 16 16  0  0  0  0  0  0  0  0999 V2000
   44.3328   11.1945   14.0282 P   0  0  2  0  0  0  0  0  0  0  0  0
   44.8390   11.2946   15.4191 O   0  0  0  0  0  0  0  0  0  0  0  0
   43.1047   10.1565   13.9537 O   0  5  0  0  0  0  0  0  0  0  0  0
   45.5212   10.6571   13.0674 O   0  0  0  0  0  0  0  0  0  0  0  0
   41.6015   15.9690   12.5102 C   0  0  2  0  0  0  0  0  0  0  0  0
   40.6186   15.8524   11.4709 O   0  0  0  0  0  0  0  0  0  0  0  0
   42.8235   16.8125   12.0488 C   0  0  2  0  0  0  0  0  0  0  0  0
   42.3732   18.1578   11.6287 N   0  0  0  0  0  0  0  0  0  0  0  0
   43.5040   16.0881   10.8681 C   0  0  1  0  0  0  0  0  0  0  0  0
   44.6537   16.8309   10.4254 O   0  0  0  0  0  0  0  0  0  0  0  0
   43.9414   14.6974   11.3507 C   0  0  2  0  0  0  0  0  0  0  0  0
   44.5657   13.9902   10.2699 O   0  0  0  0  0  0  0  0  0  0  0  0
   42.6816   13.9258   11.8248 C   0  0  2  0  0  0  0  0  0  0  0  0
   42.0341   14.6397   12.9172 O   0  0  0  0  0  0  0  0  0  0  0  0
   43.0920   12.5305   12.3268 C   0  0  0  0  0  0  0  0  0  0  0  0
   43.8225   12.6544   13.5606 O   0  0  0  0  0  0  0  0  0  0  0  0
  1  2  1  1  0  0  0
  1  3  1  0  0  0  0
  1  4  2  0  0  0  0
  1 16  1  0  0  0  0
  5  6  1  6  0  0  0
  5  7  1  0  0  0  0
  5 14  1  0  0  0  0
  7  8  1  6  0  0  0
  7  9  1  0  0  0  0
  9 10  1  1  0  0  0
  9 11  1  0  0  0  0
 11 12  1  6  0  0  0
 11 13  1  0  0  0  0
 13 14  1  0  0  0  0
 13 15  1  1  0  0  0
 15 16  1  0  0  0  0
M  CHG  1   3  -1
M  END
>  <CHROM.1>
69.85817721,-176.28577165,-168.76340756,43.43836608,13.81550397,12.49724323
1.27384631,-0.47896241,2.55475898

>  <Name>
ligand

>  <RI>
0

>  <Rbt.Current_Directory>
/home/itssahil/PROJECTS/Mol_Feturizer/New_Systems/rnas/3B4B

>  <Rbt.Executable>
rbdock ($Id: //depot/dev/client3/rdock/2013.1/src/exe/rbdock.cxx#4 $)

>  <Rbt.Library>
libRbt.so (2013.1, Build901 2013/11/27)

>  <Rbt.Parameter_File>
/export/apps/rDock/src/rDock_2013.1_src/data/scripts/dock_solv.prm

>  <Rbt.Receptor>
prm/pocket_docking_7.prm

>  <SCORE>
-10.8414

>  <SCORE.INTER>
-9.67244

>  <SCORE.INTER.CONST>
1

>  <SCORE.INTER.POLAR>
0

>  <SCORE.INTER.ROT>
3

>  <SCORE.INTER.SOLV>
11.7516

>  <SCORE.INTER.VDW>
-15.9655

>  <SCORE.INTER.norm>
-0.604527

>  <SCORE.INTRA>
-1.16898

>  <SCORE.INTRA.DIHEDRAL>
-1.60016

>  <SCORE.INTRA.DIHEDRAL.0>
2.21864

>  <SCORE.INTRA.POLAR>
0

>  <SCORE.INTRA.POLAR.0>
0

>  <SCORE.INTRA.REPUL>
0

>  <SCORE.INTRA.REPUL.0>
0

>  <SCORE.INTRA.SOLV>
-0.256226

>  <SCORE.INTRA.SOLV.lig_0>
-58.5963

>  <SCORE.INTRA.VDW>
-0.240783

>  <SCORE.INTRA.VDW.0>
-0.437849

>  <SCORE.INTRA.norm>
-0.0730611

>  <SCORE.RESTR>
0

>  <SCORE.RESTR.CAVITY>
0

>  <SCORE.RESTR.norm>
0

>  <SCORE.SYSTEM>
0

>  <SCORE.SYSTEM.CONST>
0

>  <SCORE.SYSTEM.DIHEDRAL>
0

>  <SCORE.SYSTEM.SOLV>
0

>  <SCORE.SYSTEM.norm>
0

>  <SCORE.heavy>
16

>  <SCORE.norm>
-0.677588

>  <RMSD>
5.685

$$$$
ligand
 OpenBabel11021811463D
libRbt.so/2013.1/901 2013/11/27
 16 16  0  0  0  0  0  0  0  0999 V2000
   44.7758   10.5689   14.2022 P   0  0  2  0  0  0  0  0  0  0  0  0
   45.0979    9.1909   14.6478 O   0  0  0  0  0  0  0  0  0  0  0  0
   44.3867   11.4880   15.4650 O   0  5  0  0  0  0  0  0  0  0  0  0
   43.5107   10.5187   13.1916 O   0  0  0  0  0  0  0  0  0  0  0  0
   47.7936   13.3552   10.3811 C   0  0  2  0  0  0  0  0  0  0  0  0
   47.8897   12.7610    9.0783 O   0  0  0  0  0  0  0  0  0  0  0  0
   49.1846   13.4513   11.0692 C   0  0  2  0  0  0  0  0  0  0  0  0
   50.1080   14.2396   10.2235 N   0  0  0  0  0  0  0  0  0  0  0  0
   49.7354   12.0234   11.2678 C   0  0  1  0  0  0  0  0  0  0  0  0
   51.0160   12.0710   11.9212 O   0  0  0  0  0  0  0  0  0  0  0  0
   48.7388   11.2453   12.1395 C   0  0  2  0  0  0  0  0  0  0  0  0
   49.2147    9.9056   12.3311 O   0  0  0  0  0  0  0  0  0  0  0  0
   47.3696   11.2169   11.4102 C   0  0  2  0  0  0  0  0  0  0  0  0
   46.8804   12.5732   11.2024 O   0  0  0  0  0  0  0  0  0  0  0  0
   46.3460   10.4530   12.2682 C   0  0  0  0  0  0  0  0  0  0  0  0
   46.0770   11.1910   13.4742 O   0  0  0  0  0  0  0  0  0  0  0  0
  1  2  1  1  0  0  0
  1  3  1  0  0  0  0
  1  4  2  0  0  0  0
  1 16  1  0  0  0  0
  5  6  1  6  0  0  0
  5  7  1  0  0  0  0
  5 14  1  0  0  0  0
  7  8  1  6  0  0  0
  7  9  1  0  0  0  0
  9 10  1  1  0  0  0
  9 11  1  0  0  0  0
 11 12  1  6  0  0  0
 11 13  1  0  0  0  0
 13 14  1  0  0  0  0
 13 15  1  1  0  0  0
 15 16  1  0  0  0  0
M  CHG  1   3  -1
M  END
>  <CHROM.1>
66.70336464,167.30604658,65.55040291,47.14468813,11.52939815,12.33114987
2.42886161,-0.11941604,2.28862296

>  <Name>
ligand

>  <RI>
0

>  <Rbt.Current_Directory>
/home/itssahil/PROJECTS/Mol_Feturizer/New_Systems/rnas/3B4B

>  <Rbt.Executable>
rbdock ($Id: //depot/dev/client3/rdock/2013.1/src/exe/rbdock.cxx#4 $)

>  <Rbt.Library>
libRbt.so (2013.1, Build901 2013/11/27)

>  <Rbt.Parameter_File>
/export/apps/rDock/src/rDock_2013.1_src/data/scripts/dock_solv.prm

>  <Rbt.Receptor>
prm/pocket_docking_5.prm

>  <SCORE>
-7.84718

>  <SCORE.INTER>
-6.58556

>  <SCORE.INTER.CONST>
1

>  <SCORE.INTER.POLAR>
-0.899487

>  <SCORE.INTER.ROT>
3

>  <SCORE.INTER.SOLV>
21

>  <SCORE.INTER.VDW>
-13.9921

>  <SCORE.INTER.norm>
-0.411598

>  <SCORE.INTRA>
-1.26162

>  <SCORE.INTRA.DIHEDRAL>
-1.238

>  <SCORE.INTRA.DIHEDRAL.0>
2.21864

>  <SCORE.INTRA.POLAR>
0

>  <SCORE.INTRA.POLAR.0>
0

>  <SCORE.INTRA.REPUL>
0

>  <SCORE.INTRA.REPUL.0>
0

>  <SCORE.INTRA.SOLV>
-0.812848

>  <SCORE.INTRA.SOLV.lig_0>
-58.5963

>  <SCORE.INTRA.VDW>
-0.23619

>  <SCORE.INTRA.VDW.0>
-0.437849

>  <SCORE.INTRA.norm>
-0.0788509

>  <SCORE.RESTR>
0

>  <SCORE.RESTR.CAVITY>
0

>  <SCORE.RESTR.norm>
0

>  <SCORE.SYSTEM>
0

>  <SCORE.SYSTEM.CONST>
0

>  <SCORE.SYSTEM.DIHEDRAL>
0

>  <SCORE.SYSTEM.SOLV>
0

>  <SCORE.SYSTEM.norm>
0

>  <SCORE.heavy>
16

>  <SCORE.norm>
-0.490449

>  <RMSD>
5.686

$$$$
ligand
 OpenBabel11021811463D
libRbt.so/2013.1/901 2013/11/27
 16 16  0  0  0  0  0  0  0  0999 V2000
   44.3247   11.1840   14.0373 P   0  0  2  0  0  0  0  0  0  0  0  0
   44.8165   11.2815   15.4336 O   0  0  0  0  0  0  0  0  0  0  0  0
   43.0920   10.1526   13.9497 O   0  5  0  0  0  0  0  0  0  0  0  0
   45.5204   10.6401   13.0893 O   0  0  0  0  0  0  0  0  0  0  0  0
   41.6024   15.9651   12.5102 C   0  0  2  0  0  0  0  0  0  0  0  0
   40.6263   15.8507   11.4643 O   0  0  0  0  0  0  0  0  0  0  0  0
   42.8295   16.8056   12.0570 C   0  0  2  0  0  0  0  0  0  0  0  0
   42.3852   18.1520   11.6340 N   0  0  0  0  0  0  0  0  0  0  0  0
   43.5163   16.0797   10.8810 C   0  0  1  0  0  0  0  0  0  0  0  0
   44.6706   16.8197   10.4461 O   0  0  0  0  0  0  0  0  0  0  0  0
   43.9471   14.6879   11.3664 C   0  0  2  0  0  0  0  0  0  0  0  0
   44.5769   13.9792   10.2899 O   0  0  0  0  0  0  0  0  0  0  0  0
   42.6822   13.9193   11.8321 C   0  0  2  0  0  0  0  0  0  0  0  0
   42.0291   14.6347   12.9200 O   0  0  0  0  0  0  0  0  0  0  0  0
   43.0859   12.5230   12.3367 C   0  0  0  0  0  0  0  0  0  0  0  0
   43.8273   12.6465   13.5642 O   0  0  0  0  0  0  0  0  0  0  0  0
  1  2  1  1  0  0  0
  1  3  1  0  0  0  0
  1  4  2  0  0  0  0
  1 16  1  0  0  0  0
  5  6  1  6  0  0  0
  5  7  1  0  0  0  0
  5 14  1  0  0  0  0
  7  8  1  6  0  0  0
  7  9  1  0  0  0  0
  9 10  1  1  0  0  0
  9 11  1  0  0  0  0
 11 12  1  6  0  0  0
 11 13  1  0  0  0  0
 13 14  1  0  0  0  0
 13 15  1  1  0  0  0
 15 16  1  0  0  0  0
M  CHG  1   3  -1
M  END
>  <CHROM.1>
68.92864215,-176.52410583,-167.60442274,43.43898938,13.80715810,12.50612145
1.27760534,-0.47297364,2.55850345

>  <Name>
ligand

>  <RI>
0

>  <Rbt.Current_Directory>
/home/itssahil/PROJECTS/Mol_Feturizer/New_Systems/rnas/3B4B

>  <Rbt.Executable>
rbdock ($Id: //depot/dev/client3/rdock/2013.1/src/exe/rbdock.cxx#4 $)

>  <Rbt.Library>
libRbt.so (2013.1, Build901 2013/11/27)

>  <Rbt.Parameter_File>
/export/apps/rDock/src/rDock_2013.1_src/data/scripts/dock_solv.prm

>  <Rbt.Receptor>
prm/pocket_docking_7.prm

>  <SCORE>
-10.8457

>  <SCORE.INTER>
-9.68115

>  <SCORE.INTER.CONST>
1

>  <SCORE.INTER.POLAR>
0

>  <SCORE.INTER.ROT>
3

>  <SCORE.INTER.SOLV>
11.8216

>  <SCORE.INTER.VDW>
-15.9946

>  <SCORE.INTER.norm>
-0.605072

>  <SCORE.INTRA>
-1.16456

>  <SCORE.INTRA.DIHEDRAL>
-1.62685

>  <SCORE.INTRA.DIHEDRAL.0>
2.21864

>  <SCORE.INTRA.POLAR>
0

>  <SCORE.INTRA.POLAR.0>
0

>  <SCORE.INTRA.REPUL>
0

>  <SCORE.INTRA.REPUL.0>
0

>  <SCORE.INTRA.SOLV>
-0.260413

>  <SCORE.INTRA.SOLV.lig_0>
-58.5963

>  <SCORE.INTRA.VDW>
-0.220927

>  <SCORE.INTRA.VDW.0>
-0.437849

>  <SCORE.INTRA.norm>
-0.0727849

>  <SCORE.RESTR>
0

>  <SCORE.RESTR.CAVITY>
0

>  <SCORE.RESTR.norm>
0

>  <SCORE.SYSTEM>
0

>  <SCORE.SYSTEM.CONST>
0

>  <SCORE.SYSTEM.DIHEDRAL>
0

>  <SCORE.SYSTEM.SOLV>
0

>  <SCORE.SYSTEM.norm>
0

>  <SCORE.heavy>
16

>  <SCORE.norm>
-0.677857

>  <RMSD>
5.686

$$$$
ligand
 OpenBabel11021811463D
libRbt.so/2013.1/901 2013/11/27
 16 16  0  0  0  0  0  0  0  0999 V2000
   44.3351   11.2004   14.0298 P   0  0  2  0  0  0  0  0  0  0  0  0
   44.8364   11.3023   15.4225 O   0  0  0  0  0  0  0  0  0  0  0  0
   43.1099   10.1594   13.9516 O   0  5  0  0  0  0  0  0  0  0  0  0
   45.5281   10.6656   13.0733 O   0  0  0  0  0  0  0  0  0  0  0  0
   41.6020   15.9718   12.5017 C   0  0  2  0  0  0  0  0  0  0  0  0
   40.6184   15.8527   11.4634 O   0  0  0  0  0  0  0  0  0  0  0  0
   42.8244   16.8129   12.0368 C   0  0  2  0  0  0  0  0  0  0  0  0
   42.3748   18.1573   11.6129 N   0  0  0  0  0  0  0  0  0  0  0  0
   43.5036   16.0843   10.8579 C   0  0  1  0  0  0  0  0  0  0  0  0
   44.6535   16.8248   10.4122 O   0  0  0  0  0  0  0  0  0  0  0  0
   43.9402   14.6948   11.3446 C   0  0  2  0  0  0  0  0  0  0  0  0
   44.5631   13.9837   10.2656 O   0  0  0  0  0  0  0  0  0  0  0  0
   42.6800   13.9256   11.8220 C   0  0  2  0  0  0  0  0  0  0  0  0
   42.0339   14.6435   12.9125 O   0  0  0  0  0  0  0  0  0  0  0  0
   43.0897   12.5315   12.3280 C   0  0  0  0  0  0  0  0  0  0  0  0
   43.8228   12.6588   13.5600 O   0  0  0  0  0  0  0  0  0  0  0  0
  1  2  1  1  0  0  0
  1  3  1  0  0  0  0
  1  4  2  0  0  0  0
  1 16  1  0  0  0  0
  5  6  1  6  0  0  0
  5  7  1  0  0  0  0
  5 14  1  0  0  0  0
  7  8  1  6  0  0  0
  7  9  1  0  0  0  0
  9 10  1  1  0  0  0
  9 11  1  0  0  0  0
 11 12  1  6  0  0  0
 11 13  1  0  0  0  0
 13 14  1  0  0  0  0
 13 15  1  1  0  0  0
 15 16  1  0  0  0  0
M  CHG  1   3  -1
M  END
>  <CHROM.1>
69.77669897,-176.15372858,-168.41079664,43.43893146,13.81704702,12.49312197
1.27317635,-0.47929867,2.55195887

>  <Name>
ligand

>  <RI>
0

>  <Rbt.Current_Directory>
/home/itssahil/PROJECTS/Mol_Feturizer/New_Systems/rnas/3B4B

>  <Rbt.Executable>
rbdock ($Id: //depot/dev/client3/rdock/2013.1/src/exe/rbdock.cxx#4 $)

>  <Rbt.Library>
libRbt.so (2013.1, Build901 2013/11/27)

>  <Rbt.Parameter_File>
/export/apps/rDock/src/rDock_2013.1_src/data/scripts/dock_solv.prm

>  <Rbt.Receptor>
prm/pocket_docking_8.prm

>  <SCORE>
-10.8466

>  <SCORE.INTER>
-9.6899

>  <SCORE.INTER.CONST>
1

>  <SCORE.INTER.POLAR>
0

>  <SCORE.INTER.ROT>
3

>  <SCORE.INTER.SOLV>
11.7593

>  <SCORE.INTER.VDW>
-15.9797

>  <SCORE.INTER.norm>
-0.605619

>  <SCORE.INTRA>
-1.15669

>  <SCORE.INTRA.DIHEDRAL>
-1.58826

>  <SCORE.INTRA.DIHEDRAL.0>
2.21864

>  <SCORE.INTRA.POLAR>
0

>  <SCORE.INTRA.POLAR.0>
0

>  <SCORE.INTRA.REPUL>
0

>  <SCORE.INTRA.REPUL.0>
0

>  <SCORE.INTRA.SOLV>
-0.255

>  <SCORE.INTRA.SOLV.lig_0>
-58.5963

>  <SCORE.INTRA.VDW>
-0.235059

>  <SCORE.INTRA.VDW.0>
-0.437849

>  <SCORE.INTRA.norm>
-0.0722932

>  <SCORE.RESTR>
0

>  <SCORE.RESTR.CAVITY>
0

>  <SCORE.RESTR.norm>
0

>  <SCORE.SYSTEM>
0

>  <SCORE.SYSTEM.CONST>
0

>  <SCORE.SYSTEM.DIHEDRAL>
0

>  <SCORE.SYSTEM.SOLV>
0

>  <SCORE.SYSTEM.norm>
0

>  <SCORE.heavy>
16

>  <SCORE.norm>
-0.677912

>  <RMSD>
5.686

$$$$
ligand
 OpenBabel11021811463D
libRbt.so/2013.1/901 2013/11/27
 16 16  0  0  0  0  0  0  0  0999 V2000
   43.9832   10.6933   14.0300 P   0  0  2  0  0  0  0  0  0  0  0  0
   44.0751   11.7786   15.0373 O   0  0  0  0  0  0  0  0  0  0  0  0
   42.4465   10.2727   13.8003 O   0  5  0  0  0  0  0  0  0  0  0  0
   44.7971    9.3996   14.5667 O   0  0  0  0  0  0  0  0  0  0  0  0
   44.7634   12.4553    8.5681 C   0  0  2  0  0  0  0  0  0  0  0  0
   46.1929   12.5159    8.6802 O   0  0  0  0  0  0  0  0  0  0  0  0
   44.1625   13.8330    8.1701 C   0  0  2  0  0  0  0  0  0  0  0  0
   44.7491   14.2835    6.8886 N   0  0  0  0  0  0  0  0  0  0  0  0
   44.4814   14.8501    9.2862 C   0  0  1  0  0  0  0  0  0  0  0  0
   43.9231   16.1354    8.9617 O   0  0  0  0  0  0  0  0  0  0  0  0
   43.8628   14.3328   10.5931 C   0  0  2  0  0  0  0  0  0  0  0  0
   44.1548   15.2500   11.6568 O   0  0  0  0  0  0  0  0  0  0  0  0
   44.4812   12.9458   10.9113 C   0  0  2  0  0  0  0  0  0  0  0  0
   44.1983   12.0079    9.8331 O   0  0  0  0  0  0  0  0  0  0  0  0
   43.8693   12.3962   12.2117 C   0  0  0  0  0  0  0  0  0  0  0  0
   44.5997   11.2312   12.6370 O   0  0  0  0  0  0  0  0  0  0  0  0
  1  2  1  1  0  0  0
  1  3  1  0  0  0  0
  1  4  2  0  0  0  0
  1 16  1  0  0  0  0
  5  6  1  1  0  0  0
  5  7  1  0  0  0  0
  5 14  1  0  0  0  0
  7  8  1  6  0  0  0
  7  9  1  0  0  0  0
  9 10  1  6  0  0  0
  9 11  1  0  0  0  0
 11 12  1  1  0  0  0
 11 13  1  0  0  0  0
 13 14  1  0  0  0  0
 13 15  1  1  0  0  0
 15 16  1  0  0  0  0
M  CHG  1   3  -1
M  END
>  <CHROM.1>
-169.96390128,177.99656632,-58.66491125,44.27424837,12.58749930,11.28068785
-1.84774465,1.23912662,-0.71858122

>  <Name>
ligand

>  <RI>
0

>  <Rbt.Current_Directory>
/home/itssahil/PROJECTS/Mol_Feturizer/New_Systems/rnas/3B4B

>  <Rbt.Executable>
rbdock ($Id: //depot/dev/client3/rdock/2013.1/src/exe/rbdock.cxx#4 $)

>  <Rbt.Library>
libRbt.so (2013.1, Build901 2013/11/27)

>  <Rbt.Parameter_File>
/export/apps/rDock/src/rDock_2013.1_src/data/scripts/dock_solv.prm

>  <Rbt.Receptor>
prm/pocket_docking_7.prm

>  <SCORE>
-8.33878

>  <SCORE.INTER>
-6.76405

>  <SCORE.INTER.CONST>
1

>  <SCORE.INTER.POLAR>
0

>  <SCORE.INTER.ROT>
3

>  <SCORE.INTER.SOLV>
18.8104

>  <SCORE.INTER.VDW>
-16.3795

>  <SCORE.INTER.norm>
-0.422753

>  <SCORE.INTRA>
-1.57473

>  <SCORE.INTRA.DIHEDRAL>
-1.83748

>  <SCORE.INTRA.DIHEDRAL.0>
2.21864

>  <SCORE.INTRA.POLAR>
0

>  <SCORE.INTRA.POLAR.0>
0

>  <SCORE.INTRA.REPUL>
0

>  <SCORE.INTRA.REPUL.0>
0

>  <SCORE.INTRA.SOLV>
-1.21312

>  <SCORE.INTRA.SOLV.lig_0>
-58.5963

>  <SCORE.INTRA.VDW>
-0.0494285

>  <SCORE.INTRA.VDW.0>
-0.437849

>  <SCORE.INTRA.norm>
-0.0984205

>  <SCORE.RESTR>
0

>  <SCORE.RESTR.CAVITY>
0

>  <SCORE.RESTR.norm>
0

>  <SCORE.SYSTEM>
0

>  <SCORE.SYSTEM.CONST>
0

>  <SCORE.SYSTEM.DIHEDRAL>
0

>  <SCORE.SYSTEM.SOLV>
0

>  <SCORE.SYSTEM.norm>
0

>  <SCORE.heavy>
16

>  <SCORE.norm>
-0.521174

>  <RMSD>
5.688

$$$$
ligand
 OpenBabel11021811463D
libRbt.so/2013.1/901 2013/11/27
 16 16  0  0  0  0  0  0  0  0999 V2000
   44.3419   11.2085   14.0474 P   0  0  2  0  0  0  0  0  0  0  0  0
   44.8504   11.3090   15.4375 O   0  0  0  0  0  0  0  0  0  0  0  0
   43.1125   10.1719   13.9756 O   0  5  0  0  0  0  0  0  0  0  0  0
   45.5281   10.6691   13.0852 O   0  0  0  0  0  0  0  0  0  0  0  0
   41.6200   15.9942   12.5243 C   0  0  2  0  0  0  0  0  0  0  0  0
   40.6328   15.8791   11.4891 O   0  0  0  0  0  0  0  0  0  0  0  0
   42.8478   16.8239   12.0532 C   0  0  2  0  0  0  0  0  0  0  0  0
   42.4078   18.1703   11.6256 N   0  0  0  0  0  0  0  0  0  0  0  0
   43.5181   16.0858   10.8753 C   0  0  1  0  0  0  0  0  0  0  0  0
   44.6727   16.8155   10.4239 O   0  0  0  0  0  0  0  0  0  0  0  0
   43.9451   14.6946   11.3658 C   0  0  2  0  0  0  0  0  0  0  0  0
   44.5596   13.9747   10.2878 O   0  0  0  0  0  0  0  0  0  0  0  0
   42.6801   13.9372   11.8493 C   0  0  2  0  0  0  0  0  0  0  0  0
   42.0425   14.6640   12.9388 O   0  0  0  0  0  0  0  0  0  0  0  0
   43.0801   12.5417   12.3593 C   0  0  0  0  0  0  0  0  0  0  0  0
   43.8325   12.6686   13.5797 O   0  0  0  0  0  0  0  0  0  0  0  0
  1  2  1  1  0  0  0
  1  3  1  0  0  0  0
  1  4  2  0  0  0  0
  1 16  1  0  0  0  0
  5  6  1  6  0  0  0
  5  7  1  0  0  0  0
  5 14  1  0  0  0  0
  7  8  1  6  0  0  0
  7  9  1  0  0  0  0
  9 10  1  1  0  0  0
  9 11  1  0  0  0  0
 11 12  1  6  0  0  0
 11 13  1  0  0  0  0
 13 14  1  0  0  0  0
 13 15  1  1  0  0  0
 15 16  1  0  0  0  0
M  CHG  1   3  -1
M  END
>  <CHROM.1>
69.02977747,-175.79304275,-167.77686122,43.44833094,13.82558801,12.51309790
1.27418052,-0.48313866,2.55198444

>  <Name>
ligand

>  <RI>
0

>  <Rbt.Current_Directory>
/home/itssahil/PROJECTS/Mol_Feturizer/New_Systems/rnas/3B4B

>  <Rbt.Executable>
rbdock ($Id: //depot/dev/client3/rdock/2013.1/src/exe/rbdock.cxx#4 $)

>  <Rbt.Library>
libRbt.so (2013.1, Build901 2013/11/27)

>  <Rbt.Parameter_File>
/export/apps/rDock/src/rDock_2013.1_src/data/scripts/dock_solv.prm

>  <Rbt.Receptor>
prm/pocket_docking_8.prm

>  <SCORE>
-10.8287

>  <SCORE.INTER>
-9.67778

>  <SCORE.INTER.CONST>
1

>  <SCORE.INTER.POLAR>
0

>  <SCORE.INTER.ROT>
3

>  <SCORE.INTER.SOLV>
11.8271

>  <SCORE.INTER.VDW>
-15.9942

>  <SCORE.INTER.norm>
-0.604861

>  <SCORE.INTRA>
-1.15094

>  <SCORE.INTRA.DIHEDRAL>
-1.59952

>  <SCORE.INTRA.DIHEDRAL.0>
2.21864

>  <SCORE.INTRA.POLAR>
0

>  <SCORE.INTRA.POLAR.0>
0

>  <SCORE.INTRA.REPUL>
0

>  <SCORE.INTRA.REPUL.0>
0

>  <SCORE.INTRA.SOLV>
-0.250054

>  <SCORE.INTRA.SOLV.lig_0>
-58.5963

>  <SCORE.INTRA.VDW>
-0.226146

>  <SCORE.INTRA.VDW.0>
-0.437849

>  <SCORE.INTRA.norm>
-0.0719334

>  <SCORE.RESTR>
0

>  <SCORE.RESTR.CAVITY>
0

>  <SCORE.RESTR.norm>
0

>  <SCORE.SYSTEM>
0

>  <SCORE.SYSTEM.CONST>
0

>  <SCORE.SYSTEM.DIHEDRAL>
0

>  <SCORE.SYSTEM.SOLV>
0

>  <SCORE.SYSTEM.norm>
0

>  <SCORE.heavy>
16

>  <SCORE.norm>
-0.676795

>  <RMSD>
5.688

$$$$
ligand
 OpenBabel11021811463D
libRbt.so/2013.1/901 2013/11/27
 16 16  0  0  0  0  0  0  0  0999 V2000
   43.8665   11.1460   14.2108 P   0  0  2  0  0  0  0  0  0  0  0  0
   44.5945   11.4133   15.4756 O   0  0  0  0  0  0  0  0  0  0  0  0
   42.2960   11.4466   14.3958 O   0  5  0  0  0  0  0  0  0  0  0  0
   44.0495    9.5868   13.8114 O   0  0  0  0  0  0  0  0  0  0  0  0
   44.8658   12.7116    8.2900 C   0  0  2  0  0  0  0  0  0  0  0  0
   46.2909   12.7841    8.4438 O   0  0  0  0  0  0  0  0  0  0  0  0
   44.2244   14.1269    8.2349 C   0  0  2  0  0  0  0  0  0  0  0  0
   44.8123   14.8998    7.1186 N   0  0  0  0  0  0  0  0  0  0  0  0
   44.4943   14.8423    9.5755 C   0  0  1  0  0  0  0  0  0  0  0  0
   43.8975   16.1511    9.5694 O   0  0  0  0  0  0  0  0  0  0  0  0
   43.8763   13.9974   10.6992 C   0  0  2  0  0  0  0  0  0  0  0  0
   44.1233   14.6284   11.9636 O   0  0  0  0  0  0  0  0  0  0  0  0
   44.5366   12.5936   10.6751 C   0  0  2  0  0  0  0  0  0  0  0  0
   44.2995   11.9465    9.3917 O   0  0  0  0  0  0  0  0  0  0  0  0
   43.9265   11.7194   11.7846 C   0  0  0  0  0  0  0  0  0  0  0  0
   44.4600   12.1141   13.0616 O   0  0  0  0  0  0  0  0  0  0  0  0
  1  2  1  1  0  0  0
  1  3  1  0  0  0  0
  1  4  2  0  0  0  0
  1 16  1  0  0  0  0
  5  6  1  1  0  0  0
  5  7  1  0  0  0  0
  5 14  1  0  0  0  0
  7  8  1  6  0  0  0
  7  9  1  0  0  0  0
  9 10  1  6  0  0  0
  9 11  1  0  0  0  0
 11 12  1  1  0  0  0
 11 13  1  0  0  0  0
 13 14  1  0  0  0  0
 13 15  1  1  0  0  0
 15 16  1  0  0  0  0
M  CHG  1   3  -1
M  END
>  <CHROM.1>
-75.86241780,-177.37651918,170.54603770,44.25542422,12.72610796,11.34876186
-1.96927223,1.22390523,-0.68599138

>  <Name>
ligand

>  <RI>
0

>  <Rbt.Current_Directory>
/home/itssahil/PROJECTS/Mol_Feturizer/New_Systems/rnas/3B4B

>  <Rbt.Executable>
rbdock ($Id: //depot/dev/client3/rdock/2013.1/src/exe/rbdock.cxx#4 $)

>  <Rbt.Library>
libRbt.so (2013.1, Build901 2013/11/27)

>  <Rbt.Parameter_File>
/export/apps/rDock/src/rDock_2013.1_src/data/scripts/dock_solv.prm

>  <Rbt.Receptor>
prm/pocket_docking_8.prm

>  <SCORE>
-8.92332

>  <SCORE.INTER>
-7.94359

>  <SCORE.INTER.CONST>
1

>  <SCORE.INTER.POLAR>
0

>  <SCORE.INTER.ROT>
3

>  <SCORE.INTER.SOLV>
16.1414

>  <SCORE.INTER.VDW>
-16.2762

>  <SCORE.INTER.norm>
-0.496474

>  <SCORE.INTRA>
-0.979733

>  <SCORE.INTRA.DIHEDRAL>
-1.18558

>  <SCORE.INTRA.DIHEDRAL.0>
2.21864

>  <SCORE.INTRA.POLAR>
0

>  <SCORE.INTRA.POLAR.0>
0

>  <SCORE.INTRA.REPUL>
0

>  <SCORE.INTRA.REPUL.0>
0

>  <SCORE.INTRA.SOLV>
-0.162577

>  <SCORE.INTRA.SOLV.lig_0>
-58.5963

>  <SCORE.INTRA.VDW>
-0.305655

>  <SCORE.INTRA.VDW.0>
-0.437849

>  <SCORE.INTRA.norm>
-0.0612333

>  <SCORE.RESTR>
0

>  <SCORE.RESTR.CAVITY>
0

>  <SCORE.RESTR.norm>
0

>  <SCORE.SYSTEM>
0

>  <SCORE.SYSTEM.CONST>
0

>  <SCORE.SYSTEM.DIHEDRAL>
0

>  <SCORE.SYSTEM.SOLV>
0

>  <SCORE.SYSTEM.norm>
0

>  <SCORE.heavy>
16

>  <SCORE.norm>
-0.557708

>  <RMSD>
5.690

$$$$
ligand
 OpenBabel11021811463D
libRbt.so/2013.1/901 2013/11/27
 16 16  0  0  0  0  0  0  0  0999 V2000
   44.7117   10.7546   14.0633 P   0  0  2  0  0  0  0  0  0  0  0  0
   45.1178    9.3812   14.4504 O   0  0  0  0  0  0  0  0  0  0  0  0
   44.3720   11.6269   15.3728 O   0  5  0  0  0  0  0  0  0  0  0  0
   43.3845   10.6755   13.1378 O   0  0  0  0  0  0  0  0  0  0  0  0
   47.7331   13.6386   10.2968 C   0  0  2  0  0  0  0  0  0  0  0  0
   47.7206   13.1338    8.9534 O   0  0  0  0  0  0  0  0  0  0  0  0
   49.1621   13.5996   10.9085 C   0  0  2  0  0  0  0  0  0  0  0  0
   50.0888   14.3876   10.0663 N   0  0  0  0  0  0  0  0  0  0  0  0
   49.6279   12.1299   10.9780 C   0  0  1  0  0  0  0  0  0  0  0  0
   50.9418   12.0519   11.5583 O   0  0  0  0  0  0  0  0  0  0  0  0
   48.6303   11.3547   11.8511 C   0  0  2  0  0  0  0  0  0  0  0  0
   49.0269    9.9780   11.9239 O   0  0  0  0  0  0  0  0  0  0  0  0
   47.2253   11.4627   11.2017 C   0  0  2  0  0  0  0  0  0  0  0  0
   46.8157   12.8580   11.1146 O   0  0  0  0  0  0  0  0  0  0  0  0
   46.2009   10.7043   12.0635 C   0  0  0  0  0  0  0  0  0  0  0  0
   45.9352   11.4472   13.2673 O   0  0  0  0  0  0  0  0  0  0  0  0
  1  2  1  1  0  0  0
  1  3  1  0  0  0  0
  1  4  2  0  0  0  0
  1 16  1  0  0  0  0
  5  6  1  6  0  0  0
  5  7  1  0  0  0  0
  5 14  1  0  0  0  0
  7  8  1  6  0  0  0
  7  9  1  0  0  0  0
  9 10  1  1  0  0  0
  9 11  1  0  0  0  0
 11 12  1  6  0  0  0
 11 13  1  0  0  0  0
 13 14  1  0  0  0  0
 13 15  1  1  0  0  0
 15 16  1  0  0  0  0
M  CHG  1   3  -1
M  END
>  <CHROM.1>
72.99405687,172.07023994,62.34023055,47.05662172,11.71275413,12.14338696
2.43681154,-0.19974154,2.36509784

>  <Name>
ligand

>  <RI>
0

>  <Rbt.Current_Directory>
/home/itssahil/PROJECTS/Mol_Feturizer/New_Systems/rnas/3B4B

>  <Rbt.Executable>
rbdock ($Id: //depot/dev/client3/rdock/2013.1/src/exe/rbdock.cxx#4 $)

>  <Rbt.Library>
libRbt.so (2013.1, Build901 2013/11/27)

>  <Rbt.Parameter_File>
/export/apps/rDock/src/rDock_2013.1_src/data/scripts/dock_solv.prm

>  <Rbt.Receptor>
prm/pocket_docking_8.prm

>  <SCORE>
-7.41085

>  <SCORE.INTER>
-6.11203

>  <SCORE.INTER.CONST>
1

>  <SCORE.INTER.POLAR>
-0.897244

>  <SCORE.INTER.ROT>
3

>  <SCORE.INTER.SOLV>
19.4344

>  <SCORE.INTER.VDW>
-13.162

>  <SCORE.INTER.norm>
-0.382002

>  <SCORE.INTRA>
-1.30874

>  <SCORE.INTRA.DIHEDRAL>
-1.3131

>  <SCORE.INTRA.DIHEDRAL.0>
2.21864

>  <SCORE.INTRA.POLAR>
0

>  <SCORE.INTRA.POLAR.0>
0

>  <SCORE.INTRA.REPUL>
0

>  <SCORE.INTRA.REPUL.0>
0

>  <SCORE.INTRA.SOLV>
-0.892509

>  <SCORE.INTRA.SOLV.lig_0>
-58.5963

>  <SCORE.INTRA.VDW>
-0.205937

>  <SCORE.INTRA.VDW.0>
-0.437849

>  <SCORE.INTRA.norm>
-0.0817965

>  <SCORE.RESTR>
0.00991894

>  <SCORE.RESTR.CAVITY>
0.00991894

>  <SCORE.RESTR.norm>
0.000619934

>  <SCORE.SYSTEM>
0

>  <SCORE.SYSTEM.CONST>
0

>  <SCORE.SYSTEM.DIHEDRAL>
0

>  <SCORE.SYSTEM.SOLV>
0

>  <SCORE.SYSTEM.norm>
0

>  <SCORE.heavy>
16

>  <SCORE.norm>
-0.463178

>  <RMSD>
5.702

$$$$
ligand
 OpenBabel11021811463D
libRbt.so/2013.1/901 2013/11/27
 16 16  0  0  0  0  0  0  0  0999 V2000
   42.6693   13.9085   11.9117 P   0  0  2  0  0  0  0  0  0  0  0  0
   41.6058   13.3429   11.0456 O   0  0  0  0  0  0  0  0  0  0  0  0
   42.2663   13.7571   13.4627 O   0  5  0  0  0  0  0  0  0  0  0  0
   42.8462   15.4834   11.5763 O   0  0  0  0  0  0  0  0  0  0  0  0
   46.6927   10.5291    9.7457 C   0  0  2  0  0  0  0  0  0  0  0  0
   46.4138    9.1214    9.7275 O   0  0  0  0  0  0  0  0  0  0  0  0
   47.8721   10.8656   10.7014 C   0  0  2  0  0  0  0  0  0  0  0  0
   49.0804   10.1185   10.2878 N   0  0  0  0  0  0  0  0  0  0  0  0
   47.4698   10.4702   12.1380 C   0  0  1  0  0  0  0  0  0  0  0  0
   48.5314   10.7855   13.0560 O   0  0  0  0  0  0  0  0  0  0  0  0
   46.2087   11.2616   12.5144 C   0  0  2  0  0  0  0  0  0  0  0  0
   45.7984   10.9052   13.8420 O   0  0  0  0  0  0  0  0  0  0  0  0
   45.0869   10.9034   11.5041 C   0  0  2  0  0  0  0  0  0  0  0  0
   45.4963   11.2533   10.1506 O   0  0  0  0  0  0  0  0  0  0  0  0
   43.8124   11.6930   11.8499 C   0  0  0  0  0  0  0  0  0  0  0  0
   44.0400   13.0983   11.6381 O   0  0  0  0  0  0  0  0  0  0  0  0
  1  2  1  6  0  0  0
  1  3  1  0  0  0  0
  1  4  2  0  0  0  0
  1 16  1  0  0  0  0
  5  6  1  1  0  0  0
  5  7  1  0  0  0  0
  5 14  1  0  0  0  0
  7  8  1  6  0  0  0
  7  9  1  0  0  0  0
  9 10  1  1  0  0  0
  9 11  1  0  0  0  0
 11 12  1  1  0  0  0
 11 13  1  0  0  0  0
 13 14  1  0  0  0  0
 13 15  1  1  0  0  0
 15 16  1  0  0  0  0
M  CHG  1   3  -1
M  END
>  <CHROM.1>
66.31224734,176.37074080,-55.64801288,45.11394984,11.91543670,11.61500228
2.84496015,-0.56973977,1.27952837

>  <Name>
ligand

>  <RI>
0

>  <Rbt.Current_Directory>
/home/itssahil/PROJECTS/Mol_Feturizer/New_Systems/rnas/3B4B

>  <Rbt.Executable>
rbdock ($Id: //depot/dev/client3/rdock/2013.1/src/exe/rbdock.cxx#4 $)

>  <Rbt.Library>
libRbt.so (2013.1, Build901 2013/11/27)

>  <Rbt.Parameter_File>
/export/apps/rDock/src/rDock_2013.1_src/data/scripts/dock_solv.prm

>  <Rbt.Receptor>
prm/pocket_docking_5.prm

>  <SCORE>
-8.14455

>  <SCORE.INTER>
-6.53657

>  <SCORE.INTER.CONST>
1

>  <SCORE.INTER.POLAR>
-0.898277

>  <SCORE.INTER.ROT>
3

>  <SCORE.INTER.SOLV>
15.3494

>  <SCORE.INTER.VDW>
-12.0799

>  <SCORE.INTER.norm>
-0.408535

>  <SCORE.INTRA>
-1.60798

>  <SCORE.INTRA.DIHEDRAL>
-1.97728

>  <SCORE.INTRA.DIHEDRAL.0>
2.21864

>  <SCORE.INTRA.POLAR>
0

>  <SCORE.INTRA.POLAR.0>
0

>  <SCORE.INTRA.REPUL>
0

>  <SCORE.INTRA.REPUL.0>
0

>  <SCORE.INTRA.SOLV>
-0.973321

>  <SCORE.INTRA.SOLV.lig_0>
-58.5963

>  <SCORE.INTRA.VDW>
-0.132682

>  <SCORE.INTRA.VDW.0>
-0.437849

>  <SCORE.INTRA.norm>
-0.100499

>  <SCORE.RESTR>
0

>  <SCORE.RESTR.CAVITY>
0

>  <SCORE.RESTR.norm>
0

>  <SCORE.SYSTEM>
0

>  <SCORE.SYSTEM.CONST>
0

>  <SCORE.SYSTEM.DIHEDRAL>
0

>  <SCORE.SYSTEM.SOLV>
0

>  <SCORE.SYSTEM.norm>
0

>  <SCORE.heavy>
16

>  <SCORE.norm>
-0.509034

>  <RMSD>
5.711

$$$$
ligand
 OpenBabel11021811463D
libRbt.so/2013.1/901 2013/11/27
 16 16  0  0  0  0  0  0  0  0999 V2000
   43.8999   10.6762   13.9507 P   0  0  2  0  0  0  0  0  0  0  0  0
   42.5185   10.2033   13.6874 O   0  0  0  0  0  0  0  0  0  0  0  0
   44.8019    9.4740   14.5269 O   0  5  0  0  0  0  0  0  0  0  0  0
   43.8547   11.8616   15.0539 O   0  0  0  0  0  0  0  0  0  0  0  0
   44.6592   12.3608    8.4685 C   0  0  2  0  0  0  0  0  0  0  0  0
   46.0919   12.3695    8.5528 O   0  0  0  0  0  0  0  0  0  0  0  0
   44.1021   13.7551    8.0648 C   0  0  2  0  0  0  0  0  0  0  0  0
   44.6800   14.1684    6.7669 N   0  0  0  0  0  0  0  0  0  0  0  0
   44.4800   14.7727    9.1619 C   0  0  1  0  0  0  0  0  0  0  0  0
   43.9633   16.0740    8.8319 O   0  0  0  0  0  0  0  0  0  0  0  0
   43.8681   14.2942   10.4866 C   0  0  2  0  0  0  0  0  0  0  0  0
   44.2143   15.2124   11.5330 O   0  0  0  0  0  0  0  0  0  0  0  0
   44.4408   12.8890   10.8104 C   0  0  2  0  0  0  0  0  0  0  0  0
   44.1026   11.9497    9.7495 O   0  0  0  0  0  0  0  0  0  0  0  0
   43.8344   12.3780   12.1289 C   0  0  0  0  0  0  0  0  0  0  0  0
   44.5377   11.1991   12.5614 O   0  0  0  0  0  0  0  0  0  0  0  0
  1  2  1  6  0  0  0
  1  3  1  0  0  0  0
  1  4  2  0  0  0  0
  1 16  1  0  0  0  0
  5  6  1  1  0  0  0
  5  7  1  0  0  0  0
  5 14  1  0  0  0  0
  7  8  1  6  0  0  0
  7  9  1  0  0  0  0
  9 10  1  6  0  0  0
  9 11  1  0  0  0  0
 11 12  1  1  0  0  0
 11 13  1  0  0  0  0
 13 14  1  0  0  0  0
 13 15  1  1  0  0  0
 15 16  1  0  0  0  0
M  CHG  1   3  -1
M  END
>  <CHROM.1>
-169.41343788,179.63795361,66.80845730,44.22863935,12.54445775,11.18895103
-1.90001642,1.27981403,-0.68354142

>  <Name>
ligand

>  <RI>
0

>  <Rbt.Current_Directory>
/home/itssahil/PROJECTS/Mol_Feturizer/New_Systems/rnas/3B4B

>  <Rbt.Executable>
rbdock ($Id: //depot/dev/client3/rdock/2013.1/src/exe/rbdock.cxx#4 $)

>  <Rbt.Library>
libRbt.so (2013.1, Build901 2013/11/27)

>  <Rbt.Parameter_File>
/export/apps/rDock/src/rDock_2013.1_src/data/scripts/dock_solv.prm

>  <Rbt.Receptor>
prm/pocket_docking_7.prm

>  <SCORE>
-6.94545

>  <SCORE.INTER>
-5.3616

>  <SCORE.INTER.CONST>
1

>  <SCORE.INTER.POLAR>
0

>  <SCORE.INTER.ROT>
3

>  <SCORE.INTER.SOLV>
22.6606

>  <SCORE.INTER.VDW>
-16.7279

>  <SCORE.INTER.norm>
-0.3351

>  <SCORE.INTRA>
-1.58385

>  <SCORE.INTRA.DIHEDRAL>
-1.7434

>  <SCORE.INTRA.DIHEDRAL.0>
2.21864

>  <SCORE.INTRA.POLAR>
0

>  <SCORE.INTRA.POLAR.0>
0

>  <SCORE.INTRA.REPUL>
0

>  <SCORE.INTRA.REPUL.0>
0

>  <SCORE.INTRA.SOLV>
-1.14493

>  <SCORE.INTRA.SOLV.lig_0>
-58.5963

>  <SCORE.INTRA.VDW>
-0.139683

>  <SCORE.INTRA.VDW.0>
-0.437849

>  <SCORE.INTRA.norm>
-0.0989903

>  <SCORE.RESTR>
0

>  <SCORE.RESTR.CAVITY>
0

>  <SCORE.RESTR.norm>
0

>  <SCORE.SYSTEM>
0

>  <SCORE.SYSTEM.CONST>
0

>  <SCORE.SYSTEM.DIHEDRAL>
0

>  <SCORE.SYSTEM.SOLV>
0

>  <SCORE.SYSTEM.norm>
0

>  <SCORE.heavy>
16

>  <SCORE.norm>
-0.434091

>  <RMSD>
5.730

$$$$
ligand
 OpenBabel11021811463D
libRbt.so/2013.1/901 2013/11/27
 16 16  0  0  0  0  0  0  0  0999 V2000
   43.9194   11.5177   14.4819 P   0  0  2  0  0  0  0  0  0  0  0  0
   44.8542   11.0486   15.5341 O   0  0  0  0  0  0  0  0  0  0  0  0
   42.8612   12.5617   15.0994 O   0  5  0  0  0  0  0  0  0  0  0  0
   43.1058   10.2484   13.8894 O   0  0  0  0  0  0  0  0  0  0  0  0
   45.7068   12.9566    9.1957 C   0  0  2  0  0  0  0  0  0  0  0  0
   46.9805   13.4545    9.6310 O   0  0  0  0  0  0  0  0  0  0  0  0
   44.8999   14.0433    8.4304 C   0  0  2  0  0  0  0  0  0  0  0  0
   45.6793   14.5181    7.2658 N   0  0  0  0  0  0  0  0  0  0  0  0
   44.6171   15.2158    9.3932 C   0  0  1  0  0  0  0  0  0  0  0  0
   43.8533   16.2349    8.7244 O   0  0  0  0  0  0  0  0  0  0  0  0
   43.8185   14.6706   10.5863 C   0  0  2  0  0  0  0  0  0  0  0  0
   43.5516   15.7350   11.5102 O   0  0  0  0  0  0  0  0  0  0  0  0
   44.6663   13.5724   11.2811 C   0  0  2  0  0  0  0  0  0  0  0  0
   44.9510   12.4896   10.3491 O   0  0  0  0  0  0  0  0  0  0  0  0
   43.8842   12.9980   12.4752 C   0  0  0  0  0  0  0  0  0  0  0  0
   44.7749   12.2516   13.3244 O   0  0  0  0  0  0  0  0  0  0  0  0
  1  2  1  1  0  0  0
  1  3  1  0  0  0  0
  1  4  2  0  0  0  0
  1 16  1  0  0  0  0
  5  6  1  1  0  0  0
  5  7  1  0  0  0  0
  5 14  1  0  0  0  0
  7  8  1  6  0  0  0
  7  9  1  0  0  0  0
  9 10  1  6  0  0  0
  9 11  1  0  0  0  0
 11 12  1  1  0  0  0
 11 13  1  0  0  0  0
 13 14  1  0  0  0  0
 13 15  1  1  0  0  0
 15 16  1  0  0  0  0
M  CHG  1   3  -1
M  END
>  <CHROM.1>
-164.90422046,-173.76479375,-165.74048001,44.45459329,13.18557626,11.62530017
-1.83864629,0.85378653,-0.85792280

>  <Name>
ligand

>  <RI>
0

>  <Rbt.Current_Directory>
/home/itssahil/PROJECTS/Mol_Feturizer/New_Systems/rnas/3B4B

>  <Rbt.Executable>
rbdock ($Id: //depot/dev/client3/rdock/2013.1/src/exe/rbdock.cxx#4 $)

>  <Rbt.Library>
libRbt.so (2013.1, Build901 2013/11/27)

>  <Rbt.Parameter_File>
/export/apps/rDock/src/rDock_2013.1_src/data/scripts/dock_solv.prm

>  <Rbt.Receptor>
prm/pocket_docking_6.prm

>  <SCORE>
-7.0559

>  <SCORE.INTER>
-6.24953

>  <SCORE.INTER.CONST>
1

>  <SCORE.INTER.POLAR>
0

>  <SCORE.INTER.ROT>
3

>  <SCORE.INTER.SOLV>
17.8657

>  <SCORE.INTER.VDW>
-15.7216

>  <SCORE.INTER.norm>
-0.390596

>  <SCORE.INTRA>
-0.806375

>  <SCORE.INTRA.DIHEDRAL>
-0.920545

>  <SCORE.INTRA.DIHEDRAL.0>
2.21864

>  <SCORE.INTRA.POLAR>
0

>  <SCORE.INTRA.POLAR.0>
0

>  <SCORE.INTRA.REPUL>
0

>  <SCORE.INTRA.REPUL.0>
0

>  <SCORE.INTRA.SOLV>
-0.522828

>  <SCORE.INTRA.SOLV.lig_0>
-58.5963

>  <SCORE.INTRA.VDW>
-0.0846888

>  <SCORE.INTRA.VDW.0>
-0.437849

>  <SCORE.INTRA.norm>
-0.0503985

>  <SCORE.RESTR>
0

>  <SCORE.RESTR.CAVITY>
0

>  <SCORE.RESTR.norm>
0

>  <SCORE.SYSTEM>
0

>  <SCORE.SYSTEM.CONST>
0

>  <SCORE.SYSTEM.DIHEDRAL>
0

>  <SCORE.SYSTEM.SOLV>
0

>  <SCORE.SYSTEM.norm>
0

>  <SCORE.heavy>
16

>  <SCORE.norm>
-0.440994

>  <RMSD>
5.732

$$$$
ligand
 OpenBabel11021811463D
libRbt.so/2013.1/901 2013/11/27
 16 16  0  0  0  0  0  0  0  0999 V2000
   43.8945   11.1143   14.2270 P   0  0  2  0  0  0  0  0  0  0  0  0
   43.7710   12.2309   15.1960 O   0  0  0  0  0  0  0  0  0  0  0  0
   42.4378   10.5622   13.8219 O   0  5  0  0  0  0  0  0  0  0  0  0
   44.7317    9.9075   14.9104 O   0  0  0  0  0  0  0  0  0  0  0  0
   44.7514   12.4813    8.7177 C   0  0  2  0  0  0  0  0  0  0  0  0
   46.1827   12.5309    8.8106 O   0  0  0  0  0  0  0  0  0  0  0  0
   44.1654   13.8258    8.2014 C   0  0  2  0  0  0  0  0  0  0  0  0
   44.7446   14.1492    6.8788 N   0  0  0  0  0  0  0  0  0  0  0  0
   44.5101   14.9355    9.2171 C   0  0  1  0  0  0  0  0  0  0  0  0
   43.9661   16.1940    8.7819 O   0  0  0  0  0  0  0  0  0  0  0  0
   43.8983   14.5484   10.5714 C   0  0  2  0  0  0  0  0  0  0  0  0
   44.2140   15.5542   11.5443 O   0  0  0  0  0  0  0  0  0  0  0  0
   44.5008   13.1872   11.0090 C   0  0  2  0  0  0  0  0  0  0  0  0
   44.1936   12.1593   10.0235 O   0  0  0  0  0  0  0  0  0  0  0  0
   43.8952   12.7673   12.3597 C   0  0  0  0  0  0  0  0  0  0  0  0
   44.6409   11.6628   12.9032 O   0  0  0  0  0  0  0  0  0  0  0  0
  1  2  1  1  0  0  0
  1  3  1  0  0  0  0
  1  4  2  0  0  0  0
  1 16  1  0  0  0  0
  5  6  1  1  0  0  0
  5  7  1  0  0  0  0
  5 14  1  0  0  0  0
  7  8  1  6  0  0  0
  7  9  1  0  0  0  0
  9 10  1  6  0  0  0
  9 11  1  0  0  0  0
 11 12  1  1  0  0  0
 11 13  1  0  0  0  0
 13 14  1  0  0  0  0
 13 15  1  1  0  0  0
 15 16  1  0  0  0  0
M  CHG  1   3  -1
M  END
>  <CHROM.1>
-168.11349524,-173.20372733,-57.61530752,44.25256414,12.82168885,11.37424766
-1.91386822,1.25652703,-0.71964239

>  <Name>
ligand

>  <RI>
0

>  <Rbt.Current_Directory>
/home/itssahil/PROJECTS/Mol_Feturizer/New_Systems/rnas/3B4B

>  <Rbt.Executable>
rbdock ($Id: //depot/dev/client3/rdock/2013.1/src/exe/rbdock.cxx#4 $)

>  <Rbt.Library>
libRbt.so (2013.1, Build901 2013/11/27)

>  <Rbt.Parameter_File>
/export/apps/rDock/src/rDock_2013.1_src/data/scripts/dock_solv.prm

>  <Rbt.Receptor>
prm/pocket_docking_7.prm

>  <SCORE>
-8.36038

>  <SCORE.INTER>
-6.97425

>  <SCORE.INTER.CONST>
1

>  <SCORE.INTER.POLAR>
0

>  <SCORE.INTER.ROT>
3

>  <SCORE.INTER.SOLV>
19.2995

>  <SCORE.INTER.VDW>
-16.6827

>  <SCORE.INTER.norm>
-0.43589

>  <SCORE.INTRA>
-1.38613

>  <SCORE.INTRA.DIHEDRAL>
-1.486

>  <SCORE.INTRA.DIHEDRAL.0>
2.21864

>  <SCORE.INTRA.POLAR>
0

>  <SCORE.INTRA.POLAR.0>
0

>  <SCORE.INTRA.REPUL>
0

>  <SCORE.INTRA.REPUL.0>
0

>  <SCORE.INTRA.SOLV>
-1.14901

>  <SCORE.INTRA.SOLV.lig_0>
-58.5963

>  <SCORE.INTRA.VDW>
-0.0686278

>  <SCORE.INTRA.VDW.0>
-0.437849

>  <SCORE.INTRA.norm>
-0.0866334

>  <SCORE.RESTR>
0

>  <SCORE.RESTR.CAVITY>
0

>  <SCORE.RESTR.norm>
0

>  <SCORE.SYSTEM>
0

>  <SCORE.SYSTEM.CONST>
0

>  <SCORE.SYSTEM.DIHEDRAL>
0

>  <SCORE.SYSTEM.SOLV>
0

>  <SCORE.SYSTEM.norm>
0

>  <SCORE.heavy>
16

>  <SCORE.norm>
-0.522524

>  <RMSD>
5.735

$$$$
ligand
 OpenBabel11021811463D
libRbt.so/2013.1/901 2013/11/27
 16 16  0  0  0  0  0  0  0  0999 V2000
   42.7064   14.1077   12.5241 P   0  0  2  0  0  0  0  0  0  0  0  0
   41.7561   14.1507   11.3857 O   0  0  0  0  0  0  0  0  0  0  0  0
   42.2215   13.0294   13.6165 O   0  5  0  0  0  0  0  0  0  0  0  0
   42.7597   15.5660   13.2275 O   0  0  0  0  0  0  0  0  0  0  0  0
   47.4641   11.0415   11.5247 C   0  0  2  0  0  0  0  0  0  0  0  0
   48.2404   12.1484   11.0431 O   0  0  0  0  0  0  0  0  0  0  0  0
   47.3836    9.8995   10.4727 C   0  0  2  0  0  0  0  0  0  0  0  0
   48.7472    9.4436   10.1235 N   0  0  0  0  0  0  0  0  0  0  0  0
   46.6659   10.4369    9.2165 C   0  0  1  0  0  0  0  0  0  0  0  0
   46.5550    9.4000    8.2257 O   0  0  0  0  0  0  0  0  0  0  0  0
   45.2642   10.9062    9.6328 C   0  0  2  0  0  0  0  0  0  0  0  0
   44.5742   11.4271    8.4881 O   0  0  0  0  0  0  0  0  0  0  0  0
   45.4190   12.0185   10.7036 C   0  0  2  0  0  0  0  0  0  0  0  0
   46.1265   11.5029   11.8679 O   0  0  0  0  0  0  0  0  0  0  0  0
   44.0273   12.4999   11.1495 C   0  0  0  0  0  0  0  0  0  0  0  0
   44.1600   13.6788   11.9644 O   0  0  0  0  0  0  0  0  0  0  0  0
  1  2  1  6  0  0  0
  1  3  1  0  0  0  0
  1  4  2  0  0  0  0
  1 16  1  0  0  0  0
  5  6  1  6  0  0  0
  5  7  1  0  0  0  0
  5 14  1  0  0  0  0
  7  8  1  6  0  0  0
  7  9  1  0  0  0  0
  9 10  1  6  0  0  0
  9 11  1  0  0  0  0
 11 12  1  6  0  0  0
 11 13  1  0  0  0  0
 13 14  1  0  0  0  0
 13 15  1  1  0  0  0
 15 16  1  0  0  0  0
M  CHG  1   3  -1
M  END
>  <CHROM.1>
-170.20708396,-175.51603008,-50.01135733,45.01502908,12.16171274,11.08416635
-2.41442484,0.37181202,-2.13590484

>  <Name>
ligand

>  <RI>
0

>  <Rbt.Current_Directory>
/home/itssahil/PROJECTS/Mol_Feturizer/New_Systems/rnas/3B4B

>  <Rbt.Executable>
rbdock ($Id: //depot/dev/client3/rdock/2013.1/src/exe/rbdock.cxx#4 $)

>  <Rbt.Library>
libRbt.so (2013.1, Build901 2013/11/27)

>  <Rbt.Parameter_File>
/export/apps/rDock/src/rDock_2013.1_src/data/scripts/dock_solv.prm

>  <Rbt.Receptor>
prm/pocket_docking_4.prm

>  <SCORE>
-7.17159

>  <SCORE.INTER>
-5.81149

>  <SCORE.INTER.CONST>
1

>  <SCORE.INTER.POLAR>
-0.899157

>  <SCORE.INTER.ROT>
3

>  <SCORE.INTER.SOLV>
17.5397

>  <SCORE.INTER.VDW>
-12.3237

>  <SCORE.INTER.norm>
-0.363218

>  <SCORE.INTRA>
-1.3601

>  <SCORE.INTRA.DIHEDRAL>
-1.61537

>  <SCORE.INTRA.DIHEDRAL.0>
2.21864

>  <SCORE.INTRA.POLAR>
0

>  <SCORE.INTRA.POLAR.0>
0

>  <SCORE.INTRA.REPUL>
0

>  <SCORE.INTRA.REPUL.0>
0

>  <SCORE.INTRA.SOLV>
-1.23874

>  <SCORE.INTRA.SOLV.lig_0>
-58.5963

>  <SCORE.INTRA.VDW>
0.0669532

>  <SCORE.INTRA.VDW.0>
-0.437849

>  <SCORE.INTRA.norm>
-0.0850063

>  <SCORE.RESTR>
2.83085e-07

>  <SCORE.RESTR.CAVITY>
2.83085e-07

>  <SCORE.RESTR.norm>
1.76928e-08

>  <SCORE.SYSTEM>
0

>  <SCORE.SYSTEM.CONST>
0

>  <SCORE.SYSTEM.DIHEDRAL>
0

>  <SCORE.SYSTEM.SOLV>
0

>  <SCORE.SYSTEM.norm>
0

>  <SCORE.heavy>
16

>  <SCORE.norm>
-0.448224

>  <RMSD>
5.739

$$$$
ligand
 OpenBabel11021811463D
libRbt.so/2013.1/901 2013/11/27
 16 16  0  0  0  0  0  0  0  0999 V2000
   44.4078   10.3928   14.1639 P   0  0  2  0  0  0  0  0  0  0  0  0
   44.9262    9.0565   14.5472 O   0  0  0  0  0  0  0  0  0  0  0  0
   44.6627   11.4520   15.3488 O   0  5  0  0  0  0  0  0  0  0  0  0
   42.8129   10.2885   13.8997 O   0  0  0  0  0  0  0  0  0  0  0  0
   47.5526   13.4693   10.5782 C   0  0  2  0  0  0  0  0  0  0  0  0
   47.2035   12.7835    9.3668 O   0  0  0  0  0  0  0  0  0  0  0  0
   49.0920   13.4981   10.7951 C   0  0  2  0  0  0  0  0  0  0  0  0
   49.7480   14.1507    9.6406 N   0  0  0  0  0  0  0  0  0  0  0  0
   49.5958   12.0467   10.9410 C   0  0  1  0  0  0  0  0  0  0  0  0
   51.0170   12.0339   11.1632 O   0  0  0  0  0  0  0  0  0  0  0  0
   48.8791   11.4120   12.1417 C   0  0  2  0  0  0  0  0  0  0  0  0
   49.3148   10.0539   12.2961 O   0  0  0  0  0  0  0  0  0  0  0  0
   47.3513   11.4459   11.8731 C   0  0  2  0  0  0  0  0  0  0  0  0
   46.8989   12.8205   11.7059 O   0  0  0  0  0  0  0  0  0  0  0  0
   46.6054   10.8266   13.0678 C   0  0  0  0  0  0  0  0  0  0  0  0
   45.1860   10.8846   12.8363 O   0  0  0  0  0  0  0  0  0  0  0  0
  1  2  1  1  0  0  0
  1  3  1  0  0  0  0
  1  4  2  0  0  0  0
  1 16  1  0  0  0  0
  5  6  1  6  0  0  0
  5  7  1  0  0  0  0
  5 14  1  0  0  0  0
  7  8  1  6  0  0  0
  7  9  1  0  0  0  0
  9 10  1  1  0  0  0
  9 11  1  0  0  0  0
 11 12  1  6  0  0  0
 11 13  1  0  0  0  0
 13 14  1  0  0  0  0
 13 15  1  1  0  0  0
 15 16  1  0  0  0  0
M  CHG  1   3  -1
M  END
>  <CHROM.1>
178.66375478,-173.43774399,-53.86759415,46.94556498,11.53284417,12.33234585
2.44733355,-0.18575136,2.37471779

>  <Name>
ligand

>  <RI>
0

>  <Rbt.Current_Directory>
/home/itssahil/PROJECTS/Mol_Feturizer/New_Systems/rnas/3B4B

>  <Rbt.Executable>
rbdock ($Id: //depot/dev/client3/rdock/2013.1/src/exe/rbdock.cxx#4 $)

>  <Rbt.Library>
libRbt.so (2013.1, Build901 2013/11/27)

>  <Rbt.Parameter_File>
/export/apps/rDock/src/rDock_2013.1_src/data/scripts/dock_solv.prm

>  <Rbt.Receptor>
prm/pocket_docking_4.prm

>  <SCORE>
-8.09405

>  <SCORE.INTER>
-6.55962

>  <SCORE.INTER.CONST>
1

>  <SCORE.INTER.POLAR>
-0.894779

>  <SCORE.INTER.ROT>
3

>  <SCORE.INTER.SOLV>
21.5289

>  <SCORE.INTER.VDW>
-14.1668

>  <SCORE.INTER.norm>
-0.409977

>  <SCORE.INTRA>
-1.53442

>  <SCORE.INTRA.DIHEDRAL>
-1.93835

>  <SCORE.INTRA.DIHEDRAL.0>
2.21864

>  <SCORE.INTRA.POLAR>
0

>  <SCORE.INTRA.POLAR.0>
0

>  <SCORE.INTRA.REPUL>
0

>  <SCORE.INTRA.REPUL.0>
0

>  <SCORE.INTRA.SOLV>
-1.14764

>  <SCORE.INTRA.SOLV.lig_0>
-58.5963

>  <SCORE.INTRA.VDW>
0.00857375

>  <SCORE.INTRA.VDW.0>
-0.437849

>  <SCORE.INTRA.norm>
-0.0959014

>  <SCORE.RESTR>
0

>  <SCORE.RESTR.CAVITY>
0

>  <SCORE.RESTR.norm>
0

>  <SCORE.SYSTEM>
0

>  <SCORE.SYSTEM.CONST>
0

>  <SCORE.SYSTEM.DIHEDRAL>
0

>  <SCORE.SYSTEM.SOLV>
0

>  <SCORE.SYSTEM.norm>
0

>  <SCORE.heavy>
16

>  <SCORE.norm>
-0.505878

>  <RMSD>
5.745

$$$$
ligand
 OpenBabel11021811463D
libRbt.so/2013.1/901 2013/11/27
 16 16  0  0  0  0  0  0  0  0999 V2000
   43.9273   11.1211   14.1765 P   0  0  2  0  0  0  0  0  0  0  0  0
   43.8215   12.2038   15.1853 O   0  0  0  0  0  0  0  0  0  0  0  0
   42.4630   10.5880   13.7732 O   0  5  0  0  0  0  0  0  0  0  0  0
   44.7695    9.8887   14.8058 O   0  0  0  0  0  0  0  0  0  0  0  0
   44.8643   12.7379    8.7317 C   0  0  2  0  0  0  0  0  0  0  0  0
   46.2897   12.8332    8.8690 O   0  0  0  0  0  0  0  0  0  0  0  0
   44.2445   14.0835    8.2595 C   0  0  2  0  0  0  0  0  0  0  0  0
   44.8482   14.4876    6.9706 N   0  0  0  0  0  0  0  0  0  0  0  0
   44.5202   15.1564    9.3341 C   0  0  1  0  0  0  0  0  0  0  0  0
   43.9432   16.4139    8.9403 O   0  0  0  0  0  0  0  0  0  0  0  0
   43.8852   14.6860   10.6509 C   0  0  2  0  0  0  0  0  0  0  0  0
   44.1370   15.6563   11.6771 O   0  0  0  0  0  0  0  0  0  0  0  0
   44.5244   13.3280   11.0442 C   0  0  2  0  0  0  0  0  0  0  0  0
   44.2823   12.3366   10.0046 O   0  0  0  0  0  0  0  0  0  0  0  0
   43.8969   12.8253   12.3560 C   0  0  0  0  0  0  0  0  0  0  0  0
   44.6571   11.7128   12.8622 O   0  0  0  0  0  0  0  0  0  0  0  0
  1  2  1  1  0  0  0
  1  3  1  0  0  0  0
  1  4  2  0  0  0  0
  1 16  1  0  0  0  0
  5  6  1  1  0  0  0
  5  7  1  0  0  0  0
  5 14  1  0  0  0  0
  7  8  1  6  0  0  0
  7  9  1  0  0  0  0
  9 10  1  6  0  0  0
  9 11  1  0  0  0  0
 11 12  1  1  0  0  0
 11 13  1  0  0  0  0
 13 14  1  0  0  0  0
 13 15  1  1  0  0  0
 15 16  1  0  0  0  0
M  CHG  1   3  -1
M  END
>  <CHROM.1>
-168.83043569,-175.71324286,-58.47945891,44.28774004,12.94966922,11.39659481
-1.87834331,1.21086667,-0.71519658

>  <Name>
ligand

>  <RI>
0

>  <Rbt.Current_Directory>
/home/itssahil/PROJECTS/Mol_Feturizer/New_Systems/rnas/3B4B

>  <Rbt.Executable>
rbdock ($Id: //depot/dev/client3/rdock/2013.1/src/exe/rbdock.cxx#4 $)

>  <Rbt.Library>
libRbt.so (2013.1, Build901 2013/11/27)

>  <Rbt.Parameter_File>
/export/apps/rDock/src/rDock_2013.1_src/data/scripts/dock_solv.prm

>  <Rbt.Receptor>
prm/pocket_docking_7.prm

>  <SCORE>
-8.35181

>  <SCORE.INTER>
-6.85548

>  <SCORE.INTER.CONST>
1

>  <SCORE.INTER.POLAR>
0

>  <SCORE.INTER.ROT>
3

>  <SCORE.INTER.SOLV>
17.1228

>  <SCORE.INTER.VDW>
-15.8779

>  <SCORE.INTER.norm>
-0.428468

>  <SCORE.INTRA>
-1.49633

>  <SCORE.INTRA.DIHEDRAL>
-1.68335

>  <SCORE.INTRA.DIHEDRAL.0>
2.21864

>  <SCORE.INTRA.POLAR>
0

>  <SCORE.INTRA.POLAR.0>
0

>  <SCORE.INTRA.REPUL>
0

>  <SCORE.INTRA.REPUL.0>
0

>  <SCORE.INTRA.SOLV>
-1.16372

>  <SCORE.INTRA.SOLV.lig_0>
-58.5963

>  <SCORE.INTRA.VDW>
-0.0727955

>  <SCORE.INTRA.VDW.0>
-0.437849

>  <SCORE.INTRA.norm>
-0.0935207

>  <SCORE.RESTR>
0

>  <SCORE.RESTR.CAVITY>
0

>  <SCORE.RESTR.norm>
0

>  <SCORE.SYSTEM>
0

>  <SCORE.SYSTEM.CONST>
0

>  <SCORE.SYSTEM.DIHEDRAL>
0

>  <SCORE.SYSTEM.SOLV>
0

>  <SCORE.SYSTEM.norm>
0

>  <SCORE.heavy>
16

>  <SCORE.norm>
-0.521988

>  <RMSD>
5.767

$$$$
ligand
 OpenBabel11021811463D
libRbt.so/2013.1/901 2013/11/27
 16 16  0  0  0  0  0  0  0  0999 V2000
   43.8280   11.4824   14.4719 P   0  0  2  0  0  0  0  0  0  0  0  0
   44.7981   10.8642   15.4089 O   0  0  0  0  0  0  0  0  0  0  0  0
   42.9301   12.5766   15.2385 O   0  5  0  0  0  0  0  0  0  0  0  0
   42.8497   10.3325   13.8846 O   0  0  0  0  0  0  0  0  0  0  0  0
   45.1127   12.9386    9.0599 C   0  0  2  0  0  0  0  0  0  0  0  0
   46.4970   13.2021    9.3322 O   0  0  0  0  0  0  0  0  0  0  0  0
   44.4033   14.1815    8.4521 C   0  0  2  0  0  0  0  0  0  0  0  0
   45.0914   14.5922    7.2083 N   0  0  0  0  0  0  0  0  0  0  0  0
   44.4463   15.3272    9.4853 C   0  0  1  0  0  0  0  0  0  0  0  0
   43.7805   16.4911    8.9646 O   0  0  0  0  0  0  0  0  0  0  0  0
   43.7316   14.8485   10.7574 C   0  0  2  0  0  0  0  0  0  0  0  0
   43.7672   15.8873   11.7461 O   0  0  0  0  0  0  0  0  0  0  0  0
   44.4698   13.5917   11.2895 C   0  0  2  0  0  0  0  0  0  0  0  0
   44.4475   12.5325   10.2897 O   0  0  0  0  0  0  0  0  0  0  0  0
   43.7665   13.0816   12.5594 C   0  0  0  0  0  0  0  0  0  0  0  0
   44.6502   12.2079   13.2855 O   0  0  0  0  0  0  0  0  0  0  0  0
  1  2  1  1  0  0  0
  1  3  1  0  0  0  0
  1  4  2  0  0  0  0
  1 16  1  0  0  0  0
  5  6  1  1  0  0  0
  5  7  1  0  0  0  0
  5 14  1  0  0  0  0
  7  8  1  6  0  0  0
  7  9  1  0  0  0  0
  9 10  1  6  0  0  0
  9 11  1  0  0  0  0
 11 12  1  1  0  0  0
 11 13  1  0  0  0  0
 13 14  1  0  0  0  0
 13 15  1  1  0  0  0
 15 16  1  0  0  0  0
M  CHG  1   3  -1
M  END
>  <CHROM.1>
-162.05188102,-170.43130513,-165.91146697,44.24743430,13.21655958,11.63928669
-1.85394300,1.06577218,-0.79399132

>  <Name>
ligand

>  <RI>
0

>  <Rbt.Current_Directory>
/home/itssahil/PROJECTS/Mol_Feturizer/New_Systems/rnas/3B4B

>  <Rbt.Executable>
rbdock ($Id: //depot/dev/client3/rdock/2013.1/src/exe/rbdock.cxx#4 $)

>  <Rbt.Library>
libRbt.so (2013.1, Build901 2013/11/27)

>  <Rbt.Parameter_File>
/export/apps/rDock/src/rDock_2013.1_src/data/scripts/dock_solv.prm

>  <Rbt.Receptor>
prm/pocket_docking_5.prm

>  <SCORE>
-7.62232

>  <SCORE.INTER>
-7.07015

>  <SCORE.INTER.CONST>
1

>  <SCORE.INTER.POLAR>
0

>  <SCORE.INTER.ROT>
3

>  <SCORE.INTER.SOLV>
17.7876

>  <SCORE.INTER.VDW>
-16.2426

>  <SCORE.INTER.norm>
-0.441885

>  <SCORE.INTRA>
-0.552171

>  <SCORE.INTRA.DIHEDRAL>
-0.3755

>  <SCORE.INTRA.DIHEDRAL.0>
2.21864

>  <SCORE.INTRA.POLAR>
0

>  <SCORE.INTRA.POLAR.0>
0

>  <SCORE.INTRA.REPUL>
0

>  <SCORE.INTRA.REPUL.0>
0

>  <SCORE.INTRA.SOLV>
-0.502632

>  <SCORE.INTRA.SOLV.lig_0>
-58.5963

>  <SCORE.INTRA.VDW>
-0.113105

>  <SCORE.INTRA.VDW.0>
-0.437849

>  <SCORE.INTRA.norm>
-0.0345107

>  <SCORE.RESTR>
0

>  <SCORE.RESTR.CAVITY>
0

>  <SCORE.RESTR.norm>
0

>  <SCORE.SYSTEM>
0

>  <SCORE.SYSTEM.CONST>
0

>  <SCORE.SYSTEM.DIHEDRAL>
0

>  <SCORE.SYSTEM.SOLV>
0

>  <SCORE.SYSTEM.norm>
0

>  <SCORE.heavy>
16

>  <SCORE.norm>
-0.476395

>  <RMSD>
5.775

$$$$
ligand
 OpenBabel11021811463D
libRbt.so/2013.1/901 2013/11/27
 16 16  0  0  0  0  0  0  0  0999 V2000
   42.8166   12.4953   14.1076 P   0  0  2  0  0  0  0  0  0  0  0  0
   42.8078   12.6399   15.5842 O   0  0  0  0  0  0  0  0  0  0  0  0
   42.2583   13.8350   13.4116 O   0  5  0  0  0  0  0  0  0  0  0  0
   41.8578   11.2586   13.6889 O   0  0  0  0  0  0  0  0  0  0  0  0
   47.5946   12.7732   10.9095 C   0  0  2  0  0  0  0  0  0  0  0  0
   47.6145   11.9948    9.7040 O   0  0  0  0  0  0  0  0  0  0  0  0
   48.5696   12.1995   11.9762 C   0  0  2  0  0  0  0  0  0  0  0  0
   49.9430   12.1569   11.4275 N   0  0  0  0  0  0  0  0  0  0  0  0
   48.1048   10.7771   12.3538 C   0  0  1  0  0  0  0  0  0  0  0  0
   48.9738   10.2198   13.3555 O   0  0  0  0  0  0  0  0  0  0  0  0
   46.6750   10.8739   12.9056 C   0  0  2  0  0  0  0  0  0  0  0  0
   46.2061    9.5634   13.2527 O   0  0  0  0  0  0  0  0  0  0  0  0
   45.7662   11.4821   11.8048 C   0  0  2  0  0  0  0  0  0  0  0  0
   46.2384   12.8105   11.4378 O   0  0  0  0  0  0  0  0  0  0  0  0
   44.3269   11.6030   12.3351 C   0  0  0  0  0  0  0  0  0  0  0  0
   44.3374   12.2411   13.6252 O   0  0  0  0  0  0  0  0  0  0  0  0
  1  2  1  1  0  0  0
  1  3  1  0  0  0  0
  1  4  2  0  0  0  0
  1 16  1  0  0  0  0
  5  6  1  6  0  0  0
  5  7  1  0  0  0  0
  5 14  1  0  0  0  0
  7  8  1  6  0  0  0
  7  9  1  0  0  0  0
  9 10  1  1  0  0  0
  9 11  1  0  0  0  0
 11 12  1  6  0  0  0
 11 13  1  0  0  0  0
 13 14  1  0  0  0  0
 13 15  1  1  0  0  0
 15 16  1  0  0  0  0
M  CHG  1   3  -1
M  END
>  <CHROM.1>
49.27773562,174.45270454,158.07381947,45.59232763,11.85846988,12.75472234
2.94780813,-0.37930305,2.29923869

>  <Name>
ligand

>  <RI>
0

>  <Rbt.Current_Directory>
/home/itssahil/PROJECTS/Mol_Feturizer/New_Systems/rnas/3B4B

>  <Rbt.Executable>
rbdock ($Id: //depot/dev/client3/rdock/2013.1/src/exe/rbdock.cxx#4 $)

>  <Rbt.Library>
libRbt.so (2013.1, Build901 2013/11/27)

>  <Rbt.Parameter_File>
/export/apps/rDock/src/rDock_2013.1_src/data/scripts/dock_solv.prm

>  <Rbt.Receptor>
prm/pocket_docking_3.prm

>  <SCORE>
-6.45071

>  <SCORE.INTER>
-5.84606

>  <SCORE.INTER.CONST>
1

>  <SCORE.INTER.POLAR>
0

>  <SCORE.INTER.ROT>
3

>  <SCORE.INTER.SOLV>
16.5774

>  <SCORE.INTER.VDW>
-15.0232

>  <SCORE.INTER.norm>
-0.365379

>  <SCORE.INTRA>
-0.604654

>  <SCORE.INTRA.DIHEDRAL>
-0.961006

>  <SCORE.INTRA.DIHEDRAL.0>
2.21864

>  <SCORE.INTRA.POLAR>
0

>  <SCORE.INTRA.POLAR.0>
0

>  <SCORE.INTRA.REPUL>
0

>  <SCORE.INTRA.REPUL.0>
0

>  <SCORE.INTRA.SOLV>
-0.27318

>  <SCORE.INTRA.SOLV.lig_0>
-58.5963

>  <SCORE.INTRA.VDW>
0.0124386

>  <SCORE.INTRA.VDW.0>
-0.437849

>  <SCORE.INTRA.norm>
-0.0377909

>  <SCORE.RESTR>
0

>  <SCORE.RESTR.CAVITY>
0

>  <SCORE.RESTR.norm>
0

>  <SCORE.SYSTEM>
0

>  <SCORE.SYSTEM.CONST>
0

>  <SCORE.SYSTEM.DIHEDRAL>
0

>  <SCORE.SYSTEM.SOLV>
0

>  <SCORE.SYSTEM.norm>
0

>  <SCORE.heavy>
16

>  <SCORE.norm>
-0.403169

>  <RMSD>
5.777

$$$$
ligand
 OpenBabel11021811463D
libRbt.so/2013.1/901 2013/11/27
 16 16  0  0  0  0  0  0  0  0999 V2000
   43.8713   11.5859   14.5469 P   0  0  2  0  0  0  0  0  0  0  0  0
   44.8577   11.1151   15.5502 O   0  0  0  0  0  0  0  0  0  0  0  0
   42.8335   12.6138   15.2232 O   0  5  0  0  0  0  0  0  0  0  0  0
   43.0424   10.3151   13.9793 O   0  0  0  0  0  0  0  0  0  0  0  0
   45.1735   13.0799    9.1480 C   0  0  2  0  0  0  0  0  0  0  0  0
   46.5298   13.4422    9.4461 O   0  0  0  0  0  0  0  0  0  0  0  0
   44.3923   14.2644    8.5124 C   0  0  2  0  0  0  0  0  0  0  0  0
   45.0765   14.7108    7.2788 N   0  0  0  0  0  0  0  0  0  0  0  0
   44.3330   15.4197    9.5340 C   0  0  1  0  0  0  0  0  0  0  0  0
   43.5989   16.5294    8.9872 O   0  0  0  0  0  0  0  0  0  0  0  0
   43.6263   14.9039   10.7961 C   0  0  2  0  0  0  0  0  0  0  0  0
   43.5681   15.9517   11.7741 O   0  0  0  0  0  0  0  0  0  0  0  0
   44.4389   13.7069   11.3567 C   0  0  2  0  0  0  0  0  0  0  0  0
   44.5121   12.6395   10.3681 O   0  0  0  0  0  0  0  0  0  0  0  0
   43.7459   13.1605   12.6171 C   0  0  0  0  0  0  0  0  0  0  0  0
   44.6660   12.3392   13.3590 O   0  0  0  0  0  0  0  0  0  0  0  0
  1  2  1  1  0  0  0
  1  3  1  0  0  0  0
  1  4  2  0  0  0  0
  1 16  1  0  0  0  0
  5  6  1  1  0  0  0
  5  7  1  0  0  0  0
  5 14  1  0  0  0  0
  7  8  1  6  0  0  0
  7  9  1  0  0  0  0
  9 10  1  6  0  0  0
  9 11  1  0  0  0  0
 11 12  1  1  0  0  0
 11 13  1  0  0  0  0
 13 14  1  0  0  0  0
 13 15  1  1  0  0  0
 15 16  1  0  0  0  0
M  CHG  1   3  -1
M  END
>  <CHROM.1>
-163.01330562,-171.16931849,-161.70267792,44.23337991,13.31948553,11.70536783
-1.79330595,0.99944605,-0.85561993

>  <Name>
ligand

>  <RI>
0

>  <Rbt.Current_Directory>
/home/itssahil/PROJECTS/Mol_Feturizer/New_Systems/rnas/3B4B

>  <Rbt.Executable>
rbdock ($Id: //depot/dev/client3/rdock/2013.1/src/exe/rbdock.cxx#4 $)

>  <Rbt.Library>
libRbt.so (2013.1, Build901 2013/11/27)

>  <Rbt.Parameter_File>
/export/apps/rDock/src/rDock_2013.1_src/data/scripts/dock_solv.prm

>  <Rbt.Receptor>
prm/pocket_docking_5.prm

>  <SCORE>
-7.62903

>  <SCORE.INTER>
-7.18661

>  <SCORE.INTER.CONST>
1

>  <SCORE.INTER.POLAR>
0

>  <SCORE.INTER.ROT>
3

>  <SCORE.INTER.SOLV>
17.5098

>  <SCORE.INTER.VDW>
-16.2277

>  <SCORE.INTER.norm>
-0.449163

>  <SCORE.INTRA>
-0.442417

>  <SCORE.INTRA.DIHEDRAL>
-0.346603

>  <SCORE.INTRA.DIHEDRAL.0>
2.21864

>  <SCORE.INTRA.POLAR>
0

>  <SCORE.INTRA.POLAR.0>
0

>  <SCORE.INTRA.REPUL>
0

>  <SCORE.INTRA.REPUL.0>
0

>  <SCORE.INTRA.SOLV>
-0.513025

>  <SCORE.INTRA.SOLV.lig_0>
-58.5963

>  <SCORE.INTRA.VDW>
-0.0126037

>  <SCORE.INTRA.VDW.0>
-0.437849

>  <SCORE.INTRA.norm>
-0.0276511

>  <SCORE.RESTR>
0

>  <SCORE.RESTR.CAVITY>
0

>  <SCORE.RESTR.norm>
0

>  <SCORE.SYSTEM>
0

>  <SCORE.SYSTEM.CONST>
0

>  <SCORE.SYSTEM.DIHEDRAL>
0

>  <SCORE.SYSTEM.SOLV>
0

>  <SCORE.SYSTEM.norm>
0

>  <SCORE.heavy>
16

>  <SCORE.norm>
-0.476814

>  <RMSD>
5.791

$$$$
ligand
 OpenBabel11021811463D
libRbt.so/2013.1/901 2013/11/27
 16 16  0  0  0  0  0  0  0  0999 V2000
   43.0227   14.2888   11.9934 P   0  0  2  0  0  0  0  0  0  0  0  0
   42.9714   13.9532   13.4377 O   0  0  0  0  0  0  0  0  0  0  0  0
   44.0432   15.5072   11.7386 O   0  5  0  0  0  0  0  0  0  0  0  0
   41.5472   14.7401   11.4999 O   0  0  0  0  0  0  0  0  0  0  0  0
   45.8325   10.5909    8.6402 C   0  0  2  0  0  0  0  0  0  0  0  0
   44.9028    9.5076    8.7877 O   0  0  0  0  0  0  0  0  0  0  0  0
   47.2691   10.1725    9.0630 C   0  0  2  0  0  0  0  0  0  0  0  0
   47.7120    9.0156    8.2539 N   0  0  0  0  0  0  0  0  0  0  0  0
   47.2522    9.7975   10.5600 C   0  0  1  0  0  0  0  0  0  0  0  0
   48.5716    9.4226   10.9933 O   0  0  0  0  0  0  0  0  0  0  0  0
   46.7765   11.0237   11.3528 C   0  0  2  0  0  0  0  0  0  0  0  0
   46.7347   10.7032   12.7505 O   0  0  0  0  0  0  0  0  0  0  0  0
   45.3558   11.4044   10.8588 C   0  0  2  0  0  0  0  0  0  0  0  0
   45.3845   11.7236    9.4377 O   0  0  0  0  0  0  0  0  0  0  0  0
   44.8579   12.6401   11.6285 C   0  0  0  0  0  0  0  0  0  0  0  0
   43.5350   12.9892   11.1817 O   0  0  0  0  0  0  0  0  0  0  0  0
  1  2  1  1  0  0  0
  1  3  1  0  0  0  0
  1  4  2  0  0  0  0
  1 16  1  0  0  0  0
  5  6  1  1  0  0  0
  5  7  1  0  0  0  0
  5 14  1  0  0  0  0
  7  8  1  6  0  0  0
  7  9  1  0  0  0  0
  9 10  1  1  0  0  0
  9 11  1  0  0  0  0
 11 12  1  1  0  0  0
 11 13  1  0  0  0  0
 13 14  1  0  0  0  0
 13 15  1  1  0  0  0
 15 16  1  0  0  0  0
M  CHG  1   3  -1
M  END
>  <CHROM.1>
-179.47397605,-179.89013598,-61.24127065,45.13984944,11.95057345,10.88672761
2.48142384,-0.64508952,1.12286153

>  <Name>
ligand

>  <RI>
0

>  <Rbt.Current_Directory>
/home/itssahil/PROJECTS/Mol_Feturizer/New_Systems/rnas/3B4B

>  <Rbt.Executable>
rbdock ($Id: //depot/dev/client3/rdock/2013.1/src/exe/rbdock.cxx#4 $)

>  <Rbt.Library>
libRbt.so (2013.1, Build901 2013/11/27)

>  <Rbt.Parameter_File>
/export/apps/rDock/src/rDock_2013.1_src/data/scripts/dock_solv.prm

>  <Rbt.Receptor>
prm/pocket_docking_6.prm

>  <SCORE>
-7.75757

>  <SCORE.INTER>
-6.02979

>  <SCORE.INTER.CONST>
1

>  <SCORE.INTER.POLAR>
-0.899644

>  <SCORE.INTER.ROT>
3

>  <SCORE.INTER.SOLV>
17.4686

>  <SCORE.INTER.VDW>
-12.4439

>  <SCORE.INTER.norm>
-0.376862

>  <SCORE.INTRA>
-1.72779

>  <SCORE.INTRA.DIHEDRAL>
-2.21479

>  <SCORE.INTRA.DIHEDRAL.0>
2.21864

>  <SCORE.INTRA.POLAR>
0

>  <SCORE.INTRA.POLAR.0>
0

>  <SCORE.INTRA.REPUL>
0

>  <SCORE.INTRA.REPUL.0>
0

>  <SCORE.INTRA.SOLV>
-1.14045

>  <SCORE.INTRA.SOLV.lig_0>
-58.5963

>  <SCORE.INTRA.VDW>
-0.0501655

>  <SCORE.INTRA.VDW.0>
-0.437849

>  <SCORE.INTRA.norm>
-0.107987

>  <SCORE.RESTR>
0

>  <SCORE.RESTR.CAVITY>
0

>  <SCORE.RESTR.norm>
0

>  <SCORE.SYSTEM>
0

>  <SCORE.SYSTEM.CONST>
0

>  <SCORE.SYSTEM.DIHEDRAL>
0

>  <SCORE.SYSTEM.SOLV>
0

>  <SCORE.SYSTEM.norm>
0

>  <SCORE.heavy>
16

>  <SCORE.norm>
-0.484848

>  <RMSD>
5.800

$$$$
ligand
 OpenBabel11021811463D
libRbt.so/2013.1/901 2013/11/27
 16 16  0  0  0  0  0  0  0  0999 V2000
   42.8263   13.2263   12.3237 P   0  0  2  0  0  0  0  0  0  0  0  0
   42.9980   14.4577   13.1332 O   0  0  0  0  0  0  0  0  0  0  0  0
   41.7447   13.4707   11.1569 O   0  5  0  0  0  0  0  0  0  0  0  0
   42.2928   12.0320   13.2794 O   0  0  0  0  0  0  0  0  0  0  0  0
   47.6470   10.5546   10.9446 C   0  0  2  0  0  0  0  0  0  0  0  0
   48.2700   11.6287   10.2250 O   0  0  0  0  0  0  0  0  0  0  0  0
   47.5465    9.2682   10.0770 C   0  0  2  0  0  0  0  0  0  0  0  0
   48.8965    8.8587    9.6308 N   0  0  0  0  0  0  0  0  0  0  0  0
   46.6520    9.5670    8.8554 C   0  0  1  0  0  0  0  0  0  0  0  0
   46.5193    8.3914    8.0371 O   0  0  0  0  0  0  0  0  0  0  0  0
   45.2706    9.9971    9.3703 C   0  0  2  0  0  0  0  0  0  0  0  0
   44.4171   10.2977    8.2571 O   0  0  0  0  0  0  0  0  0  0  0  0
   45.4492   11.2617   10.2514 C   0  0  2  0  0  0  0  0  0  0  0  0
   46.3217   10.9704   11.3810 O   0  0  0  0  0  0  0  0  0  0  0  0
   44.0800   11.7087   10.7925 C   0  0  0  0  0  0  0  0  0  0  0  0
   44.2484   12.8466   11.6576 O   0  0  0  0  0  0  0  0  0  0  0  0
  1  2  1  1  0  0  0
  1  3  1  0  0  0  0
  1  4  2  0  0  0  0
  1 16  1  0  0  0  0
  5  6  1  6  0  0  0
  5  7  1  0  0  0  0
  5 14  1  0  0  0  0
  7  8  1  6  0  0  0
  7  9  1  0  0  0  0
  9 10  1  6  0  0  0
  9 11  1  0  0  0  0
 11 12  1  6  0  0  0
 11 13  1  0  0  0  0
 13 14  1  0  0  0  0
 13 15  1  1  0  0  0
 15 16  1  0  0  0  0
M  CHG  1   3  -1
M  END
>  <CHROM.1>
177.49811388,-174.98345957,-175.95597692,45.08659706,11.35609545,10.73551890
-2.36133165,0.21727652,-2.25280168

>  <Name>
ligand

>  <RI>
0

>  <Rbt.Current_Directory>
/home/itssahil/PROJECTS/Mol_Feturizer/New_Systems/rnas/3B4B

>  <Rbt.Executable>
rbdock ($Id: //depot/dev/client3/rdock/2013.1/src/exe/rbdock.cxx#4 $)

>  <Rbt.Library>
libRbt.so (2013.1, Build901 2013/11/27)

>  <Rbt.Parameter_File>
/export/apps/rDock/src/rDock_2013.1_src/data/scripts/dock_solv.prm

>  <Rbt.Receptor>
prm/pocket_docking_6.prm

>  <SCORE>
-7.99697

>  <SCORE.INTER>
-6.53499

>  <SCORE.INTER.CONST>
1

>  <SCORE.INTER.POLAR>
-0.899968

>  <SCORE.INTER.ROT>
3

>  <SCORE.INTER.SOLV>
19.1898

>  <SCORE.INTER.VDW>
-13.3534

>  <SCORE.INTER.norm>
-0.408437

>  <SCORE.INTRA>
-1.46198

>  <SCORE.INTRA.DIHEDRAL>
-2.04442

>  <SCORE.INTRA.DIHEDRAL.0>
2.21864

>  <SCORE.INTRA.POLAR>
0

>  <SCORE.INTRA.POLAR.0>
0

>  <SCORE.INTRA.REPUL>
0

>  <SCORE.INTRA.REPUL.0>
0

>  <SCORE.INTRA.SOLV>
-0.469325

>  <SCORE.INTRA.SOLV.lig_0>
-58.5963

>  <SCORE.INTRA.VDW>
-0.205109

>  <SCORE.INTRA.VDW.0>
-0.437849

>  <SCORE.INTRA.norm>
-0.0913738

>  <SCORE.RESTR>
0

>  <SCORE.RESTR.CAVITY>
0

>  <SCORE.RESTR.norm>
0

>  <SCORE.SYSTEM>
0

>  <SCORE.SYSTEM.CONST>
0

>  <SCORE.SYSTEM.DIHEDRAL>
0

>  <SCORE.SYSTEM.SOLV>
0

>  <SCORE.SYSTEM.norm>
0

>  <SCORE.heavy>
16

>  <SCORE.norm>
-0.499811

>  <RMSD>
5.838

$$$$
ligand
 OpenBabel11021811463D
libRbt.so/2013.1/901 2013/11/27
 16 16  0  0  0  0  0  0  0  0999 V2000
   43.9473   11.0071   13.9616 P   0  0  2  0  0  0  0  0  0  0  0  0
   42.6742   10.2463   13.9991 O   0  0  0  0  0  0  0  0  0  0  0  0
   44.9927   10.2984   12.9636 O   0  5  0  0  0  0  0  0  0  0  0  0
   44.5923   11.0375   15.4473 O   0  0  0  0  0  0  0  0  0  0  0  0
   41.5717   15.9170   12.3779 C   0  0  2  0  0  0  0  0  0  0  0  0
   40.6161   15.8555   11.3089 O   0  0  0  0  0  0  0  0  0  0  0  0
   42.8387   16.7187   11.9662 C   0  0  2  0  0  0  0  0  0  0  0  0
   42.4538   18.0872   11.5561 N   0  0  0  0  0  0  0  0  0  0  0  0
   43.5250   15.9867   10.7936 C   0  0  1  0  0  0  0  0  0  0  0  0
   44.7153   16.6903   10.3969 O   0  0  0  0  0  0  0  0  0  0  0  0
   43.8934   14.5724   11.2651 C   0  0  2  0  0  0  0  0  0  0  0  0
   44.5212   13.8581   10.1910 O   0  0  0  0  0  0  0  0  0  0  0  0
   42.5910   13.8438   11.6896 C   0  0  2  0  0  0  0  0  0  0  0  0
   41.9399   14.5654   12.7747 O   0  0  0  0  0  0  0  0  0  0  0  0
   42.9317   12.4256   12.1796 C   0  0  0  0  0  0  0  0  0  0  0  0
   43.6376   12.5015   13.4316 O   0  0  0  0  0  0  0  0  0  0  0  0
  1  2  1  1  0  0  0
  1  3  1  0  0  0  0
  1  4  2  0  0  0  0
  1 16  1  0  0  0  0
  5  6  1  6  0  0  0
  5  7  1  0  0  0  0
  5 14  1  0  0  0  0
  7  8  1  6  0  0  0
  7  9  1  0  0  0  0
  9 10  1  1  0  0  0
  9 11  1  0  0  0  0
 11 12  1  6  0  0  0
 11 13  1  0  0  0  0
 13 14  1  0  0  0  0
 13 15  1  1  0  0  0
 15 16  1  0  0  0  0
M  CHG  1   3  -1
M  END
>  <CHROM.1>
69.48125060,178.13510326,-53.58634354,43.28641078,13.69435935,12.41426260
1.34624172,-0.50352480,2.58065904

>  <Name>
ligand

>  <RI>
0

>  <Rbt.Current_Directory>
/home/itssahil/PROJECTS/Mol_Feturizer/New_Systems/rnas/3B4B

>  <Rbt.Executable>
rbdock ($Id: //depot/dev/client3/rdock/2013.1/src/exe/rbdock.cxx#4 $)

>  <Rbt.Library>
libRbt.so (2013.1, Build901 2013/11/27)

>  <Rbt.Parameter_File>
/export/apps/rDock/src/rDock_2013.1_src/data/scripts/dock_solv.prm

>  <Rbt.Receptor>
prm/pocket_docking_6.prm

>  <SCORE>
-8.67338

>  <SCORE.INTER>
-7.17199

>  <SCORE.INTER.CONST>
1

>  <SCORE.INTER.POLAR>
0

>  <SCORE.INTER.ROT>
3

>  <SCORE.INTER.SOLV>
15.0699

>  <SCORE.INTER.VDW>
-15.4046

>  <SCORE.INTER.norm>
-0.448249

>  <SCORE.INTRA>
-1.50139

>  <SCORE.INTRA.DIHEDRAL>
-1.81216

>  <SCORE.INTRA.DIHEDRAL.0>
2.21864

>  <SCORE.INTRA.POLAR>
0

>  <SCORE.INTRA.POLAR.0>
0

>  <SCORE.INTRA.REPUL>
0

>  <SCORE.INTRA.REPUL.0>
0

>  <SCORE.INTRA.SOLV>
-0.991741

>  <SCORE.INTRA.SOLV.lig_0>
-58.5963

>  <SCORE.INTRA.VDW>
-0.0994381

>  <SCORE.INTRA.VDW.0>
-0.437849

>  <SCORE.INTRA.norm>
-0.0938368

>  <SCORE.RESTR>
0

>  <SCORE.RESTR.CAVITY>
0

>  <SCORE.RESTR.norm>
0

>  <SCORE.SYSTEM>
0

>  <SCORE.SYSTEM.CONST>
0

>  <SCORE.SYSTEM.DIHEDRAL>
0

>  <SCORE.SYSTEM.SOLV>
0

>  <SCORE.SYSTEM.norm>
0

>  <SCORE.heavy>
16

>  <SCORE.norm>
-0.542086

>  <RMSD>
5.843

$$$$
ligand
 OpenBabel11021811463D
libRbt.so/2013.1/901 2013/11/27
 16 16  0  0  0  0  0  0  0  0999 V2000
   47.4793    9.8775    9.8392 P   0  0  2  0  0  0  0  0  0  0  0  0
   46.6569    8.7533    9.3283 O   0  0  0  0  0  0  0  0  0  0  0  0
   49.0426    9.4985    9.7795 O   0  5  0  0  0  0  0  0  0  0  0  0
   47.0785   10.1716   11.3810 O   0  0  0  0  0  0  0  0  0  0  0  0
   43.8104   14.2077    7.2949 C   0  0  2  0  0  0  0  0  0  0  0  0
   44.2239   13.9635    5.9425 O   0  0  0  0  0  0  0  0  0  0  0  0
   44.4823   15.4837    7.8763 C   0  0  2  0  0  0  0  0  0  0  0  0
   44.1528   16.6523    7.0306 N   0  0  0  0  0  0  0  0  0  0  0  0
   46.0097   15.2652    7.9075 C   0  0  1  0  0  0  0  0  0  0  0  0
   46.6659   16.4204    8.4590 O   0  0  0  0  0  0  0  0  0  0  0  0
   46.2976   14.0387    8.7857 C   0  0  2  0  0  0  0  0  0  0  0  0
   47.7114   13.7983    8.8235 O   0  0  0  0  0  0  0  0  0  0  0  0
   45.5731   12.8138    8.1675 C   0  0  2  0  0  0  0  0  0  0  0  0
   44.1366   13.0504    8.1160 O   0  0  0  0  0  0  0  0  0  0  0  0
   45.8339   11.5703    9.0354 C   0  0  0  0  0  0  0  0  0  0  0  0
   47.2117   11.1729    8.9117 O   0  0  0  0  0  0  0  0  0  0  0  0
  1  2  1  6  0  0  0
  1  3  1  0  0  0  0
  1  4  2  0  0  0  0
  1 16  1  0  0  0  0
  5  6  1  6  0  0  0
  5  7  1  0  0  0  0
  5 14  1  0  0  0  0
  7  8  1  6  0  0  0
  7  9  1  0  0  0  0
  9 10  1  1  0  0  0
  9 11  1  0  0  0  0
 11 12  1  6  0  0  0
 11 13  1  0  0  0  0
 13 14  1  0  0  0  0
 13 15  1  1  0  0  0
 15 16  1  0  0  0  0
M  CHG  1   3  -1
M  END
>  <CHROM.1>
-69.73359053,179.36004388,63.66058198,46.17228346,12.63625006,8.65922147
1.08537472,0.52237886,2.98356377

>  <Name>
ligand

>  <RI>
0

>  <Rbt.Current_Directory>
/home/itssahil/PROJECTS/Mol_Feturizer/New_Systems/rnas/3B4B

>  <Rbt.Executable>
rbdock ($Id: //depot/dev/client3/rdock/2013.1/src/exe/rbdock.cxx#4 $)

>  <Rbt.Library>
libRbt.so (2013.1, Build901 2013/11/27)

>  <Rbt.Parameter_File>
/export/apps/rDock/src/rDock_2013.1_src/data/scripts/dock_solv.prm

>  <Rbt.Receptor>
prm/pocket_docking_7.prm

>  <SCORE>
-8.96562

>  <SCORE.INTER>
-7.58418

>  <SCORE.INTER.CONST>
1

>  <SCORE.INTER.POLAR>
-1.125

>  <SCORE.INTER.ROT>
3

>  <SCORE.INTER.SOLV>
12.3635

>  <SCORE.INTER.VDW>
-11.0273

>  <SCORE.INTER.norm>
-0.474011

>  <SCORE.INTRA>
-1.38144

>  <SCORE.INTRA.DIHEDRAL>
-1.85898

>  <SCORE.INTRA.DIHEDRAL.0>
2.21864

>  <SCORE.INTRA.POLAR>
0

>  <SCORE.INTRA.POLAR.0>
0

>  <SCORE.INTRA.REPUL>
0

>  <SCORE.INTRA.REPUL.0>
0

>  <SCORE.INTRA.SOLV>
-0.700602

>  <SCORE.INTRA.SOLV.lig_0>
-58.5963

>  <SCORE.INTRA.VDW>
-0.101652

>  <SCORE.INTRA.VDW.0>
-0.437849

>  <SCORE.INTRA.norm>
-0.0863401

>  <SCORE.RESTR>
0

>  <SCORE.RESTR.CAVITY>
0

>  <SCORE.RESTR.norm>
0

>  <SCORE.SYSTEM>
0

>  <SCORE.SYSTEM.CONST>
0

>  <SCORE.SYSTEM.DIHEDRAL>
0

>  <SCORE.SYSTEM.SOLV>
0

>  <SCORE.SYSTEM.norm>
0

>  <SCORE.heavy>
16

>  <SCORE.norm>
-0.560351

>  <RMSD>
5.844

$$$$
ligand
 OpenBabel11021811463D
libRbt.so/2013.1/901 2013/11/27
 16 16  0  0  0  0  0  0  0  0999 V2000
   44.0510   11.2717   14.0041 P   0  0  2  0  0  0  0  0  0  0  0  0
   44.5963   11.3749   15.3800 O   0  0  0  0  0  0  0  0  0  0  0  0
   42.7461   10.3293   13.9894 O   0  5  0  0  0  0  0  0  0  0  0  0
   45.1718   10.6155   13.0360 O   0  0  0  0  0  0  0  0  0  0  0  0
   41.6246   16.1732   12.3401 C   0  0  2  0  0  0  0  0  0  0  0  0
   40.6729   16.0964   11.2686 O   0  0  0  0  0  0  0  0  0  0  0  0
   42.9106   16.9333   11.9087 C   0  0  2  0  0  0  0  0  0  0  0  0
   42.5572   18.2952   11.4509 N   0  0  0  0  0  0  0  0  0  0  0  0
   43.5864   16.1478   10.7650 C   0  0  1  0  0  0  0  0  0  0  0  0
   44.7935   16.8121   10.3514 O   0  0  0  0  0  0  0  0  0  0  0  0
   43.9220   14.7426   11.2855 C   0  0  2  0  0  0  0  0  0  0  0  0
   44.5392   13.9793   10.2394 O   0  0  0  0  0  0  0  0  0  0  0  0
   42.6021   14.0567   11.7272 C   0  0  2  0  0  0  0  0  0  0  0  0
   41.9617   14.8281   12.7839 O   0  0  0  0  0  0  0  0  0  0  0  0
   42.9098   12.6488   12.2662 C   0  0  0  0  0  0  0  0  0  0  0  0
   43.6423   12.7515   13.5008 O   0  0  0  0  0  0  0  0  0  0  0  0
  1  2  1  1  0  0  0
  1  3  1  0  0  0  0
  1  4  2  0  0  0  0
  1 16  1  0  0  0  0
  5  6  1  6  0  0  0
  5  7  1  0  0  0  0
  5 14  1  0  0  0  0
  7  8  1  6  0  0  0
  7  9  1  0  0  0  0
  9 10  1  1  0  0  0
  9 11  1  0  0  0  0
 11 12  1  6  0  0  0
 11 13  1  0  0  0  0
 13 14  1  0  0  0  0
 13 15  1  1  0  0  0
 15 16  1  0  0  0  0
M  CHG  1   3  -1
M  END
>  <CHROM.1>
67.96714605,-176.02839301,-170.47797172,43.34293171,13.91330800,12.41736041
1.34353582,-0.47844250,2.57512379

>  <Name>
ligand

>  <RI>
0

>  <Rbt.Current_Directory>
/home/itssahil/PROJECTS/Mol_Feturizer/New_Systems/rnas/3B4B

>  <Rbt.Executable>
rbdock ($Id: //depot/dev/client3/rdock/2013.1/src/exe/rbdock.cxx#4 $)

>  <Rbt.Library>
libRbt.so (2013.1, Build901 2013/11/27)

>  <Rbt.Parameter_File>
/export/apps/rDock/src/rDock_2013.1_src/data/scripts/dock_solv.prm

>  <Rbt.Receptor>
prm/pocket_docking_7.prm

>  <SCORE>
-10.7152

>  <SCORE.INTER>
-9.43599

>  <SCORE.INTER.CONST>
1

>  <SCORE.INTER.POLAR>
0

>  <SCORE.INTER.ROT>
3

>  <SCORE.INTER.SOLV>
10.8095

>  <SCORE.INTER.VDW>
-15.4938

>  <SCORE.INTER.norm>
-0.58975

>  <SCORE.INTRA>
-1.27922

>  <SCORE.INTRA.DIHEDRAL>
-1.76436

>  <SCORE.INTRA.DIHEDRAL.0>
2.21864

>  <SCORE.INTRA.POLAR>
0

>  <SCORE.INTRA.POLAR.0>
0

>  <SCORE.INTRA.REPUL>
0

>  <SCORE.INTRA.REPUL.0>
0

>  <SCORE.INTRA.SOLV>
-0.246537

>  <SCORE.INTRA.SOLV.lig_0>
-58.5963

>  <SCORE.INTRA.VDW>
-0.273777

>  <SCORE.INTRA.VDW.0>
-0.437849

>  <SCORE.INTRA.norm>
-0.0799514

>  <SCORE.RESTR>
0

>  <SCORE.RESTR.CAVITY>
0

>  <SCORE.RESTR.norm>
0

>  <SCORE.SYSTEM>
0

>  <SCORE.SYSTEM.CONST>
0

>  <SCORE.SYSTEM.DIHEDRAL>
0

>  <SCORE.SYSTEM.SOLV>
0

>  <SCORE.SYSTEM.norm>
0

>  <SCORE.heavy>
16

>  <SCORE.norm>
-0.669701

>  <RMSD>
5.866

$$$$
ligand
 OpenBabel11021811463D
libRbt.so/2013.1/901 2013/11/27
 16 16  0  0  0  0  0  0  0  0999 V2000
   42.2827   16.3175   12.1223 P   0  0  2  0  0  0  0  0  0  0  0  0
   40.8292   16.0203   12.1095 O   0  0  0  0  0  0  0  0  0  0  0  0
   42.5978   17.5222   13.1423 O   0  5  0  0  0  0  0  0  0  0  0  0
   42.7467   16.7654   10.6362 O   0  0  0  0  0  0  0  0  0  0  0  0
   45.6290   11.7094   11.7774 C   0  0  2  0  0  0  0  0  0  0  0  0
   45.0766   10.5442   11.1475 O   0  0  0  0  0  0  0  0  0  0  0  0
   45.8599   11.4815   13.2981 C   0  0  2  0  0  0  0  0  0  0  0  0
   46.7610   10.3255   13.4998 N   0  0  0  0  0  0  0  0  0  0  0  0
   44.4958   11.2143   13.9686 C   0  0  1  0  0  0  0  0  0  0  0  0
   44.6674   11.0176   15.3832 O   0  0  0  0  0  0  0  0  0  0  0  0
   43.5964   12.4343   13.7216 C   0  0  2  0  0  0  0  0  0  0  0  0
   42.3121   12.2112   14.3205 O   0  0  0  0  0  0  0  0  0  0  0  0
   43.4360   12.6214   12.1897 C   0  0  2  0  0  0  0  0  0  0  0  0
   44.7358   12.8401   11.5693 O   0  0  0  0  0  0  0  0  0  0  0  0
   42.5481   13.8468   11.9117 C   0  0  0  0  0  0  0  0  0  0  0  0
   43.0737   14.9938   12.6041 O   0  0  0  0  0  0  0  0  0  0  0  0
  1  2  1  6  0  0  0
  1  3  1  0  0  0  0
  1  4  2  0  0  0  0
  1 16  1  0  0  0  0
  5  6  1  1  0  0  0
  5  7  1  0  0  0  0
  5 14  1  0  0  0  0
  7  8  1  6  0  0  0
  7  9  1  0  0  0  0
  9 10  1  1  0  0  0
  9 11  1  0  0  0  0
 11 12  1  1  0  0  0
 11 13  1  0  0  0  0
 13 14  1  0  0  0  0
 13 15  1  1  0  0  0
 15 16  1  0  0  0  0
M  CHG  1   3  -1
M  END
>  <CHROM.1>
53.38639297,170.98588341,45.52905073,43.63912766,13.52238644,12.66112811
-2.42890258,-0.87108526,2.19819729

>  <Name>
ligand

>  <RI>
0

>  <Rbt.Current_Directory>
/home/itssahil/PROJECTS/Mol_Feturizer/New_Systems/rnas/3B4B

>  <Rbt.Executable>
rbdock ($Id: //depot/dev/client3/rdock/2013.1/src/exe/rbdock.cxx#4 $)

>  <Rbt.Library>
libRbt.so (2013.1, Build901 2013/11/27)

>  <Rbt.Parameter_File>
/export/apps/rDock/src/rDock_2013.1_src/data/scripts/dock_solv.prm

>  <Rbt.Receptor>
prm/pocket_docking_8.prm

>  <SCORE>
-9.0129

>  <SCORE.INTER>
-8.02563

>  <SCORE.INTER.CONST>
1

>  <SCORE.INTER.POLAR>
0

>  <SCORE.INTER.ROT>
3

>  <SCORE.INTER.SOLV>
15.3151

>  <SCORE.INTER.VDW>
-16.0554

>  <SCORE.INTER.norm>
-0.501602

>  <SCORE.INTRA>
-0.987276

>  <SCORE.INTRA.DIHEDRAL>
-1.34429

>  <SCORE.INTRA.DIHEDRAL.0>
2.21864

>  <SCORE.INTRA.POLAR>
0

>  <SCORE.INTRA.POLAR.0>
0

>  <SCORE.INTRA.REPUL>
0

>  <SCORE.INTRA.REPUL.0>
0

>  <SCORE.INTRA.SOLV>
-1.01184

>  <SCORE.INTRA.SOLV.lig_0>
-58.5963

>  <SCORE.INTRA.VDW>
0.190785

>  <SCORE.INTRA.VDW.0>
-0.437849

>  <SCORE.INTRA.norm>
-0.0617048

>  <SCORE.RESTR>
0

>  <SCORE.RESTR.CAVITY>
0

>  <SCORE.RESTR.norm>
0

>  <SCORE.SYSTEM>
0

>  <SCORE.SYSTEM.CONST>
0

>  <SCORE.SYSTEM.DIHEDRAL>
0

>  <SCORE.SYSTEM.SOLV>
0

>  <SCORE.SYSTEM.norm>
0

>  <SCORE.heavy>
16

>  <SCORE.norm>
-0.563306

>  <RMSD>
5.884

$$$$
ligand
 OpenBabel11021811463D
libRbt.so/2013.1/901 2013/11/27
 16 16  0  0  0  0  0  0  0  0999 V2000
   42.2642   16.3007   12.0376 P   0  0  2  0  0  0  0  0  0  0  0  0
   40.8113   16.0004   12.0389 O   0  0  0  0  0  0  0  0  0  0  0  0
   42.5821   17.5280   13.0294 O   0  5  0  0  0  0  0  0  0  0  0  0
   42.7196   16.7170   10.5397 O   0  0  0  0  0  0  0  0  0  0  0  0
   45.6152   11.6894   11.7768 C   0  0  2  0  0  0  0  0  0  0  0  0
   45.0601   10.5092   11.1778 O   0  0  0  0  0  0  0  0  0  0  0  0
   45.8560   11.4974   13.3008 C   0  0  2  0  0  0  0  0  0  0  0  0
   46.7597   10.3473   13.5239 N   0  0  0  0  0  0  0  0  0  0  0  0
   44.4965   11.2446   13.9860 C   0  0  1  0  0  0  0  0  0  0  0  0
   44.6772   11.0812   15.4037 O   0  0  0  0  0  0  0  0  0  0  0  0
   43.5942   12.4576   13.7163 C   0  0  2  0  0  0  0  0  0  0  0  0
   42.3139   12.2474   14.3284 O   0  0  0  0  0  0  0  0  0  0  0  0
   43.4239   12.6087   12.1815 C   0  0  2  0  0  0  0  0  0  0  0  0
   44.7194   12.8141   11.5479 O   0  0  0  0  0  0  0  0  0  0  0  0
   42.5328   13.8264   11.8805 C   0  0  0  0  0  0  0  0  0  0  0  0
   43.0606   14.9894   12.5440 O   0  0  0  0  0  0  0  0  0  0  0  0
  1  2  1  1  0  0  0
  1  3  1  0  0  0  0
  1  4  2  0  0  0  0
  1 16  1  0  0  0  0
  5  6  1  1  0  0  0
  5  7  1  0  0  0  0
  5 14  1  0  0  0  0
  7  8  1  6  0  0  0
  7  9  1  0  0  0  0
  9 10  1  1  0  0  0
  9 11  1  0  0  0  0
 11 12  1  1  0  0  0
 11 13  1  0  0  0  0
 13 14  1  0  0  0  0
 13 15  1  1  0  0  0
 15 16  1  0  0  0  0
M  CHG  1   3  -1
M  END
>  <CHROM.1>
53.31339441,171.04026667,45.46960620,43.62828261,13.52051639,12.63142365
-2.43890394,-0.87401805,2.16739741

>  <Name>
ligand

>  <RI>
0

>  <Rbt.Current_Directory>
/home/itssahil/PROJECTS/Mol_Feturizer/New_Systems/rnas/3B4B

>  <Rbt.Executable>
rbdock ($Id: //depot/dev/client3/rdock/2013.1/src/exe/rbdock.cxx#4 $)

>  <Rbt.Library>
libRbt.so (2013.1, Build901 2013/11/27)

>  <Rbt.Parameter_File>
/export/apps/rDock/src/rDock_2013.1_src/data/scripts/dock_solv.prm

>  <Rbt.Receptor>
prm/pocket_docking_8.prm

>  <SCORE>
-9.05055

>  <SCORE.INTER>
-8.06641

>  <SCORE.INTER.CONST>
1

>  <SCORE.INTER.POLAR>
0

>  <SCORE.INTER.ROT>
3

>  <SCORE.INTER.SOLV>
15.3064

>  <SCORE.INTER.VDW>
-16.0797

>  <SCORE.INTER.norm>
-0.504151

>  <SCORE.INTRA>
-0.984136

>  <SCORE.INTRA.DIHEDRAL>
-1.34294

>  <SCORE.INTRA.DIHEDRAL.0>
2.21864

>  <SCORE.INTRA.POLAR>
0

>  <SCORE.INTRA.POLAR.0>
0

>  <SCORE.INTRA.REPUL>
0

>  <SCORE.INTRA.REPUL.0>
0

>  <SCORE.INTRA.SOLV>
-1.01274

>  <SCORE.INTRA.SOLV.lig_0>
-58.5963

>  <SCORE.INTRA.VDW>
0.193708

>  <SCORE.INTRA.VDW.0>
-0.437849

>  <SCORE.INTRA.norm>
-0.0615085

>  <SCORE.RESTR>
0

>  <SCORE.RESTR.CAVITY>
0

>  <SCORE.RESTR.norm>
0

>  <SCORE.SYSTEM>
0

>  <SCORE.SYSTEM.CONST>
0

>  <SCORE.SYSTEM.DIHEDRAL>
0

>  <SCORE.SYSTEM.SOLV>
0

>  <SCORE.SYSTEM.norm>
0

>  <SCORE.heavy>
16

>  <SCORE.norm>
-0.565659

>  <RMSD>
5.884

$$$$
ligand
 OpenBabel11021811463D
libRbt.so/2013.1/901 2013/11/27
 16 16  0  0  0  0  0  0  0  0999 V2000
   42.2570   16.3150   12.0121 P   0  0  2  0  0  0  0  0  0  0  0  0
   40.8087   15.9941   12.0299 O   0  0  0  0  0  0  0  0  0  0  0  0
   42.5739   17.5246   13.0257 O   0  5  0  0  0  0  0  0  0  0  0  0
   42.6822   16.7705   10.5168 O   0  0  0  0  0  0  0  0  0  0  0  0
   45.6367   11.7094   11.6699 C   0  0  2  0  0  0  0  0  0  0  0  0
   45.0782   10.5329   11.0668 O   0  0  0  0  0  0  0  0  0  0  0  0
   45.8831   11.5091   13.1920 C   0  0  2  0  0  0  0  0  0  0  0  0
   46.7865   10.3570   13.4055 N   0  0  0  0  0  0  0  0  0  0  0  0
   44.5259   11.2540   13.8810 C   0  0  1  0  0  0  0  0  0  0  0  0
   44.7118   11.0829   15.2971 O   0  0  0  0  0  0  0  0  0  0  0  0
   43.6237   12.4692   13.6211 C   0  0  2  0  0  0  0  0  0  0  0  0
   42.3456   12.2570   14.2369 O   0  0  0  0  0  0  0  0  0  0  0  0
   43.4478   12.6286   12.0878 C   0  0  2  0  0  0  0  0  0  0  0  0
   44.7412   12.8361   11.4504 O   0  0  0  0  0  0  0  0  0  0  0  0
   42.5568   13.8487   11.7966 C   0  0  0  0  0  0  0  0  0  0  0  0
   43.0796   15.0044   12.4765 O   0  0  0  0  0  0  0  0  0  0  0  0
  1  2  1  1  0  0  0
  1  3  1  0  0  0  0
  1  4  2  0  0  0  0
  1 16  1  0  0  0  0
  5  6  1  1  0  0  0
  5  7  1  0  0  0  0
  5 14  1  0  0  0  0
  7  8  1  6  0  0  0
  7  9  1  0  0  0  0
  9 10  1  1  0  0  0
  9 11  1  0  0  0  0
 11 12  1  1  0  0  0
 11 13  1  0  0  0  0
 13 14  1  0  0  0  0
 13 15  1  1  0  0  0
 15 16  1  0  0  0  0
M  CHG  1   3  -1
M  END
>  <CHROM.1>
52.66526896,172.59261748,45.42937600,43.64189793,13.53515626,12.55837474
-2.46130136,-0.87911327,2.15940829

>  <Name>
ligand

>  <RI>
0

>  <Rbt.Current_Directory>
/home/itssahil/PROJECTS/Mol_Feturizer/New_Systems/rnas/3B4B

>  <Rbt.Executable>
rbdock ($Id: //depot/dev/client3/rdock/2013.1/src/exe/rbdock.cxx#4 $)

>  <Rbt.Library>
libRbt.so (2013.1, Build901 2013/11/27)

>  <Rbt.Parameter_File>
/export/apps/rDock/src/rDock_2013.1_src/data/scripts/dock_solv.prm

>  <Rbt.Receptor>
prm/pocket_docking_6.prm

>  <SCORE>
-9.00172

>  <SCORE.INTER>
-7.97836

>  <SCORE.INTER.CONST>
1

>  <SCORE.INTER.POLAR>
0

>  <SCORE.INTER.ROT>
3

>  <SCORE.INTER.SOLV>
14.7498

>  <SCORE.INTER.VDW>
-15.8355

>  <SCORE.INTER.norm>
-0.498648

>  <SCORE.INTRA>
-1.02336

>  <SCORE.INTRA.DIHEDRAL>
-1.4307

>  <SCORE.INTRA.DIHEDRAL.0>
2.21864

>  <SCORE.INTRA.POLAR>
0

>  <SCORE.INTRA.POLAR.0>
0

>  <SCORE.INTRA.REPUL>
0

>  <SCORE.INTRA.REPUL.0>
0

>  <SCORE.INTRA.SOLV>
-1.0249

>  <SCORE.INTRA.SOLV.lig_0>
-58.5963

>  <SCORE.INTRA.VDW>
0.204441

>  <SCORE.INTRA.VDW.0>
-0.437849

>  <SCORE.INTRA.norm>
-0.0639599

>  <SCORE.RESTR>
0

>  <SCORE.RESTR.CAVITY>
0

>  <SCORE.RESTR.norm>
0

>  <SCORE.SYSTEM>
0

>  <SCORE.SYSTEM.CONST>
0

>  <SCORE.SYSTEM.DIHEDRAL>
0

>  <SCORE.SYSTEM.SOLV>
0

>  <SCORE.SYSTEM.norm>
0

>  <SCORE.heavy>
16

>  <SCORE.norm>
-0.562607

>  <RMSD>
5.891

$$$$
ligand
 OpenBabel11021811463D
libRbt.so/2013.1/901 2013/11/27
 16 16  0  0  0  0  0  0  0  0999 V2000
   43.9989   11.3026   14.0505 P   0  0  2  0  0  0  0  0  0  0  0  0
   44.5646   11.4171   15.4172 O   0  0  0  0  0  0  0  0  0  0  0  0
   42.6757   10.3861   14.0683 O   0  5  0  0  0  0  0  0  0  0  0  0
   45.0935   10.6090   13.0784 O   0  0  0  0  0  0  0  0  0  0  0  0
   41.6121   16.2057   12.3458 C   0  0  2  0  0  0  0  0  0  0  0  0
   40.6599   16.1266   11.2749 O   0  0  0  0  0  0  0  0  0  0  0  0
   42.9016   16.9571   11.9094 C   0  0  2  0  0  0  0  0  0  0  0  0
   42.5545   18.3177   11.4432 N   0  0  0  0  0  0  0  0  0  0  0  0
   43.5735   16.1612   10.7706 C   0  0  1  0  0  0  0  0  0  0  0  0
   44.7836   16.8172   10.3527 O   0  0  0  0  0  0  0  0  0  0  0  0
   43.9026   14.7577   11.2999 C   0  0  2  0  0  0  0  0  0  0  0  0
   44.5160   13.9850   10.2585 O   0  0  0  0  0  0  0  0  0  0  0  0
   42.5796   14.0808   11.7460 C   0  0  2  0  0  0  0  0  0  0  0  0
   41.9430   14.8619   12.7980 O   0  0  0  0  0  0  0  0  0  0  0  0
   42.8808   12.6749   12.2939 C   0  0  0  0  0  0  0  0  0  0  0  0
   43.6124   12.7820   13.5286 O   0  0  0  0  0  0  0  0  0  0  0  0
  1  2  1  1  0  0  0
  1  3  1  0  0  0  0
  1  4  2  0  0  0  0
  1 16  1  0  0  0  0
  5  6  1  6  0  0  0
  5  7  1  0  0  0  0
  5 14  1  0  0  0  0
  7  8  1  6  0  0  0
  7  9  1  0  0  0  0
  9 10  1  1  0  0  0
  9 11  1  0  0  0  0
 11 12  1  6  0  0  0
 11 13  1  0  0  0  0
 13 14  1  0  0  0  0
 13 15  1  1  0  0  0
 15 16  1  0  0  0  0
M  CHG  1   3  -1
M  END
>  <CHROM.1>
68.04131308,-176.70542507,-171.43003806,43.31336858,13.93799705,12.44092360
1.35156031,-0.48345231,2.57036812

>  <Name>
ligand

>  <RI>
0

>  <Rbt.Current_Directory>
/home/itssahil/PROJECTS/Mol_Feturizer/New_Systems/rnas/3B4B

>  <Rbt.Executable>
rbdock ($Id: //depot/dev/client3/rdock/2013.1/src/exe/rbdock.cxx#4 $)

>  <Rbt.Library>
libRbt.so (2013.1, Build901 2013/11/27)

>  <Rbt.Parameter_File>
/export/apps/rDock/src/rDock_2013.1_src/data/scripts/dock_solv.prm

>  <Rbt.Receptor>
prm/pocket_docking_7.prm

>  <SCORE>
-10.7539

>  <SCORE.INTER>
-9.43488

>  <SCORE.INTER.CONST>
1

>  <SCORE.INTER.POLAR>
0

>  <SCORE.INTER.ROT>
3

>  <SCORE.INTER.SOLV>
11.0079

>  <SCORE.INTER.VDW>
-15.5592

>  <SCORE.INTER.norm>
-0.58968

>  <SCORE.INTRA>
-1.31899

>  <SCORE.INTRA.DIHEDRAL>
-1.81183

>  <SCORE.INTRA.DIHEDRAL.0>
2.21864

>  <SCORE.INTRA.POLAR>
0

>  <SCORE.INTRA.POLAR.0>
0

>  <SCORE.INTRA.REPUL>
0

>  <SCORE.INTRA.REPUL.0>
0

>  <SCORE.INTRA.SOLV>
-0.254288

>  <SCORE.INTRA.SOLV.lig_0>
-58.5963

>  <SCORE.INTRA.VDW>
-0.285929

>  <SCORE.INTRA.VDW.0>
-0.437849

>  <SCORE.INTRA.norm>
-0.0824368

>  <SCORE.RESTR>
0

>  <SCORE.RESTR.CAVITY>
0

>  <SCORE.RESTR.norm>
0

>  <SCORE.SYSTEM>
0

>  <SCORE.SYSTEM.CONST>
0

>  <SCORE.SYSTEM.DIHEDRAL>
0

>  <SCORE.SYSTEM.SOLV>
0

>  <SCORE.SYSTEM.norm>
0

>  <SCORE.heavy>
16

>  <SCORE.norm>
-0.672117

>  <RMSD>
5.902

$$$$
ligand
 OpenBabel11021811463D
libRbt.so/2013.1/901 2013/11/27
 16 16  0  0  0  0  0  0  0  0999 V2000
   42.2997   16.3995   12.0067 P   0  0  2  0  0  0  0  0  0  0  0  0
   42.4439   17.4240   13.0700 O   0  0  0  0  0  0  0  0  0  0  0  0
   42.9494   16.9260   10.6314 O   0  5  0  0  0  0  0  0  0  0  0  0
   40.7254   16.1113   11.7562 O   0  0  0  0  0  0  0  0  0  0  0  0
   45.5323   11.6794   11.6250 C   0  0  2  0  0  0  0  0  0  0  0  0
   44.9251   10.5177   11.0406 O   0  0  0  0  0  0  0  0  0  0  0  0
   45.7899   11.4854   13.1461 C   0  0  2  0  0  0  0  0  0  0  0  0
   46.6543   10.3040   13.3607 N   0  0  0  0  0  0  0  0  0  0  0  0
   44.4329   11.2855   13.8536 C   0  0  1  0  0  0  0  0  0  0  0  0
   44.6299   11.1219   15.2691 O   0  0  0  0  0  0  0  0  0  0  0  0
   43.5714   12.5296   13.5919 C   0  0  2  0  0  0  0  0  0  0  0  0
   42.2941   12.3690   14.2249 O   0  0  0  0  0  0  0  0  0  0  0  0
   43.3826   12.6800   12.0592 C   0  0  2  0  0  0  0  0  0  0  0  0
   44.6747   12.8351   11.4046 O   0  0  0  0  0  0  0  0  0  0  0  0
   42.5319   13.9282   11.7661 C   0  0  0  0  0  0  0  0  0  0  0  0
   43.0684   15.0586   12.4773 O   0  0  0  0  0  0  0  0  0  0  0  0
  1  2  1  1  0  0  0
  1  3  1  0  0  0  0
  1  4  2  0  0  0  0
  1 16  1  0  0  0  0
  5  6  1  1  0  0  0
  5  7  1  0  0  0  0
  5 14  1  0  0  0  0
  7  8  1  6  0  0  0
  7  9  1  0  0  0  0
  9 10  1  1  0  0  0
  9 11  1  0  0  0  0
 11 12  1  1  0  0  0
 11 13  1  0  0  0  0
 13 14  1  0  0  0  0
 13 15  1  1  0  0  0
 15 16  1  0  0  0  0
M  CHG  1   3  -1
M  END
>  <CHROM.1>
50.04411338,172.21043167,157.66578409,43.59763176,13.57455300,12.53010276
-2.44868379,-0.89897062,2.16992489

>  <Name>
ligand

>  <RI>
0

>  <Rbt.Current_Directory>
/home/itssahil/PROJECTS/Mol_Feturizer/New_Systems/rnas/3B4B

>  <Rbt.Executable>
rbdock ($Id: //depot/dev/client3/rdock/2013.1/src/exe/rbdock.cxx#4 $)

>  <Rbt.Library>
libRbt.so (2013.1, Build901 2013/11/27)

>  <Rbt.Parameter_File>
/export/apps/rDock/src/rDock_2013.1_src/data/scripts/dock_solv.prm

>  <Rbt.Receptor>
prm/pocket_docking_5.prm

>  <SCORE>
-7.66667

>  <SCORE.INTER>
-7.11927

>  <SCORE.INTER.CONST>
1

>  <SCORE.INTER.POLAR>
0

>  <SCORE.INTER.ROT>
3

>  <SCORE.INTER.SOLV>
16.8459

>  <SCORE.INTER.VDW>
-15.9615

>  <SCORE.INTER.norm>
-0.444955

>  <SCORE.INTRA>
-0.547651

>  <SCORE.INTRA.DIHEDRAL>
-0.847531

>  <SCORE.INTRA.DIHEDRAL.0>
2.21864

>  <SCORE.INTRA.POLAR>
0

>  <SCORE.INTRA.POLAR.0>
0

>  <SCORE.INTRA.REPUL>
0

>  <SCORE.INTRA.REPUL.0>
0

>  <SCORE.INTRA.SOLV>
-0.26209

>  <SCORE.INTRA.SOLV.lig_0>
-58.5963

>  <SCORE.INTRA.VDW>
0.00715963

>  <SCORE.INTRA.VDW.0>
-0.437849

>  <SCORE.INTRA.norm>
-0.0342282

>  <SCORE.RESTR>
0.000259448

>  <SCORE.RESTR.CAVITY>
0.000259448

>  <SCORE.RESTR.norm>
1.62155e-05

>  <SCORE.SYSTEM>
0

>  <SCORE.SYSTEM.CONST>
0

>  <SCORE.SYSTEM.DIHEDRAL>
0

>  <SCORE.SYSTEM.SOLV>
0

>  <SCORE.SYSTEM.norm>
0

>  <SCORE.heavy>
16

>  <SCORE.norm>
-0.479167

>  <RMSD>
5.904

$$$$
ligand
 OpenBabel11021811463D
libRbt.so/2013.1/901 2013/11/27
 16 16  0  0  0  0  0  0  0  0999 V2000
   43.9506   11.2891   14.0662 P   0  0  2  0  0  0  0  0  0  0  0  0
   44.5058   11.4077   15.4369 O   0  0  0  0  0  0  0  0  0  0  0  0
   42.6056   10.4049   14.0825 O   0  5  0  0  0  0  0  0  0  0  0  0
   45.0375   10.5570   13.1140 O   0  0  0  0  0  0  0  0  0  0  0  0
   41.6149   16.1905   12.3355 C   0  0  2  0  0  0  0  0  0  0  0  0
   40.6658   16.1118   11.2619 O   0  0  0  0  0  0  0  0  0  0  0  0
   42.9023   16.9491   11.9056 C   0  0  2  0  0  0  0  0  0  0  0  0
   42.5507   18.3102   11.4441 N   0  0  0  0  0  0  0  0  0  0  0  0
   43.5805   16.1609   10.7652 C   0  0  1  0  0  0  0  0  0  0  0  0
   44.7889   16.8238   10.3532 O   0  0  0  0  0  0  0  0  0  0  0  0
   43.9142   14.7566   11.2896 C   0  0  2  0  0  0  0  0  0  0  0  0
   44.5336   13.9909   10.2465 O   0  0  0  0  0  0  0  0  0  0  0  0
   42.5930   14.0722   11.7294 C   0  0  2  0  0  0  0  0  0  0  0  0
   41.9503   14.8462   12.7830 O   0  0  0  0  0  0  0  0  0  0  0  0
   42.8987   12.6653   12.2721 C   0  0  0  0  0  0  0  0  0  0  0  0
   43.6050   12.7705   13.5218 O   0  0  0  0  0  0  0  0  0  0  0  0
  1  2  1  1  0  0  0
  1  3  1  0  0  0  0
  1  4  2  0  0  0  0
  1 16  1  0  0  0  0
  5  6  1  6  0  0  0
  5  7  1  0  0  0  0
  5 14  1  0  0  0  0
  7  8  1  6  0  0  0
  7  9  1  0  0  0  0
  9 10  1  1  0  0  0
  9 11  1  0  0  0  0
 11 12  1  6  0  0  0
 11 13  1  0  0  0  0
 13 14  1  0  0  0  0
 13 15  1  1  0  0  0
 15 16  1  0  0  0  0
M  CHG  1   3  -1
M  END
>  <CHROM.1>
69.10272086,-178.72580055,-172.20250632,43.30015381,13.92910799,12.44076330
1.36342919,-0.48691187,2.57173712

>  <Name>
ligand

>  <RI>
0

>  <Rbt.Current_Directory>
/home/itssahil/PROJECTS/Mol_Feturizer/New_Systems/rnas/3B4B

>  <Rbt.Executable>
rbdock ($Id: //depot/dev/client3/rdock/2013.1/src/exe/rbdock.cxx#4 $)

>  <Rbt.Library>
libRbt.so (2013.1, Build901 2013/11/27)

>  <Rbt.Parameter_File>
/export/apps/rDock/src/rDock_2013.1_src/data/scripts/dock_solv.prm

>  <Rbt.Receptor>
prm/pocket_docking_8.prm

>  <SCORE>
-10.8216

>  <SCORE.INTER>
-9.48832

>  <SCORE.INTER.CONST>
1

>  <SCORE.INTER.POLAR>
0

>  <SCORE.INTER.ROT>
3

>  <SCORE.INTER.SOLV>
11.089

>  <SCORE.INTER.VDW>
-15.6219

>  <SCORE.INTER.norm>
-0.59302

>  <SCORE.INTRA>
-1.33329

>  <SCORE.INTRA.DIHEDRAL>
-1.81384

>  <SCORE.INTRA.DIHEDRAL.0>
2.21864

>  <SCORE.INTRA.POLAR>
0

>  <SCORE.INTRA.POLAR.0>
0

>  <SCORE.INTRA.REPUL>
0

>  <SCORE.INTRA.REPUL.0>
0

>  <SCORE.INTRA.SOLV>
-0.273627

>  <SCORE.INTRA.SOLV.lig_0>
-58.5963

>  <SCORE.INTRA.VDW>
-0.289553

>  <SCORE.INTRA.VDW.0>
-0.437849

>  <SCORE.INTRA.norm>
-0.0833304

>  <SCORE.RESTR>
0

>  <SCORE.RESTR.CAVITY>
0

>  <SCORE.RESTR.norm>
0

>  <SCORE.SYSTEM>
0

>  <SCORE.SYSTEM.CONST>
0

>  <SCORE.SYSTEM.DIHEDRAL>
0

>  <SCORE.SYSTEM.SOLV>
0

>  <SCORE.SYSTEM.norm>
0

>  <SCORE.heavy>
16

>  <SCORE.norm>
-0.67635

>  <RMSD>
5.915

$$$$
ligand
 OpenBabel11021811463D
libRbt.so/2013.1/901 2013/11/27
 16 16  0  0  0  0  0  0  0  0999 V2000
   42.2962   16.3561   11.9744 P   0  0  2  0  0  0  0  0  0  0  0  0
   42.5046   16.7952   13.3761 O   0  0  0  0  0  0  0  0  0  0  0  0
   42.9254   17.4294   10.9531 O   0  5  0  0  0  0  0  0  0  0  0  0
   40.7067   16.2390   11.6848 O   0  0  0  0  0  0  0  0  0  0  0  0
   45.6417   11.8223   12.0477 C   0  0  2  0  0  0  0  0  0  0  0  0
   44.9934   11.0019   11.0647 O   0  0  0  0  0  0  0  0  0  0  0  0
   45.8037   11.0729   13.4004 C   0  0  2  0  0  0  0  0  0  0  0  0
   46.5773    9.8287   13.1939 N   0  0  0  0  0  0  0  0  0  0  0  0
   44.4004   10.7401   13.9499 C   0  0  1  0  0  0  0  0  0  0  0  0
   44.5097   10.0617   15.2137 O   0  0  0  0  0  0  0  0  0  0  0  0
   43.6363   12.0591   14.1355 C   0  0  2  0  0  0  0  0  0  0  0  0
   42.3190   11.7834   14.6321 O   0  0  0  0  0  0  0  0  0  0  0  0
   43.5407   12.7668   12.7580 C   0  0  2  0  0  0  0  0  0  0  0  0
   44.8735   13.0441   12.2397 O   0  0  0  0  0  0  0  0  0  0  0  0
   42.7894   14.1002   12.9161 C   0  0  0  0  0  0  0  0  0  0  0  0
   43.0313   14.9324   11.7671 O   0  0  0  0  0  0  0  0  0  0  0  0
  1  2  1  1  0  0  0
  1  3  1  0  0  0  0
  1  4  2  0  0  0  0
  1 16  1  0  0  0  0
  5  6  1  6  0  0  0
  5  7  1  0  0  0  0
  5 14  1  0  0  0  0
  7  8  1  6  0  0  0
  7  9  1  0  0  0  0
  9 10  1  1  0  0  0
  9 11  1  0  0  0  0
 11 12  1  6  0  0  0
 11 13  1  0  0  0  0
 13 14  1  0  0  0  0
 13 15  1  1  0  0  0
 15 16  1  0  0  0  0
M  CHG  1   3  -1
M  END
>  <CHROM.1>
163.20697835,-177.32981085,42.02010595,43.63314528,13.42217420,12.75204973
-2.18687223,-0.71962897,2.43891796

>  <Name>
ligand

>  <RI>
0

>  <Rbt.Current_Directory>
/home/itssahil/PROJECTS/Mol_Feturizer/New_Systems/rnas/3B4B

>  <Rbt.Executable>
rbdock ($Id: //depot/dev/client3/rdock/2013.1/src/exe/rbdock.cxx#4 $)

>  <Rbt.Library>
libRbt.so (2013.1, Build901 2013/11/27)

>  <Rbt.Parameter_File>
/export/apps/rDock/src/rDock_2013.1_src/data/scripts/dock_solv.prm

>  <Rbt.Receptor>
prm/pocket_docking_5.prm

>  <SCORE>
-8.88781

>  <SCORE.INTER>
-8.28499

>  <SCORE.INTER.CONST>
1

>  <SCORE.INTER.POLAR>
0

>  <SCORE.INTER.ROT>
3

>  <SCORE.INTER.SOLV>
17.31

>  <SCORE.INTER.VDW>
-16.8933

>  <SCORE.INTER.norm>
-0.517812

>  <SCORE.INTRA>
-0.602821

>  <SCORE.INTRA.DIHEDRAL>
-0.739676

>  <SCORE.INTRA.DIHEDRAL.0>
2.21864

>  <SCORE.INTRA.POLAR>
0

>  <SCORE.INTRA.POLAR.0>
0

>  <SCORE.INTRA.REPUL>
0

>  <SCORE.INTRA.REPUL.0>
0

>  <SCORE.INTRA.SOLV>
-1.29292

>  <SCORE.INTRA.SOLV.lig_0>
-58.5963

>  <SCORE.INTRA.VDW>
0.413476

>  <SCORE.INTRA.VDW.0>
-0.437849

>  <SCORE.INTRA.norm>
-0.0376763

>  <SCORE.RESTR>
0

>  <SCORE.RESTR.CAVITY>
0

>  <SCORE.RESTR.norm>
0

>  <SCORE.SYSTEM>
0

>  <SCORE.SYSTEM.CONST>
0

>  <SCORE.SYSTEM.DIHEDRAL>
0

>  <SCORE.SYSTEM.SOLV>
0

>  <SCORE.SYSTEM.norm>
0

>  <SCORE.heavy>
16

>  <SCORE.norm>
-0.555488

>  <RMSD>
5.920

$$$$
ligand
 OpenBabel11021811463D
libRbt.so/2013.1/901 2013/11/27
 16 16  0  0  0  0  0  0  0  0999 V2000
   42.4110   16.4314   11.7592 P   0  0  2  0  0  0  0  0  0  0  0  0
   42.8415   16.6836   10.3620 O   0  0  0  0  0  0  0  0  0  0  0  0
   40.8190   16.2015   11.8206 O   0  5  0  0  0  0  0  0  0  0  0  0
   42.7816   17.7186   12.6702 O   0  0  0  0  0  0  0  0  0  0  0  0
   45.4972   11.6330   11.6506 C   0  0  2  0  0  0  0  0  0  0  0  0
   44.8656   10.4611   11.1146 O   0  0  0  0  0  0  0  0  0  0  0  0
   45.7590   11.4935   13.1769 C   0  0  2  0  0  0  0  0  0  0  0  0
   46.6026   10.3053   13.4334 N   0  0  0  0  0  0  0  0  0  0  0  0
   44.4023   11.3465   13.8977 C   0  0  1  0  0  0  0  0  0  0  0  0
   44.6036   11.2342   15.3176 O   0  0  0  0  0  0  0  0  0  0  0  0
   43.5626   12.5953   13.5918 C   0  0  2  0  0  0  0  0  0  0  0  0
   42.2859   12.4833   14.2363 O   0  0  0  0  0  0  0  0  0  0  0  0
   43.3686   12.6897   12.0553 C   0  0  2  0  0  0  0  0  0  0  0  0
   44.6599   12.7951   11.3893 O   0  0  0  0  0  0  0  0  0  0  0  0
   42.5396   13.9412   11.7177 C   0  0  0  0  0  0  0  0  0  0  0  0
   43.1596   15.1042   12.2961 O   0  0  0  0  0  0  0  0  0  0  0  0
  1  2  1  6  0  0  0
  1  3  1  0  0  0  0
  1  4  2  0  0  0  0
  1 16  1  0  0  0  0
  5  6  1  1  0  0  0
  5  7  1  0  0  0  0
  5 14  1  0  0  0  0
  7  8  1  6  0  0  0
  7  9  1  0  0  0  0
  9 10  1  1  0  0  0
  9 11  1  0  0  0  0
 11 12  1  1  0  0  0
 11 13  1  0  0  0  0
 13 14  1  0  0  0  0
 13 15  1  1  0  0  0
 15 16  1  0  0  0  0
M  CHG  1   3  -1
M  END
>  <CHROM.1>
54.50344385,171.73727096,-75.68150511,43.62211051,13.60452341,12.46364514
-2.41680227,-0.92133157,2.14911446

>  <Name>
ligand

>  <RI>
0

>  <Rbt.Current_Directory>
/home/itssahil/PROJECTS/Mol_Feturizer/New_Systems/rnas/3B4B

>  <Rbt.Executable>
rbdock ($Id: //depot/dev/client3/rdock/2013.1/src/exe/rbdock.cxx#4 $)

>  <Rbt.Library>
libRbt.so (2013.1, Build901 2013/11/27)

>  <Rbt.Parameter_File>
/export/apps/rDock/src/rDock_2013.1_src/data/scripts/dock_solv.prm

>  <Rbt.Receptor>
prm/pocket_docking_8.prm

>  <SCORE>
-7.38726

>  <SCORE.INTER>
-6.31708

>  <SCORE.INTER.CONST>
1

>  <SCORE.INTER.POLAR>
0

>  <SCORE.INTER.ROT>
3

>  <SCORE.INTER.SOLV>
16.9792

>  <SCORE.INTER.VDW>
-15.4711

>  <SCORE.INTER.norm>
-0.394817

>  <SCORE.INTRA>
-1.07018

>  <SCORE.INTRA.DIHEDRAL>
-1.40041

>  <SCORE.INTRA.DIHEDRAL.0>
2.21864

>  <SCORE.INTRA.POLAR>
0

>  <SCORE.INTRA.POLAR.0>
0

>  <SCORE.INTRA.REPUL>
0

>  <SCORE.INTRA.REPUL.0>
0

>  <SCORE.INTRA.SOLV>
-0.761056

>  <SCORE.INTRA.SOLV.lig_0>
-58.5963

>  <SCORE.INTRA.VDW>
0.0105497

>  <SCORE.INTRA.VDW.0>
-0.437849

>  <SCORE.INTRA.norm>
-0.0668865

>  <SCORE.RESTR>
0

>  <SCORE.RESTR.CAVITY>
0

>  <SCORE.RESTR.norm>
0

>  <SCORE.SYSTEM>
0

>  <SCORE.SYSTEM.CONST>
0

>  <SCORE.SYSTEM.DIHEDRAL>
0

>  <SCORE.SYSTEM.SOLV>
0

>  <SCORE.SYSTEM.norm>
0

>  <SCORE.heavy>
16

>  <SCORE.norm>
-0.461704

>  <RMSD>
5.920

$$$$
ligand
 OpenBabel11021811463D
libRbt.so/2013.1/901 2013/11/27
 16 16  0  0  0  0  0  0  0  0999 V2000
   42.2368   16.4083   11.9257 P   0  0  2  0  0  0  0  0  0  0  0  0
   40.7857   16.1007   11.9001 O   0  0  0  0  0  0  0  0  0  0  0  0
   42.5323   17.6256   12.9366 O   0  5  0  0  0  0  0  0  0  0  0  0
   42.7141   16.8442   10.4403 O   0  0  0  0  0  0  0  0  0  0  0  0
   45.5402   11.7568   11.6674 C   0  0  2  0  0  0  0  0  0  0  0  0
   44.9634   10.5754   11.0918 O   0  0  0  0  0  0  0  0  0  0  0  0
   45.7998   11.5820   13.1905 C   0  0  2  0  0  0  0  0  0  0  0  0
   46.6932   10.4245   13.4164 N   0  0  0  0  0  0  0  0  0  0  0  0
   44.4470   11.3541   13.8975 C   0  0  1  0  0  0  0  0  0  0  0  0
   44.6455   11.2072   15.3146 O   0  0  0  0  0  0  0  0  0  0  0  0
   43.5551   12.5739   13.6241 C   0  0  2  0  0  0  0  0  0  0  0  0
   42.2811   12.3866   14.2564 O   0  0  0  0  0  0  0  0  0  0  0  0
   43.3653   12.7068   12.0899 C   0  0  2  0  0  0  0  0  0  0  0  0
   44.6543   12.8888   11.4360 O   0  0  0  0  0  0  0  0  0  0  0  0
   42.4842   13.9308   11.7850 C   0  0  0  0  0  0  0  0  0  0  0  0
   43.0318   15.0953   12.4297 O   0  0  0  0  0  0  0  0  0  0  0  0
  1  2  1  6  0  0  0
  1  3  1  0  0  0  0
  1  4  2  0  0  0  0
  1 16  1  0  0  0  0
  5  6  1  1  0  0  0
  5  7  1  0  0  0  0
  5 14  1  0  0  0  0
  7  8  1  6  0  0  0
  7  9  1  0  0  0  0
  9 10  1  1  0  0  0
  9 11  1  0  0  0  0
 11 12  1  1  0  0  0
 11 13  1  0  0  0  0
 13 14  1  0  0  0  0
 13 15  1  1  0  0  0
 15 16  1  0  0  0  0
M  CHG  1   3  -1
M  END
>  <CHROM.1>
53.10511133,171.45825871,43.14979530,43.58281648,13.62153869,12.52992443
-2.45174018,-0.89169252,2.14589421

>  <Name>
ligand

>  <RI>
0

>  <Rbt.Current_Directory>
/home/itssahil/PROJECTS/Mol_Feturizer/New_Systems/rnas/3B4B

>  <Rbt.Executable>
rbdock ($Id: //depot/dev/client3/rdock/2013.1/src/exe/rbdock.cxx#4 $)

>  <Rbt.Library>
libRbt.so (2013.1, Build901 2013/11/27)

>  <Rbt.Parameter_File>
/export/apps/rDock/src/rDock_2013.1_src/data/scripts/dock_solv.prm

>  <Rbt.Receptor>
prm/pocket_docking_6.prm

>  <SCORE>
-8.96935

>  <SCORE.INTER>
-8.09519

>  <SCORE.INTER.CONST>
1

>  <SCORE.INTER.POLAR>
0

>  <SCORE.INTER.ROT>
3

>  <SCORE.INTER.SOLV>
14.4526

>  <SCORE.INTER.VDW>
-15.8143

>  <SCORE.INTER.norm>
-0.505949

>  <SCORE.INTRA>
-0.874164

>  <SCORE.INTRA.DIHEDRAL>
-1.2616

>  <SCORE.INTRA.DIHEDRAL.0>
2.21864

>  <SCORE.INTRA.POLAR>
0

>  <SCORE.INTRA.POLAR.0>
0

>  <SCORE.INTRA.REPUL>
0

>  <SCORE.INTRA.REPUL.0>
0

>  <SCORE.INTRA.SOLV>
-1.03657

>  <SCORE.INTRA.SOLV.lig_0>
-58.5963

>  <SCORE.INTRA.VDW>
0.274924

>  <SCORE.INTRA.VDW.0>
-0.437849

>  <SCORE.INTRA.norm>
-0.0546352

>  <SCORE.RESTR>
0

>  <SCORE.RESTR.CAVITY>
0

>  <SCORE.RESTR.norm>
0

>  <SCORE.SYSTEM>
0

>  <SCORE.SYSTEM.CONST>
0

>  <SCORE.SYSTEM.DIHEDRAL>
0

>  <SCORE.SYSTEM.SOLV>
0

>  <SCORE.SYSTEM.norm>
0

>  <SCORE.heavy>
16

>  <SCORE.norm>
-0.560585

>  <RMSD>
5.929

$$$$
ligand
 OpenBabel11021811463D
libRbt.so/2013.1/901 2013/11/27
 16 16  0  0  0  0  0  0  0  0999 V2000
   42.1609   16.3655   11.9837 P   0  0  2  0  0  0  0  0  0  0  0  0
   40.7129   16.0442   11.9465 O   0  0  0  0  0  0  0  0  0  0  0  0
   42.4397   17.5704   13.0140 O   0  5  0  0  0  0  0  0  0  0  0  0
   42.6409   16.8280   10.5073 O   0  0  0  0  0  0  0  0  0  0  0  0
   45.5883   11.8074   11.6823 C   0  0  2  0  0  0  0  0  0  0  0  0
   45.0638   10.6350   11.0421 O   0  0  0  0  0  0  0  0  0  0  0  0
   45.7946   11.5820   13.2069 C   0  0  2  0  0  0  0  0  0  0  0  0
   46.7079   10.4386   13.4247 N   0  0  0  0  0  0  0  0  0  0  0  0
   44.4223   11.2954   13.8522 C   0  0  1  0  0  0  0  0  0  0  0  0
   44.5707   11.1004   15.2696 O   0  0  0  0  0  0  0  0  0  0  0  0
   43.5106   12.5029   13.5892 C   0  0  2  0  0  0  0  0  0  0  0  0
   42.2188   12.2617   14.1644 O   0  0  0  0  0  0  0  0  0  0  0  0
   43.3757   12.6886   12.0547 C   0  0  2  0  0  0  0  0  0  0  0  0
   44.6834   12.9258   11.4582 O   0  0  0  0  0  0  0  0  0  0  0  0
   42.4759   13.9017   11.7608 C   0  0  0  0  0  0  0  0  0  0  0  0
   42.9662   15.0528   12.4722 O   0  0  0  0  0  0  0  0  0  0  0  0
  1  2  1  6  0  0  0
  1  3  1  0  0  0  0
  1  4  2  0  0  0  0
  1 16  1  0  0  0  0
  5  6  1  1  0  0  0
  5  7  1  0  0  0  0
  5 14  1  0  0  0  0
  7  8  1  6  0  0  0
  7  9  1  0  0  0  0
  9 10  1  1  0  0  0
  9 11  1  0  0  0  0
 11 12  1  6  0  0  0
 11 13  1  0  0  0  0
 13 14  1  0  0  0  0
 13 15  1  1  0  0  0
 15 16  1  0  0  0  0
M  CHG  1   3  -1
M  END
>  <CHROM.1>
52.89686178,171.31531971,45.85186905,43.55322606,13.59102549,12.53619710
-2.42516426,-0.85006431,2.20298358

>  <Name>
ligand

>  <RI>
0

>  <Rbt.Current_Directory>
/home/itssahil/PROJECTS/Mol_Feturizer/New_Systems/rnas/3B4B

>  <Rbt.Executable>
rbdock ($Id: //depot/dev/client3/rdock/2013.1/src/exe/rbdock.cxx#4 $)

>  <Rbt.Library>
libRbt.so (2013.1, Build901 2013/11/27)

>  <Rbt.Parameter_File>
/export/apps/rDock/src/rDock_2013.1_src/data/scripts/dock_solv.prm

>  <Rbt.Receptor>
prm/pocket_docking_7.prm

>  <SCORE>
-8.95986

>  <SCORE.INTER>
-7.96074

>  <SCORE.INTER.CONST>
1

>  <SCORE.INTER.POLAR>
0

>  <SCORE.INTER.ROT>
3

>  <SCORE.INTER.SOLV>
14.6814

>  <SCORE.INTER.VDW>
-15.8009

>  <SCORE.INTER.norm>
-0.497546

>  <SCORE.INTRA>
-0.999122

>  <SCORE.INTRA.DIHEDRAL>
-1.36208

>  <SCORE.INTRA.DIHEDRAL.0>
2.21864

>  <SCORE.INTRA.POLAR>
0

>  <SCORE.INTRA.POLAR.0>
0

>  <SCORE.INTRA.REPUL>
0

>  <SCORE.INTRA.REPUL.0>
0

>  <SCORE.INTRA.SOLV>
-1.01116

>  <SCORE.INTRA.SOLV.lig_0>
-58.5963

>  <SCORE.INTRA.VDW>
0.187497

>  <SCORE.INTRA.VDW.0>
-0.437849

>  <SCORE.INTRA.norm>
-0.0624451

>  <SCORE.RESTR>
0

>  <SCORE.RESTR.CAVITY>
0

>  <SCORE.RESTR.norm>
0

>  <SCORE.SYSTEM>
0

>  <SCORE.SYSTEM.CONST>
0

>  <SCORE.SYSTEM.DIHEDRAL>
0

>  <SCORE.SYSTEM.SOLV>
0

>  <SCORE.SYSTEM.norm>
0

>  <SCORE.heavy>
16

>  <SCORE.norm>
-0.559992

>  <RMSD>
5.949

$$$$
ligand
 OpenBabel11021811463D
libRbt.so/2013.1/901 2013/11/27
 16 16  0  0  0  0  0  0  0  0999 V2000
   42.2356   16.3696   11.8316 P   0  0  2  0  0  0  0  0  0  0  0  0
   42.5249   16.9705   13.1568 O   0  0  0  0  0  0  0  0  0  0  0  0
   42.7017   17.3630   10.6538 O   0  5  0  0  0  0  0  0  0  0  0  0
   40.6403   16.1226   11.6967 O   0  0  0  0  0  0  0  0  0  0  0  0
   45.6068   11.8197   12.0191 C   0  0  2  0  0  0  0  0  0  0  0  0
   44.9118   10.9911   11.0756 O   0  0  0  0  0  0  0  0  0  0  0  0
   45.7838   11.1027   13.3874 C   0  0  2  0  0  0  0  0  0  0  0  0
   46.5187    9.8329   13.1957 N   0  0  0  0  0  0  0  0  0  0  0  0
   44.3870   10.8229   13.9810 C   0  0  1  0  0  0  0  0  0  0  0  0
   44.5109   10.1760   15.2598 O   0  0  0  0  0  0  0  0  0  0  0  0
   43.6630   12.1668   14.1494 C   0  0  2  0  0  0  0  0  0  0  0  0
   42.3522   11.9403   14.6863 O   0  0  0  0  0  0  0  0  0  0  0  0
   43.5506   12.8396   12.7558 C   0  0  2  0  0  0  0  0  0  0  0  0
   44.8764   13.0666   12.1967 O   0  0  0  0  0  0  0  0  0  0  0  0
   42.8391   14.1967   12.8960 C   0  0  0  0  0  0  0  0  0  0  0  0
   43.0514   14.9806   11.7078 O   0  0  0  0  0  0  0  0  0  0  0  0
  1  2  1  1  0  0  0
  1  3  1  0  0  0  0
  1  4  2  0  0  0  0
  1 16  1  0  0  0  0
  5  6  1  6  0  0  0
  5  7  1  0  0  0  0
  5 14  1  0  0  0  0
  7  8  1  6  0  0  0
  7  9  1  0  0  0  0
  9 10  1  1  0  0  0
  9 11  1  0  0  0  0
 11 12  1  6  0  0  0
 11 13  1  0  0  0  0
 13 14  1  0  0  0  0
 13 15  1  1  0  0  0
 15 16  1  0  0  0  0
M  CHG  1   3  -1
M  END
>  <CHROM.1>
164.32599736,176.97539956,48.46612055,43.60492039,13.46497069,12.70193506
-2.21191271,-0.74494118,2.37958286

>  <Name>
ligand

>  <RI>
0

>  <Rbt.Current_Directory>
/home/itssahil/PROJECTS/Mol_Feturizer/New_Systems/rnas/3B4B

>  <Rbt.Executable>
rbdock ($Id: //depot/dev/client3/rdock/2013.1/src/exe/rbdock.cxx#4 $)

>  <Rbt.Library>
libRbt.so (2013.1, Build901 2013/11/27)

>  <Rbt.Parameter_File>
/export/apps/rDock/src/rDock_2013.1_src/data/scripts/dock_solv.prm

>  <Rbt.Receptor>
prm/pocket_docking_6.prm

>  <SCORE>
-9.34906

>  <SCORE.INTER>
-8.38884

>  <SCORE.INTER.CONST>
1

>  <SCORE.INTER.POLAR>
0

>  <SCORE.INTER.ROT>
3

>  <SCORE.INTER.SOLV>
17.7183

>  <SCORE.INTER.VDW>
-17.0987

>  <SCORE.INTER.norm>
-0.524302

>  <SCORE.INTRA>
-0.960217

>  <SCORE.INTRA.DIHEDRAL>
-1.12586

>  <SCORE.INTRA.DIHEDRAL.0>
2.21864

>  <SCORE.INTRA.POLAR>
0

>  <SCORE.INTRA.POLAR.0>
0

>  <SCORE.INTRA.REPUL>
0

>  <SCORE.INTRA.REPUL.0>
0

>  <SCORE.INTRA.SOLV>
-1.23403

>  <SCORE.INTRA.SOLV.lig_0>
-58.5963

>  <SCORE.INTRA.VDW>
0.219726

>  <SCORE.INTRA.VDW.0>
-0.437849

>  <SCORE.INTRA.norm>
-0.0600136

>  <SCORE.RESTR>
0

>  <SCORE.RESTR.CAVITY>
0

>  <SCORE.RESTR.norm>
0

>  <SCORE.SYSTEM>
0

>  <SCORE.SYSTEM.CONST>
0

>  <SCORE.SYSTEM.DIHEDRAL>
0

>  <SCORE.SYSTEM.SOLV>
0

>  <SCORE.SYSTEM.norm>
0

>  <SCORE.heavy>
16

>  <SCORE.norm>
-0.584316

>  <RMSD>
5.952

$$$$
ligand
 OpenBabel11021811463D
libRbt.so/2013.1/901 2013/11/27
 16 16  0  0  0  0  0  0  0  0999 V2000
   41.8565   16.2295   11.7500 P   0  0  2  0  0  0  0  0  0  0  0  0
   40.3999   16.2922   11.4753 O   0  0  0  0  0  0  0  0  0  0  0  0
   42.2122   17.0718   13.0747 O   0  5  0  0  0  0  0  0  0  0  0  0
   42.6614   16.8713   10.4992 O   0  0  0  0  0  0  0  0  0  0  0  0
   45.9493   11.5632   11.8117 C   0  0  2  0  0  0  0  0  0  0  0  0
   45.1861   10.7426   10.9152 O   0  0  0  0  0  0  0  0  0  0  0  0
   45.8243   11.0726   13.2818 C   0  0  2  0  0  0  0  0  0  0  0  0
   46.2743    9.6665   13.3802 N   0  0  0  0  0  0  0  0  0  0  0  0
   44.3478   11.1887   13.7157 C   0  0  1  0  0  0  0  0  0  0  0  0
   44.1958   10.7609   15.0806 O   0  0  0  0  0  0  0  0  0  0  0  0
   43.9272   12.6599   13.5851 C   0  0  2  0  0  0  0  0  0  0  0  0
   42.5516   12.8002   13.9672 O   0  0  0  0  0  0  0  0  0  0  0  0
   44.1076   13.0905   12.1054 C   0  0  2  0  0  0  0  0  0  0  0  0
   45.5001   12.9438   11.7034 O   0  0  0  0  0  0  0  0  0  0  0  0
   43.7049   14.5670   11.9469 C   0  0  0  0  0  0  0  0  0  0  0  0
   42.2707   14.6844   11.9766 O   0  0  0  0  0  0  0  0  0  0  0  0
  1  2  1  6  0  0  0
  1  3  1  0  0  0  0
  1  4  2  0  0  0  0
  1 16  1  0  0  0  0
  5  6  1  6  0  0  0
  5  7  1  0  0  0  0
  5 14  1  0  0  0  0
  7  8  1  6  0  0  0
  7  9  1  0  0  0  0
  9 10  1  1  0  0  0
  9 11  1  0  0  0  0
 11 12  1  6  0  0  0
 11 13  1  0  0  0  0
 13 14  1  0  0  0  0
 13 15  1  1  0  0  0
 15 16  1  0  0  0  0
M  CHG  1   3  -1
M  END
>  <CHROM.1>
-75.28171105,-177.73822888,167.27838684,43.61554005,13.53694168,12.44625379
-2.38914957,-0.76714154,2.26145765

>  <Name>
ligand

>  <RI>
0

>  <Rbt.Current_Directory>
/home/itssahil/PROJECTS/Mol_Feturizer/New_Systems/rnas/3B4B

>  <Rbt.Executable>
rbdock ($Id: //depot/dev/client3/rdock/2013.1/src/exe/rbdock.cxx#4 $)

>  <Rbt.Library>
libRbt.so (2013.1, Build901 2013/11/27)

>  <Rbt.Parameter_File>
/export/apps/rDock/src/rDock_2013.1_src/data/scripts/dock_solv.prm

>  <Rbt.Receptor>
prm/pocket_docking_5.prm

>  <SCORE>
-8.5448

>  <SCORE.INTER>
-7.63413

>  <SCORE.INTER.CONST>
1

>  <SCORE.INTER.POLAR>
0

>  <SCORE.INTER.ROT>
3

>  <SCORE.INTER.SOLV>
15.3449

>  <SCORE.INTER.VDW>
-15.8044

>  <SCORE.INTER.norm>
-0.477133

>  <SCORE.INTRA>
-0.91078

>  <SCORE.INTRA.DIHEDRAL>
-1.14096

>  <SCORE.INTRA.DIHEDRAL.0>
2.21864

>  <SCORE.INTRA.POLAR>
0

>  <SCORE.INTRA.POLAR.0>
0

>  <SCORE.INTRA.REPUL>
0

>  <SCORE.INTRA.REPUL.0>
0

>  <SCORE.INTRA.SOLV>
-0.145338

>  <SCORE.INTRA.SOLV.lig_0>
-58.5963

>  <SCORE.INTRA.VDW>
-0.267634

>  <SCORE.INTRA.VDW.0>
-0.437849

>  <SCORE.INTRA.norm>
-0.0569238

>  <SCORE.RESTR>
0.000114331

>  <SCORE.RESTR.CAVITY>
0.000114331

>  <SCORE.RESTR.norm>
7.14569e-06

>  <SCORE.SYSTEM>
0

>  <SCORE.SYSTEM.CONST>
0

>  <SCORE.SYSTEM.DIHEDRAL>
0

>  <SCORE.SYSTEM.SOLV>
0

>  <SCORE.SYSTEM.norm>
0

>  <SCORE.heavy>
16

>  <SCORE.norm>
-0.53405

>  <RMSD>
5.954

$$$$
ligand
 OpenBabel11021811463D
libRbt.so/2013.1/901 2013/11/27
 16 16  0  0  0  0  0  0  0  0999 V2000
   42.2050   16.3602   11.8390 P   0  0  2  0  0  0  0  0  0  0  0  0
   42.5070   16.9716   13.1565 O   0  0  0  0  0  0  0  0  0  0  0  0
   42.6500   17.3486   10.6490 O   0  5  0  0  0  0  0  0  0  0  0  0
   40.6097   16.1023   11.7257 O   0  0  0  0  0  0  0  0  0  0  0  0
   45.6004   11.8193   12.0213 C   0  0  2  0  0  0  0  0  0  0  0  0
   44.8986   10.9928   11.0811 O   0  0  0  0  0  0  0  0  0  0  0  0
   45.7830   11.1013   13.3883 C   0  0  2  0  0  0  0  0  0  0  0  0
   46.5140    9.8300   13.1923 N   0  0  0  0  0  0  0  0  0  0  0  0
   44.3887   10.8245   13.9891 C   0  0  1  0  0  0  0  0  0  0  0  0
   44.5178   10.1767   15.2670 O   0  0  0  0  0  0  0  0  0  0  0  0
   43.6687   12.1699   14.1619 C   0  0  2  0  0  0  0  0  0  0  0  0
   42.3602   11.9461   14.7056 O   0  0  0  0  0  0  0  0  0  0  0  0
   43.5504   12.8435   12.7692 C   0  0  2  0  0  0  0  0  0  0  0  0
   44.8738   13.0678   12.2032 O   0  0  0  0  0  0  0  0  0  0  0  0
   42.8428   14.2021   12.9138 C   0  0  0  0  0  0  0  0  0  0  0  0
   43.0280   14.9755   11.7142 O   0  0  0  0  0  0  0  0  0  0  0  0
  1  2  1  1  0  0  0
  1  3  1  0  0  0  0
  1  4  2  0  0  0  0
  1 16  1  0  0  0  0
  5  6  1  6  0  0  0
  5  7  1  0  0  0  0
  5 14  1  0  0  0  0
  7  8  1  6  0  0  0
  7  9  1  0  0  0  0
  9 10  1  1  0  0  0
  9 11  1  0  0  0  0
 11 12  1  6  0  0  0
 11 13  1  0  0  0  0
 13 14  1  0  0  0  0
 13 15  1  1  0  0  0
 15 16  1  0  0  0  0
M  CHG  1   3  -1
M  END
>  <CHROM.1>
165.47443707,176.47790437,48.08217658,43.59321255,13.46244343,12.70992203
-2.22152751,-0.74760632,2.37040525

>  <Name>
ligand

>  <RI>
0

>  <Rbt.Current_Directory>
/home/itssahil/PROJECTS/Mol_Feturizer/New_Systems/rnas/3B4B

>  <Rbt.Executable>
rbdock ($Id: //depot/dev/client3/rdock/2013.1/src/exe/rbdock.cxx#4 $)

>  <Rbt.Library>
libRbt.so (2013.1, Build901 2013/11/27)

>  <Rbt.Parameter_File>
/export/apps/rDock/src/rDock_2013.1_src/data/scripts/dock_solv.prm

>  <Rbt.Receptor>
prm/pocket_docking_6.prm

>  <SCORE>
-9.31932

>  <SCORE.INTER>
-8.31565

>  <SCORE.INTER.CONST>
1

>  <SCORE.INTER.POLAR>
0

>  <SCORE.INTER.ROT>
3

>  <SCORE.INTER.SOLV>
17.9728

>  <SCORE.INTER.VDW>
-17.1347

>  <SCORE.INTER.norm>
-0.519728

>  <SCORE.INTRA>
-1.00367

>  <SCORE.INTRA.DIHEDRAL>
-1.20874

>  <SCORE.INTRA.DIHEDRAL.0>
2.21864

>  <SCORE.INTRA.POLAR>
0

>  <SCORE.INTRA.POLAR.0>
0

>  <SCORE.INTRA.REPUL>
0

>  <SCORE.INTRA.REPUL.0>
0

>  <SCORE.INTRA.SOLV>
-1.24022

>  <SCORE.INTRA.SOLV.lig_0>
-58.5963

>  <SCORE.INTRA.VDW>
0.220817

>  <SCORE.INTRA.VDW.0>
-0.437849

>  <SCORE.INTRA.norm>
-0.0627291

>  <SCORE.RESTR>
0

>  <SCORE.RESTR.CAVITY>
0

>  <SCORE.RESTR.norm>
0

>  <SCORE.SYSTEM>
0

>  <SCORE.SYSTEM.CONST>
0

>  <SCORE.SYSTEM.DIHEDRAL>
0

>  <SCORE.SYSTEM.SOLV>
0

>  <SCORE.SYSTEM.norm>
0

>  <SCORE.heavy>
16

>  <SCORE.norm>
-0.582457

>  <RMSD>
5.963

$$$$
ligand
 OpenBabel11021811463D
libRbt.so/2013.1/901 2013/11/27
 16 16  0  0  0  0  0  0  0  0999 V2000
   42.1984   16.3612   11.8728 P   0  0  2  0  0  0  0  0  0  0  0  0
   42.4383   16.9215   13.2254 O   0  0  0  0  0  0  0  0  0  0  0  0
   42.7036   17.3911   10.7436 O   0  5  0  0  0  0  0  0  0  0  0  0
   40.6096   16.1158   11.6732 O   0  0  0  0  0  0  0  0  0  0  0  0
   45.5979   11.8284   12.0179 C   0  0  2  0  0  0  0  0  0  0  0  0
   44.9046   11.0054   11.0683 O   0  0  0  0  0  0  0  0  0  0  0  0
   45.7803   11.0999   13.3795 C   0  0  2  0  0  0  0  0  0  0  0  0
   46.5200    9.8349   13.1752 N   0  0  0  0  0  0  0  0  0  0  0  0
   44.3856   10.8091   13.9729 C   0  0  1  0  0  0  0  0  0  0  0  0
   44.5144   10.1512   15.2456 O   0  0  0  0  0  0  0  0  0  0  0  0
   43.6565   12.1484   14.1546 C   0  0  2  0  0  0  0  0  0  0  0  0
   42.3475   11.9117   14.6917 O   0  0  0  0  0  0  0  0  0  0  0  0
   43.5388   12.8332   12.7672 C   0  0  2  0  0  0  0  0  0  0  0  0
   44.8627   13.0706   12.2079 O   0  0  0  0  0  0  0  0  0  0  0  0
   42.8220   14.1860   12.9208 C   0  0  0  0  0  0  0  0  0  0  0  0
   43.0220   14.9781   11.7359 O   0  0  0  0  0  0  0  0  0  0  0  0
  1  2  1  1  0  0  0
  1  3  1  0  0  0  0
  1  4  2  0  0  0  0
  1 16  1  0  0  0  0
  5  6  1  6  0  0  0
  5  7  1  0  0  0  0
  5 14  1  0  0  0  0
  7  8  1  6  0  0  0
  7  9  1  0  0  0  0
  9 10  1  1  0  0  0
  9 11  1  0  0  0  0
 11 12  1  6  0  0  0
 11 13  1  0  0  0  0
 13 14  1  0  0  0  0
 13 15  1  1  0  0  0
 15 16  1  0  0  0  0
M  CHG  1   3  -1
M  END
>  <CHROM.1>
164.68688183,176.87320625,45.64956739,43.58722134,13.45762058,12.71724792
-2.21902756,-0.74235267,2.38299842

>  <Name>
ligand

>  <RI>
0

>  <Rbt.Current_Directory>
/home/itssahil/PROJECTS/Mol_Feturizer/New_Systems/rnas/3B4B

>  <Rbt.Executable>
rbdock ($Id: //depot/dev/client3/rdock/2013.1/src/exe/rbdock.cxx#4 $)

>  <Rbt.Library>
libRbt.so (2013.1, Build901 2013/11/27)

>  <Rbt.Parameter_File>
/export/apps/rDock/src/rDock_2013.1_src/data/scripts/dock_solv.prm

>  <Rbt.Receptor>
prm/pocket_docking_8.prm

>  <SCORE>
-9.37215

>  <SCORE.INTER>
-8.51744

>  <SCORE.INTER.CONST>
1

>  <SCORE.INTER.POLAR>
0

>  <SCORE.INTER.ROT>
3

>  <SCORE.INTER.SOLV>
17.7763

>  <SCORE.INTER.VDW>
-17.2037

>  <SCORE.INTER.norm>
-0.53234

>  <SCORE.INTRA>
-0.854713

>  <SCORE.INTRA.DIHEDRAL>
-1.04869

>  <SCORE.INTRA.DIHEDRAL.0>
2.21864

>  <SCORE.INTRA.POLAR>
0

>  <SCORE.INTRA.POLAR.0>
0

>  <SCORE.INTRA.REPUL>
0

>  <SCORE.INTRA.REPUL.0>
0

>  <SCORE.INTRA.SOLV>
-1.26052

>  <SCORE.INTRA.SOLV.lig_0>
-58.5963

>  <SCORE.INTRA.VDW>
0.299892

>  <SCORE.INTRA.VDW.0>
-0.437849

>  <SCORE.INTRA.norm>
-0.0534195

>  <SCORE.RESTR>
0

>  <SCORE.RESTR.CAVITY>
0

>  <SCORE.RESTR.norm>
0

>  <SCORE.SYSTEM>
0

>  <SCORE.SYSTEM.CONST>
0

>  <SCORE.SYSTEM.DIHEDRAL>
0

>  <SCORE.SYSTEM.SOLV>
0

>  <SCORE.SYSTEM.norm>
0

>  <SCORE.heavy>
16

>  <SCORE.norm>
-0.58576

>  <RMSD>
5.965

$$$$
ligand
 OpenBabel11021811463D
libRbt.so/2013.1/901 2013/11/27
 16 16  0  0  0  0  0  0  0  0999 V2000
   42.1867   16.3487   11.8632 P   0  0  2  0  0  0  0  0  0  0  0  0
   42.4431   16.9118   13.2117 O   0  0  0  0  0  0  0  0  0  0  0  0
   42.6965   17.3675   10.7260 O   0  5  0  0  0  0  0  0  0  0  0  0
   40.5937   16.1220   11.6759 O   0  0  0  0  0  0  0  0  0  0  0  0
   45.5846   11.8178   12.0225 C   0  0  2  0  0  0  0  0  0  0  0  0
   44.8784   10.9782   11.0974 O   0  0  0  0  0  0  0  0  0  0  0  0
   45.7897   11.1121   13.3928 C   0  0  2  0  0  0  0  0  0  0  0  0
   46.5288    9.8453   13.1977 N   0  0  0  0  0  0  0  0  0  0  0  0
   44.4050   10.8285   14.0125 C   0  0  1  0  0  0  0  0  0  0  0  0
   44.5549   10.1919   15.2937 O   0  0  0  0  0  0  0  0  0  0  0  0
   43.6759   12.1692   14.1836 C   0  0  2  0  0  0  0  0  0  0  0  0
   42.3760   11.9390   14.7448 O   0  0  0  0  0  0  0  0  0  0  0  0
   43.5353   12.8310   12.7873 C   0  0  2  0  0  0  0  0  0  0  0  0
   44.8499   13.0617   12.2036 O   0  0  0  0  0  0  0  0  0  0  0  0
   42.8182   14.1848   12.9299 C   0  0  0  0  0  0  0  0  0  0  0  0
   42.9923   14.9550   11.7266 O   0  0  0  0  0  0  0  0  0  0  0  0
  1  2  1  1  0  0  0
  1  3  1  0  0  0  0
  1  4  2  0  0  0  0
  1 16  1  0  0  0  0
  5  6  1  6  0  0  0
  5  7  1  0  0  0  0
  5 14  1  0  0  0  0
  7  8  1  6  0  0  0
  7  9  1  0  0  0  0
  9 10  1  1  0  0  0
  9 11  1  0  0  0  0
 11 12  1  6  0  0  0
 11 13  1  0  0  0  0
 13 14  1  0  0  0  0
 13 15  1  1  0  0  0
 15 16  1  0  0  0  0
M  CHG  1   3  -1
M  END
>  <CHROM.1>
164.97342054,177.74475306,44.23972636,43.58654791,13.45747619,12.72892041
-2.23313658,-0.75331394,2.35851381

>  <Name>
ligand

>  <RI>
0

>  <Rbt.Current_Directory>
/home/itssahil/PROJECTS/Mol_Feturizer/New_Systems/rnas/3B4B

>  <Rbt.Executable>
rbdock ($Id: //depot/dev/client3/rdock/2013.1/src/exe/rbdock.cxx#4 $)

>  <Rbt.Library>
libRbt.so (2013.1, Build901 2013/11/27)

>  <Rbt.Parameter_File>
/export/apps/rDock/src/rDock_2013.1_src/data/scripts/dock_solv.prm

>  <Rbt.Receptor>
prm/pocket_docking_7.prm

>  <SCORE>
-9.31799

>  <SCORE.INTER>
-8.50471

>  <SCORE.INTER.CONST>
1

>  <SCORE.INTER.POLAR>
0

>  <SCORE.INTER.ROT>
3

>  <SCORE.INTER.SOLV>
18.0454

>  <SCORE.INTER.VDW>
-17.2849

>  <SCORE.INTER.norm>
-0.531544

>  <SCORE.INTRA>
-0.813284

>  <SCORE.INTRA.DIHEDRAL>
-1.03746

>  <SCORE.INTRA.DIHEDRAL.0>
2.21864

>  <SCORE.INTRA.POLAR>
0

>  <SCORE.INTRA.POLAR.0>
0

>  <SCORE.INTRA.REPUL>
0

>  <SCORE.INTRA.REPUL.0>
0

>  <SCORE.INTRA.SOLV>
-1.27529

>  <SCORE.INTRA.SOLV.lig_0>
-58.5963

>  <SCORE.INTRA.VDW>
0.343091

>  <SCORE.INTRA.VDW.0>
-0.437849

>  <SCORE.INTRA.norm>
-0.0508302

>  <SCORE.RESTR>
0

>  <SCORE.RESTR.CAVITY>
0

>  <SCORE.RESTR.norm>
0

>  <SCORE.SYSTEM>
0

>  <SCORE.SYSTEM.CONST>
0

>  <SCORE.SYSTEM.DIHEDRAL>
0

>  <SCORE.SYSTEM.SOLV>
0

>  <SCORE.SYSTEM.norm>
0

>  <SCORE.heavy>
16

>  <SCORE.norm>
-0.582375

>  <RMSD>
5.969

$$$$
ligand
 OpenBabel11021811463D
libRbt.so/2013.1/901 2013/11/27
 16 16  0  0  0  0  0  0  0  0999 V2000
   43.6580   11.8253   14.2428 P   0  0  2  0  0  0  0  0  0  0  0  0
   44.8186   11.4734   15.0974 O   0  0  0  0  0  0  0  0  0  0  0  0
   42.5513   12.6179   15.1019 O   0  5  0  0  0  0  0  0  0  0  0  0
   42.9891   10.4662   13.6687 O   0  0  0  0  0  0  0  0  0  0  0  0
   44.6526   16.0326   10.4716 C   0  0  2  0  0  0  0  0  0  0  0  0
   43.5389   16.4702    9.6792 O   0  0  0  0  0  0  0  0  0  0  0  0
   45.7152   15.2974    9.6069 C   0  0  2  0  0  0  0  0  0  0  0  0
   46.1869   16.1914    8.5264 N   0  0  0  0  0  0  0  0  0  0  0  0
   45.0695   14.0317    9.0043 C   0  0  1  0  0  0  0  0  0  0  0  0
   46.0306   13.3129    8.2114 O   0  0  0  0  0  0  0  0  0  0  0  0
   44.5880   13.1452   10.1621 C   0  0  2  0  0  0  0  0  0  0  0  0
   43.9675   11.9643    9.6347 O   0  0  0  0  0  0  0  0  0  0  0  0
   43.5587   13.9502   10.9989 C   0  0  2  0  0  0  0  0  0  0  0  0
   44.1758   15.1569   11.5326 O   0  0  0  0  0  0  0  0  0  0  0  0
   43.0674   13.0895   12.1758 C   0  0  0  0  0  0  0  0  0  0  0  0
   44.1740   12.7724   13.0399 O   0  0  0  0  0  0  0  0  0  0  0  0
  1  2  1  1  0  0  0
  1  3  1  0  0  0  0
  1  4  2  0  0  0  0
  1 16  1  0  0  0  0
  5  6  1  6  0  0  0
  5  7  1  0  0  0  0
  5 14  1  0  0  0  0
  7  8  1  6  0  0  0
  7  9  1  0  0  0  0
  9 10  1  1  0  0  0
  9 11  1  0  0  0  0
 11 12  1  6  0  0  0
 11 13  1  0  0  0  0
 13 14  1  0  0  0  0
 13 15  1  1  0  0  0
 15 16  1  0  0  0  0
M  CHG  1   3  -1
M  END
>  <CHROM.1>
62.25183741,-177.99569676,178.20225869,44.22828450,13.43792626,11.58634898
2.35578030,-1.20333594,2.89987407

>  <Name>
ligand

>  <RI>
0

>  <Rbt.Current_Directory>
/home/itssahil/PROJECTS/Mol_Feturizer/New_Systems/rnas/3B4B

>  <Rbt.Executable>
rbdock ($Id: //depot/dev/client3/rdock/2013.1/src/exe/rbdock.cxx#4 $)

>  <Rbt.Library>
libRbt.so (2013.1, Build901 2013/11/27)

>  <Rbt.Parameter_File>
/export/apps/rDock/src/rDock_2013.1_src/data/scripts/dock_solv.prm

>  <Rbt.Receptor>
prm/pocket_docking_8.prm

>  <SCORE>
-7.63481

>  <SCORE.INTER>
-6.06686

>  <SCORE.INTER.CONST>
1

>  <SCORE.INTER.POLAR>
0

>  <SCORE.INTER.ROT>
3

>  <SCORE.INTER.SOLV>
14.318

>  <SCORE.INTER.VDW>
-14.4172

>  <SCORE.INTER.norm>
-0.379179

>  <SCORE.INTRA>
-1.56982

>  <SCORE.INTRA.DIHEDRAL>
-2.17485

>  <SCORE.INTRA.DIHEDRAL.0>
2.21864

>  <SCORE.INTRA.POLAR>
0

>  <SCORE.INTRA.POLAR.0>
0

>  <SCORE.INTRA.REPUL>
0

>  <SCORE.INTRA.REPUL.0>
0

>  <SCORE.INTRA.SOLV>
-0.257611

>  <SCORE.INTRA.SOLV.lig_0>
-58.5963

>  <SCORE.INTRA.VDW>
-0.353584

>  <SCORE.INTRA.VDW.0>
-0.437849

>  <SCORE.INTRA.norm>
-0.0981135

>  <SCORE.RESTR>
0.00186312

>  <SCORE.RESTR.CAVITY>
0.00186312

>  <SCORE.RESTR.norm>
0.000116445

>  <SCORE.SYSTEM>
0

>  <SCORE.SYSTEM.CONST>
0

>  <SCORE.SYSTEM.DIHEDRAL>
0

>  <SCORE.SYSTEM.SOLV>
0

>  <SCORE.SYSTEM.norm>
0

>  <SCORE.heavy>
16

>  <SCORE.norm>
-0.477176

>  <RMSD>
5.971

$$$$
ligand
 OpenBabel11021811463D
libRbt.so/2013.1/901 2013/11/27
 16 16  0  0  0  0  0  0  0  0999 V2000
   42.8914   13.3567   11.6748 P   0  0  2  0  0  0  0  0  0  0  0  0
   41.6693   13.1665   10.8554 O   0  0  0  0  0  0  0  0  0  0  0  0
   42.5853   13.0257   13.2201 O   0  5  0  0  0  0  0  0  0  0  0  0
   43.3712   14.8999   11.5633 O   0  0  0  0  0  0  0  0  0  0  0  0
   47.9642   11.5649   10.1207 C   0  0  2  0  0  0  0  0  0  0  0  0
   48.5098   12.1454    8.9269 O   0  0  0  0  0  0  0  0  0  0  0  0
   47.7522   10.0324    9.9655 C   0  0  2  0  0  0  0  0  0  0  0  0
   49.0377    9.3806    9.6311 N   0  0  0  0  0  0  0  0  0  0  0  0
   46.7253    9.7890    8.8394 C   0  0  1  0  0  0  0  0  0  0  0  0
   46.4881    8.3792    8.6793 O   0  0  0  0  0  0  0  0  0  0  0  0
   45.4167   10.4926    9.2278 C   0  0  2  0  0  0  0  0  0  0  0  0
   44.4431   10.2982    8.1923 O   0  0  0  0  0  0  0  0  0  0  0  0
   45.7076   12.0072    9.3973 C   0  0  2  0  0  0  0  0  0  0  0  0
   46.7021   12.2162   10.4411 O   0  0  0  0  0  0  0  0  0  0  0  0
   44.4143   12.7372    9.7997 C   0  0  0  0  0  0  0  0  0  0  0  0
   44.0347   12.3518   11.1334 O   0  0  0  0  0  0  0  0  0  0  0  0
  1  2  1  6  0  0  0
  1  3  1  0  0  0  0
  1  4  2  0  0  0  0
  1 16  1  0  0  0  0
  5  6  1  6  0  0  0
  5  7  1  0  0  0  0
  5 14  1  0  0  0  0
  7  8  1  6  0  0  0
  7  9  1  0  0  0  0
  9 10  1  1  0  0  0
  9 11  1  0  0  0  0
 11 12  1  6  0  0  0
 11 13  1  0  0  0  0
 13 14  1  0  0  0  0
 13 15  1  1  0  0  0
 15 16  1  0  0  0  0
M  CHG  1   3  -1
M  END
>  <CHROM.1>
68.71137698,167.10720512,65.89837946,45.23563336,11.77707462,10.23878193
-2.42362490,-0.05266055,-2.56584185

>  <Name>
ligand

>  <RI>
0

>  <Rbt.Current_Directory>
/home/itssahil/PROJECTS/Mol_Feturizer/New_Systems/rnas/3B4B

>  <Rbt.Executable>
rbdock ($Id: //depot/dev/client3/rdock/2013.1/src/exe/rbdock.cxx#4 $)

>  <Rbt.Library>
libRbt.so (2013.1, Build901 2013/11/27)

>  <Rbt.Parameter_File>
/export/apps/rDock/src/rDock_2013.1_src/data/scripts/dock_solv.prm

>  <Rbt.Receptor>
prm/pocket_docking_8.prm

>  <SCORE>
-8.39975

>  <SCORE.INTER>
-7.20839

>  <SCORE.INTER.CONST>
1

>  <SCORE.INTER.POLAR>
-0.9

>  <SCORE.INTER.ROT>
3

>  <SCORE.INTER.SOLV>
15.5633

>  <SCORE.INTER.VDW>
-12.5934

>  <SCORE.INTER.norm>
-0.450524

>  <SCORE.INTRA>
-1.19136

>  <SCORE.INTRA.DIHEDRAL>
-1.09898

>  <SCORE.INTRA.DIHEDRAL.0>
2.21864

>  <SCORE.INTRA.POLAR>
0

>  <SCORE.INTRA.POLAR.0>
0

>  <SCORE.INTRA.REPUL>
0

>  <SCORE.INTRA.REPUL.0>
0

>  <SCORE.INTRA.SOLV>
-0.812099

>  <SCORE.INTRA.SOLV.lig_0>
-58.5963

>  <SCORE.INTRA.VDW>
-0.23582

>  <SCORE.INTRA.VDW.0>
-0.437849

>  <SCORE.INTRA.norm>
-0.0744601

>  <SCORE.RESTR>
0

>  <SCORE.RESTR.CAVITY>
0

>  <SCORE.RESTR.norm>
0

>  <SCORE.SYSTEM>
0

>  <SCORE.SYSTEM.CONST>
0

>  <SCORE.SYSTEM.DIHEDRAL>
0

>  <SCORE.SYSTEM.SOLV>
0

>  <SCORE.SYSTEM.norm>
0

>  <SCORE.heavy>
16

>  <SCORE.norm>
-0.524984

>  <RMSD>
5.999

$$$$
ligand
 OpenBabel11021811463D
libRbt.so/2013.1/901 2013/11/27
 16 16  0  0  0  0  0  0  0  0999 V2000
   44.2254   11.1797   14.0546 P   0  0  2  0  0  0  0  0  0  0  0  0
   44.5866   11.0603   15.4886 O   0  0  0  0  0  0  0  0  0  0  0  0
   42.8755   10.3582   13.7481 O   0  5  0  0  0  0  0  0  0  0  0  0
   45.4208   10.5625   13.1522 O   0  0  0  0  0  0  0  0  0  0  0  0
   44.3720   15.9697   10.1533 C   0  0  2  0  0  0  0  0  0  0  0  0
   45.3777   16.6472   10.9210 O   0  0  0  0  0  0  0  0  0  0  0  0
   42.9739   16.6242   10.3393 C   0  0  2  0  0  0  0  0  0  0  0  0
   43.0321   18.0494    9.9460 N   0  0  0  0  0  0  0  0  0  0  0  0
   42.5651   16.4993   11.8222 C   0  0  1  0  0  0  0  0  0  0  0  0
   41.2646   17.0780   12.0297 O   0  0  0  0  0  0  0  0  0  0  0  0
   42.5304   15.0070   12.1828 C   0  0  2  0  0  0  0  0  0  0  0  0
   42.1677   14.8562   13.5625 O   0  0  0  0  0  0  0  0  0  0  0  0
   43.9438   14.4132   11.9435 C   0  0  2  0  0  0  0  0  0  0  0  0
   44.3265   14.5686   10.5466 O   0  0  0  0  0  0  0  0  0  0  0  0
   43.9357   12.9129   12.2852 C   0  0  0  0  0  0  0  0  0  0  0  0
   43.9857   12.7405   13.7132 O   0  0  0  0  0  0  0  0  0  0  0  0
  1  2  1  1  0  0  0
  1  3  1  0  0  0  0
  1  4  2  0  0  0  0
  1 16  1  0  0  0  0
  5  6  1  1  0  0  0
  5  7  1  0  0  0  0
  5 14  1  0  0  0  0
  7  8  1  1  0  0  0
  7  9  1  0  0  0  0
  9 10  1  6  0  0  0
  9 11  1  0  0  0  0
 11 12  1  1  0  0  0
 11 13  1  0  0  0  0
 13 14  1  0  0  0  0
 13 15  1  6  0  0  0
 15 16  1  0  0  0  0
M  CHG  1   3  -1
M  END
>  <CHROM.1>
-77.76317847,-170.62030451,167.03551680,43.65705001,13.99560830,12.42493284
-1.38130969,0.56122449,-0.61260892

>  <Name>
ligand

>  <RI>
0

>  <Rbt.Current_Directory>
/home/itssahil/PROJECTS/Mol_Feturizer/New_Systems/rnas/3B4B

>  <Rbt.Executable>
rbdock ($Id: //depot/dev/client3/rdock/2013.1/src/exe/rbdock.cxx#4 $)

>  <Rbt.Library>
libRbt.so (2013.1, Build901 2013/11/27)

>  <Rbt.Parameter_File>
/export/apps/rDock/src/rDock_2013.1_src/data/scripts/dock_solv.prm

>  <Rbt.Receptor>
prm/pocket_docking_6.prm

>  <SCORE>
-8.04703

>  <SCORE.INTER>
-7.4047

>  <SCORE.INTER.CONST>
1

>  <SCORE.INTER.POLAR>
0

>  <SCORE.INTER.ROT>
3

>  <SCORE.INTER.SOLV>
11.4719

>  <SCORE.INTER.VDW>
-14.3604

>  <SCORE.INTER.norm>
-0.462794

>  <SCORE.INTRA>
-0.642329

>  <SCORE.INTRA.DIHEDRAL>
-0.470593

>  <SCORE.INTRA.DIHEDRAL.0>
2.21864

>  <SCORE.INTRA.POLAR>
0

>  <SCORE.INTRA.POLAR.0>
0

>  <SCORE.INTRA.REPUL>
0

>  <SCORE.INTRA.REPUL.0>
0

>  <SCORE.INTRA.SOLV>
-0.259648

>  <SCORE.INTRA.SOLV.lig_0>
-58.5963

>  <SCORE.INTRA.VDW>
-0.277208

>  <SCORE.INTRA.VDW.0>
-0.437849

>  <SCORE.INTRA.norm>
-0.0401456

>  <SCORE.RESTR>
0

>  <SCORE.RESTR.CAVITY>
0

>  <SCORE.RESTR.norm>
0

>  <SCORE.SYSTEM>
0

>  <SCORE.SYSTEM.CONST>
0

>  <SCORE.SYSTEM.DIHEDRAL>
0

>  <SCORE.SYSTEM.SOLV>
0

>  <SCORE.SYSTEM.norm>
0

>  <SCORE.heavy>
16

>  <SCORE.norm>
-0.502939

>  <RMSD>
6.001

$$$$
ligand
 OpenBabel11021811463D
libRbt.so/2013.1/901 2013/11/27
 16 16  0  0  0  0  0  0  0  0999 V2000
   41.9274   16.1401   11.7202 P   0  0  2  0  0  0  0  0  0  0  0  0
   40.4575   15.9458   11.7741 O   0  0  0  0  0  0  0  0  0  0  0  0
   42.4462   16.8560   13.0653 O   0  5  0  0  0  0  0  0  0  0  0  0
   42.2923   17.0877   10.4580 O   0  0  0  0  0  0  0  0  0  0  0  0
   45.4875   11.7258   11.9875 C   0  0  2  0  0  0  0  0  0  0  0  0
   44.7711   10.8300   11.1250 O   0  0  0  0  0  0  0  0  0  0  0  0
   45.7531   11.0877   13.3803 C   0  0  2  0  0  0  0  0  0  0  0  0
   46.5145    9.8295   13.2174 N   0  0  0  0  0  0  0  0  0  0  0  0
   44.3962   10.8028   14.0581 C   0  0  1  0  0  0  0  0  0  0  0  0
   44.6023   10.2284   15.3607 O   0  0  0  0  0  0  0  0  0  0  0  0
   43.6425   12.1339   14.1934 C   0  0  2  0  0  0  0  0  0  0  0  0
   42.3671   11.9015   14.8076 O   0  0  0  0  0  0  0  0  0  0  0  0
   43.4413   12.7283   12.7744 C   0  0  2  0  0  0  0  0  0  0  0  0
   44.7306   12.9605   12.1373 O   0  0  0  0  0  0  0  0  0  0  0  0
   42.6983   14.0715   12.8803 C   0  0  0  0  0  0  0  0  0  0  0  0
   42.6325   14.6929   11.5837 O   0  0  0  0  0  0  0  0  0  0  0  0
  1  2  1  1  0  0  0
  1  3  1  0  0  0  0
  1  4  2  0  0  0  0
  1 16  1  0  0  0  0
  5  6  1  6  0  0  0
  5  7  1  0  0  0  0
  5 14  1  0  0  0  0
  7  8  1  6  0  0  0
  7  9  1  0  0  0  0
  9 10  1  1  0  0  0
  9 11  1  0  0  0  0
 11 12  1  6  0  0  0
 11 13  1  0  0  0  0
 13 14  1  0  0  0  0
 13 15  1  1  0  0  0
 15 16  1  0  0  0  0
M  CHG  1   3  -1
M  END
>  <CHROM.1>
174.04152480,-176.73616423,-80.40262360,43.46440910,13.34517002,12.68607898
-2.30467286,-0.77284844,2.25346149

>  <Name>
ligand

>  <RI>
0

>  <Rbt.Current_Directory>
/home/itssahil/PROJECTS/Mol_Feturizer/New_Systems/rnas/3B4B

>  <Rbt.Executable>
rbdock ($Id: //depot/dev/client3/rdock/2013.1/src/exe/rbdock.cxx#4 $)

>  <Rbt.Library>
libRbt.so (2013.1, Build901 2013/11/27)

>  <Rbt.Parameter_File>
/export/apps/rDock/src/rDock_2013.1_src/data/scripts/dock_solv.prm

>  <Rbt.Receptor>
prm/pocket_docking_5.prm

>  <SCORE>
-10.5069

>  <SCORE.INTER>
-9.51849

>  <SCORE.INTER.CONST>
1

>  <SCORE.INTER.POLAR>
0

>  <SCORE.INTER.ROT>
3

>  <SCORE.INTER.SOLV>
16.7886

>  <SCORE.INTER.VDW>
-17.5419

>  <SCORE.INTER.norm>
-0.594906

>  <SCORE.INTRA>
-0.991743

>  <SCORE.INTRA.DIHEDRAL>
-1.42191

>  <SCORE.INTRA.DIHEDRAL.0>
2.21864

>  <SCORE.INTRA.POLAR>
0

>  <SCORE.INTRA.POLAR.0>
0

>  <SCORE.INTRA.REPUL>
0

>  <SCORE.INTRA.REPUL.0>
0

>  <SCORE.INTRA.SOLV>
-0.904077

>  <SCORE.INTRA.SOLV.lig_0>
-58.5963

>  <SCORE.INTRA.VDW>
0.171253

>  <SCORE.INTRA.VDW.0>
-0.437849

>  <SCORE.INTRA.norm>
-0.061984

>  <SCORE.RESTR>
0.00329234

>  <SCORE.RESTR.CAVITY>
0.00329234

>  <SCORE.RESTR.norm>
0.000205771

>  <SCORE.SYSTEM>
0

>  <SCORE.SYSTEM.CONST>
0

>  <SCORE.SYSTEM.DIHEDRAL>
0

>  <SCORE.SYSTEM.SOLV>
0

>  <SCORE.SYSTEM.norm>
0

>  <SCORE.heavy>
16

>  <SCORE.norm>
-0.656684

>  <RMSD>
6.032

$$$$
ligand
 OpenBabel11021811463D
libRbt.so/2013.1/901 2013/11/27
 16 16  0  0  0  0  0  0  0  0999 V2000
   42.0775   16.3854   11.8396 P   0  0  2  0  0  0  0  0  0  0  0  0
   42.3377   16.9542   13.1849 O   0  0  0  0  0  0  0  0  0  0  0  0
   42.5833   17.3996   10.6965 O   0  5  0  0  0  0  0  0  0  0  0  0
   40.4841   16.1571   11.6581 O   0  0  0  0  0  0  0  0  0  0  0  0
   45.4904   11.8766   11.9936 C   0  0  2  0  0  0  0  0  0  0  0  0
   44.7770   11.0127   11.0968 O   0  0  0  0  0  0  0  0  0  0  0  0
   45.7301   11.1974   13.3716 C   0  0  2  0  0  0  0  0  0  0  0  0
   46.4808    9.9363   13.1842 N   0  0  0  0  0  0  0  0  0  0  0  0
   44.3611   10.9082   14.0227 C   0  0  1  0  0  0  0  0  0  0  0  0
   44.5432   10.2958   15.3115 O   0  0  0  0  0  0  0  0  0  0  0  0
   43.6191   12.2430   14.1847 C   0  0  2  0  0  0  0  0  0  0  0  0
   42.3330   12.0072   14.7748 O   0  0  0  0  0  0  0  0  0  0  0  0
   43.4439   12.8786   12.7802 C   0  0  2  0  0  0  0  0  0  0  0  0
   44.7442   13.1147   12.1674 O   0  0  0  0  0  0  0  0  0  0  0  0
   42.7131   14.2261   12.9133 C   0  0  0  0  0  0  0  0  0  0  0  0
   42.8834   14.9915   11.7063 O   0  0  0  0  0  0  0  0  0  0  0  0
  1  2  1  1  0  0  0
  1  3  1  0  0  0  0
  1  4  2  0  0  0  0
  1 16  1  0  0  0  0
  5  6  1  6  0  0  0
  5  7  1  0  0  0  0
  5 14  1  0  0  0  0
  7  8  1  6  0  0  0
  7  9  1  0  0  0  0
  9 10  1  1  0  0  0
  9 11  1  0  0  0  0
 11 12  1  6  0  0  0
 11 13  1  0  0  0  0
 13 14  1  0  0  0  0
 13 15  1  1  0  0  0
 15 16  1  0  0  0  0
M  CHG  1   3  -1
M  END
>  <CHROM.1>
163.52777268,178.37991386,44.24750953,43.50240121,13.51290360,12.71669261
-2.25491937,-0.76169713,2.33015540

>  <Name>
ligand

>  <RI>
0

>  <Rbt.Current_Directory>
/home/itssahil/PROJECTS/Mol_Feturizer/New_Systems/rnas/3B4B

>  <Rbt.Executable>
rbdock ($Id: //depot/dev/client3/rdock/2013.1/src/exe/rbdock.cxx#4 $)

>  <Rbt.Library>
libRbt.so (2013.1, Build901 2013/11/27)

>  <Rbt.Parameter_File>
/export/apps/rDock/src/rDock_2013.1_src/data/scripts/dock_solv.prm

>  <Rbt.Receptor>
prm/pocket_docking_7.prm

>  <SCORE>
-9.26706

>  <SCORE.INTER>
-8.53462

>  <SCORE.INTER.CONST>
1

>  <SCORE.INTER.POLAR>
0

>  <SCORE.INTER.ROT>
3

>  <SCORE.INTER.SOLV>
18.3805

>  <SCORE.INTER.VDW>
-17.4166

>  <SCORE.INTER.norm>
-0.533414

>  <SCORE.INTRA>
-0.73244

>  <SCORE.INTRA.DIHEDRAL>
-0.90341

>  <SCORE.INTRA.DIHEDRAL.0>
2.21864

>  <SCORE.INTRA.POLAR>
0

>  <SCORE.INTRA.POLAR.0>
0

>  <SCORE.INTRA.REPUL>
0

>  <SCORE.INTRA.REPUL.0>
0

>  <SCORE.INTRA.SOLV>
-1.27179

>  <SCORE.INTRA.SOLV.lig_0>
-58.5963

>  <SCORE.INTRA.VDW>
0.35516

>  <SCORE.INTRA.VDW.0>
-0.437849

>  <SCORE.INTRA.norm>
-0.0457775

>  <SCORE.RESTR>
0

>  <SCORE.RESTR.CAVITY>
0

>  <SCORE.RESTR.norm>
0

>  <SCORE.SYSTEM>
0

>  <SCORE.SYSTEM.CONST>
0

>  <SCORE.SYSTEM.DIHEDRAL>
0

>  <SCORE.SYSTEM.SOLV>
0

>  <SCORE.SYSTEM.norm>
0

>  <SCORE.heavy>
16

>  <SCORE.norm>
-0.579191

>  <RMSD>
6.032

$$$$
ligand
 OpenBabel11021811463D
libRbt.so/2013.1/901 2013/11/27
 16 16  0  0  0  0  0  0  0  0999 V2000
   42.1928   15.6373   12.2374 P   0  0  2  0  0  0  0  0  0  0  0  0
   41.8377   15.1681   13.5994 O   0  0  0  0  0  0  0  0  0  0  0  0
   42.9453   17.0582   12.3143 O   0  5  0  0  0  0  0  0  0  0  0  0
   40.8383   15.8176   11.3673 O   0  0  0  0  0  0  0  0  0  0  0  0
   44.9951   11.5666    9.2573 C   0  0  2  0  0  0  0  0  0  0  0  0
   44.3101   10.3214    9.0577 O   0  0  0  0  0  0  0  0  0  0  0  0
   46.1778   11.4145   10.2552 C   0  0  2  0  0  0  0  0  0  0  0  0
   47.1253   10.3933    9.7565 N   0  0  0  0  0  0  0  0  0  0  0  0
   45.6129   10.9892   11.6270 C   0  0  1  0  0  0  0  0  0  0  0  0
   46.6787   10.8571   12.5840 O   0  0  0  0  0  0  0  0  0  0  0  0
   44.6300   12.0727   12.0941 C   0  0  2  0  0  0  0  0  0  0  0  0
   44.0738   11.6996   13.3628 O   0  0  0  0  0  0  0  0  0  0  0  0
   43.4981   12.1934   11.0398 C   0  0  2  0  0  0  0  0  0  0  0  0
   44.0525   12.5636    9.7445 O   0  0  0  0  0  0  0  0  0  0  0  0
   42.5031   13.2829   11.4762 C   0  0  0  0  0  0  0  0  0  0  0  0
   43.1785   14.5510   11.5603 O   0  0  0  0  0  0  0  0  0  0  0  0
  1  2  1  1  0  0  0
  1  3  1  0  0  0  0
  1  4  2  0  0  0  0
  1 16  1  0  0  0  0
  5  6  1  1  0  0  0
  5  7  1  0  0  0  0
  5 14  1  0  0  0  0
  7  8  1  6  0  0  0
  7  9  1  0  0  0  0
  9 10  1  1  0  0  0
  9 11  1  0  0  0  0
 11 12  1  1  0  0  0
 11 13  1  0  0  0  0
 13 14  1  0  0  0  0
 13 15  1  1  0  0  0
 15 16  1  0  0  0  0
M  CHG  1   3  -1
M  END
>  <CHROM.1>
61.30441602,-171.20023736,60.35951308,43.86281235,13.10184593,11.42672545
2.63131976,-0.83686832,1.27000652

>  <Name>
ligand

>  <RI>
0

>  <Rbt.Current_Directory>
/home/itssahil/PROJECTS/Mol_Feturizer/New_Systems/rnas/3B4B

>  <Rbt.Executable>
rbdock ($Id: //depot/dev/client3/rdock/2013.1/src/exe/rbdock.cxx#4 $)

>  <Rbt.Library>
libRbt.so (2013.1, Build901 2013/11/27)

>  <Rbt.Parameter_File>
/export/apps/rDock/src/rDock_2013.1_src/data/scripts/dock_solv.prm

>  <Rbt.Receptor>
prm/pocket_docking_5.prm

>  <SCORE>
-7.56273

>  <SCORE.INTER>
-5.93864

>  <SCORE.INTER.CONST>
1

>  <SCORE.INTER.POLAR>
0

>  <SCORE.INTER.ROT>
3

>  <SCORE.INTER.SOLV>
12.659

>  <SCORE.INTER.VDW>
-13.7788

>  <SCORE.INTER.norm>
-0.371165

>  <SCORE.INTRA>
-1.62409

>  <SCORE.INTRA.DIHEDRAL>
-1.83603

>  <SCORE.INTRA.DIHEDRAL.0>
2.21864

>  <SCORE.INTRA.POLAR>
0

>  <SCORE.INTRA.POLAR.0>
0

>  <SCORE.INTRA.REPUL>
0

>  <SCORE.INTRA.REPUL.0>
0

>  <SCORE.INTRA.SOLV>
-0.94511

>  <SCORE.INTRA.SOLV.lig_0>
-58.5963

>  <SCORE.INTRA.VDW>
-0.233521

>  <SCORE.INTRA.VDW.0>
-0.437849

>  <SCORE.INTRA.norm>
-0.101506

>  <SCORE.RESTR>
0

>  <SCORE.RESTR.CAVITY>
0

>  <SCORE.RESTR.norm>
0

>  <SCORE.SYSTEM>
0

>  <SCORE.SYSTEM.CONST>
0

>  <SCORE.SYSTEM.DIHEDRAL>
0

>  <SCORE.SYSTEM.SOLV>
0

>  <SCORE.SYSTEM.norm>
0

>  <SCORE.heavy>
16

>  <SCORE.norm>
-0.47267

>  <RMSD>
6.047

$$$$
ligand
 OpenBabel11021811463D
libRbt.so/2013.1/901 2013/11/27
 16 16  0  0  0  0  0  0  0  0999 V2000
   41.9142   16.1624   11.6584 P   0  0  2  0  0  0  0  0  0  0  0  0
   40.4405   15.9993   11.7081 O   0  0  0  0  0  0  0  0  0  0  0  0
   42.4387   16.9106   12.9836 O   0  5  0  0  0  0  0  0  0  0  0  0
   42.3063   17.0616   10.3693 O   0  0  0  0  0  0  0  0  0  0  0  0
   45.4016   11.7030   11.9928 C   0  0  2  0  0  0  0  0  0  0  0  0
   44.6215   10.7643   11.2379 O   0  0  0  0  0  0  0  0  0  0  0  0
   45.7465   11.1536   13.4059 C   0  0  2  0  0  0  0  0  0  0  0  0
   46.4807    9.8751   13.2803 N   0  0  0  0  0  0  0  0  0  0  0  0
   44.4315   10.9360   14.1839 C   0  0  1  0  0  0  0  0  0  0  0  0
   44.7121   10.4452   15.5066 O   0  0  0  0  0  0  0  0  0  0  0  0
   43.7040   12.2853   14.2767 C   0  0  2  0  0  0  0  0  0  0  0  0
   42.4670   12.1146   14.9828 O   0  0  0  0  0  0  0  0  0  0  0  0
   43.4213   12.7884   12.8364 C   0  0  2  0  0  0  0  0  0  0  0  0
   44.6707   12.9571   12.1066 O   0  0  0  0  0  0  0  0  0  0  0  0
   42.7028   14.1475   12.8983 C   0  0  0  0  0  0  0  0  0  0  0  0
   42.5909   14.6978   11.5732 O   0  0  0  0  0  0  0  0  0  0  0  0
  1  2  1  1  0  0  0
  1  3  1  0  0  0  0
  1  4  2  0  0  0  0
  1 16  1  0  0  0  0
  5  6  1  1  0  0  0
  5  7  1  0  0  0  0
  5 14  1  0  0  0  0
  7  8  1  6  0  0  0
  7  9  1  0  0  0  0
  9 10  1  1  0  0  0
  9 11  1  0  0  0  0
 11 12  1  1  0  0  0
 11 13  1  0  0  0  0
 13 14  1  0  0  0  0
 13 15  1  1  0  0  0
 15 16  1  0  0  0  0
M  CHG  1   3  -1
M  END
>  <CHROM.1>
172.71491349,-176.68846498,-83.53171543,43.45707358,13.40312517,12.70848603
-2.35895282,-0.82388129,2.15061930

>  <Name>
ligand

>  <RI>
0

>  <Rbt.Current_Directory>
/home/itssahil/PROJECTS/Mol_Feturizer/New_Systems/rnas/3B4B

>  <Rbt.Executable>
rbdock ($Id: //depot/dev/client3/rdock/2013.1/src/exe/rbdock.cxx#4 $)

>  <Rbt.Library>
libRbt.so (2013.1, Build901 2013/11/27)

>  <Rbt.Parameter_File>
/export/apps/rDock/src/rDock_2013.1_src/data/scripts/dock_solv.prm

>  <Rbt.Receptor>
prm/pocket_docking_5.prm

>  <SCORE>
-10.4862

>  <SCORE.INTER>
-9.71047

>  <SCORE.INTER.CONST>
1

>  <SCORE.INTER.POLAR>
0

>  <SCORE.INTER.ROT>
3

>  <SCORE.INTER.SOLV>
17.1461

>  <SCORE.INTER.VDW>
-17.789

>  <SCORE.INTER.norm>
-0.606904

>  <SCORE.INTRA>
-0.78431

>  <SCORE.INTRA.DIHEDRAL>
-1.17937

>  <SCORE.INTRA.DIHEDRAL.0>
2.21864

>  <SCORE.INTRA.POLAR>
0

>  <SCORE.INTRA.POLAR.0>
0

>  <SCORE.INTRA.REPUL>
0

>  <SCORE.INTRA.REPUL.0>
0

>  <SCORE.INTRA.SOLV>
-0.870178

>  <SCORE.INTRA.SOLV.lig_0>
-58.5963

>  <SCORE.INTRA.VDW>
0.240464

>  <SCORE.INTRA.VDW.0>
-0.437849

>  <SCORE.INTRA.norm>
-0.0490194

>  <SCORE.RESTR>
0.00859856

>  <SCORE.RESTR.CAVITY>
0.00859856

>  <SCORE.RESTR.norm>
0.00053741

>  <SCORE.SYSTEM>
0

>  <SCORE.SYSTEM.CONST>
0

>  <SCORE.SYSTEM.DIHEDRAL>
0

>  <SCORE.SYSTEM.SOLV>
0

>  <SCORE.SYSTEM.norm>
0

>  <SCORE.heavy>
16

>  <SCORE.norm>
-0.655386

>  <RMSD>
6.048

$$$$
ligand
 OpenBabel11021811463D
libRbt.so/2013.1/901 2013/11/27
 16 16  0  0  0  0  0  0  0  0999 V2000
   43.1468   13.0219   11.9485 P   0  0  2  0  0  0  0  0  0  0  0  0
   41.9426   13.0808   11.0839 O   0  0  0  0  0  0  0  0  0  0  0  0
   42.9683   11.8901   13.0791 O   0  5  0  0  0  0  0  0  0  0  0  0
   43.3471   14.4537   12.6792 O   0  0  0  0  0  0  0  0  0  0  0  0
   47.8031   10.4878    9.7949 C   0  0  2  0  0  0  0  0  0  0  0  0
   48.1506   11.5392    8.8821 O   0  0  0  0  0  0  0  0  0  0  0  0
   47.6195    9.1302    9.0595 C   0  0  2  0  0  0  0  0  0  0  0  0
   48.8627    8.7797    8.3379 N   0  0  0  0  0  0  0  0  0  0  0  0
   46.4479    9.2641    8.0638 C   0  0  1  0  0  0  0  0  0  0  0  0
   46.2348    8.0185    7.3767 O   0  0  0  0  0  0  0  0  0  0  0  0
   45.1881    9.6385    8.8582 C   0  0  2  0  0  0  0  0  0  0  0  0
   44.0809    9.7861    7.9580 O   0  0  0  0  0  0  0  0  0  0  0  0
   45.4524   10.9810    9.5899 C   0  0  2  0  0  0  0  0  0  0  0  0
   46.5810   10.8454   10.5009 O   0  0  0  0  0  0  0  0  0  0  0  0
   44.2089   11.3753   10.4057 C   0  0  0  0  0  0  0  0  0  0  0  0
   44.4229   12.6554   11.0279 O   0  0  0  0  0  0  0  0  0  0  0  0
  1  2  1  6  0  0  0
  1  3  1  0  0  0  0
  1  4  2  0  0  0  0
  1 16  1  0  0  0  0
  5  6  1  6  0  0  0
  5  7  1  0  0  0  0
  5 14  1  0  0  0  0
  7  8  1  6  0  0  0
  7  9  1  0  0  0  0
  9 10  1  1  0  0  0
  9 11  1  0  0  0  0
 11 12  1  6  0  0  0
 11 13  1  0  0  0  0
 13 14  1  0  0  0  0
 13 15  1  1  0  0  0
 15 16  1  0  0  0  0
M  CHG  1   3  -1
M  END
>  <CHROM.1>
-176.90792476,-176.82930015,-60.36143854,45.18660875,11.13293245,10.09457221
-2.24208285,0.00937388,-2.37016182

>  <Name>
ligand

>  <RI>
0

>  <Rbt.Current_Directory>
/home/itssahil/PROJECTS/Mol_Feturizer/New_Systems/rnas/3B4B

>  <Rbt.Executable>
rbdock ($Id: //depot/dev/client3/rdock/2013.1/src/exe/rbdock.cxx#4 $)

>  <Rbt.Library>
libRbt.so (2013.1, Build901 2013/11/27)

>  <Rbt.Parameter_File>
/export/apps/rDock/src/rDock_2013.1_src/data/scripts/dock_solv.prm

>  <Rbt.Receptor>
prm/pocket_docking_6.prm

>  <SCORE>
-7.64001

>  <SCORE.INTER>
-5.93398

>  <SCORE.INTER.CONST>
1

>  <SCORE.INTER.POLAR>
0

>  <SCORE.INTER.ROT>
3

>  <SCORE.INTER.SOLV>
16.5229

>  <SCORE.INTER.VDW>
-15.0636

>  <SCORE.INTER.norm>
-0.370874

>  <SCORE.INTRA>
-1.70604

>  <SCORE.INTRA.DIHEDRAL>
-2.13353

>  <SCORE.INTRA.DIHEDRAL.0>
2.21864

>  <SCORE.INTRA.POLAR>
0

>  <SCORE.INTRA.POLAR.0>
0

>  <SCORE.INTRA.REPUL>
0

>  <SCORE.INTRA.REPUL.0>
0

>  <SCORE.INTRA.SOLV>
-1.1307

>  <SCORE.INTRA.SOLV.lig_0>
-58.5963

>  <SCORE.INTRA.VDW>
-0.0739162

>  <SCORE.INTRA.VDW.0>
-0.437849

>  <SCORE.INTRA.norm>
-0.106627

>  <SCORE.RESTR>
0

>  <SCORE.RESTR.CAVITY>
0

>  <SCORE.RESTR.norm>
0

>  <SCORE.SYSTEM>
0

>  <SCORE.SYSTEM.CONST>
0

>  <SCORE.SYSTEM.DIHEDRAL>
0

>  <SCORE.SYSTEM.SOLV>
0

>  <SCORE.SYSTEM.norm>
0

>  <SCORE.heavy>
16

>  <SCORE.norm>
-0.477501

>  <RMSD>
6.079

$$$$
ligand
 OpenBabel11021811463D
libRbt.so/2013.1/901 2013/11/27
 16 16  0  0  0  0  0  0  0  0999 V2000
   47.5517   10.0890    9.8622 P   0  0  2  0  0  0  0  0  0  0  0  0
   47.7457    9.3216    8.6074 O   0  0  0  0  0  0  0  0  0  0  0  0
   48.8162    9.8926   10.8386 O   0  5  0  0  0  0  0  0  0  0  0  0
   46.2266    9.5447   10.6186 O   0  0  0  0  0  0  0  0  0  0  0  0
   47.0102   15.2574    7.4091 C   0  0  2  0  0  0  0  0  0  0  0  0
   47.0449   15.9979    8.6380 O   0  0  0  0  0  0  0  0  0  0  0  0
   45.7113   15.5461    6.6046 C   0  0  2  0  0  0  0  0  0  0  0  0
   45.6091   16.9948    6.3222 N   0  0  0  0  0  0  0  0  0  0  0  0
   44.5005   15.0819    7.4415 C   0  0  1  0  0  0  0  0  0  0  0  0
   43.2785   15.3156    6.7195 O   0  0  0  0  0  0  0  0  0  0  0  0
   44.6593   13.5794    7.7164 C   0  0  2  0  0  0  0  0  0  0  0  0
   43.5549   13.1182    8.5074 O   0  0  0  0  0  0  0  0  0  0  0  0
   45.9865   13.3615    8.4901 C   0  0  2  0  0  0  0  0  0  0  0  0
   47.1148   13.8345    7.6995 O   0  0  0  0  0  0  0  0  0  0  0  0
   46.1785   11.8606    8.7689 C   0  0  0  0  0  0  0  0  0  0  0  0
   47.4069   11.6545    9.4901 O   0  0  0  0  0  0  0  0  0  0  0  0
  1  2  1  6  0  0  0
  1  3  1  0  0  0  0
  1  4  2  0  0  0  0
  1 16  1  0  0  0  0
  5  6  1  1  0  0  0
  5  7  1  0  0  0  0
  5 14  1  0  0  0  0
  7  8  1  1  0  0  0
  7  9  1  0  0  0  0
  9 10  1  6  0  0  0
  9 11  1  0  0  0  0
 11 12  1  1  0  0  0
 11 13  1  0  0  0  0
 13 14  1  0  0  0  0
 13 15  1  6  0  0  0
 15 16  1  0  0  0  0
M  CHG  1   3  -1
M  END
>  <CHROM.1>
-179.83117275,176.32479403,67.43694417,46.27110738,12.86741495,8.50942159
-1.19545768,-0.16921105,-0.39940834

>  <Name>
ligand

>  <RI>
0

>  <Rbt.Current_Directory>
/home/itssahil/PROJECTS/Mol_Feturizer/New_Systems/rnas/3B4B

>  <Rbt.Executable>
rbdock ($Id: //depot/dev/client3/rdock/2013.1/src/exe/rbdock.cxx#4 $)

>  <Rbt.Library>
libRbt.so (2013.1, Build901 2013/11/27)

>  <Rbt.Parameter_File>
/export/apps/rDock/src/rDock_2013.1_src/data/scripts/dock_solv.prm

>  <Rbt.Receptor>
prm/pocket_docking_8.prm

>  <SCORE>
-8.66547

>  <SCORE.INTER>
-6.96494

>  <SCORE.INTER.CONST>
1

>  <SCORE.INTER.POLAR>
-1.125

>  <SCORE.INTER.ROT>
3

>  <SCORE.INTER.SOLV>
13.8807

>  <SCORE.INTER.VDW>
-11.1202

>  <SCORE.INTER.norm>
-0.435309

>  <SCORE.INTRA>
-1.70053

>  <SCORE.INTRA.DIHEDRAL>
-2.05961

>  <SCORE.INTRA.DIHEDRAL.0>
2.21864

>  <SCORE.INTRA.POLAR>
0

>  <SCORE.INTRA.POLAR.0>
0

>  <SCORE.INTRA.REPUL>
0

>  <SCORE.INTRA.REPUL.0>
0

>  <SCORE.INTRA.SOLV>
-1.10499

>  <SCORE.INTRA.SOLV.lig_0>
-58.5963

>  <SCORE.INTRA.VDW>
-0.118233

>  <SCORE.INTRA.VDW.0>
-0.437849

>  <SCORE.INTRA.norm>
-0.106283

>  <SCORE.RESTR>
0

>  <SCORE.RESTR.CAVITY>
0

>  <SCORE.RESTR.norm>
0

>  <SCORE.SYSTEM>
0

>  <SCORE.SYSTEM.CONST>
0

>  <SCORE.SYSTEM.DIHEDRAL>
0

>  <SCORE.SYSTEM.SOLV>
0

>  <SCORE.SYSTEM.norm>
0

>  <SCORE.heavy>
16

>  <SCORE.norm>
-0.541592

>  <RMSD>
6.084

$$$$
ligand
 OpenBabel11021811463D
libRbt.so/2013.1/901 2013/11/27
 16 16  0  0  0  0  0  0  0  0999 V2000
   42.1683   15.7278   12.1035 P   0  0  2  0  0  0  0  0  0  0  0  0
   41.9015   15.3360   13.5093 O   0  0  0  0  0  0  0  0  0  0  0  0
   42.8537   17.1832   12.0494 O   0  5  0  0  0  0  0  0  0  0  0  0
   40.7669   15.7873   11.2932 O   0  0  0  0  0  0  0  0  0  0  0  0
   44.9972   11.6348    9.2141 C   0  0  2  0  0  0  0  0  0  0  0  0
   44.3617   10.3519    9.1142 O   0  0  0  0  0  0  0  0  0  0  0  0
   46.2464   11.5832   10.1385 C   0  0  2  0  0  0  0  0  0  0  0  0
   47.2086   10.5837    9.6242 N   0  0  0  0  0  0  0  0  0  0  0  0
   45.7903   11.1973   11.5615 C   0  0  1  0  0  0  0  0  0  0  0  0
   46.9194   11.1584   12.4519 O   0  0  0  0  0  0  0  0  0  0  0  0
   44.7877   12.2558   12.0438 C   0  0  2  0  0  0  0  0  0  0  0  0
   44.3313   11.9177   13.3611 O   0  0  0  0  0  0  0  0  0  0  0  0
   43.5871   12.2758   11.0612 C   0  0  2  0  0  0  0  0  0  0  0  0
   44.0403   12.6098    9.7176 O   0  0  0  0  0  0  0  0  0  0  0  0
   42.5703   13.3383   11.5134 C   0  0  0  0  0  0  0  0  0  0  0  0
   43.1723   14.6440   11.4496 O   0  0  0  0  0  0  0  0  0  0  0  0
  1  2  1  1  0  0  0
  1  3  1  0  0  0  0
  1  4  2  0  0  0  0
  1 16  1  0  0  0  0
  5  6  1  1  0  0  0
  5  7  1  0  0  0  0
  5 14  1  0  0  0  0
  7  8  1  6  0  0  0
  7  9  1  0  0  0  0
  9 10  1  1  0  0  0
  9 11  1  0  0  0  0
 11 12  1  1  0  0  0
 11 13  1  0  0  0  0
 13 14  1  0  0  0  0
 13 15  1  1  0  0  0
 15 16  1  0  0  0  0
M  CHG  1   3  -1
M  END
>  <CHROM.1>
63.45941173,-172.75768260,58.90897250,43.92115038,13.22371018,11.35097302
2.59172035,-0.77900782,1.18853814

>  <Name>
ligand

>  <RI>
0

>  <Rbt.Current_Directory>
/home/itssahil/PROJECTS/Mol_Feturizer/New_Systems/rnas/3B4B

>  <Rbt.Executable>
rbdock ($Id: //depot/dev/client3/rdock/2013.1/src/exe/rbdock.cxx#4 $)

>  <Rbt.Library>
libRbt.so (2013.1, Build901 2013/11/27)

>  <Rbt.Parameter_File>
/export/apps/rDock/src/rDock_2013.1_src/data/scripts/dock_solv.prm

>  <Rbt.Receptor>
prm/pocket_docking_6.prm

>  <SCORE>
-7.53032

>  <SCORE.INTER>
-5.8681

>  <SCORE.INTER.CONST>
1

>  <SCORE.INTER.POLAR>
0

>  <SCORE.INTER.ROT>
3

>  <SCORE.INTER.SOLV>
12.5331

>  <SCORE.INTER.VDW>
-13.6898

>  <SCORE.INTER.norm>
-0.366756

>  <SCORE.INTRA>
-1.66222

>  <SCORE.INTRA.DIHEDRAL>
-1.91703

>  <SCORE.INTRA.DIHEDRAL.0>
2.21864

>  <SCORE.INTRA.POLAR>
0

>  <SCORE.INTRA.POLAR.0>
0

>  <SCORE.INTRA.REPUL>
0

>  <SCORE.INTRA.REPUL.0>
0

>  <SCORE.INTRA.SOLV>
-0.967272

>  <SCORE.INTRA.SOLV.lig_0>
-58.5963

>  <SCORE.INTRA.VDW>
-0.220071

>  <SCORE.INTRA.VDW.0>
-0.437849

>  <SCORE.INTRA.norm>
-0.103889

>  <SCORE.RESTR>
0

>  <SCORE.RESTR.CAVITY>
0

>  <SCORE.RESTR.norm>
0

>  <SCORE.SYSTEM>
0

>  <SCORE.SYSTEM.CONST>
0

>  <SCORE.SYSTEM.DIHEDRAL>
0

>  <SCORE.SYSTEM.SOLV>
0

>  <SCORE.SYSTEM.norm>
0

>  <SCORE.heavy>
16

>  <SCORE.norm>
-0.470645

>  <RMSD>
6.085

$$$$
ligand
 OpenBabel11021811463D
libRbt.so/2013.1/901 2013/11/27
 16 16  0  0  0  0  0  0  0  0999 V2000
   41.8270   15.5373   11.8878 P   0  0  2  0  0  0  0  0  0  0  0  0
   40.5194   15.7736   11.2280 O   0  0  0  0  0  0  0  0  0  0  0  0
   41.6363   15.4246   13.4821 O   0  5  0  0  0  0  0  0  0  0  0  0
   42.8139   16.7829   11.5733 O   0  0  0  0  0  0  0  0  0  0  0  0
   45.4958   11.6057    9.8370 C   0  0  2  0  0  0  0  0  0  0  0  0
   44.4800   10.6771    9.4302 O   0  0  0  0  0  0  0  0  0  0  0  0
   46.4951   10.9577   10.8366 C   0  0  2  0  0  0  0  0  0  0  0  0
   47.1198    9.7673   10.2188 N   0  0  0  0  0  0  0  0  0  0  0  0
   45.7238   10.5515   12.1101 C   0  0  1  0  0  0  0  0  0  0  0  0
   46.6214    9.9645   13.0687 O   0  0  0  0  0  0  0  0  0  0  0  0
   45.0868   11.8159   12.7050 C   0  0  2  0  0  0  0  0  0  0  0  0
   44.3478   11.4698   13.8848 O   0  0  0  0  0  0  0  0  0  0  0  0
   44.1305   12.4260   11.6464 C   0  0  2  0  0  0  0  0  0  0  0  0
   44.8691   12.7734   10.4399 O   0  0  0  0  0  0  0  0  0  0  0  0
   43.4863   13.7039   12.2115 C   0  0  0  0  0  0  0  0  0  0  0  0
   42.4423   14.1523   11.3280 O   0  0  0  0  0  0  0  0  0  0  0  0
  1  2  1  6  0  0  0
  1  3  1  0  0  0  0
  1  4  2  0  0  0  0
  1 16  1  0  0  0  0
  5  6  1  1  0  0  0
  5  7  1  0  0  0  0
  5 14  1  0  0  0  0
  7  8  1  6  0  0  0
  7  9  1  0  0  0  0
  9 10  1  1  0  0  0
  9 11  1  0  0  0  0
 11 12  1  1  0  0  0
 11 13  1  0  0  0  0
 13 14  1  0  0  0  0
 13 15  1  1  0  0  0
 15 16  1  0  0  0  0
M  CHG  1   3  -1
M  END
>  <CHROM.1>
-170.72611564,-176.94410042,-163.24183269,43.96475932,12.96814208,11.65175274
3.11022969,-0.87568678,1.65364282

>  <Name>
ligand

>  <RI>
0

>  <Rbt.Current_Directory>
/home/itssahil/PROJECTS/Mol_Feturizer/New_Systems/rnas/3B4B

>  <Rbt.Executable>
rbdock ($Id: //depot/dev/client3/rdock/2013.1/src/exe/rbdock.cxx#4 $)

>  <Rbt.Library>
libRbt.so (2013.1, Build901 2013/11/27)

>  <Rbt.Parameter_File>
/export/apps/rDock/src/rDock_2013.1_src/data/scripts/dock_solv.prm

>  <Rbt.Receptor>
prm/pocket_docking_7.prm

>  <SCORE>
-6.56538

>  <SCORE.INTER>
-5.56361

>  <SCORE.INTER.CONST>
1

>  <SCORE.INTER.POLAR>
0

>  <SCORE.INTER.ROT>
3

>  <SCORE.INTER.SOLV>
13.0904

>  <SCORE.INTER.VDW>
-13.6725

>  <SCORE.INTER.norm>
-0.347725

>  <SCORE.INTRA>
-1.00177

>  <SCORE.INTRA.DIHEDRAL>
-1.42842

>  <SCORE.INTRA.DIHEDRAL.0>
2.21864

>  <SCORE.INTRA.POLAR>
0

>  <SCORE.INTRA.POLAR.0>
0

>  <SCORE.INTRA.REPUL>
0

>  <SCORE.INTRA.REPUL.0>
0

>  <SCORE.INTRA.SOLV>
-0.531961

>  <SCORE.INTRA.SOLV.lig_0>
-58.5963

>  <SCORE.INTRA.VDW>
-0.0215855

>  <SCORE.INTRA.VDW.0>
-0.437849

>  <SCORE.INTRA.norm>
-0.0626109

>  <SCORE.RESTR>
0

>  <SCORE.RESTR.CAVITY>
0

>  <SCORE.RESTR.norm>
0

>  <SCORE.SYSTEM>
0

>  <SCORE.SYSTEM.CONST>
0

>  <SCORE.SYSTEM.DIHEDRAL>
0

>  <SCORE.SYSTEM.SOLV>
0

>  <SCORE.SYSTEM.norm>
0

>  <SCORE.heavy>
16

>  <SCORE.norm>
-0.410336

>  <RMSD>
6.089

$$$$
ligand
 OpenBabel11021811463D
libRbt.so/2013.1/901 2013/11/27
 16 16  0  0  0  0  0  0  0  0999 V2000
   43.0374   12.7923   11.9470 P   0  0  2  0  0  0  0  0  0  0  0  0
   41.9252   13.0548   11.0009 O   0  0  0  0  0  0  0  0  0  0  0  0
   42.4620   12.5336   13.4279 O   0  5  0  0  0  0  0  0  0  0  0  0
   44.0135   14.0844   11.9916 O   0  0  0  0  0  0  0  0  0  0  0  0
   46.2197    9.4956    7.7394 C   0  0  2  0  0  0  0  0  0  0  0  0
   45.4242    8.3066    7.8538 O   0  0  0  0  0  0  0  0  0  0  0  0
   47.5669    9.3574    8.5033 C   0  0  2  0  0  0  0  0  0  0  0  0
   48.3207    8.1956    7.9824 N   0  0  0  0  0  0  0  0  0  0  0  0
   47.2643    9.1637   10.0042 C   0  0  1  0  0  0  0  0  0  0  0  0
   48.4904    9.0513   10.7479 O   0  0  0  0  0  0  0  0  0  0  0  0
   46.4737   10.3864   10.4924 C   0  0  2  0  0  0  0  0  0  0  0  0
   46.1623   10.2306   11.8840 O   0  0  0  0  0  0  0  0  0  0  0  0
   45.1625   10.4817    9.6684 C   0  0  2  0  0  0  0  0  0  0  0  0
   45.4667   10.6315    8.2516 O   0  0  0  0  0  0  0  0  0  0  0  0
   44.3543   11.7076   10.1282 C   0  0  0  0  0  0  0  0  0  0  0  0
   43.8350   11.4780   11.4507 O   0  0  0  0  0  0  0  0  0  0  0  0
  1  2  1  6  0  0  0
  1  3  1  0  0  0  0
  1  4  2  0  0  0  0
  1 16  1  0  0  0  0
  5  6  1  1  0  0  0
  5  7  1  0  0  0  0
  5 14  1  0  0  0  0
  7  8  1  6  0  0  0
  7  9  1  0  0  0  0
  9 10  1  1  0  0  0
  9 11  1  0  0  0  0
 11 12  1  1  0  0  0
 11 13  1  0  0  0  0
 13 14  1  0  0  0  0
 13 15  1  1  0  0  0
 15 16  1  0  0  0  0
M  CHG  1   3  -1
M  END
>  <CHROM.1>
-69.86712197,177.80804922,59.88585294,45.16347255,10.87495993,10.36813902
2.41094168,-0.53048428,1.20728114

>  <Name>
ligand

>  <RI>
0

>  <Rbt.Current_Directory>
/home/itssahil/PROJECTS/Mol_Feturizer/New_Systems/rnas/3B4B

>  <Rbt.Executable>
rbdock ($Id: //depot/dev/client3/rdock/2013.1/src/exe/rbdock.cxx#4 $)

>  <Rbt.Library>
libRbt.so (2013.1, Build901 2013/11/27)

>  <Rbt.Parameter_File>
/export/apps/rDock/src/rDock_2013.1_src/data/scripts/dock_solv.prm

>  <Rbt.Receptor>
prm/blind_docking_80.prm

>  <SCORE>
-8.75081

>  <SCORE.INTER>
-7.38794

>  <SCORE.INTER.CONST>
1

>  <SCORE.INTER.POLAR>
-0.882796

>  <SCORE.INTER.ROT>
3

>  <SCORE.INTER.SOLV>
19.4207

>  <SCORE.INTER.VDW>
-14.0562

>  <SCORE.INTER.norm>
-0.461746

>  <SCORE.INTRA>
-1.36287

>  <SCORE.INTRA.DIHEDRAL>
-1.8513

>  <SCORE.INTRA.DIHEDRAL.0>
2.21864

>  <SCORE.INTRA.POLAR>
0

>  <SCORE.INTRA.POLAR.0>
0

>  <SCORE.INTRA.REPUL>
0

>  <SCORE.INTRA.REPUL.0>
0

>  <SCORE.INTRA.SOLV>
-0.706619

>  <SCORE.INTRA.SOLV.lig_0>
-58.5963

>  <SCORE.INTRA.VDW>
-0.0839041

>  <SCORE.INTRA.VDW.0>
-0.437849

>  <SCORE.INTRA.norm>
-0.0851791

>  <SCORE.RESTR>
0

>  <SCORE.RESTR.CAVITY>
0

>  <SCORE.RESTR.norm>
0

>  <SCORE.SYSTEM>
0

>  <SCORE.SYSTEM.CONST>
0

>  <SCORE.SYSTEM.DIHEDRAL>
0

>  <SCORE.SYSTEM.SOLV>
0

>  <SCORE.SYSTEM.norm>
0

>  <SCORE.heavy>
16

>  <SCORE.norm>
-0.546925

>  <RMSD>
6.099

$$$$
ligand
 OpenBabel11021811463D
libRbt.so/2013.1/901 2013/11/27
 16 16  0  0  0  0  0  0  0  0999 V2000
   44.3343   14.2884    7.4975 P   0  0  2  0  0  0  0  0  0  0  0  0
   45.7106   13.9051    7.0975 O   0  0  0  0  0  0  0  0  0  0  0  0
   43.4386   14.5940    6.1954 O   0  5  0  0  0  0  0  0  0  0  0  0
   44.3983   15.6284    8.4055 O   0  0  0  0  0  0  0  0  0  0  0  0
   47.8980   11.6050   10.1300 C   0  0  2  0  0  0  0  0  0  0  0  0
   48.5418   12.1530    8.9703 O   0  0  0  0  0  0  0  0  0  0  0  0
   47.6589   10.0758    9.9817 C   0  0  2  0  0  0  0  0  0  0  0  0
   48.9482    9.3879    9.7497 N   0  0  0  0  0  0  0  0  0  0  0  0
   46.7092    9.8394    8.7884 C   0  0  1  0  0  0  0  0  0  0  0  0
   46.4484    8.4335    8.6317 O   0  0  0  0  0  0  0  0  0  0  0  0
   45.3944   10.5806    9.0719 C   0  0  2  0  0  0  0  0  0  0  0  0
   44.4926   10.3934    7.9721 O   0  0  0  0  0  0  0  0  0  0  0  0
   45.7107   12.0902    9.2404 C   0  0  2  0  0  0  0  0  0  0  0  0
   46.6331   12.2917   10.3498 O   0  0  0  0  0  0  0  0  0  0  0  0
   44.4108   12.8576    9.5386 C   0  0  0  0  0  0  0  0  0  0  0  0
   43.6768   13.0614    8.3174 O   0  0  0  0  0  0  0  0  0  0  0  0
  1  2  1  6  0  0  0
  1  3  1  0  0  0  0
  1  4  2  0  0  0  0
  1 16  1  0  0  0  0
  5  6  1  6  0  0  0
  5  7  1  0  0  0  0
  5 14  1  0  0  0  0
  7  8  1  6  0  0  0
  7  9  1  0  0  0  0
  9 10  1  1  0  0  0
  9 11  1  0  0  0  0
 11 12  1  6  0  0  0
 11 13  1  0  0  0  0
 13 14  1  0  0  0  0
 13 15  1  1  0  0  0
 15 16  1  0  0  0  0
M  CHG  1   3  -1
M  END
>  <CHROM.1>
-78.89259176,-78.65716278,64.43520357,45.74907729,12.16685603,8.61664652
-2.27899178,0.49326389,3.11493435

>  <Name>
ligand

>  <RI>
0

>  <Rbt.Current_Directory>
/home/itssahil/PROJECTS/Mol_Feturizer/New_Systems/rnas/3B4B

>  <Rbt.Executable>
rbdock ($Id: //depot/dev/client3/rdock/2013.1/src/exe/rbdock.cxx#4 $)

>  <Rbt.Library>
libRbt.so (2013.1, Build901 2013/11/27)

>  <Rbt.Parameter_File>
/export/apps/rDock/src/rDock_2013.1_src/data/scripts/dock_solv.prm

>  <Rbt.Receptor>
prm/pocket_docking_8.prm

>  <SCORE>
-8.90433

>  <SCORE.INTER>
-9.07844

>  <SCORE.INTER.CONST>
1

>  <SCORE.INTER.POLAR>
-0.899677

>  <SCORE.INTER.ROT>
3

>  <SCORE.INTER.SOLV>
18.245

>  <SCORE.INTER.VDW>
-14.735

>  <SCORE.INTER.norm>
-0.567402

>  <SCORE.INTRA>
0.174104

>  <SCORE.INTRA.DIHEDRAL>
0.58798

>  <SCORE.INTRA.DIHEDRAL.0>
2.21864

>  <SCORE.INTRA.POLAR>
0

>  <SCORE.INTRA.POLAR.0>
0

>  <SCORE.INTRA.REPUL>
0

>  <SCORE.INTRA.REPUL.0>
0

>  <SCORE.INTRA.SOLV>
0.259362

>  <SCORE.INTRA.SOLV.lig_0>
-58.5963

>  <SCORE.INTRA.VDW>
-0.249567

>  <SCORE.INTRA.VDW.0>
-0.437849

>  <SCORE.INTRA.norm>
0.0108815

>  <SCORE.RESTR>
0

>  <SCORE.RESTR.CAVITY>
0

>  <SCORE.RESTR.norm>
0

>  <SCORE.SYSTEM>
0

>  <SCORE.SYSTEM.CONST>
0

>  <SCORE.SYSTEM.DIHEDRAL>
0

>  <SCORE.SYSTEM.SOLV>
0

>  <SCORE.SYSTEM.norm>
0

>  <SCORE.heavy>
16

>  <SCORE.norm>
-0.556521

>  <RMSD>
6.112

$$$$
ligand
 OpenBabel11021811463D
libRbt.so/2013.1/901 2013/11/27
 16 16  0  0  0  0  0  0  0  0999 V2000
   44.7432   14.2066    8.3553 P   0  0  2  0  0  0  0  0  0  0  0  0
   44.0658   14.4657    9.6495 O   0  0  0  0  0  0  0  0  0  0  0  0
   45.7421   15.4164    7.9952 O   0  5  0  0  0  0  0  0  0  0  0  0
   43.6286   14.0926    7.1854 O   0  0  0  0  0  0  0  0  0  0  0  0
   46.7258    8.9575    7.5466 C   0  0  2  0  0  0  0  0  0  0  0  0
   45.8245    7.8764    7.8267 O   0  0  0  0  0  0  0  0  0  0  0  0
   47.9369    8.9589    8.5217 C   0  0  2  0  0  0  0  0  0  0  0  0
   48.6549    7.6685    8.4298 N   0  0  0  0  0  0  0  0  0  0  0  0
   47.4127    9.1733    9.9574 C   0  0  1  0  0  0  0  0  0  0  0  0
   48.5093    9.2000   10.8880 O   0  0  0  0  0  0  0  0  0  0  0  0
   46.6681   10.5158    9.9972 C   0  0  2  0  0  0  0  0  0  0  0  0
   46.1538   10.7389   11.3176 O   0  0  0  0  0  0  0  0  0  0  0  0
   45.4973   10.4558    8.9808 C   0  0  2  0  0  0  0  0  0  0  0  0
   46.0075   10.2208    7.6368 O   0  0  0  0  0  0  0  0  0  0  0  0
   44.7395   11.7949    8.9900 C   0  0  0  0  0  0  0  0  0  0  0  0
   45.5924   12.8383    8.4846 O   0  0  0  0  0  0  0  0  0  0  0  0
  1  2  1  1  0  0  0
  1  3  1  0  0  0  0
  1  4  2  0  0  0  0
  1 16  1  0  0  0  0
  5  6  1  1  0  0  0
  5  7  1  0  0  0  0
  5 14  1  0  0  0  0
  7  8  1  1  0  0  0
  7  9  1  0  0  0  0
  9 10  1  1  0  0  0
  9 11  1  0  0  0  0
 11 12  1  1  0  0  0
 11 13  1  0  0  0  0
 13 14  1  0  0  0  0
 13 15  1  6  0  0  0
 15 16  1  0  0  0  0
M  CHG  1   3  -1
M  END
>  <CHROM.1>
66.22327594,174.23617136,51.62500508,45.98481547,11.32946391,8.82423664,2.56726478
-1.00726775,0.78928339

>  <Name>
ligand

>  <RI>
0

>  <Rbt.Current_Directory>
/home/itssahil/PROJECTS/Mol_Feturizer/New_Systems/rnas/3B4B

>  <Rbt.Executable>
rbdock ($Id: //depot/dev/client3/rdock/2013.1/src/exe/rbdock.cxx#4 $)

>  <Rbt.Library>
libRbt.so (2013.1, Build901 2013/11/27)

>  <Rbt.Parameter_File>
/export/apps/rDock/src/rDock_2013.1_src/data/scripts/dock_solv.prm

>  <Rbt.Receptor>
prm/pocket_docking_7.prm

>  <SCORE>
-7.73536

>  <SCORE.INTER>
-6.28811

>  <SCORE.INTER.CONST>
1

>  <SCORE.INTER.POLAR>
-0.893434

>  <SCORE.INTER.ROT>
3

>  <SCORE.INTER.SOLV>
20.0815

>  <SCORE.INTER.VDW>
-13.5078

>  <SCORE.INTER.norm>
-0.393007

>  <SCORE.INTRA>
-1.44725

>  <SCORE.INTRA.DIHEDRAL>
-1.80443

>  <SCORE.INTRA.DIHEDRAL.0>
2.21864

>  <SCORE.INTRA.POLAR>
0

>  <SCORE.INTRA.POLAR.0>
0

>  <SCORE.INTRA.REPUL>
0

>  <SCORE.INTRA.REPUL.0>
0

>  <SCORE.INTRA.SOLV>
-0.996036

>  <SCORE.INTRA.SOLV.lig_0>
-58.5963

>  <SCORE.INTRA.VDW>
-0.0470152

>  <SCORE.INTRA.VDW.0>
-0.437849

>  <SCORE.INTRA.norm>
-0.0904529

>  <SCORE.RESTR>
0

>  <SCORE.RESTR.CAVITY>
0

>  <SCORE.RESTR.norm>
0

>  <SCORE.SYSTEM>
0

>  <SCORE.SYSTEM.CONST>
0

>  <SCORE.SYSTEM.DIHEDRAL>
0

>  <SCORE.SYSTEM.SOLV>
0

>  <SCORE.SYSTEM.norm>
0

>  <SCORE.heavy>
16

>  <SCORE.norm>
-0.48346

>  <RMSD>
6.128

$$$$
ligand
 OpenBabel11021811463D
libRbt.so/2013.1/901 2013/11/27
 16 16  0  0  0  0  0  0  0  0999 V2000
   42.1407   15.6033   11.9557 P   0  0  2  0  0  0  0  0  0  0  0  0
   40.8046   15.5246   11.3156 O   0  0  0  0  0  0  0  0  0  0  0  0
   42.0299   15.2606   13.5245 O   0  5  0  0  0  0  0  0  0  0  0  0
   42.7187   17.1082   11.7962 O   0  0  0  0  0  0  0  0  0  0  0  0
   44.9576   11.5092    9.0577 C   0  0  2  0  0  0  0  0  0  0  0  0
   44.3383   10.2165    8.9862 O   0  0  0  0  0  0  0  0  0  0  0  0
   46.2220   11.4877    9.9625 C   0  0  2  0  0  0  0  0  0  0  0  0
   47.1895   10.4940    9.4471 N   0  0  0  0  0  0  0  0  0  0  0  0
   45.7938   11.1162   11.3980 C   0  0  1  0  0  0  0  0  0  0  0  0
   46.9374   11.1054   12.2706 O   0  0  0  0  0  0  0  0  0  0  0  0
   44.7846   12.1680   11.8814 C   0  0  2  0  0  0  0  0  0  0  0  0
   44.3539   11.8427   13.2105 O   0  0  0  0  0  0  0  0  0  0  0  0
   43.5684   12.1576   10.9180 C   0  0  2  0  0  0  0  0  0  0  0  0
   43.9955   12.4783    9.5627 O   0  0  0  0  0  0  0  0  0  0  0  0
   42.5444   13.2127   11.3714 C   0  0  0  0  0  0  0  0  0  0  0  0
   43.1151   14.5280   11.2454 O   0  0  0  0  0  0  0  0  0  0  0  0
  1  2  1  6  0  0  0
  1  3  1  0  0  0  0
  1  4  2  0  0  0  0
  1 16  1  0  0  0  0
  5  6  1  1  0  0  0
  5  7  1  0  0  0  0
  5 14  1  0  0  0  0
  7  8  1  6  0  0  0
  7  9  1  0  0  0  0
  9 10  1  1  0  0  0
  9 11  1  0  0  0  0
 11 12  1  1  0  0  0
 11 13  1  0  0  0  0
 13 14  1  0  0  0  0
 13 15  1  1  0  0  0
 15 16  1  0  0  0  0
M  CHG  1   3  -1
M  END
>  <CHROM.1>
64.99283011,-170.32756482,-58.08909704,43.90761129,13.11156245,11.20802414
2.57541456,-0.77072208,1.18174105

>  <Name>
ligand

>  <RI>
0

>  <Rbt.Current_Directory>
/home/itssahil/PROJECTS/Mol_Feturizer/New_Systems/rnas/3B4B

>  <Rbt.Executable>
rbdock ($Id: //depot/dev/client3/rdock/2013.1/src/exe/rbdock.cxx#4 $)

>  <Rbt.Library>
libRbt.so (2013.1, Build901 2013/11/27)

>  <Rbt.Parameter_File>
/export/apps/rDock/src/rDock_2013.1_src/data/scripts/dock_solv.prm

>  <Rbt.Receptor>
prm/pocket_docking_8.prm

>  <SCORE>
-7.26471

>  <SCORE.INTER>
-5.93576

>  <SCORE.INTER.CONST>
1

>  <SCORE.INTER.POLAR>
0

>  <SCORE.INTER.ROT>
3

>  <SCORE.INTER.SOLV>
12.5332

>  <SCORE.INTER.VDW>
-13.7349

>  <SCORE.INTER.norm>
-0.370985

>  <SCORE.INTRA>
-1.32895

>  <SCORE.INTRA.DIHEDRAL>
-1.66926

>  <SCORE.INTRA.DIHEDRAL.0>
2.21864

>  <SCORE.INTRA.POLAR>
0

>  <SCORE.INTRA.POLAR.0>
0

>  <SCORE.INTRA.REPUL>
0

>  <SCORE.INTRA.REPUL.0>
0

>  <SCORE.INTRA.SOLV>
-0.625541

>  <SCORE.INTRA.SOLV.lig_0>
-58.5963

>  <SCORE.INTRA.VDW>
-0.181551

>  <SCORE.INTRA.VDW.0>
-0.437849

>  <SCORE.INTRA.norm>
-0.0830594

>  <SCORE.RESTR>
0

>  <SCORE.RESTR.CAVITY>
0

>  <SCORE.RESTR.norm>
0

>  <SCORE.SYSTEM>
0

>  <SCORE.SYSTEM.CONST>
0

>  <SCORE.SYSTEM.DIHEDRAL>
0

>  <SCORE.SYSTEM.SOLV>
0

>  <SCORE.SYSTEM.norm>
0

>  <SCORE.heavy>
16

>  <SCORE.norm>
-0.454045

>  <RMSD>
6.134

$$$$
ligand
 OpenBabel11021811463D
libRbt.so/2013.1/901 2013/11/27
 16 16  0  0  0  0  0  0  0  0999 V2000
   41.4817   16.8588   11.3817 P   0  0  2  0  0  0  0  0  0  0  0  0
   40.1830   16.3498   10.8766 O   0  0  0  0  0  0  0  0  0  0  0  0
   41.2655   18.2288   12.1986 O   0  5  0  0  0  0  0  0  0  0  0  0
   42.4608   17.1563   10.1259 O   0  0  0  0  0  0  0  0  0  0  0  0
   42.8148   11.8459   14.0023 C   0  0  2  0  0  0  0  0  0  0  0  0
   43.4777   12.4889   15.1008 O   0  0  0  0  0  0  0  0  0  0  0  0
   43.7707   10.8836   13.2422 C   0  0  2  0  0  0  0  0  0  0  0  0
   44.3016    9.8653   14.1752 N   0  0  0  0  0  0  0  0  0  0  0  0
   44.9286   11.7105   12.6445 C   0  0  1  0  0  0  0  0  0  0  0  0
   45.8258   10.8546   11.9152 O   0  0  0  0  0  0  0  0  0  0  0  0
   44.3264   12.7568   11.6954 C   0  0  2  0  0  0  0  0  0  0  0  0
   45.3779   13.5545   11.1331 O   0  0  0  0  0  0  0  0  0  0  0  0
   43.3619   13.6585   12.5103 C   0  0  2  0  0  0  0  0  0  0  0  0
   42.2942   12.8574   13.0936 O   0  0  0  0  0  0  0  0  0  0  0  0
   42.7328   14.7106   11.5804 C   0  0  0  0  0  0  0  0  0  0  0  0
   42.1207   15.7490   12.3668 O   0  0  0  0  0  0  0  0  0  0  0  0
  1  2  1  6  0  0  0
  1  3  1  0  0  0  0
  1  4  2  0  0  0  0
  1 16  1  0  0  0  0
  5  6  1  1  0  0  0
  5  7  1  0  0  0  0
  5 14  1  0  0  0  0
  7  8  1  1  0  0  0
  7  9  1  0  0  0  0
  9 10  1  6  0  0  0
  9 11  1  0  0  0  0
 11 12  1  1  0  0  0
 11 13  1  0  0  0  0
 13 14  1  0  0  0  0
 13 15  1  6  0  0  0
 15 16  1  0  0  0  0
M  CHG  1   3  -1
M  END
>  <CHROM.1>
-165.22739701,179.20262850,79.28211532,43.02482952,14.02132051,12.28444366
2.16787311,0.67165079,-0.71868475

>  <Name>
ligand

>  <RI>
0

>  <Rbt.Current_Directory>
/home/itssahil/PROJECTS/Mol_Feturizer/New_Systems/rnas/3B4B

>  <Rbt.Executable>
rbdock ($Id: //depot/dev/client3/rdock/2013.1/src/exe/rbdock.cxx#4 $)

>  <Rbt.Library>
libRbt.so (2013.1, Build901 2013/11/27)

>  <Rbt.Parameter_File>
/export/apps/rDock/src/rDock_2013.1_src/data/scripts/dock_solv.prm

>  <Rbt.Receptor>
prm/pocket_docking_8.prm

>  <SCORE>
-9.32479

>  <SCORE.INTER>
-8.31757

>  <SCORE.INTER.CONST>
1

>  <SCORE.INTER.POLAR>
0

>  <SCORE.INTER.ROT>
3

>  <SCORE.INTER.SOLV>
14.7613

>  <SCORE.INTER.VDW>
-16.0655

>  <SCORE.INTER.norm>
-0.519848

>  <SCORE.INTRA>
-1.00805

>  <SCORE.INTRA.DIHEDRAL>
-0.896006

>  <SCORE.INTRA.DIHEDRAL.0>
2.21864

>  <SCORE.INTRA.POLAR>
0

>  <SCORE.INTRA.POLAR.0>
0

>  <SCORE.INTRA.REPUL>
0

>  <SCORE.INTRA.REPUL.0>
0

>  <SCORE.INTRA.SOLV>
-1.03684

>  <SCORE.INTRA.SOLV.lig_0>
-58.5963

>  <SCORE.INTRA.VDW>
-0.0416241

>  <SCORE.INTRA.VDW.0>
-0.437849

>  <SCORE.INTRA.norm>
-0.0630029

>  <SCORE.RESTR>
0.00082605

>  <SCORE.RESTR.CAVITY>
0.00082605

>  <SCORE.RESTR.norm>
5.16281e-05

>  <SCORE.SYSTEM>
0

>  <SCORE.SYSTEM.CONST>
0

>  <SCORE.SYSTEM.DIHEDRAL>
0

>  <SCORE.SYSTEM.SOLV>
0

>  <SCORE.SYSTEM.norm>
0

>  <SCORE.heavy>
16

>  <SCORE.norm>
-0.582799

>  <RMSD>
6.151

$$$$
ligand
 OpenBabel11021811463D
libRbt.so/2013.1/901 2013/11/27
 16 16  0  0  0  0  0  0  0  0999 V2000
   41.4113   16.7662   11.4261 P   0  0  2  0  0  0  0  0  0  0  0  0
   40.1159   16.2763   10.8943 O   0  0  0  0  0  0  0  0  0  0  0  0
   41.2036   18.1567   12.2100 O   0  5  0  0  0  0  0  0  0  0  0  0
   42.4315   17.0169   10.1929 O   0  0  0  0  0  0  0  0  0  0  0  0
   42.7371   11.7868   14.1865 C   0  0  2  0  0  0  0  0  0  0  0  0
   43.3508   12.4767   15.2852 O   0  0  0  0  0  0  0  0  0  0  0  0
   43.7446   10.8446   13.4690 C   0  0  2  0  0  0  0  0  0  0  0  0
   44.2905    9.8664   14.4356 N   0  0  0  0  0  0  0  0  0  0  0  0
   44.8851   11.7008   12.8792 C   0  0  1  0  0  0  0  0  0  0  0  0
   45.8293   10.8634   12.1889 O   0  0  0  0  0  0  0  0  0  0  0  0
   44.2672   12.7041   11.8943 C   0  0  2  0  0  0  0  0  0  0  0  0
   45.3016   13.5278   11.3382 O   0  0  0  0  0  0  0  0  0  0  0  0
   43.2521   13.5866   12.6677 C   0  0  2  0  0  0  0  0  0  0  0  0
   42.2011   12.7591   13.2446 O   0  0  0  0  0  0  0  0  0  0  0  0
   42.6067   14.5950   11.7013 C   0  0  0  0  0  0  0  0  0  0  0  0
   41.9971   15.6624   12.4500 O   0  0  0  0  0  0  0  0  0  0  0  0
  1  2  1  6  0  0  0
  1  3  1  0  0  0  0
  1  4  2  0  0  0  0
  1 16  1  0  0  0  0
  5  6  1  1  0  0  0
  5  7  1  0  0  0  0
  5 14  1  0  0  0  0
  7  8  1  1  0  0  0
  7  9  1  0  0  0  0
  9 10  1  6  0  0  0
  9 11  1  0  0  0  0
 11 12  1  1  0  0  0
 11 13  1  0  0  0  0
 13 14  1  0  0  0  0
 13 15  1  6  0  0  0
 15 16  1  0  0  0  0
M  CHG  1   3  -1
M  END
>  <CHROM.1>
-162.34599469,176.15770911,79.25774029,42.95572090,13.95982825,12.42589049
2.15630954,0.64272358,-0.73253058

>  <Name>
ligand

>  <RI>
0

>  <Rbt.Current_Directory>
/home/itssahil/PROJECTS/Mol_Feturizer/New_Systems/rnas/3B4B

>  <Rbt.Executable>
rbdock ($Id: //depot/dev/client3/rdock/2013.1/src/exe/rbdock.cxx#4 $)

>  <Rbt.Library>
libRbt.so (2013.1, Build901 2013/11/27)

>  <Rbt.Parameter_File>
/export/apps/rDock/src/rDock_2013.1_src/data/scripts/dock_solv.prm

>  <Rbt.Receptor>
prm/pocket_docking_7.prm

>  <SCORE>
-9.7641

>  <SCORE.INTER>
-8.93365

>  <SCORE.INTER.CONST>
1

>  <SCORE.INTER.POLAR>
0

>  <SCORE.INTER.ROT>
3

>  <SCORE.INTER.SOLV>
16.2294

>  <SCORE.INTER.VDW>
-16.9656

>  <SCORE.INTER.norm>
-0.558353

>  <SCORE.INTRA>
-0.830449

>  <SCORE.INTRA.DIHEDRAL>
-0.528946

>  <SCORE.INTRA.DIHEDRAL.0>
2.21864

>  <SCORE.INTRA.POLAR>
0

>  <SCORE.INTRA.POLAR.0>
0

>  <SCORE.INTRA.REPUL>
0

>  <SCORE.INTRA.REPUL.0>
0

>  <SCORE.INTRA.SOLV>
-1.04853

>  <SCORE.INTRA.SOLV.lig_0>
-58.5963

>  <SCORE.INTRA.VDW>
-0.0417105

>  <SCORE.INTRA.VDW.0>
-0.437849

>  <SCORE.INTRA.norm>
-0.0519031

>  <SCORE.RESTR>
0

>  <SCORE.RESTR.CAVITY>
0

>  <SCORE.RESTR.norm>
0

>  <SCORE.SYSTEM>
0

>  <SCORE.SYSTEM.CONST>
0

>  <SCORE.SYSTEM.DIHEDRAL>
0

>  <SCORE.SYSTEM.SOLV>
0

>  <SCORE.SYSTEM.norm>
0

>  <SCORE.heavy>
16

>  <SCORE.norm>
-0.610257

>  <RMSD>
6.164

$$$$
ligand
 OpenBabel11021811463D
libRbt.so/2013.1/901 2013/11/27
 16 16  0  0  0  0  0  0  0  0999 V2000
   44.3443   14.2858    7.2967 P   0  0  2  0  0  0  0  0  0  0  0  0
   45.7674   13.9711    7.0193 O   0  0  0  0  0  0  0  0  0  0  0  0
   43.5395   14.4959    5.9185 O   0  5  0  0  0  0  0  0  0  0  0  0
   44.2608   15.6562    8.1565 O   0  0  0  0  0  0  0  0  0  0  0  0
   47.8837   11.6772   10.0399 C   0  0  2  0  0  0  0  0  0  0  0  0
   48.5352   12.1682    8.8592 O   0  0  0  0  0  0  0  0  0  0  0  0
   47.6550   10.1409    9.9693 C   0  0  2  0  0  0  0  0  0  0  0  0
   48.9504    9.4500    9.7852 N   0  0  0  0  0  0  0  0  0  0  0  0
   46.7179    9.8366    8.7814 C   0  0  1  0  0  0  0  0  0  0  0  0
   46.4670    8.4228    8.6958 O   0  0  0  0  0  0  0  0  0  0  0  0
   45.3962   10.5832    9.0140 C   0  0  2  0  0  0  0  0  0  0  0  0
   44.5059   10.3332    7.9173 O   0  0  0  0  0  0  0  0  0  0  0  0
   45.7020   12.1015    9.1065 C   0  0  2  0  0  0  0  0  0  0  0  0
   46.6127   12.3663   10.2122 O   0  0  0  0  0  0  0  0  0  0  0  0
   44.3949   12.8751    9.3525 C   0  0  0  0  0  0  0  0  0  0  0  0
   43.6932   13.0498    8.1081 O   0  0  0  0  0  0  0  0  0  0  0  0
  1  2  1  6  0  0  0
  1  3  1  0  0  0  0
  1  4  2  0  0  0  0
  1 16  1  0  0  0  0
  5  6  1  6  0  0  0
  5  7  1  0  0  0  0
  5 14  1  0  0  0  0
  7  8  1  6  0  0  0
  7  9  1  0  0  0  0
  9 10  1  1  0  0  0
  9 11  1  0  0  0  0
 11 12  1  6  0  0  0
 11 13  1  0  0  0  0
 13 14  1  0  0  0  0
 13 15  1  1  0  0  0
 15 16  1  0  0  0  0
M  CHG  1   3  -1
M  END
>  <CHROM.1>
-80.82987477,-80.31847668,60.76571414,45.75133194,12.17881419,8.50121616
-2.26743431,0.49234854,3.06840599

>  <Name>
ligand

>  <RI>
0

>  <Rbt.Current_Directory>
/home/itssahil/PROJECTS/Mol_Feturizer/New_Systems/rnas/3B4B

>  <Rbt.Executable>
rbdock ($Id: //depot/dev/client3/rdock/2013.1/src/exe/rbdock.cxx#4 $)

>  <Rbt.Library>
libRbt.so (2013.1, Build901 2013/11/27)

>  <Rbt.Parameter_File>
/export/apps/rDock/src/rDock_2013.1_src/data/scripts/dock_solv.prm

>  <Rbt.Receptor>
prm/pocket_docking_7.prm

>  <SCORE>
-8.87209

>  <SCORE.INTER>
-9.21896

>  <SCORE.INTER.CONST>
1

>  <SCORE.INTER.POLAR>
-0.9

>  <SCORE.INTER.ROT>
3

>  <SCORE.INTER.SOLV>
18.9889

>  <SCORE.INTER.VDW>
-15.0756

>  <SCORE.INTER.norm>
-0.576185

>  <SCORE.INTRA>
0.346873

>  <SCORE.INTRA.DIHEDRAL>
1.05315

>  <SCORE.INTRA.DIHEDRAL.0>
2.21864

>  <SCORE.INTRA.POLAR>
0

>  <SCORE.INTRA.POLAR.0>
0

>  <SCORE.INTRA.REPUL>
0

>  <SCORE.INTRA.REPUL.0>
0

>  <SCORE.INTRA.SOLV>
0.127452

>  <SCORE.INTRA.SOLV.lig_0>
-58.5963

>  <SCORE.INTRA.VDW>
-0.243429

>  <SCORE.INTRA.VDW.0>
-0.437849

>  <SCORE.INTRA.norm>
0.0216796

>  <SCORE.RESTR>
0

>  <SCORE.RESTR.CAVITY>
0

>  <SCORE.RESTR.norm>
0

>  <SCORE.SYSTEM>
0

>  <SCORE.SYSTEM.CONST>
0

>  <SCORE.SYSTEM.DIHEDRAL>
0

>  <SCORE.SYSTEM.SOLV>
0

>  <SCORE.SYSTEM.norm>
0

>  <SCORE.heavy>
16

>  <SCORE.norm>
-0.554505

>  <RMSD>
6.181

$$$$
ligand
 OpenBabel11021811463D
libRbt.so/2013.1/901 2013/11/27
 16 16  0  0  0  0  0  0  0  0999 V2000
   41.7257   16.3463   11.5574 P   0  0  2  0  0  0  0  0  0  0  0  0
   40.2790   16.0264   11.6330 O   0  0  0  0  0  0  0  0  0  0  0  0
   42.1807   17.1867   12.8527 O   0  5  0  0  0  0  0  0  0  0  0  0
   42.0037   17.2429   10.2372 O   0  0  0  0  0  0  0  0  0  0  0  0
   45.3538   11.9675   11.9712 C   0  0  2  0  0  0  0  0  0  0  0  0
   44.5934   11.0288   11.1964 O   0  0  0  0  0  0  0  0  0  0  0  0
   45.6704   11.4140   13.3893 C   0  0  2  0  0  0  0  0  0  0  0  0
   46.4118   10.1387   13.2748 N   0  0  0  0  0  0  0  0  0  0  0  0
   44.3400   11.1889   14.1383 C   0  0  1  0  0  0  0  0  0  0  0  0
   44.5940   10.6941   15.4649 O   0  0  0  0  0  0  0  0  0  0  0  0
   43.6058   12.5352   14.2205 C   0  0  2  0  0  0  0  0  0  0  0  0
   42.3546   12.3574   14.8994 O   0  0  0  0  0  0  0  0  0  0  0  0
   43.3520   13.0426   12.7763 C   0  0  2  0  0  0  0  0  0  0  0  0
   44.6161   13.2185   12.0740 O   0  0  0  0  0  0  0  0  0  0  0  0
   42.6274   14.3989   12.8279 C   0  0  0  0  0  0  0  0  0  0  0  0
   42.5562   14.9614   11.5050 O   0  0  0  0  0  0  0  0  0  0  0  0
  1  2  1  1  0  0  0
  1  3  1  0  0  0  0
  1  4  2  0  0  0  0
  1 16  1  0  0  0  0
  5  6  1  6  0  0  0
  5  7  1  0  0  0  0
  5 14  1  0  0  0  0
  7  8  1  6  0  0  0
  7  9  1  0  0  0  0
  9 10  1  1  0  0  0
  9 11  1  0  0  0  0
 11 12  1  6  0  0  0
 11 13  1  0  0  0  0
 13 14  1  0  0  0  0
 13 15  1  1  0  0  0
 15 16  1  0  0  0  0
M  CHG  1   3  -1
M  END
>  <CHROM.1>
172.01478131,177.01913685,-77.87009734,43.33818693,13.63262171,12.64310221
-2.36474784,-0.79693225,2.14229117

>  <Name>
ligand

>  <RI>
0

>  <Rbt.Current_Directory>
/home/itssahil/PROJECTS/Mol_Feturizer/New_Systems/rnas/3B4B

>  <Rbt.Executable>
rbdock ($Id: //depot/dev/client3/rdock/2013.1/src/exe/rbdock.cxx#4 $)

>  <Rbt.Library>
libRbt.so (2013.1, Build901 2013/11/27)

>  <Rbt.Parameter_File>
/export/apps/rDock/src/rDock_2013.1_src/data/scripts/dock_solv.prm

>  <Rbt.Receptor>
prm/pocket_docking_6.prm

>  <SCORE>
-11.3098

>  <SCORE.INTER>
-10.2235

>  <SCORE.INTER.CONST>
1

>  <SCORE.INTER.POLAR>
0

>  <SCORE.INTER.ROT>
3

>  <SCORE.INTER.SOLV>
17.0068

>  <SCORE.INTER.VDW>
-18.0846

>  <SCORE.INTER.norm>
-0.638969

>  <SCORE.INTRA>
-1.0863

>  <SCORE.INTRA.DIHEDRAL>
-1.46449

>  <SCORE.INTRA.DIHEDRAL.0>
2.21864

>  <SCORE.INTRA.POLAR>
0

>  <SCORE.INTRA.POLAR.0>
0

>  <SCORE.INTRA.REPUL>
0

>  <SCORE.INTRA.REPUL.0>
0

>  <SCORE.INTRA.SOLV>
-0.966534

>  <SCORE.INTRA.SOLV.lig_0>
-58.5963

>  <SCORE.INTRA.VDW>
0.129218

>  <SCORE.INTRA.VDW.0>
-0.437849

>  <SCORE.INTRA.norm>
-0.0678935

>  <SCORE.RESTR>
0

>  <SCORE.RESTR.CAVITY>
0

>  <SCORE.RESTR.norm>
0

>  <SCORE.SYSTEM>
0

>  <SCORE.SYSTEM.CONST>
0

>  <SCORE.SYSTEM.DIHEDRAL>
0

>  <SCORE.SYSTEM.SOLV>
0

>  <SCORE.SYSTEM.norm>
0

>  <SCORE.heavy>
16

>  <SCORE.norm>
-0.706863

>  <RMSD>
6.193

$$$$
ligand
 OpenBabel11021811463D
libRbt.so/2013.1/901 2013/11/27
 16 16  0  0  0  0  0  0  0  0999 V2000
   41.7342   16.3686   11.5681 P   0  0  2  0  0  0  0  0  0  0  0  0
   40.2912   16.0286   11.6238 O   0  0  0  0  0  0  0  0  0  0  0  0
   42.1625   17.2039   12.8757 O   0  5  0  0  0  0  0  0  0  0  0  0
   42.0153   17.2803   10.2589 O   0  0  0  0  0  0  0  0  0  0  0  0
   45.3809   12.0031   11.9829 C   0  0  2  0  0  0  0  0  0  0  0  0
   44.6356   11.0720   11.1846 O   0  0  0  0  0  0  0  0  0  0  0  0
   45.6780   11.4323   13.3983 C   0  0  2  0  0  0  0  0  0  0  0  0
   46.4254   10.1610   13.2786 N   0  0  0  0  0  0  0  0  0  0  0  0
   44.3372   11.1931   14.1241 C   0  0  1  0  0  0  0  0  0  0  0  0
   44.5729   10.6820   15.4479 O   0  0  0  0  0  0  0  0  0  0  0  0
   43.5971   12.5358   14.2125 C   0  0  2  0  0  0  0  0  0  0  0  0
   42.3365   12.3451   14.8700 O   0  0  0  0  0  0  0  0  0  0  0  0
   43.3635   13.0611   12.7714 C   0  0  2  0  0  0  0  0  0  0  0  0
   44.6374   13.2503   12.0906 O   0  0  0  0  0  0  0  0  0  0  0  0
   42.6334   14.4143   12.8295 C   0  0  0  0  0  0  0  0  0  0  0  0
   42.5841   14.9957   11.5138 O   0  0  0  0  0  0  0  0  0  0  0  0
  1  2  1  1  0  0  0
  1  3  1  0  0  0  0
  1  4  2  0  0  0  0
  1 16  1  0  0  0  0
  5  6  1  6  0  0  0
  5  7  1  0  0  0  0
  5 14  1  0  0  0  0
  7  8  1  6  0  0  0
  7  9  1  0  0  0  0
  9 10  1  1  0  0  0
  9 11  1  0  0  0  0
 11 12  1  6  0  0  0
 11 13  1  0  0  0  0
 13 14  1  0  0  0  0
 13 15  1  1  0  0  0
 15 16  1  0  0  0  0
M  CHG  1   3  -1
M  END
>  <CHROM.1>
171.83048176,176.39872758,-77.16335556,43.34579730,13.65043401,12.64455197
-2.35153221,-0.78474207,2.16383659

>  <Name>
ligand

>  <RI>
0

>  <Rbt.Current_Directory>
/home/itssahil/PROJECTS/Mol_Feturizer/New_Systems/rnas/3B4B

>  <Rbt.Executable>
rbdock ($Id: //depot/dev/client3/rdock/2013.1/src/exe/rbdock.cxx#4 $)

>  <Rbt.Library>
libRbt.so (2013.1, Build901 2013/11/27)

>  <Rbt.Parameter_File>
/export/apps/rDock/src/rDock_2013.1_src/data/scripts/dock_solv.prm

>  <Rbt.Receptor>
prm/pocket_docking_8.prm

>  <SCORE>
-11.2795

>  <SCORE.INTER>
-10.1727

>  <SCORE.INTER.CONST>
1

>  <SCORE.INTER.POLAR>
0

>  <SCORE.INTER.ROT>
3

>  <SCORE.INTER.SOLV>
16.9158

>  <SCORE.INTER.VDW>
-18.0204

>  <SCORE.INTER.norm>
-0.635796

>  <SCORE.INTRA>
-1.10681

>  <SCORE.INTRA.DIHEDRAL>
-1.46914

>  <SCORE.INTRA.DIHEDRAL.0>
2.21864

>  <SCORE.INTRA.POLAR>
0

>  <SCORE.INTRA.POLAR.0>
0

>  <SCORE.INTRA.REPUL>
0

>  <SCORE.INTRA.REPUL.0>
0

>  <SCORE.INTRA.SOLV>
-0.976691

>  <SCORE.INTRA.SOLV.lig_0>
-58.5963

>  <SCORE.INTRA.VDW>
0.1161

>  <SCORE.INTRA.VDW.0>
-0.437849

>  <SCORE.INTRA.norm>
-0.0691759

>  <SCORE.RESTR>
0

>  <SCORE.RESTR.CAVITY>
0

>  <SCORE.RESTR.norm>
0

>  <SCORE.SYSTEM>
0

>  <SCORE.SYSTEM.CONST>
0

>  <SCORE.SYSTEM.DIHEDRAL>
0

>  <SCORE.SYSTEM.SOLV>
0

>  <SCORE.SYSTEM.norm>
0

>  <SCORE.heavy>
16

>  <SCORE.norm>
-0.704971

>  <RMSD>
6.197

$$$$
ligand
 OpenBabel11021811463D
libRbt.so/2013.1/901 2013/11/27
 16 16  0  0  0  0  0  0  0  0999 V2000
   41.7483   16.4058   11.5684 P   0  0  2  0  0  0  0  0  0  0  0  0
   40.3023   16.0769   11.6140 O   0  0  0  0  0  0  0  0  0  0  0  0
   42.1757   17.2300   12.8833 O   0  5  0  0  0  0  0  0  0  0  0  0
   42.0441   17.3228   10.2662 O   0  0  0  0  0  0  0  0  0  0  0  0
   45.3249   11.9874   11.9405 C   0  0  2  0  0  0  0  0  0  0  0  0
   44.5549   11.0608   11.1607 O   0  0  0  0  0  0  0  0  0  0  0  0
   45.6406   11.4207   13.3536 C   0  0  2  0  0  0  0  0  0  0  0  0
   46.3712   10.1403   13.2277 N   0  0  0  0  0  0  0  0  0  0  0  0
   44.3102   11.2009   14.1043 C   0  0  1  0  0  0  0  0  0  0  0  0
   44.5635   10.6941   15.4265 O   0  0  0  0  0  0  0  0  0  0  0  0
   43.5873   12.5525   14.1984 C   0  0  2  0  0  0  0  0  0  0  0  0
   42.3364   12.3799   14.8792 O   0  0  0  0  0  0  0  0  0  0  0  0
   43.3341   13.0728   12.7588 C   0  0  2  0  0  0  0  0  0  0  0  0
   44.5978   13.2436   12.0545 O   0  0  0  0  0  0  0  0  0  0  0  0
   42.6208   14.4346   12.8224 C   0  0  0  0  0  0  0  0  0  0  0  0
   42.5875   15.0264   11.5108 O   0  0  0  0  0  0  0  0  0  0  0  0
  1  2  1  1  0  0  0
  1  3  1  0  0  0  0
  1  4  2  0  0  0  0
  1 16  1  0  0  0  0
  5  6  1  6  0  0  0
  5  7  1  0  0  0  0
  5 14  1  0  0  0  0
  7  8  1  6  0  0  0
  7  9  1  0  0  0  0
  9 10  1  1  0  0  0
  9 11  1  0  0  0  0
 11 12  1  6  0  0  0
 11 13  1  0  0  0  0
 13 14  1  0  0  0  0
 13 15  1  1  0  0  0
 15 16  1  0  0  0  0
M  CHG  1   3  -1
M  END
>  <CHROM.1>
170.25122838,176.11433335,-76.96683491,43.33092124,13.66665145,12.63003412
-2.35779231,-0.80658876,2.15531038

>  <Name>
ligand

>  <RI>
0

>  <Rbt.Current_Directory>
/home/itssahil/PROJECTS/Mol_Feturizer/New_Systems/rnas/3B4B

>  <Rbt.Executable>
rbdock ($Id: //depot/dev/client3/rdock/2013.1/src/exe/rbdock.cxx#4 $)

>  <Rbt.Library>
libRbt.so (2013.1, Build901 2013/11/27)

>  <Rbt.Parameter_File>
/export/apps/rDock/src/rDock_2013.1_src/data/scripts/dock_solv.prm

>  <Rbt.Receptor>
prm/pocket_docking_8.prm

>  <SCORE>
-11.3404

>  <SCORE.INTER>
-10.2899

>  <SCORE.INTER.CONST>
1

>  <SCORE.INTER.POLAR>
0

>  <SCORE.INTER.ROT>
3

>  <SCORE.INTER.SOLV>
16.5386

>  <SCORE.INTER.VDW>
-17.9728

>  <SCORE.INTER.norm>
-0.643118

>  <SCORE.INTRA>
-1.05048

>  <SCORE.INTRA.DIHEDRAL>
-1.36985

>  <SCORE.INTRA.DIHEDRAL.0>
2.21864

>  <SCORE.INTRA.POLAR>
0

>  <SCORE.INTRA.POLAR.0>
0

>  <SCORE.INTRA.REPUL>
0

>  <SCORE.INTRA.REPUL.0>
0

>  <SCORE.INTRA.SOLV>
-0.974995

>  <SCORE.INTRA.SOLV.lig_0>
-58.5963

>  <SCORE.INTRA.VDW>
0.121937

>  <SCORE.INTRA.VDW.0>
-0.437849

>  <SCORE.INTRA.norm>
-0.0656552

>  <SCORE.RESTR>
0

>  <SCORE.RESTR.CAVITY>
0

>  <SCORE.RESTR.norm>
0

>  <SCORE.SYSTEM>
0

>  <SCORE.SYSTEM.CONST>
0

>  <SCORE.SYSTEM.DIHEDRAL>
0

>  <SCORE.SYSTEM.SOLV>
0

>  <SCORE.SYSTEM.norm>
0

>  <SCORE.heavy>
16

>  <SCORE.norm>
-0.708773

>  <RMSD>
6.200

$$$$
ligand
 OpenBabel11021811463D
libRbt.so/2013.1/901 2013/11/27
 16 16  0  0  0  0  0  0  0  0999 V2000
   41.7374   16.3996   11.5586 P   0  0  2  0  0  0  0  0  0  0  0  0
   40.2910   16.0779   11.6343 O   0  0  0  0  0  0  0  0  0  0  0  0
   42.1921   17.2377   12.8555 O   0  5  0  0  0  0  0  0  0  0  0  0
   42.0136   17.2994   10.2402 O   0  0  0  0  0  0  0  0  0  0  0  0
   45.3148   11.9857   11.9358 C   0  0  2  0  0  0  0  0  0  0  0  0
   44.5434   11.0522   11.1658 O   0  0  0  0  0  0  0  0  0  0  0  0
   45.6396   11.4287   13.3506 C   0  0  2  0  0  0  0  0  0  0  0  0
   46.3733   10.1496   13.2287 N   0  0  0  0  0  0  0  0  0  0  0  0
   44.3139   11.2096   14.1098 C   0  0  1  0  0  0  0  0  0  0  0  0
   44.5757   10.7117   15.4337 O   0  0  0  0  0  0  0  0  0  0  0  0
   43.5876   12.5597   14.1994 C   0  0  2  0  0  0  0  0  0  0  0  0
   42.3409   12.3877   14.8879 O   0  0  0  0  0  0  0  0  0  0  0  0
   43.3253   13.0705   12.7580 C   0  0  2  0  0  0  0  0  0  0  0  0
   44.5847   13.2406   12.0460 O   0  0  0  0  0  0  0  0  0  0  0  0
   42.6083   14.4306   12.8171 C   0  0  0  0  0  0  0  0  0  0  0  0
   42.5694   15.0158   11.5027 O   0  0  0  0  0  0  0  0  0  0  0  0
  1  2  1  1  0  0  0
  1  3  1  0  0  0  0
  1  4  2  0  0  0  0
  1 16  1  0  0  0  0
  5  6  1  1  0  0  0
  5  7  1  0  0  0  0
  5 14  1  0  0  0  0
  7  8  1  6  0  0  0
  7  9  1  0  0  0  0
  9 10  1  1  0  0  0
  9 11  1  0  0  0  0
 11 12  1  6  0  0  0
 11 13  1  0  0  0  0
 13 14  1  0  0  0  0
 13 15  1  1  0  0  0
 15 16  1  0  0  0  0
M  CHG  1   3  -1
M  END
>  <CHROM.1>
170.10311279,176.59965507,-76.19294642,43.32492061,13.66647616,12.62662419
-2.36363153,-0.80853472,2.14579712

>  <Name>
ligand

>  <RI>
0

>  <Rbt.Current_Directory>
/home/itssahil/PROJECTS/Mol_Feturizer/New_Systems/rnas/3B4B

>  <Rbt.Executable>
rbdock ($Id: //depot/dev/client3/rdock/2013.1/src/exe/rbdock.cxx#4 $)

>  <Rbt.Library>
libRbt.so (2013.1, Build901 2013/11/27)

>  <Rbt.Parameter_File>
/export/apps/rDock/src/rDock_2013.1_src/data/scripts/dock_solv.prm

>  <Rbt.Receptor>
prm/pocket_docking_6.prm

>  <SCORE>
-11.337

>  <SCORE.INTER>
-10.2482

>  <SCORE.INTER.CONST>
1

>  <SCORE.INTER.POLAR>
0

>  <SCORE.INTER.ROT>
3

>  <SCORE.INTER.SOLV>
16.5931

>  <SCORE.INTER.VDW>
-17.9632

>  <SCORE.INTER.norm>
-0.640511

>  <SCORE.INTRA>
-1.08885

>  <SCORE.INTRA.DIHEDRAL>
-1.4141

>  <SCORE.INTRA.DIHEDRAL.0>
2.21864

>  <SCORE.INTRA.POLAR>
0

>  <SCORE.INTRA.POLAR.0>
0

>  <SCORE.INTRA.REPUL>
0

>  <SCORE.INTRA.REPUL.0>
0

>  <SCORE.INTRA.SOLV>
-0.979449

>  <SCORE.INTRA.SOLV.lig_0>
-58.5963

>  <SCORE.INTRA.VDW>
0.10792

>  <SCORE.INTRA.VDW.0>
-0.437849

>  <SCORE.INTRA.norm>
-0.0680533

>  <SCORE.RESTR>
0

>  <SCORE.RESTR.CAVITY>
0

>  <SCORE.RESTR.norm>
0

>  <SCORE.SYSTEM>
0

>  <SCORE.SYSTEM.CONST>
0

>  <SCORE.SYSTEM.DIHEDRAL>
0

>  <SCORE.SYSTEM.SOLV>
0

>  <SCORE.SYSTEM.norm>
0

>  <SCORE.heavy>
16

>  <SCORE.norm>
-0.708565

>  <RMSD>
6.204

$$$$
ligand
 OpenBabel11021811463D
libRbt.so/2013.1/901 2013/11/27
 16 16  0  0  0  0  0  0  0  0999 V2000
   41.7255   16.3887   11.5606 P   0  0  2  0  0  0  0  0  0  0  0  0
   40.2803   16.0561   11.6050 O   0  0  0  0  0  0  0  0  0  0  0  0
   42.1491   17.2162   12.8747 O   0  5  0  0  0  0  0  0  0  0  0  0
   42.0205   17.3043   10.2573 O   0  0  0  0  0  0  0  0  0  0  0  0
   45.3182   11.9873   11.9370 C   0  0  2  0  0  0  0  0  0  0  0  0
   44.5491   11.0511   11.1676 O   0  0  0  0  0  0  0  0  0  0  0  0
   45.6457   11.4314   13.3517 C   0  0  2  0  0  0  0  0  0  0  0  0
   46.3833   10.1546   13.2294 N   0  0  0  0  0  0  0  0  0  0  0  0
   44.3212   11.2084   14.1118 C   0  0  1  0  0  0  0  0  0  0  0  0
   44.5856   10.7115   15.4356 O   0  0  0  0  0  0  0  0  0  0  0  0
   43.5908   12.5562   14.2017 C   0  0  2  0  0  0  0  0  0  0  0  0
   42.3451   12.3804   14.8911 O   0  0  0  0  0  0  0  0  0  0  0  0
   43.3258   13.0658   12.7604 C   0  0  2  0  0  0  0  0  0  0  0  0
   44.5842   13.2398   12.0474 O   0  0  0  0  0  0  0  0  0  0  0  0
   42.6046   14.4237   12.8197 C   0  0  0  0  0  0  0  0  0  0  0  0
   42.5684   15.0114   11.5064 O   0  0  0  0  0  0  0  0  0  0  0  0
  1  2  1  1  0  0  0
  1  3  1  0  0  0  0
  1  4  2  0  0  0  0
  1 16  1  0  0  0  0
  5  6  1  1  0  0  0
  5  7  1  0  0  0  0
  5 14  1  0  0  0  0
  7  8  1  6  0  0  0
  7  9  1  0  0  0  0
  9 10  1  1  0  0  0
  9 11  1  0  0  0  0
 11 12  1  6  0  0  0
 11 13  1  0  0  0  0
 13 14  1  0  0  0  0
 13 15  1  1  0  0  0
 15 16  1  0  0  0  0
M  CHG  1   3  -1
M  END
>  <CHROM.1>
169.83933470,176.30406495,-77.11948367,43.32305204,13.66146366,12.62873387
-2.36711128,-0.80607842,2.14307107

>  <Name>
ligand

>  <RI>
0

>  <Rbt.Current_Directory>
/home/itssahil/PROJECTS/Mol_Feturizer/New_Systems/rnas/3B4B

>  <Rbt.Executable>
rbdock ($Id: //depot/dev/client3/rdock/2013.1/src/exe/rbdock.cxx#4 $)

>  <Rbt.Library>
libRbt.so (2013.1, Build901 2013/11/27)

>  <Rbt.Parameter_File>
/export/apps/rDock/src/rDock_2013.1_src/data/scripts/dock_solv.prm

>  <Rbt.Receptor>
prm/pocket_docking_7.prm

>  <SCORE>
-11.3524

>  <SCORE.INTER>
-10.3239

>  <SCORE.INTER.CONST>
1

>  <SCORE.INTER.POLAR>
0

>  <SCORE.INTER.ROT>
3

>  <SCORE.INTER.SOLV>
16.6953

>  <SCORE.INTER.VDW>
-18.0477

>  <SCORE.INTER.norm>
-0.645244

>  <SCORE.INTRA>
-1.02853

>  <SCORE.INTRA.DIHEDRAL>
-1.34116

>  <SCORE.INTRA.DIHEDRAL.0>
2.21864

>  <SCORE.INTRA.POLAR>
0

>  <SCORE.INTRA.POLAR.0>
0

>  <SCORE.INTRA.REPUL>
0

>  <SCORE.INTRA.REPUL.0>
0

>  <SCORE.INTRA.SOLV>
-0.971001

>  <SCORE.INTRA.SOLV.lig_0>
-58.5963

>  <SCORE.INTRA.VDW>
0.127553

>  <SCORE.INTRA.VDW.0>
-0.437849

>  <SCORE.INTRA.norm>
-0.0642831

>  <SCORE.RESTR>
0

>  <SCORE.RESTR.CAVITY>
0

>  <SCORE.RESTR.norm>
0

>  <SCORE.SYSTEM>
0

>  <SCORE.SYSTEM.CONST>
0

>  <SCORE.SYSTEM.DIHEDRAL>
0

>  <SCORE.SYSTEM.SOLV>
0

>  <SCORE.SYSTEM.norm>
0

>  <SCORE.heavy>
16

>  <SCORE.norm>
-0.709527

>  <RMSD>
6.207

$$$$
ligand
 OpenBabel11021811463D
libRbt.so/2013.1/901 2013/11/27
 16 16  0  0  0  0  0  0  0  0999 V2000
   41.3067   16.6531   11.3177 P   0  0  2  0  0  0  0  0  0  0  0  0
   40.0068   16.5700   10.6074 O   0  0  0  0  0  0  0  0  0  0  0  0
   41.3136   17.9080   12.3257 O   0  5  0  0  0  0  0  0  0  0  0  0
   42.4929   16.8562   10.2333 O   0  0  0  0  0  0  0  0  0  0  0  0
   42.8234   11.9325   14.3932 C   0  0  2  0  0  0  0  0  0  0  0  0
   44.1009   11.9872   15.0449 O   0  0  0  0  0  0  0  0  0  0  0  0
   42.8772   11.0680   13.1020 C   0  0  2  0  0  0  0  0  0  0  0  0
   43.3315    9.6997   13.4344 N   0  0  0  0  0  0  0  0  0  0  0  0
   43.8585   11.7263   12.1093 C   0  0  1  0  0  0  0  0  0  0  0  0
   43.9201   10.9632   10.8915 O   0  0  0  0  0  0  0  0  0  0  0  0
   43.3504   13.1434   11.8062 C   0  0  2  0  0  0  0  0  0  0  0  0
   44.2508   13.7902   10.8957 O   0  0  0  0  0  0  0  0  0  0  0  0
   43.2910   13.9369   13.1383 C   0  0  2  0  0  0  0  0  0  0  0  0
   42.3857   13.2841   14.0744 O   0  0  0  0  0  0  0  0  0  0  0  0
   42.7722   15.3597   12.8664 C   0  0  0  0  0  0  0  0  0  0  0  0
   41.5184   15.2926   12.1628 O   0  0  0  0  0  0  0  0  0  0  0  0
  1  2  1  6  0  0  0
  1  3  1  0  0  0  0
  1  4  2  0  0  0  0
  1 16  1  0  0  0  0
  5  6  1  6  0  0  0
  5  7  1  0  0  0  0
  5 14  1  0  0  0  0
  7  8  1  1  0  0  0
  7  9  1  0  0  0  0
  9 10  1  6  0  0  0
  9 11  1  0  0  0  0
 11 12  1  6  0  0  0
 11 13  1  0  0  0  0
 13 14  1  0  0  0  0
 13 15  1  6  0  0  0
 15 16  1  0  0  0  0
M  CHG  1   3  -1
M  END
>  <CHROM.1>
53.90757006,-154.78561936,-179.61457454,42.60514568,14.03480167,12.29394438
-2.49889037,-1.11748346,1.93312561

>  <Name>
ligand

>  <RI>
0

>  <Rbt.Current_Directory>
/home/itssahil/PROJECTS/Mol_Feturizer/New_Systems/rnas/3B4B

>  <Rbt.Executable>
rbdock ($Id: //depot/dev/client3/rdock/2013.1/src/exe/rbdock.cxx#4 $)

>  <Rbt.Library>
libRbt.so (2013.1, Build901 2013/11/27)

>  <Rbt.Parameter_File>
/export/apps/rDock/src/rDock_2013.1_src/data/scripts/dock_solv.prm

>  <Rbt.Receptor>
prm/pocket_docking_7.prm

>  <SCORE>
-7.82205

>  <SCORE.INTER>
-8.09848

>  <SCORE.INTER.CONST>
1

>  <SCORE.INTER.POLAR>
0

>  <SCORE.INTER.ROT>
3

>  <SCORE.INTER.SOLV>
16.6878

>  <SCORE.INTER.VDW>
-16.5616

>  <SCORE.INTER.norm>
-0.506155

>  <SCORE.INTRA>
0.276422

>  <SCORE.INTRA.DIHEDRAL>
0.621884

>  <SCORE.INTRA.DIHEDRAL.0>
2.21864

>  <SCORE.INTRA.POLAR>
0

>  <SCORE.INTRA.POLAR.0>
0

>  <SCORE.INTRA.REPUL>
0

>  <SCORE.INTRA.REPUL.0>
0

>  <SCORE.INTRA.SOLV>
0.811481

>  <SCORE.INTRA.SOLV.lig_0>
-58.5963

>  <SCORE.INTRA.VDW>
-0.440261

>  <SCORE.INTRA.VDW.0>
-0.437849

>  <SCORE.INTRA.norm>
0.0172763

>  <SCORE.RESTR>
0

>  <SCORE.RESTR.CAVITY>
0

>  <SCORE.RESTR.norm>
0

>  <SCORE.SYSTEM>
0

>  <SCORE.SYSTEM.CONST>
0

>  <SCORE.SYSTEM.DIHEDRAL>
0

>  <SCORE.SYSTEM.SOLV>
0

>  <SCORE.SYSTEM.norm>
0

>  <SCORE.heavy>
16

>  <SCORE.norm>
-0.488878

>  <RMSD>
6.207

$$$$
ligand
 OpenBabel11021811463D
libRbt.so/2013.1/901 2013/11/27
 16 16  0  0  0  0  0  0  0  0999 V2000
   41.7130   16.4060   11.5337 P   0  0  2  0  0  0  0  0  0  0  0  0
   40.2674   16.0761   11.5852 O   0  0  0  0  0  0  0  0  0  0  0  0
   42.1424   17.2418   12.8407 O   0  5  0  0  0  0  0  0  0  0  0  0
   42.0050   17.3123   10.2232 O   0  0  0  0  0  0  0  0  0  0  0  0
   45.2635   11.9812   11.8996 C   0  0  2  0  0  0  0  0  0  0  0  0
   44.4798   11.0375   11.1546 O   0  0  0  0  0  0  0  0  0  0  0  0
   45.6134   11.4418   13.3153 C   0  0  2  0  0  0  0  0  0  0  0  0
   46.3461   10.1619   13.1964 N   0  0  0  0  0  0  0  0  0  0  0  0
   44.3012   11.2310   14.1000 C   0  0  1  0  0  0  0  0  0  0  0  0
   44.5865   10.7497   15.4252 O   0  0  0  0  0  0  0  0  0  0  0  0
   43.5752   12.5815   14.1856 C   0  0  2  0  0  0  0  0  0  0  0  0
   42.3408   12.4170   14.8977 O   0  0  0  0  0  0  0  0  0  0  0  0
   43.2874   13.0743   12.7428 C   0  0  2  0  0  0  0  0  0  0  0  0
   44.5341   13.2366   12.0070 O   0  0  0  0  0  0  0  0  0  0  0  0
   42.5702   14.4344   12.7975 C   0  0  0  0  0  0  0  0  0  0  0  0
   42.5535   15.0271   11.4861 O   0  0  0  0  0  0  0  0  0  0  0  0
  1  2  1  1  0  0  0
  1  3  1  0  0  0  0
  1  4  2  0  0  0  0
  1 16  1  0  0  0  0
  5  6  1  1  0  0  0
  5  7  1  0  0  0  0
  5 14  1  0  0  0  0
  7  8  1  6  0  0  0
  7  9  1  0  0  0  0
  9 10  1  1  0  0  0
  9 11  1  0  0  0  0
 11 12  1  1  0  0  0
 11 13  1  0  0  0  0
 13 14  1  0  0  0  0
 13 15  1  1  0  0  0
 15 16  1  0  0  0  0
M  CHG  1   3  -1
M  END
>  <CHROM.1>
167.89470626,176.22796999,-75.95920463,43.29825148,13.67581289,12.60568670
-2.37764918,-0.82057769,2.12533503

>  <Name>
ligand

>  <RI>
0

>  <Rbt.Current_Directory>
/home/itssahil/PROJECTS/Mol_Feturizer/New_Systems/rnas/3B4B

>  <Rbt.Executable>
rbdock ($Id: //depot/dev/client3/rdock/2013.1/src/exe/rbdock.cxx#4 $)

>  <Rbt.Library>
libRbt.so (2013.1, Build901 2013/11/27)

>  <Rbt.Parameter_File>
/export/apps/rDock/src/rDock_2013.1_src/data/scripts/dock_solv.prm

>  <Rbt.Receptor>
prm/pocket_docking_6.prm

>  <SCORE>
-11.3171

>  <SCORE.INTER>
-10.3246

>  <SCORE.INTER.CONST>
1

>  <SCORE.INTER.POLAR>
0

>  <SCORE.INTER.ROT>
3

>  <SCORE.INTER.SOLV>
16.5368

>  <SCORE.INTER.VDW>
-17.9954

>  <SCORE.INTER.norm>
-0.64529

>  <SCORE.INTRA>
-0.992444

>  <SCORE.INTRA.DIHEDRAL>
-1.24604

>  <SCORE.INTRA.DIHEDRAL.0>
2.21864

>  <SCORE.INTRA.POLAR>
0

>  <SCORE.INTRA.POLAR.0>
0

>  <SCORE.INTRA.REPUL>
0

>  <SCORE.INTRA.REPUL.0>
0

>  <SCORE.INTRA.SOLV>
-0.976733

>  <SCORE.INTRA.SOLV.lig_0>
-58.5963

>  <SCORE.INTRA.VDW>
0.118943

>  <SCORE.INTRA.VDW.0>
-0.437849

>  <SCORE.INTRA.norm>
-0.0620277

>  <SCORE.RESTR>
0

>  <SCORE.RESTR.CAVITY>
0

>  <SCORE.RESTR.norm>
0

>  <SCORE.SYSTEM>
0

>  <SCORE.SYSTEM.CONST>
0

>  <SCORE.SYSTEM.DIHEDRAL>
0

>  <SCORE.SYSTEM.SOLV>
0

>  <SCORE.SYSTEM.norm>
0

>  <SCORE.heavy>
16

>  <SCORE.norm>
-0.707317

>  <RMSD>
6.219

$$$$
ligand
 OpenBabel11021811463D
libRbt.so/2013.1/901 2013/11/27
 16 16  0  0  0  0  0  0  0  0999 V2000
   41.8195   16.4132   11.4516 P   0  0  2  0  0  0  0  0  0  0  0  0
   42.1306   17.1579   10.2067 O   0  0  0  0  0  0  0  0  0  0  0  0
   40.2390   16.1243   11.5499 O   0  5  0  0  0  0  0  0  0  0  0  0
   42.2609   17.3059   12.7293 O   0  0  0  0  0  0  0  0  0  0  0  0
   45.3284   11.9591   11.9254 C   0  0  2  0  0  0  0  0  0  0  0  0
   44.5489   11.0176   11.1733 O   0  0  0  0  0  0  0  0  0  0  0  0
   45.6442   11.4285   13.3525 C   0  0  2  0  0  0  0  0  0  0  0  0
   46.3647   10.1396   13.2592 N   0  0  0  0  0  0  0  0  0  0  0  0
   44.3146   11.2393   14.1128 C   0  0  1  0  0  0  0  0  0  0  0  0
   44.5683   10.7667   15.4475 O   0  0  0  0  0  0  0  0  0  0  0  0
   43.6023   12.5985   14.1723 C   0  0  2  0  0  0  0  0  0  0  0  0
   42.3523   12.4540   14.8612 O   0  0  0  0  0  0  0  0  0  0  0  0
   43.3484   13.0815   12.7198 C   0  0  2  0  0  0  0  0  0  0  0  0
   44.6112   13.2235   12.0074 O   0  0  0  0  0  0  0  0  0  0  0  0
   42.6456   14.4499   12.7485 C   0  0  0  0  0  0  0  0  0  0  0  0
   42.6148   15.0073   11.4219 O   0  0  0  0  0  0  0  0  0  0  0  0
  1  2  1  6  0  0  0
  1  3  1  0  0  0  0
  1  4  2  0  0  0  0
  1 16  1  0  0  0  0
  5  6  1  1  0  0  0
  5  7  1  0  0  0  0
  5 14  1  0  0  0  0
  7  8  1  6  0  0  0
  7  9  1  0  0  0  0
  9 10  1  1  0  0  0
  9 11  1  0  0  0  0
 11 12  1  1  0  0  0
 11 13  1  0  0  0  0
 13 14  1  0  0  0  0
 13 15  1  1  0  0  0
 15 16  1  0  0  0  0
M  CHG  1   3  -1
M  END
>  <CHROM.1>
170.14667354,177.58009209,163.55482257,43.35318790,13.67356373,12.58430507
-2.35562153,-0.81203164,2.13835700

>  <Name>
ligand

>  <RI>
0

>  <Rbt.Current_Directory>
/home/itssahil/PROJECTS/Mol_Feturizer/New_Systems/rnas/3B4B

>  <Rbt.Executable>
rbdock ($Id: //depot/dev/client3/rdock/2013.1/src/exe/rbdock.cxx#4 $)

>  <Rbt.Library>
libRbt.so (2013.1, Build901 2013/11/27)

>  <Rbt.Parameter_File>
/export/apps/rDock/src/rDock_2013.1_src/data/scripts/dock_solv.prm

>  <Rbt.Receptor>
prm/pocket_docking_7.prm

>  <SCORE>
-8.82292

>  <SCORE.INTER>
-7.77519

>  <SCORE.INTER.CONST>
1

>  <SCORE.INTER.POLAR>
0

>  <SCORE.INTER.ROT>
3

>  <SCORE.INTER.SOLV>
20.8286

>  <SCORE.INTER.VDW>
-17.7263

>  <SCORE.INTER.norm>
-0.485949

>  <SCORE.INTRA>
-1.04773

>  <SCORE.INTRA.DIHEDRAL>
-1.43321

>  <SCORE.INTRA.DIHEDRAL.0>
2.21864

>  <SCORE.INTRA.POLAR>
0

>  <SCORE.INTRA.POLAR.0>
0

>  <SCORE.INTRA.REPUL>
0

>  <SCORE.INTRA.REPUL.0>
0

>  <SCORE.INTRA.SOLV>
-0.496675

>  <SCORE.INTRA.SOLV.lig_0>
-58.5963

>  <SCORE.INTRA.VDW>
-0.0827925

>  <SCORE.INTRA.VDW.0>
-0.437849

>  <SCORE.INTRA.norm>
-0.0654834

>  <SCORE.RESTR>
0

>  <SCORE.RESTR.CAVITY>
0

>  <SCORE.RESTR.norm>
0

>  <SCORE.SYSTEM>
0

>  <SCORE.SYSTEM.CONST>
0

>  <SCORE.SYSTEM.DIHEDRAL>
0

>  <SCORE.SYSTEM.SOLV>
0

>  <SCORE.SYSTEM.norm>
0

>  <SCORE.heavy>
16

>  <SCORE.norm>
-0.551433

>  <RMSD>
6.220

$$$$
ligand
 OpenBabel11021811463D
libRbt.so/2013.1/901 2013/11/27
 16 16  0  0  0  0  0  0  0  0999 V2000
   41.7063   16.4015   11.5311 P   0  0  2  0  0  0  0  0  0  0  0  0
   40.2554   16.0980   11.5927 O   0  0  0  0  0  0  0  0  0  0  0  0
   42.1604   17.2271   12.8361 O   0  5  0  0  0  0  0  0  0  0  0  0
   42.0053   17.3043   10.2197 O   0  0  0  0  0  0  0  0  0  0  0  0
   45.2646   11.9857   11.8979 C   0  0  2  0  0  0  0  0  0  0  0  0
   44.4883   11.0383   11.1499 O   0  0  0  0  0  0  0  0  0  0  0  0
   45.6134   11.4471   13.3142 C   0  0  2  0  0  0  0  0  0  0  0  0
   46.3535   10.1713   13.1963 N   0  0  0  0  0  0  0  0  0  0  0  0
   44.3002   11.2284   14.0949 C   0  0  1  0  0  0  0  0  0  0  0  0
   44.5843   10.7475   15.4205 O   0  0  0  0  0  0  0  0  0  0  0  0
   43.5664   12.5748   14.1796 C   0  0  2  0  0  0  0  0  0  0  0  0
   42.3309   12.4028   14.8880 O   0  0  0  0  0  0  0  0  0  0  0  0
   43.2800   13.0671   12.7363 C   0  0  2  0  0  0  0  0  0  0  0  0
   44.5279   13.2370   12.0042 O   0  0  0  0  0  0  0  0  0  0  0  0
   42.5551   14.4232   12.7901 C   0  0  0  0  0  0  0  0  0  0  0  0
   42.5210   15.0075   11.4752 O   0  0  0  0  0  0  0  0  0  0  0  0
  1  2  1  1  0  0  0
  1  3  1  0  0  0  0
  1  4  2  0  0  0  0
  1 16  1  0  0  0  0
  5  6  1  1  0  0  0
  5  7  1  0  0  0  0
  5 14  1  0  0  0  0
  7  8  1  6  0  0  0
  7  9  1  0  0  0  0
  9 10  1  1  0  0  0
  9 11  1  0  0  0  0
 11 12  1  1  0  0  0
 11 13  1  0  0  0  0
 13 14  1  0  0  0  0
 13 15  1  1  0  0  0
 15 16  1  0  0  0  0
M  CHG  1   3  -1
M  END
>  <CHROM.1>
168.76539847,177.72577330,-76.88685598,43.29387819,13.67253772,12.60178619
-2.37518499,-0.81613037,2.12937080

>  <Name>
ligand

>  <RI>
0

>  <Rbt.Current_Directory>
/home/itssahil/PROJECTS/Mol_Feturizer/New_Systems/rnas/3B4B

>  <Rbt.Executable>
rbdock ($Id: //depot/dev/client3/rdock/2013.1/src/exe/rbdock.cxx#4 $)

>  <Rbt.Library>
libRbt.so (2013.1, Build901 2013/11/27)

>  <Rbt.Parameter_File>
/export/apps/rDock/src/rDock_2013.1_src/data/scripts/dock_solv.prm

>  <Rbt.Receptor>
prm/pocket_docking_8.prm

>  <SCORE>
-11.304

>  <SCORE.INTER>
-10.2953

>  <SCORE.INTER.CONST>
1

>  <SCORE.INTER.POLAR>
0

>  <SCORE.INTER.ROT>
3

>  <SCORE.INTER.SOLV>
16.5182

>  <SCORE.INTER.VDW>
-17.9696

>  <SCORE.INTER.norm>
-0.643454

>  <SCORE.INTRA>
-1.00877

>  <SCORE.INTRA.DIHEDRAL>
-1.31547

>  <SCORE.INTRA.DIHEDRAL.0>
2.21864

>  <SCORE.INTRA.POLAR>
0

>  <SCORE.INTRA.POLAR.0>
0

>  <SCORE.INTRA.REPUL>
0

>  <SCORE.INTRA.REPUL.0>
0

>  <SCORE.INTRA.SOLV>
-0.961337

>  <SCORE.INTRA.SOLV.lig_0>
-58.5963

>  <SCORE.INTRA.VDW>
0.129634

>  <SCORE.INTRA.VDW.0>
-0.437849

>  <SCORE.INTRA.norm>
-0.0630483

>  <SCORE.RESTR>
0

>  <SCORE.RESTR.CAVITY>
0

>  <SCORE.RESTR.norm>
0

>  <SCORE.SYSTEM>
0

>  <SCORE.SYSTEM.CONST>
0

>  <SCORE.SYSTEM.DIHEDRAL>
0

>  <SCORE.SYSTEM.SOLV>
0

>  <SCORE.SYSTEM.norm>
0

>  <SCORE.heavy>
16

>  <SCORE.norm>
-0.706502

>  <RMSD>
6.220

$$$$
ligand
 OpenBabel11021811463D
libRbt.so/2013.1/901 2013/11/27
 16 16  0  0  0  0  0  0  0  0999 V2000
   41.6463   16.3430   11.5249 P   0  0  2  0  0  0  0  0  0  0  0  0
   40.1959   16.0534   11.6419 O   0  0  0  0  0  0  0  0  0  0  0  0
   42.1516   17.1893   12.7975 O   0  5  0  0  0  0  0  0  0  0  0  0
   41.9073   17.2183   10.1870 O   0  0  0  0  0  0  0  0  0  0  0  0
   45.2914   11.9804   11.9267 C   0  0  2  0  0  0  0  0  0  0  0  0
   44.5246   11.0289   11.1742 O   0  0  0  0  0  0  0  0  0  0  0  0
   45.6332   11.4446   13.3457 C   0  0  2  0  0  0  0  0  0  0  0  0
   46.3802   10.1723   13.2338 N   0  0  0  0  0  0  0  0  0  0  0  0
   44.3158   11.2201   14.1177 C   0  0  1  0  0  0  0  0  0  0  0  0
   44.5933   10.7416   15.4456 O   0  0  0  0  0  0  0  0  0  0  0  0
   43.5751   12.5630   14.1964 C   0  0  2  0  0  0  0  0  0  0  0  0
   42.3356   12.3857   14.8966 O   0  0  0  0  0  0  0  0  0  0  0  0
   43.2960   13.0530   12.7509 C   0  0  2  0  0  0  0  0  0  0  0  0
   44.5480   13.2283   12.0271 O   0  0  0  0  0  0  0  0  0  0  0  0
   42.5643   14.4056   12.7988 C   0  0  0  0  0  0  0  0  0  0  0  0
   42.4474   14.9412   11.4681 O   0  0  0  0  0  0  0  0  0  0  0  0
  1  2  1  1  0  0  0
  1  3  1  0  0  0  0
  1  4  2  0  0  0  0
  1 16  1  0  0  0  0
  5  6  1  1  0  0  0
  5  7  1  0  0  0  0
  5 14  1  0  0  0  0
  7  8  1  6  0  0  0
  7  9  1  0  0  0  0
  9 10  1  1  0  0  0
  9 11  1  0  0  0  0
 11 12  1  1  0  0  0
 11 13  1  0  0  0  0
 13 14  1  0  0  0  0
 13 15  1  1  0  0  0
 15 16  1  0  0  0  0
M  CHG  1   3  -1
M  END
>  <CHROM.1>
173.07328006,178.62042599,-78.95571016,43.28222549,13.64476305,12.61280024
-2.38489829,-0.80176299,2.11794611

>  <Name>
ligand

>  <RI>
0

>  <Rbt.Current_Directory>
/home/itssahil/PROJECTS/Mol_Feturizer/New_Systems/rnas/3B4B

>  <Rbt.Executable>
rbdock ($Id: //depot/dev/client3/rdock/2013.1/src/exe/rbdock.cxx#4 $)

>  <Rbt.Library>
libRbt.so (2013.1, Build901 2013/11/27)

>  <Rbt.Parameter_File>
/export/apps/rDock/src/rDock_2013.1_src/data/scripts/dock_solv.prm

>  <Rbt.Receptor>
prm/pocket_docking_6.prm

>  <SCORE>
-11.2691

>  <SCORE.INTER>
-10.1913

>  <SCORE.INTER.CONST>
1

>  <SCORE.INTER.POLAR>
0

>  <SCORE.INTER.ROT>
3

>  <SCORE.INTER.SOLV>
17.037

>  <SCORE.INTER.VDW>
-18.0732

>  <SCORE.INTER.norm>
-0.636955

>  <SCORE.INTRA>
-1.0778

>  <SCORE.INTRA.DIHEDRAL>
-1.49854

>  <SCORE.INTRA.DIHEDRAL.0>
2.21864

>  <SCORE.INTRA.POLAR>
0

>  <SCORE.INTRA.POLAR.0>
0

>  <SCORE.INTRA.REPUL>
0

>  <SCORE.INTRA.REPUL.0>
0

>  <SCORE.INTRA.SOLV>
-0.949164

>  <SCORE.INTRA.SOLV.lig_0>
-58.5963

>  <SCORE.INTRA.VDW>
0.146046

>  <SCORE.INTRA.VDW.0>
-0.437849

>  <SCORE.INTRA.norm>
-0.0673628

>  <SCORE.RESTR>
0

>  <SCORE.RESTR.CAVITY>
0

>  <SCORE.RESTR.norm>
0

>  <SCORE.SYSTEM>
0

>  <SCORE.SYSTEM.CONST>
0

>  <SCORE.SYSTEM.DIHEDRAL>
0

>  <SCORE.SYSTEM.SOLV>
0

>  <SCORE.SYSTEM.norm>
0

>  <SCORE.heavy>
16

>  <SCORE.norm>
-0.704318

>  <RMSD>
6.229

$$$$
ligand
 OpenBabel11021811463D
libRbt.so/2013.1/901 2013/11/27
 16 16  0  0  0  0  0  0  0  0999 V2000
   41.6449   16.3702   11.5637 P   0  0  2  0  0  0  0  0  0  0  0  0
   40.1950   16.0564   11.5770 O   0  0  0  0  0  0  0  0  0  0  0  0
   42.0571   17.1648   12.9015 O   0  5  0  0  0  0  0  0  0  0  0  0
   41.9740   17.3084   10.2847 O   0  0  0  0  0  0  0  0  0  0  0  0
   45.2888   12.0018   11.9190 C   0  0  2  0  0  0  0  0  0  0  0  0
   44.5239   11.0621   11.1499 O   0  0  0  0  0  0  0  0  0  0  0  0
   45.6244   11.4452   13.3315 C   0  0  2  0  0  0  0  0  0  0  0  0
   46.3704   10.1738   13.2042 N   0  0  0  0  0  0  0  0  0  0  0  0
   44.3038   11.2113   14.0951 C   0  0  1  0  0  0  0  0  0  0  0  0
   44.5755   10.7133   15.4170 O   0  0  0  0  0  0  0  0  0  0  0  0
   43.5642   12.5538   14.1902 C   0  0  2  0  0  0  0  0  0  0  0  0
   42.3219   12.3679   14.8829 O   0  0  0  0  0  0  0  0  0  0  0  0
   43.2914   13.0648   12.7508 C   0  0  2  0  0  0  0  0  0  0  0  0
   44.5464   13.2490   12.0345 O   0  0  0  0  0  0  0  0  0  0  0  0
   42.5611   14.4175   12.8153 C   0  0  0  0  0  0  0  0  0  0  0  0
   42.4704   14.9832   11.4950 O   0  0  0  0  0  0  0  0  0  0  0  0
  1  2  1  1  0  0  0
  1  3  1  0  0  0  0
  1  4  2  0  0  0  0
  1 16  1  0  0  0  0
  5  6  1  1  0  0  0
  5  7  1  0  0  0  0
  5 14  1  0  0  0  0
  7  8  1  6  0  0  0
  7  9  1  0  0  0  0
  9 10  1  1  0  0  0
  9 11  1  0  0  0  0
 11 12  1  6  0  0  0
 11 13  1  0  0  0  0
 13 14  1  0  0  0  0
 13 15  1  1  0  0  0
 15 16  1  0  0  0  0
M  CHG  1   3  -1
M  END
>  <CHROM.1>
172.08828309,177.49642725,-81.32126894,43.27681251,13.65717065,12.62082772
-2.38023703,-0.80000308,2.13552985

>  <Name>
ligand

>  <RI>
0

>  <Rbt.Current_Directory>
/home/itssahil/PROJECTS/Mol_Feturizer/New_Systems/rnas/3B4B

>  <Rbt.Executable>
rbdock ($Id: //depot/dev/client3/rdock/2013.1/src/exe/rbdock.cxx#4 $)

>  <Rbt.Library>
libRbt.so (2013.1, Build901 2013/11/27)

>  <Rbt.Parameter_File>
/export/apps/rDock/src/rDock_2013.1_src/data/scripts/dock_solv.prm

>  <Rbt.Receptor>
prm/pocket_docking_6.prm

>  <SCORE>
-11.2958

>  <SCORE.INTER>
-10.3909

>  <SCORE.INTER.CONST>
1

>  <SCORE.INTER.POLAR>
0

>  <SCORE.INTER.ROT>
3

>  <SCORE.INTER.SOLV>
16.9329

>  <SCORE.INTER.VDW>
-18.1716

>  <SCORE.INTER.norm>
-0.649434

>  <SCORE.INTRA>
-0.904903

>  <SCORE.INTRA.DIHEDRAL>
-1.29678

>  <SCORE.INTRA.DIHEDRAL.0>
2.21864

>  <SCORE.INTRA.POLAR>
0

>  <SCORE.INTRA.POLAR.0>
0

>  <SCORE.INTRA.REPUL>
0

>  <SCORE.INTRA.REPUL.0>
0

>  <SCORE.INTRA.SOLV>
-0.929718

>  <SCORE.INTRA.SOLV.lig_0>
-58.5963

>  <SCORE.INTRA.VDW>
0.208348

>  <SCORE.INTRA.VDW.0>
-0.437849

>  <SCORE.INTRA.norm>
-0.0565564

>  <SCORE.RESTR>
0

>  <SCORE.RESTR.CAVITY>
0

>  <SCORE.RESTR.norm>
0

>  <SCORE.SYSTEM>
0

>  <SCORE.SYSTEM.CONST>
0

>  <SCORE.SYSTEM.DIHEDRAL>
0

>  <SCORE.SYSTEM.SOLV>
0

>  <SCORE.SYSTEM.norm>
0

>  <SCORE.heavy>
16

>  <SCORE.norm>
-0.70599

>  <RMSD>
6.239

$$$$
ligand
 OpenBabel11021811463D
libRbt.so/2013.1/901 2013/11/27
 16 16  0  0  0  0  0  0  0  0999 V2000
   41.6350   16.3707   11.5351 P   0  0  2  0  0  0  0  0  0  0  0  0
   40.1844   16.0623   11.5753 O   0  0  0  0  0  0  0  0  0  0  0  0
   42.0705   17.1827   12.8550 O   0  5  0  0  0  0  0  0  0  0  0  0
   41.9474   17.2895   10.2380 O   0  0  0  0  0  0  0  0  0  0  0  0
   45.2608   11.9930   11.8987 C   0  0  2  0  0  0  0  0  0  0  0  0
   44.4866   11.0454   11.1489 O   0  0  0  0  0  0  0  0  0  0  0  0
   45.6114   11.4523   13.3137 C   0  0  2  0  0  0  0  0  0  0  0  0
   46.3546   10.1786   13.1928 N   0  0  0  0  0  0  0  0  0  0  0  0
   44.2990   11.2287   14.0944 C   0  0  1  0  0  0  0  0  0  0  0  0
   44.5848   10.7457   15.4189 O   0  0  0  0  0  0  0  0  0  0  0  0
   43.5620   12.5731   14.1822 C   0  0  2  0  0  0  0  0  0  0  0  0
   42.3271   12.3966   14.8906 O   0  0  0  0  0  0  0  0  0  0  0  0
   43.2739   13.0678   12.7401 C   0  0  2  0  0  0  0  0  0  0  0  0
   44.5211   13.2423   12.0080 O   0  0  0  0  0  0  0  0  0  0  0  0
   42.5457   14.4220   12.7971 C   0  0  0  0  0  0  0  0  0  0  0  0
   42.4546   14.9798   11.4734 O   0  0  0  0  0  0  0  0  0  0  0  0
  1  2  1  1  0  0  0
  1  3  1  0  0  0  0
  1  4  2  0  0  0  0
  1 16  1  0  0  0  0
  5  6  1  1  0  0  0
  5  7  1  0  0  0  0
  5 14  1  0  0  0  0
  7  8  1  6  0  0  0
  7  9  1  0  0  0  0
  9 10  1  1  0  0  0
  9 11  1  0  0  0  0
 11 12  1  1  0  0  0
 11 13  1  0  0  0  0
 13 14  1  0  0  0  0
 13 15  1  1  0  0  0
 15 16  1  0  0  0  0
M  CHG  1   3  -1
M  END
>  <CHROM.1>
171.43555741,177.65613245,-80.42887384,43.26491423,13.66220776,12.60417267
-2.38927880,-0.80848683,2.11838251

>  <Name>
ligand

>  <RI>
0

>  <Rbt.Current_Directory>
/home/itssahil/PROJECTS/Mol_Feturizer/New_Systems/rnas/3B4B

>  <Rbt.Executable>
rbdock ($Id: //depot/dev/client3/rdock/2013.1/src/exe/rbdock.cxx#4 $)

>  <Rbt.Library>
libRbt.so (2013.1, Build901 2013/11/27)

>  <Rbt.Parameter_File>
/export/apps/rDock/src/rDock_2013.1_src/data/scripts/dock_solv.prm

>  <Rbt.Receptor>
prm/pocket_docking_7.prm

>  <SCORE>
-11.3518

>  <SCORE.INTER>
-10.4178

>  <SCORE.INTER.CONST>
1

>  <SCORE.INTER.POLAR>
0

>  <SCORE.INTER.ROT>
3

>  <SCORE.INTER.SOLV>
16.8896

>  <SCORE.INTER.VDW>
-18.1751

>  <SCORE.INTER.norm>
-0.651114

>  <SCORE.INTRA>
-0.933969

>  <SCORE.INTRA.DIHEDRAL>
-1.31263

>  <SCORE.INTRA.DIHEDRAL.0>
2.21864

>  <SCORE.INTRA.POLAR>
0

>  <SCORE.INTRA.POLAR.0>
0

>  <SCORE.INTRA.REPUL>
0

>  <SCORE.INTRA.REPUL.0>
0

>  <SCORE.INTRA.SOLV>
-0.93534

>  <SCORE.INTRA.SOLV.lig_0>
-58.5963

>  <SCORE.INTRA.VDW>
0.190018

>  <SCORE.INTRA.VDW.0>
-0.437849

>  <SCORE.INTRA.norm>
-0.058373

>  <SCORE.RESTR>
0

>  <SCORE.RESTR.CAVITY>
0

>  <SCORE.RESTR.norm>
0

>  <SCORE.SYSTEM>
0

>  <SCORE.SYSTEM.CONST>
0

>  <SCORE.SYSTEM.DIHEDRAL>
0

>  <SCORE.SYSTEM.SOLV>
0

>  <SCORE.SYSTEM.norm>
0

>  <SCORE.heavy>
16

>  <SCORE.norm>
-0.709487

>  <RMSD>
6.244

$$$$
ligand
 OpenBabel11021811463D
libRbt.so/2013.1/901 2013/11/27
 16 16  0  0  0  0  0  0  0  0999 V2000
   41.6290   16.3740   11.5624 P   0  0  2  0  0  0  0  0  0  0  0  0
   40.1824   16.0452   11.5809 O   0  0  0  0  0  0  0  0  0  0  0  0
   42.0360   17.1800   12.8950 O   0  5  0  0  0  0  0  0  0  0  0  0
   41.9454   17.3086   10.2776 O   0  0  0  0  0  0  0  0  0  0  0  0
   45.2559   11.9964   11.9026 C   0  0  2  0  0  0  0  0  0  0  0  0
   44.4784   11.0506   11.1538 O   0  0  0  0  0  0  0  0  0  0  0  0
   45.6123   11.4524   13.3149 C   0  0  2  0  0  0  0  0  0  0  0  0
   46.3550   10.1790   13.1879 N   0  0  0  0  0  0  0  0  0  0  0  0
   44.3032   11.2270   14.1005 C   0  0  1  0  0  0  0  0  0  0  0  0
   44.5944   10.7409   15.4226 O   0  0  0  0  0  0  0  0  0  0  0  0
   43.5666   12.5712   14.1945 C   0  0  2  0  0  0  0  0  0  0  0  0
   42.3346   12.3931   14.9076 O   0  0  0  0  0  0  0  0  0  0  0  0
   43.2725   13.0693   12.7547 C   0  0  2  0  0  0  0  0  0  0  0  0
   44.5167   13.2455   12.0178 O   0  0  0  0  0  0  0  0  0  0  0  0
   42.5446   14.4234   12.8178 C   0  0  0  0  0  0  0  0  0  0  0  0
   42.4687   14.9952   11.4992 O   0  0  0  0  0  0  0  0  0  0  0  0
  1  2  1  1  0  0  0
  1  3  1  0  0  0  0
  1  4  2  0  0  0  0
  1 16  1  0  0  0  0
  5  6  1  1  0  0  0
  5  7  1  0  0  0  0
  5 14  1  0  0  0  0
  7  8  1  6  0  0  0
  7  9  1  0  0  0  0
  9 10  1  1  0  0  0
  9 11  1  0  0  0  0
 11 12  1  1  0  0  0
 11 13  1  0  0  0  0
 13 14  1  0  0  0  0
 13 15  1  1  0  0  0
 15 16  1  0  0  0  0
M  CHG  1   3  -1
M  END
>  <CHROM.1>
170.43538248,176.75659687,-80.13896468,43.26303765,13.66373656,12.61967620
-2.39425872,-0.81056875,2.11689487

>  <Name>
ligand

>  <RI>
0

>  <Rbt.Current_Directory>
/home/itssahil/PROJECTS/Mol_Feturizer/New_Systems/rnas/3B4B

>  <Rbt.Executable>
rbdock ($Id: //depot/dev/client3/rdock/2013.1/src/exe/rbdock.cxx#4 $)

>  <Rbt.Library>
libRbt.so (2013.1, Build901 2013/11/27)

>  <Rbt.Parameter_File>
/export/apps/rDock/src/rDock_2013.1_src/data/scripts/dock_solv.prm

>  <Rbt.Receptor>
prm/pocket_docking_6.prm

>  <SCORE>
-11.3489

>  <SCORE.INTER>
-10.4479

>  <SCORE.INTER.CONST>
1

>  <SCORE.INTER.POLAR>
0

>  <SCORE.INTER.ROT>
3

>  <SCORE.INTER.SOLV>
16.979

>  <SCORE.INTER.VDW>
-18.2249

>  <SCORE.INTER.norm>
-0.652996

>  <SCORE.INTRA>
-0.900926

>  <SCORE.INTRA.DIHEDRAL>
-1.24075

>  <SCORE.INTRA.DIHEDRAL.0>
2.21864

>  <SCORE.INTRA.POLAR>
0

>  <SCORE.INTRA.POLAR.0>
0

>  <SCORE.INTRA.REPUL>
0

>  <SCORE.INTRA.REPUL.0>
0

>  <SCORE.INTRA.SOLV>
-0.940255

>  <SCORE.INTRA.SOLV.lig_0>
-58.5963

>  <SCORE.INTRA.VDW>
0.189578

>  <SCORE.INTRA.VDW.0>
-0.437849

>  <SCORE.INTRA.norm>
-0.0563079

>  <SCORE.RESTR>
0

>  <SCORE.RESTR.CAVITY>
0

>  <SCORE.RESTR.norm>
0

>  <SCORE.SYSTEM>
0

>  <SCORE.SYSTEM.CONST>
0

>  <SCORE.SYSTEM.DIHEDRAL>
0

>  <SCORE.SYSTEM.SOLV>
0

>  <SCORE.SYSTEM.norm>
0

>  <SCORE.heavy>
16

>  <SCORE.norm>
-0.709304

>  <RMSD>
6.249

$$$$
ligand
 OpenBabel11021811463D
libRbt.so/2013.1/901 2013/11/27
 16 16  0  0  0  0  0  0  0  0999 V2000
   41.6261   16.3934   11.5267 P   0  0  2  0  0  0  0  0  0  0  0  0
   40.1787   16.0778   11.6068 O   0  0  0  0  0  0  0  0  0  0  0  0
   42.0873   17.2339   12.8197 O   0  5  0  0  0  0  0  0  0  0  0  0
   41.9028   17.2878   10.2047 O   0  0  0  0  0  0  0  0  0  0  0  0
   45.2346   12.0159   11.9140 C   0  0  2  0  0  0  0  0  0  0  0  0
   44.4718   11.0631   11.1591 O   0  0  0  0  0  0  0  0  0  0  0  0
   45.5781   11.4780   13.3319 C   0  0  2  0  0  0  0  0  0  0  0  0
   46.3300   10.2089   13.2172 N   0  0  0  0  0  0  0  0  0  0  0  0
   44.2613   11.2467   14.1030 C   0  0  1  0  0  0  0  0  0  0  0  0
   44.5402   10.7661   15.4298 O   0  0  0  0  0  0  0  0  0  0  0  0
   43.5153   12.5865   14.1845 C   0  0  2  0  0  0  0  0  0  0  0  0
   42.2764   12.4027   14.8839 O   0  0  0  0  0  0  0  0  0  0  0  0
   43.2348   13.0787   12.7401 C   0  0  2  0  0  0  0  0  0  0  0  0
   44.4864   13.2606   12.0171 O   0  0  0  0  0  0  0  0  0  0  0  0
   42.4979   14.4284   12.7909 C   0  0  0  0  0  0  0  0  0  0  0  0
   42.4524   15.0061   11.4734 O   0  0  0  0  0  0  0  0  0  0  0  0
  1  2  1  1  0  0  0
  1  3  1  0  0  0  0
  1  4  2  0  0  0  0
  1 16  1  0  0  0  0
  5  6  1  1  0  0  0
  5  7  1  0  0  0  0
  5 14  1  0  0  0  0
  7  8  1  6  0  0  0
  7  9  1  0  0  0  0
  9 10  1  1  0  0  0
  9 11  1  0  0  0  0
 11 12  1  1  0  0  0
 11 13  1  0  0  0  0
 13 14  1  0  0  0  0
 13 15  1  1  0  0  0
 15 16  1  0  0  0  0
M  CHG  1   3  -1
M  END
>  <CHROM.1>
169.52435008,177.76412369,-76.47785815,43.23889085,13.68148155,12.60559592
-2.37627404,-0.80359329,2.12921945

>  <Name>
ligand

>  <RI>
0

>  <Rbt.Current_Directory>
/home/itssahil/PROJECTS/Mol_Feturizer/New_Systems/rnas/3B4B

>  <Rbt.Executable>
rbdock ($Id: //depot/dev/client3/rdock/2013.1/src/exe/rbdock.cxx#4 $)

>  <Rbt.Library>
libRbt.so (2013.1, Build901 2013/11/27)

>  <Rbt.Parameter_File>
/export/apps/rDock/src/rDock_2013.1_src/data/scripts/dock_solv.prm

>  <Rbt.Receptor>
prm/pocket_docking_8.prm

>  <SCORE>
-11.2883

>  <SCORE.INTER>
-10.2249

>  <SCORE.INTER.CONST>
1

>  <SCORE.INTER.POLAR>
0

>  <SCORE.INTER.ROT>
3

>  <SCORE.INTER.SOLV>
16.8614

>  <SCORE.INTER.VDW>
-18.0371

>  <SCORE.INTER.norm>
-0.639058

>  <SCORE.INTRA>
-1.0634

>  <SCORE.INTRA.DIHEDRAL>
-1.39231

>  <SCORE.INTRA.DIHEDRAL.0>
2.21864

>  <SCORE.INTRA.POLAR>
0

>  <SCORE.INTRA.POLAR.0>
0

>  <SCORE.INTRA.REPUL>
0

>  <SCORE.INTRA.REPUL.0>
0

>  <SCORE.INTRA.SOLV>
-0.967614

>  <SCORE.INTRA.SOLV.lig_0>
-58.5963

>  <SCORE.INTRA.VDW>
0.116564

>  <SCORE.INTRA.VDW.0>
-0.437849

>  <SCORE.INTRA.norm>
-0.0664624

>  <SCORE.RESTR>
0

>  <SCORE.RESTR.CAVITY>
0

>  <SCORE.RESTR.norm>
0

>  <SCORE.SYSTEM>
0

>  <SCORE.SYSTEM.CONST>
0

>  <SCORE.SYSTEM.DIHEDRAL>
0

>  <SCORE.SYSTEM.SOLV>
0

>  <SCORE.SYSTEM.norm>
0

>  <SCORE.heavy>
16

>  <SCORE.norm>
-0.70552

>  <RMSD>
6.257

$$$$
ligand
 OpenBabel11021811463D
libRbt.so/2013.1/901 2013/11/27
 16 16  0  0  0  0  0  0  0  0999 V2000
   43.5909   12.3302   13.5055 P   0  0  2  0  0  0  0  0  0  0  0  0
   44.9626   12.0261   13.9819 O   0  0  0  0  0  0  0  0  0  0  0  0
   43.6479   13.2817   12.2084 O   0  5  0  0  0  0  0  0  0  0  0  0
   42.7806   13.1026   14.6764 O   0  0  0  0  0  0  0  0  0  0  0  0
   40.4393    7.6724   13.7549 C   0  0  2  0  0  0  0  0  0  0  0  0
   40.8817    7.0071   12.5627 O   0  0  0  0  0  0  0  0  0  0  0  0
   38.8940    7.8429   13.7741 C   0  0  2  0  0  0  0  0  0  0  0  0
   38.2429    6.5187   13.6658 N   0  0  0  0  0  0  0  0  0  0  0  0
   38.4823    8.7354   12.5841 C   0  0  1  0  0  0  0  0  0  0  0  0
   37.0574    8.9322   12.5802 O   0  0  0  0  0  0  0  0  0  0  0  0
   39.1908   10.0893   12.7366 C   0  0  2  0  0  0  0  0  0  0  0  0
   38.8407   10.9395   11.6355 O   0  0  0  0  0  0  0  0  0  0  0  0
   40.7226    9.8417   12.7424 C   0  0  2  0  0  0  0  0  0  0  0  0
   41.0888    8.9719   13.8520 O   0  0  0  0  0  0  0  0  0  0  0  0
   41.4594   11.1824   12.9069 C   0  0  0  0  0  0  0  0  0  0  0  0
   42.8634   10.9420   13.1134 O   0  0  0  0  0  0  0  0  0  0  0  0
  1  2  1  1  0  0  0
  1  3  1  0  0  0  0
  1  4  2  0  0  0  0
  1 16  1  0  0  0  0
  5  6  1  6  0  0  0
  5  7  1  0  0  0  0
  5 14  1  0  0  0  0
  7  8  1  6  0  0  0
  7  9  1  0  0  0  0
  9 10  1  1  0  0  0
  9 11  1  0  0  0  0
 11 12  1  6  0  0  0
 11 13  1  0  0  0  0
 13 14  1  0  0  0  0
 13 15  1  1  0  0  0
 15 16  1  0  0  0  0
M  CHG  1   3  -1
M  END
>  <CHROM.1>
171.45030933,-171.54190864,168.58360155,41.07690297,10.18841858,13.16323007
-0.67684986,0.29169121,2.90466854

>  <Name>
ligand

>  <RI>
0

>  <Rbt.Current_Directory>
/home/itssahil/PROJECTS/Mol_Feturizer/New_Systems/rnas/3B4B

>  <Rbt.Executable>
rbdock ($Id: //depot/dev/client3/rdock/2013.1/src/exe/rbdock.cxx#4 $)

>  <Rbt.Library>
libRbt.so (2013.1, Build901 2013/11/27)

>  <Rbt.Parameter_File>
/export/apps/rDock/src/rDock_2013.1_src/data/scripts/dock_solv.prm

>  <Rbt.Receptor>
prm/pocket_docking_8.prm

>  <SCORE>
-2.96019

>  <SCORE.INTER>
-2.06986

>  <SCORE.INTER.CONST>
1

>  <SCORE.INTER.POLAR>
0

>  <SCORE.INTER.ROT>
3

>  <SCORE.INTER.SOLV>
26.4718

>  <SCORE.INTER.VDW>
-15.8039

>  <SCORE.INTER.norm>
-0.129366

>  <SCORE.INTRA>
-1.11073

>  <SCORE.INTRA.DIHEDRAL>
-1.40694

>  <SCORE.INTRA.DIHEDRAL.0>
2.21864

>  <SCORE.INTRA.POLAR>
0

>  <SCORE.INTRA.POLAR.0>
0

>  <SCORE.INTRA.REPUL>
0

>  <SCORE.INTRA.REPUL.0>
0

>  <SCORE.INTRA.SOLV>
-0.443645

>  <SCORE.INTRA.SOLV.lig_0>
-58.5963

>  <SCORE.INTRA.VDW>
-0.185432

>  <SCORE.INTRA.VDW.0>
-0.437849

>  <SCORE.INTRA.norm>
-0.0694205

>  <SCORE.RESTR>
0.220401

>  <SCORE.RESTR.CAVITY>
0.220401

>  <SCORE.RESTR.norm>
0.0137751

>  <SCORE.SYSTEM>
0

>  <SCORE.SYSTEM.CONST>
0

>  <SCORE.SYSTEM.DIHEDRAL>
0

>  <SCORE.SYSTEM.SOLV>
0

>  <SCORE.SYSTEM.norm>
0

>  <SCORE.heavy>
16

>  <SCORE.norm>
-0.185012

>  <RMSD>
6.296

$$$$
ligand
 OpenBabel11021811463D
libRbt.so/2013.1/901 2013/11/27
 16 16  0  0  0  0  0  0  0  0999 V2000
   43.7737   11.5454   14.0981 P   0  0  2  0  0  0  0  0  0  0  0  0
   44.6374   11.2771   15.2741 O   0  0  0  0  0  0  0  0  0  0  0  0
   42.2225   11.5254   14.5277 O   0  5  0  0  0  0  0  0  0  0  0  0
   44.0158   10.3920   12.9866 O   0  0  0  0  0  0  0  0  0  0  0  0
   44.5439   16.1575   10.4693 C   0  0  2  0  0  0  0  0  0  0  0  0
   45.2972   16.8629   11.4665 O   0  0  0  0  0  0  0  0  0  0  0  0
   43.2395   16.9167   10.0954 C   0  0  2  0  0  0  0  0  0  0  0  0
   43.5722   18.2736    9.6083 N   0  0  0  0  0  0  0  0  0  0  0  0
   42.3459   17.0078   11.3505 C   0  0  1  0  0  0  0  0  0  0  0  0
   41.1179   17.6886   11.0379 O   0  0  0  0  0  0  0  0  0  0  0  0
   42.0393   15.5788   11.8218 C   0  0  2  0  0  0  0  0  0  0  0  0
   41.2209   15.6282   12.9989 O   0  0  0  0  0  0  0  0  0  0  0  0
   43.3821   14.8719   12.1452 C   0  0  2  0  0  0  0  0  0  0  0  0
   44.2255   14.8236   10.9584 O   0  0  0  0  0  0  0  0  0  0  0  0
   43.1059   13.4310   12.6089 C   0  0  0  0  0  0  0  0  0  0  0  0
   44.1428   13.0047   13.5114 O   0  0  0  0  0  0  0  0  0  0  0  0
  1  2  1  1  0  0  0
  1  3  1  0  0  0  0
  1  4  2  0  0  0  0
  1 16  1  0  0  0  0
  5  6  1  1  0  0  0
  5  7  1  0  0  0  0
  5 14  1  0  0  0  0
  7  8  1  1  0  0  0
  7  9  1  0  0  0  0
  9 10  1  6  0  0  0
  9 11  1  0  0  0  0
 11 12  1  1  0  0  0
 11 13  1  0  0  0  0
 13 14  1  0  0  0  0
 13 15  1  6  0  0  0
 15 16  1  0  0  0  0
M  CHG  1   3  -1
M  END
>  <CHROM.1>
-151.05791750,174.81412347,-165.16015498,43.34396688,14.39751094,12.37523919
-1.45973765,0.31632396,-0.57238610

>  <Name>
ligand

>  <RI>
0

>  <Rbt.Current_Directory>
/home/itssahil/PROJECTS/Mol_Feturizer/New_Systems/rnas/3B4B

>  <Rbt.Executable>
rbdock ($Id: //depot/dev/client3/rdock/2013.1/src/exe/rbdock.cxx#4 $)

>  <Rbt.Library>
libRbt.so (2013.1, Build901 2013/11/27)

>  <Rbt.Parameter_File>
/export/apps/rDock/src/rDock_2013.1_src/data/scripts/dock_solv.prm

>  <Rbt.Receptor>
prm/pocket_docking_8.prm

>  <SCORE>
-7.42149

>  <SCORE.INTER>
-7.3533

>  <SCORE.INTER.CONST>
1

>  <SCORE.INTER.POLAR>
0

>  <SCORE.INTER.ROT>
3

>  <SCORE.INTER.SOLV>
12.0769

>  <SCORE.INTER.VDW>
-14.5279

>  <SCORE.INTER.norm>
-0.459582

>  <SCORE.INTRA>
-0.068186

>  <SCORE.INTRA.DIHEDRAL>
0.758188

>  <SCORE.INTRA.DIHEDRAL.0>
2.21864

>  <SCORE.INTRA.POLAR>
0

>  <SCORE.INTRA.POLAR.0>
0

>  <SCORE.INTRA.REPUL>
0

>  <SCORE.INTRA.REPUL.0>
0

>  <SCORE.INTRA.SOLV>
-0.609547

>  <SCORE.INTRA.SOLV.lig_0>
-58.5963

>  <SCORE.INTRA.VDW>
-0.142507

>  <SCORE.INTRA.VDW.0>
-0.437849

>  <SCORE.INTRA.norm>
-0.00426162

>  <SCORE.RESTR>
0

>  <SCORE.RESTR.CAVITY>
0

>  <SCORE.RESTR.norm>
0

>  <SCORE.SYSTEM>
0

>  <SCORE.SYSTEM.CONST>
0

>  <SCORE.SYSTEM.DIHEDRAL>
0

>  <SCORE.SYSTEM.SOLV>
0

>  <SCORE.SYSTEM.norm>
0

>  <SCORE.heavy>
16

>  <SCORE.norm>
-0.463843

>  <RMSD>
6.405

$$$$
ligand
 OpenBabel11021811463D
libRbt.so/2013.1/901 2013/11/27
 16 16  0  0  0  0  0  0  0  0999 V2000
   43.0665   11.5493   13.7743 P   0  0  2  0  0  0  0  0  0  0  0  0
   43.4951   12.1489   15.0619 O   0  0  0  0  0  0  0  0  0  0  0  0
   41.9937   10.3775   14.0331 O   0  5  0  0  0  0  0  0  0  0  0  0
   44.3562   10.9123   13.0291 O   0  0  0  0  0  0  0  0  0  0  0  0
   41.2477   16.6641   11.9000 C   0  0  2  0  0  0  0  0  0  0  0  0
   40.3595   16.1410   10.9014 O   0  0  0  0  0  0  0  0  0  0  0  0
   42.3002   17.6266   11.2808 C   0  0  2  0  0  0  0  0  0  0  0  0
   41.6142   18.7380   10.5855 N   0  0  0  0  0  0  0  0  0  0  0  0
   43.1675   16.8312   10.2824 C   0  0  1  0  0  0  0  0  0  0  0  0
   44.1682   17.6863    9.7022 O   0  0  0  0  0  0  0  0  0  0  0  0
   43.8468   15.6864   11.0482 C   0  0  2  0  0  0  0  0  0  0  0  0
   44.6508   14.9162   10.1436 O   0  0  0  0  0  0  0  0  0  0  0  0
   42.7424   14.7876   11.6646 C   0  0  2  0  0  0  0  0  0  0  0  0
   41.9138   15.5618   12.5790 O   0  0  0  0  0  0  0  0  0  0  0  0
   43.3952   13.6368   12.4502 C   0  0  0  0  0  0  0  0  0  0  0  0
   42.3846   12.7029   12.8718 O   0  0  0  0  0  0  0  0  0  0  0  0
  1  2  1  1  0  0  0
  1  3  1  0  0  0  0
  1  4  2  0  0  0  0
  1 16  1  0  0  0  0
  5  6  1  6  0  0  0
  5  7  1  0  0  0  0
  5 14  1  0  0  0  0
  7  8  1  6  0  0  0
  7  9  1  0  0  0  0
  9 10  1  1  0  0  0
  9 11  1  0  0  0  0
 11 12  1  6  0  0  0
 11 13  1  0  0  0  0
 13 14  1  0  0  0  0
 13 15  1  1  0  0  0
 15 16  1  0  0  0  0
M  CHG  1   3  -1
M  END
>  <CHROM.1>
-172.34862612,-176.44648446,69.31673205,42.82256503,14.44219454,12.11435930
1.47558820,-0.42574715,2.60498046

>  <Name>
ligand

>  <RI>
0

>  <Rbt.Current_Directory>
/home/itssahil/PROJECTS/Mol_Feturizer/New_Systems/rnas/3B4B

>  <Rbt.Executable>
rbdock ($Id: //depot/dev/client3/rdock/2013.1/src/exe/rbdock.cxx#4 $)

>  <Rbt.Library>
libRbt.so (2013.1, Build901 2013/11/27)

>  <Rbt.Parameter_File>
/export/apps/rDock/src/rDock_2013.1_src/data/scripts/dock_solv.prm

>  <Rbt.Receptor>
prm/pocket_docking_8.prm

>  <SCORE>
-8.87574

>  <SCORE.INTER>
-7.26547

>  <SCORE.INTER.CONST>
1

>  <SCORE.INTER.POLAR>
0

>  <SCORE.INTER.ROT>
3

>  <SCORE.INTER.SOLV>
11.4064

>  <SCORE.INTER.VDW>
-14.2458

>  <SCORE.INTER.norm>
-0.454092

>  <SCORE.INTRA>
-1.61028

>  <SCORE.INTRA.DIHEDRAL>
-1.80333

>  <SCORE.INTRA.DIHEDRAL.0>
2.21864

>  <SCORE.INTRA.POLAR>
0

>  <SCORE.INTRA.POLAR.0>
0

>  <SCORE.INTRA.REPUL>
0

>  <SCORE.INTRA.REPUL.0>
0

>  <SCORE.INTRA.SOLV>
-1.10558

>  <SCORE.INTRA.SOLV.lig_0>
-58.5963

>  <SCORE.INTRA.VDW>
-0.155825

>  <SCORE.INTRA.VDW.0>
-0.437849

>  <SCORE.INTRA.norm>
-0.100642

>  <SCORE.RESTR>
0

>  <SCORE.RESTR.CAVITY>
0

>  <SCORE.RESTR.norm>
0

>  <SCORE.SYSTEM>
0

>  <SCORE.SYSTEM.CONST>
0

>  <SCORE.SYSTEM.DIHEDRAL>
0

>  <SCORE.SYSTEM.SOLV>
0

>  <SCORE.SYSTEM.norm>
0

>  <SCORE.heavy>
16

>  <SCORE.norm>
-0.554734

>  <RMSD>
6.552

$$$$
ligand
 OpenBabel11021811463D
libRbt.so/2013.1/901 2013/11/27
 16 16  0  0  0  0  0  0  0  0999 V2000
   43.3796   11.9185   14.0303 P   0  0  2  0  0  0  0  0  0  0  0  0
   42.8111   12.4867   15.2773 O   0  0  0  0  0  0  0  0  0  0  0  0
   42.2352   11.1618   13.1884 O   0  5  0  0  0  0  0  0  0  0  0  0
   44.5328   10.8467   14.4119 O   0  0  0  0  0  0  0  0  0  0  0  0
   44.6011   15.7232    9.8996 C   0  0  2  0  0  0  0  0  0  0  0  0
   45.7035   16.3301   10.5895 O   0  0  0  0  0  0  0  0  0  0  0  0
   43.5110   16.7695    9.5327 C   0  0  2  0  0  0  0  0  0  0  0  0
   44.1027   17.8363    8.6955 N   0  0  0  0  0  0  0  0  0  0  0  0
   42.9466   17.3705   10.8374 C   0  0  1  0  0  0  0  0  0  0  0  0
   41.9188   18.3314   10.5380 O   0  0  0  0  0  0  0  0  0  0  0  0
   42.3562   16.2254   11.6731 C   0  0  2  0  0  0  0  0  0  0  0  0
   41.8354   16.7494   12.9027 O   0  0  0  0  0  0  0  0  0  0  0  0
   43.4869   15.2063   11.9738 C   0  0  2  0  0  0  0  0  0  0  0  0
   44.0297   14.6737   10.7313 O   0  0  0  0  0  0  0  0  0  0  0  0
   42.9204   14.0391   12.8010 C   0  0  0  0  0  0  0  0  0  0  0  0
   43.9802   13.1270   13.1420 O   0  0  0  0  0  0  0  0  0  0  0  0
  1  2  1  1  0  0  0
  1  3  1  0  0  0  0
  1  4  2  0  0  0  0
  1 16  1  0  0  0  0
  5  6  1  1  0  0  0
  5  7  1  0  0  0  0
  5 14  1  0  0  0  0
  7  8  1  6  0  0  0
  7  9  1  0  0  0  0
  9 10  1  6  0  0  0
  9 11  1  0  0  0  0
 11 12  1  1  0  0  0
 11 13  1  0  0  0  0
 13 14  1  0  0  0  0
 13 15  1  1  0  0  0
 15 16  1  0  0  0  0
M  CHG  1   3  -1
M  END
>  <CHROM.1>
-176.99794077,179.08101462,-61.20727610,43.39503999,14.65120141,12.09970373
-1.58649147,0.63787993,-0.61945708

>  <Name>
ligand

>  <RI>
0

>  <Rbt.Current_Directory>
/home/itssahil/PROJECTS/Mol_Feturizer/New_Systems/rnas/3B4B

>  <Rbt.Executable>
rbdock ($Id: //depot/dev/client3/rdock/2013.1/src/exe/rbdock.cxx#4 $)

>  <Rbt.Library>
libRbt.so (2013.1, Build901 2013/11/27)

>  <Rbt.Parameter_File>
/export/apps/rDock/src/rDock_2013.1_src/data/scripts/dock_solv.prm

>  <Rbt.Receptor>
prm/pocket_docking_7.prm

>  <SCORE>
-7.96761

>  <SCORE.INTER>
-6.24381

>  <SCORE.INTER.CONST>
1

>  <SCORE.INTER.POLAR>
0

>  <SCORE.INTER.ROT>
3

>  <SCORE.INTER.SOLV>
11.6018

>  <SCORE.INTER.VDW>
-13.6298

>  <SCORE.INTER.norm>
-0.390238

>  <SCORE.INTRA>
-1.72379

>  <SCORE.INTRA.DIHEDRAL>
-2.17892

>  <SCORE.INTRA.DIHEDRAL.0>
2.21864

>  <SCORE.INTRA.POLAR>
0

>  <SCORE.INTRA.POLAR.0>
0

>  <SCORE.INTRA.REPUL>
0

>  <SCORE.INTRA.REPUL.0>
0

>  <SCORE.INTRA.SOLV>
-1.15669

>  <SCORE.INTRA.SOLV.lig_0>
-58.5963

>  <SCORE.INTRA.VDW>
-0.0559912

>  <SCORE.INTRA.VDW.0>
-0.437849

>  <SCORE.INTRA.norm>
-0.107737

>  <SCORE.RESTR>
0

>  <SCORE.RESTR.CAVITY>
0

>  <SCORE.RESTR.norm>
0

>  <SCORE.SYSTEM>
0

>  <SCORE.SYSTEM.CONST>
0

>  <SCORE.SYSTEM.DIHEDRAL>
0

>  <SCORE.SYSTEM.SOLV>
0

>  <SCORE.SYSTEM.norm>
0

>  <SCORE.heavy>
16

>  <SCORE.norm>
-0.497975

>  <RMSD>
6.702

$$$$
ligand
 OpenBabel11021811463D
libRbt.so/2013.1/901 2013/11/27
 16 16  0  0  0  0  0  0  0  0999 V2000
   42.9598   11.8132   13.8318 P   0  0  2  0  0  0  0  0  0  0  0  0
   43.4933   12.4121   15.0799 O   0  0  0  0  0  0  0  0  0  0  0  0
   41.8311   10.7182   14.1752 O   0  5  0  0  0  0  0  0  0  0  0  0
   44.1654   11.0792   13.0368 O   0  0  0  0  0  0  0  0  0  0  0  0
   41.2717   16.9021   11.7635 C   0  0  2  0  0  0  0  0  0  0  0  0
   40.3873   16.3637   10.7697 O   0  0  0  0  0  0  0  0  0  0  0  0
   42.3532   17.8211   11.1283 C   0  0  2  0  0  0  0  0  0  0  0  0
   41.7010   18.9220   10.3855 N   0  0  0  0  0  0  0  0  0  0  0  0
   43.2180   16.9744   10.1707 C   0  0  1  0  0  0  0  0  0  0  0  0
   44.2448   17.7885    9.5773 O   0  0  0  0  0  0  0  0  0  0  0  0
   43.8618   15.8427   10.9850 C   0  0  2  0  0  0  0  0  0  0  0  0
   44.6624   15.0257   10.1194 O   0  0  0  0  0  0  0  0  0  0  0  0
   42.7298   14.9883   11.6145 C   0  0  2  0  0  0  0  0  0  0  0  0
   41.9045   15.8101   12.4894 O   0  0  0  0  0  0  0  0  0  0  0  0
   43.3467   13.8518   12.4483 C   0  0  0  0  0  0  0  0  0  0  0  0
   42.3043   12.9882   12.9373 O   0  0  0  0  0  0  0  0  0  0  0  0
  1  2  1  1  0  0  0
  1  3  1  0  0  0  0
  1  4  2  0  0  0  0
  1 16  1  0  0  0  0
  5  6  1  6  0  0  0
  5  7  1  0  0  0  0
  5 14  1  0  0  0  0
  7  8  1  6  0  0  0
  7  9  1  0  0  0  0
  9 10  1  1  0  0  0
  9 11  1  0  0  0  0
 11 12  1  6  0  0  0
 11 13  1  0  0  0  0
 13 14  1  0  0  0  0
 13 15  1  1  0  0  0
 15 16  1  0  0  0  0
M  CHG  1   3  -1
M  END
>  <CHROM.1>
-174.97952398,-179.04864842,68.91035837,42.79743637,14.65533317,12.07496455
1.50296156,-0.42565984,2.58332584

>  <Name>
ligand

>  <RI>
0

>  <Rbt.Current_Directory>
/home/itssahil/PROJECTS/Mol_Feturizer/New_Systems/rnas/3B4B

>  <Rbt.Executable>
rbdock ($Id: //depot/dev/client3/rdock/2013.1/src/exe/rbdock.cxx#4 $)

>  <Rbt.Library>
libRbt.so (2013.1, Build901 2013/11/27)

>  <Rbt.Parameter_File>
/export/apps/rDock/src/rDock_2013.1_src/data/scripts/dock_solv.prm

>  <Rbt.Receptor>
prm/pocket_docking_8.prm

>  <SCORE>
-8.79571

>  <SCORE.INTER>
-7.0979

>  <SCORE.INTER.CONST>
1

>  <SCORE.INTER.POLAR>
0

>  <SCORE.INTER.ROT>
3

>  <SCORE.INTER.SOLV>
11.669

>  <SCORE.INTER.VDW>
-14.2216

>  <SCORE.INTER.norm>
-0.443619

>  <SCORE.INTRA>
-1.69781

>  <SCORE.INTRA.DIHEDRAL>
-1.99152

>  <SCORE.INTRA.DIHEDRAL.0>
2.21864

>  <SCORE.INTRA.POLAR>
0

>  <SCORE.INTRA.POLAR.0>
0

>  <SCORE.INTRA.REPUL>
0

>  <SCORE.INTRA.REPUL.0>
0

>  <SCORE.INTRA.SOLV>
-1.1052

>  <SCORE.INTRA.SOLV.lig_0>
-58.5963

>  <SCORE.INTRA.VDW>
-0.149452

>  <SCORE.INTRA.VDW.0>
-0.437849

>  <SCORE.INTRA.norm>
-0.106113

>  <SCORE.RESTR>
0

>  <SCORE.RESTR.CAVITY>
0

>  <SCORE.RESTR.norm>
0

>  <SCORE.SYSTEM>
0

>  <SCORE.SYSTEM.CONST>
0

>  <SCORE.SYSTEM.DIHEDRAL>
0

>  <SCORE.SYSTEM.SOLV>
0

>  <SCORE.SYSTEM.norm>
0

>  <SCORE.heavy>
16

>  <SCORE.norm>
-0.549732

>  <RMSD>
6.712

$$$$
ligand
 OpenBabel11021811463D
libRbt.so/2013.1/901 2013/11/27
 16 16  0  0  0  0  0  0  0  0999 V2000
   43.3601   11.9886   13.9019 P   0  0  2  0  0  0  0  0  0  0  0  0
   44.0828   11.5320   15.1145 O   0  0  0  0  0  0  0  0  0  0  0  0
   41.9122   11.2902   13.8181 O   0  5  0  0  0  0  0  0  0  0  0  0
   44.2105   11.5717   12.5877 O   0  0  0  0  0  0  0  0  0  0  0  0
   43.9317   17.5587   12.9795 C   0  0  2  0  0  0  0  0  0  0  0  0
   43.1884   18.0287   14.1136 O   0  0  0  0  0  0  0  0  0  0  0  0
   43.3740   18.1405   11.6498 C   0  0  2  0  0  0  0  0  0  0  0  0
   43.4089   19.6189   11.6968 N   0  0  0  0  0  0  0  0  0  0  0  0
   41.9221   17.6497   11.4684 C   0  0  1  0  0  0  0  0  0  0  0  0
   41.3777   18.1531   10.2357 O   0  0  0  0  0  0  0  0  0  0  0  0
   41.9386   16.1144   11.4373 C   0  0  2  0  0  0  0  0  0  0  0  0
   40.5991   15.6243   11.2846 O   0  0  0  0  0  0  0  0  0  0  0  0
   42.5348   15.6046   12.7760 C   0  0  2  0  0  0  0  0  0  0  0  0
   43.8928   16.1037   12.9460 O   0  0  0  0  0  0  0  0  0  0  0  0
   42.5755   14.0666   12.7681 C   0  0  0  0  0  0  0  0  0  0  0  0
   43.1719   13.5908   13.9885 O   0  0  0  0  0  0  0  0  0  0  0  0
  1  2  1  1  0  0  0
  1  3  1  0  0  0  0
  1  4  2  0  0  0  0
  1 16  1  0  0  0  0
  5  6  1  1  0  0  0
  5  7  1  0  0  0  0
  5 14  1  0  0  0  0
  7  8  1  1  0  0  0
  7  9  1  0  0  0  0
  9 10  1  6  0  0  0
  9 11  1  0  0  0  0
 11 12  1  1  0  0  0
 11 13  1  0  0  0  0
 13 14  1  0  0  0  0
 13 15  1  6  0  0  0
 15 16  1  0  0  0  0
M  CHG  1   3  -1
M  END
>  <CHROM.1>
177.96416879,-173.77701095,175.08209123,42.87696883,15.09406734,12.78897462
-1.41382168,-0.75627935,-0.22747709

>  <Name>
ligand

>  <RI>
0

>  <Rbt.Current_Directory>
/home/itssahil/PROJECTS/Mol_Feturizer/New_Systems/rnas/3B4B

>  <Rbt.Executable>
rbdock ($Id: //depot/dev/client3/rdock/2013.1/src/exe/rbdock.cxx#4 $)

>  <Rbt.Library>
libRbt.so (2013.1, Build901 2013/11/27)

>  <Rbt.Parameter_File>
/export/apps/rDock/src/rDock_2013.1_src/data/scripts/dock_solv.prm

>  <Rbt.Receptor>
prm/pocket_docking_8.prm

>  <SCORE>
-9.61473

>  <SCORE.INTER>
-8.13895

>  <SCORE.INTER.CONST>
1

>  <SCORE.INTER.POLAR>
0

>  <SCORE.INTER.ROT>
3

>  <SCORE.INTER.SOLV>
11.8203

>  <SCORE.INTER.VDW>
-14.9661

>  <SCORE.INTER.norm>
-0.508685

>  <SCORE.INTRA>
-1.47578

>  <SCORE.INTRA.DIHEDRAL>
-1.97584

>  <SCORE.INTRA.DIHEDRAL.0>
2.21864

>  <SCORE.INTRA.POLAR>
0

>  <SCORE.INTRA.POLAR.0>
0

>  <SCORE.INTRA.REPUL>
0

>  <SCORE.INTRA.REPUL.0>
0

>  <SCORE.INTRA.SOLV>
-0.4676

>  <SCORE.INTRA.SOLV.lig_0>
-58.5963

>  <SCORE.INTRA.VDW>
-0.254059

>  <SCORE.INTRA.VDW.0>
-0.437849

>  <SCORE.INTRA.norm>
-0.0922363

>  <SCORE.RESTR>
0

>  <SCORE.RESTR.CAVITY>
0

>  <SCORE.RESTR.norm>
0

>  <SCORE.SYSTEM>
0

>  <SCORE.SYSTEM.CONST>
0

>  <SCORE.SYSTEM.DIHEDRAL>
0

>  <SCORE.SYSTEM.SOLV>
0

>  <SCORE.SYSTEM.norm>
0

>  <SCORE.heavy>
16

>  <SCORE.norm>
-0.600921

>  <RMSD>
6.859

$$$$
ligand
 OpenBabel11021811463D
libRbt.so/2013.1/901 2013/11/27
 16 16  0  0  0  0  0  0  0  0999 V2000
   43.1315   11.9421   13.8076 P   0  0  2  0  0  0  0  0  0  0  0  0
   41.7309   11.4700   13.9361 O   0  0  0  0  0  0  0  0  0  0  0  0
   43.7497   11.4798   12.3951 O   0  5  0  0  0  0  0  0  0  0  0  0
   44.0217   11.2954   14.9965 O   0  0  0  0  0  0  0  0  0  0  0  0
   43.9233   17.5506   13.0776 C   0  0  2  0  0  0  0  0  0  0  0  0
   43.1851   17.9814   14.2306 O   0  0  0  0  0  0  0  0  0  0  0  0
   43.3777   18.2000   11.7745 C   0  0  2  0  0  0  0  0  0  0  0  0
   43.4360   19.6741   11.8874 N   0  0  0  0  0  0  0  0  0  0  0  0
   41.9186   17.7409   11.5692 C   0  0  1  0  0  0  0  0  0  0  0  0
   41.3848   18.3075   10.3595 O   0  0  0  0  0  0  0  0  0  0  0  0
   41.9109   16.2085   11.4697 C   0  0  2  0  0  0  0  0  0  0  0  0
   40.5640   15.7471   11.2934 O   0  0  0  0  0  0  0  0  0  0  0  0
   42.4961   15.6301   12.7851 C   0  0  2  0  0  0  0  0  0  0  0  0
   43.8615   16.0993   12.9791 O   0  0  0  0  0  0  0  0  0  0  0  0
   42.5124   14.0934   12.7086 C   0  0  0  0  0  0  0  0  0  0  0  0
   43.1393   13.5557   13.8873 O   0  0  0  0  0  0  0  0  0  0  0  0
  1  2  1  1  0  0  0
  1  3  1  0  0  0  0
  1  4  2  0  0  0  0
  1 16  1  0  0  0  0
  5  6  1  1  0  0  0
  5  7  1  0  0  0  0
  5 14  1  0  0  0  0
  7  8  1  1  0  0  0
  7  9  1  0  0  0  0
  9 10  1  6  0  0  0
  9 11  1  0  0  0  0
 11 12  1  1  0  0  0
 11 13  1  0  0  0  0
 13 14  1  0  0  0  0
 13 15  1  6  0  0  0
 15 16  1  0  0  0  0
M  CHG  1   3  -1
M  END
>  <CHROM.1>
176.04148370,179.15506941,-68.59707940,42.79233933,15.10911132,12.80282460
-1.45402190,-0.77077544,-0.22126679

>  <Name>
ligand

>  <RI>
0

>  <Rbt.Current_Directory>
/home/itssahil/PROJECTS/Mol_Feturizer/New_Systems/rnas/3B4B

>  <Rbt.Executable>
rbdock ($Id: //depot/dev/client3/rdock/2013.1/src/exe/rbdock.cxx#4 $)

>  <Rbt.Library>
libRbt.so (2013.1, Build901 2013/11/27)

>  <Rbt.Parameter_File>
/export/apps/rDock/src/rDock_2013.1_src/data/scripts/dock_solv.prm

>  <Rbt.Receptor>
prm/pocket_docking_8.prm

>  <SCORE>
-8.40555

>  <SCORE.INTER>
-6.83149

>  <SCORE.INTER.CONST>
1

>  <SCORE.INTER.POLAR>
0

>  <SCORE.INTER.ROT>
3

>  <SCORE.INTER.SOLV>
14.2601

>  <SCORE.INTER.VDW>
-14.9077

>  <SCORE.INTER.norm>
-0.426968

>  <SCORE.INTRA>
-1.57406

>  <SCORE.INTRA.DIHEDRAL>
-2.04153

>  <SCORE.INTRA.DIHEDRAL.0>
2.21864

>  <SCORE.INTRA.POLAR>
0

>  <SCORE.INTRA.POLAR.0>
0

>  <SCORE.INTRA.REPUL>
0

>  <SCORE.INTRA.REPUL.0>
0

>  <SCORE.INTRA.SOLV>
-1.05893

>  <SCORE.INTRA.SOLV.lig_0>
-58.5963

>  <SCORE.INTRA.VDW>
-0.0238363

>  <SCORE.INTRA.VDW.0>
-0.437849

>  <SCORE.INTRA.norm>
-0.098379

>  <SCORE.RESTR>
0

>  <SCORE.RESTR.CAVITY>
0

>  <SCORE.RESTR.norm>
0

>  <SCORE.SYSTEM>
0

>  <SCORE.SYSTEM.CONST>
0

>  <SCORE.SYSTEM.DIHEDRAL>
0

>  <SCORE.SYSTEM.SOLV>
0

>  <SCORE.SYSTEM.norm>
0

>  <SCORE.heavy>
16

>  <SCORE.norm>
-0.525347

>  <RMSD>
6.986

$$$$
ligand
 OpenBabel11021811463D
libRbt.so/2013.1/901 2013/11/27
 16 16  0  0  0  0  0  0  0  0999 V2000
   43.0690   12.1968   12.3081 P   0  0  2  0  0  0  0  0  0  0  0  0
   43.4534   11.5901   11.0100 O   0  0  0  0  0  0  0  0  0  0  0  0
   43.2949   13.7901   12.2690 O   0  5  0  0  0  0  0  0  0  0  0  0
   43.9957   11.5733   13.4815 O   0  0  0  0  0  0  0  0  0  0  0  0
   37.6816   10.3912   11.7519 C   0  0  2  0  0  0  0  0  0  0  0  0
   37.1393   11.1246   12.8599 O   0  0  0  0  0  0  0  0  0  0  0  0
   37.4053    8.8669   11.8856 C   0  0  2  0  0  0  0  0  0  0  0  0
   35.9481    8.6289   11.9817 N   0  0  0  0  0  0  0  0  0  0  0  0
   38.1125    8.3478   13.1553 C   0  0  1  0  0  0  0  0  0  0  0  0
   37.8952    6.9335   13.3022 O   0  0  0  0  0  0  0  0  0  0  0  0
   39.6156    8.6277   13.0115 C   0  0  2  0  0  0  0  0  0  0  0  0
   40.3021    8.1699   14.1850 O   0  0  0  0  0  0  0  0  0  0  0  0
   39.8148   10.1580   12.8502 C   0  0  2  0  0  0  0  0  0  0  0  0
   39.1143   10.6358   11.6657 O   0  0  0  0  0  0  0  0  0  0  0  0
   41.3136   10.4674   12.6910 C   0  0  0  0  0  0  0  0  0  0  0  0
   41.5059   11.8891   12.5765 O   0  0  0  0  0  0  0  0  0  0  0  0
  1  2  1  6  0  0  0
  1  3  1  0  0  0  0
  1  4  2  0  0  0  0
  1 16  1  0  0  0  0
  5  6  1  1  0  0  0
  5  7  1  0  0  0  0
  5 14  1  0  0  0  0
  7  8  1  1  0  0  0
  7  9  1  0  0  0  0
  9 10  1  6  0  0  0
  9 11  1  0  0  0  0
 11 12  1  1  0  0  0
 11 13  1  0  0  0  0
 13 14  1  0  0  0  0
 13 15  1  6  0  0  0
 15 16  1  0  0  0  0
M  CHG  1   3  -1
M  END
>  <CHROM.1>
-178.48943147,-176.13508056,63.08994458,40.26969136,10.39555614,12.55189841
0.52891609,-0.20258887,-0.41733320

>  <Name>
ligand

>  <RI>
0

>  <Rbt.Current_Directory>
/home/itssahil/PROJECTS/Mol_Feturizer/New_Systems/rnas/3B4B

>  <Rbt.Executable>
rbdock ($Id: //depot/dev/client3/rdock/2013.1/src/exe/rbdock.cxx#4 $)

>  <Rbt.Library>
libRbt.so (2013.1, Build901 2013/11/27)

>  <Rbt.Parameter_File>
/export/apps/rDock/src/rDock_2013.1_src/data/scripts/dock_solv.prm

>  <Rbt.Receptor>
prm/blind_docking_60.prm

>  <SCORE>
-6.9312

>  <SCORE.INTER>
-5.15818

>  <SCORE.INTER.CONST>
1

>  <SCORE.INTER.POLAR>
0

>  <SCORE.INTER.ROT>
3

>  <SCORE.INTER.SOLV>
19.0335

>  <SCORE.INTER.VDW>
-15.3833

>  <SCORE.INTER.norm>
-0.322386

>  <SCORE.INTRA>
-1.77301

>  <SCORE.INTRA.DIHEDRAL>
-2.11961

>  <SCORE.INTRA.DIHEDRAL.0>
2.21864

>  <SCORE.INTRA.POLAR>
0

>  <SCORE.INTRA.POLAR.0>
0

>  <SCORE.INTRA.REPUL>
0

>  <SCORE.INTRA.REPUL.0>
0

>  <SCORE.INTRA.SOLV>
-1.14846

>  <SCORE.INTRA.SOLV.lig_0>
-58.5963

>  <SCORE.INTRA.VDW>
-0.138977

>  <SCORE.INTRA.VDW.0>
-0.437849

>  <SCORE.INTRA.norm>
-0.110813

>  <SCORE.RESTR>
0

>  <SCORE.RESTR.CAVITY>
0

>  <SCORE.RESTR.norm>
0

>  <SCORE.SYSTEM>
0

>  <SCORE.SYSTEM.CONST>
0

>  <SCORE.SYSTEM.DIHEDRAL>
0

>  <SCORE.SYSTEM.SOLV>
0

>  <SCORE.SYSTEM.norm>
0

>  <SCORE.heavy>
16

>  <SCORE.norm>
-0.4332

>  <RMSD>
7.121

$$$$
ligand
 OpenBabel11021811463D
libRbt.so/2013.1/901 2013/11/27
 16 16  0  0  0  0  0  0  0  0999 V2000
   43.4084   11.0428   13.9160 P   0  0  2  0  0  0  0  0  0  0  0  0
   44.1664   10.5690   15.1000 O   0  0  0  0  0  0  0  0  0  0  0  0
   44.1226   10.5487   12.5607 O   0  5  0  0  0  0  0  0  0  0  0  0
   43.3742   12.6624   13.9199 O   0  0  0  0  0  0  0  0  0  0  0  0
   37.6247   10.4461   11.7447 C   0  0  2  0  0  0  0  0  0  0  0  0
   37.0236   11.1188   12.8608 O   0  0  0  0  0  0  0  0  0  0  0  0
   37.4352    8.9055   11.8367 C   0  0  2  0  0  0  0  0  0  0  0  0
   35.9930    8.5816   11.9021 N   0  0  0  0  0  0  0  0  0  0  0  0
   38.1515    8.3962   13.1053 C   0  0  1  0  0  0  0  0  0  0  0  0
   38.0143    6.9684   13.2141 O   0  0  0  0  0  0  0  0  0  0  0  0
   39.6379    8.7658   12.9940 C   0  0  2  0  0  0  0  0  0  0  0  0
   40.3314    8.3188   14.1675 O   0  0  0  0  0  0  0  0  0  0  0  0
   39.7504   10.3086   12.8732 C   0  0  2  0  0  0  0  0  0  0  0  0
   39.0419   10.7749   11.6889 O   0  0  0  0  0  0  0  0  0  0  0  0
   41.2310   10.7077   12.7472 C   0  0  0  0  0  0  0  0  0  0  0  0
   41.9151   10.4297   13.9826 O   0  0  0  0  0  0  0  0  0  0  0  0
  1  2  1  1  0  0  0
  1  3  1  0  0  0  0
  1  4  2  0  0  0  0
  1 16  1  0  0  0  0
  5  6  1  1  0  0  0
  5  7  1  0  0  0  0
  5 14  1  0  0  0  0
  7  8  1  1  0  0  0
  7  9  1  0  0  0  0
  9 10  1  6  0  0  0
  9 11  1  0  0  0  0
 11 12  1  1  0  0  0
 11 13  1  0  0  0  0
 13 14  1  0  0  0  0
 13 15  1  6  0  0  0
 15 16  1  0  0  0  0
M  CHG  1   3  -1
M  END
>  <CHROM.1>
-67.68342798,-171.95808763,-171.28324945,40.38952408,10.01285589,13.13293254
-0.22745937,0.32723856,2.82398325

>  <Name>
ligand

>  <RI>
0

>  <Rbt.Current_Directory>
/home/itssahil/PROJECTS/Mol_Feturizer/New_Systems/rnas/3B4B

>  <Rbt.Executable>
rbdock ($Id: //depot/dev/client3/rdock/2013.1/src/exe/rbdock.cxx#4 $)

>  <Rbt.Library>
libRbt.so (2013.1, Build901 2013/11/27)

>  <Rbt.Parameter_File>
/export/apps/rDock/src/rDock_2013.1_src/data/scripts/dock_solv.prm

>  <Rbt.Receptor>
prm/blind_docking_60.prm

>  <SCORE>
-10.2809

>  <SCORE.INTER>
-9.36341

>  <SCORE.INTER.CONST>
1

>  <SCORE.INTER.POLAR>
0

>  <SCORE.INTER.ROT>
3

>  <SCORE.INTER.SOLV>
21.5296

>  <SCORE.INTER.VDW>
-19.0188

>  <SCORE.INTER.norm>
-0.585213

>  <SCORE.INTRA>
-0.917446

>  <SCORE.INTRA.DIHEDRAL>
-1.56875

>  <SCORE.INTRA.DIHEDRAL.0>
2.21864

>  <SCORE.INTRA.POLAR>
0

>  <SCORE.INTRA.POLAR.0>
0

>  <SCORE.INTRA.REPUL>
0

>  <SCORE.INTRA.REPUL.0>
0

>  <SCORE.INTRA.SOLV>
-0.117146

>  <SCORE.INTRA.SOLV.lig_0>
-58.5963

>  <SCORE.INTRA.VDW>
-0.0745002

>  <SCORE.INTRA.VDW.0>
-0.437849

>  <SCORE.INTRA.norm>
-0.0573404

>  <SCORE.RESTR>
0

>  <SCORE.RESTR.CAVITY>
0

>  <SCORE.RESTR.norm>
0

>  <SCORE.SYSTEM>
0

>  <SCORE.SYSTEM.CONST>
0

>  <SCORE.SYSTEM.DIHEDRAL>
0

>  <SCORE.SYSTEM.SOLV>
0

>  <SCORE.SYSTEM.norm>
0

>  <SCORE.heavy>
16

>  <SCORE.norm>
-0.642554

>  <RMSD>
7.124

$$$$
ligand
 OpenBabel11021811463D
libRbt.so/2013.1/901 2013/11/27
 16 16  0  0  0  0  0  0  0  0999 V2000
   44.9298   10.5212    9.0088 P   0  0  2  0  0  0  0  0  0  0  0  0
   44.3898    9.2263    8.5266 O   0  0  0  0  0  0  0  0  0  0  0  0
   46.5357   10.4587    9.0981 O   0  5  0  0  0  0  0  0  0  0  0  0
   44.3425   10.8243   10.4879 O   0  0  0  0  0  0  0  0  0  0  0  0
   43.0129   14.9125    5.9112 C   0  0  2  0  0  0  0  0  0  0  0  0
   43.8366   14.6783    4.7595 O   0  0  0  0  0  0  0  0  0  0  0  0
   43.2125   16.3481    6.4739 C   0  0  2  0  0  0  0  0  0  0  0  0
   42.9049   17.3444    5.4242 N   0  0  0  0  0  0  0  0  0  0  0  0
   44.6782   16.4973    6.9338 C   0  0  1  0  0  0  0  0  0  0  0  0
   44.8965   17.8100    7.4800 O   0  0  0  0  0  0  0  0  0  0  0  0
   44.9496   15.4373    8.0113 C   0  0  2  0  0  0  0  0  0  0  0  0
   46.3115   15.5390    8.4505 O   0  0  0  0  0  0  0  0  0  0  0  0
   44.7007   14.0363    7.3927 C   0  0  2  0  0  0  0  0  0  0  0  0
   43.3222   13.9246    6.9350 O   0  0  0  0  0  0  0  0  0  0  0  0
   44.9533   12.9528    8.4555 C   0  0  0  0  0  0  0  0  0  0  0  0
   44.5012   11.6775    7.9650 O   0  0  0  0  0  0  0  0  0  0  0  0
  1  2  1  6  0  0  0
  1  3  1  0  0  0  0
  1  4  2  0  0  0  0
  1 16  1  0  0  0  0
  5  6  1  6  0  0  0
  5  7  1  0  0  0  0
  5 14  1  0  0  0  0
  7  8  1  6  0  0  0
  7  9  1  0  0  0  0
  9 10  1  1  0  0  0
  9 11  1  0  0  0  0
 11 12  1  6  0  0  0
 11 13  1  0  0  0  0
 13 14  1  0  0  0  0
 13 15  1  1  0  0  0
 15 16  1  0  0  0  0
M  CHG  1   3  -1
M  END
>  <CHROM.1>
169.94736917,173.25395436,176.83379436,44.52446066,13.57464863,7.71478592
1.34199174,0.85467799,2.90090683

>  <Name>
ligand

>  <RI>
0

>  <Rbt.Current_Directory>
/home/itssahil/PROJECTS/Mol_Feturizer/New_Systems/rnas/3B4B

>  <Rbt.Executable>
rbdock ($Id: //depot/dev/client3/rdock/2013.1/src/exe/rbdock.cxx#4 $)

>  <Rbt.Library>
libRbt.so (2013.1, Build901 2013/11/27)

>  <Rbt.Parameter_File>
/export/apps/rDock/src/rDock_2013.1_src/data/scripts/dock_solv.prm

>  <Rbt.Receptor>
prm/pocket_docking_8.prm

>  <SCORE>
-8.67791

>  <SCORE.INTER>
-7.43485

>  <SCORE.INTER.CONST>
1

>  <SCORE.INTER.POLAR>
0

>  <SCORE.INTER.ROT>
3

>  <SCORE.INTER.SOLV>
13.9782

>  <SCORE.INTER.VDW>
-15.216

>  <SCORE.INTER.norm>
-0.464678

>  <SCORE.INTRA>
-1.24305

>  <SCORE.INTRA.DIHEDRAL>
-1.62443

>  <SCORE.INTRA.DIHEDRAL.0>
2.21864

>  <SCORE.INTRA.POLAR>
0

>  <SCORE.INTRA.POLAR.0>
0

>  <SCORE.INTRA.REPUL>
0

>  <SCORE.INTRA.REPUL.0>
0

>  <SCORE.INTRA.SOLV>
-0.484725

>  <SCORE.INTRA.SOLV.lig_0>
-58.5963

>  <SCORE.INTRA.VDW>
-0.188474

>  <SCORE.INTRA.VDW.0>
-0.437849

>  <SCORE.INTRA.norm>
-0.0776908

>  <SCORE.RESTR>
0

>  <SCORE.RESTR.CAVITY>
0

>  <SCORE.RESTR.norm>
0

>  <SCORE.SYSTEM>
0

>  <SCORE.SYSTEM.CONST>
0

>  <SCORE.SYSTEM.DIHEDRAL>
0

>  <SCORE.SYSTEM.SOLV>
0

>  <SCORE.SYSTEM.norm>
0

>  <SCORE.heavy>
16

>  <SCORE.norm>
-0.542369

>  <RMSD>
7.329

$$$$
ligand
 OpenBabel11021811463D
libRbt.so/2013.1/901 2013/11/27
 16 16  0  0  0  0  0  0  0  0999 V2000
   53.5282    9.3113    9.6519 P   0  0  2  0  0  0  0  0  0  0  0  0
   54.9938    9.2009    9.8540 O   0  0  0  0  0  0  0  0  0  0  0  0
   52.8950    7.8626    9.3494 O   0  5  0  0  0  0  0  0  0  0  0  0
   53.2377   10.2760    8.3834 O   0  0  0  0  0  0  0  0  0  0  0  0
   52.5837   10.9236   15.0106 C   0  0  2  0  0  0  0  0  0  0  0  0
   51.1943   11.2599   14.8831 O   0  0  0  0  0  0  0  0  0  0  0  0
   53.4109   12.1153   15.5701 C   0  0  2  0  0  0  0  0  0  0  0  0
   52.8702   12.5267   16.8844 N   0  0  0  0  0  0  0  0  0  0  0  0
   53.3238   13.2876   14.5701 C   0  0  1  0  0  0  0  0  0  0  0  0
   54.0952   14.4048   15.0456 O   0  0  0  0  0  0  0  0  0  0  0  0
   53.8848   12.8077   13.2235 C   0  0  2  0  0  0  0  0  0  0  0  0
   53.8041   13.8719   12.2648 O   0  0  0  0  0  0  0  0  0  0  0  0
   53.0357   11.6017   12.7419 C   0  0  2  0  0  0  0  0  0  0  0  0
   53.1033   10.5175   13.7125 O   0  0  0  0  0  0  0  0  0  0  0  0
   53.5840   11.0909   11.3980 C   0  0  0  0  0  0  0  0  0  0  0  0
   52.8670    9.9082   10.9998 O   0  0  0  0  0  0  0  0  0  0  0  0
  1  2  1  1  0  0  0
  1  3  1  0  0  0  0
  1  4  2  0  0  0  0
  1 16  1  0  0  0  0
  5  6  1  6  0  0  0
  5  7  1  0  0  0  0
  5 14  1  0  0  0  0
  7  8  1  1  0  0  0
  7  9  1  0  0  0  0
  9 10  1  1  0  0  0
  9 11  1  0  0  0  0
 11 12  1  6  0  0  0
 11 13  1  0  0  0  0
 13 14  1  0  0  0  0
 13 15  1  6  0  0  0
 15 16  1  0  0  0  0
M  CHG  1   3  -1
M  END
>  <CHROM.1>
175.48465296,-175.41089751,50.10665817,53.29317173,11.13431493,12.42778352
1.44198149,-1.09705360,-2.23777045

>  <Name>
ligand

>  <RI>
0

>  <Rbt.Current_Directory>
/home/itssahil/PROJECTS/Mol_Feturizer/New_Systems/rnas/3B4B

>  <Rbt.Executable>
rbdock ($Id: //depot/dev/client3/rdock/2013.1/src/exe/rbdock.cxx#4 $)

>  <Rbt.Library>
libRbt.so (2013.1, Build901 2013/11/27)

>  <Rbt.Parameter_File>
/export/apps/rDock/src/rDock_2013.1_src/data/scripts/dock_solv.prm

>  <Rbt.Receptor>
prm/pocket_docking_7.prm

>  <SCORE>
-7.71714

>  <SCORE.INTER>
-6.22301

>  <SCORE.INTER.CONST>
1

>  <SCORE.INTER.POLAR>
-0.814595

>  <SCORE.INTER.ROT>
3

>  <SCORE.INTER.SOLV>
18.0267

>  <SCORE.INTER.VDW>
-13.0422

>  <SCORE.INTER.norm>
-0.388938

>  <SCORE.INTRA>
-1.49413

>  <SCORE.INTRA.DIHEDRAL>
-1.88721

>  <SCORE.INTRA.DIHEDRAL.0>
2.21864

>  <SCORE.INTRA.POLAR>
0

>  <SCORE.INTRA.POLAR.0>
0

>  <SCORE.INTRA.REPUL>
0

>  <SCORE.INTRA.REPUL.0>
0

>  <SCORE.INTRA.SOLV>
-1.25414

>  <SCORE.INTRA.SOLV.lig_0>
-58.5963

>  <SCORE.INTRA.VDW>
0.0765466

>  <SCORE.INTRA.VDW.0>
-0.437849

>  <SCORE.INTRA.norm>
-0.093383

>  <SCORE.RESTR>
0

>  <SCORE.RESTR.CAVITY>
0

>  <SCORE.RESTR.norm>
0

>  <SCORE.SYSTEM>
0

>  <SCORE.SYSTEM.CONST>
0

>  <SCORE.SYSTEM.DIHEDRAL>
0

>  <SCORE.SYSTEM.SOLV>
0

>  <SCORE.SYSTEM.norm>
0

>  <SCORE.heavy>
16

>  <SCORE.norm>
-0.482321

>  <RMSD>
7.794

$$$$
ligand
 OpenBabel11021811463D
libRbt.so/2013.1/901 2013/11/27
 16 16  0  0  0  0  0  0  0  0999 V2000
   50.0494   10.2506   18.8841 P   0  0  2  0  0  0  0  0  0  0  0  0
   49.2851   11.2673   19.6479 O   0  0  0  0  0  0  0  0  0  0  0  0
   49.1759    8.9101   18.7087 O   0  5  0  0  0  0  0  0  0  0  0  0
   51.4021    9.8821   19.6957 O   0  0  0  0  0  0  0  0  0  0  0  0
   51.4766   11.0274   13.3175 C   0  0  2  0  0  0  0  0  0  0  0  0
   52.8056   10.6409   12.9377 O   0  0  0  0  0  0  0  0  0  0  0  0
   51.3121   12.5735   13.3274 C   0  0  2  0  0  0  0  0  0  0  0  0
   51.6321   13.1195   11.9900 N   0  0  0  0  0  0  0  0  0  0  0  0
   52.2694   13.1637   14.3844 C   0  0  1  0  0  0  0  0  0  0  0  0
   52.1311   14.5945   14.4364 O   0  0  0  0  0  0  0  0  0  0  0  0
   51.9046   12.5591   15.7481 C   0  0  2  0  0  0  0  0  0  0  0  0
   52.7879   13.0767   16.7529 O   0  0  0  0  0  0  0  0  0  0  0  0
   52.0590   11.0179   15.6567 C   0  0  2  0  0  0  0  0  0  0  0  0
   51.1724   10.4819   14.6326 O   0  0  0  0  0  0  0  0  0  0  0  0
   51.6870   10.3830   17.0079 C   0  0  0  0  0  0  0  0  0  0  0  0
   50.3929   10.8546   17.4256 O   0  0  0  0  0  0  0  0  0  0  0  0
  1  2  1  1  0  0  0
  1  3  1  0  0  0  0
  1  4  2  0  0  0  0
  1 16  1  0  0  0  0
  5  6  1  1  0  0  0
  5  7  1  0  0  0  0
  5 14  1  0  0  0  0
  7  8  1  6  0  0  0
  7  9  1  0  0  0  0
  9 10  1  1  0  0  0
  9 11  1  0  0  0  0
 11 12  1  1  0  0  0
 11 13  1  0  0  0  0
 13 14  1  0  0  0  0
 13 15  1  1  0  0  0
 15 16  1  0  0  0  0
M  CHG  1   3  -1
M  END
>  <CHROM.1>
52.13870718,-176.71704505,144.89302661,51.23741629,11.37560827,16.19279140
2.62007082,1.21100065,0.95838319

>  <Name>
ligand

>  <RI>
0

>  <Rbt.Current_Directory>
/home/itssahil/PROJECTS/Mol_Feturizer/New_Systems/rnas/3B4B

>  <Rbt.Executable>
rbdock ($Id: //depot/dev/client3/rdock/2013.1/src/exe/rbdock.cxx#4 $)

>  <Rbt.Library>
libRbt.so (2013.1, Build901 2013/11/27)

>  <Rbt.Parameter_File>
/export/apps/rDock/src/rDock_2013.1_src/data/scripts/dock_solv.prm

>  <Rbt.Receptor>
prm/pocket_docking_8.prm

>  <SCORE>
-5.88416

>  <SCORE.INTER>
-5.85061

>  <SCORE.INTER.CONST>
1

>  <SCORE.INTER.POLAR>
0

>  <SCORE.INTER.ROT>
3

>  <SCORE.INTER.SOLV>
20.0401

>  <SCORE.INTER.VDW>
-16.1804

>  <SCORE.INTER.norm>
-0.365663

>  <SCORE.INTRA>
-0.129292

>  <SCORE.INTRA.DIHEDRAL>
-0.434004

>  <SCORE.INTRA.DIHEDRAL.0>
2.21864

>  <SCORE.INTRA.POLAR>
0

>  <SCORE.INTRA.POLAR.0>
0

>  <SCORE.INTRA.REPUL>
0

>  <SCORE.INTRA.REPUL.0>
0

>  <SCORE.INTRA.SOLV>
-0.323143

>  <SCORE.INTRA.SOLV.lig_0>
-58.5963

>  <SCORE.INTRA.VDW>
0.249282

>  <SCORE.INTRA.VDW.0>
-0.437849

>  <SCORE.INTRA.norm>
-0.00808073

>  <SCORE.RESTR>
0.0957474

>  <SCORE.RESTR.CAVITY>
0.0957474

>  <SCORE.RESTR.norm>
0.00598421

>  <SCORE.SYSTEM>
0

>  <SCORE.SYSTEM.CONST>
0

>  <SCORE.SYSTEM.DIHEDRAL>
0

>  <SCORE.SYSTEM.SOLV>
0

>  <SCORE.SYSTEM.norm>
0

>  <SCORE.heavy>
16

>  <SCORE.norm>
-0.36776

>  <RMSD>
7.816

$$$$
ligand
 OpenBabel11021811463D
libRbt.so/2013.1/901 2013/11/27
 16 16  0  0  0  0  0  0  0  0999 V2000
   51.5305    7.9041    7.4890 P   0  0  2  0  0  0  0  0  0  0  0  0
   50.4341    7.3572    6.6523 O   0  0  0  0  0  0  0  0  0  0  0  0
   52.9426    7.2746    7.0411 O   0  5  0  0  0  0  0  0  0  0  0  0
   51.2611    7.5157    9.0385 O   0  0  0  0  0  0  0  0  0  0  0  0
   52.1740   13.7218    7.4567 C   0  0  2  0  0  0  0  0  0  0  0  0
   53.1739   14.2407    8.3457 O   0  0  0  0  0  0  0  0  0  0  0  0
   50.7430   13.9064    8.0362 C   0  0  2  0  0  0  0  0  0  0  0  0
   50.4895   15.3407    8.2964 N   0  0  0  0  0  0  0  0  0  0  0  0
   50.6360   13.1020    9.3490 C   0  0  1  0  0  0  0  0  0  0  0  0
   49.3162   13.2331    9.9059 O   0  0  0  0  0  0  0  0  0  0  0  0
   50.9176   11.6269    9.0281 C   0  0  2  0  0  0  0  0  0  0  0  0
   50.8408   10.8519   10.2329 O   0  0  0  0  0  0  0  0  0  0  0  0
   52.3435   11.5211    8.4258 C   0  0  2  0  0  0  0  0  0  0  0  0
   52.4358   12.3117    7.2057 O   0  0  0  0  0  0  0  0  0  0  0  0
   52.6488   10.0527    8.0822 C   0  0  0  0  0  0  0  0  0  0  0  0
   51.5775    9.5068    7.2912 O   0  0  0  0  0  0  0  0  0  0  0  0
  1  2  1  6  0  0  0
  1  3  1  0  0  0  0
  1  4  2  0  0  0  0
  1 16  1  0  0  0  0
  5  6  1  1  0  0  0
  5  7  1  0  0  0  0
  5 14  1  0  0  0  0
  7  8  1  1  0  0  0
  7  9  1  0  0  0  0
  9 10  1  6  0  0  0
  9 11  1  0  0  0  0
 11 12  1  1  0  0  0
 11 13  1  0  0  0  0
 13 14  1  0  0  0  0
 13 15  1  6  0  0  0
 15 16  1  0  0  0  0
M  CHG  1   3  -1
M  END
>  <CHROM.1>
51.08011922,-154.53052104,-179.19749807,51.47494829,10.90429350,8.18556341
1.47989667,-0.69879803,-3.03108552

>  <Name>
ligand

>  <RI>
0

>  <Rbt.Current_Directory>
/home/itssahil/PROJECTS/Mol_Feturizer/New_Systems/rnas/3B4B

>  <Rbt.Executable>
rbdock ($Id: //depot/dev/client3/rdock/2013.1/src/exe/rbdock.cxx#4 $)

>  <Rbt.Library>
libRbt.so (2013.1, Build901 2013/11/27)

>  <Rbt.Parameter_File>
/export/apps/rDock/src/rDock_2013.1_src/data/scripts/dock_solv.prm

>  <Rbt.Receptor>
prm/pocket_docking_7.prm

>  <SCORE>
-7.70035

>  <SCORE.INTER>
-8.13117

>  <SCORE.INTER.CONST>
1

>  <SCORE.INTER.POLAR>
-1.99137

>  <SCORE.INTER.ROT>
3

>  <SCORE.INTER.SOLV>
11.8697

>  <SCORE.INTER.VDW>
-8.33946

>  <SCORE.INTER.norm>
-0.508198

>  <SCORE.INTRA>
0.430823

>  <SCORE.INTRA.DIHEDRAL>
0.818621

>  <SCORE.INTRA.DIHEDRAL.0>
2.21864

>  <SCORE.INTRA.POLAR>
0

>  <SCORE.INTRA.POLAR.0>
0

>  <SCORE.INTRA.REPUL>
0

>  <SCORE.INTRA.REPUL.0>
0

>  <SCORE.INTRA.SOLV>
0.849111

>  <SCORE.INTRA.SOLV.lig_0>
-58.5963

>  <SCORE.INTRA.VDW>
-0.403043

>  <SCORE.INTRA.VDW.0>
-0.437849

>  <SCORE.INTRA.norm>
0.0269264

>  <SCORE.RESTR>
0

>  <SCORE.RESTR.CAVITY>
0

>  <SCORE.RESTR.norm>
0

>  <SCORE.SYSTEM>
0

>  <SCORE.SYSTEM.CONST>
0

>  <SCORE.SYSTEM.DIHEDRAL>
0

>  <SCORE.SYSTEM.SOLV>
0

>  <SCORE.SYSTEM.norm>
0

>  <SCORE.heavy>
16

>  <SCORE.norm>
-0.481272

>  <RMSD>
7.917

$$$$
ligand
 OpenBabel11021811463D
libRbt.so/2013.1/901 2013/11/27
 16 16  0  0  0  0  0  0  0  0999 V2000
   53.7279    9.3483    9.4515 P   0  0  2  0  0  0  0  0  0  0  0  0
   54.3792   10.0268    8.3041 O   0  0  0  0  0  0  0  0  0  0  0  0
   53.8875    7.7519    9.3207 O   0  5  0  0  0  0  0  0  0  0  0  0
   52.1488    9.7100    9.4564 O   0  0  0  0  0  0  0  0  0  0  0  0
   52.7046   10.9963   14.1884 C   0  0  2  0  0  0  0  0  0  0  0  0
   51.3660   11.3223   13.7866 O   0  0  0  0  0  0  0  0  0  0  0  0
   53.3800   12.1790   14.9385 C   0  0  2  0  0  0  0  0  0  0  0  0
   52.5740   12.5456   16.1238 N   0  0  0  0  0  0  0  0  0  0  0  0
   53.4818   13.3796   13.9741 C   0  0  1  0  0  0  0  0  0  0  0  0
   54.1209   14.4898   14.6284 O   0  0  0  0  0  0  0  0  0  0  0  0
   54.3153   12.9457   12.7595 C   0  0  2  0  0  0  0  0  0  0  0  0
   54.4165   14.0371   11.8339 O   0  0  0  0  0  0  0  0  0  0  0  0
   53.6027   11.7461   12.0808 C   0  0  2  0  0  0  0  0  0  0  0  0
   53.4865   10.6343   13.0148 O   0  0  0  0  0  0  0  0  0  0  0  0
   54.4237   11.2812   10.8654 C   0  0  0  0  0  0  0  0  0  0  0  0
   54.4418    9.8429   10.8138 O   0  0  0  0  0  0  0  0  0  0  0  0
  1  2  1  6  0  0  0
  1  3  1  0  0  0  0
  1  4  2  0  0  0  0
  1 16  1  0  0  0  0
  5  6  1  6  0  0  0
  5  7  1  0  0  0  0
  5 14  1  0  0  0  0
  7  8  1  1  0  0  0
  7  9  1  0  0  0  0
  9 10  1  1  0  0  0
  9 11  1  0  0  0  0
 11 12  1  6  0  0  0
 11 13  1  0  0  0  0
 13 14  1  0  0  0  0
 13 15  1  6  0  0  0
 15 16  1  0  0  0  0
M  CHG  1   3  -1
M  END
>  <CHROM.1>
139.01837045,117.58065274,53.75815370,53.54281754,11.20944103,11.95573425
1.44384527,-0.96772475,-2.29756751

>  <Name>
ligand

>  <RI>
0

>  <Rbt.Current_Directory>
/home/itssahil/PROJECTS/Mol_Feturizer/New_Systems/rnas/3B4B

>  <Rbt.Executable>
rbdock ($Id: //depot/dev/client3/rdock/2013.1/src/exe/rbdock.cxx#4 $)

>  <Rbt.Library>
libRbt.so (2013.1, Build901 2013/11/27)

>  <Rbt.Parameter_File>
/export/apps/rDock/src/rDock_2013.1_src/data/scripts/dock_solv.prm

>  <Rbt.Receptor>
prm/blind_docking_60.prm

>  <SCORE>
-4.55436

>  <SCORE.INTER>
-9.13875

>  <SCORE.INTER.CONST>
1

>  <SCORE.INTER.POLAR>
-1.02008

>  <SCORE.INTER.ROT>
3

>  <SCORE.INTER.SOLV>
16.9902

>  <SCORE.INTER.VDW>
-13.9556

>  <SCORE.INTER.norm>
-0.571172

>  <SCORE.INTRA>
4.58439

>  <SCORE.INTRA.DIHEDRAL>
9.08744

>  <SCORE.INTRA.DIHEDRAL.0>
2.21864

>  <SCORE.INTRA.POLAR>
0

>  <SCORE.INTRA.POLAR.0>
0

>  <SCORE.INTRA.REPUL>
0

>  <SCORE.INTRA.REPUL.0>
0

>  <SCORE.INTRA.SOLV>
-0.170757

>  <SCORE.INTRA.SOLV.lig_0>
-58.5963

>  <SCORE.INTRA.VDW>
0.12605

>  <SCORE.INTRA.VDW.0>
-0.437849

>  <SCORE.INTRA.norm>
0.286524

>  <SCORE.RESTR>
0

>  <SCORE.RESTR.CAVITY>
0

>  <SCORE.RESTR.norm>
0

>  <SCORE.SYSTEM>
0

>  <SCORE.SYSTEM.CONST>
0

>  <SCORE.SYSTEM.DIHEDRAL>
0

>  <SCORE.SYSTEM.SOLV>
0

>  <SCORE.SYSTEM.norm>
0

>  <SCORE.heavy>
16

>  <SCORE.norm>
-0.284647

>  <RMSD>
7.982

$$$$
ligand
 OpenBabel11021811463D
libRbt.so/2013.1/901 2013/11/27
 16 16  0  0  0  0  0  0  0  0999 V2000
   53.1729    9.0068    9.0736 P   0  0  2  0  0  0  0  0  0  0  0  0
   54.0553    7.9137    9.5506 O   0  0  0  0  0  0  0  0  0  0  0  0
   51.8755    8.3981    8.3406 O   0  5  0  0  0  0  0  0  0  0  0  0
   53.9852    9.9198    8.0102 O   0  0  0  0  0  0  0  0  0  0  0  0
   53.0831   11.6751   14.2571 C   0  0  2  0  0  0  0  0  0  0  0  0
   51.6683   11.9096   14.2031 O   0  0  0  0  0  0  0  0  0  0  0  0
   53.8789   13.0059   14.3719 C   0  0  2  0  0  0  0  0  0  0  0  0
   53.4453   13.7460   15.5775 N   0  0  0  0  0  0  0  0  0  0  0  0
   53.6127   13.8495   13.1073 C   0  0  1  0  0  0  0  0  0  0  0  0
   54.3497   15.0833   13.1686 O   0  0  0  0  0  0  0  0  0  0  0  0
   54.0679   13.0355   11.8872 C   0  0  2  0  0  0  0  0  0  0  0  0
   53.8195   13.7870   10.6907 O   0  0  0  0  0  0  0  0  0  0  0  0
   53.2592   11.7118   11.8532 C   0  0  2  0  0  0  0  0  0  0  0  0
   53.4971   10.9439   13.0680 O   0  0  0  0  0  0  0  0  0  0  0  0
   53.7041   10.8684   10.6456 C   0  0  0  0  0  0  0  0  0  0  0  0
   52.7012    9.8799   10.3484 O   0  0  0  0  0  0  0  0  0  0  0  0
  1  2  1  1  0  0  0
  1  3  1  0  0  0  0
  1  4  2  0  0  0  0
  1 16  1  0  0  0  0
  5  6  1  6  0  0  0
  5  7  1  0  0  0  0
  5 14  1  0  0  0  0
  7  8  1  1  0  0  0
  7  9  1  0  0  0  0
  9 10  1  1  0  0  0
  9 11  1  0  0  0  0
 11 12  1  6  0  0  0
 11 13  1  0  0  0  0
 13 14  1  0  0  0  0
 13 15  1  6  0  0  0
 15 16  1  0  0  0  0
M  CHG  1   3  -1
M  END
>  <CHROM.1>
-161.41284533,179.61883257,84.87173685,53.35889516,11.31738317,11.49962867
1.70685762,-1.17195530,-2.18227404

>  <Name>
ligand

>  <RI>
0

>  <Rbt.Current_Directory>
/home/itssahil/PROJECTS/Mol_Feturizer/New_Systems/rnas/3B4B

>  <Rbt.Executable>
rbdock ($Id: //depot/dev/client3/rdock/2013.1/src/exe/rbdock.cxx#4 $)

>  <Rbt.Library>
libRbt.so (2013.1, Build901 2013/11/27)

>  <Rbt.Parameter_File>
/export/apps/rDock/src/rDock_2013.1_src/data/scripts/dock_solv.prm

>  <Rbt.Receptor>
prm/pocket_docking_8.prm

>  <SCORE>
-7.93218

>  <SCORE.INTER>
-7.38702

>  <SCORE.INTER.CONST>
1

>  <SCORE.INTER.POLAR>
-0.8952

>  <SCORE.INTER.ROT>
3

>  <SCORE.INTER.SOLV>
17.3378

>  <SCORE.INTER.VDW>
-13.3199

>  <SCORE.INTER.norm>
-0.461688

>  <SCORE.INTRA>
-0.545163

>  <SCORE.INTRA.DIHEDRAL>
-0.173751

>  <SCORE.INTRA.DIHEDRAL.0>
2.21864

>  <SCORE.INTRA.POLAR>
0

>  <SCORE.INTRA.POLAR.0>
0

>  <SCORE.INTRA.REPUL>
0

>  <SCORE.INTRA.REPUL.0>
0

>  <SCORE.INTRA.SOLV>
-0.995728

>  <SCORE.INTRA.SOLV.lig_0>
-58.5963

>  <SCORE.INTRA.VDW>
0.0395767

>  <SCORE.INTRA.VDW.0>
-0.437849

>  <SCORE.INTRA.norm>
-0.0340727

>  <SCORE.RESTR>
0

>  <SCORE.RESTR.CAVITY>
0

>  <SCORE.RESTR.norm>
0

>  <SCORE.SYSTEM>
0

>  <SCORE.SYSTEM.CONST>
0

>  <SCORE.SYSTEM.DIHEDRAL>
0

>  <SCORE.SYSTEM.SOLV>
0

>  <SCORE.SYSTEM.norm>
0

>  <SCORE.heavy>
16

>  <SCORE.norm>
-0.495761

>  <RMSD>
8.028

$$$$
ligand
 OpenBabel11021811463D
libRbt.so/2013.1/901 2013/11/27
 16 16  0  0  0  0  0  0  0  0999 V2000
   49.7683   10.6657   19.2341 P   0  0  2  0  0  0  0  0  0  0  0  0
   49.0492   11.5700   18.3033 O   0  0  0  0  0  0  0  0  0  0  0  0
   49.0390    9.2321   19.2955 O   0  5  0  0  0  0  0  0  0  0  0  0
   49.7579   11.3136   20.7188 O   0  0  0  0  0  0  0  0  0  0  0  0
   53.0230   12.3923   15.4365 C   0  0  2  0  0  0  0  0  0  0  0  0
   52.0210   13.4193   15.4614 O   0  0  0  0  0  0  0  0  0  0  0  0
   53.0772   11.6802   14.0553 C   0  0  2  0  0  0  0  0  0  0  0  0
   53.3468   12.6720   12.9911 N   0  0  0  0  0  0  0  0  0  0  0  0
   51.7206   10.9884   13.8046 C   0  0  1  0  0  0  0  0  0  0  0  0
   51.7394   10.3007   12.5413 O   0  0  0  0  0  0  0  0  0  0  0  0
   51.4830    9.9804   14.9385 C   0  0  2  0  0  0  0  0  0  0  0  0
   50.2198    9.3292   14.7432 O   0  0  0  0  0  0  0  0  0  0  0  0
   51.4734   10.7520   16.2846 C   0  0  2  0  0  0  0  0  0  0  0  0
   52.7491   11.4248   16.4895 O   0  0  0  0  0  0  0  0  0  0  0  0
   51.2495    9.7634   17.4422 C   0  0  0  0  0  0  0  0  0  0  0  0
   51.2789   10.4698   18.6958 O   0  0  0  0  0  0  0  0  0  0  0  0
  1  2  1  6  0  0  0
  1  3  1  0  0  0  0
  1  4  2  0  0  0  0
  1 16  1  0  0  0  0
  5  6  1  6  0  0  0
  5  7  1  0  0  0  0
  5 14  1  0  0  0  0
  7  8  1  6  0  0  0
  7  9  1  0  0  0  0
  9 10  1  6  0  0  0
  9 11  1  0  0  0  0
 11 12  1  6  0  0  0
 11 13  1  0  0  0  0
 13 14  1  0  0  0  0
 13 15  1  1  0  0  0
 15 16  1  0  0  0  0
M  CHG  1   3  -1
M  END
>  <CHROM.1>
178.33134928,102.83609732,-66.10821913,51.15511122,10.96429979,16.55089111
-2.33206849,-0.90008187,-2.04386223

>  <Name>
ligand

>  <RI>
0

>  <Rbt.Current_Directory>
/home/itssahil/PROJECTS/Mol_Feturizer/New_Systems/rnas/3B4B

>  <Rbt.Executable>
rbdock ($Id: //depot/dev/client3/rdock/2013.1/src/exe/rbdock.cxx#4 $)

>  <Rbt.Library>
libRbt.so (2013.1, Build901 2013/11/27)

>  <Rbt.Parameter_File>
/export/apps/rDock/src/rDock_2013.1_src/data/scripts/dock_solv.prm

>  <Rbt.Receptor>
prm/blind_docking_60.prm

>  <SCORE>
-8.80195

>  <SCORE.INTER>
-9.91543

>  <SCORE.INTER.CONST>
1

>  <SCORE.INTER.POLAR>
-0.898048

>  <SCORE.INTER.ROT>
3

>  <SCORE.INTER.SOLV>
22.9662

>  <SCORE.INTER.VDW>
-16.8722

>  <SCORE.INTER.norm>
-0.619714

>  <SCORE.INTRA>
1.11348

>  <SCORE.INTRA.DIHEDRAL>
3.6923

>  <SCORE.INTRA.DIHEDRAL.0>
2.21864

>  <SCORE.INTRA.POLAR>
0

>  <SCORE.INTRA.POLAR.0>
0

>  <SCORE.INTRA.REPUL>
0

>  <SCORE.INTRA.REPUL.0>
0

>  <SCORE.INTRA.SOLV>
-0.662405

>  <SCORE.INTRA.SOLV.lig_0>
-58.5963

>  <SCORE.INTRA.VDW>
-0.401461

>  <SCORE.INTRA.VDW.0>
-0.437849

>  <SCORE.INTRA.norm>
0.0695927

>  <SCORE.RESTR>
0

>  <SCORE.RESTR.CAVITY>
0

>  <SCORE.RESTR.norm>
0

>  <SCORE.SYSTEM>
0

>  <SCORE.SYSTEM.CONST>
0

>  <SCORE.SYSTEM.DIHEDRAL>
0

>  <SCORE.SYSTEM.SOLV>
0

>  <SCORE.SYSTEM.norm>
0

>  <SCORE.heavy>
16

>  <SCORE.norm>
-0.550122

>  <RMSD>
8.054

$$$$
ligand
 OpenBabel11021811463D
libRbt.so/2013.1/901 2013/11/27
 16 16  0  0  0  0  0  0  0  0999 V2000
   53.7138    9.8162    9.4409 P   0  0  2  0  0  0  0  0  0  0  0  0
   55.0909    9.3660    9.7606 O   0  0  0  0  0  0  0  0  0  0  0  0
   52.6747    8.5982    9.6077 O   0  5  0  0  0  0  0  0  0  0  0  0
   53.6652   10.3287    7.9050 O   0  0  0  0  0  0  0  0  0  0  0  0
   53.1175   12.2526   15.1363 C   0  0  2  0  0  0  0  0  0  0  0  0
   51.7083   12.5113   15.0532 O   0  0  0  0  0  0  0  0  0  0  0  0
   53.9499   13.5480   14.9200 C   0  0  2  0  0  0  0  0  0  0  0  0
   53.5648   14.5640   15.9243 N   0  0  0  0  0  0  0  0  0  0  0  0
   53.6751   14.0779   13.4968 C   0  0  1  0  0  0  0  0  0  0  0  0
   54.4449   15.2683   13.2525 O   0  0  0  0  0  0  0  0  0  0  0  0
   54.0795   12.9860   12.4956 C   0  0  2  0  0  0  0  0  0  0  0  0
   53.8217   13.4421   11.1601 O   0  0  0  0  0  0  0  0  0  0  0  0
   53.2363   11.7170   12.7890 C   0  0  2  0  0  0  0  0  0  0  0  0
   53.4836   11.2497   14.1464 O   0  0  0  0  0  0  0  0  0  0  0  0
   53.6300   10.5999   11.8069 C   0  0  0  0  0  0  0  0  0  0  0  0
   53.3104   11.0013   10.4622 O   0  0  0  0  0  0  0  0  0  0  0  0
  1  2  1  1  0  0  0
  1  3  1  0  0  0  0
  1  4  2  0  0  0  0
  1 16  1  0  0  0  0
  5  6  1  6  0  0  0
  5  7  1  0  0  0  0
  5 14  1  0  0  0  0
  7  8  1  1  0  0  0
  7  9  1  0  0  0  0
  9 10  1  6  0  0  0
  9 11  1  0  0  0  0
 11 12  1  6  0  0  0
 11 13  1  0  0  0  0
 13 14  1  0  0  0  0
 13 15  1  6  0  0  0
 15 16  1  0  0  0  0
M  CHG  1   3  -1
M  END
>  <CHROM.1>
-63.44605891,-179.44011330,-48.12697370,53.57862828,11.76410747,12.05400050
1.47242907,-1.17083261,-2.29833732

>  <Name>
ligand

>  <RI>
0

>  <Rbt.Current_Directory>
/home/itssahil/PROJECTS/Mol_Feturizer/New_Systems/rnas/3B4B

>  <Rbt.Executable>
rbdock ($Id: //depot/dev/client3/rdock/2013.1/src/exe/rbdock.cxx#4 $)

>  <Rbt.Library>
libRbt.so (2013.1, Build901 2013/11/27)

>  <Rbt.Parameter_File>
/export/apps/rDock/src/rDock_2013.1_src/data/scripts/dock_solv.prm

>  <Rbt.Receptor>
prm/pocket_docking_8.prm

>  <SCORE>
-11.0693

>  <SCORE.INTER>
-10.0429

>  <SCORE.INTER.CONST>
1

>  <SCORE.INTER.POLAR>
-1.12444

>  <SCORE.INTER.ROT>
3

>  <SCORE.INTER.SOLV>
18.7996

>  <SCORE.INTER.VDW>
-14.8137

>  <SCORE.INTER.norm>
-0.627681

>  <SCORE.INTRA>
-1.02646

>  <SCORE.INTRA.DIHEDRAL>
-1.94649

>  <SCORE.INTRA.DIHEDRAL.0>
2.21864

>  <SCORE.INTRA.POLAR>
0

>  <SCORE.INTRA.POLAR.0>
0

>  <SCORE.INTRA.REPUL>
0

>  <SCORE.INTRA.REPUL.0>
0

>  <SCORE.INTRA.SOLV>
-0.778451

>  <SCORE.INTRA.SOLV.lig_0>
-58.5963

>  <SCORE.INTRA.VDW>
0.336013

>  <SCORE.INTRA.VDW.0>
-0.437849

>  <SCORE.INTRA.norm>
-0.0641537

>  <SCORE.RESTR>
0

>  <SCORE.RESTR.CAVITY>
0

>  <SCORE.RESTR.norm>
0

>  <SCORE.SYSTEM>
0

>  <SCORE.SYSTEM.CONST>
0

>  <SCORE.SYSTEM.DIHEDRAL>
0

>  <SCORE.SYSTEM.SOLV>
0

>  <SCORE.SYSTEM.norm>
0

>  <SCORE.heavy>
16

>  <SCORE.norm>
-0.691834

>  <RMSD>
8.080

$$$$
ligand
 OpenBabel11021811463D
libRbt.so/2013.1/901 2013/11/27
 16 16  0  0  0  0  0  0  0  0999 V2000
   49.9310   10.0315   19.5475 P   0  0  2  0  0  0  0  0  0  0  0  0
   49.0120    8.9840   19.0384 O   0  0  0  0  0  0  0  0  0  0  0  0
   51.2275    9.3574   20.2228 O   0  5  0  0  0  0  0  0  0  0  0  0
   49.1638   10.9118   20.6703 O   0  0  0  0  0  0  0  0  0  0  0  0
   52.9994   12.5592   15.2182 C   0  0  2  0  0  0  0  0  0  0  0  0
   51.9747   13.5381   14.9917 O   0  0  0  0  0  0  0  0  0  0  0  0
   53.2392   11.6809   13.9577 C   0  0  2  0  0  0  0  0  0  0  0  0
   53.6089   12.5406   12.8116 N   0  0  0  0  0  0  0  0  0  0  0  0
   51.9418   10.9065   13.6432 C   0  0  1  0  0  0  0  0  0  0  0  0
   52.1316   10.0659   12.4915 O   0  0  0  0  0  0  0  0  0  0  0  0
   51.5958   10.0410   14.8637 C   0  0  2  0  0  0  0  0  0  0  0  0
   50.3833    9.3178   14.6094 O   0  0  0  0  0  0  0  0  0  0  0  0
   51.4030   10.9757   16.0871 C   0  0  2  0  0  0  0  0  0  0  0  0
   52.6261   11.7221   16.3495 O   0  0  0  0  0  0  0  0  0  0  0  0
   51.0671   10.1330   17.3299 C   0  0  0  0  0  0  0  0  0  0  0  0
   50.3984   10.9530   18.3056 O   0  0  0  0  0  0  0  0  0  0  0  0
  1  2  1  6  0  0  0
  1  3  1  0  0  0  0
  1  4  2  0  0  0  0
  1 16  1  0  0  0  0
  5  6  1  6  0  0  0
  5  7  1  0  0  0  0
  5 14  1  0  0  0  0
  7  8  1  6  0  0  0
  7  9  1  0  0  0  0
  9 10  1  6  0  0  0
  9 11  1  0  0  0  0
 11 12  1  6  0  0  0
 11 13  1  0  0  0  0
 13 14  1  0  0  0  0
 13 15  1  1  0  0  0
 15 16  1  0  0  0  0
M  CHG  1   3  -1
M  END
>  <CHROM.1>
-158.01018968,174.89892056,-59.64079514,51.26773494,10.77852236,16.56179877
-2.38391980,-0.98993678,-2.03536675

>  <Name>
ligand

>  <RI>
0

>  <Rbt.Current_Directory>
/home/itssahil/PROJECTS/Mol_Feturizer/New_Systems/rnas/3B4B

>  <Rbt.Executable>
rbdock ($Id: //depot/dev/client3/rdock/2013.1/src/exe/rbdock.cxx#4 $)

>  <Rbt.Library>
libRbt.so (2013.1, Build901 2013/11/27)

>  <Rbt.Parameter_File>
/export/apps/rDock/src/rDock_2013.1_src/data/scripts/dock_solv.prm

>  <Rbt.Receptor>
prm/blind_docking_100.prm

>  <SCORE>
-12.0709

>  <SCORE.INTER>
-11.1155

>  <SCORE.INTER.CONST>
1

>  <SCORE.INTER.POLAR>
-0.897597

>  <SCORE.INTER.ROT>
3

>  <SCORE.INTER.SOLV>
21.1622

>  <SCORE.INTER.VDW>
-17.0724

>  <SCORE.INTER.norm>
-0.69472

>  <SCORE.INTRA>
-0.955417

>  <SCORE.INTRA.DIHEDRAL>
-0.522965

>  <SCORE.INTRA.DIHEDRAL.0>
2.21864

>  <SCORE.INTRA.POLAR>
0

>  <SCORE.INTRA.POLAR.0>
0

>  <SCORE.INTRA.REPUL>
0

>  <SCORE.INTRA.REPUL.0>
0

>  <SCORE.INTRA.SOLV>
-1.26588

>  <SCORE.INTRA.SOLV.lig_0>
-58.5963

>  <SCORE.INTRA.VDW>
-0.0609968

>  <SCORE.INTRA.VDW.0>
-0.437849

>  <SCORE.INTRA.norm>
-0.0597136

>  <SCORE.RESTR>
0

>  <SCORE.RESTR.CAVITY>
0

>  <SCORE.RESTR.norm>
0

>  <SCORE.SYSTEM>
0

>  <SCORE.SYSTEM.CONST>
0

>  <SCORE.SYSTEM.DIHEDRAL>
0

>  <SCORE.SYSTEM.SOLV>
0

>  <SCORE.SYSTEM.norm>
0

>  <SCORE.heavy>
16

>  <SCORE.norm>
-0.754433

>  <RMSD>
8.227

$$$$
ligand
 OpenBabel11021811463D
libRbt.so/2013.1/901 2013/11/27
 16 16  0  0  0  0  0  0  0  0999 V2000
   50.2526   10.2620   19.6539 P   0  0  2  0  0  0  0  0  0  0  0  0
   49.7364   11.1852   20.6942 O   0  0  0  0  0  0  0  0  0  0  0  0
   49.1364    9.1654   19.2761 O   0  5  0  0  0  0  0  0  0  0  0  0
   51.5583    9.4927   20.2263 O   0  0  0  0  0  0  0  0  0  0  0  0
   52.9956   12.6495   15.1021 C   0  0  2  0  0  0  0  0  0  0  0  0
   51.9368   13.5844   14.8482 O   0  0  0  0  0  0  0  0  0  0  0  0
   53.2508   11.7285   13.8757 C   0  0  2  0  0  0  0  0  0  0  0  0
   53.5799   12.5519   12.6913 N   0  0  0  0  0  0  0  0  0  0  0  0
   51.9763   10.9001   13.6084 C   0  0  1  0  0  0  0  0  0  0  0  0
   52.1816   10.0194   12.4897 O   0  0  0  0  0  0  0  0  0  0  0  0
   51.6720   10.0746   14.8671 C   0  0  2  0  0  0  0  0  0  0  0  0
   50.4813    9.3026   14.6569 O   0  0  0  0  0  0  0  0  0  0  0  0
   51.4614   11.0520   16.0536 C   0  0  2  0  0  0  0  0  0  0  0  0
   52.6620   11.8479   16.2709 O   0  0  0  0  0  0  0  0  0  0  0  0
   51.1667   10.2506   17.3336 C   0  0  0  0  0  0  0  0  0  0  0  0
   50.6166   11.1239   18.3367 O   0  0  0  0  0  0  0  0  0  0  0  0
  1  2  1  1  0  0  0
  1  3  1  0  0  0  0
  1  4  2  0  0  0  0
  1 16  1  0  0  0  0
  5  6  1  6  0  0  0
  5  7  1  0  0  0  0
  5 14  1  0  0  0  0
  7  8  1  6  0  0  0
  7  9  1  0  0  0  0
  9 10  1  6  0  0  0
  9 11  1  0  0  0  0
 11 12  1  6  0  0  0
 11 13  1  0  0  0  0
 13 14  1  0  0  0  0
 13 15  1  1  0  0  0
 15 16  1  0  0  0  0
M  CHG  1   3  -1
M  END
>  <CHROM.1>
-164.34256919,177.62350527,177.85172095,51.40865209,10.88178490,16.56242207
-2.33221155,-1.03644040,-2.03448961

>  <Name>
ligand

>  <RI>
0

>  <Rbt.Current_Directory>
/home/itssahil/PROJECTS/Mol_Feturizer/New_Systems/rnas/3B4B

>  <Rbt.Executable>
rbdock ($Id: //depot/dev/client3/rdock/2013.1/src/exe/rbdock.cxx#4 $)

>  <Rbt.Library>
libRbt.so (2013.1, Build901 2013/11/27)

>  <Rbt.Parameter_File>
/export/apps/rDock/src/rDock_2013.1_src/data/scripts/dock_solv.prm

>  <Rbt.Receptor>
prm/blind_docking_60.prm

>  <SCORE>
-10.9171

>  <SCORE.INTER>
-9.70341

>  <SCORE.INTER.CONST>
1

>  <SCORE.INTER.POLAR>
-0.899489

>  <SCORE.INTER.ROT>
3

>  <SCORE.INTER.SOLV>
22.2683

>  <SCORE.INTER.VDW>
-16.4934

>  <SCORE.INTER.norm>
-0.606463

>  <SCORE.INTRA>
-1.21364

>  <SCORE.INTRA.DIHEDRAL>
-1.34284

>  <SCORE.INTRA.DIHEDRAL.0>
2.21864

>  <SCORE.INTRA.POLAR>
0

>  <SCORE.INTRA.POLAR.0>
0

>  <SCORE.INTRA.REPUL>
0

>  <SCORE.INTRA.REPUL.0>
0

>  <SCORE.INTRA.SOLV>
-0.563995

>  <SCORE.INTRA.SOLV.lig_0>
-58.5963

>  <SCORE.INTRA.VDW>
-0.260226

>  <SCORE.INTRA.VDW.0>
-0.437849

>  <SCORE.INTRA.norm>
-0.0758527

>  <SCORE.RESTR>
0

>  <SCORE.RESTR.CAVITY>
0

>  <SCORE.RESTR.norm>
0

>  <SCORE.SYSTEM>
0

>  <SCORE.SYSTEM.CONST>
0

>  <SCORE.SYSTEM.DIHEDRAL>
0

>  <SCORE.SYSTEM.SOLV>
0

>  <SCORE.SYSTEM.norm>
0

>  <SCORE.heavy>
16

>  <SCORE.norm>
-0.682316

>  <RMSD>
8.248

$$$$
ligand
 OpenBabel11021811463D
libRbt.so/2013.1/901 2013/11/27
 16 16  0  0  0  0  0  0  0  0999 V2000
   49.9555   10.0120   19.5440 P   0  0  2  0  0  0  0  0  0  0  0  0
   49.0370    8.9652   19.0324 O   0  0  0  0  0  0  0  0  0  0  0  0
   51.2461    9.3368   20.2293 O   0  5  0  0  0  0  0  0  0  0  0  0
   49.1835   10.8977   20.6593 O   0  0  0  0  0  0  0  0  0  0  0  0
   53.0688   12.4920   15.2414 C   0  0  2  0  0  0  0  0  0  0  0  0
   52.0740   13.5023   15.0192 O   0  0  0  0  0  0  0  0  0  0  0  0
   53.2946   11.6235   13.9716 C   0  0  2  0  0  0  0  0  0  0  0  0
   53.6984   12.4869   12.8399 N   0  0  0  0  0  0  0  0  0  0  0  0
   51.9787   10.8902   13.6362 C   0  0  1  0  0  0  0  0  0  0  0  0
   52.1548   10.0593   12.4752 O   0  0  0  0  0  0  0  0  0  0  0  0
   51.5980   10.0192   14.8423 C   0  0  2  0  0  0  0  0  0  0  0  0
   50.3678    9.3339   14.5686 O   0  0  0  0  0  0  0  0  0  0  0  0
   51.4209   10.9432   16.0762 C   0  0  2  0  0  0  0  0  0  0  0  0
   52.6622   11.6514   16.3585 O   0  0  0  0  0  0  0  0  0  0  0  0
   51.0507   10.0946   17.3050 C   0  0  0  0  0  0  0  0  0  0  0  0
   50.4329   10.9286   18.3022 O   0  0  0  0  0  0  0  0  0  0  0  0
  1  2  1  6  0  0  0
  1  3  1  0  0  0  0
  1  4  2  0  0  0  0
  1 16  1  0  0  0  0
  5  6  1  6  0  0  0
  5  7  1  0  0  0  0
  5 14  1  0  0  0  0
  7  8  1  6  0  0  0
  7  9  1  0  0  0  0
  9 10  1  6  0  0  0
  9 11  1  0  0  0  0
 11 12  1  6  0  0  0
 11 13  1  0  0  0  0
 13 14  1  0  0  0  0
 13 15  1  1  0  0  0
 15 16  1  0  0  0  0
M  CHG  1   3  -1
M  END
>  <CHROM.1>
-159.71868184,176.10117605,-57.00905290,51.29948984,10.74982930,16.55925067
-2.35678586,-0.96536873,-2.00374445

>  <Name>
ligand

>  <RI>
0

>  <Rbt.Current_Directory>
/home/itssahil/PROJECTS/Mol_Feturizer/New_Systems/rnas/3B4B

>  <Rbt.Executable>
rbdock ($Id: //depot/dev/client3/rdock/2013.1/src/exe/rbdock.cxx#4 $)

>  <Rbt.Library>
libRbt.so (2013.1, Build901 2013/11/27)

>  <Rbt.Parameter_File>
/export/apps/rDock/src/rDock_2013.1_src/data/scripts/dock_solv.prm

>  <Rbt.Receptor>
prm/blind_docking_80.prm

>  <SCORE>
-12.1006

>  <SCORE.INTER>
-11.0399

>  <SCORE.INTER.CONST>
1

>  <SCORE.INTER.POLAR>
-0.898673

>  <SCORE.INTER.ROT>
3

>  <SCORE.INTER.SOLV>
21.4913

>  <SCORE.INTER.VDW>
-17.1281

>  <SCORE.INTER.norm>
-0.689991

>  <SCORE.INTRA>
-1.06079

>  <SCORE.INTRA.DIHEDRAL>
-0.771813

>  <SCORE.INTRA.DIHEDRAL.0>
2.21864

>  <SCORE.INTRA.POLAR>
0

>  <SCORE.INTRA.POLAR.0>
0

>  <SCORE.INTRA.REPUL>
0

>  <SCORE.INTRA.REPUL.0>
0

>  <SCORE.INTRA.SOLV>
-1.2778

>  <SCORE.INTRA.SOLV.lig_0>
-58.5963

>  <SCORE.INTRA.VDW>
-0.0359793

>  <SCORE.INTRA.VDW.0>
-0.437849

>  <SCORE.INTRA.norm>
-0.0662992

>  <SCORE.RESTR>
0

>  <SCORE.RESTR.CAVITY>
0

>  <SCORE.RESTR.norm>
0

>  <SCORE.SYSTEM>
0

>  <SCORE.SYSTEM.CONST>
0

>  <SCORE.SYSTEM.DIHEDRAL>
0

>  <SCORE.SYSTEM.SOLV>
0

>  <SCORE.SYSTEM.norm>
0

>  <SCORE.heavy>
16

>  <SCORE.norm>
-0.75629

>  <RMSD>
8.248

$$$$
ligand
 OpenBabel11021811463D
libRbt.so/2013.1/901 2013/11/27
 16 16  0  0  0  0  0  0  0  0999 V2000
   50.2765   10.1388   19.6109 P   0  0  2  0  0  0  0  0  0  0  0  0
   49.7723   11.0383   20.6775 O   0  0  0  0  0  0  0  0  0  0  0  0
   49.1387    9.0822   19.1867 O   0  5  0  0  0  0  0  0  0  0  0  0
   51.5586    9.3202   20.1680 O   0  0  0  0  0  0  0  0  0  0  0  0
   53.1236   12.5433   15.1702 C   0  0  2  0  0  0  0  0  0  0  0  0
   52.1408   13.5681   14.9614 O   0  0  0  0  0  0  0  0  0  0  0  0
   53.3212   11.6733   13.8967 C   0  0  2  0  0  0  0  0  0  0  0  0
   53.7234   12.5322   12.7611 N   0  0  0  0  0  0  0  0  0  0  0  0
   51.9908   10.9595   13.5769 C   0  0  1  0  0  0  0  0  0  0  0  0
   52.1404   10.1276   12.4129 O   0  0  0  0  0  0  0  0  0  0  0  0
   51.6124   10.0926   14.7867 C   0  0  2  0  0  0  0  0  0  0  0  0
   50.3691    9.4254   14.5273 O   0  0  0  0  0  0  0  0  0  0  0  0
   51.4639   11.0174   16.0236 C   0  0  2  0  0  0  0  0  0  0  0  0
   52.7187   11.7072   16.2913 O   0  0  0  0  0  0  0  0  0  0  0  0
   51.0967   10.1726   17.2560 C   0  0  0  0  0  0  0  0  0  0  0  0
   50.6727   11.0358   18.3269 O   0  0  0  0  0  0  0  0  0  0  0  0
  1  2  1  1  0  0  0
  1  3  1  0  0  0  0
  1  4  2  0  0  0  0
  1 16  1  0  0  0  0
  5  6  1  6  0  0  0
  5  7  1  0  0  0  0
  5 14  1  0  0  0  0
  7  8  1  6  0  0  0
  7  9  1  0  0  0  0
  9 10  1  6  0  0  0
  9 11  1  0  0  0  0
 11 12  1  6  0  0  0
 11 13  1  0  0  0  0
 13 14  1  0  0  0  0
 13 15  1  1  0  0  0
 15 16  1  0  0  0  0
M  CHG  1   3  -1
M  END
>  <CHROM.1>
-167.45193083,179.48027324,-176.94046984,51.43653772,10.82864681,16.53829280
-2.25588263,-0.97174032,-1.91988900

>  <Name>
ligand

>  <RI>
0

>  <Rbt.Current_Directory>
/home/itssahil/PROJECTS/Mol_Feturizer/New_Systems/rnas/3B4B

>  <Rbt.Executable>
rbdock ($Id: //depot/dev/client3/rdock/2013.1/src/exe/rbdock.cxx#4 $)

>  <Rbt.Library>
libRbt.so (2013.1, Build901 2013/11/27)

>  <Rbt.Parameter_File>
/export/apps/rDock/src/rDock_2013.1_src/data/scripts/dock_solv.prm

>  <Rbt.Receptor>
prm/blind_docking_60.prm

>  <SCORE>
-11.0632

>  <SCORE.INTER>
-9.72652

>  <SCORE.INTER.CONST>
1

>  <SCORE.INTER.POLAR>
-0.899988

>  <SCORE.INTER.ROT>
3

>  <SCORE.INTER.SOLV>
22.9408

>  <SCORE.INTER.VDW>
-16.7313

>  <SCORE.INTER.norm>
-0.607908

>  <SCORE.INTRA>
-1.33663

>  <SCORE.INTRA.DIHEDRAL>
-1.64934

>  <SCORE.INTRA.DIHEDRAL.0>
2.21864

>  <SCORE.INTRA.POLAR>
0

>  <SCORE.INTRA.POLAR.0>
0

>  <SCORE.INTRA.REPUL>
0

>  <SCORE.INTRA.REPUL.0>
0

>  <SCORE.INTRA.SOLV>
-0.546684

>  <SCORE.INTRA.SOLV.lig_0>
-58.5963

>  <SCORE.INTRA.VDW>
-0.238625

>  <SCORE.INTRA.VDW.0>
-0.437849

>  <SCORE.INTRA.norm>
-0.0835397

>  <SCORE.RESTR>
0

>  <SCORE.RESTR.CAVITY>
0

>  <SCORE.RESTR.norm>
0

>  <SCORE.SYSTEM>
0

>  <SCORE.SYSTEM.CONST>
0

>  <SCORE.SYSTEM.DIHEDRAL>
0

>  <SCORE.SYSTEM.SOLV>
0

>  <SCORE.SYSTEM.norm>
0

>  <SCORE.heavy>
16

>  <SCORE.norm>
-0.691447

>  <RMSD>
8.256

$$$$
ligand
 OpenBabel11021811463D
libRbt.so/2013.1/901 2013/11/27
 16 16  0  0  0  0  0  0  0  0999 V2000
   49.9912   10.0318   19.5922 P   0  0  2  0  0  0  0  0  0  0  0  0
   49.0191    9.0180   19.1143 O   0  0  0  0  0  0  0  0  0  0  0  0
   51.2896    9.3116   20.2139 O   0  5  0  0  0  0  0  0  0  0  0  0
   49.2972   10.9305   20.7475 O   0  0  0  0  0  0  0  0  0  0  0  0
   53.2109   12.4111   15.2972 C   0  0  2  0  0  0  0  0  0  0  0  0
   52.2921   13.5010   15.1311 O   0  0  0  0  0  0  0  0  0  0  0  0
   53.3384   11.5680   13.9970 C   0  0  2  0  0  0  0  0  0  0  0  0
   53.7803   12.4330   12.8809 N   0  0  0  0  0  0  0  0  0  0  0  0
   51.9621   10.9483   13.6751 C   0  0  1  0  0  0  0  0  0  0  0  0
   52.0455   10.1431   12.4860 O   0  0  0  0  0  0  0  0  0  0  0  0
   51.5444   10.0718   14.8648 C   0  0  2  0  0  0  0  0  0  0  0  0
   50.2587    9.4914   14.6037 O   0  0  0  0  0  0  0  0  0  0  0  0
   51.4689   10.9676   16.1295 C   0  0  2  0  0  0  0  0  0  0  0  0
   52.7677   11.5696   16.3996 O   0  0  0  0  0  0  0  0  0  0  0  0
   51.0640   10.1117   17.3423 C   0  0  0  0  0  0  0  0  0  0  0  0
   50.4408   10.9444   18.3372 O   0  0  0  0  0  0  0  0  0  0  0  0
  1  2  1  6  0  0  0
  1  3  1  0  0  0  0
  1  4  2  0  0  0  0
  1 16  1  0  0  0  0
  5  6  1  6  0  0  0
  5  7  1  0  0  0  0
  5 14  1  0  0  0  0
  7  8  1  6  0  0  0
  7  9  1  0  0  0  0
  9 10  1  6  0  0  0
  9 11  1  0  0  0  0
 11 12  1  6  0  0  0
 11 13  1  0  0  0  0
 13 14  1  0  0  0  0
 13 15  1  1  0  0  0
 15 16  1  0  0  0  0
M  CHG  1   3  -1
M  END
>  <CHROM.1>
-155.24986801,178.80352776,-60.58081678,51.33365505,10.76502912,16.60430706
-2.27626963,-0.90081195,-1.90574926

>  <Name>
ligand

>  <RI>
0

>  <Rbt.Current_Directory>
/home/itssahil/PROJECTS/Mol_Feturizer/New_Systems/rnas/3B4B

>  <Rbt.Executable>
rbdock ($Id: //depot/dev/client3/rdock/2013.1/src/exe/rbdock.cxx#4 $)

>  <Rbt.Library>
libRbt.so (2013.1, Build901 2013/11/27)

>  <Rbt.Parameter_File>
/export/apps/rDock/src/rDock_2013.1_src/data/scripts/dock_solv.prm

>  <Rbt.Receptor>
prm/blind_docking_100.prm

>  <SCORE>
-12.0676

>  <SCORE.INTER>
-11.2397

>  <SCORE.INTER.CONST>
1

>  <SCORE.INTER.POLAR>
-0.899594

>  <SCORE.INTER.ROT>
3

>  <SCORE.INTER.SOLV>
21.5198

>  <SCORE.INTER.VDW>
-17.2677

>  <SCORE.INTER.norm>
-0.702479

>  <SCORE.INTRA>
-0.827947

>  <SCORE.INTRA.DIHEDRAL>
-0.284921

>  <SCORE.INTRA.DIHEDRAL.0>
2.21864

>  <SCORE.INTRA.POLAR>
0

>  <SCORE.INTRA.POLAR.0>
0

>  <SCORE.INTRA.REPUL>
0

>  <SCORE.INTRA.REPUL.0>
0

>  <SCORE.INTRA.SOLV>
-1.23623

>  <SCORE.INTRA.SOLV.lig_0>
-58.5963

>  <SCORE.INTRA.VDW>
-0.0673725

>  <SCORE.INTRA.VDW.0>
-0.437849

>  <SCORE.INTRA.norm>
-0.0517467

>  <SCORE.RESTR>
0

>  <SCORE.RESTR.CAVITY>
0

>  <SCORE.RESTR.norm>
0

>  <SCORE.SYSTEM>
0

>  <SCORE.SYSTEM.CONST>
0

>  <SCORE.SYSTEM.DIHEDRAL>
0

>  <SCORE.SYSTEM.SOLV>
0

>  <SCORE.SYSTEM.norm>
0

>  <SCORE.heavy>
16

>  <SCORE.norm>
-0.754225

>  <RMSD>
8.286

$$$$
ligand
 OpenBabel11021811463D
libRbt.so/2013.1/901 2013/11/27
 16 16  0  0  0  0  0  0  0  0999 V2000
   49.9476    9.8666   19.4914 P   0  0  2  0  0  0  0  0  0  0  0  0
   48.7792    8.9620   19.6245 O   0  0  0  0  0  0  0  0  0  0  0  0
   51.2516    9.1966   20.1561 O   0  5  0  0  0  0  0  0  0  0  0  0
   49.6335   11.2573   20.2606 O   0  0  0  0  0  0  0  0  0  0  0  0
   53.1261   12.7261   15.0639 C   0  0  2  0  0  0  0  0  0  0  0  0
   52.0831   13.6970   14.8929 O   0  0  0  0  0  0  0  0  0  0  0  0
   53.1459   11.6976   13.8979 C   0  0  2  0  0  0  0  0  0  0  0  0
   53.3225   12.4042   12.6101 N   0  0  0  0  0  0  0  0  0  0  0  0
   51.8100   10.9249   13.9003 C   0  0  1  0  0  0  0  0  0  0  0  0
   51.7990    9.9479   12.8445 O   0  0  0  0  0  0  0  0  0  0  0  0
   51.6693   10.2206   15.2577 C   0  0  2  0  0  0  0  0  0  0  0  0
   50.4274    9.5038   15.2987 O   0  0  0  0  0  0  0  0  0  0  0  0
   51.6898   11.2995   16.3727 C   0  0  2  0  0  0  0  0  0  0  0  0
   52.9436   12.0401   16.3351 O   0  0  0  0  0  0  0  0  0  0  0  0
   51.5630   10.6204   17.7475 C   0  0  0  0  0  0  0  0  0  0  0  0
   50.2243   10.1209   17.9202 O   0  0  0  0  0  0  0  0  0  0  0  0
  1  2  1  1  0  0  0
  1  3  1  0  0  0  0
  1  4  2  0  0  0  0
  1 16  1  0  0  0  0
  5  6  1  6  0  0  0
  5  7  1  0  0  0  0
  5 14  1  0  0  0  0
  7  8  1  6  0  0  0
  7  9  1  0  0  0  0
  9 10  1  6  0  0  0
  9 11  1  0  0  0  0
 11 12  1  6  0  0  0
 11 13  1  0  0  0  0
 13 14  1  0  0  0  0
 13 15  1  1  0  0  0
 15 16  1  0  0  0  0
M  CHG  1   3  -1
M  END
>  <CHROM.1>
-71.61052956,-161.20831433,-161.74367137,51.30922547,10.80632914,16.64574722
-2.39337077,-0.99640391,-1.97852578

>  <Name>
ligand

>  <RI>
0

>  <Rbt.Current_Directory>
/home/itssahil/PROJECTS/Mol_Feturizer/New_Systems/rnas/3B4B

>  <Rbt.Executable>
rbdock ($Id: //depot/dev/client3/rdock/2013.1/src/exe/rbdock.cxx#4 $)

>  <Rbt.Library>
libRbt.so (2013.1, Build901 2013/11/27)

>  <Rbt.Parameter_File>
/export/apps/rDock/src/rDock_2013.1_src/data/scripts/dock_solv.prm

>  <Rbt.Receptor>
prm/blind_docking_100.prm

>  <SCORE>
-12.0049

>  <SCORE.INTER>
-12.166

>  <SCORE.INTER.CONST>
1

>  <SCORE.INTER.POLAR>
-0.893707

>  <SCORE.INTER.ROT>
3

>  <SCORE.INTER.SOLV>
20.0993

>  <SCORE.INTER.VDW>
-17.4314

>  <SCORE.INTER.norm>
-0.760376

>  <SCORE.INTRA>
0.161078

>  <SCORE.INTRA.DIHEDRAL>
0.371938

>  <SCORE.INTRA.DIHEDRAL.0>
2.21864

>  <SCORE.INTRA.POLAR>
0

>  <SCORE.INTRA.POLAR.0>
0

>  <SCORE.INTRA.REPUL>
0

>  <SCORE.INTRA.REPUL.0>
0

>  <SCORE.INTRA.SOLV>
-0.193407

>  <SCORE.INTRA.SOLV.lig_0>
-58.5963

>  <SCORE.INTRA.VDW>
0.0718125

>  <SCORE.INTRA.VDW.0>
-0.437849

>  <SCORE.INTRA.norm>
0.0100674

>  <SCORE.RESTR>
0

>  <SCORE.RESTR.CAVITY>
0

>  <SCORE.RESTR.norm>
0

>  <SCORE.SYSTEM>
0

>  <SCORE.SYSTEM.CONST>
0

>  <SCORE.SYSTEM.DIHEDRAL>
0

>  <SCORE.SYSTEM.SOLV>
0

>  <SCORE.SYSTEM.norm>
0

>  <SCORE.heavy>
16

>  <SCORE.norm>
-0.750308

>  <RMSD>
8.290

$$$$
ligand
 OpenBabel11021811463D
libRbt.so/2013.1/901 2013/11/27
 16 16  0  0  0  0  0  0  0  0999 V2000
   49.9926    9.7629   19.4299 P   0  0  2  0  0  0  0  0  0  0  0  0
   48.8596    8.8126   19.5503 O   0  0  0  0  0  0  0  0  0  0  0  0
   51.3030    9.1640   20.1478 O   0  5  0  0  0  0  0  0  0  0  0  0
   49.5977   11.1558   20.1565 O   0  0  0  0  0  0  0  0  0  0  0  0
   53.1587   12.7127   15.0575 C   0  0  2  0  0  0  0  0  0  0  0  0
   52.1048   13.6739   14.8988 O   0  0  0  0  0  0  0  0  0  0  0  0
   53.1890   11.6984   13.8795 C   0  0  2  0  0  0  0  0  0  0  0  0
   53.3566   12.4221   12.6000 N   0  0  0  0  0  0  0  0  0  0  0  0
   51.8618   10.9108   13.8737 C   0  0  1  0  0  0  0  0  0  0  0  0
   51.8609    9.9463   12.8064 O   0  0  0  0  0  0  0  0  0  0  0  0
   51.7302   10.1890   15.2228 C   0  0  2  0  0  0  0  0  0  0  0  0
   50.4965    9.4578   15.2561 O   0  0  0  0  0  0  0  0  0  0  0  0
   51.7395   11.2548   16.3504 C   0  0  2  0  0  0  0  0  0  0  0  0
   52.9850   12.0098   16.3207 O   0  0  0  0  0  0  0  0  0  0  0  0
   51.6215   10.5581   17.7172 C   0  0  0  0  0  0  0  0  0  0  0  0
   50.3055    9.9935   17.8618 O   0  0  0  0  0  0  0  0  0  0  0  0
  1  2  1  1  0  0  0
  1  3  1  0  0  0  0
  1  4  2  0  0  0  0
  1 16  1  0  0  0  0
  5  6  1  6  0  0  0
  5  7  1  0  0  0  0
  5 14  1  0  0  0  0
  7  8  1  6  0  0  0
  7  9  1  0  0  0  0
  9 10  1  6  0  0  0
  9 11  1  0  0  0  0
 11 12  1  6  0  0  0
 11 13  1  0  0  0  0
 13 14  1  0  0  0  0
 13 15  1  1  0  0  0
 15 16  1  0  0  0  0
M  CHG  1   3  -1
M  END
>  <CHROM.1>
-69.24182496,-159.13490320,-162.32112165,51.35576427,10.75331904,16.60912463
-2.40774449,-1.00396254,-1.97685711

>  <Name>
ligand

>  <RI>
0

>  <Rbt.Current_Directory>
/home/itssahil/PROJECTS/Mol_Feturizer/New_Systems/rnas/3B4B

>  <Rbt.Executable>
rbdock ($Id: //depot/dev/client3/rdock/2013.1/src/exe/rbdock.cxx#4 $)

>  <Rbt.Library>
libRbt.so (2013.1, Build901 2013/11/27)

>  <Rbt.Parameter_File>
/export/apps/rDock/src/rDock_2013.1_src/data/scripts/dock_solv.prm

>  <Rbt.Receptor>
prm/blind_docking_60.prm

>  <SCORE>
-12.0015

>  <SCORE.INTER>
-12.2856

>  <SCORE.INTER.CONST>
1

>  <SCORE.INTER.POLAR>
-0.898808

>  <SCORE.INTER.ROT>
3

>  <SCORE.INTER.SOLV>
20.0865

>  <SCORE.INTER.VDW>
-17.4899

>  <SCORE.INTER.norm>
-0.767848

>  <SCORE.INTRA>
0.284089

>  <SCORE.INTRA.DIHEDRAL>
0.509493

>  <SCORE.INTRA.DIHEDRAL.0>
2.21864

>  <SCORE.INTRA.POLAR>
0

>  <SCORE.INTRA.POLAR.0>
0

>  <SCORE.INTRA.REPUL>
0

>  <SCORE.INTRA.REPUL.0>
0

>  <SCORE.INTRA.SOLV>
-0.158036

>  <SCORE.INTRA.SOLV.lig_0>
-58.5963

>  <SCORE.INTRA.VDW>
0.10836

>  <SCORE.INTRA.VDW.0>
-0.437849

>  <SCORE.INTRA.norm>
0.0177556

>  <SCORE.RESTR>
0

>  <SCORE.RESTR.CAVITY>
0

>  <SCORE.RESTR.norm>
0

>  <SCORE.SYSTEM>
0

>  <SCORE.SYSTEM.CONST>
0

>  <SCORE.SYSTEM.DIHEDRAL>
0

>  <SCORE.SYSTEM.SOLV>
0

>  <SCORE.SYSTEM.norm>
0

>  <SCORE.heavy>
16

>  <SCORE.norm>
-0.750092

>  <RMSD>
8.303

$$$$
ligand
 OpenBabel11021811463D
libRbt.so/2013.1/901 2013/11/27
 16 16  0  0  0  0  0  0  0  0999 V2000
   50.1859   10.0496   18.7036 P   0  0  2  0  0  0  0  0  0  0  0  0
   49.5684    8.9428   17.9324 O   0  0  0  0  0  0  0  0  0  0  0  0
   51.4581    9.5127   19.5308 O   0  5  0  0  0  0  0  0  0  0  0  0
   49.0999   10.6377   19.7519 O   0  0  0  0  0  0  0  0  0  0  0  0
   53.2799   13.6098   15.2449 C   0  0  2  0  0  0  0  0  0  0  0  0
   52.1275   14.3980   14.9128 O   0  0  0  0  0  0  0  0  0  0  0  0
   53.9146   12.9648   13.9805 C   0  0  2  0  0  0  0  0  0  0  0  0
   54.2888   14.0208   13.0141 N   0  0  0  0  0  0  0  0  0  0  0  0
   52.8842   12.0065   13.3467 C   0  0  1  0  0  0  0  0  0  0  0  0
   53.4441   11.3744   12.1821 O   0  0  0  0  0  0  0  0  0  0  0  0
   52.5213   10.9396   14.3898 C   0  0  2  0  0  0  0  0  0  0  0  0
   51.5513   10.0393   13.8362 O   0  0  0  0  0  0  0  0  0  0  0  0
   51.9263   11.6532   15.6325 C   0  0  2  0  0  0  0  0  0  0  0  0
   52.9002   12.5770   16.1983 O   0  0  0  0  0  0  0  0  0  0  0  0
   51.5644   10.6075   16.7016 C   0  0  0  0  0  0  0  0  0  0  0  0
   50.6703   11.1904   17.6671 O   0  0  0  0  0  0  0  0  0  0  0  0
  1  2  1  6  0  0  0
  1  3  1  0  0  0  0
  1  4  2  0  0  0  0
  1 16  1  0  0  0  0
  5  6  1  6  0  0  0
  5  7  1  0  0  0  0
  5 14  1  0  0  0  0
  7  8  1  6  0  0  0
  7  9  1  0  0  0  0
  9 10  1  6  0  0  0
  9 11  1  0  0  0  0
 11 12  1  6  0  0  0
 11 13  1  0  0  0  0
 13 14  1  0  0  0  0
 13 15  1  1  0  0  0
 15 16  1  0  0  0  0
M  CHG  1   3  -1
M  END
>  <CHROM.1>
-163.12630996,174.67526782,-56.21952939,51.78502211,11.39072691,16.07747490
-2.88262753,-1.05617712,-2.35951675

>  <Name>
ligand

>  <RI>
0

>  <Rbt.Current_Directory>
/home/itssahil/PROJECTS/Mol_Feturizer/New_Systems/rnas/3B4B

>  <Rbt.Executable>
rbdock ($Id: //depot/dev/client3/rdock/2013.1/src/exe/rbdock.cxx#4 $)

>  <Rbt.Library>
libRbt.so (2013.1, Build901 2013/11/27)

>  <Rbt.Parameter_File>
/export/apps/rDock/src/rDock_2013.1_src/data/scripts/dock_solv.prm

>  <Rbt.Receptor>
prm/pocket_docking_7.prm

>  <SCORE>
-9.07375

>  <SCORE.INTER>
-7.86796

>  <SCORE.INTER.CONST>
1

>  <SCORE.INTER.POLAR>
0

>  <SCORE.INTER.ROT>
3

>  <SCORE.INTER.SOLV>
19.2112

>  <SCORE.INTER.VDW>
-17.2491

>  <SCORE.INTER.norm>
-0.491747

>  <SCORE.INTRA>
-1.21164

>  <SCORE.INTRA.DIHEDRAL>
-1.08755

>  <SCORE.INTRA.DIHEDRAL.0>
2.21864

>  <SCORE.INTRA.POLAR>
0

>  <SCORE.INTRA.POLAR.0>
0

>  <SCORE.INTRA.REPUL>
0

>  <SCORE.INTRA.REPUL.0>
0

>  <SCORE.INTRA.SOLV>
-1.28433

>  <SCORE.INTRA.SOLV.lig_0>
-58.5963

>  <SCORE.INTRA.VDW>
-0.0256985

>  <SCORE.INTRA.VDW.0>
-0.437849

>  <SCORE.INTRA.norm>
-0.0757272

>  <SCORE.RESTR>
0.00584847

>  <SCORE.RESTR.CAVITY>
0.00584847

>  <SCORE.RESTR.norm>
0.000365529

>  <SCORE.SYSTEM>
0

>  <SCORE.SYSTEM.CONST>
0

>  <SCORE.SYSTEM.DIHEDRAL>
0

>  <SCORE.SYSTEM.SOLV>
0

>  <SCORE.SYSTEM.norm>
0

>  <SCORE.heavy>
16

>  <SCORE.norm>
-0.567109

>  <RMSD>
8.395

$$$$
ligand
 OpenBabel11021811463D
libRbt.so/2013.1/901 2013/11/27
 16 16  0  0  0  0  0  0  0  0999 V2000
   49.9446   10.1753   19.3914 P   0  0  2  0  0  0  0  0  0  0  0  0
   49.1121    9.0955   18.8066 O   0  0  0  0  0  0  0  0  0  0  0  0
   51.2446    9.5528   20.1080 O   0  5  0  0  0  0  0  0  0  0  0  0
   49.0764   10.9737   20.5017 O   0  0  0  0  0  0  0  0  0  0  0  0
   53.2671   13.0453   15.6577 C   0  0  2  0  0  0  0  0  0  0  0  0
   52.2544   13.9947   15.2934 O   0  0  0  0  0  0  0  0  0  0  0  0
   53.7958   12.2699   14.4180 C   0  0  2  0  0  0  0  0  0  0  0  0
   54.3347   13.2237   13.4234 N   0  0  0  0  0  0  0  0  0  0  0  0
   52.6289   11.4670   13.8051 C   0  0  1  0  0  0  0  0  0  0  0  0
   53.0854   10.7192   12.6642 O   0  0  0  0  0  0  0  0  0  0  0  0
   52.0992   10.5031   14.8768 C   0  0  2  0  0  0  0  0  0  0  0  0
   51.0009    9.7504   14.3428 O   0  0  0  0  0  0  0  0  0  0  0  0
   51.6206   11.3393   16.0930 C   0  0  2  0  0  0  0  0  0  0  0  0
   52.7264   12.1150   16.6384 O   0  0  0  0  0  0  0  0  0  0  0  0
   51.0951   10.3970   17.1899 C   0  0  0  0  0  0  0  0  0  0  0  0
   50.4159   11.1622   18.2022 O   0  0  0  0  0  0  0  0  0  0  0  0
  1  2  1  6  0  0  0
  1  3  1  0  0  0  0
  1  4  2  0  0  0  0
  1 16  1  0  0  0  0
  5  6  1  6  0  0  0
  5  7  1  0  0  0  0
  5 14  1  0  0  0  0
  7  8  1  6  0  0  0
  7  9  1  0  0  0  0
  9 10  1  6  0  0  0
  9 11  1  0  0  0  0
 11 12  1  6  0  0  0
 11 13  1  0  0  0  0
 13 14  1  0  0  0  0
 13 15  1  1  0  0  0
 15 16  1  0  0  0  0
M  CHG  1   3  -1
M  END
>  <CHROM.1>
-168.89126354,-176.68698973,-55.67548740,51.55343552,11.13546664,16.61688620
-2.61690137,-0.97003638,-2.18391419

>  <Name>
ligand

>  <RI>
0

>  <Rbt.Current_Directory>
/home/itssahil/PROJECTS/Mol_Feturizer/New_Systems/rnas/3B4B

>  <Rbt.Executable>
rbdock ($Id: //depot/dev/client3/rdock/2013.1/src/exe/rbdock.cxx#4 $)

>  <Rbt.Library>
libRbt.so (2013.1, Build901 2013/11/27)

>  <Rbt.Parameter_File>
/export/apps/rDock/src/rDock_2013.1_src/data/scripts/dock_solv.prm

>  <Rbt.Receptor>
prm/blind_docking_60.prm

>  <SCORE>
-10.6185

>  <SCORE.INTER>
-9.15091

>  <SCORE.INTER.CONST>
1

>  <SCORE.INTER.POLAR>
0

>  <SCORE.INTER.ROT>
3

>  <SCORE.INTER.SOLV>
19.8353

>  <SCORE.INTER.VDW>
-18.3124

>  <SCORE.INTER.norm>
-0.571932

>  <SCORE.INTRA>
-1.46758

>  <SCORE.INTRA.DIHEDRAL>
-1.69663

>  <SCORE.INTRA.DIHEDRAL.0>
2.21864

>  <SCORE.INTRA.POLAR>
0

>  <SCORE.INTRA.POLAR.0>
0

>  <SCORE.INTRA.REPUL>
0

>  <SCORE.INTRA.REPUL.0>
0

>  <SCORE.INTRA.SOLV>
-1.20014

>  <SCORE.INTRA.SOLV.lig_0>
-58.5963

>  <SCORE.INTRA.VDW>
-0.0191975

>  <SCORE.INTRA.VDW.0>
-0.437849

>  <SCORE.INTRA.norm>
-0.091724

>  <SCORE.RESTR>
0

>  <SCORE.RESTR.CAVITY>
0

>  <SCORE.RESTR.norm>
0

>  <SCORE.SYSTEM>
0

>  <SCORE.SYSTEM.CONST>
0

>  <SCORE.SYSTEM.DIHEDRAL>
0

>  <SCORE.SYSTEM.SOLV>
0

>  <SCORE.SYSTEM.norm>
0

>  <SCORE.heavy>
16

>  <SCORE.norm>
-0.663656

>  <RMSD>
8.488

$$$$
ligand
 OpenBabel11021811463D
libRbt.so/2013.1/901 2013/11/27
 16 16  0  0  0  0  0  0  0  0999 V2000
   49.9239   10.1740   19.4012 P   0  0  2  0  0  0  0  0  0  0  0  0
   49.1249    9.0721   18.8107 O   0  0  0  0  0  0  0  0  0  0  0  0
   51.2132    9.5835   20.1629 O   0  5  0  0  0  0  0  0  0  0  0  0
   49.0128   10.9750   20.4747 O   0  0  0  0  0  0  0  0  0  0  0  0
   53.2477   13.0567   15.6261 C   0  0  2  0  0  0  0  0  0  0  0  0
   52.2037   13.9640   15.2430 O   0  0  0  0  0  0  0  0  0  0  0  0
   53.7909   12.2623   14.4049 C   0  0  2  0  0  0  0  0  0  0  0  0
   54.2931   13.2028   13.3791 N   0  0  0  0  0  0  0  0  0  0  0  0
   52.6448   11.4069   13.8247 C   0  0  1  0  0  0  0  0  0  0  0  0
   53.1157   10.6407   12.7020 O   0  0  0  0  0  0  0  0  0  0  0  0
   52.1525   10.4586   14.9278 C   0  0  2  0  0  0  0  0  0  0  0  0
   51.0740    9.6578   14.4245 O   0  0  0  0  0  0  0  0  0  0  0  0
   51.6573   11.3147   16.1234 C   0  0  2  0  0  0  0  0  0  0  0  0
   52.7428   12.1391   16.6375 O   0  0  0  0  0  0  0  0  0  0  0  0
   51.1689   10.3889   17.2512 C   0  0  0  0  0  0  0  0  0  0  0  0
   50.4124   11.1501   18.2101 O   0  0  0  0  0  0  0  0  0  0  0  0
  1  2  1  6  0  0  0
  1  3  1  0  0  0  0
  1  4  2  0  0  0  0
  1 16  1  0  0  0  0
  5  6  1  6  0  0  0
  5  7  1  0  0  0  0
  5 14  1  0  0  0  0
  7  8  1  6  0  0  0
  7  9  1  0  0  0  0
  9 10  1  6  0  0  0
  9 11  1  0  0  0  0
 11 12  1  6  0  0  0
 11 13  1  0  0  0  0
 13 14  1  0  0  0  0
 13 15  1  1  0  0  0
 15 16  1  0  0  0  0
M  CHG  1   3  -1
M  END
>  <CHROM.1>
-165.82658536,-179.12796749,-57.54942147,51.55583619,11.11570112,16.62882959
-2.67007628,-0.98543156,-2.25144758

>  <Name>
ligand

>  <RI>
0

>  <Rbt.Current_Directory>
/home/itssahil/PROJECTS/Mol_Feturizer/New_Systems/rnas/3B4B

>  <Rbt.Executable>
rbdock ($Id: //depot/dev/client3/rdock/2013.1/src/exe/rbdock.cxx#4 $)

>  <Rbt.Library>
libRbt.so (2013.1, Build901 2013/11/27)

>  <Rbt.Parameter_File>
/export/apps/rDock/src/rDock_2013.1_src/data/scripts/dock_solv.prm

>  <Rbt.Receptor>
prm/blind_docking_80.prm

>  <SCORE>
-10.8027

>  <SCORE.INTER>
-9.39917

>  <SCORE.INTER.CONST>
1

>  <SCORE.INTER.POLAR>
0

>  <SCORE.INTER.ROT>
3

>  <SCORE.INTER.SOLV>
19.8152

>  <SCORE.INTER.VDW>
-18.4712

>  <SCORE.INTER.norm>
-0.587448

>  <SCORE.INTRA>
-1.4035

>  <SCORE.INTRA.DIHEDRAL>
-1.50782

>  <SCORE.INTRA.DIHEDRAL.0>
2.21864

>  <SCORE.INTRA.POLAR>
0

>  <SCORE.INTRA.POLAR.0>
0

>  <SCORE.INTRA.REPUL>
0

>  <SCORE.INTRA.REPUL.0>
0

>  <SCORE.INTRA.SOLV>
-1.21397

>  <SCORE.INTRA.SOLV.lig_0>
-58.5963

>  <SCORE.INTRA.VDW>
-0.0426025

>  <SCORE.INTRA.VDW.0>
-0.437849

>  <SCORE.INTRA.norm>
-0.0877186

>  <SCORE.RESTR>
0

>  <SCORE.RESTR.CAVITY>
0

>  <SCORE.RESTR.norm>
0

>  <SCORE.SYSTEM>
0

>  <SCORE.SYSTEM.CONST>
0

>  <SCORE.SYSTEM.DIHEDRAL>
0

>  <SCORE.SYSTEM.SOLV>
0

>  <SCORE.SYSTEM.norm>
0

>  <SCORE.heavy>
16

>  <SCORE.norm>
-0.675167

>  <RMSD>
8.504

$$$$
ligand
 OpenBabel11021811463D
libRbt.so/2013.1/901 2013/11/27
 16 16  0  0  0  0  0  0  0  0999 V2000
   54.0392    9.8441    5.3801 P   0  0  2  0  0  0  0  0  0  0  0  0
   53.0945   10.5257    4.4613 O   0  0  0  0  0  0  0  0  0  0  0  0
   55.5503   10.0080    4.8504 O   0  5  0  0  0  0  0  0  0  0  0  0
   53.6807    8.2653    5.4358 O   0  0  0  0  0  0  0  0  0  0  0  0
   53.3979   10.9346   10.9243 C   0  0  2  0  0  0  0  0  0  0  0  0
   52.1388   10.5753   11.5117 O   0  0  0  0  0  0  0  0  0  0  0  0
   53.6085   12.4751   10.9220 C   0  0  2  0  0  0  0  0  0  0  0  0
   53.5331   12.9926   12.3061 N   0  0  0  0  0  0  0  0  0  0  0  0
   52.5086   13.1211   10.0534 C   0  0  1  0  0  0  0  0  0  0  0  0
   52.6827   14.5484   10.0114 O   0  0  0  0  0  0  0  0  0  0  0  0
   52.6220   12.5446    8.6346 C   0  0  2  0  0  0  0  0  0  0  0  0
   51.6012   13.1146    7.8033 O   0  0  0  0  0  0  0  0  0  0  0  0
   52.4350   11.0064    8.7155 C   0  0  2  0  0  0  0  0  0  0  0  0
   53.4616   10.4174    9.5648 O   0  0  0  0  0  0  0  0  0  0  0  0
   52.5566   10.3990    7.3070 C   0  0  0  0  0  0  0  0  0  0  0  0
   53.9131   10.5208    6.8417 O   0  0  0  0  0  0  0  0  0  0  0  0
  1  2  1  6  0  0  0
  1  3  1  0  0  0  0
  1  4  2  0  0  0  0
  1 16  1  0  0  0  0
  5  6  1  6  0  0  0
  5  7  1  0  0  0  0
  5 14  1  0  0  0  0
  7  8  1  1  0  0  0
  7  9  1  0  0  0  0
  9 10  1  6  0  0  0
  9 11  1  0  0  0  0
 11 12  1  6  0  0  0
 11 13  1  0  0  0  0
 13 14  1  0  0  0  0
 13 15  1  6  0  0  0
 15 16  1  0  0  0  0
M  CHG  1   3  -1
M  END
>  <CHROM.1>
68.38185585,178.44938328,58.60052393,53.24525089,11.19612228,8.13310054,-0.90622529
-1.27018602,1.74712531

>  <Name>
ligand

>  <RI>
0

>  <Rbt.Current_Directory>
/home/itssahil/PROJECTS/Mol_Feturizer/New_Systems/rnas/3B4B

>  <Rbt.Executable>
rbdock ($Id: //depot/dev/client3/rdock/2013.1/src/exe/rbdock.cxx#4 $)

>  <Rbt.Library>
libRbt.so (2013.1, Build901 2013/11/27)

>  <Rbt.Parameter_File>
/export/apps/rDock/src/rDock_2013.1_src/data/scripts/dock_solv.prm

>  <Rbt.Receptor>
prm/blind_docking_80.prm

>  <SCORE>
-7.12008

>  <SCORE.INTER>
-5.4742

>  <SCORE.INTER.CONST>
1

>  <SCORE.INTER.POLAR>
-0.889825

>  <SCORE.INTER.ROT>
3

>  <SCORE.INTER.SOLV>
10.4115

>  <SCORE.INTER.VDW>
-9.75388

>  <SCORE.INTER.norm>
-0.342138

>  <SCORE.INTRA>
-1.64587

>  <SCORE.INTRA.DIHEDRAL>
-1.95211

>  <SCORE.INTRA.DIHEDRAL.0>
2.21864

>  <SCORE.INTRA.POLAR>
0

>  <SCORE.INTRA.POLAR.0>
0

>  <SCORE.INTRA.REPUL>
0

>  <SCORE.INTRA.REPUL.0>
0

>  <SCORE.INTRA.SOLV>
-0.953631

>  <SCORE.INTRA.SOLV.lig_0>
-58.5963

>  <SCORE.INTRA.VDW>
-0.193004

>  <SCORE.INTRA.VDW.0>
-0.437849

>  <SCORE.INTRA.norm>
-0.102867

>  <SCORE.RESTR>
0

>  <SCORE.RESTR.CAVITY>
0

>  <SCORE.RESTR.norm>
0

>  <SCORE.SYSTEM>
0

>  <SCORE.SYSTEM.CONST>
0

>  <SCORE.SYSTEM.DIHEDRAL>
0

>  <SCORE.SYSTEM.SOLV>
0

>  <SCORE.SYSTEM.norm>
0

>  <SCORE.heavy>
16

>  <SCORE.norm>
-0.445005

>  <RMSD>
8.560

$$$$
ligand
 OpenBabel11021811463D
libRbt.so/2013.1/901 2013/11/27
 16 16  0  0  0  0  0  0  0  0999 V2000
   48.6465   11.0938   10.2908 P   0  0  2  0  0  0  0  0  0  0  0  0
   47.5831   11.0561    9.2569 O   0  0  0  0  0  0  0  0  0  0  0  0
   48.1568   10.3366   11.6241 O   0  5  0  0  0  0  0  0  0  0  0  0
   48.9709   12.6366   10.6635 O   0  0  0  0  0  0  0  0  0  0  0  0
   52.2128    8.1491    6.9636 C   0  0  2  0  0  0  0  0  0  0  0  0
   53.2587    7.9711    7.9300 O   0  0  0  0  0  0  0  0  0  0  0  0
   52.7397    8.8343    5.6711 C   0  0  2  0  0  0  0  0  0  0  0  0
   53.8328    8.0266    5.0864 N   0  0  0  0  0  0  0  0  0  0  0  0
   53.2567   10.2419    6.0358 C   0  0  1  0  0  0  0  0  0  0  0  0
   53.7357   10.9159    4.8587 O   0  0  0  0  0  0  0  0  0  0  0  0
   52.0915   11.0339    6.6469 C   0  0  2  0  0  0  0  0  0  0  0  0
   52.5436   12.3455    7.0120 O   0  0  0  0  0  0  0  0  0  0  0  0
   51.5960   10.2792    7.9088 C   0  0  2  0  0  0  0  0  0  0  0  0
   51.1422    8.9419    7.5512 O   0  0  0  0  0  0  0  0  0  0  0  0
   50.4179   11.0448    8.5361 C   0  0  0  0  0  0  0  0  0  0  0  0
   49.9563   10.3487    9.7083 O   0  0  0  0  0  0  0  0  0  0  0  0
  1  2  1  6  0  0  0
  1  3  1  0  0  0  0
  1  4  2  0  0  0  0
  1 16  1  0  0  0  0
  5  6  1  1  0  0  0
  5  7  1  0  0  0  0
  5 14  1  0  0  0  0
  7  8  1  1  0  0  0
  7  9  1  0  0  0  0
  9 10  1  6  0  0  0
  9 11  1  0  0  0  0
 11 12  1  1  0  0  0
 11 13  1  0  0  0  0
 13 14  1  0  0  0  0
 13 15  1  6  0  0  0
 15 16  1  0  0  0  0
M  CHG  1   3  -1
M  END
>  <CHROM.1>
-179.92697504,-175.47650272,61.24341659,51.02364524,10.29631405,8.09183993
2.99525037,0.79067895,-0.16938336

>  <Name>
ligand

>  <RI>
0

>  <Rbt.Current_Directory>
/home/itssahil/PROJECTS/Mol_Feturizer/New_Systems/rnas/3B4B

>  <Rbt.Executable>
rbdock ($Id: //depot/dev/client3/rdock/2013.1/src/exe/rbdock.cxx#4 $)

>  <Rbt.Library>
libRbt.so (2013.1, Build901 2013/11/27)

>  <Rbt.Parameter_File>
/export/apps/rDock/src/rDock_2013.1_src/data/scripts/dock_solv.prm

>  <Rbt.Receptor>
prm/pocket_docking_8.prm

>  <SCORE>
-5.9393

>  <SCORE.INTER>
-4.17759

>  <SCORE.INTER.CONST>
1

>  <SCORE.INTER.POLAR>
-0.898065

>  <SCORE.INTER.ROT>
3

>  <SCORE.INTER.SOLV>
9.68341

>  <SCORE.INTER.VDW>
-8.61932

>  <SCORE.INTER.norm>
-0.2611

>  <SCORE.INTRA>
-1.76171

>  <SCORE.INTRA.DIHEDRAL>
-2.11467

>  <SCORE.INTRA.DIHEDRAL.0>
2.21864

>  <SCORE.INTRA.POLAR>
0

>  <SCORE.INTRA.POLAR.0>
0

>  <SCORE.INTRA.REPUL>
0

>  <SCORE.INTRA.REPUL.0>
0

>  <SCORE.INTRA.SOLV>
-1.16144

>  <SCORE.INTRA.SOLV.lig_0>
-58.5963

>  <SCORE.INTRA.VDW>
-0.123655

>  <SCORE.INTRA.VDW.0>
-0.437849

>  <SCORE.INTRA.norm>
-0.110107

>  <SCORE.RESTR>
0

>  <SCORE.RESTR.CAVITY>
0

>  <SCORE.RESTR.norm>
0

>  <SCORE.SYSTEM>
0

>  <SCORE.SYSTEM.CONST>
0

>  <SCORE.SYSTEM.DIHEDRAL>
0

>  <SCORE.SYSTEM.SOLV>
0

>  <SCORE.SYSTEM.norm>
0

>  <SCORE.heavy>
16

>  <SCORE.norm>
-0.371207

>  <RMSD>
8.691

$$$$
ligand
 OpenBabel11021811463D
libRbt.so/2013.1/901 2013/11/27
 16 16  0  0  0  0  0  0  0  0999 V2000
   51.6470    9.3322    7.6829 P   0  0  2  0  0  0  0  0  0  0  0  0
   52.7726    9.0080    6.7724 O   0  0  0  0  0  0  0  0  0  0  0  0
   52.1278    9.2511    9.2169 O   0  5  0  0  0  0  0  0  0  0  0  0
   50.4554    8.2580    7.4585 O   0  0  0  0  0  0  0  0  0  0  0  0
   50.5535   14.9830    8.2640 C   0  0  2  0  0  0  0  0  0  0  0  0
   49.6068   15.0227    7.1861 O   0  0  0  0  0  0  0  0  0  0  0  0
   51.7324   15.9685    8.0256 C   0  0  2  0  0  0  0  0  0  0  0  0
   51.2105   17.3436    7.8646 N   0  0  0  0  0  0  0  0  0  0  0  0
   52.4866   15.5346    6.7510 C   0  0  1  0  0  0  0  0  0  0  0  0
   53.5990   16.4138    6.5083 O   0  0  0  0  0  0  0  0  0  0  0  0
   52.9968   14.1019    6.9638 C   0  0  2  0  0  0  0  0  0  0  0  0
   53.6913   13.6616    5.7883 O   0  0  0  0  0  0  0  0  0  0  0  0
   51.7755   13.1820    7.2275 C   0  0  2  0  0  0  0  0  0  0  0  0
   51.0571   13.6253    8.4148 O   0  0  0  0  0  0  0  0  0  0  0  0
   52.2585   11.7394    7.4573 C   0  0  0  0  0  0  0  0  0  0  0  0
   51.1437   10.8339    7.3634 O   0  0  0  0  0  0  0  0  0  0  0  0
  1  2  1  6  0  0  0
  1  3  1  0  0  0  0
  1  4  2  0  0  0  0
  1 16  1  0  0  0  0
  5  6  1  6  0  0  0
  5  7  1  0  0  0  0
  5 14  1  0  0  0  0
  7  8  1  6  0  0  0
  7  9  1  0  0  0  0
  9 10  1  1  0  0  0
  9 11  1  0  0  0  0
 11 12  1  6  0  0  0
 11 13  1  0  0  0  0
 13 14  1  0  0  0  0
 13 15  1  1  0  0  0
 15 16  1  0  0  0  0
M  CHG  1   3  -1
M  END
>  <CHROM.1>
-165.46571877,-177.04191952,-54.83833725,51.80549897,12.67044724,7.44453920
1.61312443,-0.48719442,3.09984314

>  <Name>
ligand

>  <RI>
0

>  <Rbt.Current_Directory>
/home/itssahil/PROJECTS/Mol_Feturizer/New_Systems/rnas/3B4B

>  <Rbt.Executable>
rbdock ($Id: //depot/dev/client3/rdock/2013.1/src/exe/rbdock.cxx#4 $)

>  <Rbt.Library>
libRbt.so (2013.1, Build901 2013/11/27)

>  <Rbt.Parameter_File>
/export/apps/rDock/src/rDock_2013.1_src/data/scripts/dock_solv.prm

>  <Rbt.Receptor>
prm/pocket_docking_8.prm

>  <SCORE>
-7.68897

>  <SCORE.INTER>
-6.36915

>  <SCORE.INTER.CONST>
1

>  <SCORE.INTER.POLAR>
-1.12459

>  <SCORE.INTER.ROT>
3

>  <SCORE.INTER.SOLV>
13.5904

>  <SCORE.INTER.VDW>
-10.6276

>  <SCORE.INTER.norm>
-0.398072

>  <SCORE.INTRA>
-1.31982

>  <SCORE.INTRA.DIHEDRAL>
-1.39992

>  <SCORE.INTRA.DIHEDRAL.0>
2.21864

>  <SCORE.INTRA.POLAR>
0

>  <SCORE.INTRA.POLAR.0>
0

>  <SCORE.INTRA.REPUL>
0

>  <SCORE.INTRA.REPUL.0>
0

>  <SCORE.INTRA.SOLV>
-1.22258

>  <SCORE.INTRA.SOLV.lig_0>
-58.5963

>  <SCORE.INTRA.VDW>
-0.00856303

>  <SCORE.INTRA.VDW.0>
-0.437849

>  <SCORE.INTRA.norm>
-0.0824885

>  <SCORE.RESTR>
0

>  <SCORE.RESTR.CAVITY>
0

>  <SCORE.RESTR.norm>
0

>  <SCORE.SYSTEM>
0

>  <SCORE.SYSTEM.CONST>
0

>  <SCORE.SYSTEM.DIHEDRAL>
0

>  <SCORE.SYSTEM.SOLV>
0

>  <SCORE.SYSTEM.norm>
0

>  <SCORE.heavy>
16

>  <SCORE.norm>
-0.480561

>  <RMSD>
8.731

$$$$
ligand
 OpenBabel11021811463D
libRbt.so/2013.1/901 2013/11/27
 16 16  0  0  0  0  0  0  0  0999 V2000
   52.7686    7.3691    8.4990 P   0  0  2  0  0  0  0  0  0  0  0  0
   52.6707    6.6141    7.2257 O   0  0  0  0  0  0  0  0  0  0  0  0
   54.0551    6.8865    9.3375 O   0  5  0  0  0  0  0  0  0  0  0  0
   51.4414    7.0910    9.3853 O   0  0  0  0  0  0  0  0  0  0  0  0
   51.6007   12.8507    8.7834 C   0  0  2  0  0  0  0  0  0  0  0  0
   50.3890   13.2921    8.1536 O   0  0  0  0  0  0  0  0  0  0  0  0
   52.8553   13.4715    8.1064 C   0  0  2  0  0  0  0  0  0  0  0  0
   52.7716   14.9478    8.1554 N   0  0  0  0  0  0  0  0  0  0  0  0
   52.9119   12.9916    6.6406 C   0  0  1  0  0  0  0  0  0  0  0  0
   54.0733   13.5313    5.9856 O   0  0  0  0  0  0  0  0  0  0  0  0
   52.9862   11.4577    6.6441 C   0  0  2  0  0  0  0  0  0  0  0  0
   53.0248   10.9774    5.2929 O   0  0  0  0  0  0  0  0  0  0  0  0
   51.7243   10.9087    7.3607 C   0  0  2  0  0  0  0  0  0  0  0  0
   51.6701   11.3973    8.7319 O   0  0  0  0  0  0  0  0  0  0  0  0
   51.7780    9.3712    7.3903 C   0  0  0  0  0  0  0  0  0  0  0  0
   52.9189    8.9404    8.1546 O   0  0  0  0  0  0  0  0  0  0  0  0
  1  2  1  6  0  0  0
  1  3  1  0  0  0  0
  1  4  2  0  0  0  0
  1 16  1  0  0  0  0
  5  6  1  6  0  0  0
  5  7  1  0  0  0  0
  5 14  1  0  0  0  0
  7  8  1  6  0  0  0
  7  9  1  0  0  0  0
  9 10  1  1  0  0  0
  9 11  1  0  0  0  0
 11 12  1  6  0  0  0
 11 13  1  0  0  0  0
 13 14  1  0  0  0  0
 13 15  1  1  0  0  0
 15 16  1  0  0  0  0
M  CHG  1   3  -1
M  END
>  <CHROM.1>
62.76641581,165.75561003,58.99317760,52.50159586,10.43926250,7.79874690,1.51220209
-0.92220341,2.92146894

>  <Name>
ligand

>  <RI>
0

>  <Rbt.Current_Directory>
/home/itssahil/PROJECTS/Mol_Feturizer/New_Systems/rnas/3B4B

>  <Rbt.Executable>
rbdock ($Id: //depot/dev/client3/rdock/2013.1/src/exe/rbdock.cxx#4 $)

>  <Rbt.Library>
libRbt.so (2013.1, Build901 2013/11/27)

>  <Rbt.Parameter_File>
/export/apps/rDock/src/rDock_2013.1_src/data/scripts/dock_solv.prm

>  <Rbt.Receptor>
prm/pocket_docking_8.prm

>  <SCORE>
-6.81305

>  <SCORE.INTER>
-5.59601

>  <SCORE.INTER.CONST>
1

>  <SCORE.INTER.POLAR>
-1.12421

>  <SCORE.INTER.ROT>
3

>  <SCORE.INTER.SOLV>
16.3166

>  <SCORE.INTER.VDW>
-11.0222

>  <SCORE.INTER.norm>
-0.349751

>  <SCORE.INTRA>
-1.21704

>  <SCORE.INTRA.DIHEDRAL>
-1.23297

>  <SCORE.INTRA.DIHEDRAL.0>
2.21864

>  <SCORE.INTRA.POLAR>
0

>  <SCORE.INTRA.POLAR.0>
0

>  <SCORE.INTRA.REPUL>
0

>  <SCORE.INTRA.REPUL.0>
0

>  <SCORE.INTRA.SOLV>
-0.826668

>  <SCORE.INTRA.SOLV.lig_0>
-58.5963

>  <SCORE.INTRA.VDW>
-0.187224

>  <SCORE.INTRA.VDW.0>
-0.437849

>  <SCORE.INTRA.norm>
-0.076065

>  <SCORE.RESTR>
0

>  <SCORE.RESTR.CAVITY>
0

>  <SCORE.RESTR.norm>
0

>  <SCORE.SYSTEM>
0

>  <SCORE.SYSTEM.CONST>
0

>  <SCORE.SYSTEM.DIHEDRAL>
0

>  <SCORE.SYSTEM.SOLV>
0

>  <SCORE.SYSTEM.norm>
0

>  <SCORE.heavy>
16

>  <SCORE.norm>
-0.425816

>  <RMSD>
8.810

$$$$
ligand
 OpenBabel11021811463D
libRbt.so/2013.1/901 2013/11/27
 16 16  0  0  0  0  0  0  0  0999 V2000
   49.8381   10.3635   18.7609 P   0  0  2  0  0  0  0  0  0  0  0  0
   49.4761    9.0529   18.1674 O   0  0  0  0  0  0  0  0  0  0  0  0
   50.7560   10.1515   20.0661 O   0  5  0  0  0  0  0  0  0  0  0  0
   48.4859   11.1389   19.2019 O   0  0  0  0  0  0  0  0  0  0  0  0
   52.3260   12.3057   14.0153 C   0  0  2  0  0  0  0  0  0  0  0  0
   53.3422   11.4774   13.4312 O   0  0  0  0  0  0  0  0  0  0  0  0
   52.9179   13.6346   14.5642 C   0  0  2  0  0  0  0  0  0  0  0  0
   53.5991   14.3672   13.4741 N   0  0  0  0  0  0  0  0  0  0  0  0
   53.9224   13.2995   15.6869 C   0  0  1  0  0  0  0  0  0  0  0  0
   54.4778   14.5084   16.2341 O   0  0  0  0  0  0  0  0  0  0  0  0
   53.1713   12.5323   16.7849 C   0  0  2  0  0  0  0  0  0  0  0  0
   54.0823   12.1914   17.8393 O   0  0  0  0  0  0  0  0  0  0  0  0
   52.5816   11.2394   16.1620 C   0  0  2  0  0  0  0  0  0  0  0  0
   51.6611   11.5733   15.0836 O   0  0  0  0  0  0  0  0  0  0  0  0
   51.8112   10.4552   17.2386 C   0  0  0  0  0  0  0  0  0  0  0  0
   50.6644   11.2140   17.6637 O   0  0  0  0  0  0  0  0  0  0  0  0
  1  2  1  6  0  0  0
  1  3  1  0  0  0  0
  1  4  2  0  0  0  0
  1 16  1  0  0  0  0
  5  6  1  1  0  0  0
  5  7  1  0  0  0  0
  5 14  1  0  0  0  0
  7  8  1  6  0  0  0
  7  9  1  0  0  0  0
  9 10  1  1  0  0  0
  9 11  1  0  0  0  0
 11 12  1  1  0  0  0
 11 13  1  0  0  0  0
 13 14  1  0  0  0  0
 13 15  1  1  0  0  0
 15 16  1  0  0  0  0
M  CHG  1   3  -1
M  END
>  <CHROM.1>
65.52247183,178.30854306,-56.43250093,51.87291771,11.70223330,16.73870093
2.42775813,0.67439499,1.56633896

>  <Name>
ligand

>  <RI>
0

>  <Rbt.Current_Directory>
/home/itssahil/PROJECTS/Mol_Feturizer/New_Systems/rnas/3B4B

>  <Rbt.Executable>
rbdock ($Id: //depot/dev/client3/rdock/2013.1/src/exe/rbdock.cxx#4 $)

>  <Rbt.Library>
libRbt.so (2013.1, Build901 2013/11/27)

>  <Rbt.Parameter_File>
/export/apps/rDock/src/rDock_2013.1_src/data/scripts/dock_solv.prm

>  <Rbt.Receptor>
prm/blind_docking_60.prm

>  <SCORE>
-11.8153

>  <SCORE.INTER>
-10.155

>  <SCORE.INTER.CONST>
1

>  <SCORE.INTER.POLAR>
0

>  <SCORE.INTER.ROT>
3

>  <SCORE.INTER.SOLV>
19.6987

>  <SCORE.INTER.VDW>
-18.9363

>  <SCORE.INTER.norm>
-0.63469

>  <SCORE.INTRA>
-1.66024

>  <SCORE.INTRA.DIHEDRAL>
-2.07173

>  <SCORE.INTRA.DIHEDRAL.0>
2.21864

>  <SCORE.INTRA.POLAR>
0

>  <SCORE.INTRA.POLAR.0>
0

>  <SCORE.INTRA.REPUL>
0

>  <SCORE.INTRA.REPUL.0>
0

>  <SCORE.INTRA.SOLV>
-0.958183

>  <SCORE.INTRA.SOLV.lig_0>
-58.5963

>  <SCORE.INTRA.VDW>
-0.145285

>  <SCORE.INTRA.VDW.0>
-0.437849

>  <SCORE.INTRA.norm>
-0.103765

>  <SCORE.RESTR>
0

>  <SCORE.RESTR.CAVITY>
0

>  <SCORE.RESTR.norm>
0

>  <SCORE.SYSTEM>
0

>  <SCORE.SYSTEM.CONST>
0

>  <SCORE.SYSTEM.DIHEDRAL>
0

>  <SCORE.SYSTEM.SOLV>
0

>  <SCORE.SYSTEM.norm>
0

>  <SCORE.heavy>
16

>  <SCORE.norm>
-0.738455

>  <RMSD>
8.824

$$$$
ligand
 OpenBabel11021811463D
libRbt.so/2013.1/901 2013/11/27
 16 16  0  0  0  0  0  0  0  0999 V2000
   49.7947   10.3981   18.7723 P   0  0  2  0  0  0  0  0  0  0  0  0
   49.4391    9.0897   18.1701 O   0  0  0  0  0  0  0  0  0  0  0  0
   50.6813   10.1807   20.0981 O   0  5  0  0  0  0  0  0  0  0  0  0
   48.4372   11.1810   19.1824 O   0  0  0  0  0  0  0  0  0  0  0  0
   52.3812   12.3256   14.0758 C   0  0  2  0  0  0  0  0  0  0  0  0
   53.3966   11.4870   13.5053 O   0  0  0  0  0  0  0  0  0  0  0  0
   52.9796   13.6464   14.6368 C   0  0  2  0  0  0  0  0  0  0  0  0
   53.6857   14.3735   13.5588 N   0  0  0  0  0  0  0  0  0  0  0  0
   53.9632   13.2975   15.7738 C   0  0  1  0  0  0  0  0  0  0  0  0
   54.5238   14.4988   16.3321 O   0  0  0  0  0  0  0  0  0  0  0  0
   53.1867   12.5366   16.8585 C   0  0  2  0  0  0  0  0  0  0  0  0
   54.0776   12.1831   17.9258 O   0  0  0  0  0  0  0  0  0  0  0  0
   52.5919   11.2518   16.2237 C   0  0  2  0  0  0  0  0  0  0  0  0
   51.6917   11.5985   15.1322 O   0  0  0  0  0  0  0  0  0  0  0  0
   51.7963   10.4742   17.2866 C   0  0  0  0  0  0  0  0  0  0  0  0
   50.6508   11.2442   17.6945 O   0  0  0  0  0  0  0  0  0  0  0  0
  1  2  1  6  0  0  0
  1  3  1  0  0  0  0
  1  4  2  0  0  0  0
  1 16  1  0  0  0  0
  5  6  1  1  0  0  0
  5  7  1  0  0  0  0
  5 14  1  0  0  0  0
  7  8  1  6  0  0  0
  7  9  1  0  0  0  0
  9 10  1  1  0  0  0
  9 11  1  0  0  0  0
 11 12  1  1  0  0  0
 11 13  1  0  0  0  0
 13 14  1  0  0  0  0
 13 15  1  1  0  0  0
 15 16  1  0  0  0  0
M  CHG  1   3  -1
M  END
>  <CHROM.1>
65.61371058,178.06283445,-55.93012147,51.87802564,11.72014070,16.78823342
2.44809839,0.66217178,1.55761118

>  <Name>
ligand

>  <RI>
0

>  <Rbt.Current_Directory>
/home/itssahil/PROJECTS/Mol_Feturizer/New_Systems/rnas/3B4B

>  <Rbt.Executable>
rbdock ($Id: //depot/dev/client3/rdock/2013.1/src/exe/rbdock.cxx#4 $)

>  <Rbt.Library>
libRbt.so (2013.1, Build901 2013/11/27)

>  <Rbt.Parameter_File>
/export/apps/rDock/src/rDock_2013.1_src/data/scripts/dock_solv.prm

>  <Rbt.Receptor>
prm/blind_docking_60.prm

>  <SCORE>
-11.7169

>  <SCORE.INTER>
-10.0678

>  <SCORE.INTER.CONST>
1

>  <SCORE.INTER.POLAR>
0

>  <SCORE.INTER.ROT>
3

>  <SCORE.INTER.SOLV>
20.1071

>  <SCORE.INTER.VDW>
-19.0143

>  <SCORE.INTER.norm>
-0.629241

>  <SCORE.INTRA>
-1.64905

>  <SCORE.INTRA.DIHEDRAL>
-2.05729

>  <SCORE.INTRA.DIHEDRAL.0>
2.21864

>  <SCORE.INTRA.POLAR>
0

>  <SCORE.INTRA.POLAR.0>
0

>  <SCORE.INTRA.REPUL>
0

>  <SCORE.INTRA.REPUL.0>
0

>  <SCORE.INTRA.SOLV>
-0.964118

>  <SCORE.INTRA.SOLV.lig_0>
-58.5963

>  <SCORE.INTRA.VDW>
-0.138353

>  <SCORE.INTRA.VDW.0>
-0.437849

>  <SCORE.INTRA.norm>
-0.103066

>  <SCORE.RESTR>
0

>  <SCORE.RESTR.CAVITY>
0

>  <SCORE.RESTR.norm>
0

>  <SCORE.SYSTEM>
0

>  <SCORE.SYSTEM.CONST>
0

>  <SCORE.SYSTEM.DIHEDRAL>
0

>  <SCORE.SYSTEM.SOLV>
0

>  <SCORE.SYSTEM.norm>
0

>  <SCORE.heavy>
16

>  <SCORE.norm>
-0.732306

>  <RMSD>
8.867

$$$$
ligand
 OpenBabel11021811463D
libRbt.so/2013.1/901 2013/11/27
 16 16  0  0  0  0  0  0  0  0999 V2000
   53.3029   11.1167   10.3666 P   0  0  2  0  0  0  0  0  0  0  0  0
   54.4185   11.3825   11.3078 O   0  0  0  0  0  0  0  0  0  0  0  0
   51.9730   10.7096   11.1769 O   0  5  0  0  0  0  0  0  0  0  0  0
   53.7102    9.8875    9.3932 O   0  0  0  0  0  0  0  0  0  0  0  0
   51.0453   15.7387    7.7875 C   0  0  2  0  0  0  0  0  0  0  0  0
   49.9960   15.5022    6.8374 O   0  0  0  0  0  0  0  0  0  0  0  0
   52.3461   16.2301    7.0917 C   0  0  2  0  0  0  0  0  0  0  0  0
   52.0691   17.4676    6.3295 N   0  0  0  0  0  0  0  0  0  0  0  0
   52.8445   15.1215    6.1407 C   0  0  1  0  0  0  0  0  0  0  0  0
   54.0605   15.5332    5.4917 O   0  0  0  0  0  0  0  0  0  0  0  0
   53.1059   13.8594    6.9757 C   0  0  2  0  0  0  0  0  0  0  0  0
   53.5571   12.8024    6.1172 O   0  0  0  0  0  0  0  0  0  0  0  0
   51.7788   13.4457    7.6649 C   0  0  2  0  0  0  0  0  0  0  0  0
   51.3063   14.5157    8.5332 O   0  0  0  0  0  0  0  0  0  0  0  0
   52.0140   12.1885    8.5203 C   0  0  0  0  0  0  0  0  0  0  0  0
   53.0159   12.4606    9.5171 O   0  0  0  0  0  0  0  0  0  0  0  0
  1  2  1  1  0  0  0
  1  3  1  0  0  0  0
  1  4  2  0  0  0  0
  1 16  1  0  0  0  0
  5  6  1  6  0  0  0
  5  7  1  0  0  0  0
  5 14  1  0  0  0  0
  7  8  1  6  0  0  0
  7  9  1  0  0  0  0
  9 10  1  1  0  0  0
  9 11  1  0  0  0  0
 11 12  1  6  0  0  0
 11 13  1  0  0  0  0
 13 14  1  0  0  0  0
 13 15  1  1  0  0  0
 15 16  1  0  0  0  0
M  CHG  1   3  -1
M  END
>  <CHROM.1>
59.47030054,-177.49872416,175.14712073,52.60574558,13.38031083,8.28042837
1.34644483,-0.59469596,2.34363853

>  <Name>
ligand

>  <RI>
0

>  <Rbt.Current_Directory>
/home/itssahil/PROJECTS/Mol_Feturizer/New_Systems/rnas/3B4B

>  <Rbt.Executable>
rbdock ($Id: //depot/dev/client3/rdock/2013.1/src/exe/rbdock.cxx#4 $)

>  <Rbt.Library>
libRbt.so (2013.1, Build901 2013/11/27)

>  <Rbt.Parameter_File>
/export/apps/rDock/src/rDock_2013.1_src/data/scripts/dock_solv.prm

>  <Rbt.Receptor>
prm/pocket_docking_8.prm

>  <SCORE>
-9.83686

>  <SCORE.INTER>
-8.30407

>  <SCORE.INTER.CONST>
1

>  <SCORE.INTER.POLAR>
-1.125

>  <SCORE.INTER.ROT>
3

>  <SCORE.INTER.SOLV>
12.5085

>  <SCORE.INTER.VDW>
-11.5556

>  <SCORE.INTER.norm>
-0.519005

>  <SCORE.INTRA>
-1.53278

>  <SCORE.INTRA.DIHEDRAL>
-2.1492

>  <SCORE.INTRA.DIHEDRAL.0>
2.21864

>  <SCORE.INTRA.POLAR>
0

>  <SCORE.INTRA.POLAR.0>
0

>  <SCORE.INTRA.REPUL>
0

>  <SCORE.INTRA.REPUL.0>
0

>  <SCORE.INTRA.SOLV>
-0.242238

>  <SCORE.INTRA.SOLV.lig_0>
-58.5963

>  <SCORE.INTRA.VDW>
-0.337066

>  <SCORE.INTRA.VDW.0>
-0.437849

>  <SCORE.INTRA.norm>
-0.0957989

>  <SCORE.RESTR>
0

>  <SCORE.RESTR.CAVITY>
0

>  <SCORE.RESTR.norm>
0

>  <SCORE.SYSTEM>
0

>  <SCORE.SYSTEM.CONST>
0

>  <SCORE.SYSTEM.DIHEDRAL>
0

>  <SCORE.SYSTEM.SOLV>
0

>  <SCORE.SYSTEM.norm>
0

>  <SCORE.heavy>
16

>  <SCORE.norm>
-0.614804

>  <RMSD>
8.913

$$$$
ligand
 OpenBabel11021811463D
libRbt.so/2013.1/901 2013/11/27
 16 16  0  0  0  0  0  0  0  0999 V2000
   52.9854   14.8658    6.7713 P   0  0  2  0  0  0  0  0  0  0  0  0
   51.7716   15.2706    6.0204 O   0  0  0  0  0  0  0  0  0  0  0  0
   52.9911   15.5432    8.2315 O   0  5  0  0  0  0  0  0  0  0  0  0
   54.2996   15.3648    5.9663 O   0  0  0  0  0  0  0  0  0  0  0  0
   51.9026    9.1973    6.8672 C   0  0  2  0  0  0  0  0  0  0  0  0
   50.7154    8.7775    7.5557 O   0  0  0  0  0  0  0  0  0  0  0  0
   53.1872    8.7866    7.6410 C   0  0  2  0  0  0  0  0  0  0  0  0
   53.2087    7.3196    7.8324 N   0  0  0  0  0  0  0  0  0  0  0  0
   53.1870    9.5002    9.0094 C   0  0  1  0  0  0  0  0  0  0  0  0
   54.3734    9.1590    9.7479 O   0  0  0  0  0  0  0  0  0  0  0  0
   53.1530   11.0146    8.7568 C   0  0  2  0  0  0  0  0  0  0  0  0
   53.1366   11.7090   10.0121 O   0  0  0  0  0  0  0  0  0  0  0  0
   51.8667   11.3479    7.9557 C   0  0  2  0  0  0  0  0  0  0  0  0
   51.8683   10.6410    6.6819 O   0  0  0  0  0  0  0  0  0  0  0  0
   51.8122   12.8601    7.6766 C   0  0  0  0  0  0  0  0  0  0  0  0
   52.9779   13.2583    6.9324 O   0  0  0  0  0  0  0  0  0  0  0  0
  1  2  1  6  0  0  0
  1  3  1  0  0  0  0
  1  4  2  0  0  0  0
  1 16  1  0  0  0  0
  5  6  1  1  0  0  0
  5  7  1  0  0  0  0
  5 14  1  0  0  0  0
  7  8  1  1  0  0  0
  7  9  1  0  0  0  0
  9 10  1  6  0  0  0
  9 11  1  0  0  0  0
 11 12  1  1  0  0  0
 11 13  1  0  0  0  0
 13 14  1  0  0  0  0
 13 15  1  6  0  0  0
 15 16  1  0  0  0  0
M  CHG  1   3  -1
M  END
>  <CHROM.1>
58.95780911,-174.43410869,-61.22907372,52.73730771,11.85188348,7.65262478
1.51477769,-0.89950480,-0.27096930

>  <Name>
ligand

>  <RI>
0

>  <Rbt.Current_Directory>
/home/itssahil/PROJECTS/Mol_Feturizer/New_Systems/rnas/3B4B

>  <Rbt.Executable>
rbdock ($Id: //depot/dev/client3/rdock/2013.1/src/exe/rbdock.cxx#4 $)

>  <Rbt.Library>
libRbt.so (2013.1, Build901 2013/11/27)

>  <Rbt.Parameter_File>
/export/apps/rDock/src/rDock_2013.1_src/data/scripts/dock_solv.prm

>  <Rbt.Receptor>
prm/blind_docking_60.prm

>  <SCORE>
-6.80851

>  <SCORE.INTER>
-5.26151

>  <SCORE.INTER.CONST>
1

>  <SCORE.INTER.POLAR>
0

>  <SCORE.INTER.ROT>
3

>  <SCORE.INTER.SOLV>
12.4159

>  <SCORE.INTER.VDW>
-13.2463

>  <SCORE.INTER.norm>
-0.328844

>  <SCORE.INTRA>
-1.547

>  <SCORE.INTRA.DIHEDRAL>
-2.0604

>  <SCORE.INTRA.DIHEDRAL.0>
2.21864

>  <SCORE.INTRA.POLAR>
0

>  <SCORE.INTRA.POLAR.0>
0

>  <SCORE.INTRA.REPUL>
0

>  <SCORE.INTRA.REPUL.0>
0

>  <SCORE.INTRA.SOLV>
-0.712751

>  <SCORE.INTRA.SOLV.lig_0>
-58.5963

>  <SCORE.INTRA.VDW>
-0.160423

>  <SCORE.INTRA.VDW.0>
-0.437849

>  <SCORE.INTRA.norm>
-0.0966875

>  <SCORE.RESTR>
0

>  <SCORE.RESTR.CAVITY>
0

>  <SCORE.RESTR.norm>
0

>  <SCORE.SYSTEM>
0

>  <SCORE.SYSTEM.CONST>
0

>  <SCORE.SYSTEM.DIHEDRAL>
0

>  <SCORE.SYSTEM.SOLV>
0

>  <SCORE.SYSTEM.norm>
0

>  <SCORE.heavy>
16

>  <SCORE.norm>
-0.425532

>  <RMSD>
8.942

$$$$
ligand
 OpenBabel11021811463D
libRbt.so/2013.1/901 2013/11/27
 16 16  0  0  0  0  0  0  0  0999 V2000
   51.2508   16.0982    7.1979 P   0  0  2  0  0  0  0  0  0  0  0  0
   52.2700   16.4105    8.2297 O   0  0  0  0  0  0  0  0  0  0  0  0
   51.3595   17.1364    5.9726 O   0  5  0  0  0  0  0  0  0  0  0  0
   49.7747   16.2262    7.8529 O   0  0  0  0  0  0  0  0  0  0  0  0
   53.2533   10.8458    6.0415 C   0  0  2  0  0  0  0  0  0  0  0  0
   52.2743   10.5326    5.0399 O   0  0  0  0  0  0  0  0  0  0  0  0
   53.2503    9.7983    7.1906 C   0  0  2  0  0  0  0  0  0  0  0  0
   53.5083    8.4497    6.6392 N   0  0  0  0  0  0  0  0  0  0  0  0
   51.8724    9.8330    7.8848 C   0  0  1  0  0  0  0  0  0  0  0  0
   51.8382    8.8882    8.9690 O   0  0  0  0  0  0  0  0  0  0  0  0
   51.6483   11.2517    8.4281 C   0  0  2  0  0  0  0  0  0  0  0  0
   50.3662   11.3223    9.0679 O   0  0  0  0  0  0  0  0  0  0  0  0
   51.6960   12.2447    7.2368 C   0  0  2  0  0  0  0  0  0  0  0  0
   52.9912   12.1754    6.5738 O   0  0  0  0  0  0  0  0  0  0  0  0
   51.4866   13.6786    7.7540 C   0  0  0  0  0  0  0  0  0  0  0  0
   51.5159   14.6016    6.6501 O   0  0  0  0  0  0  0  0  0  0  0  0
  1  2  1  1  0  0  0
  1  3  1  0  0  0  0
  1  4  2  0  0  0  0
  1 16  1  0  0  0  0
  5  6  1  6  0  0  0
  5  7  1  0  0  0  0
  5 14  1  0  0  0  0
  7  8  1  6  0  0  0
  7  9  1  0  0  0  0
  9 10  1  1  0  0  0
  9 11  1  0  0  0  0
 11 12  1  6  0  0  0
 11 13  1  0  0  0  0
 13 14  1  0  0  0  0
 13 15  1  1  0  0  0
 15 16  1  0  0  0  0
M  CHG  1   3  -1
M  END
>  <CHROM.1>
-179.39189613,178.30531239,56.82414401,51.82291840,12.80516551,7.28774706
-1.93340764,-0.98827966,2.81593724

>  <Name>
ligand

>  <RI>
0

>  <Rbt.Current_Directory>
/home/itssahil/PROJECTS/Mol_Feturizer/New_Systems/rnas/3B4B

>  <Rbt.Executable>
rbdock ($Id: //depot/dev/client3/rdock/2013.1/src/exe/rbdock.cxx#4 $)

>  <Rbt.Library>
libRbt.so (2013.1, Build901 2013/11/27)

>  <Rbt.Parameter_File>
/export/apps/rDock/src/rDock_2013.1_src/data/scripts/dock_solv.prm

>  <Rbt.Receptor>
prm/pocket_docking_8.prm

>  <SCORE>
-8.40846

>  <SCORE.INTER>
-6.66079

>  <SCORE.INTER.CONST>
1

>  <SCORE.INTER.POLAR>
-0.89963

>  <SCORE.INTER.ROT>
3

>  <SCORE.INTER.SOLV>
12.6421

>  <SCORE.INTER.VDW>
-11.2558

>  <SCORE.INTER.norm>
-0.4163

>  <SCORE.INTRA>
-1.74766

>  <SCORE.INTRA.DIHEDRAL>
-2.18688

>  <SCORE.INTRA.DIHEDRAL.0>
2.21864

>  <SCORE.INTRA.POLAR>
0

>  <SCORE.INTRA.POLAR.0>
0

>  <SCORE.INTRA.REPUL>
0

>  <SCORE.INTRA.REPUL.0>
0

>  <SCORE.INTRA.SOLV>
-1.21068

>  <SCORE.INTRA.SOLV.lig_0>
-58.5963

>  <SCORE.INTRA.VDW>
-0.0488842

>  <SCORE.INTRA.VDW.0>
-0.437849

>  <SCORE.INTRA.norm>
-0.109229

>  <SCORE.RESTR>
0

>  <SCORE.RESTR.CAVITY>
0

>  <SCORE.RESTR.norm>
0

>  <SCORE.SYSTEM>
0

>  <SCORE.SYSTEM.CONST>
0

>  <SCORE.SYSTEM.DIHEDRAL>
0

>  <SCORE.SYSTEM.SOLV>
0

>  <SCORE.SYSTEM.norm>
0

>  <SCORE.heavy>
16

>  <SCORE.norm>
-0.525529

>  <RMSD>
8.988

$$$$
ligand
 OpenBabel11021811463D
libRbt.so/2013.1/901 2013/11/27
 16 16  0  0  0  0  0  0  0  0999 V2000
   52.7077   15.1086    7.4860 P   0  0  2  0  0  0  0  0  0  0  0  0
   53.3200   16.1732    6.6536 O   0  0  0  0  0  0  0  0  0  0  0  0
   51.2143   15.5263    7.9178 O   0  5  0  0  0  0  0  0  0  0  0  0
   53.5944   14.9059    8.8265 O   0  0  0  0  0  0  0  0  0  0  0  0
   53.5649    9.8977    5.3029 C   0  0  2  0  0  0  0  0  0  0  0  0
   52.6855   10.0383    4.1774 O   0  0  0  0  0  0  0  0  0  0  0  0
   53.1826    8.6698    6.1768 C   0  0  2  0  0  0  0  0  0  0  0  0
   53.2171    7.4402    5.3546 N   0  0  0  0  0  0  0  0  0  0  0  0
   51.7636    8.8905    6.7420 C   0  0  1  0  0  0  0  0  0  0  0  0
   51.3819    7.7808    7.5739 O   0  0  0  0  0  0  0  0  0  0  0  0
   51.7780   10.1804    7.5753 C   0  0  2  0  0  0  0  0  0  0  0  0
   50.4667   10.4234    8.1040 O   0  0  0  0  0  0  0  0  0  0  0  0
   52.1975   11.3545    6.6517 C   0  0  2  0  0  0  0  0  0  0  0  0
   53.5249   11.1142    6.1018 O   0  0  0  0  0  0  0  0  0  0  0  0
   52.2329   12.6605    7.4644 C   0  0  0  0  0  0  0  0  0  0  0  0
   52.6477   13.7477    6.6174 O   0  0  0  0  0  0  0  0  0  0  0  0
  1  2  1  6  0  0  0
  1  3  1  0  0  0  0
  1  4  2  0  0  0  0
  1 16  1  0  0  0  0
  5  6  1  6  0  0  0
  5  7  1  0  0  0  0
  5 14  1  0  0  0  0
  7  8  1  6  0  0  0
  7  9  1  0  0  0  0
  9 10  1  1  0  0  0
  9 11  1  0  0  0  0
 11 12  1  6  0  0  0
 11 13  1  0  0  0  0
 13 14  1  0  0  0  0
 13 15  1  1  0  0  0
 15 16  1  0  0  0  0
M  CHG  1   3  -1
M  END
>  <CHROM.1>
178.85874604,-178.97258597,171.97390417,52.47589495,11.83235119,6.86061398
-1.50363636,-0.88636967,-2.88661814

>  <Name>
ligand

>  <RI>
0

>  <Rbt.Current_Directory>
/home/itssahil/PROJECTS/Mol_Feturizer/New_Systems/rnas/3B4B

>  <Rbt.Executable>
rbdock ($Id: //depot/dev/client3/rdock/2013.1/src/exe/rbdock.cxx#4 $)

>  <Rbt.Library>
libRbt.so (2013.1, Build901 2013/11/27)

>  <Rbt.Parameter_File>
/export/apps/rDock/src/rDock_2013.1_src/data/scripts/dock_solv.prm

>  <Rbt.Receptor>
prm/pocket_docking_8.prm

>  <SCORE>
-6.98737

>  <SCORE.INTER>
-5.46433

>  <SCORE.INTER.CONST>
1

>  <SCORE.INTER.POLAR>
0

>  <SCORE.INTER.ROT>
3

>  <SCORE.INTER.SOLV>
11.2267

>  <SCORE.INTER.VDW>
-12.9851

>  <SCORE.INTER.norm>
-0.341521

>  <SCORE.INTRA>
-1.52303

>  <SCORE.INTRA.DIHEDRAL>
-2.10619

>  <SCORE.INTRA.DIHEDRAL.0>
2.21864

>  <SCORE.INTRA.POLAR>
0

>  <SCORE.INTRA.POLAR.0>
0

>  <SCORE.INTRA.REPUL>
0

>  <SCORE.INTRA.REPUL.0>
0

>  <SCORE.INTRA.SOLV>
-0.501699

>  <SCORE.INTRA.SOLV.lig_0>
-58.5963

>  <SCORE.INTRA.VDW>
-0.219087

>  <SCORE.INTRA.VDW.0>
-0.437849

>  <SCORE.INTRA.norm>
-0.0951896

>  <SCORE.RESTR>
0

>  <SCORE.RESTR.CAVITY>
0

>  <SCORE.RESTR.norm>
0

>  <SCORE.SYSTEM>
0

>  <SCORE.SYSTEM.CONST>
0

>  <SCORE.SYSTEM.DIHEDRAL>
0

>  <SCORE.SYSTEM.SOLV>
0

>  <SCORE.SYSTEM.norm>
0

>  <SCORE.heavy>
16

>  <SCORE.norm>
-0.43671

>  <RMSD>
9.453

$$$$
ligand
 OpenBabel11021811463D
libRbt.so/2013.1/901 2013/11/27
 16 16  0  0  0  0  0  0  0  0999 V2000
   54.4167   10.4659   21.6089 P   0  0  2  0  0  0  0  0  0  0  0  0
   54.3003   11.0940   20.2699 O   0  0  0  0  0  0  0  0  0  0  0  0
   54.1195   11.5490   22.7620 O   0  5  0  0  0  0  0  0  0  0  0  0
   55.9240    9.9054   21.8040 O   0  0  0  0  0  0  0  0  0  0  0  0
   51.5966    9.4108   18.0202 C   0  0  2  0  0  0  0  0  0  0  0  0
   52.3410   10.5532   17.5726 O   0  0  0  0  0  0  0  0  0  0  0  0
   50.0642    9.6428   17.8958 C   0  0  2  0  0  0  0  0  0  0  0  0
   49.7170    9.9508   16.4909 N   0  0  0  0  0  0  0  0  0  0  0  0
   49.6689   10.8213   18.8106 C   0  0  1  0  0  0  0  0  0  0  0  0
   48.2513   11.0538   18.7368 O   0  0  0  0  0  0  0  0  0  0  0  0
   50.0590   10.4580   20.2508 C   0  0  2  0  0  0  0  0  0  0  0  0
   49.7180   11.5417   21.1268 O   0  0  0  0  0  0  0  0  0  0  0  0
   51.5898   10.2091   20.2947 C   0  0  2  0  0  0  0  0  0  0  0  0
   51.9490    9.1157   19.4017 O   0  0  0  0  0  0  0  0  0  0  0  0
   52.0081    9.8301   21.7261 C   0  0  0  0  0  0  0  0  0  0  0  0
   53.3343    9.2710   21.7118 O   0  0  0  0  0  0  0  0  0  0  0  0
  1  2  1  6  0  0  0
  1  3  1  0  0  0  0
  1  4  2  0  0  0  0
  1 16  1  0  0  0  0
  5  6  1  1  0  0  0
  5  7  1  0  0  0  0
  5 14  1  0  0  0  0
  7  8  1  6  0  0  0
  7  9  1  0  0  0  0
  9 10  1  1  0  0  0
  9 11  1  0  0  0  0
 11 12  1  1  0  0  0
 11 13  1  0  0  0  0
 13 14  1  0  0  0  0
 13 15  1  1  0  0  0
 15 16  1  0  0  0  0
M  CHG  1   3  -1
M  END
>  <CHROM.1>
165.34824191,78.92128546,-68.15131440,52.05782456,10.33223885,20.06945223
-0.60941513,0.18513362,-1.84354509

>  <Name>
ligand

>  <RI>
0

>  <Rbt.Current_Directory>
/home/itssahil/PROJECTS/Mol_Feturizer/New_Systems/rnas/3B4B

>  <Rbt.Executable>
rbdock ($Id: //depot/dev/client3/rdock/2013.1/src/exe/rbdock.cxx#4 $)

>  <Rbt.Library>
libRbt.so (2013.1, Build901 2013/11/27)

>  <Rbt.Parameter_File>
/export/apps/rDock/src/rDock_2013.1_src/data/scripts/dock_solv.prm

>  <Rbt.Receptor>
prm/blind_docking_100.prm

>  <SCORE>
-8.67246

>  <SCORE.INTER>
-8.65742

>  <SCORE.INTER.CONST>
1

>  <SCORE.INTER.POLAR>
0

>  <SCORE.INTER.ROT>
3

>  <SCORE.INTER.SOLV>
27.2538

>  <SCORE.INTER.VDW>
-20.4562

>  <SCORE.INTER.norm>
-0.541089

>  <SCORE.INTRA>
-0.0418372

>  <SCORE.INTRA.DIHEDRAL>
0.251575

>  <SCORE.INTRA.DIHEDRAL.0>
2.21864

>  <SCORE.INTRA.POLAR>
0

>  <SCORE.INTRA.POLAR.0>
0

>  <SCORE.INTRA.REPUL>
0

>  <SCORE.INTRA.REPUL.0>
0

>  <SCORE.INTRA.SOLV>
0.0387756

>  <SCORE.INTRA.SOLV.lig_0>
-58.5963

>  <SCORE.INTRA.VDW>
-0.187013

>  <SCORE.INTRA.VDW.0>
-0.437849

>  <SCORE.INTRA.norm>
-0.00261482

>  <SCORE.RESTR>
0.0267988

>  <SCORE.RESTR.CAVITY>
0.0267988

>  <SCORE.RESTR.norm>
0.00167493

>  <SCORE.SYSTEM>
0

>  <SCORE.SYSTEM.CONST>
0

>  <SCORE.SYSTEM.DIHEDRAL>
0

>  <SCORE.SYSTEM.SOLV>
0

>  <SCORE.SYSTEM.norm>
0

>  <SCORE.heavy>
16

>  <SCORE.norm>
-0.542028

>  <RMSD>
9.753

$$$$
ligand
 OpenBabel11021811463D
libRbt.so/2013.1/901 2013/11/27
 16 16  0  0  0  0  0  0  0  0999 V2000
   54.2305   10.5778   22.4871 P   0  0  2  0  0  0  0  0  0  0  0  0
   54.7251   11.9214   22.8759 O   0  0  0  0  0  0  0  0  0  0  0  0
   53.7587    9.7575   23.7893 O   0  5  0  0  0  0  0  0  0  0  0  0
   55.4282    9.7582   21.7674 O   0  0  0  0  0  0  0  0  0  0  0  0
   49.0503   11.0478   20.4298 C   0  0  2  0  0  0  0  0  0  0  0  0
   48.1967    9.9128   20.6369 O   0  0  0  0  0  0  0  0  0  0  0  0
   49.2643   11.3331   18.9164 C   0  0  2  0  0  0  0  0  0  0  0  0
   47.9578   11.5598   18.2601 N   0  0  0  0  0  0  0  0  0  0  0  0
   49.9732   10.1180   18.2818 C   0  0  1  0  0  0  0  0  0  0  0  0
   50.2064   10.3539   16.8820 O   0  0  0  0  0  0  0  0  0  0  0  0
   51.3143    9.9186   19.0029 C   0  0  2  0  0  0  0  0  0  0  0  0
   51.9934    8.7845   18.4457 O   0  0  0  0  0  0  0  0  0  0  0  0
   51.0283    9.6721   20.5078 C   0  0  2  0  0  0  0  0  0  0  0  0
   50.3307   10.8145   21.0825 O   0  0  0  0  0  0  0  0  0  0  0  0
   52.3574    9.4811   21.2591 C   0  0  0  0  0  0  0  0  0  0  0  0
   52.9717   10.7618   21.4913 O   0  0  0  0  0  0  0  0  0  0  0  0
  1  2  1  1  0  0  0
  1  3  1  0  0  0  0
  1  4  2  0  0  0  0
  1 16  1  0  0  0  0
  5  6  1  6  0  0  0
  5  7  1  0  0  0  0
  5 14  1  0  0  0  0
  7  8  1  6  0  0  0
  7  9  1  0  0  0  0
  9 10  1  6  0  0  0
  9 11  1  0  0  0  0
 11 12  1  6  0  0  0
 11 13  1  0  0  0  0
 13 14  1  0  0  0  0
 13 15  1  1  0  0  0
 15 16  1  0  0  0  0
M  CHG  1   3  -1
M  END
>  <CHROM.1>
78.54687577,170.64462904,-171.65083901,51.68769554,10.36772008,20.57361591
0.61945410,-0.20568518,1.31425826

>  <Name>
ligand

>  <RI>
0

>  <Rbt.Current_Directory>
/home/itssahil/PROJECTS/Mol_Feturizer/New_Systems/rnas/3B4B

>  <Rbt.Executable>
rbdock ($Id: //depot/dev/client3/rdock/2013.1/src/exe/rbdock.cxx#4 $)

>  <Rbt.Library>
libRbt.so (2013.1, Build901 2013/11/27)

>  <Rbt.Parameter_File>
/export/apps/rDock/src/rDock_2013.1_src/data/scripts/dock_solv.prm

>  <Rbt.Receptor>
prm/blind_docking_100.prm

>  <SCORE>
-5.33889

>  <SCORE.INTER>
-4.71263

>  <SCORE.INTER.CONST>
1

>  <SCORE.INTER.POLAR>
0

>  <SCORE.INTER.ROT>
3

>  <SCORE.INTER.SOLV>
24.7464

>  <SCORE.INTER.VDW>
-16.9906

>  <SCORE.INTER.norm>
-0.29454

>  <SCORE.INTRA>
-0.626253

>  <SCORE.INTRA.DIHEDRAL>
-0.52747

>  <SCORE.INTRA.DIHEDRAL.0>
2.21864

>  <SCORE.INTRA.POLAR>
0

>  <SCORE.INTRA.POLAR.0>
0

>  <SCORE.INTRA.REPUL>
0

>  <SCORE.INTRA.REPUL.0>
0

>  <SCORE.INTRA.SOLV>
-0.282142

>  <SCORE.INTRA.SOLV.lig_0>
-58.5963

>  <SCORE.INTRA.VDW>
-0.221447

>  <SCORE.INTRA.VDW.0>
-0.437849

>  <SCORE.INTRA.norm>
-0.0391408

>  <SCORE.RESTR>
0

>  <SCORE.RESTR.CAVITY>
0

>  <SCORE.RESTR.norm>
0

>  <SCORE.SYSTEM>
0

>  <SCORE.SYSTEM.CONST>
0

>  <SCORE.SYSTEM.DIHEDRAL>
0

>  <SCORE.SYSTEM.SOLV>
0

>  <SCORE.SYSTEM.norm>
0

>  <SCORE.heavy>
16

>  <SCORE.norm>
-0.33368

>  <RMSD>
9.761

$$$$
ligand
 OpenBabel11021811463D
libRbt.so/2013.1/901 2013/11/27
 16 16  0  0  0  0  0  0  0  0999 V2000
   54.4686   10.4663   21.6147 P   0  0  2  0  0  0  0  0  0  0  0  0
   54.3033   11.0820   20.2750 O   0  0  0  0  0  0  0  0  0  0  0  0
   54.2216   11.5622   22.7677 O   0  5  0  0  0  0  0  0  0  0  0  0
   55.9796    9.9000   21.7568 O   0  0  0  0  0  0  0  0  0  0  0  0
   51.5728    9.4031   18.1165 C   0  0  2  0  0  0  0  0  0  0  0  0
   52.3092   10.5420   17.6472 O   0  0  0  0  0  0  0  0  0  0  0  0
   50.0384    9.6367   18.0228 C   0  0  2  0  0  0  0  0  0  0  0  0
   49.6625    9.9373   16.6237 N   0  0  0  0  0  0  0  0  0  0  0  0
   49.6638   10.8209   18.9389 C   0  0  1  0  0  0  0  0  0  0  0  0
   48.2452   11.0551   18.8934 O   0  0  0  0  0  0  0  0  0  0  0  0
   50.0833   10.4652   20.3727 C   0  0  2  0  0  0  0  0  0  0  0  0
   49.7621   11.5543   21.2495 O   0  0  0  0  0  0  0  0  0  0  0  0
   51.6144   10.2143   20.3862 C   0  0  2  0  0  0  0  0  0  0  0  0
   51.9535    9.1154   19.4921 O   0  0  0  0  0  0  0  0  0  0  0  0
   52.0619    9.8428   21.8107 C   0  0  0  0  0  0  0  0  0  0  0  0
   53.3852    9.2781   21.7715 O   0  0  0  0  0  0  0  0  0  0  0  0
  1  2  1  6  0  0  0
  1  3  1  0  0  0  0
  1  4  2  0  0  0  0
  1 16  1  0  0  0  0
  5  6  1  1  0  0  0
  5  7  1  0  0  0  0
  5 14  1  0  0  0  0
  7  8  1  6  0  0  0
  7  9  1  0  0  0  0
  9 10  1  1  0  0  0
  9 11  1  0  0  0  0
 11 12  1  1  0  0  0
 11 13  1  0  0  0  0
 13 14  1  0  0  0  0
 13 15  1  1  0  0  0
 15 16  1  0  0  0  0
M  CHG  1   3  -1
M  END
>  <CHROM.1>
165.18466488,78.06027173,-67.26194204,52.07797634,10.33246559,20.14111531
-0.58409012,0.18023967,-1.85177268

>  <Name>
ligand

>  <RI>
0

>  <Rbt.Current_Directory>
/home/itssahil/PROJECTS/Mol_Feturizer/New_Systems/rnas/3B4B

>  <Rbt.Executable>
rbdock ($Id: //depot/dev/client3/rdock/2013.1/src/exe/rbdock.cxx#4 $)

>  <Rbt.Library>
libRbt.so (2013.1, Build901 2013/11/27)

>  <Rbt.Parameter_File>
/export/apps/rDock/src/rDock_2013.1_src/data/scripts/dock_solv.prm

>  <Rbt.Receptor>
prm/blind_docking_80.prm

>  <SCORE>
-9.08748

>  <SCORE.INTER>
-9.18468

>  <SCORE.INTER.CONST>
1

>  <SCORE.INTER.POLAR>
0

>  <SCORE.INTER.ROT>
3

>  <SCORE.INTER.SOLV>
27.6267

>  <SCORE.INTER.VDW>
-20.932

>  <SCORE.INTER.norm>
-0.574043

>  <SCORE.INTRA>
-0.0522926

>  <SCORE.INTRA.DIHEDRAL>
0.111918

>  <SCORE.INTRA.DIHEDRAL.0>
2.21864

>  <SCORE.INTRA.POLAR>
0

>  <SCORE.INTRA.POLAR.0>
0

>  <SCORE.INTRA.REPUL>
0

>  <SCORE.INTRA.REPUL.0>
0

>  <SCORE.INTRA.SOLV>
0.063736

>  <SCORE.INTRA.SOLV.lig_0>
-58.5963

>  <SCORE.INTRA.VDW>
-0.14012

>  <SCORE.INTRA.VDW.0>
-0.437849

>  <SCORE.INTRA.norm>
-0.00326829

>  <SCORE.RESTR>
0.149496

>  <SCORE.RESTR.CAVITY>
0.149496

>  <SCORE.RESTR.norm>
0.00934347

>  <SCORE.SYSTEM>
0

>  <SCORE.SYSTEM.CONST>
0

>  <SCORE.SYSTEM.DIHEDRAL>
0

>  <SCORE.SYSTEM.SOLV>
0

>  <SCORE.SYSTEM.norm>
0

>  <SCORE.heavy>
16

>  <SCORE.norm>
-0.567967

>  <RMSD>
9.810

$$$$
ligand
 OpenBabel11021811463D
libRbt.so/2013.1/901 2013/11/27
 16 16  0  0  0  0  0  0  0  0999 V2000
   40.0191    8.9844   13.0038 P   0  0  2  0  0  0  0  0  0  0  0  0
   40.9516    7.9267   12.5424 O   0  0  0  0  0  0  0  0  0  0  0  0
   40.8233   10.3459   13.3049 O   0  5  0  0  0  0  0  0  0  0  0  0
   39.2983    8.4982   14.3707 O   0  0  0  0  0  0  0  0  0  0  0  0
   34.4082   10.8248   11.1930 C   0  0  2  0  0  0  0  0  0  0  0  0
   33.9844    9.4783   10.9341 O   0  0  0  0  0  0  0  0  0  0  0  0
   34.7015   11.5950    9.8745 C   0  0  2  0  0  0  0  0  0  0  0  0
   33.4934   11.6031    9.0203 N   0  0  0  0  0  0  0  0  0  0  0  0
   35.8643   10.8925    9.1422 C   0  0  1  0  0  0  0  0  0  0  0  0
   36.1780   11.5900    7.9239 O   0  0  0  0  0  0  0  0  0  0  0  0
   37.0866   10.9003   10.0718 C   0  0  2  0  0  0  0  0  0  0  0  0
   38.1837   10.2395    9.4255 O   0  0  0  0  0  0  0  0  0  0  0  0
   36.7141   10.1463   11.3757 C   0  0  2  0  0  0  0  0  0  0  0  0
   35.5947   10.8039   12.0365 O   0  0  0  0  0  0  0  0  0  0  0  0
   37.9185   10.1492   12.3332 C   0  0  0  0  0  0  0  0  0  0  0  0
   38.9333    9.2563   11.8389 O   0  0  0  0  0  0  0  0  0  0  0  0
  1  2  1  6  0  0  0
  1  3  1  0  0  0  0
  1  4  2  0  0  0  0
  1 16  1  0  0  0  0
  5  6  1  6  0  0  0
  5  7  1  0  0  0  0
  5 14  1  0  0  0  0
  7  8  1  6  0  0  0
  7  9  1  0  0  0  0
  9 10  1  6  0  0  0
  9 11  1  0  0  0  0
 11 12  1  6  0  0  0
 11 13  1  0  0  0  0
 13 14  1  0  0  0  0
 13 15  1  1  0  0  0
 15 16  1  0  0  0  0
M  CHG  1   3  -1
M  END
>  <CHROM.1>
-72.35236861,-166.25284363,172.50255286,37.41011282,10.07956340,11.31553541
0.63793945,-0.13866225,1.93303681

>  <Name>
ligand

>  <RI>
0

>  <Rbt.Current_Directory>
/home/itssahil/PROJECTS/Mol_Feturizer/New_Systems/rnas/3B4B

>  <Rbt.Executable>
rbdock ($Id: //depot/dev/client3/rdock/2013.1/src/exe/rbdock.cxx#4 $)

>  <Rbt.Library>
libRbt.so (2013.1, Build901 2013/11/27)

>  <Rbt.Parameter_File>
/export/apps/rDock/src/rDock_2013.1_src/data/scripts/dock_solv.prm

>  <Rbt.Receptor>
prm/blind_docking_100.prm

>  <SCORE>
-9.35556

>  <SCORE.INTER>
-8.67625

>  <SCORE.INTER.CONST>
1

>  <SCORE.INTER.POLAR>
0

>  <SCORE.INTER.ROT>
3

>  <SCORE.INTER.SOLV>
20.4985

>  <SCORE.INTER.VDW>
-18.217

>  <SCORE.INTER.norm>
-0.542266

>  <SCORE.INTRA>
-0.67931

>  <SCORE.INTRA.DIHEDRAL>
-0.704497

>  <SCORE.INTRA.DIHEDRAL.0>
2.21864

>  <SCORE.INTRA.POLAR>
0

>  <SCORE.INTRA.POLAR.0>
0

>  <SCORE.INTRA.REPUL>
0

>  <SCORE.INTRA.REPUL.0>
0

>  <SCORE.INTRA.SOLV>
-0.205636

>  <SCORE.INTRA.SOLV.lig_0>
-58.5963

>  <SCORE.INTRA.VDW>
-0.224243

>  <SCORE.INTRA.VDW.0>
-0.437849

>  <SCORE.INTRA.norm>
-0.0424568

>  <SCORE.RESTR>
0

>  <SCORE.RESTR.CAVITY>
0

>  <SCORE.RESTR.norm>
0

>  <SCORE.SYSTEM>
0

>  <SCORE.SYSTEM.CONST>
0

>  <SCORE.SYSTEM.DIHEDRAL>
0

>  <SCORE.SYSTEM.SOLV>
0

>  <SCORE.SYSTEM.norm>
0

>  <SCORE.heavy>
16

>  <SCORE.norm>
-0.584722

>  <RMSD>
9.854

$$$$
ligand
 OpenBabel11021811463D
libRbt.so/2013.1/901 2013/11/27
 16 16  0  0  0  0  0  0  0  0999 V2000
   39.8523    8.6742   13.4121 P   0  0  2  0  0  0  0  0  0  0  0  0
   40.7612    8.3070   12.2986 O   0  0  0  0  0  0  0  0  0  0  0  0
   40.3144   10.0664   14.0749 O   0  5  0  0  0  0  0  0  0  0  0  0
   39.9081    7.5194   14.5468 O   0  0  0  0  0  0  0  0  0  0  0  0
   34.6554   10.5331   11.7553 C   0  0  2  0  0  0  0  0  0  0  0  0
   34.2002    9.2495   11.3029 O   0  0  0  0  0  0  0  0  0  0  0  0
   34.5965   11.5932   10.6193 C   0  0  2  0  0  0  0  0  0  0  0  0
   33.2125   11.7018   10.1074 N   0  0  0  0  0  0  0  0  0  0  0  0
   35.5483   11.1543    9.4865 C   0  0  1  0  0  0  0  0  0  0  0  0
   35.5354   12.1230    8.4232 O   0  0  0  0  0  0  0  0  0  0  0  0
   36.9647   11.0456   10.0697 C   0  0  2  0  0  0  0  0  0  0  0  0
   37.8739   10.6237    9.0434 O   0  0  0  0  0  0  0  0  0  0  0  0
   36.9431    9.9988   11.2148 C   0  0  2  0  0  0  0  0  0  0  0  0
   36.0160   10.4129   12.2594 O   0  0  0  0  0  0  0  0  0  0  0  0
   38.3493    9.8780   11.8276 C   0  0  0  0  0  0  0  0  0  0  0  0
   38.3571    8.8380   12.8224 O   0  0  0  0  0  0  0  0  0  0  0  0
  1  2  1  6  0  0  0
  1  3  1  0  0  0  0
  1  4  2  0  0  0  0
  1 16  1  0  0  0  0
  5  6  1  6  0  0  0
  5  7  1  0  0  0  0
  5 14  1  0  0  0  0
  7  8  1  6  0  0  0
  7  9  1  0  0  0  0
  9 10  1  6  0  0  0
  9 11  1  0  0  0  0
 11 12  1  6  0  0  0
 11 13  1  0  0  0  0
 13 14  1  0  0  0  0
 13 15  1  1  0  0  0
 15 16  1  0  0  0  0
M  CHG  1   3  -1
M  END
>  <CHROM.1>
-175.76134209,177.48411913,-60.41176774,37.33227130,9.96670865,11.62682453
0.69626981,-0.12350919,2.06197963

>  <Name>
ligand

>  <RI>
0

>  <Rbt.Current_Directory>
/home/itssahil/PROJECTS/Mol_Feturizer/New_Systems/rnas/3B4B

>  <Rbt.Executable>
rbdock ($Id: //depot/dev/client3/rdock/2013.1/src/exe/rbdock.cxx#4 $)

>  <Rbt.Library>
libRbt.so (2013.1, Build901 2013/11/27)

>  <Rbt.Parameter_File>
/export/apps/rDock/src/rDock_2013.1_src/data/scripts/dock_solv.prm

>  <Rbt.Receptor>
prm/blind_docking_100.prm

>  <SCORE>
-11.436

>  <SCORE.INTER>
-9.73122

>  <SCORE.INTER.CONST>
1

>  <SCORE.INTER.POLAR>
0

>  <SCORE.INTER.ROT>
3

>  <SCORE.INTER.SOLV>
22.0198

>  <SCORE.INTER.VDW>
-19.4274

>  <SCORE.INTER.norm>
-0.608201

>  <SCORE.INTRA>
-1.70474

>  <SCORE.INTRA.DIHEDRAL>
-2.12141

>  <SCORE.INTRA.DIHEDRAL.0>
2.21864

>  <SCORE.INTRA.POLAR>
0

>  <SCORE.INTRA.POLAR.0>
0

>  <SCORE.INTRA.REPUL>
0

>  <SCORE.INTRA.REPUL.0>
0

>  <SCORE.INTRA.SOLV>
-1.18069

>  <SCORE.INTRA.SOLV.lig_0>
-58.5963

>  <SCORE.INTRA.VDW>
-0.0536894

>  <SCORE.INTRA.VDW.0>
-0.437849

>  <SCORE.INTRA.norm>
-0.106546

>  <SCORE.RESTR>
0

>  <SCORE.RESTR.CAVITY>
0

>  <SCORE.RESTR.norm>
0

>  <SCORE.SYSTEM>
0

>  <SCORE.SYSTEM.CONST>
0

>  <SCORE.SYSTEM.DIHEDRAL>
0

>  <SCORE.SYSTEM.SOLV>
0

>  <SCORE.SYSTEM.norm>
0

>  <SCORE.heavy>
16

>  <SCORE.norm>
-0.714747

>  <RMSD>
9.856

$$$$
ligand
 OpenBabel11021811463D
libRbt.so/2013.1/901 2013/11/27
 16 16  0  0  0  0  0  0  0  0999 V2000
   39.7760    9.1647   13.1282 P   0  0  2  0  0  0  0  0  0  0  0  0
   39.0261    8.4960   14.2198 O   0  0  0  0  0  0  0  0  0  0  0  0
   41.0216    8.2554   12.6672 O   0  5  0  0  0  0  0  0  0  0  0  0
   40.3441   10.5836   13.6651 O   0  0  0  0  0  0  0  0  0  0  0  0
   34.3870   11.0490   10.7287 C   0  0  2  0  0  0  0  0  0  0  0  0
   33.9063    9.7091   10.5465 O   0  0  0  0  0  0  0  0  0  0  0  0
   34.8418   11.6808    9.3828 C   0  0  2  0  0  0  0  0  0  0  0  0
   33.7165   11.6762    8.4221 N   0  0  0  0  0  0  0  0  0  0  0  0
   36.0196   10.8546    8.8242 C   0  0  1  0  0  0  0  0  0  0  0  0
   36.4815   11.4220    7.5856 O   0  0  0  0  0  0  0  0  0  0  0  0
   37.1535   10.8811    9.8596 C   0  0  2  0  0  0  0  0  0  0  0  0
   38.2608   10.1075    9.3766 O   0  0  0  0  0  0  0  0  0  0  0  0
   36.6221   10.2682   11.1823 C   0  0  2  0  0  0  0  0  0  0  0  0
   35.4911   11.0411   11.6778 O   0  0  0  0  0  0  0  0  0  0  0  0
   37.7354   10.2933   12.2441 C   0  0  0  0  0  0  0  0  0  0  0  0
   38.7796    9.3746   11.8738 O   0  0  0  0  0  0  0  0  0  0  0  0
  1  2  1  1  0  0  0
  1  3  1  0  0  0  0
  1  4  2  0  0  0  0
  1 16  1  0  0  0  0
  5  6  1  6  0  0  0
  5  7  1  0  0  0  0
  5 14  1  0  0  0  0
  7  8  1  6  0  0  0
  7  9  1  0  0  0  0
  9 10  1  6  0  0  0
  9 11  1  0  0  0  0
 11 12  1  6  0  0  0
 11 13  1  0  0  0  0
 13 14  1  0  0  0  0
 13 15  1  1  0  0  0
 15 16  1  0  0  0  0
M  CHG  1   3  -1
M  END
>  <CHROM.1>
-68.29256466,-167.79231498,65.33094073,37.35494957,10.18712556,11.15736747
0.71128767,-0.16728503,1.84304087

>  <Name>
ligand

>  <RI>
0

>  <Rbt.Current_Directory>
/home/itssahil/PROJECTS/Mol_Feturizer/New_Systems/rnas/3B4B

>  <Rbt.Executable>
rbdock ($Id: //depot/dev/client3/rdock/2013.1/src/exe/rbdock.cxx#4 $)

>  <Rbt.Library>
libRbt.so (2013.1, Build901 2013/11/27)

>  <Rbt.Parameter_File>
/export/apps/rDock/src/rDock_2013.1_src/data/scripts/dock_solv.prm

>  <Rbt.Receptor>
prm/blind_docking_80.prm

>  <SCORE>
-9.22763

>  <SCORE.INTER>
-8.18304

>  <SCORE.INTER.CONST>
1

>  <SCORE.INTER.POLAR>
0

>  <SCORE.INTER.ROT>
3

>  <SCORE.INTER.SOLV>
21.5789

>  <SCORE.INTER.VDW>
-18.2483

>  <SCORE.INTER.norm>
-0.51144

>  <SCORE.INTRA>
-1.04459

>  <SCORE.INTRA.DIHEDRAL>
-1.21567

>  <SCORE.INTRA.DIHEDRAL.0>
2.21864

>  <SCORE.INTRA.POLAR>
0

>  <SCORE.INTRA.POLAR.0>
0

>  <SCORE.INTRA.REPUL>
0

>  <SCORE.INTRA.REPUL.0>
0

>  <SCORE.INTRA.SOLV>
-0.817793

>  <SCORE.INTRA.SOLV.lig_0>
-58.5963

>  <SCORE.INTRA.VDW>
-0.0278602

>  <SCORE.INTRA.VDW.0>
-0.437849

>  <SCORE.INTRA.norm>
-0.0652868

>  <SCORE.RESTR>
0

>  <SCORE.RESTR.CAVITY>
0

>  <SCORE.RESTR.norm>
0

>  <SCORE.SYSTEM>
0

>  <SCORE.SYSTEM.CONST>
0

>  <SCORE.SYSTEM.DIHEDRAL>
0

>  <SCORE.SYSTEM.SOLV>
0

>  <SCORE.SYSTEM.norm>
0

>  <SCORE.heavy>
16

>  <SCORE.norm>
-0.576727

>  <RMSD>
9.990

$$$$
ligand
 OpenBabel11021811463D
libRbt.so/2013.1/901 2013/11/27
 16 16  0  0  0  0  0  0  0  0999 V2000
   40.2134    9.5004   13.2863 P   0  0  2  0  0  0  0  0  0  0  0  0
   40.7218    9.0838   11.9563 O   0  0  0  0  0  0  0  0  0  0  0  0
   41.3045   10.4120   14.0412 O   0  5  0  0  0  0  0  0  0  0  0  0
   39.9325    8.1821   14.1848 O   0  0  0  0  0  0  0  0  0  0  0  0
   35.0562   11.8892   12.9480 C   0  0  2  0  0  0  0  0  0  0  0  0
   34.7143   11.4201   14.2605 O   0  0  0  0  0  0  0  0  0  0  0  0
   34.0497   11.3786   11.8785 C   0  0  2  0  0  0  0  0  0  0  0  0
   32.6810   11.8179   12.2292 N   0  0  0  0  0  0  0  0  0  0  0  0
   34.1173    9.8374   11.8349 C   0  0  1  0  0  0  0  0  0  0  0  0
   33.2114    9.3281   10.8404 O   0  0  0  0  0  0  0  0  0  0  0  0
   35.5556    9.4335   11.4793 C   0  0  2  0  0  0  0  0  0  0  0  0
   35.6566    8.0029   11.4454 O   0  0  0  0  0  0  0  0  0  0  0  0
   36.5060   10.0014   12.5664 C   0  0  2  0  0  0  0  0  0  0  0  0
   36.4053   11.4538   12.6158 O   0  0  0  0  0  0  0  0  0  0  0  0
   37.9584    9.6222   12.2285 C   0  0  0  0  0  0  0  0  0  0  0  0
   38.8610   10.3584   13.0740 O   0  0  0  0  0  0  0  0  0  0  0  0
  1  2  1  6  0  0  0
  1  3  1  0  0  0  0
  1  4  2  0  0  0  0
  1 16  1  0  0  0  0
  5  6  1  1  0  0  0
  5  7  1  0  0  0  0
  5 14  1  0  0  0  0
  7  8  1  1  0  0  0
  7  9  1  0  0  0  0
  9 10  1  6  0  0  0
  9 11  1  0  0  0  0
 11 12  1  1  0  0  0
 11 13  1  0  0  0  0
 13 14  1  0  0  0  0
 13 15  1  6  0  0  0
 15 16  1  0  0  0  0
M  CHG  1   3  -1
M  END
>  <CHROM.1>
168.73615547,151.48612662,51.20672752,37.01156891,10.03815826,12.62735296
-0.04287912,-0.26009378,0.58155758

>  <Name>
ligand

>  <RI>
0

>  <Rbt.Current_Directory>
/home/itssahil/PROJECTS/Mol_Feturizer/New_Systems/rnas/3B4B

>  <Rbt.Executable>
rbdock ($Id: //depot/dev/client3/rdock/2013.1/src/exe/rbdock.cxx#4 $)

>  <Rbt.Library>
libRbt.so (2013.1, Build901 2013/11/27)

>  <Rbt.Parameter_File>
/export/apps/rDock/src/rDock_2013.1_src/data/scripts/dock_solv.prm

>  <Rbt.Receptor>
prm/blind_docking_60.prm

>  <SCORE>
-8.98244

>  <SCORE.INTER>
-9.37521

>  <SCORE.INTER.CONST>
1

>  <SCORE.INTER.POLAR>
0

>  <SCORE.INTER.ROT>
3

>  <SCORE.INTER.SOLV>
23.5764

>  <SCORE.INTER.VDW>
-19.7089

>  <SCORE.INTER.norm>
-0.58595

>  <SCORE.INTRA>
0.392765

>  <SCORE.INTRA.DIHEDRAL>
1.66891

>  <SCORE.INTRA.DIHEDRAL.0>
2.21864

>  <SCORE.INTRA.POLAR>
0

>  <SCORE.INTRA.POLAR.0>
0

>  <SCORE.INTRA.REPUL>
0

>  <SCORE.INTRA.REPUL.0>
0

>  <SCORE.INTRA.SOLV>
-1.08479

>  <SCORE.INTRA.SOLV.lig_0>
-58.5963

>  <SCORE.INTRA.VDW>
0.100703

>  <SCORE.INTRA.VDW.0>
-0.437849

>  <SCORE.INTRA.norm>
0.0245478

>  <SCORE.RESTR>
0

>  <SCORE.RESTR.CAVITY>
0

>  <SCORE.RESTR.norm>
0

>  <SCORE.SYSTEM>
0

>  <SCORE.SYSTEM.CONST>
0

>  <SCORE.SYSTEM.DIHEDRAL>
0

>  <SCORE.SYSTEM.SOLV>
0

>  <SCORE.SYSTEM.norm>
0

>  <SCORE.heavy>
16

>  <SCORE.norm>
-0.561403

>  <RMSD>
10.084

$$$$
ligand
 OpenBabel11021811463D
libRbt.so/2013.1/901 2013/11/27
 16 16  0  0  0  0  0  0  0  0999 V2000
   39.7672    8.9706   12.9886 P   0  0  2  0  0  0  0  0  0  0  0  0
   40.9034    8.1547   12.4942 O   0  0  0  0  0  0  0  0  0  0  0  0
   40.2894   10.0865   14.0244 O   0  5  0  0  0  0  0  0  0  0  0  0
   38.7150    8.0070   13.7559 O   0  0  0  0  0  0  0  0  0  0  0  0
   36.6535   10.6526    8.5380 C   0  0  2  0  0  0  0  0  0  0  0  0
   37.3388   11.8848    8.2700 O   0  0  0  0  0  0  0  0  0  0  0  0
   35.1316   10.8816    8.7589 C   0  0  2  0  0  0  0  0  0  0  0  0
   34.5455   11.5344    7.5674 N   0  0  0  0  0  0  0  0  0  0  0  0
   34.9438   11.7778   10.0012 C   0  0  1  0  0  0  0  0  0  0  0  0
   33.5438   11.9962   10.2493 O   0  0  0  0  0  0  0  0  0  0  0  0
   35.5767   11.0633   11.2042 C   0  0  2  0  0  0  0  0  0  0  0  0
   35.4325   11.8788   12.3755 O   0  0  0  0  0  0  0  0  0  0  0  0
   37.0821   10.8386   10.9029 C   0  0  2  0  0  0  0  0  0  0  0  0
   37.2409   10.0184    9.7096 O   0  0  0  0  0  0  0  0  0  0  0  0
   37.7407   10.1117   12.0882 C   0  0  0  0  0  0  0  0  0  0  0  0
   39.0722    9.7020   11.7267 O   0  0  0  0  0  0  0  0  0  0  0  0
  1  2  1  6  0  0  0
  1  3  1  0  0  0  0
  1  4  2  0  0  0  0
  1 16  1  0  0  0  0
  5  6  1  1  0  0  0
  5  7  1  0  0  0  0
  5 14  1  0  0  0  0
  7  8  1  6  0  0  0
  7  9  1  0  0  0  0
  9 10  1  1  0  0  0
  9 11  1  0  0  0  0
 11 12  1  1  0  0  0
 11 13  1  0  0  0  0
 13 14  1  0  0  0  0
 13 15  1  1  0  0  0
 15 16  1  0  0  0  0
M  CHG  1   3  -1
M  END
>  <CHROM.1>
170.40325660,178.69149995,160.53082421,37.36979689,10.34394027,11.11752412
-0.65616425,0.45655942,-1.50394343

>  <Name>
ligand

>  <RI>
0

>  <Rbt.Current_Directory>
/home/itssahil/PROJECTS/Mol_Feturizer/New_Systems/rnas/3B4B

>  <Rbt.Executable>
rbdock ($Id: //depot/dev/client3/rdock/2013.1/src/exe/rbdock.cxx#4 $)

>  <Rbt.Library>
libRbt.so (2013.1, Build901 2013/11/27)

>  <Rbt.Parameter_File>
/export/apps/rDock/src/rDock_2013.1_src/data/scripts/dock_solv.prm

>  <Rbt.Receptor>
prm/blind_docking_100.prm

>  <SCORE>
-10.7551

>  <SCORE.INTER>
-9.81038

>  <SCORE.INTER.CONST>
1

>  <SCORE.INTER.POLAR>
0

>  <SCORE.INTER.ROT>
3

>  <SCORE.INTER.SOLV>
22.2901

>  <SCORE.INTER.VDW>
-19.5703

>  <SCORE.INTER.norm>
-0.613149

>  <SCORE.INTRA>
-0.944685

>  <SCORE.INTRA.DIHEDRAL>
-1.31809

>  <SCORE.INTRA.DIHEDRAL.0>
2.21864

>  <SCORE.INTRA.POLAR>
0

>  <SCORE.INTRA.POLAR.0>
0

>  <SCORE.INTRA.REPUL>
0

>  <SCORE.INTRA.REPUL.0>
0

>  <SCORE.INTRA.SOLV>
-0.502868

>  <SCORE.INTRA.SOLV.lig_0>
-58.5963

>  <SCORE.INTRA.VDW>
-0.0342043

>  <SCORE.INTRA.VDW.0>
-0.437849

>  <SCORE.INTRA.norm>
-0.0590428

>  <SCORE.RESTR>
0

>  <SCORE.RESTR.CAVITY>
0

>  <SCORE.RESTR.norm>
0

>  <SCORE.SYSTEM>
0

>  <SCORE.SYSTEM.CONST>
0

>  <SCORE.SYSTEM.DIHEDRAL>
0

>  <SCORE.SYSTEM.SOLV>
0

>  <SCORE.SYSTEM.norm>
0

>  <SCORE.heavy>
16

>  <SCORE.norm>
-0.672191

>  <RMSD>
10.102

$$$$
ligand
 OpenBabel11021811463D
libRbt.so/2013.1/901 2013/11/27
 16 16  0  0  0  0  0  0  0  0999 V2000
   39.7761    9.6173   13.0421 P   0  0  2  0  0  0  0  0  0  0  0  0
   40.4991    9.1359   11.8393 O   0  0  0  0  0  0  0  0  0  0  0  0
   40.7178   10.5963   13.9057 O   0  5  0  0  0  0  0  0  0  0  0  0
   39.3709    8.3474   13.9625 O   0  0  0  0  0  0  0  0  0  0  0  0
   34.1176    9.9888   10.4792 C   0  0  2  0  0  0  0  0  0  0  0  0
   34.4484   10.9959    9.5118 O   0  0  0  0  0  0  0  0  0  0  0  0
   33.3527   10.5906   11.6918 C   0  0  2  0  0  0  0  0  0  0  0  0
   32.1204   11.2621   11.2230 N   0  0  0  0  0  0  0  0  0  0  0  0
   34.2739   11.6065   12.3999 C   0  0  1  0  0  0  0  0  0  0  0  0
   33.6057   12.1715   13.5417 O   0  0  0  0  0  0  0  0  0  0  0  0
   35.5391   10.8652   12.8558 C   0  0  2  0  0  0  0  0  0  0  0  0
   36.4257   11.7867   13.5060 O   0  0  0  0  0  0  0  0  0  0  0  0
   36.2318   10.2648   11.6039 C   0  0  2  0  0  0  0  0  0  0  0  0
   35.3370    9.3334   10.9302 O   0  0  0  0  0  0  0  0  0  0  0  0
   37.4985    9.5038   12.0327 C   0  0  0  0  0  0  0  0  0  0  0  0
   38.4646   10.4298   12.5625 O   0  0  0  0  0  0  0  0  0  0  0  0
  1  2  1  6  0  0  0
  1  3  1  0  0  0  0
  1  4  2  0  0  0  0
  1 16  1  0  0  0  0
  5  6  1  6  0  0  0
  5  7  1  0  0  0  0
  5 14  1  0  0  0  0
  7  8  1  6  0  0  0
  7  9  1  0  0  0  0
  9 10  1  1  0  0  0
  9 11  1  0  0  0  0
 11 12  1  6  0  0  0
 11 13  1  0  0  0  0
 13 14  1  0  0  0  0
 13 15  1  1  0  0  0
 15 16  1  0  0  0  0
M  CHG  1   3  -1
M  END
>  <CHROM.1>
-66.14420738,178.65887497,71.40658977,36.68671643,10.34423427,12.27523454
-0.09529388,0.32314152,-2.11357384

>  <Name>
ligand

>  <RI>
0

>  <Rbt.Current_Directory>
/home/itssahil/PROJECTS/Mol_Feturizer/New_Systems/rnas/3B4B

>  <Rbt.Executable>
rbdock ($Id: //depot/dev/client3/rdock/2013.1/src/exe/rbdock.cxx#4 $)

>  <Rbt.Library>
libRbt.so (2013.1, Build901 2013/11/27)

>  <Rbt.Parameter_File>
/export/apps/rDock/src/rDock_2013.1_src/data/scripts/dock_solv.prm

>  <Rbt.Receptor>
prm/blind_docking_80.prm

>  <SCORE>
-9.79562

>  <SCORE.INTER>
-8.55476

>  <SCORE.INTER.CONST>
1

>  <SCORE.INTER.POLAR>
0

>  <SCORE.INTER.ROT>
3

>  <SCORE.INTER.SOLV>
20.5217

>  <SCORE.INTER.VDW>
-18.1437

>  <SCORE.INTER.norm>
-0.534673

>  <SCORE.INTRA>
-1.24086

>  <SCORE.INTRA.DIHEDRAL>
-1.86387

>  <SCORE.INTRA.DIHEDRAL.0>
2.21864

>  <SCORE.INTRA.POLAR>
0

>  <SCORE.INTRA.POLAR.0>
0

>  <SCORE.INTRA.REPUL>
0

>  <SCORE.INTRA.REPUL.0>
0

>  <SCORE.INTRA.SOLV>
-0.580236

>  <SCORE.INTRA.SOLV.lig_0>
-58.5963

>  <SCORE.INTRA.VDW>
-0.0188081

>  <SCORE.INTRA.VDW.0>
-0.437849

>  <SCORE.INTRA.norm>
-0.0775537

>  <SCORE.RESTR>
0

>  <SCORE.RESTR.CAVITY>
0

>  <SCORE.RESTR.norm>
0

>  <SCORE.SYSTEM>
0

>  <SCORE.SYSTEM.CONST>
0

>  <SCORE.SYSTEM.DIHEDRAL>
0

>  <SCORE.SYSTEM.SOLV>
0

>  <SCORE.SYSTEM.norm>
0

>  <SCORE.heavy>
16

>  <SCORE.norm>
-0.612226

>  <RMSD>
10.444

$$$$
ligand
 OpenBabel11021811463D
libRbt.so/2013.1/901 2013/11/27
 16 16  0  0  0  0  0  0  0  0999 V2000
   54.2199   10.2372   23.4470 P   0  0  2  0  0  0  0  0  0  0  0  0
   55.1221    9.1542   22.9841 O   0  0  0  0  0  0  0  0  0  0  0  0
   55.0770   11.4588   24.0506 O   0  5  0  0  0  0  0  0  0  0  0  0
   53.2520    9.6614   24.6114 O   0  0  0  0  0  0  0  0  0  0  0  0
   51.4041    9.4239   18.0597 C   0  0  2  0  0  0  0  0  0  0  0  0
   52.0996   10.5425   17.4898 O   0  0  0  0  0  0  0  0  0  0  0  0
   49.9009    9.7449   18.2939 C   0  0  2  0  0  0  0  0  0  0  0  0
   49.2667   10.1330   17.0147 N   0  0  0  0  0  0  0  0  0  0  0  0
   49.7969   10.9017   19.3101 C   0  0  1  0  0  0  0  0  0  0  0  0
   48.4167   11.2146   19.5675 O   0  0  0  0  0  0  0  0  0  0  0  0
   50.4772   10.4546   20.6122 C   0  0  2  0  0  0  0  0  0  0  0  0
   50.4114   11.5156   21.5755 O   0  0  0  0  0  0  0  0  0  0  0  0
   51.9598   10.1204   20.2996 C   0  0  2  0  0  0  0  0  0  0  0  0
   52.0389    9.0494   19.3153 O   0  0  0  0  0  0  0  0  0  0  0  0
   52.6646    9.6564   21.5862 C   0  0  0  0  0  0  0  0  0  0  0  0
   53.3605   10.7649   22.1848 O   0  0  0  0  0  0  0  0  0  0  0  0
  1  2  1  6  0  0  0
  1  3  1  0  0  0  0
  1  4  2  0  0  0  0
  1 16  1  0  0  0  0
  5  6  1  1  0  0  0
  5  7  1  0  0  0  0
  5 14  1  0  0  0  0
  7  8  1  6  0  0  0
  7  9  1  0  0  0  0
  9 10  1  1  0  0  0
  9 11  1  0  0  0  0
 11 12  1  1  0  0  0
 11 13  1  0  0  0  0
 13 14  1  0  0  0  0
 13 15  1  1  0  0  0
 15 16  1  0  0  0  0
M  CHG  1   3  -1
M  END
>  <CHROM.1>
-96.45530620,-174.21104873,55.78095555,52.06397899,10.26408264,20.91661378
-0.83442341,0.34038796,-1.84921276

>  <Name>
ligand

>  <RI>
0

>  <Rbt.Current_Directory>
/home/itssahil/PROJECTS/Mol_Feturizer/New_Systems/rnas/3B4B

>  <Rbt.Executable>
rbdock ($Id: //depot/dev/client3/rdock/2013.1/src/exe/rbdock.cxx#4 $)

>  <Rbt.Library>
libRbt.so (2013.1, Build901 2013/11/27)

>  <Rbt.Parameter_File>
/export/apps/rDock/src/rDock_2013.1_src/data/scripts/dock_solv.prm

>  <Rbt.Receptor>
prm/blind_docking_80.prm

>  <SCORE>
-5.5419

>  <SCORE.INTER>
-5.5073

>  <SCORE.INTER.CONST>
1

>  <SCORE.INTER.POLAR>
0

>  <SCORE.INTER.ROT>
3

>  <SCORE.INTER.SOLV>
20.7202

>  <SCORE.INTER.VDW>
-16.1783

>  <SCORE.INTER.norm>
-0.344206

>  <SCORE.INTRA>
-0.0345942

>  <SCORE.INTRA.DIHEDRAL>
1.48612

>  <SCORE.INTRA.DIHEDRAL.0>
2.21864

>  <SCORE.INTRA.POLAR>
0

>  <SCORE.INTRA.POLAR.0>
0

>  <SCORE.INTRA.REPUL>
0

>  <SCORE.INTRA.REPUL.0>
0

>  <SCORE.INTRA.SOLV>
-1.17844

>  <SCORE.INTRA.SOLV.lig_0>
-58.5963

>  <SCORE.INTRA.VDW>
-0.188434

>  <SCORE.INTRA.VDW.0>
-0.437849

>  <SCORE.INTRA.norm>
-0.00216214

>  <SCORE.RESTR>
0

>  <SCORE.RESTR.CAVITY>
0

>  <SCORE.RESTR.norm>
0

>  <SCORE.SYSTEM>
0

>  <SCORE.SYSTEM.CONST>
0

>  <SCORE.SYSTEM.DIHEDRAL>
0

>  <SCORE.SYSTEM.SOLV>
0

>  <SCORE.SYSTEM.norm>
0

>  <SCORE.heavy>
16

>  <SCORE.norm>
-0.346369

>  <RMSD>
10.480

$$$$
ligand
 OpenBabel11021811463D
libRbt.so/2013.1/901 2013/11/27
 16 16  0  0  0  0  0  0  0  0999 V2000
   48.9796   10.2798   19.7113 P   0  0  2  0  0  0  0  0  0  0  0  0
   47.6377   10.7349   20.1509 O   0  0  0  0  0  0  0  0  0  0  0  0
   49.3581   10.9427   18.2942 O   0  5  0  0  0  0  0  0  0  0  0  0
   48.9648    8.6691   19.5396 O   0  0  0  0  0  0  0  0  0  0  0  0
   52.9701   10.1288   23.8878 C   0  0  2  0  0  0  0  0  0  0  0  0
   52.8558   11.5235   24.2063 O   0  0  0  0  0  0  0  0  0  0  0  0
   54.4226    9.7532   23.4793 C   0  0  2  0  0  0  0  0  0  0  0  0
   55.3555   10.0973   24.5749 N   0  0  0  0  0  0  0  0  0  0  0  0
   54.7927   10.5360   22.2018 C   0  0  1  0  0  0  0  0  0  0  0  0
   56.1264   10.1989   21.7812 O   0  0  0  0  0  0  0  0  0  0  0  0
   53.7916   10.1536   21.1019 C   0  0  2  0  0  0  0  0  0  0  0  0
   54.0991   10.8773   19.9021 O   0  0  0  0  0  0  0  0  0  0  0  0
   52.3656   10.5248   21.5881 C   0  0  2  0  0  0  0  0  0  0  0  0
   52.0456    9.8019   22.8116 O   0  0  0  0  0  0  0  0  0  0  0  0
   51.3383   10.1405   20.5091 C   0  0  0  0  0  0  0  0  0  0  0  0
   50.0651   10.7366   20.8174 O   0  0  0  0  0  0  0  0  0  0  0  0
  1  2  1  1  0  0  0
  1  3  1  0  0  0  0
  1  4  2  0  0  0  0
  1 16  1  0  0  0  0
  5  6  1  6  0  0  0
  5  7  1  0  0  0  0
  5 14  1  0  0  0  0
  7  8  1  1  0  0  0
  7  9  1  0  0  0  0
  9 10  1  6  0  0  0
  9 11  1  0  0  0  0
 11 12  1  6  0  0  0
 11 13  1  0  0  0  0
 13 14  1  0  0  0  0
 13 15  1  6  0  0  0
 15 16  1  0  0  0  0
M  CHG  1   3  -1
M  END
>  <CHROM.1>
-167.57130755,-177.77958566,171.75807308,51.90169372,10.32539379,21.35631696
2.60247103,-0.00986618,-1.57488911

>  <Name>
ligand

>  <RI>
0

>  <Rbt.Current_Directory>
/home/itssahil/PROJECTS/Mol_Feturizer/New_Systems/rnas/3B4B

>  <Rbt.Executable>
rbdock ($Id: //depot/dev/client3/rdock/2013.1/src/exe/rbdock.cxx#4 $)

>  <Rbt.Library>
libRbt.so (2013.1, Build901 2013/11/27)

>  <Rbt.Parameter_File>
/export/apps/rDock/src/rDock_2013.1_src/data/scripts/dock_solv.prm

>  <Rbt.Receptor>
prm/blind_docking_80.prm

>  <SCORE>
-13.2577

>  <SCORE.INTER>
-11.9719

>  <SCORE.INTER.CONST>
1

>  <SCORE.INTER.POLAR>
0

>  <SCORE.INTER.ROT>
3

>  <SCORE.INTER.SOLV>
23.5901

>  <SCORE.INTER.VDW>
-21.4446

>  <SCORE.INTER.norm>
-0.748244

>  <SCORE.INTRA>
-1.28575

>  <SCORE.INTRA.DIHEDRAL>
-1.54495

>  <SCORE.INTRA.DIHEDRAL.0>
2.21864

>  <SCORE.INTRA.POLAR>
0

>  <SCORE.INTRA.POLAR.0>
0

>  <SCORE.INTRA.REPUL>
0

>  <SCORE.INTRA.REPUL.0>
0

>  <SCORE.INTRA.SOLV>
-0.539434

>  <SCORE.INTRA.SOLV.lig_0>
-58.5963

>  <SCORE.INTRA.VDW>
-0.24356

>  <SCORE.INTRA.VDW.0>
-0.437849

>  <SCORE.INTRA.norm>
-0.0803596

>  <SCORE.RESTR>
0

>  <SCORE.RESTR.CAVITY>
0

>  <SCORE.RESTR.norm>
0

>  <SCORE.SYSTEM>
0

>  <SCORE.SYSTEM.CONST>
0

>  <SCORE.SYSTEM.DIHEDRAL>
0

>  <SCORE.SYSTEM.SOLV>
0

>  <SCORE.SYSTEM.norm>
0

>  <SCORE.heavy>
16

>  <SCORE.norm>
-0.828603

>  <RMSD>
12.004

$$$$
ligand
 OpenBabel11021811463D
libRbt.so/2013.1/901 2013/11/27
 16 16  0  0  0  0  0  0  0  0999 V2000
   49.6718   10.3013   19.3992 P   0  0  2  0  0  0  0  0  0  0  0  0
   48.5402   11.2435   19.2183 O   0  0  0  0  0  0  0  0  0  0  0  0
   50.6124   10.3001   18.0929 O   0  5  0  0  0  0  0  0  0  0  0  0
   49.0887    8.8056   19.6161 O   0  0  0  0  0  0  0  0  0  0  0  0
   52.6396   10.4540   24.3501 C   0  0  2  0  0  0  0  0  0  0  0  0
   52.7013   11.8866   24.4075 O   0  0  0  0  0  0  0  0  0  0  0  0
   54.0594    9.8202   24.3566 C   0  0  2  0  0  0  0  0  0  0  0  0
   54.7912   10.2441   25.5706 N   0  0  0  0  0  0  0  0  0  0  0  0
   54.8127   10.2870   23.0930 C   0  0  1  0  0  0  0  0  0  0  0  0
   56.1271    9.7038   23.0541 O   0  0  0  0  0  0  0  0  0  0  0  0
   54.0095    9.8339   21.8650 C   0  0  2  0  0  0  0  0  0  0  0  0
   54.6763   10.2664   20.6707 O   0  0  0  0  0  0  0  0  0  0  0  0
   52.5985   10.4749   21.9399 C   0  0  2  0  0  0  0  0  0  0  0  0
   51.9149   10.0494   23.1539 O   0  0  0  0  0  0  0  0  0  0  0  0
   51.7655   10.0273   20.7261 C   0  0  0  0  0  0  0  0  0  0  0  0
   50.5386   10.7782   20.6765 O   0  0  0  0  0  0  0  0  0  0  0  0
  1  2  1  6  0  0  0
  1  3  1  0  0  0  0
  1  4  2  0  0  0  0
  1 16  1  0  0  0  0
  5  6  1  6  0  0  0
  5  7  1  0  0  0  0
  5 14  1  0  0  0  0
  7  8  1  1  0  0  0
  7  9  1  0  0  0  0
  9 10  1  6  0  0  0
  9 11  1  0  0  0  0
 11 12  1  6  0  0  0
 11 13  1  0  0  0  0
 13 14  1  0  0  0  0
 13 15  1  6  0  0  0
 15 16  1  0  0  0  0
M  CHG  1   3  -1
M  END
>  <CHROM.1>
-170.99414314,179.99033432,-169.78234384,52.16102751,10.28956084,21.64614530
2.39578689,0.15815107,-1.74019442

>  <Name>
ligand

>  <RI>
0

>  <Rbt.Current_Directory>
/home/itssahil/PROJECTS/Mol_Feturizer/New_Systems/rnas/3B4B

>  <Rbt.Executable>
rbdock ($Id: //depot/dev/client3/rdock/2013.1/src/exe/rbdock.cxx#4 $)

>  <Rbt.Library>
libRbt.so (2013.1, Build901 2013/11/27)

>  <Rbt.Parameter_File>
/export/apps/rDock/src/rDock_2013.1_src/data/scripts/dock_solv.prm

>  <Rbt.Receptor>
prm/blind_docking_80.prm

>  <SCORE>
-12.7718

>  <SCORE.INTER>
-11.4717

>  <SCORE.INTER.CONST>
1

>  <SCORE.INTER.POLAR>
0

>  <SCORE.INTER.ROT>
3

>  <SCORE.INTER.SOLV>
18.44

>  <SCORE.INTER.VDW>
-19.3945

>  <SCORE.INTER.norm>
-0.716983

>  <SCORE.INTRA>
-1.30007

>  <SCORE.INTRA.DIHEDRAL>
-1.75831

>  <SCORE.INTRA.DIHEDRAL.0>
2.21864

>  <SCORE.INTRA.POLAR>
0

>  <SCORE.INTRA.POLAR.0>
0

>  <SCORE.INTRA.REPUL>
0

>  <SCORE.INTRA.REPUL.0>
0

>  <SCORE.INTRA.SOLV>
-0.538389

>  <SCORE.INTRA.SOLV.lig_0>
-58.5963

>  <SCORE.INTRA.VDW>
-0.151719

>  <SCORE.INTRA.VDW.0>
-0.437849

>  <SCORE.INTRA.norm>
-0.0812542

>  <SCORE.RESTR>
0

>  <SCORE.RESTR.CAVITY>
0

>  <SCORE.RESTR.norm>
0

>  <SCORE.SYSTEM>
0

>  <SCORE.SYSTEM.CONST>
0

>  <SCORE.SYSTEM.DIHEDRAL>
0

>  <SCORE.SYSTEM.SOLV>
0

>  <SCORE.SYSTEM.norm>
0

>  <SCORE.heavy>
16

>  <SCORE.norm>
-0.798237

>  <RMSD>
12.295

$$$$
ligand
 OpenBabel11021811463D
libRbt.so/2013.1/901 2013/11/27
 16 16  0  0  0  0  0  0  0  0999 V2000
   49.6525   10.4253   19.4235 P   0  0  2  0  0  0  0  0  0  0  0  0
   48.4599   11.3041   19.3438 O   0  0  0  0  0  0  0  0  0  0  0  0
   50.5442   10.5711   18.0914 O   0  5  0  0  0  0  0  0  0  0  0  0
   49.1698    8.8846   19.5549 O   0  0  0  0  0  0  0  0  0  0  0  0
   52.6651   10.4419   24.3716 C   0  0  2  0  0  0  0  0  0  0  0  0
   52.7319   11.8734   24.4492 O   0  0  0  0  0  0  0  0  0  0  0  0
   54.0830    9.8044   24.3452 C   0  0  2  0  0  0  0  0  0  0  0  0
   54.8359   10.2082   25.5532 N   0  0  0  0  0  0  0  0  0  0  0  0
   54.8167   10.2879   23.0765 C   0  0  1  0  0  0  0  0  0  0  0  0
   56.1286    9.7019   23.0073 O   0  0  0  0  0  0  0  0  0  0  0  0
   53.9922    9.8554   21.8553 C   0  0  2  0  0  0  0  0  0  0  0  0
   54.6405   10.3038   20.6568 O   0  0  0  0  0  0  0  0  0  0  0  0
   52.5845   10.4989   21.9630 C   0  0  2  0  0  0  0  0  0  0  0  0
   51.9197   10.0571   23.1816 O   0  0  0  0  0  0  0  0  0  0  0  0
   51.7303   10.0717   20.7566 C   0  0  0  0  0  0  0  0  0  0  0  0
   50.5336   10.8696   20.7028 O   0  0  0  0  0  0  0  0  0  0  0  0
  1  2  1  6  0  0  0
  1  3  1  0  0  0  0
  1  4  2  0  0  0  0
  1 16  1  0  0  0  0
  5  6  1  6  0  0  0
  5  7  1  0  0  0  0
  5 14  1  0  0  0  0
  7  8  1  1  0  0  0
  7  9  1  0  0  0  0
  9 10  1  6  0  0  0
  9 11  1  0  0  0  0
 11 12  1  6  0  0  0
 11 13  1  0  0  0  0
 13 14  1  0  0  0  0
 13 15  1  6  0  0  0
 15 16  1  0  0  0  0
M  CHG  1   3  -1
M  END
>  <CHROM.1>
-168.34107014,179.34170813,-177.09536112,52.15579949,10.33999442,21.65642671
2.40344364,0.16752102,-1.72236597

>  <Name>
ligand

>  <RI>
0

>  <Rbt.Current_Directory>
/home/itssahil/PROJECTS/Mol_Feturizer/New_Systems/rnas/3B4B

>  <Rbt.Executable>
rbdock ($Id: //depot/dev/client3/rdock/2013.1/src/exe/rbdock.cxx#4 $)

>  <Rbt.Library>
libRbt.so (2013.1, Build901 2013/11/27)

>  <Rbt.Parameter_File>
/export/apps/rDock/src/rDock_2013.1_src/data/scripts/dock_solv.prm

>  <Rbt.Receptor>
prm/blind_docking_80.prm

>  <SCORE>
-12.7533

>  <SCORE.INTER>
-11.3806

>  <SCORE.INTER.CONST>
1

>  <SCORE.INTER.POLAR>
0

>  <SCORE.INTER.ROT>
3

>  <SCORE.INTER.SOLV>
17.9362

>  <SCORE.INTER.VDW>
-19.1658

>  <SCORE.INTER.norm>
-0.711289

>  <SCORE.INTRA>
-1.3727

>  <SCORE.INTRA.DIHEDRAL>
-1.72295

>  <SCORE.INTRA.DIHEDRAL.0>
2.21864

>  <SCORE.INTRA.POLAR>
0

>  <SCORE.INTRA.POLAR.0>
0

>  <SCORE.INTRA.REPUL>
0

>  <SCORE.INTRA.REPUL.0>
0

>  <SCORE.INTRA.SOLV>
-0.544329

>  <SCORE.INTRA.SOLV.lig_0>
-58.5963

>  <SCORE.INTRA.VDW>
-0.239058

>  <SCORE.INTRA.VDW.0>
-0.437849

>  <SCORE.INTRA.norm>
-0.0857937

>  <SCORE.RESTR>
0

>  <SCORE.RESTR.CAVITY>
0

>  <SCORE.RESTR.norm>
0

>  <SCORE.SYSTEM>
0

>  <SCORE.SYSTEM.CONST>
0

>  <SCORE.SYSTEM.DIHEDRAL>
0

>  <SCORE.SYSTEM.SOLV>
0

>  <SCORE.SYSTEM.norm>
0

>  <SCORE.heavy>
16

>  <SCORE.norm>
-0.797083

>  <RMSD>
12.299

$$$$
ligand
 OpenBabel11021811463D
libRbt.so/2013.1/901 2013/11/27
 16 16  0  0  0  0  0  0  0  0999 V2000
   49.6895   10.3232   19.3986 P   0  0  2  0  0  0  0  0  0  0  0  0
   48.5604   11.2664   19.2073 O   0  0  0  0  0  0  0  0  0  0  0  0
   50.6447   10.3248   18.1029 O   0  5  0  0  0  0  0  0  0  0  0  0
   49.1033    8.8273   19.6052 O   0  0  0  0  0  0  0  0  0  0  0  0
   52.6165   10.5302   24.3840 C   0  0  2  0  0  0  0  0  0  0  0  0
   52.7020   11.9627   24.4028 O   0  0  0  0  0  0  0  0  0  0  0  0
   54.0255    9.8734   24.4144 C   0  0  2  0  0  0  0  0  0  0  0  0
   54.7590   10.3179   25.6200 N   0  0  0  0  0  0  0  0  0  0  0  0
   54.7918   10.2929   23.1422 C   0  0  1  0  0  0  0  0  0  0  0  0
   56.0964    9.6871   23.1254 O   0  0  0  0  0  0  0  0  0  0  0  0
   53.9865    9.8200   21.9232 C   0  0  2  0  0  0  0  0  0  0  0  0
   54.6656   10.2087   20.7208 O   0  0  0  0  0  0  0  0  0  0  0  0
   52.5861   10.4862   21.9740 C   0  0  2  0  0  0  0  0  0  0  0  0
   51.8902   10.1053   23.1958 O   0  0  0  0  0  0  0  0  0  0  0  0
   51.7509   10.0197   20.7689 C   0  0  0  0  0  0  0  0  0  0  0  0
   50.5421   10.7966   20.6867 O   0  0  0  0  0  0  0  0  0  0  0  0
  1  2  1  6  0  0  0
  1  3  1  0  0  0  0
  1  4  2  0  0  0  0
  1 16  1  0  0  0  0
  5  6  1  6  0  0  0
  5  7  1  0  0  0  0
  5 14  1  0  0  0  0
  7  8  1  1  0  0  0
  7  9  1  0  0  0  0
  9 10  1  1  0  0  0
  9 11  1  0  0  0  0
 11 12  1  6  0  0  0
 11 13  1  0  0  0  0
 13 14  1  0  0  0  0
 13 15  1  6  0  0  0
 15 16  1  0  0  0  0
M  CHG  1   3  -1
M  END
>  <CHROM.1>
-170.52885143,178.66446208,-171.34055491,52.15507903,10.31201404,21.67321112
2.38917937,0.18070410,-1.76376844

>  <Name>
ligand

>  <RI>
0

>  <Rbt.Current_Directory>
/home/itssahil/PROJECTS/Mol_Feturizer/New_Systems/rnas/3B4B

>  <Rbt.Executable>
rbdock ($Id: //depot/dev/client3/rdock/2013.1/src/exe/rbdock.cxx#4 $)

>  <Rbt.Library>
libRbt.so (2013.1, Build901 2013/11/27)

>  <Rbt.Parameter_File>
/export/apps/rDock/src/rDock_2013.1_src/data/scripts/dock_solv.prm

>  <Rbt.Receptor>
prm/blind_docking_80.prm

>  <SCORE>
-12.8843

>  <SCORE.INTER>
-11.5536

>  <SCORE.INTER.CONST>
1

>  <SCORE.INTER.POLAR>
0

>  <SCORE.INTER.ROT>
3

>  <SCORE.INTER.SOLV>
18.2846

>  <SCORE.INTER.VDW>
-19.3973

>  <SCORE.INTER.norm>
-0.722102

>  <SCORE.INTRA>
-1.33069

>  <SCORE.INTRA.DIHEDRAL>
-1.76636

>  <SCORE.INTRA.DIHEDRAL.0>
2.21864

>  <SCORE.INTRA.POLAR>
0

>  <SCORE.INTRA.POLAR.0>
0

>  <SCORE.INTRA.REPUL>
0

>  <SCORE.INTRA.REPUL.0>
0

>  <SCORE.INTRA.SOLV>
-0.544173

>  <SCORE.INTRA.SOLV.lig_0>
-58.5963

>  <SCORE.INTRA.VDW>
-0.175418

>  <SCORE.INTRA.VDW.0>
-0.437849

>  <SCORE.INTRA.norm>
-0.0831679

>  <SCORE.RESTR>
0

>  <SCORE.RESTR.CAVITY>
0

>  <SCORE.RESTR.norm>
0

>  <SCORE.SYSTEM>
0

>  <SCORE.SYSTEM.CONST>
0

>  <SCORE.SYSTEM.DIHEDRAL>
0

>  <SCORE.SYSTEM.SOLV>
0

>  <SCORE.SYSTEM.norm>
0

>  <SCORE.heavy>
16

>  <SCORE.norm>
-0.80527

>  <RMSD>
12.309

$$$$
ligand
 OpenBabel11021811463D
libRbt.so/2013.1/901 2013/11/27
 16 16  0  0  0  0  0  0  0  0999 V2000
   49.6527   10.1306   19.4553 P   0  0  2  0  0  0  0  0  0  0  0  0
   49.1104    8.7959   19.8097 O   0  0  0  0  0  0  0  0  0  0  0  0
   48.4521   11.1609   19.1586 O   0  5  0  0  0  0  0  0  0  0  0  0
   50.5603    9.9980   18.1200 O   0  0  0  0  0  0  0  0  0  0  0  0
   52.6121   10.5100   24.3780 C   0  0  2  0  0  0  0  0  0  0  0  0
   52.6767   11.9436   24.3835 O   0  0  0  0  0  0  0  0  0  0  0  0
   54.0303    9.8739   24.4198 C   0  0  2  0  0  0  0  0  0  0  0  0
   54.7528   10.3404   25.6238 N   0  0  0  0  0  0  0  0  0  0  0  0
   54.7953   10.2926   23.1465 C   0  0  1  0  0  0  0  0  0  0  0  0
   56.1086    9.7057   23.1402 O   0  0  0  0  0  0  0  0  0  0  0  0
   54.0015    9.7965   21.9291 C   0  0  2  0  0  0  0  0  0  0  0  0
   54.6794   10.1836   20.7255 O   0  0  0  0  0  0  0  0  0  0  0  0
   52.5914   10.4427   21.9685 C   0  0  2  0  0  0  0  0  0  0  0  0
   51.8965   10.0634   23.1913 O   0  0  0  0  0  0  0  0  0  0  0  0
   51.7676    9.9529   20.7648 C   0  0  0  0  0  0  0  0  0  0  0  0
   50.5258   10.6776   20.6997 O   0  0  0  0  0  0  0  0  0  0  0  0
  1  2  1  1  0  0  0
  1  3  1  0  0  0  0
  1  4  2  0  0  0  0
  1 16  1  0  0  0  0
  5  6  1  6  0  0  0
  5  7  1  0  0  0  0
  5 14  1  0  0  0  0
  7  8  1  1  0  0  0
  7  9  1  0  0  0  0
  9 10  1  1  0  0  0
  9 11  1  0  0  0  0
 11 12  1  6  0  0  0
 11 13  1  0  0  0  0
 13 14  1  0  0  0  0
 13 15  1  6  0  0  0
 15 16  1  0  0  0  0
M  CHG  1   3  -1
M  END
>  <CHROM.1>
-172.62873434,-178.59771033,73.53889193,52.14002591,10.24010935,21.69189311
2.39813433,0.16490897,-1.78304681

>  <Name>
ligand

>  <RI>
0

>  <Rbt.Current_Directory>
/home/itssahil/PROJECTS/Mol_Feturizer/New_Systems/rnas/3B4B

>  <Rbt.Executable>
rbdock ($Id: //depot/dev/client3/rdock/2013.1/src/exe/rbdock.cxx#4 $)

>  <Rbt.Library>
libRbt.so (2013.1, Build901 2013/11/27)

>  <Rbt.Parameter_File>
/export/apps/rDock/src/rDock_2013.1_src/data/scripts/dock_solv.prm

>  <Rbt.Receptor>
prm/blind_docking_80.prm

>  <SCORE>
-14.0789

>  <SCORE.INTER>
-12.5787

>  <SCORE.INTER.CONST>
1

>  <SCORE.INTER.POLAR>
0

>  <SCORE.INTER.ROT>
3

>  <SCORE.INTER.SOLV>
17.1381

>  <SCORE.INTER.VDW>
-19.6985

>  <SCORE.INTER.norm>
-0.786169

>  <SCORE.INTRA>
-1.50021

>  <SCORE.INTRA.DIHEDRAL>
-1.72051

>  <SCORE.INTRA.DIHEDRAL.0>
2.21864

>  <SCORE.INTRA.POLAR>
0

>  <SCORE.INTRA.POLAR.0>
0

>  <SCORE.INTRA.REPUL>
0

>  <SCORE.INTRA.REPUL.0>
0

>  <SCORE.INTRA.SOLV>
-1.06622

>  <SCORE.INTRA.SOLV.lig_0>
-58.5963

>  <SCORE.INTRA.VDW>
-0.106842

>  <SCORE.INTRA.VDW.0>
-0.437849

>  <SCORE.INTRA.norm>
-0.0937632

>  <SCORE.RESTR>
0

>  <SCORE.RESTR.CAVITY>
0

>  <SCORE.RESTR.norm>
0

>  <SCORE.SYSTEM>
0

>  <SCORE.SYSTEM.CONST>
0

>  <SCORE.SYSTEM.DIHEDRAL>
0

>  <SCORE.SYSTEM.SOLV>
0

>  <SCORE.SYSTEM.norm>
0

>  <SCORE.heavy>
16

>  <SCORE.norm>
-0.879932

>  <RMSD>
12.315

$$$$
ligand
 OpenBabel11021811463D
libRbt.so/2013.1/901 2013/11/27
 16 16  0  0  0  0  0  0  0  0999 V2000
   49.7033   10.3301   19.4033 P   0  0  2  0  0  0  0  0  0  0  0  0
   48.5866   11.2859   19.2023 O   0  0  0  0  0  0  0  0  0  0  0  0
   50.6749   10.3279   18.1199 O   0  5  0  0  0  0  0  0  0  0  0  0
   49.0990    8.8393   19.5950 O   0  0  0  0  0  0  0  0  0  0  0  0
   52.6248   10.5371   24.3919 C   0  0  2  0  0  0  0  0  0  0  0  0
   52.7089   11.9697   24.4109 O   0  0  0  0  0  0  0  0  0  0  0  0
   54.0343    9.8815   24.4236 C   0  0  2  0  0  0  0  0  0  0  0  0
   54.7663   10.3266   25.6299 N   0  0  0  0  0  0  0  0  0  0  0  0
   54.8015   10.3019   23.1522 C   0  0  1  0  0  0  0  0  0  0  0  0
   56.1066    9.6973   23.1366 O   0  0  0  0  0  0  0  0  0  0  0  0
   53.9977    9.8284   21.9324 C   0  0  2  0  0  0  0  0  0  0  0  0
   54.6777   10.2177   20.7307 O   0  0  0  0  0  0  0  0  0  0  0  0
   52.5967   10.4933   21.9819 C   0  0  2  0  0  0  0  0  0  0  0  0
   51.9000   10.1117   23.2030 O   0  0  0  0  0  0  0  0  0  0  0  0
   51.7631   10.0262   20.7759 C   0  0  0  0  0  0  0  0  0  0  0  0
   50.5443   10.7883   20.7044 O   0  0  0  0  0  0  0  0  0  0  0  0
  1  2  1  6  0  0  0
  1  3  1  0  0  0  0
  1  4  2  0  0  0  0
  1 16  1  0  0  0  0
  5  6  1  6  0  0  0
  5  7  1  0  0  0  0
  5 14  1  0  0  0  0
  7  8  1  1  0  0  0
  7  9  1  0  0  0  0
  9 10  1  1  0  0  0
  9 11  1  0  0  0  0
 11 12  1  6  0  0  0
 11 13  1  0  0  0  0
 13 14  1  0  0  0  0
 13 15  1  6  0  0  0
 15 16  1  0  0  0  0
M  CHG  1   3  -1
M  END
>  <CHROM.1>
-171.39232887,177.83404926,-169.63131487,52.16630409,10.31947054,21.68054477
2.38804090,0.18023723,-1.76329121

>  <Name>
ligand

>  <RI>
0

>  <Rbt.Current_Directory>
/home/itssahil/PROJECTS/Mol_Feturizer/New_Systems/rnas/3B4B

>  <Rbt.Executable>
rbdock ($Id: //depot/dev/client3/rdock/2013.1/src/exe/rbdock.cxx#4 $)

>  <Rbt.Library>
libRbt.so (2013.1, Build901 2013/11/27)

>  <Rbt.Parameter_File>
/export/apps/rDock/src/rDock_2013.1_src/data/scripts/dock_solv.prm

>  <Rbt.Receptor>
prm/blind_docking_100.prm

>  <SCORE>
-12.8668

>  <SCORE.INTER>
-11.5681

>  <SCORE.INTER.CONST>
1

>  <SCORE.INTER.POLAR>
0

>  <SCORE.INTER.ROT>
3

>  <SCORE.INTER.SOLV>
18.2517

>  <SCORE.INTER.VDW>
-19.3959

>  <SCORE.INTER.norm>
-0.723003

>  <SCORE.INTRA>
-1.29876

>  <SCORE.INTRA.DIHEDRAL>
-1.75481

>  <SCORE.INTRA.DIHEDRAL.0>
2.21864

>  <SCORE.INTRA.POLAR>
0

>  <SCORE.INTRA.POLAR.0>
0

>  <SCORE.INTRA.REPUL>
0

>  <SCORE.INTRA.REPUL.0>
0

>  <SCORE.INTRA.SOLV>
-0.546933

>  <SCORE.INTRA.SOLV.lig_0>
-58.5963

>  <SCORE.INTRA.VDW>
-0.147887

>  <SCORE.INTRA.VDW.0>
-0.437849

>  <SCORE.INTRA.norm>
-0.0811725

>  <SCORE.RESTR>
0

>  <SCORE.RESTR.CAVITY>
0

>  <SCORE.RESTR.norm>
0

>  <SCORE.SYSTEM>
0

>  <SCORE.SYSTEM.CONST>
0

>  <SCORE.SYSTEM.DIHEDRAL>
0

>  <SCORE.SYSTEM.SOLV>
0

>  <SCORE.SYSTEM.norm>
0

>  <SCORE.heavy>
16

>  <SCORE.norm>
-0.804176

>  <RMSD>
12.318

$$$$
ligand
 OpenBabel11021811463D
libRbt.so/2013.1/901 2013/11/27
 16 16  0  0  0  0  0  0  0  0999 V2000
   49.6708   10.1256   19.4489 P   0  0  2  0  0  0  0  0  0  0  0  0
   49.1385    8.7893   19.8124 O   0  0  0  0  0  0  0  0  0  0  0  0
   48.4623   11.1489   19.1600 O   0  5  0  0  0  0  0  0  0  0  0  0
   50.5669    9.9935   18.1058 O   0  0  0  0  0  0  0  0  0  0  0  0
   52.6399   10.4766   24.3682 C   0  0  2  0  0  0  0  0  0  0  0  0
   52.6926   11.9106   24.3881 O   0  0  0  0  0  0  0  0  0  0  0  0
   54.0634    9.8520   24.3996 C   0  0  2  0  0  0  0  0  0  0  0  0
   54.7854   10.3122   25.6063 N   0  0  0  0  0  0  0  0  0  0  0  0
   54.8214   10.2900   23.1285 C   0  0  1  0  0  0  0  0  0  0  0  0
   56.1394    9.7141   23.1127 O   0  0  0  0  0  0  0  0  0  0  0  0
   54.0283    9.7998   21.9083 C   0  0  2  0  0  0  0  0  0  0  0  0
   54.6996   10.2047   20.7069 O   0  0  0  0  0  0  0  0  0  0  0  0
   52.6130   10.4338   21.9581 C   0  0  2  0  0  0  0  0  0  0  0  0
   51.9247   10.0362   23.1788 O   0  0  0  0  0  0  0  0  0  0  0  0
   51.7899    9.9493   20.7517 C   0  0  0  0  0  0  0  0  0  0  0  0
   50.5524   10.6809   20.6837 O   0  0  0  0  0  0  0  0  0  0  0  0
  1  2  1  1  0  0  0
  1  3  1  0  0  0  0
  1  4  2  0  0  0  0
  1 16  1  0  0  0  0
  5  6  1  6  0  0  0
  5  7  1  0  0  0  0
  5 14  1  0  0  0  0
  7  8  1  1  0  0  0
  7  9  1  0  0  0  0
  9 10  1  1  0  0  0
  9 11  1  0  0  0  0
 11 12  1  6  0  0  0
 11 13  1  0  0  0  0
 13 14  1  0  0  0  0
 13 15  1  6  0  0  0
 15 16  1  0  0  0  0
M  CHG  1   3  -1
M  END
>  <CHROM.1>
-171.61695458,-177.81316898,72.69834571,52.16286557,10.23125308,21.68022133
2.39900765,0.15681017,-1.77301446

>  <Name>
ligand

>  <RI>
0

>  <Rbt.Current_Directory>
/home/itssahil/PROJECTS/Mol_Feturizer/New_Systems/rnas/3B4B

>  <Rbt.Executable>
rbdock ($Id: //depot/dev/client3/rdock/2013.1/src/exe/rbdock.cxx#4 $)

>  <Rbt.Library>
libRbt.so (2013.1, Build901 2013/11/27)

>  <Rbt.Parameter_File>
/export/apps/rDock/src/rDock_2013.1_src/data/scripts/dock_solv.prm

>  <Rbt.Receptor>
prm/blind_docking_80.prm

>  <SCORE>
-14.0674

>  <SCORE.INTER>
-12.5514

>  <SCORE.INTER.CONST>
1

>  <SCORE.INTER.POLAR>
0

>  <SCORE.INTER.ROT>
3

>  <SCORE.INTER.SOLV>
17.1143

>  <SCORE.INTER.VDW>
-19.6724

>  <SCORE.INTER.norm>
-0.784464

>  <SCORE.INTRA>
-1.51598

>  <SCORE.INTRA.DIHEDRAL>
-1.68413

>  <SCORE.INTRA.DIHEDRAL.0>
2.21864

>  <SCORE.INTRA.POLAR>
0

>  <SCORE.INTRA.POLAR.0>
0

>  <SCORE.INTRA.REPUL>
0

>  <SCORE.INTRA.REPUL.0>
0

>  <SCORE.INTRA.SOLV>
-1.07658

>  <SCORE.INTRA.SOLV.lig_0>
-58.5963

>  <SCORE.INTRA.VDW>
-0.135622

>  <SCORE.INTRA.VDW.0>
-0.437849

>  <SCORE.INTRA.norm>
-0.0947485

>  <SCORE.RESTR>
0

>  <SCORE.RESTR.CAVITY>
0

>  <SCORE.RESTR.norm>
0

>  <SCORE.SYSTEM>
0

>  <SCORE.SYSTEM.CONST>
0

>  <SCORE.SYSTEM.DIHEDRAL>
0

>  <SCORE.SYSTEM.SOLV>
0

>  <SCORE.SYSTEM.norm>
0

>  <SCORE.heavy>
16

>  <SCORE.norm>
-0.879213

>  <RMSD>
12.318

$$$$
ligand
 OpenBabel11021811463D
libRbt.so/2013.1/901 2013/11/27
 16 16  0  0  0  0  0  0  0  0999 V2000
   49.6675   10.1200   19.4485 P   0  0  2  0  0  0  0  0  0  0  0  0
   49.1316    8.7825   19.8019 O   0  0  0  0  0  0  0  0  0  0  0  0
   48.4619   11.1460   19.1572 O   0  5  0  0  0  0  0  0  0  0  0  0
   50.5719    9.9938   18.1104 O   0  0  0  0  0  0  0  0  0  0  0  0
   52.6315   10.4537   24.3804 C   0  0  2  0  0  0  0  0  0  0  0  0
   52.6721   11.8881   24.4066 O   0  0  0  0  0  0  0  0  0  0  0  0
   54.0603    9.8411   24.4061 C   0  0  2  0  0  0  0  0  0  0  0  0
   54.7809   10.3021   25.6134 N   0  0  0  0  0  0  0  0  0  0  0  0
   54.8119   10.2911   23.1355 C   0  0  1  0  0  0  0  0  0  0  0  0
   56.1347    9.7264   23.1143 O   0  0  0  0  0  0  0  0  0  0  0  0
   54.0204    9.7996   21.9147 C   0  0  2  0  0  0  0  0  0  0  0  0
   54.6858   10.2155   20.7138 O   0  0  0  0  0  0  0  0  0  0  0  0
   52.5999   10.4214   21.9702 C   0  0  2  0  0  0  0  0  0  0  0  0
   51.9176   10.0126   23.1906 O   0  0  0  0  0  0  0  0  0  0  0  0
   51.7785    9.9353   20.7634 C   0  0  0  0  0  0  0  0  0  0  0  0
   50.5419   10.6682   20.6915 O   0  0  0  0  0  0  0  0  0  0  0  0
  1  2  1  1  0  0  0
  1  3  1  0  0  0  0
  1  4  2  0  0  0  0
  1 16  1  0  0  0  0
  5  6  1  6  0  0  0
  5  7  1  0  0  0  0
  5 14  1  0  0  0  0
  7  8  1  1  0  0  0
  7  9  1  0  0  0  0
  9 10  1  1  0  0  0
  9 11  1  0  0  0  0
 11 12  1  6  0  0  0
 11 13  1  0  0  0  0
 13 14  1  0  0  0  0
 13 15  1  6  0  0  0
 15 16  1  0  0  0  0
M  CHG  1   3  -1
M  END
>  <CHROM.1>
-170.91358539,-178.30234522,72.71886037,52.15567855,10.22401618,21.68591374
2.39626154,0.15156174,-1.76654441

>  <Name>
ligand

>  <RI>
0

>  <Rbt.Current_Directory>
/home/itssahil/PROJECTS/Mol_Feturizer/New_Systems/rnas/3B4B

>  <Rbt.Executable>
rbdock ($Id: //depot/dev/client3/rdock/2013.1/src/exe/rbdock.cxx#4 $)

>  <Rbt.Library>
libRbt.so (2013.1, Build901 2013/11/27)

>  <Rbt.Parameter_File>
/export/apps/rDock/src/rDock_2013.1_src/data/scripts/dock_solv.prm

>  <Rbt.Receptor>
prm/blind_docking_100.prm

>  <SCORE>
-14.063

>  <SCORE.INTER>
-12.5629

>  <SCORE.INTER.CONST>
1

>  <SCORE.INTER.POLAR>
0

>  <SCORE.INTER.ROT>
3

>  <SCORE.INTER.SOLV>
17.0655

>  <SCORE.INTER.VDW>
-19.6637

>  <SCORE.INTER.norm>
-0.785179

>  <SCORE.INTRA>
-1.50014

>  <SCORE.INTRA.DIHEDRAL>
-1.64968

>  <SCORE.INTRA.DIHEDRAL.0>
2.21864

>  <SCORE.INTRA.POLAR>
0

>  <SCORE.INTRA.POLAR.0>
0

>  <SCORE.INTRA.REPUL>
0

>  <SCORE.INTRA.REPUL.0>
0

>  <SCORE.INTRA.SOLV>
-1.07937

>  <SCORE.INTRA.SOLV.lig_0>
-58.5963

>  <SCORE.INTRA.VDW>
-0.135615

>  <SCORE.INTRA.VDW.0>
-0.437849

>  <SCORE.INTRA.norm>
-0.0937589

>  <SCORE.RESTR>
0

>  <SCORE.RESTR.CAVITY>
0

>  <SCORE.RESTR.norm>
0

>  <SCORE.SYSTEM>
0

>  <SCORE.SYSTEM.CONST>
0

>  <SCORE.SYSTEM.DIHEDRAL>
0

>  <SCORE.SYSTEM.SOLV>
0

>  <SCORE.SYSTEM.norm>
0

>  <SCORE.heavy>
16

>  <SCORE.norm>
-0.878938

>  <RMSD>
12.319

$$$$
ligand
 OpenBabel11021811463D
libRbt.so/2013.1/901 2013/11/27
 16 16  0  0  0  0  0  0  0  0999 V2000
   36.8472    8.7187   12.3320 P   0  0  2  0  0  0  0  0  0  0  0  0
   35.7520    7.9951   11.6404 O   0  0  0  0  0  0  0  0  0  0  0  0
   37.8043    9.4418   11.2586 O   0  5  0  0  0  0  0  0  0  0  0  0
   37.7316    7.6592   13.1802 O   0  0  0  0  0  0  0  0  0  0  0  0
   33.6380   10.3180   10.0175 C   0  0  2  0  0  0  0  0  0  0  0  0
   33.6899   11.5371    9.2621 O   0  0  0  0  0  0  0  0  0  0  0  0
   32.3661   10.2521   10.9094 C   0  0  2  0  0  0  0  0  0  0  0  0
   31.1565   10.3733   10.0659 N   0  0  0  0  0  0  0  0  0  0  0  0
   32.4197   11.4090   11.9295 C   0  0  1  0  0  0  0  0  0  0  0  0
   31.2657   11.3690   12.7873 O   0  0  0  0  0  0  0  0  0  0  0  0
   33.6945   11.2445   12.7698 C   0  0  2  0  0  0  0  0  0  0  0  0
   33.7828   12.3154   13.7202 O   0  0  0  0  0  0  0  0  0  0  0  0
   34.9176   11.2869   11.8160 C   0  0  2  0  0  0  0  0  0  0  0  0
   34.8342   10.2084   10.8403 O   0  0  0  0  0  0  0  0  0  0  0  0
   36.2111   11.1114   12.6307 C   0  0  0  0  0  0  0  0  0  0  0  0
   36.1944    9.8366   13.2985 O   0  0  0  0  0  0  0  0  0  0  0  0
  1  2  1  6  0  0  0
  1  3  1  0  0  0  0
  1  4  2  0  0  0  0
  1 16  1  0  0  0  0
  5  6  1  1  0  0  0
  5  7  1  0  0  0  0
  5 14  1  0  0  0  0
  7  8  1  6  0  0  0
  7  9  1  0  0  0  0
  9 10  1  1  0  0  0
  9 11  1  0  0  0  0
 11 12  1  1  0  0  0
 11 13  1  0  0  0  0
 13 14  1  0  0  0  0
 13 15  1  1  0  0  0
 15 16  1  0  0  0  0
M  CHG  1   3  -1
M  END
>  <CHROM.1>
60.93356764,89.37843656,-97.64535386,34.73646493,10.18110026,11.83554483
0.00169160,0.50428340,-1.98980415

>  <Name>
ligand

>  <RI>
0

>  <Rbt.Current_Directory>
/home/itssahil/PROJECTS/Mol_Feturizer/New_Systems/rnas/3B4B

>  <Rbt.Executable>
rbdock ($Id: //depot/dev/client3/rdock/2013.1/src/exe/rbdock.cxx#4 $)

>  <Rbt.Library>
libRbt.so (2013.1, Build901 2013/11/27)

>  <Rbt.Parameter_File>
/export/apps/rDock/src/rDock_2013.1_src/data/scripts/dock_solv.prm

>  <Rbt.Receptor>
prm/blind_docking_60.prm

>  <SCORE>
-7.05

>  <SCORE.INTER>
-9.7714

>  <SCORE.INTER.CONST>
1

>  <SCORE.INTER.POLAR>
0

>  <SCORE.INTER.ROT>
3

>  <SCORE.INTER.SOLV>
16.4079

>  <SCORE.INTER.VDW>
-17.5836

>  <SCORE.INTER.norm>
-0.610712

>  <SCORE.INTRA>
2.7214

>  <SCORE.INTRA.DIHEDRAL>
2.93054

>  <SCORE.INTRA.DIHEDRAL.0>
2.21864

>  <SCORE.INTRA.POLAR>
0

>  <SCORE.INTRA.POLAR.0>
0

>  <SCORE.INTRA.REPUL>
0

>  <SCORE.INTRA.REPUL.0>
0

>  <SCORE.INTRA.SOLV>
1.64441

>  <SCORE.INTRA.SOLV.lig_0>
-58.5963

>  <SCORE.INTRA.VDW>
0.433927

>  <SCORE.INTRA.VDW.0>
-0.437849

>  <SCORE.INTRA.norm>
0.170088

>  <SCORE.RESTR>
0

>  <SCORE.RESTR.CAVITY>
0

>  <SCORE.RESTR.norm>
0

>  <SCORE.SYSTEM>
0

>  <SCORE.SYSTEM.CONST>
0

>  <SCORE.SYSTEM.DIHEDRAL>
0

>  <SCORE.SYSTEM.SOLV>
0

>  <SCORE.SYSTEM.norm>
0

>  <SCORE.heavy>
16

>  <SCORE.norm>
-0.440625

>  <RMSD>
12.357

$$$$
ligand
 OpenBabel11021811463D
libRbt.so/2013.1/901 2013/11/27
 16 16  0  0  0  0  0  0  0  0999 V2000
   49.7733   10.1124   19.4295 P   0  0  2  0  0  0  0  0  0  0  0  0
   49.1522    8.8082   19.7678 O   0  0  0  0  0  0  0  0  0  0  0  0
   48.6374   11.2003   19.0868 O   0  5  0  0  0  0  0  0  0  0  0  0
   50.7204    9.9285   18.1282 O   0  0  0  0  0  0  0  0  0  0  0  0
   52.7127   10.4260   24.4042 C   0  0  2  0  0  0  0  0  0  0  0  0
   52.7793   11.8596   24.4018 O   0  0  0  0  0  0  0  0  0  0  0  0
   54.1303    9.7882   24.4386 C   0  0  2  0  0  0  0  0  0  0  0  0
   54.8626   10.2600   25.6346 N   0  0  0  0  0  0  0  0  0  0  0  0
   54.8862   10.1992   23.1573 C   0  0  1  0  0  0  0  0  0  0  0  0
   56.1986    9.6104   23.1441 O   0  0  0  0  0  0  0  0  0  0  0  0
   54.0825    9.6979   21.9486 C   0  0  2  0  0  0  0  0  0  0  0  0
   54.7518   10.0778   20.7379 O   0  0  0  0  0  0  0  0  0  0  0  0
   52.6736   10.3463   21.9953 C   0  0  2  0  0  0  0  0  0  0  0  0
   51.9875    9.9743   23.2253 O   0  0  0  0  0  0  0  0  0  0  0  0
   51.8401    9.8514   20.8004 C   0  0  0  0  0  0  0  0  0  0  0  0
   50.6275   10.6207   20.7031 O   0  0  0  0  0  0  0  0  0  0  0  0
  1  2  1  1  0  0  0
  1  3  1  0  0  0  0
  1  4  2  0  0  0  0
  1 16  1  0  0  0  0
  5  6  1  6  0  0  0
  5  7  1  0  0  0  0
  5 14  1  0  0  0  0
  7  8  1  1  0  0  0
  7  9  1  0  0  0  0
  9 10  1  1  0  0  0
  9 11  1  0  0  0  0
 11 12  1  6  0  0  0
 11 13  1  0  0  0  0
 13 14  1  0  0  0  0
 13 15  1  6  0  0  0
 15 16  1  0  0  0  0
M  CHG  1   3  -1
M  END
>  <CHROM.1>
-169.91110653,178.92479702,74.58788915,52.24208626,10.17561292,21.69443693
2.39194723,0.17972110,-1.78035462

>  <Name>
ligand

>  <RI>
0

>  <Rbt.Current_Directory>
/home/itssahil/PROJECTS/Mol_Feturizer/New_Systems/rnas/3B4B

>  <Rbt.Executable>
rbdock ($Id: //depot/dev/client3/rdock/2013.1/src/exe/rbdock.cxx#4 $)

>  <Rbt.Library>
libRbt.so (2013.1, Build901 2013/11/27)

>  <Rbt.Parameter_File>
/export/apps/rDock/src/rDock_2013.1_src/data/scripts/dock_solv.prm

>  <Rbt.Receptor>
prm/blind_docking_100.prm

>  <SCORE>
-14.0061

>  <SCORE.INTER>
-12.6168

>  <SCORE.INTER.CONST>
1

>  <SCORE.INTER.POLAR>
0

>  <SCORE.INTER.ROT>
3

>  <SCORE.INTER.SOLV>
16.5949

>  <SCORE.INTER.VDW>
-19.5428

>  <SCORE.INTER.norm>
-0.788552

>  <SCORE.INTRA>
-1.38924

>  <SCORE.INTRA.DIHEDRAL>
-1.51405

>  <SCORE.INTRA.DIHEDRAL.0>
2.21864

>  <SCORE.INTRA.POLAR>
0

>  <SCORE.INTRA.POLAR.0>
0

>  <SCORE.INTRA.REPUL>
0

>  <SCORE.INTRA.REPUL.0>
0

>  <SCORE.INTRA.SOLV>
-1.06727

>  <SCORE.INTRA.SOLV.lig_0>
-58.5963

>  <SCORE.INTRA.VDW>
-0.0985882

>  <SCORE.INTRA.VDW.0>
-0.437849

>  <SCORE.INTRA.norm>
-0.0868277

>  <SCORE.RESTR>
0

>  <SCORE.RESTR.CAVITY>
0

>  <SCORE.RESTR.norm>
0

>  <SCORE.SYSTEM>
0

>  <SCORE.SYSTEM.CONST>
0

>  <SCORE.SYSTEM.DIHEDRAL>
0

>  <SCORE.SYSTEM.SOLV>
0

>  <SCORE.SYSTEM.norm>
0

>  <SCORE.heavy>
16

>  <SCORE.norm>
-0.87538

>  <RMSD>
12.371

$$$$
ligand
 OpenBabel11021811463D
libRbt.so/2013.1/901 2013/11/27
 16 16  0  0  0  0  0  0  0  0999 V2000
   49.8280   10.1218   19.3945 P   0  0  2  0  0  0  0  0  0  0  0  0
   50.7479    9.8854   18.2548 O   0  0  0  0  0  0  0  0  0  0  0  0
   49.0855    8.7543   19.8064 O   0  5  0  0  0  0  0  0  0  0  0  0
   48.7066   11.2057   18.9566 O   0  0  0  0  0  0  0  0  0  0  0  0
   52.7343   10.4290   24.3984 C   0  0  2  0  0  0  0  0  0  0  0  0
   52.7990   11.8627   24.3933 O   0  0  0  0  0  0  0  0  0  0  0  0
   54.1527    9.7933   24.4387 C   0  0  2  0  0  0  0  0  0  0  0  0
   54.8804   10.2685   25.6361 N   0  0  0  0  0  0  0  0  0  0  0  0
   54.9122   10.2027   23.1591 C   0  0  1  0  0  0  0  0  0  0  0  0
   56.2255    9.6157   23.1513 O   0  0  0  0  0  0  0  0  0  0  0  0
   54.1131    9.6979   21.9487 C   0  0  2  0  0  0  0  0  0  0  0  0
   54.7859   10.0763   20.7395 O   0  0  0  0  0  0  0  0  0  0  0  0
   52.7032   10.3444   21.9895 C   0  0  2  0  0  0  0  0  0  0  0  0
   52.0137    9.9739   23.2181 O   0  0  0  0  0  0  0  0  0  0  0  0
   51.8743    9.8458   20.7930 C   0  0  0  0  0  0  0  0  0  0  0  0
   50.6926   10.6551   20.6508 O   0  0  0  0  0  0  0  0  0  0  0  0
  1  2  1  6  0  0  0
  1  3  1  0  0  0  0
  1  4  2  0  0  0  0
  1 16  1  0  0  0  0
  5  6  1  6  0  0  0
  5  7  1  0  0  0  0
  5 14  1  0  0  0  0
  7  8  1  1  0  0  0
  7  9  1  0  0  0  0
  9 10  1  1  0  0  0
  9 11  1  0  0  0  0
 11 12  1  6  0  0  0
 11 13  1  0  0  0  0
 13 14  1  0  0  0  0
 13 15  1  6  0  0  0
 15 16  1  0  0  0  0
M  CHG  1   3  -1
M  END
>  <CHROM.1>
-167.14155704,-179.87927606,-45.42462772,52.27122646,10.17421936,21.68779041
2.39019226,0.17507393,-1.77763596

>  <Name>
ligand

>  <RI>
0

>  <Rbt.Current_Directory>
/home/itssahil/PROJECTS/Mol_Feturizer/New_Systems/rnas/3B4B

>  <Rbt.Executable>
rbdock ($Id: //depot/dev/client3/rdock/2013.1/src/exe/rbdock.cxx#4 $)

>  <Rbt.Library>
libRbt.so (2013.1, Build901 2013/11/27)

>  <Rbt.Parameter_File>
/export/apps/rDock/src/rDock_2013.1_src/data/scripts/dock_solv.prm

>  <Rbt.Receptor>
prm/blind_docking_100.prm

>  <SCORE>
-12.0152

>  <SCORE.INTER>
-10.9096

>  <SCORE.INTER.CONST>
1

>  <SCORE.INTER.POLAR>
0

>  <SCORE.INTER.ROT>
3

>  <SCORE.INTER.SOLV>
20.6615

>  <SCORE.INTER.VDW>
-19.7603

>  <SCORE.INTER.norm>
-0.681852

>  <SCORE.INTRA>
-1.10561

>  <SCORE.INTRA.DIHEDRAL>
-1.30372

>  <SCORE.INTRA.DIHEDRAL.0>
2.21864

>  <SCORE.INTRA.POLAR>
0

>  <SCORE.INTRA.POLAR.0>
0

>  <SCORE.INTRA.REPUL>
0

>  <SCORE.INTRA.REPUL.0>
0

>  <SCORE.INTRA.SOLV>
-1.33137

>  <SCORE.INTRA.SOLV.lig_0>
-58.5963

>  <SCORE.INTRA.VDW>
0.211935

>  <SCORE.INTRA.VDW.0>
-0.437849

>  <SCORE.INTRA.norm>
-0.0691006

>  <SCORE.RESTR>
0

>  <SCORE.RESTR.CAVITY>
0

>  <SCORE.RESTR.norm>
0

>  <SCORE.SYSTEM>
0

>  <SCORE.SYSTEM.CONST>
0

>  <SCORE.SYSTEM.DIHEDRAL>
0

>  <SCORE.SYSTEM.SOLV>
0

>  <SCORE.SYSTEM.norm>
0

>  <SCORE.heavy>
16

>  <SCORE.norm>
-0.750952

>  <RMSD>
12.399

$$$$
ligand
 OpenBabel11021811463D
libRbt.so/2013.1/901 2013/11/27
 16 16  0  0  0  0  0  0  0  0999 V2000
   50.2074    9.7614   19.0834 P   0  0  2  0  0  0  0  0  0  0  0  0
   49.0836    9.0526   19.7435 O   0  0  0  0  0  0  0  0  0  0  0  0
   49.9093   11.3418   19.0168 O   0  5  0  0  0  0  0  0  0  0  0  0
   50.3728    9.2037   17.5715 O   0  0  0  0  0  0  0  0  0  0  0  0
   55.0605    9.9564   22.2704 C   0  0  2  0  0  0  0  0  0  0  0  0
   55.1283    8.5290   22.4029 O   0  0  0  0  0  0  0  0  0  0  0  0
   54.9707   10.6552   23.6564 C   0  0  2  0  0  0  0  0  0  0  0  0
   56.1402   10.2815   24.4821 N   0  0  0  0  0  0  0  0  0  0  0  0
   53.6667   10.2075   24.3500 C   0  0  1  0  0  0  0  0  0  0  0  0
   53.5388   10.8503   25.6304 O   0  0  0  0  0  0  0  0  0  0  0  0
   52.4876   10.6068   23.4509 C   0  0  2  0  0  0  0  0  0  0  0  0
   51.2579   10.1902   24.0610 O   0  0  0  0  0  0  0  0  0  0  0  0
   52.6581    9.9022   22.0791 C   0  0  2  0  0  0  0  0  0  0  0  0
   53.9086   10.3114   21.4538 O   0  0  0  0  0  0  0  0  0  0  0  0
   51.4951   10.2948   21.1514 C   0  0  0  0  0  0  0  0  0  0  0  0
   51.5505    9.5108   19.9457 O   0  0  0  0  0  0  0  0  0  0  0  0
  1  2  1  1  0  0  0
  1  3  1  0  0  0  0
  1  4  2  0  0  0  0
  1 16  1  0  0  0  0
  5  6  1  1  0  0  0
  5  7  1  0  0  0  0
  5 14  1  0  0  0  0
  7  8  1  1  0  0  0
  7  9  1  0  0  0  0
  9 10  1  1  0  0  0
  9 11  1  0  0  0  0
 11 12  1  1  0  0  0
 11 13  1  0  0  0  0
 13 14  1  0  0  0  0
 13 15  1  6  0  0  0
 15 16  1  0  0  0  0
M  CHG  1   3  -1
M  END
>  <CHROM.1>
-172.43372737,171.29930988,-73.98551807,52.35905056,10.00720646,21.64035936
-2.29324515,-0.16237608,1.34122622

>  <Name>
ligand

>  <RI>
0

>  <Rbt.Current_Directory>
/home/itssahil/PROJECTS/Mol_Feturizer/New_Systems/rnas/3B4B

>  <Rbt.Executable>
rbdock ($Id: //depot/dev/client3/rdock/2013.1/src/exe/rbdock.cxx#4 $)

>  <Rbt.Library>
libRbt.so (2013.1, Build901 2013/11/27)

>  <Rbt.Parameter_File>
/export/apps/rDock/src/rDock_2013.1_src/data/scripts/dock_solv.prm

>  <Rbt.Receptor>
prm/blind_docking_80.prm

>  <SCORE>
-12.0058

>  <SCORE.INTER>
-10.7965

>  <SCORE.INTER.CONST>
1

>  <SCORE.INTER.POLAR>
0

>  <SCORE.INTER.ROT>
3

>  <SCORE.INTER.SOLV>
19.1685

>  <SCORE.INTER.VDW>
-19.1872

>  <SCORE.INTER.norm>
-0.674782

>  <SCORE.INTRA>
-1.20933

>  <SCORE.INTRA.DIHEDRAL>
-1.34152

>  <SCORE.INTRA.DIHEDRAL.0>
2.21864

>  <SCORE.INTRA.POLAR>
0

>  <SCORE.INTRA.POLAR.0>
0

>  <SCORE.INTRA.REPUL>
0

>  <SCORE.INTRA.REPUL.0>
0

>  <SCORE.INTRA.SOLV>
-1.09188

>  <SCORE.INTRA.SOLV.lig_0>
-58.5963

>  <SCORE.INTRA.VDW>
0.00737408

>  <SCORE.INTRA.VDW.0>
-0.437849

>  <SCORE.INTRA.norm>
-0.0755829

>  <SCORE.RESTR>
0

>  <SCORE.RESTR.CAVITY>
0

>  <SCORE.RESTR.norm>
0

>  <SCORE.SYSTEM>
0

>  <SCORE.SYSTEM.CONST>
0

>  <SCORE.SYSTEM.DIHEDRAL>
0

>  <SCORE.SYSTEM.SOLV>
0

>  <SCORE.SYSTEM.norm>
0

>  <SCORE.heavy>
16

>  <SCORE.norm>
-0.750365

>  <RMSD>
12.441

$$$$
ligand
 OpenBabel11021811463D
libRbt.so/2013.1/901 2013/11/27
 16 16  0  0  0  0  0  0  0  0999 V2000
   34.3824   12.2155    5.0519 P   0  0  2  0  0  0  0  0  0  0  0  0
   34.3366   10.7986    4.6145 O   0  0  0  0  0  0  0  0  0  0  0  0
   32.8978   12.8363    5.0923 O   0  5  0  0  0  0  0  0  0  0  0  0
   35.2694   13.0686    3.9985 O   0  0  0  0  0  0  0  0  0  0  0  0
   34.6662   10.5320   11.0372 C   0  0  2  0  0  0  0  0  0  0  0  0
   34.6356   11.8559   11.5904 O   0  0  0  0  0  0  0  0  0  0  0  0
   36.1078    9.9495   11.0290 C   0  0  2  0  0  0  0  0  0  0  0  0
   36.6485    9.9321   12.4061 N   0  0  0  0  0  0  0  0  0  0  0  0
   36.9909   10.8338   10.1234 C   0  0  1  0  0  0  0  0  0  0  0  0
   38.3311   10.3135   10.0753 O   0  0  0  0  0  0  0  0  0  0  0  0
   36.3832   10.8280    8.7131 C   0  0  2  0  0  0  0  0  0  0  0  0
   37.1737   11.6552    7.8479 O   0  0  0  0  0  0  0  0  0  0  0  0
   34.9392   11.3891    8.8007 C   0  0  2  0  0  0  0  0  0  0  0  0
   34.1291   10.5614    9.6843 O   0  0  0  0  0  0  0  0  0  0  0  0
   34.2997   11.3833    7.4013 C   0  0  0  0  0  0  0  0  0  0  0  0
   35.0230   12.2755    6.5338 O   0  0  0  0  0  0  0  0  0  0  0  0
  1  2  1  6  0  0  0
  1  3  1  0  0  0  0
  1  4  2  0  0  0  0
  1 16  1  0  0  0  0
  5  6  1  6  0  0  0
  5  7  1  0  0  0  0
  5 14  1  0  0  0  0
  7  8  1  1  0  0  0
  7  9  1  0  0  0  0
  9 10  1  6  0  0  0
  9 11  1  0  0  0  0
 11 12  1  6  0  0  0
 11 13  1  0  0  0  0
 13 14  1  0  0  0  0
 13 15  1  6  0  0  0
 15 16  1  0  0  0  0
M  CHG  1   3  -1
M  END
>  <CHROM.1>
-63.92115534,177.65094158,-53.27660123,35.30182391,11.37605524,8.06078266
1.85874668,0.15312029,-1.33802917

>  <Name>
ligand

>  <RI>
0

>  <Rbt.Current_Directory>
/home/itssahil/PROJECTS/Mol_Feturizer/New_Systems/rnas/3B4B

>  <Rbt.Executable>
rbdock ($Id: //depot/dev/client3/rdock/2013.1/src/exe/rbdock.cxx#4 $)

>  <Rbt.Library>
libRbt.so (2013.1, Build901 2013/11/27)

>  <Rbt.Parameter_File>
/export/apps/rDock/src/rDock_2013.1_src/data/scripts/dock_solv.prm

>  <Rbt.Receptor>
prm/blind_docking_60.prm

>  <SCORE>
-10.1663

>  <SCORE.INTER>
-8.97115

>  <SCORE.INTER.CONST>
1

>  <SCORE.INTER.POLAR>
0

>  <SCORE.INTER.ROT>
3

>  <SCORE.INTER.SOLV>
10.6832

>  <SCORE.INTER.VDW>
-15.1418

>  <SCORE.INTER.norm>
-0.560697

>  <SCORE.INTRA>
-1.19519

>  <SCORE.INTRA.DIHEDRAL>
-2.06055

>  <SCORE.INTRA.DIHEDRAL.0>
2.21864

>  <SCORE.INTRA.POLAR>
0

>  <SCORE.INTRA.POLAR.0>
0

>  <SCORE.INTRA.REPUL>
0

>  <SCORE.INTRA.REPUL.0>
0

>  <SCORE.INTRA.SOLV>
-0.71576

>  <SCORE.INTRA.SOLV.lig_0>
-58.5963

>  <SCORE.INTRA.VDW>
0.192965

>  <SCORE.INTRA.VDW.0>
-0.437849

>  <SCORE.INTRA.norm>
-0.0746994

>  <SCORE.RESTR>
0

>  <SCORE.RESTR.CAVITY>
0

>  <SCORE.RESTR.norm>
0

>  <SCORE.SYSTEM>
0

>  <SCORE.SYSTEM.CONST>
0

>  <SCORE.SYSTEM.DIHEDRAL>
0

>  <SCORE.SYSTEM.SOLV>
0

>  <SCORE.SYSTEM.norm>
0

>  <SCORE.heavy>
16

>  <SCORE.norm>
-0.635396

>  <RMSD>
12.552

$$$$
ligand
 OpenBabel11021811463D
libRbt.so/2013.1/901 2013/11/27
 16 16  0  0  0  0  0  0  0  0999 V2000
   50.3023    9.7112   19.6921 P   0  0  2  0  0  0  0  0  0  0  0  0
   49.1497    8.7925   19.8611 O   0  0  0  0  0  0  0  0  0  0  0  0
   49.8142   11.2425   19.7811 O   0  5  0  0  0  0  0  0  0  0  0  0
   50.9685    9.4661   18.2360 O   0  0  0  0  0  0  0  0  0  0  0  0
   52.9699   10.4929   24.3216 C   0  0  2  0  0  0  0  0  0  0  0  0
   53.2093   11.9058   24.3998 O   0  0  0  0  0  0  0  0  0  0  0  0
   54.2787    9.6794   24.5283 C   0  0  2  0  0  0  0  0  0  0  0  0
   54.8760   10.0168   25.8393 N   0  0  0  0  0  0  0  0  0  0  0  0
   55.2615   10.0307   23.3914 C   0  0  1  0  0  0  0  0  0  0  0  0
   56.4801    9.2806   23.5384 O   0  0  0  0  0  0  0  0  0  0  0  0
   54.5924    9.6735   22.0561 C   0  0  2  0  0  0  0  0  0  0  0  0
   55.4759   10.0028   20.9749 O   0  0  0  0  0  0  0  0  0  0  0  0
   53.2813   10.4939   21.9312 C   0  0  2  0  0  0  0  0  0  0  0  0
   52.3795   10.1739   23.0296 O   0  0  0  0  0  0  0  0  0  0  0  0
   52.5816   10.1463   20.6057 C   0  0  0  0  0  0  0  0  0  0  0  0
   51.3660    9.4240   20.8738 O   0  0  0  0  0  0  0  0  0  0  0  0
  1  2  1  1  0  0  0
  1  3  1  0  0  0  0
  1  4  2  0  0  0  0
  1 16  1  0  0  0  0
  5  6  1  6  0  0  0
  5  7  1  0  0  0  0
  5 14  1  0  0  0  0
  7  8  1  1  0  0  0
  7  9  1  0  0  0  0
  9 10  1  1  0  0  0
  9 11  1  0  0  0  0
 11 12  1  6  0  0  0
 11 13  1  0  0  0  0
 13 14  1  0  0  0  0
 13 15  1  6  0  0  0
 15 16  1  0  0  0  0
M  CHG  1   3  -1
M  END
>  <CHROM.1>
111.19243648,151.10283909,170.71490878,52.70025187,10.01099575,21.83712906
2.38161554,0.16377716,-1.81942379

>  <Name>
ligand

>  <RI>
0

>  <Rbt.Current_Directory>
/home/itssahil/PROJECTS/Mol_Feturizer/New_Systems/rnas/3B4B

>  <Rbt.Executable>
rbdock ($Id: //depot/dev/client3/rdock/2013.1/src/exe/rbdock.cxx#4 $)

>  <Rbt.Library>
libRbt.so (2013.1, Build901 2013/11/27)

>  <Rbt.Parameter_File>
/export/apps/rDock/src/rDock_2013.1_src/data/scripts/dock_solv.prm

>  <Rbt.Receptor>
prm/blind_docking_80.prm

>  <SCORE>
-8.19244

>  <SCORE.INTER>
-11.4539

>  <SCORE.INTER.CONST>
1

>  <SCORE.INTER.POLAR>
0

>  <SCORE.INTER.ROT>
3

>  <SCORE.INTER.SOLV>
16.2523

>  <SCORE.INTER.VDW>
-18.6534

>  <SCORE.INTER.norm>
-0.715871

>  <SCORE.INTRA>
3.2615

>  <SCORE.INTRA.DIHEDRAL>
6.31513

>  <SCORE.INTRA.DIHEDRAL.0>
2.21864

>  <SCORE.INTRA.POLAR>
0

>  <SCORE.INTRA.POLAR.0>
0

>  <SCORE.INTRA.REPUL>
2.00944e-05

>  <SCORE.INTRA.REPUL.0>
0

>  <SCORE.INTRA.SOLV>
-0.107349

>  <SCORE.INTRA.SOLV.lig_0>
-58.5963

>  <SCORE.INTRA.VDW>
0.157511

>  <SCORE.INTRA.VDW.0>
-0.437849

>  <SCORE.INTRA.norm>
0.203844

>  <SCORE.RESTR>
0

>  <SCORE.RESTR.CAVITY>
0

>  <SCORE.RESTR.norm>
0

>  <SCORE.SYSTEM>
0

>  <SCORE.SYSTEM.CONST>
0

>  <SCORE.SYSTEM.DIHEDRAL>
0

>  <SCORE.SYSTEM.SOLV>
0

>  <SCORE.SYSTEM.norm>
0

>  <SCORE.heavy>
16

>  <SCORE.norm>
-0.512028

>  <RMSD>
12.685

$$$$
ligand
 OpenBabel11021811463D
libRbt.so/2013.1/901 2013/11/27
 16 16  0  0  0  0  0  0  0  0999 V2000
   34.0225   11.8211    4.9222 P   0  0  2  0  0  0  0  0  0  0  0  0
   35.1221   11.4242    4.0088 O   0  0  0  0  0  0  0  0  0  0  0  0
   32.6155   11.2563    4.3815 O   0  5  0  0  0  0  0  0  0  0  0  0
   33.9398   13.4378    4.9835 O   0  0  0  0  0  0  0  0  0  0  0  0
   37.5954   11.1107    9.9409 C   0  0  2  0  0  0  0  0  0  0  0  0
   37.8916    9.7363    9.6532 O   0  0  0  0  0  0  0  0  0  0  0  0
   36.5472   11.2426   11.0818 C   0  0  2  0  0  0  0  0  0  0  0  0
   37.0472   10.5697   12.3010 N   0  0  0  0  0  0  0  0  0  0  0  0
   35.2290   10.5881   10.6174 C   0  0  1  0  0  0  0  0  0  0  0  0
   34.2266   10.7080   11.6421 O   0  0  0  0  0  0  0  0  0  0  0  0
   34.7592   11.3123    9.3473 C   0  0  2  0  0  0  0  0  0  0  0  0
   33.5408   10.7167    8.8796 O   0  0  0  0  0  0  0  0  0  0  0  0
   35.8626   11.1686    8.2660 C   0  0  2  0  0  0  0  0  0  0  0  0
   37.1078   11.7626    8.7338 O   0  0  0  0  0  0  0  0  0  0  0  0
   35.4238   11.8970    6.9837 C   0  0  0  0  0  0  0  0  0  0  0  0
   34.3179   11.1983    6.3833 O   0  0  0  0  0  0  0  0  0  0  0  0
  1  2  1  6  0  0  0
  1  3  1  0  0  0  0
  1  4  2  0  0  0  0
  1 16  1  0  0  0  0
  5  6  1  6  0  0  0
  5  7  1  0  0  0  0
  5 14  1  0  0  0  0
  7  8  1  1  0  0  0
  7  9  1  0  0  0  0
  9 10  1  1  0  0  0
  9 11  1  0  0  0  0
 11 12  1  6  0  0  0
 11 13  1  0  0  0  0
 13 14  1  0  0  0  0
 13 15  1  6  0  0  0
 15 16  1  0  0  0  0
M  CHG  1   3  -1
M  END
>  <CHROM.1>
-68.62736604,-170.73106341,71.22124983,35.19652865,11.29087169,7.94357983
-1.94736214,-0.01048739,1.75391976

>  <Name>
ligand

>  <RI>
0

>  <Rbt.Current_Directory>
/home/itssahil/PROJECTS/Mol_Feturizer/New_Systems/rnas/3B4B

>  <Rbt.Executable>
rbdock ($Id: //depot/dev/client3/rdock/2013.1/src/exe/rbdock.cxx#4 $)

>  <Rbt.Library>
libRbt.so (2013.1, Build901 2013/11/27)

>  <Rbt.Parameter_File>
/export/apps/rDock/src/rDock_2013.1_src/data/scripts/dock_solv.prm

>  <Rbt.Receptor>
prm/blind_docking_60.prm

>  <SCORE>
-9.54741

>  <SCORE.INTER>
-8.48499

>  <SCORE.INTER.CONST>
1

>  <SCORE.INTER.POLAR>
0

>  <SCORE.INTER.ROT>
3

>  <SCORE.INTER.SOLV>
14.8372

>  <SCORE.INTER.VDW>
-16.2024

>  <SCORE.INTER.norm>
-0.530312

>  <SCORE.INTRA>
-1.06242

>  <SCORE.INTRA.DIHEDRAL>
-1.33457

>  <SCORE.INTRA.DIHEDRAL.0>
2.21864

>  <SCORE.INTRA.POLAR>
0

>  <SCORE.INTRA.POLAR.0>
0

>  <SCORE.INTRA.REPUL>
0

>  <SCORE.INTRA.REPUL.0>
0

>  <SCORE.INTRA.SOLV>
-0.734696

>  <SCORE.INTRA.SOLV.lig_0>
-58.5963

>  <SCORE.INTRA.VDW>
-0.0277825

>  <SCORE.INTRA.VDW.0>
-0.437849

>  <SCORE.INTRA.norm>
-0.0664009

>  <SCORE.RESTR>
0

>  <SCORE.RESTR.CAVITY>
0

>  <SCORE.RESTR.norm>
0

>  <SCORE.SYSTEM>
0

>  <SCORE.SYSTEM.CONST>
0

>  <SCORE.SYSTEM.DIHEDRAL>
0

>  <SCORE.SYSTEM.SOLV>
0

>  <SCORE.SYSTEM.norm>
0

>  <SCORE.heavy>
16

>  <SCORE.norm>
-0.596713

>  <RMSD>
12.697

$$$$
ligand
 OpenBabel11021811463D
libRbt.so/2013.1/901 2013/11/27
 16 16  0  0  0  0  0  0  0  0999 V2000
   50.2972    9.7254   19.6495 P   0  0  2  0  0  0  0  0  0  0  0  0
   50.9692    9.5333   18.3408 O   0  0  0  0  0  0  0  0  0  0  0  0
   48.9495    8.8481   19.7199 O   0  5  0  0  0  0  0  0  0  0  0  0
   49.9051   11.2877   19.8215 O   0  0  0  0  0  0  0  0  0  0  0  0
   55.8149    9.5361   22.4870 C   0  0  2  0  0  0  0  0  0  0  0  0
   55.8165    8.1070   22.6181 O   0  0  0  0  0  0  0  0  0  0  0  0
   55.4836   10.2333   23.8367 C   0  0  2  0  0  0  0  0  0  0  0  0
   56.4646    9.8235   24.8657 N   0  0  0  0  0  0  0  0  0  0  0  0
   54.0599    9.8216   24.2670 C   0  0  1  0  0  0  0  0  0  0  0  0
   53.7096   10.4642   25.5054 O   0  0  0  0  0  0  0  0  0  0  0  0
   53.0841   10.2575   23.1643 C   0  0  2  0  0  0  0  0  0  0  0  0
   51.7499    9.8750   23.5271 O   0  0  0  0  0  0  0  0  0  0  0  0
   53.4918    9.5522   21.8438 C   0  0  2  0  0  0  0  0  0  0  0  0
   54.8490    9.9267   21.4700 O   0  0  0  0  0  0  0  0  0  0  0  0
   52.5370    9.9810   20.7160 C   0  0  0  0  0  0  0  0  0  0  0  0
   51.3036    9.2464   20.8192 O   0  0  0  0  0  0  0  0  0  0  0  0
  1  2  1  6  0  0  0
  1  3  1  0  0  0  0
  1  4  2  0  0  0  0
  1 16  1  0  0  0  0
  5  6  1  1  0  0  0
  5  7  1  0  0  0  0
  5 14  1  0  0  0  0
  7  8  1  1  0  0  0
  7  9  1  0  0  0  0
  9 10  1  1  0  0  0
  9 11  1  0  0  0  0
 11 12  1  1  0  0  0
 11 13  1  0  0  0  0
 13 14  1  0  0  0  0
 13 15  1  6  0  0  0
 15 16  1  0  0  0  0
M  CHG  1   3  -1
M  END
>  <CHROM.1>
-79.16622956,178.85109609,56.75815935,52.76451871,9.75235050,21.82295499
-2.45040965,-0.19123726,1.34872637

>  <Name>
ligand

>  <RI>
0

>  <Rbt.Current_Directory>
/home/itssahil/PROJECTS/Mol_Feturizer/New_Systems/rnas/3B4B

>  <Rbt.Executable>
rbdock ($Id: //depot/dev/client3/rdock/2013.1/src/exe/rbdock.cxx#4 $)

>  <Rbt.Library>
libRbt.so (2013.1, Build901 2013/11/27)

>  <Rbt.Parameter_File>
/export/apps/rDock/src/rDock_2013.1_src/data/scripts/dock_solv.prm

>  <Rbt.Receptor>
prm/blind_docking_100.prm

>  <SCORE>
-11.6893

>  <SCORE.INTER>
-10.5991

>  <SCORE.INTER.CONST>
1

>  <SCORE.INTER.POLAR>
0

>  <SCORE.INTER.ROT>
3

>  <SCORE.INTER.SOLV>
20.0103

>  <SCORE.INTER.VDW>
-19.3362

>  <SCORE.INTER.norm>
-0.662443

>  <SCORE.INTRA>
-1.09021

>  <SCORE.INTRA.DIHEDRAL>
-0.976368

>  <SCORE.INTRA.DIHEDRAL.0>
2.21864

>  <SCORE.INTRA.POLAR>
0

>  <SCORE.INTRA.POLAR.0>
0

>  <SCORE.INTRA.REPUL>
0

>  <SCORE.INTRA.REPUL.0>
0

>  <SCORE.INTRA.SOLV>
-0.833671

>  <SCORE.INTRA.SOLV.lig_0>
-58.5963

>  <SCORE.INTRA.VDW>
-0.185186

>  <SCORE.INTRA.VDW.0>
-0.437849

>  <SCORE.INTRA.norm>
-0.0681379

>  <SCORE.RESTR>
0

>  <SCORE.RESTR.CAVITY>
0

>  <SCORE.RESTR.norm>
0

>  <SCORE.SYSTEM>
0

>  <SCORE.SYSTEM.CONST>
0

>  <SCORE.SYSTEM.DIHEDRAL>
0

>  <SCORE.SYSTEM.SOLV>
0

>  <SCORE.SYSTEM.norm>
0

>  <SCORE.heavy>
16

>  <SCORE.norm>
-0.730581

>  <RMSD>
12.842

$$$$
ligand
 OpenBabel11021811463D
libRbt.so/2013.1/901 2013/11/27
 16 16  0  0  0  0  0  0  0  0999 V2000
   31.6185   10.6340    8.3174 P   0  0  2  0  0  0  0  0  0  0  0  0
   31.8858    9.2598    7.8262 O   0  0  0  0  0  0  0  0  0  0  0  0
   30.4144   10.6212    9.3857 O   0  5  0  0  0  0  0  0  0  0  0  0
   31.1892   11.5711    7.0678 O   0  0  0  0  0  0  0  0  0  0  0  0
   36.2557   10.2550   12.4494 C   0  0  2  0  0  0  0  0  0  0  0  0
   36.1564   11.5848   12.9798 O   0  0  0  0  0  0  0  0  0  0  0  0
   37.4144   10.1357   11.4195 C   0  0  2  0  0  0  0  0  0  0  0  0
   38.6929   10.5196   12.0578 N   0  0  0  0  0  0  0  0  0  0  0  0
   37.1137   11.0712   10.2295 C   0  0  1  0  0  0  0  0  0  0  0  0
   38.1572   10.9731    9.2442 O   0  0  0  0  0  0  0  0  0  0  0  0
   35.7761   10.6398    9.6106 C   0  0  2  0  0  0  0  0  0  0  0  0
   35.4589   11.5011    8.5081 O   0  0  0  0  0  0  0  0  0  0  0  0
   34.6753   10.7520   10.6983 C   0  0  2  0  0  0  0  0  0  0  0  0
   34.9916    9.8876   11.8273 O   0  0  0  0  0  0  0  0  0  0  0  0
   33.3235   10.3131   10.1088 C   0  0  0  0  0  0  0  0  0  0  0  0
   32.9552   11.1937    9.0316 O   0  0  0  0  0  0  0  0  0  0  0  0
  1  2  1  6  0  0  0
  1  3  1  0  0  0  0
  1  4  2  0  0  0  0
  1 16  1  0  0  0  0
  5  6  1  6  0  0  0
  5  7  1  0  0  0  0
  5 14  1  0  0  0  0
  7  8  1  1  0  0  0
  7  9  1  0  0  0  0
  9 10  1  6  0  0  0
  9 11  1  0  0  0  0
 11 12  1  6  0  0  0
 11 13  1  0  0  0  0
 13 14  1  0  0  0  0
 13 15  1  6  0  0  0
 15 16  1  0  0  0  0
M  CHG  1   3  -1
M  END
>  <CHROM.1>
-62.37751215,173.98642868,-58.30130231,34.46047846,10.68994808,9.87918784
-2.64757367,0.08353140,1.70633781

>  <Name>
ligand

>  <RI>
0

>  <Rbt.Current_Directory>
/home/itssahil/PROJECTS/Mol_Feturizer/New_Systems/rnas/3B4B

>  <Rbt.Executable>
rbdock ($Id: //depot/dev/client3/rdock/2013.1/src/exe/rbdock.cxx#4 $)

>  <Rbt.Library>
libRbt.so (2013.1, Build901 2013/11/27)

>  <Rbt.Parameter_File>
/export/apps/rDock/src/rDock_2013.1_src/data/scripts/dock_solv.prm

>  <Rbt.Receptor>
prm/blind_docking_60.prm

>  <SCORE>
-8.86665

>  <SCORE.INTER>
-7.71064

>  <SCORE.INTER.CONST>
1

>  <SCORE.INTER.POLAR>
0

>  <SCORE.INTER.ROT>
3

>  <SCORE.INTER.SOLV>
13.2603

>  <SCORE.INTER.VDW>
-15.1605

>  <SCORE.INTER.norm>
-0.481915

>  <SCORE.INTRA>
-1.15601

>  <SCORE.INTRA.DIHEDRAL>
-2.01581

>  <SCORE.INTRA.DIHEDRAL.0>
2.21864

>  <SCORE.INTRA.POLAR>
0

>  <SCORE.INTRA.POLAR.0>
0

>  <SCORE.INTRA.REPUL>
0

>  <SCORE.INTRA.REPUL.0>
0

>  <SCORE.INTRA.SOLV>
-0.627332

>  <SCORE.INTRA.SOLV.lig_0>
-58.5963

>  <SCORE.INTRA.VDW>
0.165563

>  <SCORE.INTRA.VDW.0>
-0.437849

>  <SCORE.INTRA.norm>
-0.0722504

>  <SCORE.RESTR>
0

>  <SCORE.RESTR.CAVITY>
0

>  <SCORE.RESTR.norm>
0

>  <SCORE.SYSTEM>
0

>  <SCORE.SYSTEM.CONST>
0

>  <SCORE.SYSTEM.DIHEDRAL>
0

>  <SCORE.SYSTEM.SOLV>
0

>  <SCORE.SYSTEM.norm>
0

>  <SCORE.heavy>
16

>  <SCORE.norm>
-0.554166

>  <RMSD>
13.046

$$$$
ligand
 OpenBabel11021811463D
libRbt.so/2013.1/901 2013/11/27
 16 16  0  0  0  0  0  0  0  0999 V2000
   31.4469    9.6716    7.7861 P   0  0  2  0  0  0  0  0  0  0  0  0
   31.2290    8.2464    7.4364 O   0  0  0  0  0  0  0  0  0  0  0  0
   30.3264   10.1687    8.8294 O   0  5  0  0  0  0  0  0  0  0  0  0
   31.3366   10.5713    6.4435 O   0  0  0  0  0  0  0  0  0  0  0  0
   35.8292   10.3772   11.3693 C   0  0  2  0  0  0  0  0  0  0  0  0
   35.9300   11.6486   12.0273 O   0  0  0  0  0  0  0  0  0  0  0  0
   37.0026   10.1544   10.3738 C   0  0  2  0  0  0  0  0  0  0  0  0
   38.2928   10.2485   11.0918 N   0  0  0  0  0  0  0  0  0  0  0  0
   36.9273   11.2349    9.2744 C   0  0  1  0  0  0  0  0  0  0  0  0
   37.9885   11.0489    8.3213 O   0  0  0  0  0  0  0  0  0  0  0  0
   35.5697   11.1027    8.5688 C   0  0  2  0  0  0  0  0  0  0  0  0
   35.4610   12.1052    7.5484 O   0  0  0  0  0  0  0  0  0  0  0  0
   34.4491   11.3031    9.6231 C   0  0  2  0  0  0  0  0  0  0  0  0
   34.5550   10.2952   10.6696 O   0  0  0  0  0  0  0  0  0  0  0  0
   33.0748   11.1632    8.9456 C   0  0  0  0  0  0  0  0  0  0  0  0
   32.9056    9.8171    8.4652 O   0  0  0  0  0  0  0  0  0  0  0  0
  1  2  1  6  0  0  0
  1  3  1  0  0  0  0
  1  4  2  0  0  0  0
  1 16  1  0  0  0  0
  5  6  1  6  0  0  0
  5  7  1  0  0  0  0
  5 14  1  0  0  0  0
  7  8  1  1  0  0  0
  7  9  1  0  0  0  0
  9 10  1  6  0  0  0
  9 11  1  0  0  0  0
 11 12  1  6  0  0  0
 11 13  1  0  0  0  0
 13 14  1  0  0  0  0
 13 15  1  6  0  0  0
 15 16  1  0  0  0  0
M  CHG  1   3  -1
M  END
>  <CHROM.1>
64.98376345,178.70890597,-173.66015543,34.23436454,10.50125485,9.03807230
2.76189970,-0.25592767,-1.43302478

>  <Name>
ligand

>  <RI>
0

>  <Rbt.Current_Directory>
/home/itssahil/PROJECTS/Mol_Feturizer/New_Systems/rnas/3B4B

>  <Rbt.Executable>
rbdock ($Id: //depot/dev/client3/rdock/2013.1/src/exe/rbdock.cxx#4 $)

>  <Rbt.Library>
libRbt.so (2013.1, Build901 2013/11/27)

>  <Rbt.Parameter_File>
/export/apps/rDock/src/rDock_2013.1_src/data/scripts/dock_solv.prm

>  <Rbt.Receptor>
prm/blind_docking_80.prm

>  <SCORE>
-10.0485

>  <SCORE.INTER>
-8.58472

>  <SCORE.INTER.CONST>
1

>  <SCORE.INTER.POLAR>
0

>  <SCORE.INTER.ROT>
3

>  <SCORE.INTER.SOLV>
14.9886

>  <SCORE.INTER.VDW>
-16.3193

>  <SCORE.INTER.norm>
-0.536545

>  <SCORE.INTRA>
-1.4638

>  <SCORE.INTRA.DIHEDRAL>
-2.0525

>  <SCORE.INTRA.DIHEDRAL.0>
2.21864

>  <SCORE.INTRA.POLAR>
0

>  <SCORE.INTRA.POLAR.0>
0

>  <SCORE.INTRA.REPUL>
0

>  <SCORE.INTRA.REPUL.0>
0

>  <SCORE.INTRA.SOLV>
-0.270127

>  <SCORE.INTRA.SOLV.lig_0>
-58.5963

>  <SCORE.INTRA.VDW>
-0.302486

>  <SCORE.INTRA.VDW.0>
-0.437849

>  <SCORE.INTRA.norm>
-0.0914876

>  <SCORE.RESTR>
0

>  <SCORE.RESTR.CAVITY>
0

>  <SCORE.RESTR.norm>
0

>  <SCORE.SYSTEM>
0

>  <SCORE.SYSTEM.CONST>
0

>  <SCORE.SYSTEM.DIHEDRAL>
0

>  <SCORE.SYSTEM.SOLV>
0

>  <SCORE.SYSTEM.norm>
0

>  <SCORE.heavy>
16

>  <SCORE.norm>
-0.628033

>  <RMSD>
13.454

$$$$
ligand
 OpenBabel11021811463D
libRbt.so/2013.1/901 2013/11/27
 16 16  0  0  0  0  0  0  0  0999 V2000
   30.6053    9.9775   11.4212 P   0  0  2  0  0  0  0  0  0  0  0  0
   30.6620    8.4953   11.4483 O   0  0  0  0  0  0  0  0  0  0  0  0
   29.5120   10.5143   12.4737 O   0  5  0  0  0  0  0  0  0  0  0  0
   30.1760   10.4660    9.9375 O   0  0  0  0  0  0  0  0  0  0  0  0
   36.1545   10.2723   12.7877 C   0  0  2  0  0  0  0  0  0  0  0  0
   36.1276   11.6258   13.2642 O   0  0  0  0  0  0  0  0  0  0  0  0
   37.1968   10.0882   11.6488 C   0  0  2  0  0  0  0  0  0  0  0  0
   38.5399   10.4783   12.1316 N   0  0  0  0  0  0  0  0  0  0  0  0
   36.7838   10.9750   10.4552 C   0  0  1  0  0  0  0  0  0  0  0  0
   37.7164   10.8160    9.3717 O   0  0  0  0  0  0  0  0  0  0  0  0
   35.3833   10.5392   10.0001 C   0  0  2  0  0  0  0  0  0  0  0  0
   34.9622   11.3562    8.8987 O   0  0  0  0  0  0  0  0  0  0  0  0
   34.4046   10.7180   11.1907 C   0  0  2  0  0  0  0  0  0  0  0  0
   34.8276    9.8991   12.3188 O   0  0  0  0  0  0  0  0  0  0  0  0
   32.9931   10.2761   10.7666 C   0  0  0  0  0  0  0  0  0  0  0  0
   32.0590   10.5550   11.8255 O   0  0  0  0  0  0  0  0  0  0  0  0
  1  2  1  1  0  0  0
  1  3  1  0  0  0  0
  1  4  2  0  0  0  0
  1 16  1  0  0  0  0
  5  6  1  6  0  0  0
  5  7  1  0  0  0  0
  5 14  1  0  0  0  0
  7  8  1  1  0  0  0
  7  9  1  0  0  0  0
  9 10  1  6  0  0  0
  9 11  1  0  0  0  0
 11 12  1  6  0  0  0
 11 13  1  0  0  0  0
 13 14  1  0  0  0  0
 13 15  1  6  0  0  0
 15 16  1  0  0  0  0
M  CHG  1   3  -1
M  END
>  <CHROM.1>
-174.73167519,-175.35082278,69.71755727,33.91349049,10.40964529,11.25518205
-3.10072163,-0.10575959,-1.46361734

>  <Name>
ligand

>  <RI>
0

>  <Rbt.Current_Directory>
/home/itssahil/PROJECTS/Mol_Feturizer/New_Systems/rnas/3B4B

>  <Rbt.Executable>
rbdock ($Id: //depot/dev/client3/rdock/2013.1/src/exe/rbdock.cxx#4 $)

>  <Rbt.Library>
libRbt.so (2013.1, Build901 2013/11/27)

>  <Rbt.Parameter_File>
/export/apps/rDock/src/rDock_2013.1_src/data/scripts/dock_solv.prm

>  <Rbt.Receptor>
prm/blind_docking_100.prm

>  <SCORE>
-9.63641

>  <SCORE.INTER>
-8.00969

>  <SCORE.INTER.CONST>
1

>  <SCORE.INTER.POLAR>
0

>  <SCORE.INTER.ROT>
3

>  <SCORE.INTER.SOLV>
15.5917

>  <SCORE.INTER.VDW>
-16.137

>  <SCORE.INTER.norm>
-0.500606

>  <SCORE.INTRA>
-1.62672

>  <SCORE.INTRA.DIHEDRAL>
-1.85673

>  <SCORE.INTRA.DIHEDRAL.0>
2.21864

>  <SCORE.INTRA.POLAR>
0

>  <SCORE.INTRA.POLAR.0>
0

>  <SCORE.INTRA.REPUL>
0

>  <SCORE.INTRA.REPUL.0>
0

>  <SCORE.INTRA.SOLV>
-1.09193

>  <SCORE.INTRA.SOLV.lig_0>
-58.5963

>  <SCORE.INTRA.VDW>
-0.152387

>  <SCORE.INTRA.VDW.0>
-0.437849

>  <SCORE.INTRA.norm>
-0.10167

>  <SCORE.RESTR>
0

>  <SCORE.RESTR.CAVITY>
0

>  <SCORE.RESTR.norm>
0

>  <SCORE.SYSTEM>
0

>  <SCORE.SYSTEM.CONST>
0

>  <SCORE.SYSTEM.DIHEDRAL>
0

>  <SCORE.SYSTEM.SOLV>
0

>  <SCORE.SYSTEM.norm>
0

>  <SCORE.heavy>
16

>  <SCORE.norm>
-0.602276

>  <RMSD>
13.462

$$$$
ligand
 OpenBabel11021811463D
libRbt.so/2013.1/901 2013/11/27
 16 16  0  0  0  0  0  0  0  0999 V2000
   30.9062    8.7006   10.6943 P   0  0  2  0  0  0  0  0  0  0  0  0
   30.2645    8.8750   12.0205 O   0  0  0  0  0  0  0  0  0  0  0  0
   30.2294    9.6818    9.6125 O   0  5  0  0  0  0  0  0  0  0  0  0
   30.7018    7.1709   10.2019 O   0  0  0  0  0  0  0  0  0  0  0  0
   36.1295   10.1811   12.5234 C   0  0  2  0  0  0  0  0  0  0  0  0
   36.2788   11.5049   13.0572 O   0  0  0  0  0  0  0  0  0  0  0  0
   36.8909   10.0186   11.1775 C   0  0  2  0  0  0  0  0  0  0  0  0
   38.3254   10.3230   11.3741 N   0  0  0  0  0  0  0  0  0  0  0  0
   36.2792   10.9893   10.1454 C   0  0  1  0  0  0  0  0  0  0  0  0
   36.9469   10.8534    8.8786 O   0  0  0  0  0  0  0  0  0  0  0  0
   34.7922   10.6403    9.9861 C   0  0  2  0  0  0  0  0  0  0  0  0
   34.1886   11.5364    9.0423 O   0  0  0  0  0  0  0  0  0  0  0  0
   34.1036   10.7917   11.3683 C   0  0  2  0  0  0  0  0  0  0  0  0
   34.7146    9.8921   12.3376 O   0  0  0  0  0  0  0  0  0  0  0  0
   32.6122   10.4353   11.2414 C   0  0  0  0  0  0  0  0  0  0  0  0
   32.4748    9.0628   10.8306 O   0  0  0  0  0  0  0  0  0  0  0  0
  1  2  1  1  0  0  0
  1  3  1  0  0  0  0
  1  4  2  0  0  0  0
  1 16  1  0  0  0  0
  5  6  1  6  0  0  0
  5  7  1  0  0  0  0
  5 14  1  0  0  0  0
  7  8  1  1  0  0  0
  7  9  1  0  0  0  0
  9 10  1  6  0  0  0
  9 11  1  0  0  0  0
 11 12  1  6  0  0  0
 11 13  1  0  0  0  0
 13 14  1  0  0  0  0
 13 15  1  6  0  0  0
 15 16  1  0  0  0  0
M  CHG  1   3  -1
M  END
>  <CHROM.1>
61.93445347,-179.75746084,-61.19504852,33.81269187,9.92758410,10.87888453
3.13890554,-0.33306454,-1.37695569

>  <Name>
ligand

>  <RI>
0

>  <Rbt.Current_Directory>
/home/itssahil/PROJECTS/Mol_Feturizer/New_Systems/rnas/3B4B

>  <Rbt.Executable>
rbdock ($Id: //depot/dev/client3/rdock/2013.1/src/exe/rbdock.cxx#4 $)

>  <Rbt.Library>
libRbt.so (2013.1, Build901 2013/11/27)

>  <Rbt.Parameter_File>
/export/apps/rDock/src/rDock_2013.1_src/data/scripts/dock_solv.prm

>  <Rbt.Receptor>
prm/blind_docking_60.prm

>  <SCORE>
-9.60076

>  <SCORE.INTER>
-7.89641

>  <SCORE.INTER.CONST>
1

>  <SCORE.INTER.POLAR>
0

>  <SCORE.INTER.ROT>
3

>  <SCORE.INTER.SOLV>
13.3736

>  <SCORE.INTER.VDW>
-15.3221

>  <SCORE.INTER.norm>
-0.493526

>  <SCORE.INTRA>
-1.70435

>  <SCORE.INTRA.DIHEDRAL>
-2.202

>  <SCORE.INTRA.DIHEDRAL.0>
2.21864

>  <SCORE.INTRA.POLAR>
0

>  <SCORE.INTRA.POLAR.0>
0

>  <SCORE.INTRA.REPUL>
0

>  <SCORE.INTRA.REPUL.0>
0

>  <SCORE.INTRA.SOLV>
-0.884339

>  <SCORE.INTRA.SOLV.lig_0>
-58.5963

>  <SCORE.INTRA.VDW>
-0.161178

>  <SCORE.INTRA.VDW.0>
-0.437849

>  <SCORE.INTRA.norm>
-0.106522

>  <SCORE.RESTR>
0

>  <SCORE.RESTR.CAVITY>
0

>  <SCORE.RESTR.norm>
0

>  <SCORE.SYSTEM>
0

>  <SCORE.SYSTEM.CONST>
0

>  <SCORE.SYSTEM.DIHEDRAL>
0

>  <SCORE.SYSTEM.SOLV>
0

>  <SCORE.SYSTEM.norm>
0

>  <SCORE.heavy>
16

>  <SCORE.norm>
-0.600048

>  <RMSD>
13.603

$$$$
ligand
 OpenBabel11021811463D
libRbt.so/2013.1/901 2013/11/27
 16 16  0  0  0  0  0  0  0  0999 V2000
   36.4388   10.1634   12.1915 P   0  0  2  0  0  0  0  0  0  0  0  0
   36.4674   11.4546   12.9215 O   0  0  0  0  0  0  0  0  0  0  0  0
   37.0988    9.0002   13.0872 O   0  5  0  0  0  0  0  0  0  0  0  0
   37.2931   10.3076   10.8226 O   0  0  0  0  0  0  0  0  0  0  0  0
   30.7193   10.3752   11.7010 C   0  0  2  0  0  0  0  0  0  0  0  0
   30.5480    8.9749   11.4373 O   0  0  0  0  0  0  0  0  0  0  0  0
   30.1207   11.2484   10.5623 C   0  0  2  0  0  0  0  0  0  0  0  0
   28.6831   10.9395   10.3977 N   0  0  0  0  0  0  0  0  0  0  0  0
   30.8821   10.9425    9.2552 C   0  0  1  0  0  0  0  0  0  0  0  0
   30.3678   11.7481    8.1802 O   0  0  0  0  0  0  0  0  0  0  0  0
   32.3659   11.2678    9.4809 C   0  0  2  0  0  0  0  0  0  0  0  0
   33.1062   10.9792    8.2866 O   0  0  0  0  0  0  0  0  0  0  0  0
   32.8874   10.3876   10.6475 C   0  0  2  0  0  0  0  0  0  0  0  0
   32.1365   10.6660   11.8643 O   0  0  0  0  0  0  0  0  0  0  0  0
   34.3715   10.7019   10.9049 C   0  0  0  0  0  0  0  0  0  0  0  0
   34.8999    9.7836   11.8790 O   0  0  0  0  0  0  0  0  0  0  0  0
  1  2  1  1  0  0  0
  1  3  1  0  0  0  0
  1  4  2  0  0  0  0
  1 16  1  0  0  0  0
  5  6  1  6  0  0  0
  5  7  1  0  0  0  0
  5 14  1  0  0  0  0
  7  8  1  6  0  0  0
  7  9  1  0  0  0  0
  9 10  1  6  0  0  0
  9 11  1  0  0  0  0
 11 12  1  6  0  0  0
 11 13  1  0  0  0  0
 13 14  1  0  0  0  0
 13 15  1  1  0  0  0
 15 16  1  0  0  0  0
M  CHG  1   3  -1
M  END
>  <CHROM.1>
-173.44827929,-177.47457966,69.01586265,33.34705265,10.51428534,10.96485512
0.36713359,0.02603261,1.95446328

>  <Name>
ligand

>  <RI>
0

>  <Rbt.Current_Directory>
/home/itssahil/PROJECTS/Mol_Feturizer/New_Systems/rnas/3B4B

>  <Rbt.Executable>
rbdock ($Id: //depot/dev/client3/rdock/2013.1/src/exe/rbdock.cxx#4 $)

>  <Rbt.Library>
libRbt.so (2013.1, Build901 2013/11/27)

>  <Rbt.Parameter_File>
/export/apps/rDock/src/rDock_2013.1_src/data/scripts/dock_solv.prm

>  <Rbt.Receptor>
prm/blind_docking_80.prm

>  <SCORE>
-8.27165

>  <SCORE.INTER>
-6.6153

>  <SCORE.INTER.CONST>
1

>  <SCORE.INTER.POLAR>
0

>  <SCORE.INTER.ROT>
3

>  <SCORE.INTER.SOLV>
12.9078

>  <SCORE.INTER.VDW>
-14.3128

>  <SCORE.INTER.norm>
-0.413456

>  <SCORE.INTRA>
-1.65635

>  <SCORE.INTRA.DIHEDRAL>
-1.8982

>  <SCORE.INTRA.DIHEDRAL.0>
2.21864

>  <SCORE.INTRA.POLAR>
0

>  <SCORE.INTRA.POLAR.0>
0

>  <SCORE.INTRA.REPUL>
0

>  <SCORE.INTRA.REPUL.0>
0

>  <SCORE.INTRA.SOLV>
-1.10693

>  <SCORE.INTRA.SOLV.lig_0>
-58.5963

>  <SCORE.INTRA.VDW>
-0.153777

>  <SCORE.INTRA.VDW.0>
-0.437849

>  <SCORE.INTRA.norm>
-0.103522

>  <SCORE.RESTR>
0

>  <SCORE.RESTR.CAVITY>
0

>  <SCORE.RESTR.norm>
0

>  <SCORE.SYSTEM>
0

>  <SCORE.SYSTEM.CONST>
0

>  <SCORE.SYSTEM.DIHEDRAL>
0

>  <SCORE.SYSTEM.SOLV>
0

>  <SCORE.SYSTEM.norm>
0

>  <SCORE.heavy>
16

>  <SCORE.norm>
-0.516978

>  <RMSD>
13.625

$$$$
ligand
 OpenBabel11021811463D
libRbt.so/2013.1/901 2013/11/27
 16 16  0  0  0  0  0  0  0  0999 V2000
   30.3970   10.9504   11.7074 P   0  0  2  0  0  0  0  0  0  0  0  0
   29.5810   11.2839   12.9007 O   0  0  0  0  0  0  0  0  0  0  0  0
   29.9170   11.8207   10.4412 O   0  5  0  0  0  0  0  0  0  0  0  0
   30.2075    9.3805   11.3557 O   0  0  0  0  0  0  0  0  0  0  0  0
   35.9756   10.3601   12.6543 C   0  0  2  0  0  0  0  0  0  0  0  0
   36.2120   11.6677   13.1964 O   0  0  0  0  0  0  0  0  0  0  0  0
   36.8982   10.0710   11.4366 C   0  0  2  0  0  0  0  0  0  0  0  0
   38.3157   10.1994   11.8409 N   0  0  0  0  0  0  0  0  0  0  0  0
   36.5713   11.0847   10.3196 C   0  0  1  0  0  0  0  0  0  0  0  0
   37.3938   10.8355    9.1661 O   0  0  0  0  0  0  0  0  0  0  0  0
   35.0913   10.9195    9.9447 C   0  0  2  0  0  0  0  0  0  0  0  0
   34.7501   11.8602    8.9168 O   0  0  0  0  0  0  0  0  0  0  0  0
   34.2335   11.1894   11.2091 C   0  0  2  0  0  0  0  0  0  0  0  0
   34.5778   10.2449   12.2634 O   0  0  0  0  0  0  0  0  0  0  0  0
   32.7435   11.0183   10.8656 C   0  0  0  0  0  0  0  0  0  0  0  0
   31.9429   11.2914   12.0301 O   0  0  0  0  0  0  0  0  0  0  0  0
  1  2  1  1  0  0  0
  1  3  1  0  0  0  0
  1  4  2  0  0  0  0
  1 16  1  0  0  0  0
  5  6  1  6  0  0  0
  5  7  1  0  0  0  0
  5 14  1  0  0  0  0
  7  8  1  1  0  0  0
  7  9  1  0  0  0  0
  9 10  1  6  0  0  0
  9 11  1  0  0  0  0
 11 12  1  6  0  0  0
 11 13  1  0  0  0  0
 13 14  1  0  0  0  0
 13 15  1  6  0  0  0
 15 16  1  0  0  0  0
M  CHG  1   3  -1
M  END
>  <CHROM.1>
-178.97003640,-173.73372709,-177.97705420,33.70929421,10.90383889,11.29938516
-3.05111117,0.04803038,-1.39447670

>  <Name>
ligand

>  <RI>
0

>  <Rbt.Current_Directory>
/home/itssahil/PROJECTS/Mol_Feturizer/New_Systems/rnas/3B4B

>  <Rbt.Executable>
rbdock ($Id: //depot/dev/client3/rdock/2013.1/src/exe/rbdock.cxx#4 $)

>  <Rbt.Library>
libRbt.so (2013.1, Build901 2013/11/27)

>  <Rbt.Parameter_File>
/export/apps/rDock/src/rDock_2013.1_src/data/scripts/dock_solv.prm

>  <Rbt.Receptor>
prm/blind_docking_80.prm

>  <SCORE>
-10.377

>  <SCORE.INTER>
-8.881

>  <SCORE.INTER.CONST>
1

>  <SCORE.INTER.POLAR>
0

>  <SCORE.INTER.ROT>
3

>  <SCORE.INTER.SOLV>
18.4462

>  <SCORE.INTER.VDW>
-17.6694

>  <SCORE.INTER.norm>
-0.555062

>  <SCORE.INTRA>
-1.49596

>  <SCORE.INTRA.DIHEDRAL>
-2.01477

>  <SCORE.INTRA.DIHEDRAL.0>
2.21864

>  <SCORE.INTRA.POLAR>
0

>  <SCORE.INTRA.POLAR.0>
0

>  <SCORE.INTRA.REPUL>
0

>  <SCORE.INTRA.REPUL.0>
0

>  <SCORE.INTRA.SOLV>
-0.472049

>  <SCORE.INTRA.SOLV.lig_0>
-58.5963

>  <SCORE.INTRA.VDW>
-0.252551

>  <SCORE.INTRA.VDW.0>
-0.437849

>  <SCORE.INTRA.norm>
-0.0934976

>  <SCORE.RESTR>
0

>  <SCORE.RESTR.CAVITY>
0

>  <SCORE.RESTR.norm>
0

>  <SCORE.SYSTEM>
0

>  <SCORE.SYSTEM.CONST>
0

>  <SCORE.SYSTEM.DIHEDRAL>
0

>  <SCORE.SYSTEM.SOLV>
0

>  <SCORE.SYSTEM.norm>
0

>  <SCORE.heavy>
16

>  <SCORE.norm>
-0.64856

>  <RMSD>
13.628

$$$$
ligand
 OpenBabel11021811463D
libRbt.so/2013.1/901 2013/11/27
 16 16  0  0  0  0  0  0  0  0999 V2000
   31.0181    8.9577    9.7181 P   0  0  2  0  0  0  0  0  0  0  0  0
   31.0583    7.5962    9.1301 O   0  0  0  0  0  0  0  0  0  0  0  0
   29.7571    9.1019   10.7081 O   0  5  0  0  0  0  0  0  0  0  0  0
   30.8665   10.0463    8.5281 O   0  0  0  0  0  0  0  0  0  0  0  0
   35.6093   10.5509   12.9888 C   0  0  2  0  0  0  0  0  0  0  0  0
   35.7208   11.9552   13.2628 O   0  0  0  0  0  0  0  0  0  0  0  0
   36.6215   10.0994   11.8983 C   0  0  2  0  0  0  0  0  0  0  0  0
   37.9996   10.4197   12.3312 N   0  0  0  0  0  0  0  0  0  0  0  0
   36.2926   10.8394   10.5846 C   0  0  1  0  0  0  0  0  0  0  0  0
   37.1985   10.4317    9.5442 O   0  0  0  0  0  0  0  0  0  0  0  0
   34.8530   10.4840   10.1851 C   0  0  2  0  0  0  0  0  0  0  0  0
   34.5095   11.1695    8.9727 O   0  0  0  0  0  0  0  0  0  0  0  0
   33.9038   10.9314   11.3281 C   0  0  2  0  0  0  0  0  0  0  0  0
   34.2490   10.2476   12.5673 O   0  0  0  0  0  0  0  0  0  0  0  0
   32.4528   10.5756   10.9602 C   0  0  0  0  0  0  0  0  0  0  0  0
   32.3794    9.1966   10.5547 O   0  0  0  0  0  0  0  0  0  0  0  0
  1  2  1  6  0  0  0
  1  3  1  0  0  0  0
  1  4  2  0  0  0  0
  1 16  1  0  0  0  0
  5  6  1  6  0  0  0
  5  7  1  0  0  0  0
  5 14  1  0  0  0  0
  7  8  1  1  0  0  0
  7  9  1  0  0  0  0
  9 10  1  6  0  0  0
  9 11  1  0  0  0  0
 11 12  1  6  0  0  0
 11 13  1  0  0  0  0
 13 14  1  0  0  0  0
 13 15  1  6  0  0  0
 15 16  1  0  0  0  0
M  CHG  1   3  -1
M  END
>  <CHROM.1>
50.43963320,-161.21393066,171.27949797,33.74835771,10.06112392,10.71642898
-2.76068261,0.24852285,1.41992296

>  <Name>
ligand

>  <RI>
0

>  <Rbt.Current_Directory>
/home/itssahil/PROJECTS/Mol_Feturizer/New_Systems/rnas/3B4B

>  <Rbt.Executable>
rbdock ($Id: //depot/dev/client3/rdock/2013.1/src/exe/rbdock.cxx#4 $)

>  <Rbt.Library>
libRbt.so (2013.1, Build901 2013/11/27)

>  <Rbt.Parameter_File>
/export/apps/rDock/src/rDock_2013.1_src/data/scripts/dock_solv.prm

>  <Rbt.Receptor>
prm/blind_docking_80.prm

>  <SCORE>
-6.91792

>  <SCORE.INTER>
-6.74543

>  <SCORE.INTER.CONST>
1

>  <SCORE.INTER.POLAR>
0

>  <SCORE.INTER.ROT>
3

>  <SCORE.INTER.SOLV>
10.4161

>  <SCORE.INTER.VDW>
-13.569

>  <SCORE.INTER.norm>
-0.421589

>  <SCORE.INTRA>
-0.172491

>  <SCORE.INTRA.DIHEDRAL>
-0.169481

>  <SCORE.INTRA.DIHEDRAL.0>
2.21864

>  <SCORE.INTRA.POLAR>
0

>  <SCORE.INTRA.POLAR.0>
0

>  <SCORE.INTRA.REPUL>
0

>  <SCORE.INTRA.REPUL.0>
0

>  <SCORE.INTRA.SOLV>
0.457951

>  <SCORE.INTRA.SOLV.lig_0>
-58.5963

>  <SCORE.INTRA.VDW>
-0.316727

>  <SCORE.INTRA.VDW.0>
-0.437849

>  <SCORE.INTRA.norm>
-0.0107807

>  <SCORE.RESTR>
0

>  <SCORE.RESTR.CAVITY>
0

>  <SCORE.RESTR.norm>
0

>  <SCORE.SYSTEM>
0

>  <SCORE.SYSTEM.CONST>
0

>  <SCORE.SYSTEM.DIHEDRAL>
0

>  <SCORE.SYSTEM.SOLV>
0

>  <SCORE.SYSTEM.norm>
0

>  <SCORE.heavy>
16

>  <SCORE.norm>
-0.43237

>  <RMSD>
13.634

$$$$
ligand
 OpenBabel11021811463D
libRbt.so/2013.1/901 2013/11/27
 16 16  0  0  0  0  0  0  0  0999 V2000
   30.5291   11.2886    8.9373 P   0  0  2  0  0  0  0  0  0  0  0  0
   29.4837   11.8780    9.8096 O   0  0  0  0  0  0  0  0  0  0  0  0
   30.5470   12.0288    7.5080 O   0  5  0  0  0  0  0  0  0  0  0  0
   30.2022    9.7197    8.7014 O   0  0  0  0  0  0  0  0  0  0  0  0
   35.7808   10.3252   11.1740 C   0  0  2  0  0  0  0  0  0  0  0  0
   35.8508   11.5961   11.8369 O   0  0  0  0  0  0  0  0  0  0  0  0
   36.9582   10.1355   10.1764 C   0  0  2  0  0  0  0  0  0  0  0  0
   38.2466   10.2586   10.8935 N   0  0  0  0  0  0  0  0  0  0  0  0
   36.8550   11.2181    9.0814 C   0  0  1  0  0  0  0  0  0  0  0  0
   37.9195   11.0622    8.1265 O   0  0  0  0  0  0  0  0  0  0  0  0
   35.5003   11.0551    8.3766 C   0  0  2  0  0  0  0  0  0  0  0  0
   35.3657   12.0586    7.3603 O   0  0  0  0  0  0  0  0  0  0  0  0
   34.3763   11.2235    9.4329 C   0  0  2  0  0  0  0  0  0  0  0  0
   34.5082   10.2145   10.4752 O   0  0  0  0  0  0  0  0  0  0  0  0
   33.0051   11.0524    8.7561 C   0  0  0  0  0  0  0  0  0  0  0  0
   31.9646   11.4822    9.6529 O   0  0  0  0  0  0  0  0  0  0  0  0
  1  2  1  1  0  0  0
  1  3  1  0  0  0  0
  1  4  2  0  0  0  0
  1 16  1  0  0  0  0
  5  6  1  6  0  0  0
  5  7  1  0  0  0  0
  5 14  1  0  0  0  0
  7  8  1  1  0  0  0
  7  9  1  0  0  0  0
  9 10  1  6  0  0  0
  9 11  1  0  0  0  0
 11 12  1  6  0  0  0
 11 13  1  0  0  0  0
 13 14  1  0  0  0  0
 13 15  1  6  0  0  0
 15 16  1  0  0  0  0
M  CHG  1   3  -1
M  END
>  <CHROM.1>
-167.89386599,-179.59751730,-173.61120137,33.85237805,11.07281540,9.34467644
2.98285767,0.03401005,-1.32723285

>  <Name>
ligand

>  <RI>
0

>  <Rbt.Current_Directory>
/home/itssahil/PROJECTS/Mol_Feturizer/New_Systems/rnas/3B4B

>  <Rbt.Executable>
rbdock ($Id: //depot/dev/client3/rdock/2013.1/src/exe/rbdock.cxx#4 $)

>  <Rbt.Library>
libRbt.so (2013.1, Build901 2013/11/27)

>  <Rbt.Parameter_File>
/export/apps/rDock/src/rDock_2013.1_src/data/scripts/dock_solv.prm

>  <Rbt.Receptor>
prm/blind_docking_60.prm

>  <SCORE>
-9.40493

>  <SCORE.INTER>
-8.10863

>  <SCORE.INTER.CONST>
1

>  <SCORE.INTER.POLAR>
0

>  <SCORE.INTER.ROT>
3

>  <SCORE.INTER.SOLV>
13.6109

>  <SCORE.INTER.VDW>
-15.5427

>  <SCORE.INTER.norm>
-0.506789

>  <SCORE.INTRA>
-1.29631

>  <SCORE.INTRA.DIHEDRAL>
-1.63458

>  <SCORE.INTRA.DIHEDRAL.0>
2.21864

>  <SCORE.INTRA.POLAR>
0

>  <SCORE.INTRA.POLAR.0>
0

>  <SCORE.INTRA.REPUL>
0

>  <SCORE.INTRA.REPUL.0>
0

>  <SCORE.INTRA.SOLV>
-0.542634

>  <SCORE.INTRA.SOLV.lig_0>
-58.5963

>  <SCORE.INTRA.VDW>
-0.207701

>  <SCORE.INTRA.VDW.0>
-0.437849

>  <SCORE.INTRA.norm>
-0.0810192

>  <SCORE.RESTR>
0

>  <SCORE.RESTR.CAVITY>
0

>  <SCORE.RESTR.norm>
0

>  <SCORE.SYSTEM>
0

>  <SCORE.SYSTEM.CONST>
0

>  <SCORE.SYSTEM.DIHEDRAL>
0

>  <SCORE.SYSTEM.SOLV>
0

>  <SCORE.SYSTEM.norm>
0

>  <SCORE.heavy>
16

>  <SCORE.norm>
-0.587808

>  <RMSD>
13.763

$$$$
ligand
 OpenBabel11021811463D
libRbt.so/2013.1/901 2013/11/27
 16 16  0  0  0  0  0  0  0  0999 V2000
   36.1198    9.2023   11.9699 P   0  0  2  0  0  0  0  0  0  0  0  0
   36.5455    8.0424   12.7913 O   0  0  0  0  0  0  0  0  0  0  0  0
   37.0209    9.3062   10.6401 O   0  5  0  0  0  0  0  0  0  0  0  0
   36.3112   10.5616   12.8301 O   0  0  0  0  0  0  0  0  0  0  0  0
   30.4781   10.0116   11.5742 C   0  0  2  0  0  0  0  0  0  0  0  0
   30.1631    8.7099   11.0585 O   0  0  0  0  0  0  0  0  0  0  0  0
   29.9651   11.1384   10.6336 C   0  0  2  0  0  0  0  0  0  0  0  0
   28.5025   11.0102   10.4504 N   0  0  0  0  0  0  0  0  0  0  0  0
   30.6835   11.0096    9.2737 C   0  0  1  0  0  0  0  0  0  0  0  0
   30.2477   12.0500    8.3810 O   0  0  0  0  0  0  0  0  0  0  0  0
   32.1940   11.1378    9.5189 C   0  0  2  0  0  0  0  0  0  0  0  0
   32.8939   11.0069    8.2735 O   0  0  0  0  0  0  0  0  0  0  0  0
   32.6299   10.0067   10.4874 C   0  0  2  0  0  0  0  0  0  0  0  0
   31.9186   10.1245   11.7533 O   0  0  0  0  0  0  0  0  0  0  0  0
   34.1398   10.1182   10.7617 C   0  0  0  0  0  0  0  0  0  0  0  0
   34.5741    8.9939   11.5484 O   0  0  0  0  0  0  0  0  0  0  0  0
  1  2  1  1  0  0  0
  1  3  1  0  0  0  0
  1  4  2  0  0  0  0
  1 16  1  0  0  0  0
  5  6  1  6  0  0  0
  5  7  1  0  0  0  0
  5 14  1  0  0  0  0
  7  8  1  6  0  0  0
  7  9  1  0  0  0  0
  9 10  1  6  0  0  0
  9 11  1  0  0  0  0
 11 12  1  6  0  0  0
 11 13  1  0  0  0  0
 13 14  1  0  0  0  0
 13 15  1  1  0  0  0
 15 16  1  0  0  0  0
M  CHG  1   3  -1
M  END
>  <CHROM.1>
-174.17239583,-173.74082286,179.40431066,33.08968511,10.05887177,10.84805204
0.40655085,-0.05526977,2.12588092

>  <Name>
ligand

>  <RI>
0

>  <Rbt.Current_Directory>
/home/itssahil/PROJECTS/Mol_Feturizer/New_Systems/rnas/3B4B

>  <Rbt.Executable>
rbdock ($Id: //depot/dev/client3/rdock/2013.1/src/exe/rbdock.cxx#4 $)

>  <Rbt.Library>
libRbt.so (2013.1, Build901 2013/11/27)

>  <Rbt.Parameter_File>
/export/apps/rDock/src/rDock_2013.1_src/data/scripts/dock_solv.prm

>  <Rbt.Receptor>
prm/blind_docking_60.prm

>  <SCORE>
-8.26593

>  <SCORE.INTER>
-6.79606

>  <SCORE.INTER.CONST>
1

>  <SCORE.INTER.POLAR>
0

>  <SCORE.INTER.ROT>
3

>  <SCORE.INTER.SOLV>
14.8883

>  <SCORE.INTER.VDW>
-15.0935

>  <SCORE.INTER.norm>
-0.424754

>  <SCORE.INTRA>
-1.46987

>  <SCORE.INTRA.DIHEDRAL>
-1.90333

>  <SCORE.INTRA.DIHEDRAL.0>
2.21864

>  <SCORE.INTRA.POLAR>
0

>  <SCORE.INTRA.POLAR.0>
0

>  <SCORE.INTRA.REPUL>
0

>  <SCORE.INTRA.REPUL.0>
0

>  <SCORE.INTRA.SOLV>
-0.487298

>  <SCORE.INTRA.SOLV.lig_0>
-58.5963

>  <SCORE.INTRA.VDW>
-0.274559

>  <SCORE.INTRA.VDW.0>
-0.437849

>  <SCORE.INTRA.norm>
-0.0918669

>  <SCORE.RESTR>
0

>  <SCORE.RESTR.CAVITY>
0

>  <SCORE.RESTR.norm>
0

>  <SCORE.SYSTEM>
0

>  <SCORE.SYSTEM.CONST>
0

>  <SCORE.SYSTEM.DIHEDRAL>
0

>  <SCORE.SYSTEM.SOLV>
0

>  <SCORE.SYSTEM.norm>
0

>  <SCORE.heavy>
16

>  <SCORE.norm>
-0.516621

>  <RMSD>
13.946

$$$$
ligand
 OpenBabel11021811463D
libRbt.so/2013.1/901 2013/11/27
 16 16  0  0  0  0  0  0  0  0999 V2000
   35.7692    9.8250   12.3410 P   0  0  2  0  0  0  0  0  0  0  0  0
   36.0295    8.4613   12.8642 O   0  0  0  0  0  0  0  0  0  0  0  0
   37.0562   10.3732   11.5448 O   0  5  0  0  0  0  0  0  0  0  0  0
   35.4673   10.8217   13.5818 O   0  0  0  0  0  0  0  0  0  0  0  0
   32.1671   10.0815    7.8821 C   0  0  2  0  0  0  0  0  0  0  0  0
   31.9130   11.3805    7.3274 O   0  0  0  0  0  0  0  0  0  0  0  0
   30.9085    9.5071    8.5918 C   0  0  2  0  0  0  0  0  0  0  0  0
   29.7833    9.4339    7.6339 N   0  0  0  0  0  0  0  0  0  0  0  0
   30.5423   10.4335    9.7706 C   0  0  1  0  0  0  0  0  0  0  0  0
   29.3910    9.9225   10.4653 O   0  0  0  0  0  0  0  0  0  0  0  0
   31.7427   10.4846   10.7271 C   0  0  2  0  0  0  0  0  0  0  0  0
   31.4401   11.3518   11.8291 O   0  0  0  0  0  0  0  0  0  0  0  0
   32.9663   11.0342    9.9472 C   0  0  2  0  0  0  0  0  0  0  0  0
   33.2776   10.1656    8.8199 O   0  0  0  0  0  0  0  0  0  0  0  0
   34.1895   11.0846   10.8791 C   0  0  0  0  0  0  0  0  0  0  0  0
   34.5102    9.7562   11.3309 O   0  0  0  0  0  0  0  0  0  0  0  0
  1  2  1  1  0  0  0
  1  3  1  0  0  0  0
  1  4  2  0  0  0  0
  1 16  1  0  0  0  0
  5  6  1  1  0  0  0
  5  7  1  0  0  0  0
  5 14  1  0  0  0  0
  7  8  1  6  0  0  0
  7  9  1  0  0  0  0
  9 10  1  1  0  0  0
  9 11  1  0  0  0  0
 11 12  1  1  0  0  0
 11 13  1  0  0  0  0
 13 14  1  0  0  0  0
 13 15  1  1  0  0  0
 15 16  1  0  0  0  0
M  CHG  1   3  -1
M  END
>  <CHROM.1>
61.63839313,-178.41660271,176.37462428,33.20579669,10.22867584,10.53866653
-0.62244128,0.04945860,-1.55914797

>  <Name>
ligand

>  <RI>
0

>  <Rbt.Current_Directory>
/home/itssahil/PROJECTS/Mol_Feturizer/New_Systems/rnas/3B4B

>  <Rbt.Executable>
rbdock ($Id: //depot/dev/client3/rdock/2013.1/src/exe/rbdock.cxx#4 $)

>  <Rbt.Library>
libRbt.so (2013.1, Build901 2013/11/27)

>  <Rbt.Parameter_File>
/export/apps/rDock/src/rDock_2013.1_src/data/scripts/dock_solv.prm

>  <Rbt.Receptor>
prm/blind_docking_80.prm

>  <SCORE>
-7.67147

>  <SCORE.INTER>
-6.10161

>  <SCORE.INTER.CONST>
1

>  <SCORE.INTER.POLAR>
0

>  <SCORE.INTER.ROT>
3

>  <SCORE.INTER.SOLV>
11.5553

>  <SCORE.INTER.VDW>
-13.5195

>  <SCORE.INTER.norm>
-0.381351

>  <SCORE.INTRA>
-1.56985

>  <SCORE.INTRA.DIHEDRAL>
-2.17528

>  <SCORE.INTRA.DIHEDRAL.0>
2.21864

>  <SCORE.INTRA.POLAR>
0

>  <SCORE.INTRA.POLAR.0>
0

>  <SCORE.INTRA.REPUL>
0

>  <SCORE.INTRA.REPUL.0>
0

>  <SCORE.INTRA.SOLV>
-0.265052

>  <SCORE.INTRA.SOLV.lig_0>
-58.5963

>  <SCORE.INTRA.VDW>
-0.349686

>  <SCORE.INTRA.VDW.0>
-0.437849

>  <SCORE.INTRA.norm>
-0.0981159

>  <SCORE.RESTR>
0

>  <SCORE.RESTR.CAVITY>
0

>  <SCORE.RESTR.norm>
0

>  <SCORE.SYSTEM>
0

>  <SCORE.SYSTEM.CONST>
0

>  <SCORE.SYSTEM.DIHEDRAL>
0

>  <SCORE.SYSTEM.SOLV>
0

>  <SCORE.SYSTEM.norm>
0

>  <SCORE.heavy>
16

>  <SCORE.norm>
-0.479467

>  <RMSD>
14.077

$$$$
ligand
 OpenBabel11021811463D
libRbt.so/2013.1/901 2013/11/27
 16 16  0  0  0  0  0  0  0  0999 V2000
   35.8459   10.3935   12.4061 P   0  0  2  0  0  0  0  0  0  0  0  0
   35.9588   11.5889   13.2775 O   0  0  0  0  0  0  0  0  0  0  0  0
   36.5927    9.1374   13.0811 O   0  5  0  0  0  0  0  0  0  0  0  0
   36.5491   10.7063   10.9807 O   0  0  0  0  0  0  0  0  0  0  0  0
   30.0295   10.6196   12.0567 C   0  0  2  0  0  0  0  0  0  0  0  0
   29.9036    9.1967   11.9179 O   0  0  0  0  0  0  0  0  0  0  0  0
   29.4316   11.3682   10.8321 C   0  0  2  0  0  0  0  0  0  0  0  0
   28.0072   11.0027   10.6685 N   0  0  0  0  0  0  0  0  0  0  0  0
   30.2298   10.9688    9.5731 C   0  0  1  0  0  0  0  0  0  0  0  0
   29.7166   11.6585    8.4197 O   0  0  0  0  0  0  0  0  0  0  0  0
   31.6985   11.3576    9.7969 C   0  0  2  0  0  0  0  0  0  0  0  0
   32.4727   10.9850    8.6481 O   0  0  0  0  0  0  0  0  0  0  0  0
   32.2190   10.6022   11.0483 C   0  0  2  0  0  0  0  0  0  0  0  0
   31.4341   10.9665   12.2202 O   0  0  0  0  0  0  0  0  0  0  0  0
   33.6876   10.9829   11.3047 C   0  0  0  0  0  0  0  0  0  0  0  0
   34.2806   10.0411   12.2172 O   0  0  0  0  0  0  0  0  0  0  0  0
  1  2  1  1  0  0  0
  1  3  1  0  0  0  0
  1  4  2  0  0  0  0
  1 16  1  0  0  0  0
  5  6  1  6  0  0  0
  5  7  1  0  0  0  0
  5 14  1  0  0  0  0
  7  8  1  6  0  0  0
  7  9  1  0  0  0  0
  9 10  1  6  0  0  0
  9 11  1  0  0  0  0
 11 12  1  6  0  0  0
 11 13  1  0  0  0  0
 13 14  1  0  0  0  0
 13 15  1  1  0  0  0
 15 16  1  0  0  0  0
M  CHG  1   3  -1
M  END
>  <CHROM.1>
-164.60748804,176.40557890,75.18985071,32.70679652,10.68430028,11.25917888
0.33785185,0.01949333,1.89060330

>  <Name>
ligand

>  <RI>
0

>  <Rbt.Current_Directory>
/home/itssahil/PROJECTS/Mol_Feturizer/New_Systems/rnas/3B4B

>  <Rbt.Executable>
rbdock ($Id: //depot/dev/client3/rdock/2013.1/src/exe/rbdock.cxx#4 $)

>  <Rbt.Library>
libRbt.so (2013.1, Build901 2013/11/27)

>  <Rbt.Parameter_File>
/export/apps/rDock/src/rDock_2013.1_src/data/scripts/dock_solv.prm

>  <Rbt.Receptor>
prm/blind_docking_80.prm

>  <SCORE>
-8.37179

>  <SCORE.INTER>
-7.24872

>  <SCORE.INTER.CONST>
1

>  <SCORE.INTER.POLAR>
0

>  <SCORE.INTER.ROT>
3

>  <SCORE.INTER.SOLV>
14.7969

>  <SCORE.INTER.VDW>
-15.3648

>  <SCORE.INTER.norm>
-0.453045

>  <SCORE.INTRA>
-1.12307

>  <SCORE.INTRA.DIHEDRAL>
-0.976815

>  <SCORE.INTRA.DIHEDRAL.0>
2.21864

>  <SCORE.INTRA.POLAR>
0

>  <SCORE.INTRA.POLAR.0>
0

>  <SCORE.INTRA.REPUL>
0

>  <SCORE.INTRA.REPUL.0>
0

>  <SCORE.INTRA.SOLV>
-1.07989

>  <SCORE.INTRA.SOLV.lig_0>
-58.5963

>  <SCORE.INTRA.VDW>
-0.0947145

>  <SCORE.INTRA.VDW.0>
-0.437849

>  <SCORE.INTRA.norm>
-0.0701917

>  <SCORE.RESTR>
0

>  <SCORE.RESTR.CAVITY>
0

>  <SCORE.RESTR.norm>
0

>  <SCORE.SYSTEM>
0

>  <SCORE.SYSTEM.CONST>
0

>  <SCORE.SYSTEM.DIHEDRAL>
0

>  <SCORE.SYSTEM.SOLV>
0

>  <SCORE.SYSTEM.norm>
0

>  <SCORE.heavy>
16

>  <SCORE.norm>
-0.523237

>  <RMSD>
14.218

$$$$
ligand
 OpenBabel11021811463D
libRbt.so/2013.1/901 2013/11/27
 16 16  0  0  0  0  0  0  0  0999 V2000
   29.8558   10.4299   10.7648 P   0  0  2  0  0  0  0  0  0  0  0  0
   29.6583    9.1372   10.0642 O   0  0  0  0  0  0  0  0  0  0  0  0
   28.6468   10.6987   11.7931 O   0  5  0  0  0  0  0  0  0  0  0  0
   29.8808   11.6274    9.6741 O   0  0  0  0  0  0  0  0  0  0  0  0
   35.9629    9.3965   11.1136 C   0  0  2  0  0  0  0  0  0  0  0  0
   35.8185    8.2165   11.9176 O   0  0  0  0  0  0  0  0  0  0  0  0
   36.4243   10.6140   11.9635 C   0  0  2  0  0  0  0  0  0  0  0  0
   37.7064   10.3006   12.6321 N   0  0  0  0  0  0  0  0  0  0  0  0
   35.3378   10.9196   13.0161 C   0  0  1  0  0  0  0  0  0  0  0  0
   35.7215   12.0555   13.8110 O   0  0  0  0  0  0  0  0  0  0  0  0
   34.0286   11.2262   12.2744 C   0  0  2  0  0  0  0  0  0  0  0  0
   32.9916   11.5004   13.2270 O   0  0  0  0  0  0  0  0  0  0  0  0
   33.6462    9.9858   11.4243 C   0  0  2  0  0  0  0  0  0  0  0  0
   34.6967    9.6926   10.4587 O   0  0  0  0  0  0  0  0  0  0  0  0
   32.3422   10.2696   10.6586 C   0  0  0  0  0  0  0  0  0  0  0  0
   31.2455   10.3624   11.5860 O   0  0  0  0  0  0  0  0  0  0  0  0
  1  2  1  6  0  0  0
  1  3  1  0  0  0  0
  1  4  2  0  0  0  0
  1 16  1  0  0  0  0
  5  6  1  1  0  0  0
  5  7  1  0  0  0  0
  5 14  1  0  0  0  0
  7  8  1  1  0  0  0
  7  9  1  0  0  0  0
  9 10  1  6  0  0  0
  9 11  1  0  0  0  0
 11 12  1  1  0  0  0
 11 13  1  0  0  0  0
 13 14  1  0  0  0  0
 13 15  1  6  0  0  0
 15 16  1  0  0  0  0
M  CHG  1   3  -1
M  END
>  <CHROM.1>
-68.21409842,-171.27405786,65.97595752,33.03671413,10.40399756,11.57784668
-2.98494792,-0.19830359,0.77180916

>  <Name>
ligand

>  <RI>
0

>  <Rbt.Current_Directory>
/home/itssahil/PROJECTS/Mol_Feturizer/New_Systems/rnas/3B4B

>  <Rbt.Executable>
rbdock ($Id: //depot/dev/client3/rdock/2013.1/src/exe/rbdock.cxx#4 $)

>  <Rbt.Library>
libRbt.so (2013.1, Build901 2013/11/27)

>  <Rbt.Parameter_File>
/export/apps/rDock/src/rDock_2013.1_src/data/scripts/dock_solv.prm

>  <Rbt.Receptor>
prm/blind_docking_80.prm

>  <SCORE>
-6.76608

>  <SCORE.INTER>
-5.57164

>  <SCORE.INTER.CONST>
1

>  <SCORE.INTER.POLAR>
0

>  <SCORE.INTER.ROT>
3

>  <SCORE.INTER.SOLV>
16.7526

>  <SCORE.INTER.VDW>
-14.8986

>  <SCORE.INTER.norm>
-0.348227

>  <SCORE.INTRA>
-1.19445

>  <SCORE.INTRA.DIHEDRAL>
-1.54966

>  <SCORE.INTRA.DIHEDRAL.0>
2.21864

>  <SCORE.INTRA.POLAR>
0

>  <SCORE.INTRA.POLAR.0>
0

>  <SCORE.INTRA.REPUL>
0

>  <SCORE.INTRA.REPUL.0>
0

>  <SCORE.INTRA.SOLV>
-0.778325

>  <SCORE.INTRA.SOLV.lig_0>
-58.5963

>  <SCORE.INTRA.VDW>
-0.0304523

>  <SCORE.INTRA.VDW.0>
-0.437849

>  <SCORE.INTRA.norm>
-0.0746529

>  <SCORE.RESTR>
0

>  <SCORE.RESTR.CAVITY>
0

>  <SCORE.RESTR.norm>
0

>  <SCORE.SYSTEM>
0

>  <SCORE.SYSTEM.CONST>
0

>  <SCORE.SYSTEM.DIHEDRAL>
0

>  <SCORE.SYSTEM.SOLV>
0

>  <SCORE.SYSTEM.norm>
0

>  <SCORE.heavy>
16

>  <SCORE.norm>
-0.42288

>  <RMSD>
14.245

$$$$
ligand
 OpenBabel11021811463D
libRbt.so/2013.1/901 2013/11/27
 16 16  0  0  0  0  0  0  0  0999 V2000
   35.7420   10.1659   12.5610 P   0  0  2  0  0  0  0  0  0  0  0  0
   36.2533    9.1167   13.4769 O   0  0  0  0  0  0  0  0  0  0  0  0
   36.5114   10.0983   11.1488 O   0  5  0  0  0  0  0  0  0  0  0  0
   36.0036   11.6217   13.2216 O   0  0  0  0  0  0  0  0  0  0  0  0
   29.9659   10.6014   11.9605 C   0  0  2  0  0  0  0  0  0  0  0  0
   29.8033    9.1951   11.7245 O   0  0  0  0  0  0  0  0  0  0  0  0
   29.4460   11.4456   10.7627 C   0  0  2  0  0  0  0  0  0  0  0  0
   28.0199   11.1384   10.5154 N   0  0  0  0  0  0  0  0  0  0  0  0
   30.2870   11.1006    9.5155 C   0  0  1  0  0  0  0  0  0  0  0  0
   29.8468   11.8787    8.3885 O   0  0  0  0  0  0  0  0  0  0  0  0
   31.7554   11.4256    9.8262 C   0  0  2  0  0  0  0  0  0  0  0  0
   32.5683   11.1013    8.6896 O   0  0  0  0  0  0  0  0  0  0  0  0
   32.1965   10.5756   11.0470 C   0  0  2  0  0  0  0  0  0  0  0  0
   31.3716   10.8905   12.2056 O   0  0  0  0  0  0  0  0  0  0  0  0
   33.6631   10.8906   11.3896 C   0  0  0  0  0  0  0  0  0  0  0  0
   34.1649    9.9125   12.3186 O   0  0  0  0  0  0  0  0  0  0  0  0
  1  2  1  1  0  0  0
  1  3  1  0  0  0  0
  1  4  2  0  0  0  0
  1 16  1  0  0  0  0
  5  6  1  6  0  0  0
  5  7  1  0  0  0  0
  5 14  1  0  0  0  0
  7  8  1  6  0  0  0
  7  9  1  0  0  0  0
  9 10  1  6  0  0  0
  9 11  1  0  0  0  0
 11 12  1  6  0  0  0
 11 13  1  0  0  0  0
 13 14  1  0  0  0  0
 13 15  1  1  0  0  0
 15 16  1  0  0  0  0
M  CHG  1   3  -1
M  END
>  <CHROM.1>
-167.59072151,174.54619759,-177.73806810,32.67113992,10.64118341,11.29047496
0.39105417,0.00857497,1.94098819

>  <Name>
ligand

>  <RI>
0

>  <Rbt.Current_Directory>
/home/itssahil/PROJECTS/Mol_Feturizer/New_Systems/rnas/3B4B

>  <Rbt.Executable>
rbdock ($Id: //depot/dev/client3/rdock/2013.1/src/exe/rbdock.cxx#4 $)

>  <Rbt.Library>
libRbt.so (2013.1, Build901 2013/11/27)

>  <Rbt.Parameter_File>
/export/apps/rDock/src/rDock_2013.1_src/data/scripts/dock_solv.prm

>  <Rbt.Receptor>
prm/blind_docking_100.prm

>  <SCORE>
-8.33089

>  <SCORE.INTER>
-7.04529

>  <SCORE.INTER.CONST>
1

>  <SCORE.INTER.POLAR>
0

>  <SCORE.INTER.ROT>
3

>  <SCORE.INTER.SOLV>
16.0569

>  <SCORE.INTER.VDW>
-15.6492

>  <SCORE.INTER.norm>
-0.44033

>  <SCORE.INTRA>
-1.2856

>  <SCORE.INTRA.DIHEDRAL>
-1.52375

>  <SCORE.INTRA.DIHEDRAL.0>
2.21864

>  <SCORE.INTRA.POLAR>
0

>  <SCORE.INTRA.POLAR.0>
0

>  <SCORE.INTRA.REPUL>
0

>  <SCORE.INTRA.REPUL.0>
0

>  <SCORE.INTRA.SOLV>
-0.562045

>  <SCORE.INTRA.SOLV.lig_0>
-58.5963

>  <SCORE.INTRA.VDW>
-0.242703

>  <SCORE.INTRA.VDW.0>
-0.437849

>  <SCORE.INTRA.norm>
-0.0803499

>  <SCORE.RESTR>
0

>  <SCORE.RESTR.CAVITY>
0

>  <SCORE.RESTR.norm>
0

>  <SCORE.SYSTEM>
0

>  <SCORE.SYSTEM.CONST>
0

>  <SCORE.SYSTEM.DIHEDRAL>
0

>  <SCORE.SYSTEM.SOLV>
0

>  <SCORE.SYSTEM.norm>
0

>  <SCORE.heavy>
16

>  <SCORE.norm>
-0.52068

>  <RMSD>
14.284

$$$$
ligand
 OpenBabel11021811463D
libRbt.so/2013.1/901 2013/11/27
 16 16  0  0  0  0  0  0  0  0999 V2000
   52.2927    9.8414   20.9795 P   0  0  2  0  0  0  0  0  0  0  0  0
   51.4611   10.8417   21.6931 O   0  0  0  0  0  0  0  0  0  0  0  0
   51.5520    9.3555   19.6356 O   0  5  0  0  0  0  0  0  0  0  0  0
   52.5170    8.5553   21.9386 O   0  0  0  0  0  0  0  0  0  0  0  0
   56.8115    8.5028   22.7615 C   0  0  2  0  0  0  0  0  0  0  0  0
   55.9613    7.3467   22.7697 O   0  0  0  0  0  0  0  0  0  0  0  0
   57.1351    8.9843   24.2042 C   0  0  2  0  0  0  0  0  0  0  0  0
   57.7801    7.8907   24.9639 N   0  0  0  0  0  0  0  0  0  0  0  0
   55.8176    9.4021   24.8908 C   0  0  1  0  0  0  0  0  0  0  0  0
   56.0799    9.8730   26.2245 O   0  0  0  0  0  0  0  0  0  0  0  0
   55.1837   10.5276   24.0604 C   0  0  2  0  0  0  0  0  0  0  0  0
   53.9463   10.9296   24.6648 O   0  0  0  0  0  0  0  0  0  0  0  0
   54.9187    9.9898   22.6294 C   0  0  2  0  0  0  0  0  0  0  0  0
   56.1681    9.5702   22.0088 O   0  0  0  0  0  0  0  0  0  0  0  0
   54.2940   11.1023   21.7695 C   0  0  0  0  0  0  0  0  0  0  0  0
   53.7019   10.5287   20.5897 O   0  0  0  0  0  0  0  0  0  0  0  0
  1  2  1  1  0  0  0
  1  3  1  0  0  0  0
  1  4  2  0  0  0  0
  1 16  1  0  0  0  0
  5  6  1  1  0  0  0
  5  7  1  0  0  0  0
  5 14  1  0  0  0  0
  7  8  1  1  0  0  0
  7  9  1  0  0  0  0
  9 10  1  1  0  0  0
  9 11  1  0  0  0  0
 11 12  1  1  0  0  0
 11 13  1  0  0  0  0
 13 14  1  0  0  0  0
 13 15  1  6  0  0  0
 15 16  1  0  0  0  0
M  CHG  1   3  -1
M  END
>  <CHROM.1>
-163.72465164,77.00928106,53.07867014,54.48728264,9.60037270,22.69152165
-2.65909584,-0.55799091,1.03478143

>  <Name>
ligand

>  <RI>
0

>  <Rbt.Current_Directory>
/home/itssahil/PROJECTS/Mol_Feturizer/New_Systems/rnas/3B4B

>  <Rbt.Executable>
rbdock ($Id: //depot/dev/client3/rdock/2013.1/src/exe/rbdock.cxx#4 $)

>  <Rbt.Library>
libRbt.so (2013.1, Build901 2013/11/27)

>  <Rbt.Parameter_File>
/export/apps/rDock/src/rDock_2013.1_src/data/scripts/dock_solv.prm

>  <Rbt.Receptor>
prm/blind_docking_80.prm

>  <SCORE>
-12.3923

>  <SCORE.INTER>
-13.1158

>  <SCORE.INTER.CONST>
1

>  <SCORE.INTER.POLAR>
0

>  <SCORE.INTER.ROT>
3

>  <SCORE.INTER.SOLV>
18.5857

>  <SCORE.INTER.VDW>
-20.5391

>  <SCORE.INTER.norm>
-0.819735

>  <SCORE.INTRA>
0.723504

>  <SCORE.INTRA.DIHEDRAL>
0.0975718

>  <SCORE.INTRA.DIHEDRAL.0>
2.21864

>  <SCORE.INTRA.POLAR>
0

>  <SCORE.INTRA.POLAR.0>
0

>  <SCORE.INTRA.REPUL>
0

>  <SCORE.INTRA.REPUL.0>
0

>  <SCORE.INTRA.SOLV>
1.93286

>  <SCORE.INTRA.SOLV.lig_0>
-58.5963

>  <SCORE.INTRA.VDW>
-0.291709

>  <SCORE.INTRA.VDW.0>
-0.437849

>  <SCORE.INTRA.norm>
0.045219

>  <SCORE.RESTR>
0

>  <SCORE.RESTR.CAVITY>
0

>  <SCORE.RESTR.norm>
0

>  <SCORE.SYSTEM>
0

>  <SCORE.SYSTEM.CONST>
0

>  <SCORE.SYSTEM.DIHEDRAL>
0

>  <SCORE.SYSTEM.SOLV>
0

>  <SCORE.SYSTEM.norm>
0

>  <SCORE.heavy>
16

>  <SCORE.norm>
-0.774516

>  <RMSD>
14.328

$$$$
ligand
 OpenBabel11021811463D
libRbt.so/2013.1/901 2013/11/27
 16 16  0  0  0  0  0  0  0  0999 V2000
   52.4017   10.2341   21.4359 P   0  0  2  0  0  0  0  0  0  0  0  0
   52.5787    9.0177   22.2667 O   0  0  0  0  0  0  0  0  0  0  0  0
   50.9567   10.8900   21.7060 O   0  5  0  0  0  0  0  0  0  0  0  0
   52.4991    9.8277   19.8708 O   0  0  0  0  0  0  0  0  0  0  0  0
   57.1722    8.3070   23.0094 C   0  0  2  0  0  0  0  0  0  0  0  0
   56.3416    7.1378   22.9578 O   0  0  0  0  0  0  0  0  0  0  0  0
   57.2477    8.8912   24.4483 C   0  0  2  0  0  0  0  0  0  0  0  0
   57.7661    7.8643   25.3788 N   0  0  0  0  0  0  0  0  0  0  0  0
   55.8312    9.3289   24.8769 C   0  0  1  0  0  0  0  0  0  0  0  0
   55.8645    9.8940   26.1994 O   0  0  0  0  0  0  0  0  0  0  0  0
   55.3352   10.3832   23.8765 C   0  0  2  0  0  0  0  0  0  0  0  0
   54.0115   10.8011   24.2385 O   0  0  0  0  0  0  0  0  0  0  0  0
   55.3160    9.7446   22.4626 C   0  0  2  0  0  0  0  0  0  0  0  0
   56.6544    9.3083   22.0878 O   0  0  0  0  0  0  0  0  0  0  0  0
   54.8341   10.7841   21.4356 C   0  0  0  0  0  0  0  0  0  0  0  0
   53.5501   11.2990   21.8326 O   0  0  0  0  0  0  0  0  0  0  0  0
  1  2  1  1  0  0  0
  1  3  1  0  0  0  0
  1  4  2  0  0  0  0
  1 16  1  0  0  0  0
  5  6  1  1  0  0  0
  5  7  1  0  0  0  0
  5 14  1  0  0  0  0
  7  8  1  1  0  0  0
  7  9  1  0  0  0  0
  9 10  1  1  0  0  0
  9 11  1  0  0  0  0
 11 12  1  1  0  0  0
 11 13  1  0  0  0  0
 13 14  1  0  0  0  0
 13 15  1  6  0  0  0
 15 16  1  0  0  0  0
M  CHG  1   3  -1
M  END
>  <CHROM.1>
-55.69386464,-78.95621912,66.93921669,54.65127243,9.66518621,22.86239465
-2.70806117,-0.53338003,1.22911850

>  <Name>
ligand

>  <RI>
0

>  <Rbt.Current_Directory>
/home/itssahil/PROJECTS/Mol_Feturizer/New_Systems/rnas/3B4B

>  <Rbt.Executable>
rbdock ($Id: //depot/dev/client3/rdock/2013.1/src/exe/rbdock.cxx#4 $)

>  <Rbt.Library>
libRbt.so (2013.1, Build901 2013/11/27)

>  <Rbt.Parameter_File>
/export/apps/rDock/src/rDock_2013.1_src/data/scripts/dock_solv.prm

>  <Rbt.Receptor>
prm/blind_docking_100.prm

>  <SCORE>
-11.2477

>  <SCORE.INTER>
-11.6949

>  <SCORE.INTER.CONST>
1

>  <SCORE.INTER.POLAR>
0

>  <SCORE.INTER.ROT>
3

>  <SCORE.INTER.SOLV>
17.3007

>  <SCORE.INTER.VDW>
-19.1635

>  <SCORE.INTER.norm>
-0.73093

>  <SCORE.INTRA>
0.447135

>  <SCORE.INTRA.DIHEDRAL>
-0.437998

>  <SCORE.INTRA.DIHEDRAL.0>
2.21864

>  <SCORE.INTRA.POLAR>
0

>  <SCORE.INTRA.POLAR.0>
0

>  <SCORE.INTRA.REPUL>
0

>  <SCORE.INTRA.REPUL.0>
0

>  <SCORE.INTRA.SOLV>
0.904593

>  <SCORE.INTRA.SOLV.lig_0>
-58.5963

>  <SCORE.INTRA.VDW>
0.213837

>  <SCORE.INTRA.VDW.0>
-0.437849

>  <SCORE.INTRA.norm>
0.0279459

>  <SCORE.RESTR>
0

>  <SCORE.RESTR.CAVITY>
0

>  <SCORE.RESTR.norm>
0

>  <SCORE.SYSTEM>
0

>  <SCORE.SYSTEM.CONST>
0

>  <SCORE.SYSTEM.DIHEDRAL>
0

>  <SCORE.SYSTEM.SOLV>
0

>  <SCORE.SYSTEM.norm>
0

>  <SCORE.heavy>
16

>  <SCORE.norm>
-0.702984

>  <RMSD>
14.472

$$$$
ligand
 OpenBabel11021811463D
libRbt.so/2013.1/901 2013/11/27
 16 16  0  0  0  0  0  0  0  0999 V2000
   35.1272   11.1039   12.8588 P   0  0  2  0  0  0  0  0  0  0  0  0
   35.0689   12.3002   13.7343 O   0  0  0  0  0  0  0  0  0  0  0  0
   35.9852    9.9377   13.5623 O   0  5  0  0  0  0  0  0  0  0  0  0
   35.8455   11.5017   11.4624 O   0  0  0  0  0  0  0  0  0  0  0  0
   29.3796   10.4695   12.1683 C   0  0  2  0  0  0  0  0  0  0  0  0
   29.4833    9.0567   11.9382 O   0  0  0  0  0  0  0  0  0  0  0  0
   28.7328   11.1996   10.9574 C   0  0  2  0  0  0  0  0  0  0  0  0
   27.3922   10.6337   10.6896 N   0  0  0  0  0  0  0  0  0  0  0  0
   29.6436   11.0121    9.7257 C   0  0  1  0  0  0  0  0  0  0  0  0
   29.0861   11.6921    8.5873 O   0  0  0  0  0  0  0  0  0  0  0  0
   31.0214   11.6036   10.0575 C   0  0  2  0  0  0  0  0  0  0  0  0
   31.8989   11.4315    8.9358 O   0  0  0  0  0  0  0  0  0  0  0  0
   31.5915   10.8533   11.2902 C   0  0  2  0  0  0  0  0  0  0  0  0
   30.7036   11.0140   12.4338 O   0  0  0  0  0  0  0  0  0  0  0  0
   32.9689   11.4346   11.6540 C   0  0  0  0  0  0  0  0  0  0  0  0
   33.6208   10.5766   12.6081 O   0  0  0  0  0  0  0  0  0  0  0  0
  1  2  1  1  0  0  0
  1  3  1  0  0  0  0
  1  4  2  0  0  0  0
  1 16  1  0  0  0  0
  5  6  1  6  0  0  0
  5  7  1  0  0  0  0
  5 14  1  0  0  0  0
  7  8  1  6  0  0  0
  7  9  1  0  0  0  0
  9 10  1  6  0  0  0
  9 11  1  0  0  0  0
 11 12  1  6  0  0  0
 11 13  1  0  0  0  0
 13 14  1  0  0  0  0
 13 15  1  1  0  0  0
 15 16  1  0  0  0  0
M  CHG  1   3  -1
M  END
>  <CHROM.1>
-168.23709005,173.74132180,76.26503375,32.04601040,10.99267984,11.54014017
0.33892959,0.18299629,1.95288668

>  <Name>
ligand

>  <RI>
0

>  <Rbt.Current_Directory>
/home/itssahil/PROJECTS/Mol_Feturizer/New_Systems/rnas/3B4B

>  <Rbt.Executable>
rbdock ($Id: //depot/dev/client3/rdock/2013.1/src/exe/rbdock.cxx#4 $)

>  <Rbt.Library>
libRbt.so (2013.1, Build901 2013/11/27)

>  <Rbt.Parameter_File>
/export/apps/rDock/src/rDock_2013.1_src/data/scripts/dock_solv.prm

>  <Rbt.Receptor>
prm/blind_docking_100.prm

>  <SCORE>
-8.53344

>  <SCORE.INTER>
-7.36222

>  <SCORE.INTER.CONST>
1

>  <SCORE.INTER.POLAR>
0

>  <SCORE.INTER.ROT>
3

>  <SCORE.INTER.SOLV>
17.4905

>  <SCORE.INTER.VDW>
-16.3383

>  <SCORE.INTER.norm>
-0.460139

>  <SCORE.INTRA>
-1.17122

>  <SCORE.INTRA.DIHEDRAL>
-1.12629

>  <SCORE.INTRA.DIHEDRAL.0>
2.21864

>  <SCORE.INTRA.POLAR>
0

>  <SCORE.INTRA.POLAR.0>
0

>  <SCORE.INTRA.REPUL>
0

>  <SCORE.INTRA.REPUL.0>
0

>  <SCORE.INTRA.SOLV>
-1.05628

>  <SCORE.INTRA.SOLV.lig_0>
-58.5963

>  <SCORE.INTRA.VDW>
-0.0799337

>  <SCORE.INTRA.VDW.0>
-0.437849

>  <SCORE.INTRA.norm>
-0.0732012

>  <SCORE.RESTR>
0

>  <SCORE.RESTR.CAVITY>
0

>  <SCORE.RESTR.norm>
0

>  <SCORE.SYSTEM>
0

>  <SCORE.SYSTEM.CONST>
0

>  <SCORE.SYSTEM.DIHEDRAL>
0

>  <SCORE.SYSTEM.SOLV>
0

>  <SCORE.SYSTEM.norm>
0

>  <SCORE.heavy>
16

>  <SCORE.norm>
-0.53334

>  <RMSD>
14.844

$$$$
ligand
 OpenBabel11021811463D
libRbt.so/2013.1/901 2013/11/27
 16 16  0  0  0  0  0  0  0  0999 V2000
   53.4288   11.2193   23.8787 P   0  0  2  0  0  0  0  0  0  0  0  0
   54.5991   11.8439   23.2145 O   0  0  0  0  0  0  0  0  0  0  0  0
   53.8640    9.8522   24.6085 O   0  5  0  0  0  0  0  0  0  0  0  0
   52.3063   10.8735   22.7630 O   0  0  0  0  0  0  0  0  0  0  0  0
   50.7838   14.9536   27.3363 C   0  0  2  0  0  0  0  0  0  0  0  0
   51.6327   14.7123   28.4680 O   0  0  0  0  0  0  0  0  0  0  0  0
   49.2886   14.6997   27.6792 C   0  0  2  0  0  0  0  0  0  0  0  0
   48.8802   15.5646   28.8080 N   0  0  0  0  0  0  0  0  0  0  0  0
   49.1162   13.2140   28.0596 C   0  0  1  0  0  0  0  0  0  0  0  0
   47.7383   12.9360   28.3653 O   0  0  0  0  0  0  0  0  0  0  0  0
   49.5626   12.3610   26.8632 C   0  0  2  0  0  0  0  0  0  0  0  0
   49.4289   10.9706   27.1903 O   0  0  0  0  0  0  0  0  0  0  0  0
   51.0481   12.6878   26.5569 C   0  0  2  0  0  0  0  0  0  0  0  0
   51.1973   14.0999   26.2317 O   0  0  0  0  0  0  0  0  0  0  0  0
   51.5198   11.8552   25.3520 C   0  0  0  0  0  0  0  0  0  0  0  0
   52.8536   12.2498   24.9821 O   0  0  0  0  0  0  0  0  0  0  0  0
  1  2  1  6  0  0  0
  1  3  1  0  0  0  0
  1  4  2  0  0  0  0
  1 16  1  0  0  0  0
  5  6  1  1  0  0  0
  5  7  1  0  0  0  0
  5 14  1  0  0  0  0
  7  8  1  1  0  0  0
  7  9  1  0  0  0  0
  9 10  1  6  0  0  0
  9 11  1  0  0  0  0
 11 12  1  1  0  0  0
 11 13  1  0  0  0  0
 13 14  1  0  0  0  0
 13 15  1  6  0  0  0
 15 16  1  0  0  0  0
M  CHG  1   3  -1
M  END
>  <CHROM.1>
174.38383053,171.02515893,163.15881534,51.29767291,12.60050630,26.05661167
-0.75709641,0.53439407,0.47839748

>  <Name>
ligand

>  <RI>
0

>  <Rbt.Current_Directory>
/home/itssahil/PROJECTS/Mol_Feturizer/New_Systems/rnas/3B4B

>  <Rbt.Executable>
rbdock ($Id: //depot/dev/client3/rdock/2013.1/src/exe/rbdock.cxx#4 $)

>  <Rbt.Library>
libRbt.so (2013.1, Build901 2013/11/27)

>  <Rbt.Parameter_File>
/export/apps/rDock/src/rDock_2013.1_src/data/scripts/dock_solv.prm

>  <Rbt.Receptor>
prm/blind_docking_100.prm

>  <SCORE>
-5.47824

>  <SCORE.INTER>
-4.48072

>  <SCORE.INTER.CONST>
1

>  <SCORE.INTER.POLAR>
0

>  <SCORE.INTER.ROT>
3

>  <SCORE.INTER.SOLV>
12.4404

>  <SCORE.INTER.VDW>
-12.7339

>  <SCORE.INTER.norm>
-0.280045

>  <SCORE.INTRA>
-0.99752

>  <SCORE.INTRA.DIHEDRAL>
-1.28257

>  <SCORE.INTRA.DIHEDRAL.0>
2.21864

>  <SCORE.INTRA.POLAR>
0

>  <SCORE.INTRA.POLAR.0>
0

>  <SCORE.INTRA.REPUL>
0

>  <SCORE.INTRA.REPUL.0>
0

>  <SCORE.INTRA.SOLV>
-0.514008

>  <SCORE.INTRA.SOLV.lig_0>
-58.5963

>  <SCORE.INTRA.VDW>
-0.0992322

>  <SCORE.INTRA.VDW.0>
-0.437849

>  <SCORE.INTRA.norm>
-0.062345

>  <SCORE.RESTR>
0

>  <SCORE.RESTR.CAVITY>
0

>  <SCORE.RESTR.norm>
0

>  <SCORE.SYSTEM>
0

>  <SCORE.SYSTEM.CONST>
0

>  <SCORE.SYSTEM.DIHEDRAL>
0

>  <SCORE.SYSTEM.SOLV>
0

>  <SCORE.SYSTEM.norm>
0

>  <SCORE.heavy>
16

>  <SCORE.norm>
-0.34239

>  <RMSD>
14.907

$$$$
ligand
 OpenBabel11021811463D
libRbt.so/2013.1/901 2013/11/27
 16 16  0  0  0  0  0  0  0  0999 V2000
   58.0415    9.3177   26.3794 P   0  0  2  0  0  0  0  0  0  0  0  0
   59.5003    9.5740   26.2935 O   0  0  0  0  0  0  0  0  0  0  0  0
   57.4296   10.0075   27.6987 O   0  5  0  0  0  0  0  0  0  0  0  0
   57.7868    7.7203   26.4673 O   0  0  0  0  0  0  0  0  0  0  0  0
   55.0354    9.8104   21.5567 C   0  0  2  0  0  0  0  0  0  0  0  0
   55.4977   11.1209   21.1983 O   0  0  0  0  0  0  0  0  0  0  0  0
   53.4844    9.7582   21.6531 C   0  0  2  0  0  0  0  0  0  0  0  0
   52.8887   10.1662   20.3616 N   0  0  0  0  0  0  0  0  0  0  0  0
   53.0283   10.7161   22.7739 C   0  0  1  0  0  0  0  0  0  0  0  0
   51.5964   10.6801   22.9063 O   0  0  0  0  0  0  0  0  0  0  0  0
   53.6805   10.2582   24.0866 C   0  0  2  0  0  0  0  0  0  0  0  0
   53.2881   11.1390   25.1488 O   0  0  0  0  0  0  0  0  0  0  0  0
   55.2212   10.3036   23.9090 C   0  0  2  0  0  0  0  0  0  0  0  0
   55.6306    9.4189   22.8265 O   0  0  0  0  0  0  0  0  0  0  0  0
   55.9024    9.8368   25.2073 C   0  0  0  0  0  0  0  0  0  0  0  0
   57.3310    9.9486   25.0728 O   0  0  0  0  0  0  0  0  0  0  0  0
  1  2  1  6  0  0  0
  1  3  1  0  0  0  0
  1  4  2  0  0  0  0
  1 16  1  0  0  0  0
  5  6  1  1  0  0  0
  5  7  1  0  0  0  0
  5 14  1  0  0  0  0
  7  8  1  6  0  0  0
  7  9  1  0  0  0  0
  9 10  1  1  0  0  0
  9 11  1  0  0  0  0
 11 12  1  1  0  0  0
 11 13  1  0  0  0  0
 13 14  1  0  0  0  0
 13 15  1  1  0  0  0
 15 16  1  0  0  0  0
M  CHG  1   3  -1
M  END
>  <CHROM.1>
-176.79420906,-174.29981182,-173.87363603,55.58316803,9.93524197,24.20262654
-0.73015113,0.25387499,-1.59619363

>  <Name>
ligand

>  <RI>
0

>  <Rbt.Current_Directory>
/home/itssahil/PROJECTS/Mol_Feturizer/New_Systems/rnas/3B4B

>  <Rbt.Executable>
rbdock ($Id: //depot/dev/client3/rdock/2013.1/src/exe/rbdock.cxx#4 $)

>  <Rbt.Library>
libRbt.so (2013.1, Build901 2013/11/27)

>  <Rbt.Parameter_File>
/export/apps/rDock/src/rDock_2013.1_src/data/scripts/dock_solv.prm

>  <Rbt.Receptor>
prm/blind_docking_80.prm

>  <SCORE>
-7.99718

>  <SCORE.INTER>
-6.55456

>  <SCORE.INTER.CONST>
1

>  <SCORE.INTER.POLAR>
0

>  <SCORE.INTER.ROT>
3

>  <SCORE.INTER.SOLV>
13.2439

>  <SCORE.INTER.VDW>
-14.3843

>  <SCORE.INTER.norm>
-0.40966

>  <SCORE.INTRA>
-1.44262

>  <SCORE.INTRA.DIHEDRAL>
-1.95844

>  <SCORE.INTRA.DIHEDRAL.0>
2.21864

>  <SCORE.INTRA.POLAR>
0

>  <SCORE.INTRA.POLAR.0>
0

>  <SCORE.INTRA.REPUL>
0

>  <SCORE.INTRA.REPUL.0>
0

>  <SCORE.INTRA.SOLV>
-0.482722

>  <SCORE.INTRA.SOLV.lig_0>
-58.5963

>  <SCORE.INTRA.VDW>
-0.222039

>  <SCORE.INTRA.VDW.0>
-0.437849

>  <SCORE.INTRA.norm>
-0.0901639

>  <SCORE.RESTR>
0

>  <SCORE.RESTR.CAVITY>
0

>  <SCORE.RESTR.norm>
0

>  <SCORE.SYSTEM>
0

>  <SCORE.SYSTEM.CONST>
0

>  <SCORE.SYSTEM.DIHEDRAL>
0

>  <SCORE.SYSTEM.SOLV>
0

>  <SCORE.SYSTEM.norm>
0

>  <SCORE.heavy>
16

>  <SCORE.norm>
-0.499824

>  <RMSD>
15.013

$$$$
ligand
 OpenBabel11021811463D
libRbt.so/2013.1/901 2013/11/27
 16 16  0  0  0  0  0  0  0  0999 V2000
   35.3383   10.0484   11.3438 P   0  0  2  0  0  0  0  0  0  0  0  0
   35.5024    9.1554   12.5171 O   0  0  0  0  0  0  0  0  0  0  0  0
   36.5521    9.8385   10.3076 O   0  5  0  0  0  0  0  0  0  0  0  0
   35.3474   11.5894   11.8433 O   0  0  0  0  0  0  0  0  0  0  0  0
   30.4842    7.3602   10.3482 C   0  0  2  0  0  0  0  0  0  0  0  0
   30.2720    7.7837    8.9935 O   0  0  0  0  0  0  0  0  0  0  0  0
   29.2607    7.6916   11.2487 C   0  0  2  0  0  0  0  0  0  0  0  0
   28.0476    7.0437   10.7031 N   0  0  0  0  0  0  0  0  0  0  0  0
   29.0746    9.2233   11.2822 C   0  0  1  0  0  0  0  0  0  0  0  0
   27.9607    9.5703   12.1236 O   0  0  0  0  0  0  0  0  0  0  0  0
   30.3606    9.8473   11.8436 C   0  0  2  0  0  0  0  0  0  0  0  0
   30.2262   11.2752   11.8738 O   0  0  0  0  0  0  0  0  0  0  0  0
   31.5410    9.4506   10.9180 C   0  0  2  0  0  0  0  0  0  0  0  0
   31.6816    8.0013   10.8727 O   0  0  0  0  0  0  0  0  0  0  0  0
   32.8474   10.0526   11.4642 C   0  0  0  0  0  0  0  0  0  0  0  0
   33.9458    9.6832   10.6106 O   0  0  0  0  0  0  0  0  0  0  0  0
  1  2  1  1  0  0  0
  1  3  1  0  0  0  0
  1  4  2  0  0  0  0
  1 16  1  0  0  0  0
  5  6  1  6  0  0  0
  5  7  1  0  0  0  0
  5 14  1  0  0  0  0
  7  8  1  6  0  0  0
  7  9  1  0  0  0  0
  9 10  1  1  0  0  0
  9 11  1  0  0  0  0
 11 12  1  6  0  0  0
 11 13  1  0  0  0  0
 13 14  1  0  0  0  0
 13 15  1  1  0  0  0
 15 16  1  0  0  0  0
M  CHG  1   3  -1
M  END
>  <CHROM.1>
179.81531087,-168.25787153,67.98986359,32.10683510,9.31579756,11.15713958
-0.24261372,-0.09686528,-2.58773087

>  <Name>
ligand

>  <RI>
0

>  <Rbt.Current_Directory>
/home/itssahil/PROJECTS/Mol_Feturizer/New_Systems/rnas/3B4B

>  <Rbt.Executable>
rbdock ($Id: //depot/dev/client3/rdock/2013.1/src/exe/rbdock.cxx#4 $)

>  <Rbt.Library>
libRbt.so (2013.1, Build901 2013/11/27)

>  <Rbt.Parameter_File>
/export/apps/rDock/src/rDock_2013.1_src/data/scripts/dock_solv.prm

>  <Rbt.Receptor>
prm/blind_docking_60.prm

>  <SCORE>
-6.47813

>  <SCORE.INTER>
-5.05737

>  <SCORE.INTER.CONST>
1

>  <SCORE.INTER.POLAR>
0

>  <SCORE.INTER.ROT>
3

>  <SCORE.INTER.SOLV>
13.6764

>  <SCORE.INTER.VDW>
-13.5304

>  <SCORE.INTER.norm>
-0.316085

>  <SCORE.INTRA>
-1.42076

>  <SCORE.INTRA.DIHEDRAL>
-1.45305

>  <SCORE.INTRA.DIHEDRAL.0>
2.21864

>  <SCORE.INTRA.POLAR>
0

>  <SCORE.INTRA.POLAR.0>
0

>  <SCORE.INTRA.REPUL>
0

>  <SCORE.INTRA.REPUL.0>
0

>  <SCORE.INTRA.SOLV>
-1.07082

>  <SCORE.INTRA.SOLV.lig_0>
-58.5963

>  <SCORE.INTRA.VDW>
-0.158825

>  <SCORE.INTRA.VDW.0>
-0.437849

>  <SCORE.INTRA.norm>
-0.0887976

>  <SCORE.RESTR>
0

>  <SCORE.RESTR.CAVITY>
0

>  <SCORE.RESTR.norm>
0

>  <SCORE.SYSTEM>
0

>  <SCORE.SYSTEM.CONST>
0

>  <SCORE.SYSTEM.DIHEDRAL>
0

>  <SCORE.SYSTEM.SOLV>
0

>  <SCORE.SYSTEM.norm>
0

>  <SCORE.heavy>
16

>  <SCORE.norm>
-0.404883

>  <RMSD>
15.029

$$$$
ligand
 OpenBabel11021811463D
libRbt.so/2013.1/901 2013/11/27
 16 16  0  0  0  0  0  0  0  0999 V2000
   34.5158   11.5643   12.9711 P   0  0  2  0  0  0  0  0  0  0  0  0
   35.0608   11.1118   14.2747 O   0  0  0  0  0  0  0  0  0  0  0  0
   35.6718   11.5624   11.8510 O   0  5  0  0  0  0  0  0  0  0  0  0
   33.9509   13.0747   13.1266 O   0  0  0  0  0  0  0  0  0  0  0  0
   31.0603    7.7382   10.5033 C   0  0  2  0  0  0  0  0  0  0  0  0
   30.6693    7.9966    9.1468 O   0  0  0  0  0  0  0  0  0  0  0  0
   29.8531    7.8497   11.4769 C   0  0  2  0  0  0  0  0  0  0  0  0
   28.7925    6.9018   11.0697 N   0  0  0  0  0  0  0  0  0  0  0  0
   29.3171    9.2963   11.4330 C   0  0  1  0  0  0  0  0  0  0  0  0
   28.2089    9.4434   12.3382 O   0  0  0  0  0  0  0  0  0  0  0  0
   30.4551   10.2388   11.8516 C   0  0  2  0  0  0  0  0  0  0  0  0
   29.9933   11.5962   11.8066 O   0  0  0  0  0  0  0  0  0  0  0  0
   31.6341   10.0522   10.8603 C   0  0  2  0  0  0  0  0  0  0  0  0
   32.1058    8.6743   10.8911 O   0  0  0  0  0  0  0  0  0  0  0  0
   32.7959   10.9769   11.2635 C   0  0  0  0  0  0  0  0  0  0  0  0
   33.3422   10.5479   12.5240 O   0  0  0  0  0  0  0  0  0  0  0  0
  1  2  1  1  0  0  0
  1  3  1  0  0  0  0
  1  4  2  0  0  0  0
  1 16  1  0  0  0  0
  5  6  1  6  0  0  0
  5  7  1  0  0  0  0
  5 14  1  0  0  0  0
  7  8  1  6  0  0  0
  7  9  1  0  0  0  0
  9 10  1  1  0  0  0
  9 11  1  0  0  0  0
 11 12  1  6  0  0  0
 11 13  1  0  0  0  0
 13 14  1  0  0  0  0
 13 15  1  1  0  0  0
 15 16  1  0  0  0  0
M  CHG  1   3  -1
M  END
>  <CHROM.1>
66.92268819,-177.43034246,179.65949733,31.96912148,10.07958356,11.82394080
-0.65052685,-0.07282574,-2.52163306

>  <Name>
ligand

>  <RI>
0

>  <Rbt.Current_Directory>
/home/itssahil/PROJECTS/Mol_Feturizer/New_Systems/rnas/3B4B

>  <Rbt.Executable>
rbdock ($Id: //depot/dev/client3/rdock/2013.1/src/exe/rbdock.cxx#4 $)

>  <Rbt.Library>
libRbt.so (2013.1, Build901 2013/11/27)

>  <Rbt.Parameter_File>
/export/apps/rDock/src/rDock_2013.1_src/data/scripts/dock_solv.prm

>  <Rbt.Receptor>
prm/blind_docking_80.prm

>  <SCORE>
-8.84182

>  <SCORE.INTER>
-7.34481

>  <SCORE.INTER.CONST>
1

>  <SCORE.INTER.POLAR>
0

>  <SCORE.INTER.ROT>
3

>  <SCORE.INTER.SOLV>
18.4783

>  <SCORE.INTER.VDW>
-16.656

>  <SCORE.INTER.norm>
-0.459051

>  <SCORE.INTRA>
-1.49702

>  <SCORE.INTRA.DIHEDRAL>
-2.01299

>  <SCORE.INTRA.DIHEDRAL.0>
2.21864

>  <SCORE.INTRA.POLAR>
0

>  <SCORE.INTRA.POLAR.0>
0

>  <SCORE.INTRA.REPUL>
0

>  <SCORE.INTRA.REPUL.0>
0

>  <SCORE.INTRA.SOLV>
-0.257247

>  <SCORE.INTRA.SOLV.lig_0>
-58.5963

>  <SCORE.INTRA.VDW>
-0.361898

>  <SCORE.INTRA.VDW.0>
-0.437849

>  <SCORE.INTRA.norm>
-0.0935634

>  <SCORE.RESTR>
0

>  <SCORE.RESTR.CAVITY>
0

>  <SCORE.RESTR.norm>
0

>  <SCORE.SYSTEM>
0

>  <SCORE.SYSTEM.CONST>
0

>  <SCORE.SYSTEM.DIHEDRAL>
0

>  <SCORE.SYSTEM.SOLV>
0

>  <SCORE.SYSTEM.norm>
0

>  <SCORE.heavy>
16

>  <SCORE.norm>
-0.552614

>  <RMSD>
15.043

$$$$
ligand
 OpenBabel11021811463D
libRbt.so/2013.1/901 2013/11/27
 16 16  0  0  0  0  0  0  0  0999 V2000
   51.2230   11.4894   24.2049 P   0  0  2  0  0  0  0  0  0  0  0  0
   50.8075   10.2204   24.8516 O   0  0  0  0  0  0  0  0  0  0  0  0
   50.6566   12.7494   25.0311 O   0  5  0  0  0  0  0  0  0  0  0  0
   50.6181   11.5435   22.7031 O   0  0  0  0  0  0  0  0  0  0  0  0
   56.0836    9.3043   25.4971 C   0  0  2  0  0  0  0  0  0  0  0  0
   56.9377   10.4576   25.4875 O   0  0  0  0  0  0  0  0  0  0  0  0
   56.6509    8.1658   24.6029 C   0  0  2  0  0  0  0  0  0  0  0  0
   58.0053    7.7926   25.0669 N   0  0  0  0  0  0  0  0  0  0  0  0
   56.7091    8.6677   23.1447 C   0  0  1  0  0  0  0  0  0  0  0  0
   57.2120    7.6320   22.2823 O   0  0  0  0  0  0  0  0  0  0  0  0
   55.2855    9.0517   22.7157 C   0  0  2  0  0  0  0  0  0  0  0  0
   55.3069    9.5381   21.3663 O   0  0  0  0  0  0  0  0  0  0  0  0
   54.7716   10.1646   23.6669 C   0  0  2  0  0  0  0  0  0  0  0  0
   54.7538    9.6844   25.0421 O   0  0  0  0  0  0  0  0  0  0  0  0
   53.3395   10.5611   23.2679 C   0  0  0  0  0  0  0  0  0  0  0  0
   52.8373   11.5511   24.1839 O   0  0  0  0  0  0  0  0  0  0  0  0
  1  2  1  1  0  0  0
  1  3  1  0  0  0  0
  1  4  2  0  0  0  0
  1 16  1  0  0  0  0
  5  6  1  6  0  0  0
  5  7  1  0  0  0  0
  5 14  1  0  0  0  0
  7  8  1  1  0  0  0
  7  9  1  0  0  0  0
  9 10  1  6  0  0  0
  9 11  1  0  0  0  0
 11 12  1  6  0  0  0
 11 13  1  0  0  0  0
 13 14  1  0  0  0  0
 13 15  1  6  0  0  0
 15 16  1  0  0  0  0
M  CHG  1   3  -1
M  END
>  <CHROM.1>
177.47628692,-155.01503144,69.15642951,54.15306824,10.06593643,23.95770350
-2.98556558,0.45938244,-1.82094064

>  <Name>
ligand

>  <RI>
0

>  <Rbt.Current_Directory>
/home/itssahil/PROJECTS/Mol_Feturizer/New_Systems/rnas/3B4B

>  <Rbt.Executable>
rbdock ($Id: //depot/dev/client3/rdock/2013.1/src/exe/rbdock.cxx#4 $)

>  <Rbt.Library>
libRbt.so (2013.1, Build901 2013/11/27)

>  <Rbt.Parameter_File>
/export/apps/rDock/src/rDock_2013.1_src/data/scripts/dock_solv.prm

>  <Rbt.Receptor>
prm/blind_docking_100.prm

>  <SCORE>
-10.0129

>  <SCORE.INTER>
-9.63468

>  <SCORE.INTER.CONST>
1

>  <SCORE.INTER.POLAR>
0

>  <SCORE.INTER.ROT>
3

>  <SCORE.INTER.SOLV>
17.3361

>  <SCORE.INTER.VDW>
-17.8018

>  <SCORE.INTER.norm>
-0.602167

>  <SCORE.INTRA>
-0.378197

>  <SCORE.INTRA.DIHEDRAL>
0.607882

>  <SCORE.INTRA.DIHEDRAL.0>
2.21864

>  <SCORE.INTRA.POLAR>
0

>  <SCORE.INTRA.POLAR.0>
0

>  <SCORE.INTRA.REPUL>
0

>  <SCORE.INTRA.REPUL.0>
0

>  <SCORE.INTRA.SOLV>
-0.976374

>  <SCORE.INTRA.SOLV.lig_0>
-58.5963

>  <SCORE.INTRA.VDW>
-0.19395

>  <SCORE.INTRA.VDW.0>
-0.437849

>  <SCORE.INTRA.norm>
-0.0236373

>  <SCORE.RESTR>
0

>  <SCORE.RESTR.CAVITY>
0

>  <SCORE.RESTR.norm>
0

>  <SCORE.SYSTEM>
0

>  <SCORE.SYSTEM.CONST>
0

>  <SCORE.SYSTEM.DIHEDRAL>
0

>  <SCORE.SYSTEM.SOLV>
0

>  <SCORE.SYSTEM.norm>
0

>  <SCORE.heavy>
16

>  <SCORE.norm>
-0.625805

>  <RMSD>
15.053

$$$$
ligand
 OpenBabel11021811463D
libRbt.so/2013.1/901 2013/11/27
 16 16  0  0  0  0  0  0  0  0999 V2000
   51.0922   11.3373   24.2095 P   0  0  2  0  0  0  0  0  0  0  0  0
   50.0521   10.5456   24.9114 O   0  0  0  0  0  0  0  0  0  0  0  0
   51.2408   12.7899   24.8868 O   0  5  0  0  0  0  0  0  0  0  0  0
   50.6572   11.5323   22.6613 O   0  0  0  0  0  0  0  0  0  0  0  0
   56.2467    9.5975   25.6906 C   0  0  2  0  0  0  0  0  0  0  0  0
   57.3075   10.5520   25.5380 O   0  0  0  0  0  0  0  0  0  0  0  0
   56.4525    8.3623   24.7690 C   0  0  2  0  0  0  0  0  0  0  0  0
   57.7520    7.7229   25.0717 N   0  0  0  0  0  0  0  0  0  0  0  0
   56.4226    8.8339   23.2998 C   0  0  1  0  0  0  0  0  0  0  0  0
   56.5908    7.7127   22.4144 O   0  0  0  0  0  0  0  0  0  0  0  0
   55.0626    9.4981   23.0402 C   0  0  2  0  0  0  0  0  0  0  0  0
   55.0079    9.9626   21.6840 O   0  0  0  0  0  0  0  0  0  0  0  0
   54.9108   10.6977   24.0125 C   0  0  2  0  0  0  0  0  0  0  0  0
   54.9737   10.2388   25.3936 O   0  0  0  0  0  0  0  0  0  0  0  0
   53.5490   11.3762   23.7833 C   0  0  0  0  0  0  0  0  0  0  0  0
   52.4997   10.5524   24.3235 O   0  0  0  0  0  0  0  0  0  0  0  0
  1  2  1  1  0  0  0
  1  3  1  0  0  0  0
  1  4  2  0  0  0  0
  1 16  1  0  0  0  0
  5  6  1  6  0  0  0
  5  7  1  0  0  0  0
  5 14  1  0  0  0  0
  7  8  1  1  0  0  0
  7  9  1  0  0  0  0
  9 10  1  6  0  0  0
  9 11  1  0  0  0  0
 11 12  1  6  0  0  0
 11 13  1  0  0  0  0
 13 14  1  0  0  0  0
 13 15  1  1  0  0  0
 15 16  1  0  0  0  0
M  CHG  1   3  -1
M  END
>  <CHROM.1>
73.73412657,174.45531183,-173.45448976,54.06286001,10.20553330,24.10329200
-3.00223293,0.41039315,-1.93467262

>  <Name>
ligand

>  <RI>
0

>  <Rbt.Current_Directory>
/home/itssahil/PROJECTS/Mol_Feturizer/New_Systems/rnas/3B4B

>  <Rbt.Executable>
rbdock ($Id: //depot/dev/client3/rdock/2013.1/src/exe/rbdock.cxx#4 $)

>  <Rbt.Library>
libRbt.so (2013.1, Build901 2013/11/27)

>  <Rbt.Parameter_File>
/export/apps/rDock/src/rDock_2013.1_src/data/scripts/dock_solv.prm

>  <Rbt.Receptor>
prm/blind_docking_100.prm

>  <SCORE>
-10.57

>  <SCORE.INTER>
-9.48054

>  <SCORE.INTER.CONST>
1

>  <SCORE.INTER.POLAR>
0

>  <SCORE.INTER.ROT>
3

>  <SCORE.INTER.SOLV>
17.4777

>  <SCORE.INTER.VDW>
-17.7463

>  <SCORE.INTER.norm>
-0.592534

>  <SCORE.INTRA>
-1.08942

>  <SCORE.INTRA.DIHEDRAL>
-1.34041

>  <SCORE.INTRA.DIHEDRAL.0>
2.21864

>  <SCORE.INTRA.POLAR>
0

>  <SCORE.INTRA.POLAR.0>
0

>  <SCORE.INTRA.REPUL>
0

>  <SCORE.INTRA.REPUL.0>
0

>  <SCORE.INTRA.SOLV>
-0.279811

>  <SCORE.INTRA.SOLV.lig_0>
-58.5963

>  <SCORE.INTRA.VDW>
-0.279305

>  <SCORE.INTRA.VDW.0>
-0.437849

>  <SCORE.INTRA.norm>
-0.0680885

>  <SCORE.RESTR>
0

>  <SCORE.RESTR.CAVITY>
0

>  <SCORE.RESTR.norm>
0

>  <SCORE.SYSTEM>
0

>  <SCORE.SYSTEM.CONST>
0

>  <SCORE.SYSTEM.DIHEDRAL>
0

>  <SCORE.SYSTEM.SOLV>
0

>  <SCORE.SYSTEM.norm>
0

>  <SCORE.heavy>
16

>  <SCORE.norm>
-0.660622

>  <RMSD>
15.106

$$$$
ligand
 OpenBabel11021811463D
libRbt.so/2013.1/901 2013/11/27
 16 16  0  0  0  0  0  0  0  0999 V2000
   51.8736   11.4732   24.4777 P   0  0  2  0  0  0  0  0  0  0  0  0
   52.0083   10.0990   25.0203 O   0  0  0  0  0  0  0  0  0  0  0  0
   51.2914   12.4644   25.6045 O   0  5  0  0  0  0  0  0  0  0  0  0
   50.8439   11.4524   23.2273 O   0  0  0  0  0  0  0  0  0  0  0  0
   56.0401    9.2797   25.4728 C   0  0  2  0  0  0  0  0  0  0  0  0
   57.0987   10.2402   25.6015 O   0  0  0  0  0  0  0  0  0  0  0  0
   56.4706    8.0689   24.5974 C   0  0  2  0  0  0  0  0  0  0  0  0
   57.6653    7.4250   25.1865 N   0  0  0  0  0  0  0  0  0  0  0  0
   56.7888    8.5778   23.1756 C   0  0  1  0  0  0  0  0  0  0  0  0
   57.1731    7.4799   22.3292 O   0  0  0  0  0  0  0  0  0  0  0  0
   55.5248    9.2454   22.6144 C   0  0  2  0  0  0  0  0  0  0  0  0
   55.7919    9.7442   21.2962 O   0  0  0  0  0  0  0  0  0  0  0  0
   55.1350   10.4194   23.5511 C   0  0  2  0  0  0  0  0  0  0  0  0
   54.8698    9.9254   24.8956 O   0  0  0  0  0  0  0  0  0  0  0  0
   53.8619   11.1003   23.0193 C   0  0  0  0  0  0  0  0  0  0  0  0
   53.3340   11.9904   24.0196 O   0  0  0  0  0  0  0  0  0  0  0  0
  1  2  1  1  0  0  0
  1  3  1  0  0  0  0
  1  4  2  0  0  0  0
  1 16  1  0  0  0  0
  5  6  1  6  0  0  0
  5  7  1  0  0  0  0
  5 14  1  0  0  0  0
  7  8  1  1  0  0  0
  7  9  1  0  0  0  0
  9 10  1  6  0  0  0
  9 11  1  0  0  0  0
 11 12  1  6  0  0  0
 11 13  1  0  0  0  0
 13 14  1  0  0  0  0
 13 15  1  6  0  0  0
 15 16  1  0  0  0  0
M  CHG  1   3  -1
M  END
>  <CHROM.1>
167.69292604,-116.52988939,59.27394938,54.47510790,10.08698256,24.03927215
-2.98981764,0.54473443,-1.65648253

>  <Name>
ligand

>  <RI>
0

>  <Rbt.Current_Directory>
/home/itssahil/PROJECTS/Mol_Feturizer/New_Systems/rnas/3B4B

>  <Rbt.Executable>
rbdock ($Id: //depot/dev/client3/rdock/2013.1/src/exe/rbdock.cxx#4 $)

>  <Rbt.Library>
libRbt.so (2013.1, Build901 2013/11/27)

>  <Rbt.Parameter_File>
/export/apps/rDock/src/rDock_2013.1_src/data/scripts/dock_solv.prm

>  <Rbt.Receptor>
prm/blind_docking_100.prm

>  <SCORE>
-8.80587

>  <SCORE.INTER>
-10.7003

>  <SCORE.INTER.CONST>
1

>  <SCORE.INTER.POLAR>
0

>  <SCORE.INTER.ROT>
3

>  <SCORE.INTER.SOLV>
16.2775

>  <SCORE.INTER.VDW>
-18.1594

>  <SCORE.INTER.norm>
-0.668769

>  <SCORE.INTRA>
1.89443

>  <SCORE.INTRA.DIHEDRAL>
5.45095

>  <SCORE.INTRA.DIHEDRAL.0>
2.21864

>  <SCORE.INTRA.POLAR>
0

>  <SCORE.INTRA.POLAR.0>
0

>  <SCORE.INTRA.REPUL>
0

>  <SCORE.INTRA.REPUL.0>
0

>  <SCORE.INTRA.SOLV>
-0.565032

>  <SCORE.INTRA.SOLV.lig_0>
-58.5963

>  <SCORE.INTRA.VDW>
-0.548522

>  <SCORE.INTRA.VDW.0>
-0.437849

>  <SCORE.INTRA.norm>
0.118402

>  <SCORE.RESTR>
0

>  <SCORE.RESTR.CAVITY>
0

>  <SCORE.RESTR.norm>
0

>  <SCORE.SYSTEM>
0

>  <SCORE.SYSTEM.CONST>
0

>  <SCORE.SYSTEM.DIHEDRAL>
0

>  <SCORE.SYSTEM.SOLV>
0

>  <SCORE.SYSTEM.norm>
0

>  <SCORE.heavy>
16

>  <SCORE.norm>
-0.550367

>  <RMSD>
15.175

$$$$
ligand
 OpenBabel11021811463D
libRbt.so/2013.1/901 2013/11/27
 16 16  0  0  0  0  0  0  0  0999 V2000
   58.7981    8.5388   25.8034 P   0  0  2  0  0  0  0  0  0  0  0  0
   58.6359    9.3415   27.0405 O   0  0  0  0  0  0  0  0  0  0  0  0
   58.2727    7.0357   26.0395 O   0  5  0  0  0  0  0  0  0  0  0  0
   60.3684    8.4802   25.4098 O   0  0  0  0  0  0  0  0  0  0  0  0
   55.1191    9.6720   21.5945 C   0  0  2  0  0  0  0  0  0  0  0  0
   55.6146   10.9790   21.2692 O   0  0  0  0  0  0  0  0  0  0  0  0
   53.6036    9.7052   21.9404 C   0  0  2  0  0  0  0  0  0  0  0  0
   52.8422   10.2627   20.8008 N   0  0  0  0  0  0  0  0  0  0  0  0
   53.4037   10.5845   23.1929 C   0  0  1  0  0  0  0  0  0  0  0  0
   52.0123   10.6234   23.5559 O   0  0  0  0  0  0  0  0  0  0  0  0
   54.2203    9.9720   24.3402 C   0  0  2  0  0  0  0  0  0  0  0  0
   54.0681   10.7760   25.5185 O   0  0  0  0  0  0  0  0  0  0  0  0
   55.7123    9.9400   23.9156 C   0  0  2  0  0  0  0  0  0  0  0  0
   55.8777    9.1329   22.7142 O   0  0  0  0  0  0  0  0  0  0  0  0
   56.5545    9.3182   25.0432 C   0  0  0  0  0  0  0  0  0  0  0  0
   57.9293    9.2258   24.6273 O   0  0  0  0  0  0  0  0  0  0  0  0
  1  2  1  1  0  0  0
  1  3  1  0  0  0  0
  1  4  2  0  0  0  0
  1 16  1  0  0  0  0
  5  6  1  1  0  0  0
  5  7  1  0  0  0  0
  5 14  1  0  0  0  0
  7  8  1  6  0  0  0
  7  9  1  0  0  0  0
  9 10  1  1  0  0  0
  9 11  1  0  0  0  0
 11 12  1  1  0  0  0
 11 13  1  0  0  0  0
 13 14  1  0  0  0  0
 13 15  1  1  0  0  0
 15 16  1  0  0  0  0
M  CHG  1   3  -1
M  END
>  <CHROM.1>
177.16693976,-178.61741722,-57.14568445,56.09240981,9.51100853,24.10778316
-0.55531225,0.31927777,-1.54907295

>  <Name>
ligand

>  <RI>
0

>  <Rbt.Current_Directory>
/home/itssahil/PROJECTS/Mol_Feturizer/New_Systems/rnas/3B4B

>  <Rbt.Executable>
rbdock ($Id: //depot/dev/client3/rdock/2013.1/src/exe/rbdock.cxx#4 $)

>  <Rbt.Library>
libRbt.so (2013.1, Build901 2013/11/27)

>  <Rbt.Parameter_File>
/export/apps/rDock/src/rDock_2013.1_src/data/scripts/dock_solv.prm

>  <Rbt.Receptor>
prm/blind_docking_100.prm

>  <SCORE>
-8.39166

>  <SCORE.INTER>
-6.72294

>  <SCORE.INTER.CONST>
1

>  <SCORE.INTER.POLAR>
0

>  <SCORE.INTER.ROT>
3

>  <SCORE.INTER.SOLV>
13.2043

>  <SCORE.INTER.VDW>
-14.4834

>  <SCORE.INTER.norm>
-0.420184

>  <SCORE.INTRA>
-1.66872

>  <SCORE.INTRA.DIHEDRAL>
-2.1659

>  <SCORE.INTRA.DIHEDRAL.0>
2.21864

>  <SCORE.INTRA.POLAR>
0

>  <SCORE.INTRA.POLAR.0>
0

>  <SCORE.INTRA.REPUL>
0

>  <SCORE.INTRA.REPUL.0>
0

>  <SCORE.INTRA.SOLV>
-1.15906

>  <SCORE.INTRA.SOLV.lig_0>
-58.5963

>  <SCORE.INTRA.VDW>
-0.0062342

>  <SCORE.INTRA.VDW.0>
-0.437849

>  <SCORE.INTRA.norm>
-0.104295

>  <SCORE.RESTR>
0

>  <SCORE.RESTR.CAVITY>
0

>  <SCORE.RESTR.norm>
0

>  <SCORE.SYSTEM>
0

>  <SCORE.SYSTEM.CONST>
0

>  <SCORE.SYSTEM.DIHEDRAL>
0

>  <SCORE.SYSTEM.SOLV>
0

>  <SCORE.SYSTEM.norm>
0

>  <SCORE.heavy>
16

>  <SCORE.norm>
-0.524478

>  <RMSD>
15.268

$$$$
ligand
 OpenBabel11021811463D
libRbt.so/2013.1/901 2013/11/27
 16 16  0  0  0  0  0  0  0  0999 V2000
   34.1406   11.3837   12.5344 P   0  0  2  0  0  0  0  0  0  0  0  0
   34.9918   10.7764   13.5868 O   0  0  0  0  0  0  0  0  0  0  0  0
   35.0040   11.6505   11.2023 O   0  5  0  0  0  0  0  0  0  0  0  0
   33.5650   12.8007   13.0683 O   0  0  0  0  0  0  0  0  0  0  0  0
   30.8185    7.6787    9.7801 C   0  0  2  0  0  0  0  0  0  0  0  0
   30.0734    8.1810    8.6610 O   0  0  0  0  0  0  0  0  0  0  0  0
   29.8816    7.2551   10.9464 C   0  0  2  0  0  0  0  0  0  0  0  0
   28.9282    6.2268   10.4744 N   0  0  0  0  0  0  0  0  0  0  0  0
   29.1165    8.5009   11.4407 C   0  0  1  0  0  0  0  0  0  0  0  0
   28.2516    8.1511   12.5356 O   0  0  0  0  0  0  0  0  0  0  0  0
   30.1475    9.5390   11.9075 C   0  0  2  0  0  0  0  0  0  0  0  0
   29.4679   10.7185   12.3601 O   0  0  0  0  0  0  0  0  0  0  0  0
   31.0657    9.8902   10.7071 C   0  0  2  0  0  0  0  0  0  0  0  0
   31.7548    8.6974   10.2332 O   0  0  0  0  0  0  0  0  0  0  0  0
   32.1188   10.9210   11.1497 C   0  0  0  0  0  0  0  0  0  0  0  0
   32.9386   10.3601   12.1913 O   0  0  0  0  0  0  0  0  0  0  0  0
  1  2  1  1  0  0  0
  1  3  1  0  0  0  0
  1  4  2  0  0  0  0
  1 16  1  0  0  0  0
  5  6  1  6  0  0  0
  5  7  1  0  0  0  0
  5 14  1  0  0  0  0
  7  8  1  6  0  0  0
  7  9  1  0  0  0  0
  9 10  1  1  0  0  0
  9 11  1  0  0  0  0
 11 12  1  6  0  0  0
 11 13  1  0  0  0  0
 13 14  1  0  0  0  0
 13 15  1  1  0  0  0
 15 16  1  0  0  0  0
M  CHG  1   3  -1
M  END
>  <CHROM.1>
61.49371897,173.76914158,-178.73716235,31.63868905,9.72785940,11.52692974
-0.62834593,-0.36249508,-2.23966859

>  <Name>
ligand

>  <RI>
0

>  <Rbt.Current_Directory>
/home/itssahil/PROJECTS/Mol_Feturizer/New_Systems/rnas/3B4B

>  <Rbt.Executable>
rbdock ($Id: //depot/dev/client3/rdock/2013.1/src/exe/rbdock.cxx#4 $)

>  <Rbt.Library>
libRbt.so (2013.1, Build901 2013/11/27)

>  <Rbt.Parameter_File>
/export/apps/rDock/src/rDock_2013.1_src/data/scripts/dock_solv.prm

>  <Rbt.Receptor>
prm/blind_docking_40.prm

>  <SCORE>
-7.72919

>  <SCORE.INTER>
-6.26562

>  <SCORE.INTER.CONST>
1

>  <SCORE.INTER.POLAR>
0

>  <SCORE.INTER.ROT>
3

>  <SCORE.INTER.SOLV>
15.7637

>  <SCORE.INTER.VDW>
-15.0316

>  <SCORE.INTER.norm>
-0.391601

>  <SCORE.INTRA>
-1.46357

>  <SCORE.INTRA.DIHEDRAL>
-2.01694

>  <SCORE.INTRA.DIHEDRAL.0>
2.21864

>  <SCORE.INTRA.POLAR>
0

>  <SCORE.INTRA.POLAR.0>
0

>  <SCORE.INTRA.REPUL>
0

>  <SCORE.INTRA.REPUL.0>
0

>  <SCORE.INTRA.SOLV>
-0.254681

>  <SCORE.INTRA.SOLV.lig_0>
-58.5963

>  <SCORE.INTRA.VDW>
-0.327761

>  <SCORE.INTRA.VDW.0>
-0.437849

>  <SCORE.INTRA.norm>
-0.0914732

>  <SCORE.RESTR>
0

>  <SCORE.RESTR.CAVITY>
0

>  <SCORE.RESTR.norm>
0

>  <SCORE.SYSTEM>
0

>  <SCORE.SYSTEM.CONST>
0

>  <SCORE.SYSTEM.DIHEDRAL>
0

>  <SCORE.SYSTEM.SOLV>
0

>  <SCORE.SYSTEM.norm>
0

>  <SCORE.heavy>
16

>  <SCORE.norm>
-0.483075

>  <RMSD>
15.467

$$$$
ligand
 OpenBabel11021811463D
libRbt.so/2013.1/901 2013/11/27
 16 16  0  0  0  0  0  0  0  0999 V2000
   51.5274   12.5214   25.3164 P   0  0  2  0  0  0  0  0  0  0  0  0
   51.6313   13.7883   24.5515 O   0  0  0  0  0  0  0  0  0  0  0  0
   50.5772   11.4776   24.5427 O   0  5  0  0  0  0  0  0  0  0  0  0
   50.8800   12.8291   26.7691 O   0  0  0  0  0  0  0  0  0  0  0  0
   56.2449    9.5123   25.8292 C   0  0  2  0  0  0  0  0  0  0  0  0
   57.2477   10.5386   25.8031 O   0  0  0  0  0  0  0  0  0  0  0  0
   56.5110    8.4259   24.7492 C   0  0  2  0  0  0  0  0  0  0  0  0
   57.8482    7.8283   24.9593 N   0  0  0  0  0  0  0  0  0  0  0  0
   56.4385    9.0876   23.3568 C   0  0  1  0  0  0  0  0  0  0  0  0
   56.6610    8.1068   22.3283 O   0  0  0  0  0  0  0  0  0  0  0  0
   55.0400    9.7005   23.1929 C   0  0  2  0  0  0  0  0  0  0  0  0
   54.9442   10.3386   21.9117 O   0  0  0  0  0  0  0  0  0  0  0  0
   54.8303   10.7480   24.3181 C   0  0  2  0  0  0  0  0  0  0  0  0
   54.9342   10.1125   25.6248 O   0  0  0  0  0  0  0  0  0  0  0  0
   53.4295   11.3708   24.1862 C   0  0  0  0  0  0  0  0  0  0  0  0
   53.0057   11.8859   25.4616 O   0  0  0  0  0  0  0  0  0  0  0  0
  1  2  1  6  0  0  0
  1  3  1  0  0  0  0
  1  4  2  0  0  0  0
  1 16  1  0  0  0  0
  5  6  1  6  0  0  0
  5  7  1  0  0  0  0
  5 14  1  0  0  0  0
  7  8  1  1  0  0  0
  7  9  1  0  0  0  0
  9 10  1  6  0  0  0
  9 11  1  0  0  0  0
 11 12  1  6  0  0  0
 11 13  1  0  0  0  0
 13 14  1  0  0  0  0
 13 15  1  6  0  0  0
 15 16  1  0  0  0  0
M  CHG  1   3  -1
M  END
>  <CHROM.1>
156.12275076,-179.32728058,-71.96392911,54.21193445,10.71107537,24.61694690
-2.81480453,0.55679653,-1.81892604

>  <Name>
ligand

>  <RI>
0

>  <Rbt.Current_Directory>
/home/itssahil/PROJECTS/Mol_Feturizer/New_Systems/rnas/3B4B

>  <Rbt.Executable>
rbdock ($Id: //depot/dev/client3/rdock/2013.1/src/exe/rbdock.cxx#4 $)

>  <Rbt.Library>
libRbt.so (2013.1, Build901 2013/11/27)

>  <Rbt.Parameter_File>
/export/apps/rDock/src/rDock_2013.1_src/data/scripts/dock_solv.prm

>  <Rbt.Receptor>
prm/blind_docking_100.prm

>  <SCORE>
-9.50942

>  <SCORE.INTER>
-9.08806

>  <SCORE.INTER.CONST>
1

>  <SCORE.INTER.POLAR>
0

>  <SCORE.INTER.ROT>
3

>  <SCORE.INTER.SOLV>
14.3872

>  <SCORE.INTER.VDW>
-16.4544

>  <SCORE.INTER.norm>
-0.568004

>  <SCORE.INTRA>
-0.421357

>  <SCORE.INTRA.DIHEDRAL>
-0.186157

>  <SCORE.INTRA.DIHEDRAL.0>
2.21864

>  <SCORE.INTRA.POLAR>
0

>  <SCORE.INTRA.POLAR.0>
0

>  <SCORE.INTRA.REPUL>
0

>  <SCORE.INTRA.REPUL.0>
0

>  <SCORE.INTRA.SOLV>
-0.956476

>  <SCORE.INTRA.SOLV.lig_0>
-58.5963

>  <SCORE.INTRA.VDW>
0.149959

>  <SCORE.INTRA.VDW.0>
-0.437849

>  <SCORE.INTRA.norm>
-0.0263348

>  <SCORE.RESTR>
0

>  <SCORE.RESTR.CAVITY>
0

>  <SCORE.RESTR.norm>
0

>  <SCORE.SYSTEM>
0

>  <SCORE.SYSTEM.CONST>
0

>  <SCORE.SYSTEM.DIHEDRAL>
0

>  <SCORE.SYSTEM.SOLV>
0

>  <SCORE.SYSTEM.norm>
0

>  <SCORE.heavy>
16

>  <SCORE.norm>
-0.594339

>  <RMSD>
15.499

$$$$
ligand
 OpenBabel11021811463D
libRbt.so/2013.1/901 2013/11/27
 16 16  0  0  0  0  0  0  0  0999 V2000
   30.2088    7.4903    7.8473 P   0  0  2  0  0  0  0  0  0  0  0  0
   29.3921    8.0190    6.7273 O   0  0  0  0  0  0  0  0  0  0  0  0
   30.6571    5.9741    7.5450 O   0  5  0  0  0  0  0  0  0  0  0  0
   29.3238    7.5056    9.2040 O   0  0  0  0  0  0  0  0  0  0  0  0
   34.5316   11.0255    9.4380 C   0  0  2  0  0  0  0  0  0  0  0  0
   34.1537   12.3311    9.8987 O   0  0  0  0  0  0  0  0  0  0  0  0
   35.1906   11.0847    8.0309 C   0  0  2  0  0  0  0  0  0  0  0  0
   36.3774   11.9673    8.0707 N   0  0  0  0  0  0  0  0  0  0  0  0
   34.1558   11.6323    7.0253 C   0  0  1  0  0  0  0  0  0  0  0  0
   34.7245   11.6833    5.7050 O   0  0  0  0  0  0  0  0  0  0  0  0
   32.9427   10.6905    7.0296 C   0  0  2  0  0  0  0  0  0  0  0  0
   31.9530   11.1807    6.1142 O   0  0  0  0  0  0  0  0  0  0  0  0
   32.3571   10.6541    8.4660 C   0  0  2  0  0  0  0  0  0  0  0  0
   33.3570   10.1659    9.4062 O   0  0  0  0  0  0  0  0  0  0  0  0
   31.1455    9.7064    8.5033 C   0  0  0  0  0  0  0  0  0  0  0  0
   31.5265    8.4121    8.0023 O   0  0  0  0  0  0  0  0  0  0  0  0
  1  2  1  6  0  0  0
  1  3  1  0  0  0  0
  1  4  2  0  0  0  0
  1 16  1  0  0  0  0
  5  6  1  6  0  0  0
  5  7  1  0  0  0  0
  5 14  1  0  0  0  0
  7  8  1  1  0  0  0
  7  9  1  0  0  0  0
  9 10  1  6  0  0  0
  9 11  1  0  0  0  0
 11 12  1  6  0  0  0
 11 13  1  0  0  0  0
 13 14  1  0  0  0  0
 13 15  1  6  0  0  0
 15 16  1  0  0  0  0
M  CHG  1   3  -1
M  END
>  <CHROM.1>
54.63316548,-172.00975070,69.82247769,32.39166009,9.74724238,7.92395869,3.05324437
0.72924191,1.72746891

>  <Name>
ligand

>  <RI>
0

>  <Rbt.Current_Directory>
/home/itssahil/PROJECTS/Mol_Feturizer/New_Systems/rnas/3B4B

>  <Rbt.Executable>
rbdock ($Id: //depot/dev/client3/rdock/2013.1/src/exe/rbdock.cxx#4 $)

>  <Rbt.Library>
libRbt.so (2013.1, Build901 2013/11/27)

>  <Rbt.Parameter_File>
/export/apps/rDock/src/rDock_2013.1_src/data/scripts/dock_solv.prm

>  <Rbt.Receptor>
prm/blind_docking_80.prm

>  <SCORE>
-7.49773

>  <SCORE.INTER>
-6.07538

>  <SCORE.INTER.CONST>
1

>  <SCORE.INTER.POLAR>
0

>  <SCORE.INTER.ROT>
3

>  <SCORE.INTER.SOLV>
15.8026

>  <SCORE.INTER.VDW>
-14.9178

>  <SCORE.INTER.norm>
-0.379711

>  <SCORE.INTRA>
-1.42235

>  <SCORE.INTRA.DIHEDRAL>
-1.64691

>  <SCORE.INTRA.DIHEDRAL.0>
2.21864

>  <SCORE.INTRA.POLAR>
0

>  <SCORE.INTRA.POLAR.0>
0

>  <SCORE.INTRA.REPUL>
0

>  <SCORE.INTRA.REPUL.0>
0

>  <SCORE.INTRA.SOLV>
-0.8028

>  <SCORE.INTRA.SOLV.lig_0>
-58.5963

>  <SCORE.INTRA.VDW>
-0.197496

>  <SCORE.INTRA.VDW.0>
-0.437849

>  <SCORE.INTRA.norm>
-0.0888971

>  <SCORE.RESTR>
0

>  <SCORE.RESTR.CAVITY>
0

>  <SCORE.RESTR.norm>
0

>  <SCORE.SYSTEM>
0

>  <SCORE.SYSTEM.CONST>
0

>  <SCORE.SYSTEM.DIHEDRAL>
0

>  <SCORE.SYSTEM.SOLV>
0

>  <SCORE.SYSTEM.norm>
0

>  <SCORE.heavy>
16

>  <SCORE.norm>
-0.468608

>  <RMSD>
15.511

$$$$
ligand
 OpenBabel11021811463D
libRbt.so/2013.1/901 2013/11/27
 16 16  0  0  0  0  0  0  0  0999 V2000
   34.1015   11.4838   11.1397 P   0  0  2  0  0  0  0  0  0  0  0  0
   33.4986   12.8303   10.9837 O   0  0  0  0  0  0  0  0  0  0  0  0
   34.3686   11.1677   12.6953 O   0  5  0  0  0  0  0  0  0  0  0  0
   35.5178   11.4412   10.3544 O   0  0  0  0  0  0  0  0  0  0  0  0
   30.8304    6.9183   10.1795 C   0  0  2  0  0  0  0  0  0  0  0  0
   30.3732    7.2885    8.8704 O   0  0  0  0  0  0  0  0  0  0  0  0
   29.6416    6.6570   11.1471 C   0  0  2  0  0  0  0  0  0  0  0  0
   28.7737    5.5922   10.5975 N   0  0  0  0  0  0  0  0  0  0  0  0
   28.8396    7.9659   11.3064 C   0  0  1  0  0  0  0  0  0  0  0  0
   27.7400    7.7678   12.2124 O   0  0  0  0  0  0  0  0  0  0  0  0
   29.7847    9.0385   11.8672 C   0  0  2  0  0  0  0  0  0  0  0  0
   29.0723   10.2751   12.0133 O   0  0  0  0  0  0  0  0  0  0  0  0
   30.9597    9.2240   10.8710 C   0  0  2  0  0  0  0  0  0  0  0  0
   31.6855    7.9715   10.7080 O   0  0  0  0  0  0  0  0  0  0  0  0
   31.9314   10.2861   11.4142 C   0  0  0  0  0  0  0  0  0  0  0  0
   33.0737   10.3884   10.5447 O   0  0  0  0  0  0  0  0  0  0  0  0
  1  2  1  6  0  0  0
  1  3  1  0  0  0  0
  1  4  2  0  0  0  0
  1 16  1  0  0  0  0
  5  6  1  6  0  0  0
  5  7  1  0  0  0  0
  5 14  1  0  0  0  0
  7  8  1  6  0  0  0
  7  9  1  0  0  0  0
  9 10  1  1  0  0  0
  9 11  1  0  0  0  0
 11 12  1  6  0  0  0
 11 13  1  0  0  0  0
 13 14  1  0  0  0  0
 13 15  1  1  0  0  0
 15 16  1  0  0  0  0
M  CHG  1   3  -1
M  END
>  <CHROM.1>
175.65485176,-178.84879674,-70.42980540,31.51906198,9.37159280,11.06126474
-0.60454667,-0.38896704,-2.60176261

>  <Name>
ligand

>  <RI>
0

>  <Rbt.Current_Directory>
/home/itssahil/PROJECTS/Mol_Feturizer/New_Systems/rnas/3B4B

>  <Rbt.Executable>
rbdock ($Id: //depot/dev/client3/rdock/2013.1/src/exe/rbdock.cxx#4 $)

>  <Rbt.Library>
libRbt.so (2013.1, Build901 2013/11/27)

>  <Rbt.Parameter_File>
/export/apps/rDock/src/rDock_2013.1_src/data/scripts/dock_solv.prm

>  <Rbt.Receptor>
prm/blind_docking_60.prm

>  <SCORE>
-7.67885

>  <SCORE.INTER>
-6.17292

>  <SCORE.INTER.CONST>
1

>  <SCORE.INTER.POLAR>
0

>  <SCORE.INTER.ROT>
3

>  <SCORE.INTER.SOLV>
14.6395

>  <SCORE.INTER.VDW>
-14.5951

>  <SCORE.INTER.norm>
-0.385807

>  <SCORE.INTRA>
-1.50593

>  <SCORE.INTRA.DIHEDRAL>
-1.97251

>  <SCORE.INTRA.DIHEDRAL.0>
2.21864

>  <SCORE.INTRA.POLAR>
0

>  <SCORE.INTRA.POLAR.0>
0

>  <SCORE.INTRA.REPUL>
0

>  <SCORE.INTRA.REPUL.0>
0

>  <SCORE.INTRA.SOLV>
-1.02405

>  <SCORE.INTRA.SOLV.lig_0>
-58.5963

>  <SCORE.INTRA.VDW>
-0.00765143

>  <SCORE.INTRA.VDW.0>
-0.437849

>  <SCORE.INTRA.norm>
-0.0941209

>  <SCORE.RESTR>
0

>  <SCORE.RESTR.CAVITY>
0

>  <SCORE.RESTR.norm>
0

>  <SCORE.SYSTEM>
0

>  <SCORE.SYSTEM.CONST>
0

>  <SCORE.SYSTEM.DIHEDRAL>
0

>  <SCORE.SYSTEM.SOLV>
0

>  <SCORE.SYSTEM.norm>
0

>  <SCORE.heavy>
16

>  <SCORE.norm>
-0.479928

>  <RMSD>
15.629

$$$$
ligand
 OpenBabel11021811463D
libRbt.so/2013.1/901 2013/11/27
 16 16  0  0  0  0  0  0  0  0999 V2000
   59.9189    8.3914   26.2548 P   0  0  2  0  0  0  0  0  0  0  0  0
   60.4193    7.2384   25.4666 O   0  0  0  0  0  0  0  0  0  0  0  0
   60.6234    9.7526   25.7631 O   0  5  0  0  0  0  0  0  0  0  0  0
   60.2759    8.1616   27.8182 O   0  0  0  0  0  0  0  0  0  0  0  0
   54.7890   10.4925   25.0668 C   0  0  2  0  0  0  0  0  0  0  0  0
   53.9989    9.4224   25.6055 O   0  0  0  0  0  0  0  0  0  0  0  0
   54.4382   10.7680   23.5773 C   0  0  2  0  0  0  0  0  0  0  0  0
   53.0001   11.0927   23.4536 N   0  0  0  0  0  0  0  0  0  0  0  0
   54.7703    9.5068   22.7520 C   0  0  1  0  0  0  0  0  0  0  0  0
   54.4764    9.7310   21.3618 O   0  0  0  0  0  0  0  0  0  0  0  0
   56.2666    9.2064   22.9222 C   0  0  2  0  0  0  0  0  0  0  0  0
   56.6059    8.0279   22.1780 O   0  0  0  0  0  0  0  0  0  0  0  0
   56.5505    8.9750   24.4300 C   0  0  2  0  0  0  0  0  0  0  0  0
   56.2012   10.1631   25.1972 O   0  0  0  0  0  0  0  0  0  0  0  0
   58.0477    8.6838   24.6324 C   0  0  0  0  0  0  0  0  0  0  0  0
   58.3228    8.5107   26.0345 O   0  0  0  0  0  0  0  0  0  0  0  0
  1  2  1  6  0  0  0
  1  3  1  0  0  0  0
  1  4  2  0  0  0  0
  1 16  1  0  0  0  0
  5  6  1  6  0  0  0
  5  7  1  0  0  0  0
  5 14  1  0  0  0  0
  7  8  1  1  0  0  0
  7  9  1  0  0  0  0
  9 10  1  6  0  0  0
  9 11  1  0  0  0  0
 11 12  1  6  0  0  0
 11 13  1  0  0  0  0
 13 14  1  0  0  0  0
 13 15  1  6  0  0  0
 15 16  1  0  0  0  0
M  CHG  1   3  -1
M  END
>  <CHROM.1>
178.17855236,-172.92375440,-58.70250886,57.08447678,9.16485101,24.68844666
0.39019002,-0.40255190,1.30955638

>  <Name>
ligand

>  <RI>
0

>  <Rbt.Current_Directory>
/home/itssahil/PROJECTS/Mol_Feturizer/New_Systems/rnas/3B4B

>  <Rbt.Executable>
rbdock ($Id: //depot/dev/client3/rdock/2013.1/src/exe/rbdock.cxx#4 $)

>  <Rbt.Library>
libRbt.so (2013.1, Build901 2013/11/27)

>  <Rbt.Parameter_File>
/export/apps/rDock/src/rDock_2013.1_src/data/scripts/dock_solv.prm

>  <Rbt.Receptor>
prm/blind_docking_80.prm

>  <SCORE>
-8.67146

>  <SCORE.INTER>
-7.09156

>  <SCORE.INTER.CONST>
1

>  <SCORE.INTER.POLAR>
0

>  <SCORE.INTER.ROT>
3

>  <SCORE.INTER.SOLV>
11.174

>  <SCORE.INTER.VDW>
-14.0524

>  <SCORE.INTER.norm>
-0.443223

>  <SCORE.INTRA>
-1.57989

>  <SCORE.INTRA.DIHEDRAL>
-1.95895

>  <SCORE.INTRA.DIHEDRAL.0>
2.21864

>  <SCORE.INTRA.POLAR>
0

>  <SCORE.INTRA.POLAR.0>
0

>  <SCORE.INTRA.REPUL>
0

>  <SCORE.INTRA.REPUL.0>
0

>  <SCORE.INTRA.SOLV>
-1.09418

>  <SCORE.INTRA.SOLV.lig_0>
-58.5963

>  <SCORE.INTRA.VDW>
-0.0533309

>  <SCORE.INTRA.VDW.0>
-0.437849

>  <SCORE.INTRA.norm>
-0.0987434

>  <SCORE.RESTR>
0

>  <SCORE.RESTR.CAVITY>
0

>  <SCORE.RESTR.norm>
0

>  <SCORE.SYSTEM>
0

>  <SCORE.SYSTEM.CONST>
0

>  <SCORE.SYSTEM.DIHEDRAL>
0

>  <SCORE.SYSTEM.SOLV>
0

>  <SCORE.SYSTEM.norm>
0

>  <SCORE.heavy>
16

>  <SCORE.norm>
-0.541966

>  <RMSD>
16.225

$$$$
ligand
 OpenBabel11021811463D
libRbt.so/2013.1/901 2013/11/27
 16 16  0  0  0  0  0  0  0  0999 V2000
   29.4571    4.5397   10.0035 P   0  0  2  0  0  0  0  0  0  0  0  0
   28.6485    3.9667   11.1076 O   0  0  0  0  0  0  0  0  0  0  0  0
   28.6492    4.4497    8.6142 O   0  5  0  0  0  0  0  0  0  0  0  0
   30.8311    3.6942    9.8567 O   0  0  0  0  0  0  0  0  0  0  0  0
   31.9744    9.5641   11.0855 C   0  0  2  0  0  0  0  0  0  0  0  0
   30.7808   10.2639   11.4668 O   0  0  0  0  0  0  0  0  0  0  0  0
   32.7062   10.2788    9.9145 C   0  0  2  0  0  0  0  0  0  0  0  0
   33.0396   11.6664   10.3050 N   0  0  0  0  0  0  0  0  0  0  0  0
   31.7767   10.2831    8.6825 C   0  0  1  0  0  0  0  0  0  0  0  0
   32.4290   10.9205    7.5700 O   0  0  0  0  0  0  0  0  0  0  0  0
   31.4523    8.8252    8.3253 C   0  0  2  0  0  0  0  0  0  0  0  0
   30.5754    8.7942    7.1904 O   0  0  0  0  0  0  0  0  0  0  0  0
   30.7557    8.1664    9.5452 C   0  0  2  0  0  0  0  0  0  0  0  0
   31.6343    8.2000   10.7067 O   0  0  0  0  0  0  0  0  0  0  0  0
   30.4296    6.6983    9.2200 C   0  0  0  0  0  0  0  0  0  0  0  0
   29.7617    6.0901   10.3405 O   0  0  0  0  0  0  0  0  0  0  0  0
  1  2  1  1  0  0  0
  1  3  1  0  0  0  0
  1  4  2  0  0  0  0
  1 16  1  0  0  0  0
  5  6  1  6  0  0  0
  5  7  1  0  0  0  0
  5 14  1  0  0  0  0
  7  8  1  1  0  0  0
  7  9  1  0  0  0  0
  9 10  1  6  0  0  0
  9 11  1  0  0  0  0
 11 12  1  6  0  0  0
 11 13  1  0  0  0  0
 13 14  1  0  0  0  0
 13 15  1  6  0  0  0
 15 16  1  0  0  0  0
M  CHG  1   3  -1
M  END
>  <CHROM.1>
-178.97645082,-178.58974272,-174.29021929,30.78365232,7.59004137,9.64787671
-2.95015514,-1.14342974,-1.44855366

>  <Name>
ligand

>  <RI>
0

>  <Rbt.Current_Directory>
/home/itssahil/PROJECTS/Mol_Feturizer/New_Systems/rnas/3B4B

>  <Rbt.Executable>
rbdock ($Id: //depot/dev/client3/rdock/2013.1/src/exe/rbdock.cxx#4 $)

>  <Rbt.Library>
libRbt.so (2013.1, Build901 2013/11/27)

>  <Rbt.Parameter_File>
/export/apps/rDock/src/rDock_2013.1_src/data/scripts/dock_solv.prm

>  <Rbt.Receptor>
prm/blind_docking_40.prm

>  <SCORE>
-7.97035

>  <SCORE.INTER>
-6.44685

>  <SCORE.INTER.CONST>
1

>  <SCORE.INTER.POLAR>
0

>  <SCORE.INTER.ROT>
3

>  <SCORE.INTER.SOLV>
18.6726

>  <SCORE.INTER.VDW>
-16.1221

>  <SCORE.INTER.norm>
-0.402928

>  <SCORE.INTRA>
-1.5235

>  <SCORE.INTRA.DIHEDRAL>
-2.14951

>  <SCORE.INTRA.DIHEDRAL.0>
2.21864

>  <SCORE.INTRA.POLAR>
0

>  <SCORE.INTRA.POLAR.0>
0

>  <SCORE.INTRA.REPUL>
0

>  <SCORE.INTRA.REPUL.0>
0

>  <SCORE.INTRA.SOLV>
-0.502039

>  <SCORE.INTRA.SOLV.lig_0>
-58.5963

>  <SCORE.INTRA.VDW>
-0.19773

>  <SCORE.INTRA.VDW.0>
-0.437849

>  <SCORE.INTRA.norm>
-0.0952189

>  <SCORE.RESTR>
0

>  <SCORE.RESTR.CAVITY>
0

>  <SCORE.RESTR.norm>
0

>  <SCORE.SYSTEM>
0

>  <SCORE.SYSTEM.CONST>
0

>  <SCORE.SYSTEM.DIHEDRAL>
0

>  <SCORE.SYSTEM.SOLV>
0

>  <SCORE.SYSTEM.norm>
0

>  <SCORE.heavy>
16

>  <SCORE.norm>
-0.498147

>  <RMSD>
16.842

$$$$
ligand
 OpenBabel11021811463D
libRbt.so/2013.1/901 2013/11/27
 16 16  0  0  0  0  0  0  0  0999 V2000
   32.1649   10.2945   10.9754 P   0  0  2  0  0  0  0  0  0  0  0  0
   32.3568   11.1763    9.7978 O   0  0  0  0  0  0  0  0  0  0  0  0
   31.0214   10.8899   11.9391 O   0  5  0  0  0  0  0  0  0  0  0  0
   33.5511   10.2126   11.8096 O   0  0  0  0  0  0  0  0  0  0  0  0
   30.8743    5.7368    7.7913 C   0  0  2  0  0  0  0  0  0  0  0  0
   29.7684    5.8701    6.8863 O   0  0  0  0  0  0  0  0  0  0  0  0
   30.5624    4.7241    8.9292 C   0  0  2  0  0  0  0  0  0  0  0  0
   30.2263    3.4057    8.3477 N   0  0  0  0  0  0  0  0  0  0  0  0
   29.3720    5.2599    9.7525 C   0  0  1  0  0  0  0  0  0  0  0  0
   29.0660    4.3567   10.8294 O   0  0  0  0  0  0  0  0  0  0  0  0
   29.7658    6.6302   10.3231 C   0  0  2  0  0  0  0  0  0  0  0  0
   28.6726    7.1642   11.0831 O   0  0  0  0  0  0  0  0  0  0  0  0
   30.0938    7.5771    9.1385 C   0  0  2  0  0  0  0  0  0  0  0  0
   31.1975    7.0401    8.3540 O   0  0  0  0  0  0  0  0  0  0  0  0
   30.5047    8.9567    9.6818 C   0  0  0  0  0  0  0  0  0  0  0  0
   31.7124    8.8335   10.4550 O   0  0  0  0  0  0  0  0  0  0  0  0
  1  2  1  6  0  0  0
  1  3  1  0  0  0  0
  1  4  2  0  0  0  0
  1 16  1  0  0  0  0
  5  6  1  6  0  0  0
  5  7  1  0  0  0  0
  5 14  1  0  0  0  0
  7  8  1  6  0  0  0
  7  9  1  0  0  0  0
  9 10  1  1  0  0  0
  9 11  1  0  0  0  0
 11 12  1  6  0  0  0
 11 13  1  0  0  0  0
 13 14  1  0  0  0  0
 13 15  1  1  0  0  0
 15 16  1  0  0  0  0
M  CHG  1   3  -1
M  END
>  <CHROM.1>
63.38096907,177.93939765,-58.01075666,30.80738139,7.65769289,9.87364282,-0.92616479
-0.91881590,-2.22725561

>  <Name>
ligand

>  <RI>
0

>  <Rbt.Current_Directory>
/home/itssahil/PROJECTS/Mol_Feturizer/New_Systems/rnas/3B4B

>  <Rbt.Executable>
rbdock ($Id: //depot/dev/client3/rdock/2013.1/src/exe/rbdock.cxx#4 $)

>  <Rbt.Library>
libRbt.so (2013.1, Build901 2013/11/27)

>  <Rbt.Parameter_File>
/export/apps/rDock/src/rDock_2013.1_src/data/scripts/dock_solv.prm

>  <Rbt.Receptor>
prm/blind_docking_40.prm

>  <SCORE>
-7.36253

>  <SCORE.INTER>
-5.65961

>  <SCORE.INTER.CONST>
1

>  <SCORE.INTER.POLAR>
0

>  <SCORE.INTER.ROT>
3

>  <SCORE.INTER.SOLV>
15.3302

>  <SCORE.INTER.VDW>
-14.4832

>  <SCORE.INTER.norm>
-0.353725

>  <SCORE.INTRA>
-1.70293

>  <SCORE.INTRA.DIHEDRAL>
-2.14836

>  <SCORE.INTRA.DIHEDRAL.0>
2.21864

>  <SCORE.INTRA.POLAR>
0

>  <SCORE.INTRA.POLAR.0>
0

>  <SCORE.INTRA.REPUL>
0

>  <SCORE.INTRA.REPUL.0>
0

>  <SCORE.INTRA.SOLV>
-0.941478

>  <SCORE.INTRA.SOLV.lig_0>
-58.5963

>  <SCORE.INTRA.VDW>
-0.15801

>  <SCORE.INTRA.VDW.0>
-0.437849

>  <SCORE.INTRA.norm>
-0.106433

>  <SCORE.RESTR>
0

>  <SCORE.RESTR.CAVITY>
0

>  <SCORE.RESTR.norm>
0

>  <SCORE.SYSTEM>
0

>  <SCORE.SYSTEM.CONST>
0

>  <SCORE.SYSTEM.DIHEDRAL>
0

>  <SCORE.SYSTEM.SOLV>
0

>  <SCORE.SYSTEM.norm>
0

>  <SCORE.heavy>
16

>  <SCORE.norm>
-0.460158

>  <RMSD>
16.923

$$$$
ligand
 OpenBabel11021811463D
libRbt.so/2013.1/901 2013/11/27
 16 16  0  0  0  0  0  0  0  0999 V2000
   31.5150   10.0143   10.6599 P   0  0  2  0  0  0  0  0  0  0  0  0
   32.1027    9.8751   12.0150 O   0  0  0  0  0  0  0  0  0  0  0  0
   32.3356   11.1030    9.8040 O   0  5  0  0  0  0  0  0  0  0  0  0
   29.9803   10.5148   10.7948 O   0  0  0  0  0  0  0  0  0  0  0  0
   29.7544    4.1043    9.8162 C   0  0  2  0  0  0  0  0  0  0  0  0
   31.0508    3.4995    9.9315 O   0  0  0  0  0  0  0  0  0  0  0  0
   29.3177    4.2408    8.3302 C   0  0  2  0  0  0  0  0  0  0  0  0
   29.3106    2.9088    7.6862 N   0  0  0  0  0  0  0  0  0  0  0  0
   30.3129    5.1738    7.6084 C   0  0  1  0  0  0  0  0  0  0  0  0
   29.9292    5.3403    6.2320 O   0  0  0  0  0  0  0  0  0  0  0  0
   30.2913    6.5349    8.3193 C   0  0  2  0  0  0  0  0  0  0  0  0
   31.2193    7.4232    7.6808 O   0  0  0  0  0  0  0  0  0  0  0  0
   30.7040    6.3199    9.7995 C   0  0  2  0  0  0  0  0  0  0  0  0
   29.7730    5.4120   10.4560 O   0  0  0  0  0  0  0  0  0  0  0  0
   30.6789    7.6678   10.5411 C   0  0  0  0  0  0  0  0  0  0  0  0
   31.5964    8.5831    9.9149 O   0  0  0  0  0  0  0  0  0  0  0  0
  1  2  1  1  0  0  0
  1  3  1  0  0  0  0
  1  4  2  0  0  0  0
  1 16  1  0  0  0  0
  5  6  1  6  0  0  0
  5  7  1  0  0  0  0
  5 14  1  0  0  0  0
  7  8  1  6  0  0  0
  7  9  1  0  0  0  0
  9 10  1  6  0  0  0
  9 11  1  0  0  0  0
 11 12  1  6  0  0  0
 11 13  1  0  0  0  0
 13 14  1  0  0  0  0
 13 15  1  1  0  0  0
 15 16  1  0  0  0  0
M  CHG  1   3  -1
M  END
>  <CHROM.1>
-59.81308565,177.53215144,69.74525649,30.71217493,7.09971379,9.46499097,0.11761260
1.32000940,1.83053070

>  <Name>
ligand

>  <RI>
0

>  <Rbt.Current_Directory>
/home/itssahil/PROJECTS/Mol_Feturizer/New_Systems/rnas/3B4B

>  <Rbt.Executable>
rbdock ($Id: //depot/dev/client3/rdock/2013.1/src/exe/rbdock.cxx#4 $)

>  <Rbt.Library>
libRbt.so (2013.1, Build901 2013/11/27)

>  <Rbt.Parameter_File>
/export/apps/rDock/src/rDock_2013.1_src/data/scripts/dock_solv.prm

>  <Rbt.Receptor>
prm/blind_docking_60.prm

>  <SCORE>
-8.83764

>  <SCORE.INTER>
-7.77667

>  <SCORE.INTER.CONST>
1

>  <SCORE.INTER.POLAR>
0

>  <SCORE.INTER.ROT>
3

>  <SCORE.INTER.SOLV>
13.2264

>  <SCORE.INTER.VDW>
-15.1932

>  <SCORE.INTER.norm>
-0.486042

>  <SCORE.INTRA>
-1.06097

>  <SCORE.INTRA.DIHEDRAL>
-2.03239

>  <SCORE.INTRA.DIHEDRAL.0>
2.21864

>  <SCORE.INTRA.POLAR>
0

>  <SCORE.INTRA.POLAR.0>
0

>  <SCORE.INTRA.REPUL>
0

>  <SCORE.INTRA.REPUL.0>
0

>  <SCORE.INTRA.SOLV>
-0.511199

>  <SCORE.INTRA.SOLV.lig_0>
-58.5963

>  <SCORE.INTRA.VDW>
0.210827

>  <SCORE.INTRA.VDW.0>
-0.437849

>  <SCORE.INTRA.norm>
-0.0663106

>  <SCORE.RESTR>
0

>  <SCORE.RESTR.CAVITY>
0

>  <SCORE.RESTR.norm>
0

>  <SCORE.SYSTEM>
0

>  <SCORE.SYSTEM.CONST>
0

>  <SCORE.SYSTEM.DIHEDRAL>
0

>  <SCORE.SYSTEM.SOLV>
0

>  <SCORE.SYSTEM.norm>
0

>  <SCORE.heavy>
16

>  <SCORE.norm>
-0.552353

>  <RMSD>
17.124

$$$$
ligand
 OpenBabel11021811463D
libRbt.so/2013.1/901 2013/11/27
 16 16  0  0  0  0  0  0  0  0999 V2000
   32.2019   10.2839   10.8564 P   0  0  2  0  0  0  0  0  0  0  0  0
   33.1562    9.7739   11.8715 O   0  0  0  0  0  0  0  0  0  0  0  0
   32.9385   11.3176    9.8664 O   0  5  0  0  0  0  0  0  0  0  0  0
   30.9932   11.0598   11.6056 O   0  0  0  0  0  0  0  0  0  0  0  0
   30.5789    5.1945    8.5906 C   0  0  2  0  0  0  0  0  0  0  0  0
   29.8797    5.8067    7.4970 O   0  0  0  0  0  0  0  0  0  0  0  0
   29.6340    4.3039    9.4460 C   0  0  2  0  0  0  0  0  0  0  0  0
   29.0215    3.2611    8.5936 N   0  0  0  0  0  0  0  0  0  0  0  0
   28.5369    5.1987   10.0606 C   0  0  1  0  0  0  0  0  0  0  0  0
   27.6525    4.4108   10.8769 O   0  0  0  0  0  0  0  0  0  0  0  0
   29.2224    6.2677   10.9241 C   0  0  2  0  0  0  0  0  0  0  0  0
   28.2287    7.1278   11.4993 O   0  0  0  0  0  0  0  0  0  0  0  0
   30.1710    7.0948   10.0166 C   0  0  2  0  0  0  0  0  0  0  0  0
   31.1796    6.2297    9.4197 O   0  0  0  0  0  0  0  0  0  0  0  0
   30.8824    8.1678   10.8592 C   0  0  0  0  0  0  0  0  0  0  0  0
   31.6462    9.0326    9.9988 O   0  0  0  0  0  0  0  0  0  0  0  0
  1  2  1  1  0  0  0
  1  3  1  0  0  0  0
  1  4  2  0  0  0  0
  1 16  1  0  0  0  0
  5  6  1  6  0  0  0
  5  7  1  0  0  0  0
  5 14  1  0  0  0  0
  7  8  1  6  0  0  0
  7  9  1  0  0  0  0
  9 10  1  1  0  0  0
  9 11  1  0  0  0  0
 11 12  1  6  0  0  0
 11 13  1  0  0  0  0
 13 14  1  0  0  0  0
 13 15  1  1  0  0  0
 15 16  1  0  0  0  0
M  CHG  1   3  -1
M  END
>  <CHROM.1>
-173.54292337,171.34650049,64.91073863,30.52952654,7.45819061,10.19243966
-0.89909296,-0.68470153,-2.43526208

>  <Name>
ligand

>  <RI>
0

>  <Rbt.Current_Directory>
/home/itssahil/PROJECTS/Mol_Feturizer/New_Systems/rnas/3B4B

>  <Rbt.Executable>
rbdock ($Id: //depot/dev/client3/rdock/2013.1/src/exe/rbdock.cxx#4 $)

>  <Rbt.Library>
libRbt.so (2013.1, Build901 2013/11/27)

>  <Rbt.Parameter_File>
/export/apps/rDock/src/rDock_2013.1_src/data/scripts/dock_solv.prm

>  <Rbt.Receptor>
prm/blind_docking_40.prm

>  <SCORE>
-9.3158

>  <SCORE.INTER>
-7.7823

>  <SCORE.INTER.CONST>
1

>  <SCORE.INTER.POLAR>
0

>  <SCORE.INTER.ROT>
3

>  <SCORE.INTER.SOLV>
16.2152

>  <SCORE.INTER.VDW>
-16.1932

>  <SCORE.INTER.norm>
-0.486393

>  <SCORE.INTRA>
-1.5335

>  <SCORE.INTRA.DIHEDRAL>
-1.66366

>  <SCORE.INTRA.DIHEDRAL.0>
2.21864

>  <SCORE.INTRA.POLAR>
0

>  <SCORE.INTRA.POLAR.0>
0

>  <SCORE.INTRA.REPUL>
0

>  <SCORE.INTRA.REPUL.0>
0

>  <SCORE.INTRA.SOLV>
-1.1434

>  <SCORE.INTRA.SOLV.lig_0>
-58.5963

>  <SCORE.INTRA.VDW>
-0.129974

>  <SCORE.INTRA.VDW.0>
-0.437849

>  <SCORE.INTRA.norm>
-0.0958439

>  <SCORE.RESTR>
0

>  <SCORE.RESTR.CAVITY>
0

>  <SCORE.RESTR.norm>
0

>  <SCORE.SYSTEM>
0

>  <SCORE.SYSTEM.CONST>
0

>  <SCORE.SYSTEM.DIHEDRAL>
0

>  <SCORE.SYSTEM.SOLV>
0

>  <SCORE.SYSTEM.norm>
0

>  <SCORE.heavy>
16

>  <SCORE.norm>
-0.582237

>  <RMSD>
17.146

$$$$
ligand
 OpenBabel11021811463D
libRbt.so/2013.1/901 2013/11/27
 16 16  0  0  0  0  0  0  0  0999 V2000
   31.9310   10.5369   10.9515 P   0  0  2  0  0  0  0  0  0  0  0  0
   32.3693   11.6431   10.0652 O   0  0  0  0  0  0  0  0  0  0  0  0
   30.7806   11.0472   11.9551 O   0  5  0  0  0  0  0  0  0  0  0  0
   33.1932   10.0278   11.8301 O   0  0  0  0  0  0  0  0  0  0  0  0
   30.7346    5.4186    8.5526 C   0  0  2  0  0  0  0  0  0  0  0  0
   29.9849    5.9741    7.4622 O   0  0  0  0  0  0  0  0  0  0  0  0
   29.8805    4.4191    9.3827 C   0  0  2  0  0  0  0  0  0  0  0  0
   29.3877    3.3336    8.5062 N   0  0  0  0  0  0  0  0  0  0  0  0
   28.6907    5.1834   10.0007 C   0  0  1  0  0  0  0  0  0  0  0  0
   27.8863    4.2930   10.7941 O   0  0  0  0  0  0  0  0  0  0  0  0
   29.2531    6.3024   10.8894 C   0  0  2  0  0  0  0  0  0  0  0  0
   28.1701    7.0436   11.4687 O   0  0  0  0  0  0  0  0  0  0  0  0
   30.1180    7.2401   10.0062 C   0  0  2  0  0  0  0  0  0  0  0  0
   31.2167    6.4957    9.4054 O   0  0  0  0  0  0  0  0  0  0  0  0
   30.7062    8.3660   10.8744 C   0  0  0  0  0  0  0  0  0  0  0  0
   31.3433    9.3447   10.0332 O   0  0  0  0  0  0  0  0  0  0  0  0
  1  2  1  6  0  0  0
  1  3  1  0  0  0  0
  1  4  2  0  0  0  0
  1 16  1  0  0  0  0
  5  6  1  6  0  0  0
  5  7  1  0  0  0  0
  5 14  1  0  0  0  0
  7  8  1  6  0  0  0
  7  9  1  0  0  0  0
  9 10  1  1  0  0  0
  9 11  1  0  0  0  0
 11 12  1  6  0  0  0
 11 13  1  0  0  0  0
 13 14  1  0  0  0  0
 13 15  1  1  0  0  0
 15 16  1  0  0  0  0
M  CHG  1   3  -1
M  END
>  <CHROM.1>
-171.58131880,178.86413999,-170.22746379,30.48799555,7.60082771,10.21350030
-0.98751519,-0.72154064,-2.46529803

>  <Name>
ligand

>  <RI>
0

>  <Rbt.Current_Directory>
/home/itssahil/PROJECTS/Mol_Feturizer/New_Systems/rnas/3B4B

>  <Rbt.Executable>
rbdock ($Id: //depot/dev/client3/rdock/2013.1/src/exe/rbdock.cxx#4 $)

>  <Rbt.Library>
libRbt.so (2013.1, Build901 2013/11/27)

>  <Rbt.Parameter_File>
/export/apps/rDock/src/rDock_2013.1_src/data/scripts/dock_solv.prm

>  <Rbt.Receptor>
prm/blind_docking_100.prm

>  <SCORE>
-8.1206

>  <SCORE.INTER>
-6.79147

>  <SCORE.INTER.CONST>
1

>  <SCORE.INTER.POLAR>
0

>  <SCORE.INTER.ROT>
3

>  <SCORE.INTER.SOLV>
17.4398

>  <SCORE.INTER.VDW>
-15.9409

>  <SCORE.INTER.norm>
-0.424467

>  <SCORE.INTRA>
-1.32913

>  <SCORE.INTRA.DIHEDRAL>
-1.80185

>  <SCORE.INTRA.DIHEDRAL.0>
2.21864

>  <SCORE.INTRA.POLAR>
0

>  <SCORE.INTRA.POLAR.0>
0

>  <SCORE.INTRA.REPUL>
0

>  <SCORE.INTRA.REPUL.0>
0

>  <SCORE.INTRA.SOLV>
-0.541197

>  <SCORE.INTRA.SOLV.lig_0>
-58.5963

>  <SCORE.INTRA.VDW>
-0.157603

>  <SCORE.INTRA.VDW.0>
-0.437849

>  <SCORE.INTRA.norm>
-0.0830706

>  <SCORE.RESTR>
0

>  <SCORE.RESTR.CAVITY>
0

>  <SCORE.RESTR.norm>
0

>  <SCORE.SYSTEM>
0

>  <SCORE.SYSTEM.CONST>
0

>  <SCORE.SYSTEM.DIHEDRAL>
0

>  <SCORE.SYSTEM.SOLV>
0

>  <SCORE.SYSTEM.norm>
0

>  <SCORE.heavy>
16

>  <SCORE.norm>
-0.507538

>  <RMSD>
17.171

$$$$
ligand
 OpenBabel11021811463D
libRbt.so/2013.1/901 2013/11/27
 16 16  0  0  0  0  0  0  0  0999 V2000
   29.4634    3.8370    8.2742 P   0  0  2  0  0  0  0  0  0  0  0  0
   30.8054    3.2687    8.5518 O   0  0  0  0  0  0  0  0  0  0  0  0
   28.3799    3.2408    9.3047 O   0  5  0  0  0  0  0  0  0  0  0  0
   29.0178    3.4372    6.7690 O   0  0  0  0  0  0  0  0  0  0  0  0
   31.0376    8.9979   11.3778 C   0  0  2  0  0  0  0  0  0  0  0  0
   29.7131    9.5258   11.5411 O   0  0  0  0  0  0  0  0  0  0  0  0
   31.7968    9.7074   10.2212 C   0  0  2  0  0  0  0  0  0  0  0  0
   31.8638   11.1618   10.4845 N   0  0  0  0  0  0  0  0  0  0  0  0
   31.0428    9.4413    8.9012 C   0  0  1  0  0  0  0  0  0  0  0  0
   31.7282   10.0676    7.8024 O   0  0  0  0  0  0  0  0  0  0  0  0
   30.9908    7.9226    8.6800 C   0  0  2  0  0  0  0  0  0  0  0  0
   30.2812    7.6397    7.4657 O   0  0  0  0  0  0  0  0  0  0  0  0
   30.2515    7.2783    9.8824 C   0  0  2  0  0  0  0  0  0  0  0  0
   30.9588    7.5666   11.1228 O   0  0  0  0  0  0  0  0  0  0  0  0
   30.1954    5.7524    9.6936 C   0  0  0  0  0  0  0  0  0  0  0  0
   29.5377    5.4411    8.4518 O   0  0  0  0  0  0  0  0  0  0  0  0
  1  2  1  1  0  0  0
  1  3  1  0  0  0  0
  1  4  2  0  0  0  0
  1 16  1  0  0  0  0
  5  6  1  6  0  0  0
  5  7  1  0  0  0  0
  5 14  1  0  0  0  0
  7  8  1  1  0  0  0
  7  9  1  0  0  0  0
  9 10  1  6  0  0  0
  9 11  1  0  0  0  0
 11 12  1  6  0  0  0
 11 13  1  0  0  0  0
 13 14  1  0  0  0  0
 13 15  1  6  0  0  0
 15 16  1  0  0  0  0
M  CHG  1   3  -1
M  END
>  <CHROM.1>
-57.73824592,-179.12100855,-48.13851209,30.33965992,6.83538133,9.17882720
2.50007688,-1.21906330,-1.94623739

>  <Name>
ligand

>  <RI>
0

>  <Rbt.Current_Directory>
/home/itssahil/PROJECTS/Mol_Feturizer/New_Systems/rnas/3B4B

>  <Rbt.Executable>
rbdock ($Id: //depot/dev/client3/rdock/2013.1/src/exe/rbdock.cxx#4 $)

>  <Rbt.Library>
libRbt.so (2013.1, Build901 2013/11/27)

>  <Rbt.Parameter_File>
/export/apps/rDock/src/rDock_2013.1_src/data/scripts/dock_solv.prm

>  <Rbt.Receptor>
prm/blind_docking_100.prm

>  <SCORE>
-6.76863

>  <SCORE.INTER>
-6.00716

>  <SCORE.INTER.CONST>
1

>  <SCORE.INTER.POLAR>
0

>  <SCORE.INTER.ROT>
3

>  <SCORE.INTER.SOLV>
15.2706

>  <SCORE.INTER.VDW>
-14.695

>  <SCORE.INTER.norm>
-0.375448

>  <SCORE.INTRA>
-0.761468

>  <SCORE.INTRA.DIHEDRAL>
-1.96819

>  <SCORE.INTRA.DIHEDRAL.0>
2.21864

>  <SCORE.INTRA.POLAR>
0

>  <SCORE.INTRA.POLAR.0>
0

>  <SCORE.INTRA.REPUL>
0

>  <SCORE.INTRA.REPUL.0>
0

>  <SCORE.INTRA.SOLV>
-0.730927

>  <SCORE.INTRA.SOLV.lig_0>
-58.5963

>  <SCORE.INTRA.VDW>
0.58809

>  <SCORE.INTRA.VDW.0>
-0.437849

>  <SCORE.INTRA.norm>
-0.0475918

>  <SCORE.RESTR>
0

>  <SCORE.RESTR.CAVITY>
0

>  <SCORE.RESTR.norm>
0

>  <SCORE.SYSTEM>
0

>  <SCORE.SYSTEM.CONST>
0

>  <SCORE.SYSTEM.DIHEDRAL>
0

>  <SCORE.SYSTEM.SOLV>
0

>  <SCORE.SYSTEM.norm>
0

>  <SCORE.heavy>
16

>  <SCORE.norm>
-0.423039

>  <RMSD>
17.428

$$$$
ligand
 OpenBabel11021811463D
libRbt.so/2013.1/901 2013/11/27
 16 16  0  0  0  0  0  0  0  0999 V2000
   31.0331   10.6275   11.4582 P   0  0  2  0  0  0  0  0  0  0  0  0
   30.2286   11.4810   12.3667 O   0  0  0  0  0  0  0  0  0  0  0  0
   32.4373   10.2466   12.1468 O   0  5  0  0  0  0  0  0  0  0  0  0
   31.3336   11.4423   10.0907 O   0  0  0  0  0  0  0  0  0  0  0  0
   30.4930    5.1934    8.5650 C   0  0  2  0  0  0  0  0  0  0  0  0
   29.7218    5.7647    7.4979 O   0  0  0  0  0  0  0  0  0  0  0  0
   29.5970    4.3940    9.5529 C   0  0  2  0  0  0  0  0  0  0  0  0
   28.8778    3.3259    8.8241 N   0  0  0  0  0  0  0  0  0  0  0  0
   28.5885    5.3665   10.2001 C   0  0  1  0  0  0  0  0  0  0  0  0
   27.7528    4.6648   11.1374 O   0  0  0  0  0  0  0  0  0  0  0  0
   29.3823    6.4586   10.9319 C   0  0  2  0  0  0  0  0  0  0  0  0
   28.4721    7.3901   11.5334 O   0  0  0  0  0  0  0  0  0  0  0  0
   30.2752    7.1914    9.8960 C   0  0  2  0  0  0  0  0  0  0  0  0
   31.1982    6.2529    9.2720 O   0  0  0  0  0  0  0  0  0  0  0  0
   31.0932    8.2851   10.6047 C   0  0  0  0  0  0  0  0  0  0  0  0
   30.2049    9.2732   11.1580 O   0  0  0  0  0  0  0  0  0  0  0  0
  1  2  1  1  0  0  0
  1  3  1  0  0  0  0
  1  4  2  0  0  0  0
  1 16  1  0  0  0  0
  5  6  1  6  0  0  0
  5  7  1  0  0  0  0
  5 14  1  0  0  0  0
  7  8  1  6  0  0  0
  7  9  1  0  0  0  0
  9 10  1  1  0  0  0
  9 11  1  0  0  0  0
 11 12  1  6  0  0  0
 11 13  1  0  0  0  0
 13 14  1  0  0  0  0
 13 15  1  1  0  0  0
 15 16  1  0  0  0  0
M  CHG  1   3  -1
M  END
>  <CHROM.1>
-63.19524251,-161.47806771,-163.94994697,30.12511287,7.65012283,10.43357003
1.15798756,0.76597312,0.63582277

>  <Name>
ligand

>  <RI>
0

>  <Rbt.Current_Directory>
/home/itssahil/PROJECTS/Mol_Feturizer/New_Systems/rnas/3B4B

>  <Rbt.Executable>
rbdock ($Id: //depot/dev/client3/rdock/2013.1/src/exe/rbdock.cxx#4 $)

>  <Rbt.Library>
libRbt.so (2013.1, Build901 2013/11/27)

>  <Rbt.Parameter_File>
/export/apps/rDock/src/rDock_2013.1_src/data/scripts/dock_solv.prm

>  <Rbt.Receptor>
prm/blind_docking_80.prm

>  <SCORE>
-8.04224

>  <SCORE.INTER>
-8.12688

>  <SCORE.INTER.CONST>
1

>  <SCORE.INTER.POLAR>
0

>  <SCORE.INTER.ROT>
3

>  <SCORE.INTER.SOLV>
19.2905

>  <SCORE.INTER.VDW>
-17.4481

>  <SCORE.INTER.norm>
-0.50793

>  <SCORE.INTRA>
0.084644

>  <SCORE.INTRA.DIHEDRAL>
-0.213894

>  <SCORE.INTRA.DIHEDRAL.0>
2.21864

>  <SCORE.INTRA.POLAR>
0

>  <SCORE.INTRA.POLAR.0>
0

>  <SCORE.INTRA.REPUL>
0

>  <SCORE.INTRA.REPUL.0>
0

>  <SCORE.INTRA.SOLV>
-0.0867427

>  <SCORE.INTRA.SOLV.lig_0>
-58.5963

>  <SCORE.INTRA.VDW>
0.234962

>  <SCORE.INTRA.VDW.0>
-0.437849

>  <SCORE.INTRA.norm>
0.00529025

>  <SCORE.RESTR>
0

>  <SCORE.RESTR.CAVITY>
0

>  <SCORE.RESTR.norm>
0

>  <SCORE.SYSTEM>
0

>  <SCORE.SYSTEM.CONST>
0

>  <SCORE.SYSTEM.DIHEDRAL>
0

>  <SCORE.SYSTEM.SOLV>
0

>  <SCORE.SYSTEM.norm>
0

>  <SCORE.heavy>
16

>  <SCORE.norm>
-0.50264

>  <RMSD>
17.431

$$$$
ligand
 OpenBabel11021811463D
libRbt.so/2013.1/901 2013/11/27
 16 16  0  0  0  0  0  0  0  0999 V2000
   31.6434    3.3369    7.6189 P   0  0  2  0  0  0  0  0  0  0  0  0
   31.9101    2.7242    8.9434 O   0  0  0  0  0  0  0  0  0  0  0  0
   30.2377    2.8143    7.0341 O   0  5  0  0  0  0  0  0  0  0  0  0
   32.8200    2.9116    6.5898 O   0  0  0  0  0  0  0  0  0  0  0  0
   30.2493    8.9282    7.9733 C   0  0  2  0  0  0  0  0  0  0  0  0
   31.5746    9.3550    8.3215 O   0  0  0  0  0  0  0  0  0  0  0  0
   29.2126    9.3443    9.0548 C   0  0  2  0  0  0  0  0  0  0  0  0
   29.2376   10.8129    9.2333 N   0  0  0  0  0  0  0  0  0  0  0  0
   29.5753    8.6424   10.3805 C   0  0  1  0  0  0  0  0  0  0  0  0
   28.6243    8.9888   11.4027 O   0  0  0  0  0  0  0  0  0  0  0  0
   29.5465    7.1259   10.1400 C   0  0  2  0  0  0  0  0  0  0  0  0
   29.8950    6.4424   11.3521 O   0  0  0  0  0  0  0  0  0  0  0  0
   30.5774    6.7870    9.0311 C   0  0  2  0  0  0  0  0  0  0  0  0
   30.2381    7.4830    7.7971 O   0  0  0  0  0  0  0  0  0  0  0  0
   30.5612    5.2726    8.7597 C   0  0  0  0  0  0  0  0  0  0  0  0
   31.5797    4.9413    7.7981 O   0  0  0  0  0  0  0  0  0  0  0  0
  1  2  1  1  0  0  0
  1  3  1  0  0  0  0
  1  4  2  0  0  0  0
  1 16  1  0  0  0  0
  5  6  1  1  0  0  0
  5  7  1  0  0  0  0
  5 14  1  0  0  0  0
  7  8  1  1  0  0  0
  7  9  1  0  0  0  0
  9 10  1  1  0  0  0
  9 11  1  0  0  0  0
 11 12  1  1  0  0  0
 11 13  1  0  0  0  0
 13 14  1  0  0  0  0
 13 15  1  6  0  0  0
 15 16  1  0  0  0  0
M  CHG  1   3  -1
M  END
>  <CHROM.1>
-176.07100313,174.98468645,-57.60350101,30.58406894,6.31042950,8.73624120
-0.83060618,1.08622804,-0.33548291

>  <Name>
ligand

>  <RI>
0

>  <Rbt.Current_Directory>
/home/itssahil/PROJECTS/Mol_Feturizer/New_Systems/rnas/3B4B

>  <Rbt.Executable>
rbdock ($Id: //depot/dev/client3/rdock/2013.1/src/exe/rbdock.cxx#4 $)

>  <Rbt.Library>
libRbt.so (2013.1, Build901 2013/11/27)

>  <Rbt.Parameter_File>
/export/apps/rDock/src/rDock_2013.1_src/data/scripts/dock_solv.prm

>  <Rbt.Receptor>
prm/blind_docking_40.prm

>  <SCORE>
-7.61401

>  <SCORE.INTER>
-5.95861

>  <SCORE.INTER.CONST>
1

>  <SCORE.INTER.POLAR>
0

>  <SCORE.INTER.ROT>
3

>  <SCORE.INTER.SOLV>
10.515

>  <SCORE.INTER.VDW>
-13.0774

>  <SCORE.INTER.norm>
-0.372413

>  <SCORE.INTRA>
-1.6554

>  <SCORE.INTRA.DIHEDRAL>
-2.02834

>  <SCORE.INTRA.DIHEDRAL.0>
2.21864

>  <SCORE.INTRA.POLAR>
0

>  <SCORE.INTRA.POLAR.0>
0

>  <SCORE.INTRA.REPUL>
0

>  <SCORE.INTRA.REPUL.0>
0

>  <SCORE.INTRA.SOLV>
-1.22508

>  <SCORE.INTRA.SOLV.lig_0>
-58.5963

>  <SCORE.INTRA.VDW>
-0.0286948

>  <SCORE.INTRA.VDW.0>
-0.437849

>  <SCORE.INTRA.norm>
-0.103463

>  <SCORE.RESTR>
0

>  <SCORE.RESTR.CAVITY>
0

>  <SCORE.RESTR.norm>
0

>  <SCORE.SYSTEM>
0

>  <SCORE.SYSTEM.CONST>
0

>  <SCORE.SYSTEM.DIHEDRAL>
0

>  <SCORE.SYSTEM.SOLV>
0

>  <SCORE.SYSTEM.norm>
0

>  <SCORE.heavy>
16

>  <SCORE.norm>
-0.475876

>  <RMSD>
17.515

$$$$
ligand
 OpenBabel11021811463D
libRbt.so/2013.1/901 2013/11/27
 16 16  0  0  0  0  0  0  0  0999 V2000
   32.8194    2.7800    6.7050 P   0  0  2  0  0  0  0  0  0  0  0  0
   32.5599    1.5149    7.4352 O   0  0  0  0  0  0  0  0  0  0  0  0
   32.2152    2.6994    5.2152 O   0  5  0  0  0  0  0  0  0  0  0  0
   34.4187    3.0153    6.6007 O   0  0  0  0  0  0  0  0  0  0  0  0
   29.8843    5.9058   10.5433 C   0  0  2  0  0  0  0  0  0  0  0  0
   28.4727    5.6628   10.6321 O   0  0  0  0  0  0  0  0  0  0  0  0
   30.1861    7.3031    9.9315 C   0  0  2  0  0  0  0  0  0  0  0  0
   29.5446    8.3565   10.7487 N   0  0  0  0  0  0  0  0  0  0  0  0
   29.6340    7.3394    8.4908 C   0  0  1  0  0  0  0  0  0  0  0  0
   29.9124    8.6134    7.8838 O   0  0  0  0  0  0  0  0  0  0  0  0
   30.3205    6.2238    7.6892 C   0  0  2  0  0  0  0  0  0  0  0  0
   29.8171    6.2203    6.3459 O   0  0  0  0  0  0  0  0  0  0  0  0
   30.0052    4.8664    8.3716 C   0  0  2  0  0  0  0  0  0  0  0  0
   30.5045    4.8617    9.7401 O   0  0  0  0  0  0  0  0  0  0  0  0
   30.6922    3.7291    7.5956 C   0  0  0  0  0  0  0  0  0  0  0  0
   32.1046    3.9896    7.5025 O   0  0  0  0  0  0  0  0  0  0  0  0
  1  2  1  1  0  0  0
  1  3  1  0  0  0  0
  1  4  2  0  0  0  0
  1 16  1  0  0  0  0
  5  6  1  6  0  0  0
  5  7  1  0  0  0  0
  5 14  1  0  0  0  0
  7  8  1  1  0  0  0
  7  9  1  0  0  0  0
  9 10  1  6  0  0  0
  9 11  1  0  0  0  0
 11 12  1  6  0  0  0
 11 13  1  0  0  0  0
 13 14  1  0  0  0  0
 13 15  1  6  0  0  0
 15 16  1  0  0  0  0
M  CHG  1   3  -1
M  END
>  <CHROM.1>
55.80074074,179.19229376,-58.83904995,30.99614753,4.96862363,8.06284144,0.08138528
-1.02212405,2.24867210

>  <Name>
ligand

>  <RI>
0

>  <Rbt.Current_Directory>
/home/itssahil/PROJECTS/Mol_Feturizer/New_Systems/rnas/3B4B

>  <Rbt.Executable>
rbdock ($Id: //depot/dev/client3/rdock/2013.1/src/exe/rbdock.cxx#4 $)

>  <Rbt.Library>
libRbt.so (2013.1, Build901 2013/11/27)

>  <Rbt.Parameter_File>
/export/apps/rDock/src/rDock_2013.1_src/data/scripts/dock_solv.prm

>  <Rbt.Receptor>
prm/blind_docking_40.prm

>  <SCORE>
-8.95804

>  <SCORE.INTER>
-7.31229

>  <SCORE.INTER.CONST>
1

>  <SCORE.INTER.POLAR>
0

>  <SCORE.INTER.ROT>
3

>  <SCORE.INTER.SOLV>
12.7105

>  <SCORE.INTER.VDW>
-14.7117

>  <SCORE.INTER.norm>
-0.457018

>  <SCORE.INTRA>
-1.64766

>  <SCORE.INTRA.DIHEDRAL>
-2.1494

>  <SCORE.INTRA.DIHEDRAL.0>
2.21864

>  <SCORE.INTRA.POLAR>
0

>  <SCORE.INTRA.POLAR.0>
0

>  <SCORE.INTRA.REPUL>
0

>  <SCORE.INTRA.REPUL.0>
0

>  <SCORE.INTRA.SOLV>
-0.916008

>  <SCORE.INTRA.SOLV.lig_0>
-58.5963

>  <SCORE.INTRA.VDW>
-0.114956

>  <SCORE.INTRA.VDW.0>
-0.437849

>  <SCORE.INTRA.norm>
-0.102979

>  <SCORE.RESTR>
0.00190347

>  <SCORE.RESTR.CAVITY>
0.00190347

>  <SCORE.RESTR.norm>
0.000118967

>  <SCORE.SYSTEM>
0

>  <SCORE.SYSTEM.CONST>
0

>  <SCORE.SYSTEM.DIHEDRAL>
0

>  <SCORE.SYSTEM.SOLV>
0

>  <SCORE.SYSTEM.norm>
0

>  <SCORE.heavy>
16

>  <SCORE.norm>
-0.559878

>  <RMSD>
17.536

$$$$
ligand
 OpenBabel11021811463D
libRbt.so/2013.1/901 2013/11/27
 16 16  0  0  0  0  0  0  0  0999 V2000
   30.1573    3.5904    6.6543 P   0  0  2  0  0  0  0  0  0  0  0  0
   31.6250    3.3854    6.5852 O   0  0  0  0  0  0  0  0  0  0  0  0
   29.4806    2.4729    7.5948 O   0  5  0  0  0  0  0  0  0  0  0  0
   29.5316    3.4592    5.1658 O   0  0  0  0  0  0  0  0  0  0  0  0
   30.6897    7.9173   11.0958 C   0  0  2  0  0  0  0  0  0  0  0  0
   29.2829    8.1152   11.2997 O   0  0  0  0  0  0  0  0  0  0  0  0
   31.3072    9.0534   10.2325 C   0  0  2  0  0  0  0  0  0  0  0  0
   31.0723   10.3610   10.8837 N   0  0  0  0  0  0  0  0  0  0  0  0
   30.6448    9.0282    8.8388 C   0  0  1  0  0  0  0  0  0  0  0  0
   31.2061   10.0557    8.0031 O   0  0  0  0  0  0  0  0  0  0  0  0
   30.9069    7.6511    8.2116 C   0  0  2  0  0  0  0  0  0  0  0  0
   30.2898    7.5890    6.9181 O   0  0  0  0  0  0  0  0  0  0  0  0
   30.2948    6.5674    9.1380 C   0  0  2  0  0  0  0  0  0  0  0  0
   30.9083    6.6269   10.4579 O   0  0  0  0  0  0  0  0  0  0  0  0
   30.5538    5.1737    8.5398 C   0  0  0  0  0  0  0  0  0  0  0  0
   29.8713    5.0529    7.2784 O   0  0  0  0  0  0  0  0  0  0  0  0
  1  2  1  6  0  0  0
  1  3  1  0  0  0  0
  1  4  2  0  0  0  0
  1 16  1  0  0  0  0
  5  6  1  6  0  0  0
  5  7  1  0  0  0  0
  5 14  1  0  0  0  0
  7  8  1  1  0  0  0
  7  9  1  0  0  0  0
  9 10  1  6  0  0  0
  9 11  1  0  0  0  0
 11 12  1  6  0  0  0
 11 13  1  0  0  0  0
 13 14  1  0  0  0  0
 13 15  1  6  0  0  0
 15 16  1  0  0  0  0
M  CHG  1   3  -1
M  END
>  <CHROM.1>
-63.91879354,179.63568027,-54.31765356,30.44754968,6.34904500,8.36885125
2.08580176,-1.38002223,-2.07631545

>  <Name>
ligand

>  <RI>
0

>  <Rbt.Current_Directory>
/home/itssahil/PROJECTS/Mol_Feturizer/New_Systems/rnas/3B4B

>  <Rbt.Executable>
rbdock ($Id: //depot/dev/client3/rdock/2013.1/src/exe/rbdock.cxx#4 $)

>  <Rbt.Library>
libRbt.so (2013.1, Build901 2013/11/27)

>  <Rbt.Parameter_File>
/export/apps/rDock/src/rDock_2013.1_src/data/scripts/dock_solv.prm

>  <Rbt.Receptor>
prm/blind_docking_100.prm

>  <SCORE>
-7.22063

>  <SCORE.INTER>
-5.98994

>  <SCORE.INTER.CONST>
1

>  <SCORE.INTER.POLAR>
0

>  <SCORE.INTER.ROT>
3

>  <SCORE.INTER.SOLV>
9.01433

>  <SCORE.INTER.VDW>
-12.5981

>  <SCORE.INTER.norm>
-0.374372

>  <SCORE.INTRA>
-1.23068

>  <SCORE.INTRA.DIHEDRAL>
-2.10831

>  <SCORE.INTRA.DIHEDRAL.0>
2.21864

>  <SCORE.INTRA.POLAR>
0

>  <SCORE.INTRA.POLAR.0>
0

>  <SCORE.INTRA.REPUL>
0

>  <SCORE.INTRA.REPUL.0>
0

>  <SCORE.INTRA.SOLV>
-0.718554

>  <SCORE.INTRA.SOLV.lig_0>
-58.5963

>  <SCORE.INTRA.VDW>
0.182748

>  <SCORE.INTRA.VDW.0>
-0.437849

>  <SCORE.INTRA.norm>
-0.0769178

>  <SCORE.RESTR>
0

>  <SCORE.RESTR.CAVITY>
0

>  <SCORE.RESTR.norm>
0

>  <SCORE.SYSTEM>
0

>  <SCORE.SYSTEM.CONST>
0

>  <SCORE.SYSTEM.DIHEDRAL>
0

>  <SCORE.SYSTEM.SOLV>
0

>  <SCORE.SYSTEM.norm>
0

>  <SCORE.heavy>
16

>  <SCORE.norm>
-0.451289

>  <RMSD>
17.552

$$$$
ligand
 OpenBabel11021811463D
libRbt.so/2013.1/901 2013/11/27
 16 16  0  0  0  0  0  0  0  0999 V2000
   32.1549    2.0634    7.7824 P   0  0  2  0  0  0  0  0  0  0  0  0
   32.6429    1.0506    8.7505 O   0  0  0  0  0  0  0  0  0  0  0  0
   31.1058    1.3982    6.7588 O   0  5  0  0  0  0  0  0  0  0  0  0
   33.4105    2.6363    6.9342 O   0  0  0  0  0  0  0  0  0  0  0  0
   30.2725    6.6743   10.5356 C   0  0  2  0  0  0  0  0  0  0  0  0
   28.9368    6.2126   10.7856 O   0  0  0  0  0  0  0  0  0  0  0  0
   30.2752    8.0308    9.7757 C   0  0  2  0  0  0  0  0  0  0  0  0
   29.5307    9.0434   10.5565 N   0  0  0  0  0  0  0  0  0  0  0  0
   29.6073    7.8256    8.3996 C   0  0  1  0  0  0  0  0  0  0  0  0
   29.6089    9.0580    7.6577 O   0  0  0  0  0  0  0  0  0  0  0  0
   30.4081    6.7611    7.6354 C   0  0  2  0  0  0  0  0  0  0  0  0
   29.8031    6.5350    6.3545 O   0  0  0  0  0  0  0  0  0  0  0  0
   30.3912    5.4488    8.4631 C   0  0  2  0  0  0  0  0  0  0  0  0
   30.9956    5.6688    9.7701 O   0  0  0  0  0  0  0  0  0  0  0  0
   31.1983    4.3658    7.7262 C   0  0  0  0  0  0  0  0  0  0  0  0
   31.4194    3.2454    8.6022 O   0  0  0  0  0  0  0  0  0  0  0  0
  1  2  1  1  0  0  0
  1  3  1  0  0  0  0
  1  4  2  0  0  0  0
  1 16  1  0  0  0  0
  5  6  1  6  0  0  0
  5  7  1  0  0  0  0
  5 14  1  0  0  0  0
  7  8  1  1  0  0  0
  7  9  1  0  0  0  0
  9 10  1  6  0  0  0
  9 11  1  0  0  0  0
 11 12  1  6  0  0  0
 11 13  1  0  0  0  0
 13 14  1  0  0  0  0
 13 15  1  6  0  0  0
 15 16  1  0  0  0  0
M  CHG  1   3  -1
M  END
>  <CHROM.1>
168.23787221,175.16148610,167.61501240,30.85747415,5.06534812,8.45085141
-0.05449510,-1.18782917,1.76189463

>  <Name>
ligand

>  <RI>
0

>  <Rbt.Current_Directory>
/home/itssahil/PROJECTS/Mol_Feturizer/New_Systems/rnas/3B4B

>  <Rbt.Executable>
rbdock ($Id: //depot/dev/client3/rdock/2013.1/src/exe/rbdock.cxx#4 $)

>  <Rbt.Library>
libRbt.so (2013.1, Build901 2013/11/27)

>  <Rbt.Parameter_File>
/export/apps/rDock/src/rDock_2013.1_src/data/scripts/dock_solv.prm

>  <Rbt.Receptor>
prm/blind_docking_60.prm

>  <SCORE>
-7.83794

>  <SCORE.INTER>
-6.78255

>  <SCORE.INTER.CONST>
1

>  <SCORE.INTER.POLAR>
0

>  <SCORE.INTER.ROT>
3

>  <SCORE.INTER.SOLV>
11.4755

>  <SCORE.INTER.VDW>
-13.9469

>  <SCORE.INTER.norm>
-0.42391

>  <SCORE.INTRA>
-1.05539

>  <SCORE.INTRA.DIHEDRAL>
-1.3796

>  <SCORE.INTRA.DIHEDRAL.0>
2.21864

>  <SCORE.INTRA.POLAR>
0

>  <SCORE.INTRA.POLAR.0>
0

>  <SCORE.INTRA.REPUL>
0

>  <SCORE.INTRA.REPUL.0>
0

>  <SCORE.INTRA.SOLV>
-0.485636

>  <SCORE.INTRA.SOLV.lig_0>
-58.5963

>  <SCORE.INTRA.VDW>
-0.122774

>  <SCORE.INTRA.VDW.0>
-0.437849

>  <SCORE.INTRA.norm>
-0.0659619

>  <SCORE.RESTR>
0

>  <SCORE.RESTR.CAVITY>
0

>  <SCORE.RESTR.norm>
0

>  <SCORE.SYSTEM>
0

>  <SCORE.SYSTEM.CONST>
0

>  <SCORE.SYSTEM.DIHEDRAL>
0

>  <SCORE.SYSTEM.SOLV>
0

>  <SCORE.SYSTEM.norm>
0

>  <SCORE.heavy>
16

>  <SCORE.norm>
-0.489871

>  <RMSD>
17.556

$$$$
ligand
 OpenBabel11021811463D
libRbt.so/2013.1/901 2013/11/27
 16 16  0  0  0  0  0  0  0  0999 V2000
   32.1369    2.1205    7.7445 P   0  0  2  0  0  0  0  0  0  0  0  0
   32.6755    1.1027    8.6799 O   0  0  0  0  0  0  0  0  0  0  0  0
   31.0893    1.4449    6.7261 O   0  5  0  0  0  0  0  0  0  0  0  0
   33.3569    2.7518    6.8858 O   0  0  0  0  0  0  0  0  0  0  0  0
   30.1084    6.5691   10.6809 C   0  0  2  0  0  0  0  0  0  0  0  0
   28.7633    6.0869   10.8141 O   0  0  0  0  0  0  0  0  0  0  0  0
   30.1490    7.9704   10.0084 C   0  0  2  0  0  0  0  0  0  0  0  0
   29.3469    8.9290   10.8001 N   0  0  0  0  0  0  0  0  0  0  0  0
   29.5737    7.8486    8.5815 C   0  0  1  0  0  0  0  0  0  0  0  0
   29.6130    9.1249    7.9192 O   0  0  0  0  0  0  0  0  0  0  0  0
   30.4313    6.8374    7.8068 C   0  0  2  0  0  0  0  0  0  0  0  0
   29.9127    6.6890    6.4776 O   0  0  0  0  0  0  0  0  0  0  0  0
   30.3717    5.4759    8.5487 C   0  0  2  0  0  0  0  0  0  0  0  0
   30.8881    5.6166    9.9035 O   0  0  0  0  0  0  0  0  0  0  0  0
   31.2340    4.4445    7.8003 C   0  0  0  0  0  0  0  0  0  0  0  0
   31.3807    3.2600    8.6047 O   0  0  0  0  0  0  0  0  0  0  0  0
  1  2  1  1  0  0  0
  1  3  1  0  0  0  0
  1  4  2  0  0  0  0
  1 16  1  0  0  0  0
  5  6  1  6  0  0  0
  5  7  1  0  0  0  0
  5 14  1  0  0  0  0
  7  8  1  1  0  0  0
  7  9  1  0  0  0  0
  9 10  1  6  0  0  0
  9 11  1  0  0  0  0
 11 12  1  6  0  0  0
 11 13  1  0  0  0  0
 13 14  1  0  0  0  0
 13 15  1  6  0  0  0
 15 16  1  0  0  0  0
M  CHG  1   3  -1
M  END
>  <CHROM.1>
169.59246675,173.38363191,161.56394958,30.81504965,5.08562103,8.53124205
0.11074202,-1.17473601,1.98177568

>  <Name>
ligand

>  <RI>
0

>  <Rbt.Current_Directory>
/home/itssahil/PROJECTS/Mol_Feturizer/New_Systems/rnas/3B4B

>  <Rbt.Executable>
rbdock ($Id: //depot/dev/client3/rdock/2013.1/src/exe/rbdock.cxx#4 $)

>  <Rbt.Library>
libRbt.so (2013.1, Build901 2013/11/27)

>  <Rbt.Parameter_File>
/export/apps/rDock/src/rDock_2013.1_src/data/scripts/dock_solv.prm

>  <Rbt.Receptor>
prm/blind_docking_60.prm

>  <SCORE>
-7.73454

>  <SCORE.INTER>
-6.88285

>  <SCORE.INTER.CONST>
1

>  <SCORE.INTER.POLAR>
0

>  <SCORE.INTER.ROT>
3

>  <SCORE.INTER.SOLV>
11.7893

>  <SCORE.INTER.VDW>
-14.1183

>  <SCORE.INTER.norm>
-0.430178

>  <SCORE.INTRA>
-0.851689

>  <SCORE.INTRA.DIHEDRAL>
-1.11091

>  <SCORE.INTRA.DIHEDRAL.0>
2.21864

>  <SCORE.INTRA.POLAR>
0

>  <SCORE.INTRA.POLAR.0>
0

>  <SCORE.INTRA.REPUL>
0

>  <SCORE.INTRA.REPUL.0>
0

>  <SCORE.INTRA.SOLV>
-0.501803

>  <SCORE.INTRA.SOLV.lig_0>
-58.5963

>  <SCORE.INTRA.VDW>
-0.0453321

>  <SCORE.INTRA.VDW.0>
-0.437849

>  <SCORE.INTRA.norm>
-0.0532306

>  <SCORE.RESTR>
0

>  <SCORE.RESTR.CAVITY>
0

>  <SCORE.RESTR.norm>
0

>  <SCORE.SYSTEM>
0

>  <SCORE.SYSTEM.CONST>
0

>  <SCORE.SYSTEM.DIHEDRAL>
0

>  <SCORE.SYSTEM.SOLV>
0

>  <SCORE.SYSTEM.norm>
0

>  <SCORE.heavy>
16

>  <SCORE.norm>
-0.483409

>  <RMSD>
17.561

$$$$
ligand
 OpenBabel11021811463D
libRbt.so/2013.1/901 2013/11/27
 16 16  0  0  0  0  0  0  0  0999 V2000
   32.4422    2.9372    6.7005 P   0  0  2  0  0  0  0  0  0  0  0  0
   31.3482    3.8910    7.0081 O   0  0  0  0  0  0  0  0  0  0  0  0
   33.8496    3.7126    6.6060 O   0  5  0  0  0  0  0  0  0  0  0  0
   32.1459    2.2307    5.2732 O   0  0  0  0  0  0  0  0  0  0  0  0
   35.0942   -1.8650    9.6415 C   0  0  2  0  0  0  0  0  0  0  0  0
   33.9725   -2.7590    9.5934 O   0  0  0  0  0  0  0  0  0  0  0  0
   35.2297   -1.1930   11.0371 C   0  0  2  0  0  0  0  0  0  0  0  0
   35.3690   -2.2318   12.0814 N   0  0  0  0  0  0  0  0  0  0  0  0
   33.9683   -0.3433   11.2989 C   0  0  1  0  0  0  0  0  0  0  0  0
   34.0663    0.3113   12.5761 O   0  0  0  0  0  0  0  0  0  0  0  0
   33.8631    0.7090   10.1854 C   0  0  2  0  0  0  0  0  0  0  0  0
   32.6896    1.5080   10.3911 O   0  0  0  0  0  0  0  0  0  0  0  0
   33.7643   -0.0283    8.8237 C   0  0  2  0  0  0  0  0  0  0  0  0
   34.9475   -0.8501    8.6079 O   0  0  0  0  0  0  0  0  0  0  0  0
   33.6703    1.0035    7.6861 C   0  0  0  0  0  0  0  0  0  0  0  0
   32.5183    1.8426    7.8863 O   0  0  0  0  0  0  0  0  0  0  0  0
  1  2  1  1  0  0  0
  1  3  1  0  0  0  0
  1  4  2  0  0  0  0
  1 16  1  0  0  0  0
  5  6  1  1  0  0  0
  5  7  1  0  0  0  0
  5 14  1  0  0  0  0
  7  8  1  1  0  0  0
  7  9  1  0  0  0  0
  9 10  1  1  0  0  0
  9 11  1  0  0  0  0
 11 12  1  1  0  0  0
 11 13  1  0  0  0  0
 13 14  1  0  0  0  0
 13 15  1  6  0  0  0
 15 16  1  0  0  0  0
M  CHG  1   3  -1
M  END
>  <CHROM.1>
-58.72359097,179.08260962,-173.34967647,33.55532743,0.77972010,8.86718242
2.50073010,1.13333175,-1.67496342

>  <Name>
ligand

>  <RI>
0

>  <Rbt.Current_Directory>
/home/itssahil/PROJECTS/Mol_Feturizer/New_Systems/rnas/3B4B

>  <Rbt.Executable>
rbdock ($Id: //depot/dev/client3/rdock/2013.1/src/exe/rbdock.cxx#4 $)

>  <Rbt.Library>
libRbt.so (2013.1, Build901 2013/11/27)

>  <Rbt.Parameter_File>
/export/apps/rDock/src/rDock_2013.1_src/data/scripts/dock_solv.prm

>  <Rbt.Receptor>
prm/blind_docking_60.prm

>  <SCORE>
-6.3089

>  <SCORE.INTER>
-5.45809

>  <SCORE.INTER.CONST>
1

>  <SCORE.INTER.POLAR>
0

>  <SCORE.INTER.ROT>
3

>  <SCORE.INTER.SOLV>
12.5037

>  <SCORE.INTER.VDW>
-13.4066

>  <SCORE.INTER.norm>
-0.341131

>  <SCORE.INTRA>
-0.850805

>  <SCORE.INTRA.DIHEDRAL>
-2.13398

>  <SCORE.INTRA.DIHEDRAL.0>
2.21864

>  <SCORE.INTRA.POLAR>
0

>  <SCORE.INTRA.POLAR.0>
0

>  <SCORE.INTRA.REPUL>
0

>  <SCORE.INTRA.REPUL.0>
0

>  <SCORE.INTRA.SOLV>
0.0452161

>  <SCORE.INTRA.SOLV.lig_0>
-58.5963

>  <SCORE.INTRA.VDW>
0.193577

>  <SCORE.INTRA.VDW.0>
-0.437849

>  <SCORE.INTRA.norm>
-0.0531753

>  <SCORE.RESTR>
0

>  <SCORE.RESTR.CAVITY>
0

>  <SCORE.RESTR.norm>
0

>  <SCORE.SYSTEM>
0

>  <SCORE.SYSTEM.CONST>
0

>  <SCORE.SYSTEM.DIHEDRAL>
0

>  <SCORE.SYSTEM.SOLV>
0

>  <SCORE.SYSTEM.norm>
0

>  <SCORE.heavy>
16

>  <SCORE.norm>
-0.394306

>  <RMSD>
17.604

$$$$
ligand
 OpenBabel11021811463D
libRbt.so/2013.1/901 2013/11/27
 16 16  0  0  0  0  0  0  0  0999 V2000
   28.2638    4.4049   10.5447 P   0  0  2  0  0  0  0  0  0  0  0  0
   29.5417    3.7157   10.8499 O   0  0  0  0  0  0  0  0  0  0  0  0
   27.1543    4.0415   11.6528 O   0  5  0  0  0  0  0  0  0  0  0  0
   27.7273    3.9136    9.0973 O   0  0  0  0  0  0  0  0  0  0  0  0
   31.2637    9.1493   11.2834 C   0  0  2  0  0  0  0  0  0  0  0  0
   30.1535   10.0387   11.4736 O   0  0  0  0  0  0  0  0  0  0  0  0
   32.1901    9.6302   10.1309 C   0  0  2  0  0  0  0  0  0  0  0  0
   32.6827   10.9949   10.4210 N   0  0  0  0  0  0  0  0  0  0  0  0
   31.3825    9.6261    8.8158 C   0  0  1  0  0  0  0  0  0  0  0  0
   32.2142   10.0478    7.7205 O   0  0  0  0  0  0  0  0  0  0  0  0
   30.8856    8.1946    8.5663 C   0  0  2  0  0  0  0  0  0  0  0  0
   30.1163    8.1590    7.3560 O   0  0  0  0  0  0  0  0  0  0  0  0
   29.9977    7.7692    9.7655 C   0  0  2  0  0  0  0  0  0  0  0  0
   30.7667    7.8100   11.0021 O   0  0  0  0  0  0  0  0  0  0  0  0
   29.4951    6.3313    9.5485 C   0  0  0  0  0  0  0  0  0  0  0  0
   28.5241    5.9994   10.5577 O   0  0  0  0  0  0  0  0  0  0  0  0
  1  2  1  1  0  0  0
  1  3  1  0  0  0  0
  1  4  2  0  0  0  0
  1 16  1  0  0  0  0
  5  6  1  6  0  0  0
  5  7  1  0  0  0  0
  5 14  1  0  0  0  0
  7  8  1  1  0  0  0
  7  9  1  0  0  0  0
  9 10  1  6  0  0  0
  9 11  1  0  0  0  0
 11 12  1  6  0  0  0
 11 13  1  0  0  0  0
 13 14  1  0  0  0  0
 13 15  1  6  0  0  0
 15 16  1  0  0  0  0
M  CHG  1   3  -1
M  END
>  <CHROM.1>
-171.94345527,-166.67605068,60.91817236,29.96172650,7.20541994,9.97250862
-3.12849030,-1.01303294,-1.73002712

>  <Name>
ligand

>  <RI>
0

>  <Rbt.Current_Directory>
/home/itssahil/PROJECTS/Mol_Feturizer/New_Systems/rnas/3B4B

>  <Rbt.Executable>
rbdock ($Id: //depot/dev/client3/rdock/2013.1/src/exe/rbdock.cxx#4 $)

>  <Rbt.Library>
libRbt.so (2013.1, Build901 2013/11/27)

>  <Rbt.Parameter_File>
/export/apps/rDock/src/rDock_2013.1_src/data/scripts/dock_solv.prm

>  <Rbt.Receptor>
prm/blind_docking_40.prm

>  <SCORE>
-8.10174

>  <SCORE.INTER>
-6.79447

>  <SCORE.INTER.CONST>
1

>  <SCORE.INTER.POLAR>
0

>  <SCORE.INTER.ROT>
3

>  <SCORE.INTER.SOLV>
22.1082

>  <SCORE.INTER.VDW>
-17.499

>  <SCORE.INTER.norm>
-0.424654

>  <SCORE.INTRA>
-1.30728

>  <SCORE.INTRA.DIHEDRAL>
-1.14283

>  <SCORE.INTRA.DIHEDRAL.0>
2.21864

>  <SCORE.INTRA.POLAR>
0

>  <SCORE.INTRA.POLAR.0>
0

>  <SCORE.INTRA.REPUL>
0

>  <SCORE.INTRA.REPUL.0>
0

>  <SCORE.INTRA.SOLV>
-1.15924

>  <SCORE.INTRA.SOLV.lig_0>
-58.5963

>  <SCORE.INTRA.VDW>
-0.156244

>  <SCORE.INTRA.VDW.0>
-0.437849

>  <SCORE.INTRA.norm>
-0.0817048

>  <SCORE.RESTR>
0

>  <SCORE.RESTR.CAVITY>
0

>  <SCORE.RESTR.norm>
0

>  <SCORE.SYSTEM>
0

>  <SCORE.SYSTEM.CONST>
0

>  <SCORE.SYSTEM.DIHEDRAL>
0

>  <SCORE.SYSTEM.SOLV>
0

>  <SCORE.SYSTEM.norm>
0

>  <SCORE.heavy>
16

>  <SCORE.norm>
-0.506359

>  <RMSD>
17.649

$$$$
ligand
 OpenBabel11021811463D
libRbt.so/2013.1/901 2013/11/27
 16 16  0  0  0  0  0  0  0  0999 V2000
   34.2617   -1.0460   12.2519 P   0  0  2  0  0  0  0  0  0  0  0  0
   35.1856    0.0642   12.5909 O   0  0  0  0  0  0  0  0  0  0  0  0
   32.9937   -1.0403   13.2434 O   0  5  0  0  0  0  0  0  0  0  0  0
   35.0411   -2.4562   12.4197 O   0  0  0  0  0  0  0  0  0  0  0  0
   31.9314    2.3867    7.6151 C   0  0  2  0  0  0  0  0  0  0  0  0
   30.9315    1.4607    7.1653 O   0  0  0  0  0  0  0  0  0  0  0  0
   33.1930    2.3510    6.7069 C   0  0  2  0  0  0  0  0  0  0  0  0
   32.8134    2.6594    5.3105 N   0  0  0  0  0  0  0  0  0  0  0  0
   33.8183    0.9424    6.7879 C   0  0  1  0  0  0  0  0  0  0  0  0
   35.0022    0.8765    5.9736 O   0  0  0  0  0  0  0  0  0  0  0  0
   34.1832    0.6667    8.2539 C   0  0  2  0  0  0  0  0  0  0  0  0
   34.7544   -0.6444    8.3667 O   0  0  0  0  0  0  0  0  0  0  0  0
   32.8880    0.7501    9.1042 C   0  0  2  0  0  0  0  0  0  0  0  0
   32.2941    2.0754    8.9903 O   0  0  0  0  0  0  0  0  0  0  0  0
   33.2260    0.4901   10.5826 C   0  0  0  0  0  0  0  0  0  0  0  0
   33.7487   -0.8423   10.7335 O   0  0  0  0  0  0  0  0  0  0  0  0
  1  2  1  1  0  0  0
  1  3  1  0  0  0  0
  1  4  2  0  0  0  0
  1 16  1  0  0  0  0
  5  6  1  6  0  0  0
  5  7  1  0  0  0  0
  5 14  1  0  0  0  0
  7  8  1  6  0  0  0
  7  9  1  0  0  0  0
  9 10  1  6  0  0  0
  9 11  1  0  0  0  0
 11 12  1  6  0  0  0
 11 13  1  0  0  0  0
 13 14  1  0  0  0  0
 13 15  1  1  0  0  0
 15 16  1  0  0  0  0
M  CHG  1   3  -1
M  END
>  <CHROM.1>
-62.62434329,173.38925434,-52.24836297,33.58728585,0.38086911,9.42022730
-1.33172900,0.53854123,-1.22065505

>  <Name>
ligand

>  <RI>
0

>  <Rbt.Current_Directory>
/home/itssahil/PROJECTS/Mol_Feturizer/New_Systems/rnas/3B4B

>  <Rbt.Executable>
rbdock ($Id: //depot/dev/client3/rdock/2013.1/src/exe/rbdock.cxx#4 $)

>  <Rbt.Library>
libRbt.so (2013.1, Build901 2013/11/27)

>  <Rbt.Parameter_File>
/export/apps/rDock/src/rDock_2013.1_src/data/scripts/dock_solv.prm

>  <Rbt.Receptor>
prm/blind_docking_100.prm

>  <SCORE>
-7.70587

>  <SCORE.INTER>
-6.6658

>  <SCORE.INTER.CONST>
1

>  <SCORE.INTER.POLAR>
0

>  <SCORE.INTER.ROT>
3

>  <SCORE.INTER.SOLV>
14.4752

>  <SCORE.INTER.VDW>
-14.8689

>  <SCORE.INTER.norm>
-0.416612

>  <SCORE.INTRA>
-1.04008

>  <SCORE.INTRA.DIHEDRAL>
-1.88043

>  <SCORE.INTRA.DIHEDRAL.0>
2.21864

>  <SCORE.INTRA.POLAR>
0

>  <SCORE.INTRA.POLAR.0>
0

>  <SCORE.INTRA.REPUL>
0

>  <SCORE.INTRA.REPUL.0>
0

>  <SCORE.INTRA.SOLV>
-0.684028

>  <SCORE.INTRA.SOLV.lig_0>
-58.5963

>  <SCORE.INTRA.VDW>
0.242148

>  <SCORE.INTRA.VDW.0>
-0.437849

>  <SCORE.INTRA.norm>
-0.0650049

>  <SCORE.RESTR>
0

>  <SCORE.RESTR.CAVITY>
0

>  <SCORE.RESTR.norm>
0

>  <SCORE.SYSTEM>
0

>  <SCORE.SYSTEM.CONST>
0

>  <SCORE.SYSTEM.DIHEDRAL>
0

>  <SCORE.SYSTEM.SOLV>
0

>  <SCORE.SYSTEM.norm>
0

>  <SCORE.heavy>
16

>  <SCORE.norm>
-0.481617

>  <RMSD>
17.739

$$$$
ligand
 OpenBabel11021811463D
libRbt.so/2013.1/901 2013/11/27
 16 16  0  0  0  0  0  0  0  0999 V2000
   33.0627    3.1270    6.2425 P   0  0  2  0  0  0  0  0  0  0  0  0
   34.1713    4.0121    6.6768 O   0  0  0  0  0  0  0  0  0  0  0  0
   33.2438    1.6556    6.8694 O   0  5  0  0  0  0  0  0  0  0  0  0
   33.0814    3.0052    4.6272 O   0  0  0  0  0  0  0  0  0  0  0  0
   28.7900    4.3321   10.5980 C   0  0  2  0  0  0  0  0  0  0  0  0
   27.6606    3.9706    9.7896 O   0  0  0  0  0  0  0  0  0  0  0  0
   28.9548    5.8754   10.6918 C   0  0  2  0  0  0  0  0  0  0  0  0
   27.7236    6.4773   11.2495 N   0  0  0  0  0  0  0  0  0  0  0  0
   29.2218    6.4290    9.2762 C   0  0  1  0  0  0  0  0  0  0  0  0
   29.3996    7.8556    9.3258 O   0  0  0  0  0  0  0  0  0  0  0  0
   30.4992    5.7672    8.7389 C   0  0  2  0  0  0  0  0  0  0  0  0
   30.7679    6.2499    7.4150 O   0  0  0  0  0  0  0  0  0  0  0  0
   30.2765    4.2321    8.7029 C   0  0  2  0  0  0  0  0  0  0  0  0
   29.9940    3.7317   10.0416 O   0  0  0  0  0  0  0  0  0  0  0  0
   31.5474    3.5404    8.1795 C   0  0  0  0  0  0  0  0  0  0  0  0
   31.6685    3.7569    6.7618 O   0  0  0  0  0  0  0  0  0  0  0  0
  1  2  1  1  0  0  0
  1  3  1  0  0  0  0
  1  4  2  0  0  0  0
  1 16  1  0  0  0  0
  5  6  1  6  0  0  0
  5  7  1  0  0  0  0
  5 14  1  0  0  0  0
  7  8  1  6  0  0  0
  7  9  1  0  0  0  0
  9 10  1  1  0  0  0
  9 11  1  0  0  0  0
 11 12  1  6  0  0  0
 11 13  1  0  0  0  0
 13 14  1  0  0  0  0
 13 15  1  1  0  0  0
 15 16  1  0  0  0  0
M  CHG  1   3  -1
M  END
>  <CHROM.1>
-73.59374163,175.60323185,-74.37725746,30.85314916,4.48951979,8.22993004
-0.33008612,0.77616005,-0.14749293

>  <Name>
ligand

>  <RI>
0

>  <Rbt.Current_Directory>
/home/itssahil/PROJECTS/Mol_Feturizer/New_Systems/rnas/3B4B

>  <Rbt.Executable>
rbdock ($Id: //depot/dev/client3/rdock/2013.1/src/exe/rbdock.cxx#4 $)

>  <Rbt.Library>
libRbt.so (2013.1, Build901 2013/11/27)

>  <Rbt.Parameter_File>
/export/apps/rDock/src/rDock_2013.1_src/data/scripts/dock_solv.prm

>  <Rbt.Receptor>
prm/blind_docking_80.prm

>  <SCORE>
-11.5895

>  <SCORE.INTER>
-10.6575

>  <SCORE.INTER.CONST>
1

>  <SCORE.INTER.POLAR>
0

>  <SCORE.INTER.ROT>
3

>  <SCORE.INTER.SOLV>
16.7551

>  <SCORE.INTER.VDW>
-18.29

>  <SCORE.INTER.norm>
-0.666093

>  <SCORE.INTRA>
-0.932048

>  <SCORE.INTRA.DIHEDRAL>
-1.16362

>  <SCORE.INTRA.DIHEDRAL.0>
2.21864

>  <SCORE.INTRA.POLAR>
0

>  <SCORE.INTRA.POLAR.0>
0

>  <SCORE.INTRA.REPUL>
0

>  <SCORE.INTRA.REPUL.0>
0

>  <SCORE.INTRA.SOLV>
-0.574451

>  <SCORE.INTRA.SOLV.lig_0>
-58.5963

>  <SCORE.INTRA.VDW>
-0.0630152

>  <SCORE.INTRA.VDW.0>
-0.437849

>  <SCORE.INTRA.norm>
-0.058253

>  <SCORE.RESTR>
0

>  <SCORE.RESTR.CAVITY>
0

>  <SCORE.RESTR.norm>
0

>  <SCORE.SYSTEM>
0

>  <SCORE.SYSTEM.CONST>
0

>  <SCORE.SYSTEM.DIHEDRAL>
0

>  <SCORE.SYSTEM.SOLV>
0

>  <SCORE.SYSTEM.norm>
0

>  <SCORE.heavy>
16

>  <SCORE.norm>
-0.724346

>  <RMSD>
17.765

$$$$
ligand
 OpenBabel11021811463D
libRbt.so/2013.1/901 2013/11/27
 16 16  0  0  0  0  0  0  0  0999 V2000
   33.1459    2.6984    6.1629 P   0  0  2  0  0  0  0  0  0  0  0  0
   33.1174    3.4068    4.8596 O   0  0  0  0  0  0  0  0  0  0  0  0
   34.6550    2.6042    6.7150 O   0  5  0  0  0  0  0  0  0  0  0  0
   32.5751    1.1955    5.9635 O   0  0  0  0  0  0  0  0  0  0  0  0
   29.4756    4.4090   10.2077 C   0  0  2  0  0  0  0  0  0  0  0  0
   28.0842    4.1456    9.9746 O   0  0  0  0  0  0  0  0  0  0  0  0
   29.7835    5.9325   10.1657 C   0  0  2  0  0  0  0  0  0  0  0  0
   28.9620    6.6372   11.1744 N   0  0  0  0  0  0  0  0  0  0  0  0
   29.4582    6.4617    8.7529 C   0  0  1  0  0  0  0  0  0  0  0  0
   29.7497    7.8678    8.6696 O   0  0  0  0  0  0  0  0  0  0  0  0
   30.3253    5.6933    7.7450 C   0  0  2  0  0  0  0  0  0  0  0  0
   30.0355    6.1517    6.4169 O   0  0  0  0  0  0  0  0  0  0  0  0
   29.9909    4.1828    7.8637 C   0  0  2  0  0  0  0  0  0  0  0  0
   30.2733    3.7080    9.2117 O   0  0  0  0  0  0  0  0  0  0  0  0
   30.8558    3.3853    6.8722 C   0  0  0  0  0  0  0  0  0  0  0  0
   32.2457    3.5269    7.2181 O   0  0  0  0  0  0  0  0  0  0  0  0
  1  2  1  6  0  0  0
  1  3  1  0  0  0  0
  1  4  2  0  0  0  0
  1 16  1  0  0  0  0
  5  6  1  6  0  0  0
  5  7  1  0  0  0  0
  5 14  1  0  0  0  0
  7  8  1  1  0  0  0
  7  9  1  0  0  0  0
  9 10  1  1  0  0  0
  9 11  1  0  0  0  0
 11 12  1  6  0  0  0
 11 13  1  0  0  0  0
 13 14  1  0  0  0  0
 13 15  1  6  0  0  0
 15 16  1  0  0  0  0
M  CHG  1   3  -1
M  END
>  <CHROM.1>
63.34015028,-179.43848835,71.23623503,31.00790089,4.33581887,7.81692620,0.24455938
-0.87165816,2.70231115

>  <Name>
ligand

>  <RI>
0

>  <Rbt.Current_Directory>
/home/itssahil/PROJECTS/Mol_Feturizer/New_Systems/rnas/3B4B

>  <Rbt.Executable>
rbdock ($Id: //depot/dev/client3/rdock/2013.1/src/exe/rbdock.cxx#4 $)

>  <Rbt.Library>
libRbt.so (2013.1, Build901 2013/11/27)

>  <Rbt.Parameter_File>
/export/apps/rDock/src/rDock_2013.1_src/data/scripts/dock_solv.prm

>  <Rbt.Receptor>
prm/blind_docking_40.prm

>  <SCORE>
-9.54335

>  <SCORE.INTER>
-7.91492

>  <SCORE.INTER.CONST>
1

>  <SCORE.INTER.POLAR>
0

>  <SCORE.INTER.ROT>
3

>  <SCORE.INTER.SOLV>
15.195

>  <SCORE.INTER.VDW>
-15.9416

>  <SCORE.INTER.norm>
-0.494682

>  <SCORE.INTRA>
-1.62843

>  <SCORE.INTRA.DIHEDRAL>
-1.971

>  <SCORE.INTRA.DIHEDRAL.0>
2.21864

>  <SCORE.INTRA.POLAR>
0

>  <SCORE.INTRA.POLAR.0>
0

>  <SCORE.INTRA.REPUL>
0

>  <SCORE.INTRA.REPUL.0>
0

>  <SCORE.INTRA.SOLV>
-0.830911

>  <SCORE.INTRA.SOLV.lig_0>
-58.5963

>  <SCORE.INTRA.VDW>
-0.22748

>  <SCORE.INTRA.VDW.0>
-0.437849

>  <SCORE.INTRA.norm>
-0.101777

>  <SCORE.RESTR>
0

>  <SCORE.RESTR.CAVITY>
0

>  <SCORE.RESTR.norm>
0

>  <SCORE.SYSTEM>
0

>  <SCORE.SYSTEM.CONST>
0

>  <SCORE.SYSTEM.DIHEDRAL>
0

>  <SCORE.SYSTEM.SOLV>
0

>  <SCORE.SYSTEM.norm>
0

>  <SCORE.heavy>
16

>  <SCORE.norm>
-0.596459

>  <RMSD>
17.799

$$$$
ligand
 OpenBabel11021811463D
libRbt.so/2013.1/901 2013/11/27
 16 16  0  0  0  0  0  0  0  0999 V2000
   33.1267    2.6816    6.1315 P   0  0  2  0  0  0  0  0  0  0  0  0
   33.0893    3.3676    4.8166 O   0  0  0  0  0  0  0  0  0  0  0  0
   34.6395    2.5974    6.6751 O   0  5  0  0  0  0  0  0  0  0  0  0
   32.5552    1.1754    5.9618 O   0  0  0  0  0  0  0  0  0  0  0  0
   29.4840    4.4027   10.1946 C   0  0  2  0  0  0  0  0  0  0  0  0
   28.0917    4.1331    9.9741 O   0  0  0  0  0  0  0  0  0  0  0  0
   29.7858    5.9271   10.1432 C   0  0  2  0  0  0  0  0  0  0  0  0
   28.9701    6.6333   11.1555 N   0  0  0  0  0  0  0  0  0  0  0  0
   29.4469    6.4487    8.7308 C   0  0  1  0  0  0  0  0  0  0  0  0
   29.7324    7.8555    8.6387 O   0  0  0  0  0  0  0  0  0  0  0  0
   30.3086    5.6790    7.7192 C   0  0  2  0  0  0  0  0  0  0  0  0
   30.0061    6.1303    6.3915 O   0  0  0  0  0  0  0  0  0  0  0  0
   29.9808    4.1679    7.8475 C   0  0  2  0  0  0  0  0  0  0  0  0
   30.2761    3.7002    9.1951 O   0  0  0  0  0  0  0  0  0  0  0  0
   30.8405    3.3691    6.8524 C   0  0  0  0  0  0  0  0  0  0  0  0
   32.2333    3.5279    7.1783 O   0  0  0  0  0  0  0  0  0  0  0  0
  1  2  1  6  0  0  0
  1  3  1  0  0  0  0
  1  4  2  0  0  0  0
  1 16  1  0  0  0  0
  5  6  1  6  0  0  0
  5  7  1  0  0  0  0
  5 14  1  0  0  0  0
  7  8  1  1  0  0  0
  7  9  1  0  0  0  0
  9 10  1  1  0  0  0
  9 11  1  0  0  0  0
 11 12  1  6  0  0  0
 11 13  1  0  0  0  0
 13 14  1  0  0  0  0
 13 15  1  6  0  0  0
 15 16  1  0  0  0  0
M  CHG  1   3  -1
M  END
>  <CHROM.1>
62.78885038,179.80125297,71.80931562,30.99660821,4.32230094,7.79323590,0.23428968
-0.87754761,2.68837555

>  <Name>
ligand

>  <RI>
0

>  <Rbt.Current_Directory>
/home/itssahil/PROJECTS/Mol_Feturizer/New_Systems/rnas/3B4B

>  <Rbt.Executable>
rbdock ($Id: //depot/dev/client3/rdock/2013.1/src/exe/rbdock.cxx#4 $)

>  <Rbt.Library>
libRbt.so (2013.1, Build901 2013/11/27)

>  <Rbt.Parameter_File>
/export/apps/rDock/src/rDock_2013.1_src/data/scripts/dock_solv.prm

>  <Rbt.Receptor>
prm/blind_docking_40.prm

>  <SCORE>
-9.5487

>  <SCORE.INTER>
-7.93554

>  <SCORE.INTER.CONST>
1

>  <SCORE.INTER.POLAR>
0

>  <SCORE.INTER.ROT>
3

>  <SCORE.INTER.SOLV>
15.0175

>  <SCORE.INTER.VDW>
-15.8962

>  <SCORE.INTER.norm>
-0.495971

>  <SCORE.INTRA>
-1.61315

>  <SCORE.INTRA.DIHEDRAL>
-1.96404

>  <SCORE.INTRA.DIHEDRAL.0>
2.21864

>  <SCORE.INTRA.POLAR>
0

>  <SCORE.INTRA.POLAR.0>
0

>  <SCORE.INTRA.REPUL>
0

>  <SCORE.INTRA.REPUL.0>
0

>  <SCORE.INTRA.SOLV>
-0.822393

>  <SCORE.INTRA.SOLV.lig_0>
-58.5963

>  <SCORE.INTRA.VDW>
-0.219936

>  <SCORE.INTRA.VDW.0>
-0.437849

>  <SCORE.INTRA.norm>
-0.100822

>  <SCORE.RESTR>
0

>  <SCORE.RESTR.CAVITY>
0

>  <SCORE.RESTR.norm>
0

>  <SCORE.SYSTEM>
0

>  <SCORE.SYSTEM.CONST>
0

>  <SCORE.SYSTEM.DIHEDRAL>
0

>  <SCORE.SYSTEM.SOLV>
0

>  <SCORE.SYSTEM.norm>
0

>  <SCORE.heavy>
16

>  <SCORE.norm>
-0.596793

>  <RMSD>
17.820

$$$$
ligand
 OpenBabel11021811463D
libRbt.so/2013.1/901 2013/11/27
 16 16  0  0  0  0  0  0  0  0999 V2000
   32.3067    1.9237    7.1339 P   0  0  2  0  0  0  0  0  0  0  0  0
   33.5741    2.6554    6.8902 O   0  0  0  0  0  0  0  0  0  0  0  0
   32.6049    0.5115    7.8465 O   0  5  0  0  0  0  0  0  0  0  0  0
   31.5747    1.6417    5.7166 O   0  0  0  0  0  0  0  0  0  0  0  0
   29.6286    5.5614   10.6376 C   0  0  2  0  0  0  0  0  0  0  0  0
   28.3142    5.0154   10.4535 O   0  0  0  0  0  0  0  0  0  0  0  0
   29.6714    7.0767   10.2917 C   0  0  2  0  0  0  0  0  0  0  0  0
   28.6997    7.8098   11.1329 N   0  0  0  0  0  0  0  0  0  0  0  0
   29.3190    7.2512    8.7993 C   0  0  1  0  0  0  0  0  0  0  0  0
   29.3676    8.6423    8.4366 O   0  0  0  0  0  0  0  0  0  0  0  0
   30.3466    6.4650    7.9721 C   0  0  2  0  0  0  0  0  0  0  0  0
   30.0378    6.5941    6.5772 O   0  0  0  0  0  0  0  0  0  0  0  0
   30.2723    4.9727    8.3904 C   0  0  2  0  0  0  0  0  0  0  0  0
   30.5758    4.8303    9.8080 O   0  0  0  0  0  0  0  0  0  0  0  0
   31.3021    4.1612    7.5851 C   0  0  0  0  0  0  0  0  0  0  0  0
   31.3739    2.8198    8.1019 O   0  0  0  0  0  0  0  0  0  0  0  0
  1  2  1  6  0  0  0
  1  3  1  0  0  0  0
  1  4  2  0  0  0  0
  1 16  1  0  0  0  0
  5  6  1  6  0  0  0
  5  7  1  0  0  0  0
  5 14  1  0  0  0  0
  7  8  1  1  0  0  0
  7  9  1  0  0  0  0
  9 10  1  6  0  0  0
  9 11  1  0  0  0  0
 11 12  1  6  0  0  0
 11 13  1  0  0  0  0
 13 14  1  0  0  0  0
 13 15  1  6  0  0  0
 15 16  1  0  0  0  0
M  CHG  1   3  -1
M  END
>  <CHROM.1>
171.73060102,172.58073713,49.49053635,30.71536745,4.59559256,8.34836925,0.31387749
-1.06038300,2.37732456

>  <Name>
ligand

>  <RI>
0

>  <Rbt.Current_Directory>
/home/itssahil/PROJECTS/Mol_Feturizer/New_Systems/rnas/3B4B

>  <Rbt.Executable>
rbdock ($Id: //depot/dev/client3/rdock/2013.1/src/exe/rbdock.cxx#4 $)

>  <Rbt.Library>
libRbt.so (2013.1, Build901 2013/11/27)

>  <Rbt.Parameter_File>
/export/apps/rDock/src/rDock_2013.1_src/data/scripts/dock_solv.prm

>  <Rbt.Receptor>
prm/blind_docking_100.prm

>  <SCORE>
-7.8924

>  <SCORE.INTER>
-6.6457

>  <SCORE.INTER.CONST>
1

>  <SCORE.INTER.POLAR>
0

>  <SCORE.INTER.ROT>
3

>  <SCORE.INTER.SOLV>
10.2483

>  <SCORE.INTER.VDW>
-13.4466

>  <SCORE.INTER.norm>
-0.415356

>  <SCORE.INTRA>
-1.2467

>  <SCORE.INTRA.DIHEDRAL>
-1.5332

>  <SCORE.INTRA.DIHEDRAL.0>
2.21864

>  <SCORE.INTRA.POLAR>
0

>  <SCORE.INTRA.POLAR.0>
0

>  <SCORE.INTRA.REPUL>
0

>  <SCORE.INTRA.REPUL.0>
0

>  <SCORE.INTRA.SOLV>
-1.2398

>  <SCORE.INTRA.SOLV.lig_0>
-58.5963

>  <SCORE.INTRA.VDW>
0.1398

>  <SCORE.INTRA.VDW.0>
-0.437849

>  <SCORE.INTRA.norm>
-0.0779187

>  <SCORE.RESTR>
0

>  <SCORE.RESTR.CAVITY>
0

>  <SCORE.RESTR.norm>
0

>  <SCORE.SYSTEM>
0

>  <SCORE.SYSTEM.CONST>
0

>  <SCORE.SYSTEM.DIHEDRAL>
0

>  <SCORE.SYSTEM.SOLV>
0

>  <SCORE.SYSTEM.norm>
0

>  <SCORE.heavy>
16

>  <SCORE.norm>
-0.493275

>  <RMSD>
17.830

$$$$
ligand
 OpenBabel11021811463D
libRbt.so/2013.1/901 2013/11/27
 16 16  0  0  0  0  0  0  0  0999 V2000
   30.3578   10.0914   10.5731 P   0  0  2  0  0  0  0  0  0  0  0  0
   31.2236   11.2480   10.2355 O   0  0  0  0  0  0  0  0  0  0  0  0
   29.2710    9.8488    9.4108 O   0  5  0  0  0  0  0  0  0  0  0  0
   29.5733   10.4005   11.9563 O   0  0  0  0  0  0  0  0  0  0  0  0
   30.9534    5.3394    8.3229 C   0  0  2  0  0  0  0  0  0  0  0  0
   30.3145    6.1101    7.2946 O   0  0  0  0  0  0  0  0  0  0  0  0
   30.0562    4.1600    8.7938 C   0  0  2  0  0  0  0  0  0  0  0  0
   29.7288    3.2898    7.6428 N   0  0  0  0  0  0  0  0  0  0  0  0
   28.7632    4.7389    9.4060 C   0  0  1  0  0  0  0  0  0  0  0  0
   27.9144    3.6751    9.8719 O   0  0  0  0  0  0  0  0  0  0  0  0
   29.1566    5.6405   10.5852 C   0  0  2  0  0  0  0  0  0  0  0  0
   27.9754    6.2081   11.1686 O   0  0  0  0  0  0  0  0  0  0  0  0
   30.0740    6.7720   10.0508 C   0  0  2  0  0  0  0  0  0  0  0  0
   31.2735    6.2065    9.4479 O   0  0  0  0  0  0  0  0  0  0  0  0
   30.4950    7.6856   11.2151 C   0  0  0  0  0  0  0  0  0  0  0  0
   31.2871    8.7773   10.7130 O   0  0  0  0  0  0  0  0  0  0  0  0
  1  2  1  6  0  0  0
  1  3  1  0  0  0  0
  1  4  2  0  0  0  0
  1 16  1  0  0  0  0
  5  6  1  6  0  0  0
  5  7  1  0  0  0  0
  5 14  1  0  0  0  0
  7  8  1  6  0  0  0
  7  9  1  0  0  0  0
  9 10  1  1  0  0  0
  9 11  1  0  0  0  0
 11 12  1  6  0  0  0
 11 13  1  0  0  0  0
 13 14  1  0  0  0  0
 13 15  1  1  0  0  0
 15 16  1  0  0  0  0
M  CHG  1   3  -1
M  END
>  <CHROM.1>
-176.93709037,99.62939581,172.31205373,29.93088243,7.19155563,9.86658257
-1.34197558,-0.79650146,-2.67367209

>  <Name>
ligand

>  <RI>
0

>  <Rbt.Current_Directory>
/home/itssahil/PROJECTS/Mol_Feturizer/New_Systems/rnas/3B4B

>  <Rbt.Executable>
rbdock ($Id: //depot/dev/client3/rdock/2013.1/src/exe/rbdock.cxx#4 $)

>  <Rbt.Library>
libRbt.so (2013.1, Build901 2013/11/27)

>  <Rbt.Parameter_File>
/export/apps/rDock/src/rDock_2013.1_src/data/scripts/dock_solv.prm

>  <Rbt.Receptor>
prm/blind_docking_60.prm

>  <SCORE>
-6.24793

>  <SCORE.INTER>
-7.73395

>  <SCORE.INTER.CONST>
1

>  <SCORE.INTER.POLAR>
0

>  <SCORE.INTER.ROT>
3

>  <SCORE.INTER.SOLV>
13.0369

>  <SCORE.INTER.VDW>
-15.1016

>  <SCORE.INTER.norm>
-0.483372

>  <SCORE.INTRA>
1.48603

>  <SCORE.INTRA.DIHEDRAL>
3.24913

>  <SCORE.INTRA.DIHEDRAL.0>
2.21864

>  <SCORE.INTRA.POLAR>
0

>  <SCORE.INTRA.POLAR.0>
0

>  <SCORE.INTRA.REPUL>
0

>  <SCORE.INTRA.REPUL.0>
0

>  <SCORE.INTRA.SOLV>
0.972531

>  <SCORE.INTRA.SOLV.lig_0>
-58.5963

>  <SCORE.INTRA.VDW>
-0.624804

>  <SCORE.INTRA.VDW.0>
-0.437849

>  <SCORE.INTRA.norm>
0.0928766

>  <SCORE.RESTR>
0

>  <SCORE.RESTR.CAVITY>
0

>  <SCORE.RESTR.norm>
0

>  <SCORE.SYSTEM>
0

>  <SCORE.SYSTEM.CONST>
0

>  <SCORE.SYSTEM.DIHEDRAL>
0

>  <SCORE.SYSTEM.SOLV>
0

>  <SCORE.SYSTEM.norm>
0

>  <SCORE.heavy>
16

>  <SCORE.norm>
-0.390495

>  <RMSD>
17.832

$$$$
ligand
 OpenBabel11021811463D
libRbt.so/2013.1/901 2013/11/27
 16 16  0  0  0  0  0  0  0  0999 V2000
   32.3017    2.9752    6.6349 P   0  0  2  0  0  0  0  0  0  0  0  0
   31.4974    3.3115    5.4344 O   0  0  0  0  0  0  0  0  0  0  0  0
   33.8693    2.9557    6.2699 O   0  5  0  0  0  0  0  0  0  0  0  0
   31.8771    1.5042    7.1641 O   0  0  0  0  0  0  0  0  0  0  0  0
   30.5256    7.4715    9.7146 C   0  0  2  0  0  0  0  0  0  0  0  0
   31.4009    7.2488   10.8299 O   0  0  0  0  0  0  0  0  0  0  0  0
   29.0352    7.5070   10.1562 C   0  0  2  0  0  0  0  0  0  0  0  0
   28.8385    8.5669   11.1696 N   0  0  0  0  0  0  0  0  0  0  0  0
   28.6643    6.1311   10.7487 C   0  0  1  0  0  0  0  0  0  0  0  0
   27.2835    6.1193   11.1517 O   0  0  0  0  0  0  0  0  0  0  0  0
   28.8957    5.0677    9.6652 C   0  0  2  0  0  0  0  0  0  0  0  0
   28.5741    3.7719   10.1898 O   0  0  0  0  0  0  0  0  0  0  0  0
   30.3901    5.1100    9.2499 C   0  0  2  0  0  0  0  0  0  0  0  0
   30.7305    6.4249    8.7234 O   0  0  0  0  0  0  0  0  0  0  0  0
   30.6490    4.0614    8.1540 C   0  0  0  0  0  0  0  0  0  0  0  0
   32.0340    4.0990    7.7643 O   0  0  0  0  0  0  0  0  0  0  0  0
  1  2  1  6  0  0  0
  1  3  1  0  0  0  0
  1  4  2  0  0  0  0
  1 16  1  0  0  0  0
  5  6  1  1  0  0  0
  5  7  1  0  0  0  0
  5 14  1  0  0  0  0
  7  8  1  1  0  0  0
  7  9  1  0  0  0  0
  9 10  1  6  0  0  0
  9 11  1  0  0  0  0
 11 12  1  1  0  0  0
 11 13  1  0  0  0  0
 13 14  1  0  0  0  0
 13 15  1  6  0  0  0
 15 16  1  0  0  0  0
M  CHG  1   3  -1
M  END
>  <CHROM.1>
179.90073422,178.88929028,63.31409895,30.58701631,4.93216539,8.73320522,-0.94391817
0.52552979,0.44113205

>  <Name>
ligand

>  <RI>
0

>  <Rbt.Current_Directory>
/home/itssahil/PROJECTS/Mol_Feturizer/New_Systems/rnas/3B4B

>  <Rbt.Executable>
rbdock ($Id: //depot/dev/client3/rdock/2013.1/src/exe/rbdock.cxx#4 $)

>  <Rbt.Library>
libRbt.so (2013.1, Build901 2013/11/27)

>  <Rbt.Parameter_File>
/export/apps/rDock/src/rDock_2013.1_src/data/scripts/dock_solv.prm

>  <Rbt.Receptor>
prm/blind_docking_80.prm

>  <SCORE>
-9.57701

>  <SCORE.INTER>
-7.79751

>  <SCORE.INTER.CONST>
1

>  <SCORE.INTER.POLAR>
0

>  <SCORE.INTER.ROT>
3

>  <SCORE.INTER.SOLV>
14.0767

>  <SCORE.INTER.VDW>
-15.4906

>  <SCORE.INTER.norm>
-0.487345

>  <SCORE.INTRA>
-1.77949

>  <SCORE.INTRA.DIHEDRAL>
-2.19303

>  <SCORE.INTRA.DIHEDRAL.0>
2.21864

>  <SCORE.INTRA.POLAR>
0

>  <SCORE.INTRA.POLAR.0>
0

>  <SCORE.INTRA.REPUL>
0

>  <SCORE.INTRA.REPUL.0>
0

>  <SCORE.INTRA.SOLV>
-1.14543

>  <SCORE.INTRA.SOLV.lig_0>
-58.5963

>  <SCORE.INTRA.VDW>
-0.110265

>  <SCORE.INTRA.VDW.0>
-0.437849

>  <SCORE.INTRA.norm>
-0.111218

>  <SCORE.RESTR>
0

>  <SCORE.RESTR.CAVITY>
0

>  <SCORE.RESTR.norm>
0

>  <SCORE.SYSTEM>
0

>  <SCORE.SYSTEM.CONST>
0

>  <SCORE.SYSTEM.DIHEDRAL>
0

>  <SCORE.SYSTEM.SOLV>
0

>  <SCORE.SYSTEM.norm>
0

>  <SCORE.heavy>
16

>  <SCORE.norm>
-0.598563

>  <RMSD>
17.861

$$$$
ligand
 OpenBabel11021811463D
libRbt.so/2013.1/901 2013/11/27
 16 16  0  0  0  0  0  0  0  0999 V2000
   32.5708    2.8693    6.4698 P   0  0  2  0  0  0  0  0  0  0  0  0
   31.9326    3.2432    5.1837 O   0  0  0  0  0  0  0  0  0  0  0  0
   34.1711    2.8150    6.3045 O   0  5  0  0  0  0  0  0  0  0  0  0
   32.0484    1.4022    6.9157 O   0  0  0  0  0  0  0  0  0  0  0  0
   30.4320    7.1995    9.6607 C   0  0  2  0  0  0  0  0  0  0  0  0
   31.2680    6.9128   10.7914 O   0  0  0  0  0  0  0  0  0  0  0  0
   28.9241    7.1362   10.0344 C   0  0  2  0  0  0  0  0  0  0  0  0
   28.6385    8.0925   11.1267 N   0  0  0  0  0  0  0  0  0  0  0  0
   28.5888    5.6991   10.4863 C   0  0  1  0  0  0  0  0  0  0  0  0
   27.1939    5.5965   10.8225 O   0  0  0  0  0  0  0  0  0  0  0  0
   28.9122    4.7471    9.3255 C   0  0  2  0  0  0  0  0  0  0  0  0
   28.6255    3.3977    9.7191 O   0  0  0  0  0  0  0  0  0  0  0  0
   30.4196    4.8856    8.9851 C   0  0  2  0  0  0  0  0  0  0  0  0
   30.7244    6.2548    8.5921 O   0  0  0  0  0  0  0  0  0  0  0  0
   30.7703    3.9505    7.8146 C   0  0  0  0  0  0  0  0  0  0  0  0
   32.1893    3.9833    7.5759 O   0  0  0  0  0  0  0  0  0  0  0  0
  1  2  1  6  0  0  0
  1  3  1  0  0  0  0
  1  4  2  0  0  0  0
  1 16  1  0  0  0  0
  5  6  1  1  0  0  0
  5  7  1  0  0  0  0
  5 14  1  0  0  0  0
  7  8  1  1  0  0  0
  7  9  1  0  0  0  0
  9 10  1  6  0  0  0
  9 11  1  0  0  0  0
 11 12  1  1  0  0  0
 11 13  1  0  0  0  0
 13 14  1  0  0  0  0
 13 15  1  6  0  0  0
 15 16  1  0  0  0  0
M  CHG  1   3  -1
M  END
>  <CHROM.1>
-174.73445753,173.20319503,64.88033842,30.65988083,4.68684628,8.53484235
-0.88752230,0.47439466,0.46905614

>  <Name>
ligand

>  <RI>
0

>  <Rbt.Current_Directory>
/home/itssahil/PROJECTS/Mol_Feturizer/New_Systems/rnas/3B4B

>  <Rbt.Executable>
rbdock ($Id: //depot/dev/client3/rdock/2013.1/src/exe/rbdock.cxx#4 $)

>  <Rbt.Library>
libRbt.so (2013.1, Build901 2013/11/27)

>  <Rbt.Parameter_File>
/export/apps/rDock/src/rDock_2013.1_src/data/scripts/dock_solv.prm

>  <Rbt.Receptor>
prm/blind_docking_100.prm

>  <SCORE>
-9.57411

>  <SCORE.INTER>
-7.95668

>  <SCORE.INTER.CONST>
1

>  <SCORE.INTER.POLAR>
0

>  <SCORE.INTER.ROT>
3

>  <SCORE.INTER.SOLV>
15.2361

>  <SCORE.INTER.VDW>
-15.9831

>  <SCORE.INTER.norm>
-0.497292

>  <SCORE.INTRA>
-1.62519

>  <SCORE.INTRA.DIHEDRAL>
-1.85173

>  <SCORE.INTRA.DIHEDRAL.0>
2.21864

>  <SCORE.INTRA.POLAR>
0

>  <SCORE.INTRA.POLAR.0>
0

>  <SCORE.INTRA.REPUL>
0

>  <SCORE.INTRA.REPUL.0>
0

>  <SCORE.INTRA.SOLV>
-1.14311

>  <SCORE.INTRA.SOLV.lig_0>
-58.5963

>  <SCORE.INTRA.VDW>
-0.127772

>  <SCORE.INTRA.VDW.0>
-0.437849

>  <SCORE.INTRA.norm>
-0.101575

>  <SCORE.RESTR>
0.00775666

>  <SCORE.RESTR.CAVITY>
0.00775666

>  <SCORE.RESTR.norm>
0.000484792

>  <SCORE.SYSTEM>
0

>  <SCORE.SYSTEM.CONST>
0

>  <SCORE.SYSTEM.DIHEDRAL>
0

>  <SCORE.SYSTEM.SOLV>
0

>  <SCORE.SYSTEM.norm>
0

>  <SCORE.heavy>
16

>  <SCORE.norm>
-0.598382

>  <RMSD>
17.917

$$$$
ligand
 OpenBabel11021811463D
libRbt.so/2013.1/901 2013/11/27
 16 16  0  0  0  0  0  0  0  0999 V2000
   32.4928    3.0835    6.6833 P   0  0  2  0  0  0  0  0  0  0  0  0
   33.9201    3.2889    6.3343 O   0  0  0  0  0  0  0  0  0  0  0  0
   32.2712    1.6065    7.2836 O   0  5  0  0  0  0  0  0  0  0  0  0
   31.5912    3.2373    5.3463 O   0  0  0  0  0  0  0  0  0  0  0  0
   30.3098    7.2922    9.9255 C   0  0  2  0  0  0  0  0  0  0  0  0
   31.1055    6.9998   11.0834 O   0  0  0  0  0  0  0  0  0  0  0  0
   28.7899    7.2457   10.2501 C   0  0  2  0  0  0  0  0  0  0  0  0
   28.4791    8.2079   11.3302 N   0  0  0  0  0  0  0  0  0  0  0  0
   28.4249    5.8134   10.6942 C   0  0  1  0  0  0  0  0  0  0  0  0
   27.0189    5.7264   10.9851 O   0  0  0  0  0  0  0  0  0  0  0  0
   28.7758    4.8549    9.5469 C   0  0  2  0  0  0  0  0  0  0  0  0
   28.4622    3.5097    9.9342 O   0  0  0  0  0  0  0  0  0  0  0  0
   30.2949    4.9767    9.2553 C   0  0  2  0  0  0  0  0  0  0  0  0
   30.6267    6.3416    8.8692 O   0  0  0  0  0  0  0  0  0  0  0  0
   30.6735    4.0348    8.0991 C   0  0  0  0  0  0  0  0  0  0  0  0
   32.0734    4.1769    7.7963 O   0  0  0  0  0  0  0  0  0  0  0  0
  1  2  1  6  0  0  0
  1  3  1  0  0  0  0
  1  4  2  0  0  0  0
  1 16  1  0  0  0  0
  5  6  1  1  0  0  0
  5  7  1  0  0  0  0
  5 14  1  0  0  0  0
  7  8  1  1  0  0  0
  7  9  1  0  0  0  0
  9 10  1  6  0  0  0
  9 11  1  0  0  0  0
 11 12  1  1  0  0  0
 11 13  1  0  0  0  0
 13 14  1  0  0  0  0
 13 15  1  6  0  0  0
 15 16  1  0  0  0  0
M  CHG  1   3  -1
M  END
>  <CHROM.1>
178.13240654,174.48745111,177.20167188,30.53206652,4.83221819,8.75877390
-0.87872654,0.46570970,0.48834725

>  <Name>
ligand

>  <RI>
0

>  <Rbt.Current_Directory>
/home/itssahil/PROJECTS/Mol_Feturizer/New_Systems/rnas/3B4B

>  <Rbt.Executable>
rbdock ($Id: //depot/dev/client3/rdock/2013.1/src/exe/rbdock.cxx#4 $)

>  <Rbt.Library>
libRbt.so (2013.1, Build901 2013/11/27)

>  <Rbt.Parameter_File>
/export/apps/rDock/src/rDock_2013.1_src/data/scripts/dock_solv.prm

>  <Rbt.Receptor>
prm/blind_docking_80.prm

>  <SCORE>
-10.7467

>  <SCORE.INTER>
-9.23781

>  <SCORE.INTER.CONST>
1

>  <SCORE.INTER.POLAR>
0

>  <SCORE.INTER.ROT>
3

>  <SCORE.INTER.SOLV>
13.5805

>  <SCORE.INTER.VDW>
-16.2854

>  <SCORE.INTER.norm>
-0.577363

>  <SCORE.INTRA>
-1.50893

>  <SCORE.INTRA.DIHEDRAL>
-2.04479

>  <SCORE.INTRA.DIHEDRAL.0>
2.21864

>  <SCORE.INTRA.POLAR>
0

>  <SCORE.INTRA.POLAR.0>
0

>  <SCORE.INTRA.REPUL>
0

>  <SCORE.INTRA.REPUL.0>
0

>  <SCORE.INTRA.SOLV>
-0.513032

>  <SCORE.INTRA.SOLV.lig_0>
-58.5963

>  <SCORE.INTRA.VDW>
-0.230015

>  <SCORE.INTRA.VDW.0>
-0.437849

>  <SCORE.INTRA.norm>
-0.094308

>  <SCORE.RESTR>
0

>  <SCORE.RESTR.CAVITY>
0

>  <SCORE.RESTR.norm>
0

>  <SCORE.SYSTEM>
0

>  <SCORE.SYSTEM.CONST>
0

>  <SCORE.SYSTEM.DIHEDRAL>
0

>  <SCORE.SYSTEM.SOLV>
0

>  <SCORE.SYSTEM.norm>
0

>  <SCORE.heavy>
16

>  <SCORE.norm>
-0.671671

>  <RMSD>
17.927

$$$$
ligand
 OpenBabel11021811463D
libRbt.so/2013.1/901 2013/11/27
 16 16  0  0  0  0  0  0  0  0999 V2000
   32.9100    2.2823    6.0684 P   0  0  2  0  0  0  0  0  0  0  0  0
   33.4710    3.4454    5.3380 O   0  0  0  0  0  0  0  0  0  0  0  0
   33.9553    1.7608    7.1759 O   0  5  0  0  0  0  0  0  0  0  0  0
   32.6286    1.0808    5.0188 O   0  0  0  0  0  0  0  0  0  0  0  0
   28.9579    3.9800    9.9847 C   0  0  2  0  0  0  0  0  0  0  0  0
   27.8573    3.8094    9.0795 O   0  0  0  0  0  0  0  0  0  0  0  0
   29.0561    5.4454   10.4950 C   0  0  2  0  0  0  0  0  0  0  0  0
   27.7922    5.8290   11.1617 N   0  0  0  0  0  0  0  0  0  0  0  0
   29.3213    6.3702    9.2883 C   0  0  1  0  0  0  0  0  0  0  0  0
   29.4381    7.7358    9.7250 O   0  0  0  0  0  0  0  0  0  0  0  0
   30.6336    5.9251    8.6263 C   0  0  2  0  0  0  0  0  0  0  0  0
   30.9021    6.7571    7.4889 O   0  0  0  0  0  0  0  0  0  0  0  0
   30.4764    4.4498    8.1723 C   0  0  2  0  0  0  0  0  0  0  0  0
   30.1946    3.5965    9.3188 O   0  0  0  0  0  0  0  0  0  0  0  0
   31.7832    3.9720    7.5155 C   0  0  0  0  0  0  0  0  0  0  0  0
   31.5468    2.7447    6.8018 O   0  0  0  0  0  0  0  0  0  0  0  0
  1  2  1  6  0  0  0
  1  3  1  0  0  0  0
  1  4  2  0  0  0  0
  1 16  1  0  0  0  0
  5  6  1  6  0  0  0
  5  7  1  0  0  0  0
  5 14  1  0  0  0  0
  7  8  1  6  0  0  0
  7  9  1  0  0  0  0
  9 10  1  1  0  0  0
  9 11  1  0  0  0  0
 11 12  1  6  0  0  0
 11 13  1  0  0  0  0
 13 14  1  0  0  0  0
 13 15  1  1  0  0  0
 15 16  1  0  0  0  0
M  CHG  1   3  -1
M  END
>  <CHROM.1>
-165.71253146,177.80392948,-48.60255277,30.88805627,4.13980139,7.99324771
0.62885944,-0.71990625,-3.06054464

>  <Name>
ligand

>  <RI>
0

>  <Rbt.Current_Directory>
/home/itssahil/PROJECTS/Mol_Feturizer/New_Systems/rnas/3B4B

>  <Rbt.Executable>
rbdock ($Id: //depot/dev/client3/rdock/2013.1/src/exe/rbdock.cxx#4 $)

>  <Rbt.Library>
libRbt.so (2013.1, Build901 2013/11/27)

>  <Rbt.Parameter_File>
/export/apps/rDock/src/rDock_2013.1_src/data/scripts/dock_solv.prm

>  <Rbt.Receptor>
prm/blind_docking_80.prm

>  <SCORE>
-8.65821

>  <SCORE.INTER>
-7.47916

>  <SCORE.INTER.CONST>
1

>  <SCORE.INTER.POLAR>
0

>  <SCORE.INTER.ROT>
3

>  <SCORE.INTER.SOLV>
14.4845

>  <SCORE.INTER.VDW>
-15.4143

>  <SCORE.INTER.norm>
-0.467448

>  <SCORE.INTRA>
-1.17905

>  <SCORE.INTRA.DIHEDRAL>
-1.27716

>  <SCORE.INTRA.DIHEDRAL.0>
2.21864

>  <SCORE.INTRA.POLAR>
0

>  <SCORE.INTRA.POLAR.0>
0

>  <SCORE.INTRA.REPUL>
0

>  <SCORE.INTRA.REPUL.0>
0

>  <SCORE.INTRA.SOLV>
-1.32588

>  <SCORE.INTRA.SOLV.lig_0>
-58.5963

>  <SCORE.INTRA.VDW>
0.122467

>  <SCORE.INTRA.VDW.0>
-0.437849

>  <SCORE.INTRA.norm>
-0.0736907

>  <SCORE.RESTR>
0

>  <SCORE.RESTR.CAVITY>
0

>  <SCORE.RESTR.norm>
0

>  <SCORE.SYSTEM>
0

>  <SCORE.SYSTEM.CONST>
0

>  <SCORE.SYSTEM.DIHEDRAL>
0

>  <SCORE.SYSTEM.SOLV>
0

>  <SCORE.SYSTEM.norm>
0

>  <SCORE.heavy>
16

>  <SCORE.norm>
-0.541138

>  <RMSD>
17.929

$$$$
ligand
 OpenBabel11021811463D
libRbt.so/2013.1/901 2013/11/27
 16 16  0  0  0  0  0  0  0  0999 V2000
   32.9056    2.2674    6.0789 P   0  0  2  0  0  0  0  0  0  0  0  0
   33.4641    3.4266    5.3403 O   0  0  0  0  0  0  0  0  0  0  0  0
   33.9535    1.7533    7.1873 O   0  5  0  0  0  0  0  0  0  0  0  0
   32.6228    1.0596    5.0371 O   0  0  0  0  0  0  0  0  0  0  0  0
   28.9452    3.9736    9.9757 C   0  0  2  0  0  0  0  0  0  0  0  0
   27.8472    3.8178    9.0647 O   0  0  0  0  0  0  0  0  0  0  0  0
   29.0515    5.4344   10.4978 C   0  0  2  0  0  0  0  0  0  0  0  0
   27.7875    5.8216   11.1623 N   0  0  0  0  0  0  0  0  0  0  0  0
   29.3281    6.3666    9.2994 C   0  0  1  0  0  0  0  0  0  0  0  0
   29.4526    7.7280    9.7472 O   0  0  0  0  0  0  0  0  0  0  0  0
   30.6400    5.9175    8.6394 C   0  0  2  0  0  0  0  0  0  0  0  0
   30.9191    6.7563    7.5096 O   0  0  0  0  0  0  0  0  0  0  0  0
   30.4744    4.4469    8.1734 C   0  0  2  0  0  0  0  0  0  0  0  0
   30.1820    3.5867    9.3121 O   0  0  0  0  0  0  0  0  0  0  0  0
   31.7806    3.9651    7.5182 C   0  0  0  0  0  0  0  0  0  0  0  0
   31.5436    2.7333    6.8125 O   0  0  0  0  0  0  0  0  0  0  0  0
  1  2  1  6  0  0  0
  1  3  1  0  0  0  0
  1  4  2  0  0  0  0
  1 16  1  0  0  0  0
  5  6  1  6  0  0  0
  5  7  1  0  0  0  0
  5 14  1  0  0  0  0
  7  8  1  6  0  0  0
  7  9  1  0  0  0  0
  9 10  1  1  0  0  0
  9 11  1  0  0  0  0
 11 12  1  6  0  0  0
 11 13  1  0  0  0  0
 13 14  1  0  0  0  0
 13 15  1  1  0  0  0
 15 16  1  0  0  0  0
M  CHG  1   3  -1
M  END
>  <CHROM.1>
-166.65588864,177.72561692,-48.59894497,30.88622738,4.13117201,7.99978358
0.63855046,-0.71321530,-3.04908359

>  <Name>
ligand

>  <RI>
0

>  <Rbt.Current_Directory>
/home/itssahil/PROJECTS/Mol_Feturizer/New_Systems/rnas/3B4B

>  <Rbt.Executable>
rbdock ($Id: //depot/dev/client3/rdock/2013.1/src/exe/rbdock.cxx#4 $)

>  <Rbt.Library>
libRbt.so (2013.1, Build901 2013/11/27)

>  <Rbt.Parameter_File>
/export/apps/rDock/src/rDock_2013.1_src/data/scripts/dock_solv.prm

>  <Rbt.Receptor>
prm/blind_docking_40.prm

>  <SCORE>
-8.66536

>  <SCORE.INTER>
-7.44586

>  <SCORE.INTER.CONST>
1

>  <SCORE.INTER.POLAR>
0

>  <SCORE.INTER.ROT>
3

>  <SCORE.INTER.SOLV>
14.4691

>  <SCORE.INTER.VDW>
-15.3869

>  <SCORE.INTER.norm>
-0.465367

>  <SCORE.INTRA>
-1.2195

>  <SCORE.INTRA.DIHEDRAL>
-1.3617

>  <SCORE.INTRA.DIHEDRAL.0>
2.21864

>  <SCORE.INTRA.POLAR>
0

>  <SCORE.INTRA.POLAR.0>
0

>  <SCORE.INTRA.REPUL>
0

>  <SCORE.INTRA.REPUL.0>
0

>  <SCORE.INTRA.SOLV>
-1.3234

>  <SCORE.INTRA.SOLV.lig_0>
-58.5963

>  <SCORE.INTRA.VDW>
0.123056

>  <SCORE.INTRA.VDW.0>
-0.437849

>  <SCORE.INTRA.norm>
-0.0762186

>  <SCORE.RESTR>
0

>  <SCORE.RESTR.CAVITY>
0

>  <SCORE.RESTR.norm>
0

>  <SCORE.SYSTEM>
0

>  <SCORE.SYSTEM.CONST>
0

>  <SCORE.SYSTEM.DIHEDRAL>
0

>  <SCORE.SYSTEM.SOLV>
0

>  <SCORE.SYSTEM.norm>
0

>  <SCORE.heavy>
16

>  <SCORE.norm>
-0.541585

>  <RMSD>
17.934

$$$$
ligand
 OpenBabel11021811463D
libRbt.so/2013.1/901 2013/11/27
 16 16  0  0  0  0  0  0  0  0999 V2000
   32.9008    2.2661    6.0795 P   0  0  2  0  0  0  0  0  0  0  0  0
   33.4630    3.4226    5.3396 O   0  0  0  0  0  0  0  0  0  0  0  0
   33.9461    1.7516    7.1901 O   0  5  0  0  0  0  0  0  0  0  0  0
   32.6165    1.0571    5.0396 O   0  0  0  0  0  0  0  0  0  0  0  0
   28.9311    3.9714    9.9664 C   0  0  2  0  0  0  0  0  0  0  0  0
   27.8376    3.8346    9.0471 O   0  0  0  0  0  0  0  0  0  0  0  0
   29.0474    5.4259   10.5037 C   0  0  2  0  0  0  0  0  0  0  0  0
   27.7828    5.8181   11.1640 N   0  0  0  0  0  0  0  0  0  0  0  0
   29.3401    6.3673    9.3163 C   0  0  1  0  0  0  0  0  0  0  0  0
   29.4741    7.7230    9.7783 O   0  0  0  0  0  0  0  0  0  0  0  0
   30.6520    5.9128    8.6601 C   0  0  2  0  0  0  0  0  0  0  0  0
   30.9458    6.7600    7.5404 O   0  0  0  0  0  0  0  0  0  0  0  0
   30.4760    4.4483    8.1784 C   0  0  2  0  0  0  0  0  0  0  0  0
   30.1685    3.5797    9.3067 O   0  0  0  0  0  0  0  0  0  0  0  0
   31.7818    3.9611    7.5267 C   0  0  0  0  0  0  0  0  0  0  0  0
   31.5389    2.7365    6.8105 O   0  0  0  0  0  0  0  0  0  0  0  0
  1  2  1  6  0  0  0
  1  3  1  0  0  0  0
  1  4  2  0  0  0  0
  1 16  1  0  0  0  0
  5  6  1  6  0  0  0
  5  7  1  0  0  0  0
  5 14  1  0  0  0  0
  7  8  1  6  0  0  0
  7  9  1  0  0  0  0
  9 10  1  1  0  0  0
  9 11  1  0  0  0  0
 11 12  1  6  0  0  0
 11 13  1  0  0  0  0
 13 14  1  0  0  0  0
 13 15  1  1  0  0  0
 15 16  1  0  0  0  0
M  CHG  1   3  -1
M  END
>  <CHROM.1>
-166.82125694,177.66759319,-49.23951815,30.88617504,4.13013775,8.00507994
0.64994830,-0.70564006,-3.03195049

>  <Name>
ligand

>  <RI>
0

>  <Rbt.Current_Directory>
/home/itssahil/PROJECTS/Mol_Feturizer/New_Systems/rnas/3B4B

>  <Rbt.Executable>
rbdock ($Id: //depot/dev/client3/rdock/2013.1/src/exe/rbdock.cxx#4 $)

>  <Rbt.Library>
libRbt.so (2013.1, Build901 2013/11/27)

>  <Rbt.Parameter_File>
/export/apps/rDock/src/rDock_2013.1_src/data/scripts/dock_solv.prm

>  <Rbt.Receptor>
prm/blind_docking_40.prm

>  <SCORE>
-8.66836

>  <SCORE.INTER>
-7.41812

>  <SCORE.INTER.CONST>
1

>  <SCORE.INTER.POLAR>
0

>  <SCORE.INTER.ROT>
3

>  <SCORE.INTER.SOLV>
14.4592

>  <SCORE.INTER.VDW>
-15.3651

>  <SCORE.INTER.norm>
-0.463633

>  <SCORE.INTRA>
-1.25023

>  <SCORE.INTRA.DIHEDRAL>
-1.39725

>  <SCORE.INTRA.DIHEDRAL.0>
2.21864

>  <SCORE.INTRA.POLAR>
0

>  <SCORE.INTRA.POLAR.0>
0

>  <SCORE.INTRA.REPUL>
0

>  <SCORE.INTRA.REPUL.0>
0

>  <SCORE.INTRA.SOLV>
-1.3173

>  <SCORE.INTRA.SOLV.lig_0>
-58.5963

>  <SCORE.INTRA.VDW>
0.107042

>  <SCORE.INTRA.VDW.0>
-0.437849

>  <SCORE.INTRA.norm>
-0.0781395

>  <SCORE.RESTR>
0

>  <SCORE.RESTR.CAVITY>
0

>  <SCORE.RESTR.norm>
0

>  <SCORE.SYSTEM>
0

>  <SCORE.SYSTEM.CONST>
0

>  <SCORE.SYSTEM.DIHEDRAL>
0

>  <SCORE.SYSTEM.SOLV>
0

>  <SCORE.SYSTEM.norm>
0

>  <SCORE.heavy>
16

>  <SCORE.norm>
-0.541772

>  <RMSD>
17.934

$$$$
ligand
 OpenBabel11021811463D
libRbt.so/2013.1/901 2013/11/27
 16 16  0  0  0  0  0  0  0  0999 V2000
   32.9486    2.1729    6.1823 P   0  0  2  0  0  0  0  0  0  0  0  0
   34.2316    2.7154    6.6929 O   0  0  0  0  0  0  0  0  0  0  0  0
   33.0311    0.5705    6.0537 O   0  5  0  0  0  0  0  0  0  0  0  0
   32.6555    2.7936    4.7150 O   0  0  0  0  0  0  0  0  0  0  0  0
   29.3241    4.1401   10.2586 C   0  0  2  0  0  0  0  0  0  0  0  0
   28.1694    3.5856    9.6114 O   0  0  0  0  0  0  0  0  0  0  0  0
   29.2024    5.6815   10.4221 C   0  0  2  0  0  0  0  0  0  0  0  0
   27.9856    6.0081   11.1978 N   0  0  0  0  0  0  0  0  0  0  0  0
   29.1250    6.3208    9.0195 C   0  0  1  0  0  0  0  0  0  0  0  0
   29.0311    7.7519    9.1301 O   0  0  0  0  0  0  0  0  0  0  0  0
   30.4014    5.9441    8.2532 C   0  0  2  0  0  0  0  0  0  0  0  0
   30.3541    6.5115    6.9364 O   0  0  0  0  0  0  0  0  0  0  0  0
   30.4749    4.3973    8.1561 C   0  0  2  0  0  0  0  0  0  0  0  0
   30.5146    3.8095    9.4884 O   0  0  0  0  0  0  0  0  0  0  0  0
   31.7530    3.9897    7.4025 C   0  0  0  0  0  0  0  0  0  0  0  0
   31.7756    2.5619    7.2230 O   0  0  0  0  0  0  0  0  0  0  0  0
  1  2  1  1  0  0  0
  1  3  1  0  0  0  0
  1  4  2  0  0  0  0
  1 16  1  0  0  0  0
  5  6  1  6  0  0  0
  5  7  1  0  0  0  0
  5 14  1  0  0  0  0
  7  8  1  1  0  0  0
  7  9  1  0  0  0  0
  9 10  1  1  0  0  0
  9 11  1  0  0  0  0
 11 12  1  6  0  0  0
 11 13  1  0  0  0  0
 13 14  1  0  0  0  0
 13 15  1  6  0  0  0
 15 16  1  0  0  0  0
M  CHG  1   3  -1
M  END
>  <CHROM.1>
-175.75177018,168.55835574,56.24021593,30.89147266,4.11346176,7.97327885
0.35045812,-0.85937895,2.79071165

>  <Name>
ligand

>  <RI>
0

>  <Rbt.Current_Directory>
/home/itssahil/PROJECTS/Mol_Feturizer/New_Systems/rnas/3B4B

>  <Rbt.Executable>
rbdock ($Id: //depot/dev/client3/rdock/2013.1/src/exe/rbdock.cxx#4 $)

>  <Rbt.Library>
libRbt.so (2013.1, Build901 2013/11/27)

>  <Rbt.Parameter_File>
/export/apps/rDock/src/rDock_2013.1_src/data/scripts/dock_solv.prm

>  <Rbt.Receptor>
prm/blind_docking_100.prm

>  <SCORE>
-8.92821

>  <SCORE.INTER>
-7.52286

>  <SCORE.INTER.CONST>
1

>  <SCORE.INTER.POLAR>
0

>  <SCORE.INTER.ROT>
3

>  <SCORE.INTER.SOLV>
13.82

>  <SCORE.INTER.VDW>
-15.2219

>  <SCORE.INTER.norm>
-0.470179

>  <SCORE.INTRA>
-1.40535

>  <SCORE.INTRA.DIHEDRAL>
-1.50344

>  <SCORE.INTRA.DIHEDRAL.0>
2.21864

>  <SCORE.INTRA.POLAR>
0

>  <SCORE.INTRA.POLAR.0>
0

>  <SCORE.INTRA.REPUL>
0

>  <SCORE.INTRA.REPUL.0>
0

>  <SCORE.INTRA.SOLV>
-1.21086

>  <SCORE.INTRA.SOLV.lig_0>
-58.5963

>  <SCORE.INTRA.VDW>
-0.0481978

>  <SCORE.INTRA.VDW.0>
-0.437849

>  <SCORE.INTRA.norm>
-0.0878342

>  <SCORE.RESTR>
0

>  <SCORE.RESTR.CAVITY>
0

>  <SCORE.RESTR.norm>
0

>  <SCORE.SYSTEM>
0

>  <SCORE.SYSTEM.CONST>
0

>  <SCORE.SYSTEM.DIHEDRAL>
0

>  <SCORE.SYSTEM.SOLV>
0

>  <SCORE.SYSTEM.norm>
0

>  <SCORE.heavy>
16

>  <SCORE.norm>
-0.558013

>  <RMSD>
17.937

$$$$
ligand
 OpenBabel11021811463D
libRbt.so/2013.1/901 2013/11/27
 16 16  0  0  0  0  0  0  0  0999 V2000
   30.0344   10.0763   10.4317 P   0  0  2  0  0  0  0  0  0  0  0  0
   29.1984   11.1582   11.0074 O   0  0  0  0  0  0  0  0  0  0  0  0
   31.5442   10.5912   10.2159 O   0  5  0  0  0  0  0  0  0  0  0  0
   29.4269    9.6431    8.9938 O   0  0  0  0  0  0  0  0  0  0  0  0
   30.5383    5.1129    8.4038 C   0  0  2  0  0  0  0  0  0  0  0  0
   29.9186    5.8760    7.3582 O   0  0  0  0  0  0  0  0  0  0  0  0
   29.5096    4.2043    9.1344 C   0  0  2  0  0  0  0  0  0  0  0  0
   28.8656    3.2945    8.1614 N   0  0  0  0  0  0  0  0  0  0  0  0
   28.4480    5.1022    9.8042 C   0  0  1  0  0  0  0  0  0  0  0  0
   27.4874    4.2955   10.5083 O   0  0  0  0  0  0  0  0  0  0  0  0
   29.1660    6.0322   10.7930 C   0  0  2  0  0  0  0  0  0  0  0  0
   28.2068    6.8930   11.4232 O   0  0  0  0  0  0  0  0  0  0  0  0
   30.1963    6.8829   10.0042 C   0  0  2  0  0  0  0  0  0  0  0  0
   31.1709    6.0183    9.3524 O   0  0  0  0  0  0  0  0  0  0  0  0
   30.9412    7.8172   10.9735 C   0  0  0  0  0  0  0  0  0  0  0  0
   30.0410    8.8297   11.4593 O   0  0  0  0  0  0  0  0  0  0  0  0
  1  2  1  1  0  0  0
  1  3  1  0  0  0  0
  1  4  2  0  0  0  0
  1 16  1  0  0  0  0
  5  6  1  6  0  0  0
  5  7  1  0  0  0  0
  5 14  1  0  0  0  0
  7  8  1  6  0  0  0
  7  9  1  0  0  0  0
  9 10  1  1  0  0  0
  9 11  1  0  0  0  0
 11 12  1  6  0  0  0
 11 13  1  0  0  0  0
 13 14  1  0  0  0  0
 13 15  1  1  0  0  0
 15 16  1  0  0  0  0
M  CHG  1   3  -1
M  END
>  <CHROM.1>
-69.28659968,-87.05989716,-174.96938507,29.69219459,7.28530807,9.92920098
-1.31762428,-0.79326148,-2.71061968

>  <Name>
ligand

>  <RI>
0

>  <Rbt.Current_Directory>
/home/itssahil/PROJECTS/Mol_Feturizer/New_Systems/rnas/3B4B

>  <Rbt.Executable>
rbdock ($Id: //depot/dev/client3/rdock/2013.1/src/exe/rbdock.cxx#4 $)

>  <Rbt.Library>
libRbt.so (2013.1, Build901 2013/11/27)

>  <Rbt.Parameter_File>
/export/apps/rDock/src/rDock_2013.1_src/data/scripts/dock_solv.prm

>  <Rbt.Receptor>
prm/blind_docking_60.prm

>  <SCORE>
-6.75079

>  <SCORE.INTER>
-8.03214

>  <SCORE.INTER.CONST>
1

>  <SCORE.INTER.POLAR>
0

>  <SCORE.INTER.ROT>
3

>  <SCORE.INTER.SOLV>
12.6567

>  <SCORE.INTER.VDW>
-15.1737

>  <SCORE.INTER.norm>
-0.502009

>  <SCORE.INTRA>
1.28135

>  <SCORE.INTRA.DIHEDRAL>
1.17734

>  <SCORE.INTRA.DIHEDRAL.0>
2.21864

>  <SCORE.INTRA.POLAR>
0

>  <SCORE.INTRA.POLAR.0>
0

>  <SCORE.INTRA.REPUL>
0

>  <SCORE.INTRA.REPUL.0>
0

>  <SCORE.INTRA.SOLV>
2.34839

>  <SCORE.INTRA.SOLV.lig_0>
-58.5963

>  <SCORE.INTRA.VDW>
-0.481521

>  <SCORE.INTRA.VDW.0>
-0.437849

>  <SCORE.INTRA.norm>
0.0800843

>  <SCORE.RESTR>
0

>  <SCORE.RESTR.CAVITY>
0

>  <SCORE.RESTR.norm>
0

>  <SCORE.SYSTEM>
0

>  <SCORE.SYSTEM.CONST>
0

>  <SCORE.SYSTEM.DIHEDRAL>
0

>  <SCORE.SYSTEM.SOLV>
0

>  <SCORE.SYSTEM.norm>
0

>  <SCORE.heavy>
16

>  <SCORE.norm>
-0.421924

>  <RMSD>
17.941

$$$$
ligand
 OpenBabel11021811463D
libRbt.so/2013.1/901 2013/11/27
 16 16  0  0  0  0  0  0  0  0999 V2000
   32.5176    3.0190    6.6684 P   0  0  2  0  0  0  0  0  0  0  0  0
   33.9539    3.2272    6.3605 O   0  0  0  0  0  0  0  0  0  0  0  0
   32.2716    1.5196    7.1998 O   0  5  0  0  0  0  0  0  0  0  0  0
   31.6477    3.2372    5.3194 O   0  0  0  0  0  0  0  0  0  0  0  0
   30.2937    7.1186   10.0358 C   0  0  2  0  0  0  0  0  0  0  0  0
   31.0470    6.7511   11.2007 O   0  0  0  0  0  0  0  0  0  0  0  0
   28.7636    7.0814   10.3096 C   0  0  2  0  0  0  0  0  0  0  0  0
   28.4333    7.9899   11.4297 N   0  0  0  0  0  0  0  0  0  0  0  0
   28.3620    5.6341   10.6643 C   0  0  1  0  0  0  0  0  0  0  0  0
   26.9461    5.5562   10.9059 O   0  0  0  0  0  0  0  0  0  0  0  0
   28.7346    4.7321    9.4786 C   0  0  2  0  0  0  0  0  0  0  0  0
   28.3875    3.3738    9.7829 O   0  0  0  0  0  0  0  0  0  0  0  0
   30.2640    4.8428    9.2417 C   0  0  2  0  0  0  0  0  0  0  0  0
   30.6295    6.2203    8.9403 O   0  0  0  0  0  0  0  0  0  0  0  0
   30.6648    3.9574    8.0489 C   0  0  0  0  0  0  0  0  0  0  0  0
   32.0811    4.0674    7.8175 O   0  0  0  0  0  0  0  0  0  0  0  0
  1  2  1  6  0  0  0
  1  3  1  0  0  0  0
  1  4  2  0  0  0  0
  1 16  1  0  0  0  0
  5  6  1  1  0  0  0
  5  7  1  0  0  0  0
  5 14  1  0  0  0  0
  7  8  1  1  0  0  0
  7  9  1  0  0  0  0
  9 10  1  6  0  0  0
  9 11  1  0  0  0  0
 11 12  1  1  0  0  0
 11 13  1  0  0  0  0
 13 14  1  0  0  0  0
 13 15  1  6  0  0  0
 15 16  1  0  0  0  0
M  CHG  1   3  -1
M  END
>  <CHROM.1>
179.43842416,174.06116034,175.17040527,30.51629971,4.70861731,8.75600044
-0.87908377,0.42498893,0.53730112

>  <Name>
ligand

>  <RI>
0

>  <Rbt.Current_Directory>
/home/itssahil/PROJECTS/Mol_Feturizer/New_Systems/rnas/3B4B

>  <Rbt.Executable>
rbdock ($Id: //depot/dev/client3/rdock/2013.1/src/exe/rbdock.cxx#4 $)

>  <Rbt.Library>
libRbt.so (2013.1, Build901 2013/11/27)

>  <Rbt.Parameter_File>
/export/apps/rDock/src/rDock_2013.1_src/data/scripts/dock_solv.prm

>  <Rbt.Receptor>
prm/blind_docking_40.prm

>  <SCORE>
-10.8321

>  <SCORE.INTER>
-9.33672

>  <SCORE.INTER.CONST>
1

>  <SCORE.INTER.POLAR>
0

>  <SCORE.INTER.ROT>
3

>  <SCORE.INTER.SOLV>
14.489

>  <SCORE.INTER.VDW>
-16.6542

>  <SCORE.INTER.norm>
-0.583545

>  <SCORE.INTRA>
-1.49535

>  <SCORE.INTRA.DIHEDRAL>
-2.00761

>  <SCORE.INTRA.DIHEDRAL.0>
2.21864

>  <SCORE.INTRA.POLAR>
0

>  <SCORE.INTRA.POLAR.0>
0

>  <SCORE.INTRA.REPUL>
0

>  <SCORE.INTRA.REPUL.0>
0

>  <SCORE.INTRA.SOLV>
-0.519085

>  <SCORE.INTRA.SOLV.lig_0>
-58.5963

>  <SCORE.INTRA.VDW>
-0.232

>  <SCORE.INTRA.VDW.0>
-0.437849

>  <SCORE.INTRA.norm>
-0.0934593

>  <SCORE.RESTR>
0

>  <SCORE.RESTR.CAVITY>
0

>  <SCORE.RESTR.norm>
0

>  <SCORE.SYSTEM>
0

>  <SCORE.SYSTEM.CONST>
0

>  <SCORE.SYSTEM.DIHEDRAL>
0

>  <SCORE.SYSTEM.SOLV>
0

>  <SCORE.SYSTEM.norm>
0

>  <SCORE.heavy>
16

>  <SCORE.norm>
-0.677004

>  <RMSD>
17.981

$$$$
ligand
 OpenBabel11021811463D
libRbt.so/2013.1/901 2013/11/27
 16 16  0  0  0  0  0  0  0  0999 V2000
   31.8953    3.0930    7.0586 P   0  0  2  0  0  0  0  0  0  0  0  0
   31.8181    1.8628    7.8843 O   0  0  0  0  0  0  0  0  0  0  0  0
   30.7986    3.0457    5.8814 O   0  5  0  0  0  0  0  0  0  0  0  0
   33.3669    3.1921    6.3887 O   0  0  0  0  0  0  0  0  0  0  0  0
   30.1819    7.7740    9.8383 C   0  0  2  0  0  0  0  0  0  0  0  0
   31.0844    7.6537   10.9476 O   0  0  0  0  0  0  0  0  0  0  0  0
   28.7020    7.8429   10.3106 C   0  0  2  0  0  0  0  0  0  0  0  0
   28.5232    8.9874   11.2311 N   0  0  0  0  0  0  0  0  0  0  0  0
   28.3531    6.5233   11.0307 C   0  0  1  0  0  0  0  0  0  0  0  0
   26.9822    6.5422   11.4660 O   0  0  0  0  0  0  0  0  0  0  0  0
   28.5650    5.3694   10.0398 C   0  0  2  0  0  0  0  0  0  0  0  0
   28.2632    4.1237   10.6841 O   0  0  0  0  0  0  0  0  0  0  0  0
   30.0490    5.3802    9.5869 C   0  0  2  0  0  0  0  0  0  0  0  0
   30.3694    6.6447    8.9386 O   0  0  0  0  0  0  0  0  0  0  0  0
   30.2880    4.2400    8.5818 C   0  0  0  0  0  0  0  0  0  0  0  0
   31.6012    4.3676    8.0068 O   0  0  0  0  0  0  0  0  0  0  0  0
  1  2  1  1  0  0  0
  1  3  1  0  0  0  0
  1  4  2  0  0  0  0
  1 16  1  0  0  0  0
  5  6  1  1  0  0  0
  5  7  1  0  0  0  0
  5 14  1  0  0  0  0
  7  8  1  1  0  0  0
  7  9  1  0  0  0  0
  9 10  1  6  0  0  0
  9 11  1  0  0  0  0
 11 12  1  1  0  0  0
 11 13  1  0  0  0  0
 13 14  1  0  0  0  0
 13 15  1  6  0  0  0
 15 16  1  0  0  0  0
M  CHG  1   3  -1
M  END
>  <CHROM.1>
171.35253847,174.77909845,-59.91484180,30.22445643,5.18945563,9.04761342
-0.95030026,0.55406388,0.37957150

>  <Name>
ligand

>  <RI>
0

>  <Rbt.Current_Directory>
/home/itssahil/PROJECTS/Mol_Feturizer/New_Systems/rnas/3B4B

>  <Rbt.Executable>
rbdock ($Id: //depot/dev/client3/rdock/2013.1/src/exe/rbdock.cxx#4 $)

>  <Rbt.Library>
libRbt.so (2013.1, Build901 2013/11/27)

>  <Rbt.Parameter_File>
/export/apps/rDock/src/rDock_2013.1_src/data/scripts/dock_solv.prm

>  <Rbt.Receptor>
prm/blind_docking_100.prm

>  <SCORE>
-9.29011

>  <SCORE.INTER>
-7.80347

>  <SCORE.INTER.CONST>
1

>  <SCORE.INTER.POLAR>
0

>  <SCORE.INTER.ROT>
3

>  <SCORE.INTER.SOLV>
12.6613

>  <SCORE.INTER.VDW>
-15.0227

>  <SCORE.INTER.norm>
-0.487717

>  <SCORE.INTRA>
-1.48926

>  <SCORE.INTRA.DIHEDRAL>
-1.81964

>  <SCORE.INTRA.DIHEDRAL.0>
2.21864

>  <SCORE.INTRA.POLAR>
0

>  <SCORE.INTRA.POLAR.0>
0

>  <SCORE.INTRA.REPUL>
0

>  <SCORE.INTRA.REPUL.0>
0

>  <SCORE.INTRA.SOLV>
-1.15929

>  <SCORE.INTRA.SOLV.lig_0>
-58.5963

>  <SCORE.INTRA.VDW>
0.000204177

>  <SCORE.INTRA.VDW.0>
-0.437849

>  <SCORE.INTRA.norm>
-0.0930788

>  <SCORE.RESTR>
0.00262143

>  <SCORE.RESTR.CAVITY>
0.00262143

>  <SCORE.RESTR.norm>
0.000163839

>  <SCORE.SYSTEM>
0

>  <SCORE.SYSTEM.CONST>
0

>  <SCORE.SYSTEM.DIHEDRAL>
0

>  <SCORE.SYSTEM.SOLV>
0

>  <SCORE.SYSTEM.norm>
0

>  <SCORE.heavy>
16

>  <SCORE.norm>
-0.580632

>  <RMSD>
18.046

$$$$
ligand
 OpenBabel11021811463D
libRbt.so/2013.1/901 2013/11/27
 16 16  0  0  0  0  0  0  0  0999 V2000
   32.4680    1.4700    7.2631 P   0  0  2  0  0  0  0  0  0  0  0  0
   33.3398    1.2198    8.4372 O   0  0  0  0  0  0  0  0  0  0  0  0
   32.0519    0.0784    6.5693 O   0  5  0  0  0  0  0  0  0  0  0  0
   33.2771    2.3639    6.1812 O   0  0  0  0  0  0  0  0  0  0  0  0
   28.7085    4.3551   10.5459 C   0  0  2  0  0  0  0  0  0  0  0  0
   27.5771    4.0860    9.7051 O   0  0  0  0  0  0  0  0  0  0  0  0
   28.9342    5.8827   10.7284 C   0  0  2  0  0  0  0  0  0  0  0  0
   27.7205    6.5027   11.3044 N   0  0  0  0  0  0  0  0  0  0  0  0
   29.2434    6.5029    9.3494 C   0  0  1  0  0  0  0  0  0  0  0  0
   29.4779    7.9160    9.4814 O   0  0  0  0  0  0  0  0  0  0  0  0
   30.5005    5.8201    8.7911 C   0  0  2  0  0  0  0  0  0  0  0  0
   30.8073    6.3644    7.4997 O   0  0  0  0  0  0  0  0  0  0  0  0
   30.2166    4.2998    8.6661 C   0  0  2  0  0  0  0  0  0  0  0  0
   29.8951    3.7377    9.9710 O   0  0  0  0  0  0  0  0  0  0  0  0
   31.4658    3.5868    8.1198 C   0  0  0  0  0  0  0  0  0  0  0  0
   31.1348    2.2315    7.7659 O   0  0  0  0  0  0  0  0  0  0  0  0
  1  2  1  1  0  0  0
  1  3  1  0  0  0  0
  1  4  2  0  0  0  0
  1 16  1  0  0  0  0
  5  6  1  6  0  0  0
  5  7  1  0  0  0  0
  5 14  1  0  0  0  0
  7  8  1  6  0  0  0
  7  9  1  0  0  0  0
  9 10  1  1  0  0  0
  9 11  1  0  0  0  0
 11 12  1  6  0  0  0
 11 13  1  0  0  0  0
 13 14  1  0  0  0  0
 13 15  1  1  0  0  0
 15 16  1  0  0  0  0
M  CHG  1   3  -1
M  END
>  <CHROM.1>
-169.27549469,-177.20088769,72.02566433,30.61423765,3.90548794,8.61926599
0.74109475,-0.71616670,3.05858722

>  <Name>
ligand

>  <RI>
0

>  <Rbt.Current_Directory>
/home/itssahil/PROJECTS/Mol_Feturizer/New_Systems/rnas/3B4B

>  <Rbt.Executable>
rbdock ($Id: //depot/dev/client3/rdock/2013.1/src/exe/rbdock.cxx#4 $)

>  <Rbt.Library>
libRbt.so (2013.1, Build901 2013/11/27)

>  <Rbt.Parameter_File>
/export/apps/rDock/src/rDock_2013.1_src/data/scripts/dock_solv.prm

>  <Rbt.Receptor>
prm/blind_docking_40.prm

>  <SCORE>
-8.28689

>  <SCORE.INTER>
-6.82866

>  <SCORE.INTER.CONST>
1

>  <SCORE.INTER.POLAR>
0

>  <SCORE.INTER.ROT>
3

>  <SCORE.INTER.SOLV>
14.6147

>  <SCORE.INTER.VDW>
-15.024

>  <SCORE.INTER.norm>
-0.426791

>  <SCORE.INTRA>
-1.45823

>  <SCORE.INTRA.DIHEDRAL>
-1.53934

>  <SCORE.INTRA.DIHEDRAL.0>
2.21864

>  <SCORE.INTRA.POLAR>
0

>  <SCORE.INTRA.POLAR.0>
0

>  <SCORE.INTRA.REPUL>
0

>  <SCORE.INTRA.REPUL.0>
0

>  <SCORE.INTRA.SOLV>
-1.08964

>  <SCORE.INTRA.SOLV.lig_0>
-58.5963

>  <SCORE.INTRA.VDW>
-0.143734

>  <SCORE.INTRA.VDW.0>
-0.437849

>  <SCORE.INTRA.norm>
-0.0911391

>  <SCORE.RESTR>
0

>  <SCORE.RESTR.CAVITY>
0

>  <SCORE.RESTR.norm>
0

>  <SCORE.SYSTEM>
0

>  <SCORE.SYSTEM.CONST>
0

>  <SCORE.SYSTEM.DIHEDRAL>
0

>  <SCORE.SYSTEM.SOLV>
0

>  <SCORE.SYSTEM.norm>
0

>  <SCORE.heavy>
16

>  <SCORE.norm>
-0.51793

>  <RMSD>
18.146

$$$$
ligand
 OpenBabel11021811463D
libRbt.so/2013.1/901 2013/11/27
 16 16  0  0  0  0  0  0  0  0999 V2000
   28.7463    9.2242   11.8129 P   0  0  2  0  0  0  0  0  0  0  0  0
   28.7606    8.7160   13.2067 O   0  0  0  0  0  0  0  0  0  0  0  0
   29.9386   10.2828   11.5917 O   0  5  0  0  0  0  0  0  0  0  0  0
   27.3358    9.9703   11.5335 O   0  0  0  0  0  0  0  0  0  0  0  0
   29.6834    3.9548    9.7559 C   0  0  2  0  0  0  0  0  0  0  0  0
   31.0097    3.4265    9.9029 O   0  0  0  0  0  0  0  0  0  0  0  0
   29.3449    4.2425    8.2659 C   0  0  2  0  0  0  0  0  0  0  0  0
   29.4830    3.0013    7.4725 N   0  0  0  0  0  0  0  0  0  0  0  0
   30.3168    5.3196    7.7394 C   0  0  1  0  0  0  0  0  0  0  0  0
   30.0211    5.6271    6.3656 O   0  0  0  0  0  0  0  0  0  0  0  0
   30.1433    6.5795    8.6001 C   0  0  2  0  0  0  0  0  0  0  0  0
   31.0457    7.5978    8.1455 O   0  0  0  0  0  0  0  0  0  0  0  0
   30.4641    6.2133   10.0733 C   0  0  2  0  0  0  0  0  0  0  0  0
   29.5589    5.1732   10.5432 O   0  0  0  0  0  0  0  0  0  0  0  0
   30.2859    7.4562   10.9625 C   0  0  0  0  0  0  0  0  0  0  0  0
   28.9525    7.9756   10.8085 O   0  0  0  0  0  0  0  0  0  0  0  0
  1  2  1  1  0  0  0
  1  3  1  0  0  0  0
  1  4  2  0  0  0  0
  1 16  1  0  0  0  0
  5  6  1  6  0  0  0
  5  7  1  0  0  0  0
  5 14  1  0  0  0  0
  7  8  1  6  0  0  0
  7  9  1  0  0  0  0
  9 10  1  6  0  0  0
  9 11  1  0  0  0  0
 11 12  1  6  0  0  0
 11 13  1  0  0  0  0
 13 14  1  0  0  0  0
 13 15  1  1  0  0  0
 15 16  1  0  0  0  0
M  CHG  1   3  -1
M  END
>  <CHROM.1>
56.40862955,176.54335478,-67.78750228,29.61637158,6.80345893,9.98157307,2.59454258
1.32987912,-0.37423062

>  <Name>
ligand

>  <RI>
0

>  <Rbt.Current_Directory>
/home/itssahil/PROJECTS/Mol_Feturizer/New_Systems/rnas/3B4B

>  <Rbt.Executable>
rbdock ($Id: //depot/dev/client3/rdock/2013.1/src/exe/rbdock.cxx#4 $)

>  <Rbt.Library>
libRbt.so (2013.1, Build901 2013/11/27)

>  <Rbt.Parameter_File>
/export/apps/rDock/src/rDock_2013.1_src/data/scripts/dock_solv.prm

>  <Rbt.Receptor>
prm/blind_docking_60.prm

>  <SCORE>
-9.59709

>  <SCORE.INTER>
-8.04033

>  <SCORE.INTER.CONST>
1

>  <SCORE.INTER.POLAR>
0

>  <SCORE.INTER.ROT>
3

>  <SCORE.INTER.SOLV>
14.6958

>  <SCORE.INTER.VDW>
-15.8588

>  <SCORE.INTER.norm>
-0.50252

>  <SCORE.INTRA>
-1.55676

>  <SCORE.INTRA.DIHEDRAL>
-2.0171

>  <SCORE.INTRA.DIHEDRAL.0>
2.21864

>  <SCORE.INTRA.POLAR>
0

>  <SCORE.INTRA.POLAR.0>
0

>  <SCORE.INTRA.REPUL>
0

>  <SCORE.INTRA.REPUL.0>
0

>  <SCORE.INTRA.SOLV>
-0.840287

>  <SCORE.INTRA.SOLV.lig_0>
-58.5963

>  <SCORE.INTRA.VDW>
-0.128068

>  <SCORE.INTRA.VDW.0>
-0.437849

>  <SCORE.INTRA.norm>
-0.0972977

>  <SCORE.RESTR>
0

>  <SCORE.RESTR.CAVITY>
0

>  <SCORE.RESTR.norm>
0

>  <SCORE.SYSTEM>
0

>  <SCORE.SYSTEM.CONST>
0

>  <SCORE.SYSTEM.DIHEDRAL>
0

>  <SCORE.SYSTEM.SOLV>
0

>  <SCORE.SYSTEM.norm>
0

>  <SCORE.heavy>
16

>  <SCORE.norm>
-0.599818

>  <RMSD>
18.147

$$$$
ligand
 OpenBabel11021811463D
libRbt.so/2013.1/901 2013/11/27
 16 16  0  0  0  0  0  0  0  0999 V2000
   30.0533    9.0333   10.8332 P   0  0  2  0  0  0  0  0  0  0  0  0
   29.4182    9.0194   12.1739 O   0  0  0  0  0  0  0  0  0  0  0  0
   30.7391   10.4627   10.5545 O   0  5  0  0  0  0  0  0  0  0  0  0
   28.9193    8.7768    9.7051 O   0  0  0  0  0  0  0  0  0  0  0  0
   30.7593    5.2217    7.5654 C   0  0  2  0  0  0  0  0  0  0  0  0
   29.9087    6.1642    6.8963 O   0  0  0  0  0  0  0  0  0  0  0  0
   30.0421    3.8595    7.7837 C   0  0  2  0  0  0  0  0  0  0  0  0
   29.6070    3.3084    6.4814 N   0  0  0  0  0  0  0  0  0  0  0  0
   28.8200    4.0876    8.6982 C   0  0  1  0  0  0  0  0  0  0  0  0
   28.1405    2.8428    8.9394 O   0  0  0  0  0  0  0  0  0  0  0  0
   29.3220    4.6687   10.0281 C   0  0  2  0  0  0  0  0  0  0  0  0
   28.2063    4.9073   10.8977 O   0  0  0  0  0  0  0  0  0  0  0  0
   30.0529    6.0051    9.7329 C   0  0  2  0  0  0  0  0  0  0  0  0
   31.1833    5.7761    8.8431 O   0  0  0  0  0  0  0  0  0  0  0  0
   30.5787    6.6050   11.0486 C   0  0  0  0  0  0  0  0  0  0  0  0
   31.1872    7.8834   10.7897 O   0  0  0  0  0  0  0  0  0  0  0  0
  1  2  1  1  0  0  0
  1  3  1  0  0  0  0
  1  4  2  0  0  0  0
  1 16  1  0  0  0  0
  5  6  1  1  0  0  0
  5  7  1  0  0  0  0
  5 14  1  0  0  0  0
  7  8  1  6  0  0  0
  7  9  1  0  0  0  0
  9 10  1  1  0  0  0
  9 11  1  0  0  0  0
 11 12  1  1  0  0  0
 11 13  1  0  0  0  0
 13 14  1  0  0  0  0
 13 15  1  1  0  0  0
 15 16  1  0  0  0  0
M  CHG  1   3  -1
M  END
>  <CHROM.1>
-176.58703072,86.72677574,59.28012003,29.81928616,6.43593183,9.56929339,-1.33230793
-1.00896438,-2.43032750

>  <Name>
ligand

>  <RI>
0

>  <Rbt.Current_Directory>
/home/itssahil/PROJECTS/Mol_Feturizer/New_Systems/rnas/3B4B

>  <Rbt.Executable>
rbdock ($Id: //depot/dev/client3/rdock/2013.1/src/exe/rbdock.cxx#4 $)

>  <Rbt.Library>
libRbt.so (2013.1, Build901 2013/11/27)

>  <Rbt.Parameter_File>
/export/apps/rDock/src/rDock_2013.1_src/data/scripts/dock_solv.prm

>  <Rbt.Receptor>
prm/blind_docking_60.prm

>  <SCORE>
-8.25449

>  <SCORE.INTER>
-8.72881

>  <SCORE.INTER.CONST>
1

>  <SCORE.INTER.POLAR>
0

>  <SCORE.INTER.ROT>
3

>  <SCORE.INTER.SOLV>
11.6571

>  <SCORE.INTER.VDW>
-15.3049

>  <SCORE.INTER.norm>
-0.545551

>  <SCORE.INTRA>
0.474314

>  <SCORE.INTRA.DIHEDRAL>
0.811093

>  <SCORE.INTRA.DIHEDRAL.0>
2.21864

>  <SCORE.INTRA.POLAR>
0

>  <SCORE.INTRA.POLAR.0>
0

>  <SCORE.INTRA.REPUL>
0

>  <SCORE.INTRA.REPUL.0>
0

>  <SCORE.INTRA.SOLV>
1.10732

>  <SCORE.INTRA.SOLV.lig_0>
-58.5963

>  <SCORE.INTRA.VDW>
-0.484894

>  <SCORE.INTRA.VDW.0>
-0.437849

>  <SCORE.INTRA.norm>
0.0296446

>  <SCORE.RESTR>
0

>  <SCORE.RESTR.CAVITY>
0

>  <SCORE.RESTR.norm>
0

>  <SCORE.SYSTEM>
0

>  <SCORE.SYSTEM.CONST>
0

>  <SCORE.SYSTEM.DIHEDRAL>
0

>  <SCORE.SYSTEM.SOLV>
0

>  <SCORE.SYSTEM.norm>
0

>  <SCORE.heavy>
16

>  <SCORE.norm>
-0.515906

>  <RMSD>
18.177

$$$$
ligand
 OpenBabel11021811463D
libRbt.so/2013.1/901 2013/11/27
 16 16  0  0  0  0  0  0  0  0999 V2000
   31.2902    1.5000    6.7425 P   0  0  2  0  0  0  0  0  0  0  0  0
   30.9285    0.1322    7.1891 O   0  0  0  0  0  0  0  0  0  0  0  0
   30.8665    1.7162    5.2047 O   0  5  0  0  0  0  0  0  0  0  0  0
   32.8937    1.6935    6.8677 O   0  0  0  0  0  0  0  0  0  0  0  0
   29.9050    5.7036   10.3894 C   0  0  2  0  0  0  0  0  0  0  0  0
   28.4983    5.4205   10.4187 O   0  0  0  0  0  0  0  0  0  0  0  0
   30.1838    7.1686    9.9492 C   0  0  2  0  0  0  0  0  0  0  0  0
   29.5010    8.1059   10.8681 N   0  0  0  0  0  0  0  0  0  0  0  0
   29.6586    7.3588    8.5105 C   0  0  1  0  0  0  0  0  0  0  0  0
   29.9171    8.7004    8.0605 O   0  0  0  0  0  0  0  0  0  0  0  0
   30.3877    6.3590    7.6011 C   0  0  2  0  0  0  0  0  0  0  0  0
   29.9103    6.4995    6.2556 O   0  0  0  0  0  0  0  0  0  0  0  0
   30.0930    4.9251    8.1157 C   0  0  2  0  0  0  0  0  0  0  0  0
   30.5660    4.7735    9.4851 O   0  0  0  0  0  0  0  0  0  0  0  0
   30.8225    3.9008    7.2291 C   0  0  0  0  0  0  0  0  0  0  0  0
   30.5022    2.5670    7.6649 O   0  0  0  0  0  0  0  0  0  0  0  0
  1  2  1  1  0  0  0
  1  3  1  0  0  0  0
  1  4  2  0  0  0  0
  1 16  1  0  0  0  0
  5  6  1  6  0  0  0
  5  7  1  0  0  0  0
  5 14  1  0  0  0  0
  7  8  1  1  0  0  0
  7  9  1  0  0  0  0
  9 10  1  6  0  0  0
  9 11  1  0  0  0  0
 11 12  1  6  0  0  0
 11 13  1  0  0  0  0
 13 14  1  0  0  0  0
 13 15  1  6  0  0  0
 15 16  1  0  0  0  0
M  CHG  1   3  -1
M  END
>  <CHROM.1>
-177.34750666,-179.14860365,-178.95007157,30.44743844,4.47856227,8.01664261
0.45933947,-1.29090053,2.47908295

>  <Name>
ligand

>  <RI>
0

>  <Rbt.Current_Directory>
/home/itssahil/PROJECTS/Mol_Feturizer/New_Systems/rnas/3B4B

>  <Rbt.Executable>
rbdock ($Id: //depot/dev/client3/rdock/2013.1/src/exe/rbdock.cxx#4 $)

>  <Rbt.Library>
libRbt.so (2013.1, Build901 2013/11/27)

>  <Rbt.Parameter_File>
/export/apps/rDock/src/rDock_2013.1_src/data/scripts/dock_solv.prm

>  <Rbt.Receptor>
prm/blind_docking_40.prm

>  <SCORE>
-7.56102

>  <SCORE.INTER>
-5.97616

>  <SCORE.INTER.CONST>
1

>  <SCORE.INTER.POLAR>
0

>  <SCORE.INTER.ROT>
3

>  <SCORE.INTER.SOLV>
8.31272

>  <SCORE.INTER.VDW>
-12.355

>  <SCORE.INTER.norm>
-0.37351

>  <SCORE.INTRA>
-1.58486

>  <SCORE.INTRA.DIHEDRAL>
-2.18661

>  <SCORE.INTRA.DIHEDRAL.0>
2.21864

>  <SCORE.INTRA.POLAR>
0

>  <SCORE.INTRA.POLAR.0>
0

>  <SCORE.INTRA.REPUL>
0

>  <SCORE.INTRA.REPUL.0>
0

>  <SCORE.INTRA.SOLV>
-0.508536

>  <SCORE.INTRA.SOLV.lig_0>
-58.5963

>  <SCORE.INTRA.VDW>
-0.237289

>  <SCORE.INTRA.VDW.0>
-0.437849

>  <SCORE.INTRA.norm>
-0.099054

>  <SCORE.RESTR>
0

>  <SCORE.RESTR.CAVITY>
0

>  <SCORE.RESTR.norm>
0

>  <SCORE.SYSTEM>
0

>  <SCORE.SYSTEM.CONST>
0

>  <SCORE.SYSTEM.DIHEDRAL>
0

>  <SCORE.SYSTEM.SOLV>
0

>  <SCORE.SYSTEM.norm>
0

>  <SCORE.heavy>
16

>  <SCORE.norm>
-0.472564

>  <RMSD>
18.211

$$$$
ligand
 OpenBabel11021811463D
libRbt.so/2013.1/901 2013/11/27
 16 16  0  0  0  0  0  0  0  0999 V2000
   34.1269   -0.4106   11.7940 P   0  0  2  0  0  0  0  0  0  0  0  0
   34.3927    0.7713   12.6506 O   0  0  0  0  0  0  0  0  0  0  0  0
   33.2190   -1.4800   12.5832 O   0  5  0  0  0  0  0  0  0  0  0  0
   35.5340   -1.1142   11.4075 O   0  0  0  0  0  0  0  0  0  0  0  0
   30.8212    0.1228    6.9695 C   0  0  2  0  0  0  0  0  0  0  0  0
   31.1384   -0.7833    5.9028 O   0  0  0  0  0  0  0  0  0  0  0  0
   31.3266    1.5616    6.6663 C   0  0  2  0  0  0  0  0  0  0  0  0
   30.7307    2.0452    5.4013 N   0  0  0  0  0  0  0  0  0  0  0  0
   32.8651    1.5285    6.5494 C   0  0  1  0  0  0  0  0  0  0  0  0
   33.3722    2.8490    6.2878 O   0  0  0  0  0  0  0  0  0  0  0  0
   33.4328    1.0108    7.8791 C   0  0  2  0  0  0  0  0  0  0  0  0
   34.8640    0.9533    7.7985 O   0  0  0  0  0  0  0  0  0  0  0  0
   32.8637   -0.4100    8.1335 C   0  0  2  0  0  0  0  0  0  0  0  0
   31.4096   -0.3651    8.2086 O   0  0  0  0  0  0  0  0  0  0  0  0
   33.4068   -0.9499    9.4681 C   0  0  0  0  0  0  0  0  0  0  0  0
   33.3396    0.0800   10.4712 O   0  0  0  0  0  0  0  0  0  0  0  0
  1  2  1  1  0  0  0
  1  3  1  0  0  0  0
  1  4  2  0  0  0  0
  1 16  1  0  0  0  0
  5  6  1  6  0  0  0
  5  7  1  0  0  0  0
  5 14  1  0  0  0  0
  7  8  1  6  0  0  0
  7  9  1  0  0  0  0
  9 10  1  1  0  0  0
  9 11  1  0  0  0  0
 11 12  1  6  0  0  0
 11 13  1  0  0  0  0
 13 14  1  0  0  0  0
 13 15  1  1  0  0  0
 15 16  1  0  0  0  0
M  CHG  1   3  -1
M  END
>  <CHROM.1>
44.17333782,-170.84997705,163.72981009,33.05191946,0.26509923,8.92490039
-1.07671551,-0.61715953,-0.97542114

>  <Name>
ligand

>  <RI>
0

>  <Rbt.Current_Directory>
/home/itssahil/PROJECTS/Mol_Feturizer/New_Systems/rnas/3B4B

>  <Rbt.Executable>
rbdock ($Id: //depot/dev/client3/rdock/2013.1/src/exe/rbdock.cxx#4 $)

>  <Rbt.Library>
libRbt.so (2013.1, Build901 2013/11/27)

>  <Rbt.Parameter_File>
/export/apps/rDock/src/rDock_2013.1_src/data/scripts/dock_solv.prm

>  <Rbt.Receptor>
prm/blind_docking_100.prm

>  <SCORE>
-6.28768

>  <SCORE.INTER>
-5.97272

>  <SCORE.INTER.CONST>
1

>  <SCORE.INTER.POLAR>
0

>  <SCORE.INTER.ROT>
3

>  <SCORE.INTER.SOLV>
12.1991

>  <SCORE.INTER.VDW>
-13.6482

>  <SCORE.INTER.norm>
-0.373295

>  <SCORE.INTRA>
-0.314969

>  <SCORE.INTRA.DIHEDRAL>
-0.55366

>  <SCORE.INTRA.DIHEDRAL.0>
2.21864

>  <SCORE.INTRA.POLAR>
0

>  <SCORE.INTRA.POLAR.0>
0

>  <SCORE.INTRA.REPUL>
0

>  <SCORE.INTRA.REPUL.0>
0

>  <SCORE.INTRA.SOLV>
0.00916262

>  <SCORE.INTRA.SOLV.lig_0>
-58.5963

>  <SCORE.INTRA.VDW>
-0.0427204

>  <SCORE.INTRA.VDW.0>
-0.437849

>  <SCORE.INTRA.norm>
-0.0196856

>  <SCORE.RESTR>
0

>  <SCORE.RESTR.CAVITY>
0

>  <SCORE.RESTR.norm>
0

>  <SCORE.SYSTEM>
0

>  <SCORE.SYSTEM.CONST>
0

>  <SCORE.SYSTEM.DIHEDRAL>
0

>  <SCORE.SYSTEM.SOLV>
0

>  <SCORE.SYSTEM.norm>
0

>  <SCORE.heavy>
16

>  <SCORE.norm>
-0.39298

>  <RMSD>
18.251

$$$$
ligand
 OpenBabel11021811463D
libRbt.so/2013.1/901 2013/11/27
 16 16  0  0  0  0  0  0  0  0999 V2000
   30.6126    3.4458    6.2840 P   0  0  2  0  0  0  0  0  0  0  0  0
   30.0785    3.7911    4.9436 O   0  0  0  0  0  0  0  0  0  0  0  0
   32.2125    3.2799    6.2224 O   0  5  0  0  0  0  0  0  0  0  0  0
   29.9668    2.0412    6.7679 O   0  0  0  0  0  0  0  0  0  0  0  0
   30.3423    7.8465    9.9160 C   0  0  2  0  0  0  0  0  0  0  0  0
   31.1487    7.7619   11.1002 O   0  0  0  0  0  0  0  0  0  0  0  0
   28.8255    7.7838   10.2520 C   0  0  2  0  0  0  0  0  0  0  0  0
   28.4727    8.8804   11.1805 N   0  0  0  0  0  0  0  0  0  0  0  0
   28.5218    6.4183   10.9040 C   0  0  1  0  0  0  0  0  0  0  0  0
   27.1204    6.3154   11.2120 O   0  0  0  0  0  0  0  0  0  0  0  0
   28.9145    5.3171    9.9083 C   0  0  2  0  0  0  0  0  0  0  0  0
   28.6583    4.0314   10.4909 O   0  0  0  0  0  0  0  0  0  0  0  0
   30.4272    5.4591    9.5938 C   0  0  2  0  0  0  0  0  0  0  0  0
   30.7006    6.7651    9.0094 O   0  0  0  0  0  0  0  0  0  0  0  0
   30.8470    4.3742    8.5867 C   0  0  0  0  0  0  0  0  0  0  0  0
   30.2421    4.6394    7.3079 O   0  0  0  0  0  0  0  0  0  0  0  0
  1  2  1  6  0  0  0
  1  3  1  0  0  0  0
  1  4  2  0  0  0  0
  1 16  1  0  0  0  0
  5  6  1  1  0  0  0
  5  7  1  0  0  0  0
  5 14  1  0  0  0  0
  7  8  1  1  0  0  0
  7  9  1  0  0  0  0
  9 10  1  6  0  0  0
  9 11  1  0  0  0  0
 11 12  1  1  0  0  0
 11 13  1  0  0  0  0
 13 14  1  0  0  0  0
 13 15  1  6  0  0  0
 15 16  1  0  0  0  0
M  CHG  1   3  -1
M  END
>  <CHROM.1>
68.48925157,-176.44988015,-175.29466432,29.89235283,5.30667457,8.73843892
-1.23885706,0.62274828,0.64837517

>  <Name>
ligand

>  <RI>
0

>  <Rbt.Current_Directory>
/home/itssahil/PROJECTS/Mol_Feturizer/New_Systems/rnas/3B4B

>  <Rbt.Executable>
rbdock ($Id: //depot/dev/client3/rdock/2013.1/src/exe/rbdock.cxx#4 $)

>  <Rbt.Library>
libRbt.so (2013.1, Build901 2013/11/27)

>  <Rbt.Parameter_File>
/export/apps/rDock/src/rDock_2013.1_src/data/scripts/dock_solv.prm

>  <Rbt.Receptor>
prm/blind_docking_40.prm

>  <SCORE>
-7.84114

>  <SCORE.INTER>
-6.45505

>  <SCORE.INTER.CONST>
1

>  <SCORE.INTER.POLAR>
0

>  <SCORE.INTER.ROT>
3

>  <SCORE.INTER.SOLV>
10.5894

>  <SCORE.INTER.VDW>
-13.4332

>  <SCORE.INTER.norm>
-0.40344

>  <SCORE.INTRA>
-1.38609

>  <SCORE.INTRA.DIHEDRAL>
-1.86083

>  <SCORE.INTRA.DIHEDRAL.0>
2.21864

>  <SCORE.INTRA.POLAR>
0

>  <SCORE.INTRA.POLAR.0>
0

>  <SCORE.INTRA.REPUL>
0

>  <SCORE.INTRA.REPUL.0>
0

>  <SCORE.INTRA.SOLV>
-0.247283

>  <SCORE.INTRA.SOLV.lig_0>
-58.5963

>  <SCORE.INTRA.VDW>
-0.332038

>  <SCORE.INTRA.VDW.0>
-0.437849

>  <SCORE.INTRA.norm>
-0.0866309

>  <SCORE.RESTR>
0

>  <SCORE.RESTR.CAVITY>
0

>  <SCORE.RESTR.norm>
0

>  <SCORE.SYSTEM>
0

>  <SCORE.SYSTEM.CONST>
0

>  <SCORE.SYSTEM.DIHEDRAL>
0

>  <SCORE.SYSTEM.SOLV>
0

>  <SCORE.SYSTEM.norm>
0

>  <SCORE.heavy>
16

>  <SCORE.norm>
-0.490071

>  <RMSD>
18.325

$$$$
ligand
 OpenBabel11021811463D
libRbt.so/2013.1/901 2013/11/27
 16 16  0  0  0  0  0  0  0  0999 V2000
   33.2997    2.8797    5.9838 P   0  0  2  0  0  0  0  0  0  0  0  0
   33.9376    4.1161    6.4989 O   0  0  0  0  0  0  0  0  0  0  0  0
   33.4212    2.8145    4.3801 O   0  5  0  0  0  0  0  0  0  0  0  0
   31.7294    2.8862    6.3821 O   0  0  0  0  0  0  0  0  0  0  0  0
   34.1151   -3.2349    6.7470 C   0  0  2  0  0  0  0  0  0  0  0  0
   33.7548   -3.2395    8.1361 O   0  0  0  0  0  0  0  0  0  0  0  0
   35.6557   -3.3226    6.5561 C   0  0  2  0  0  0  0  0  0  0  0  0
   36.1716   -4.5477    7.2056 N   0  0  0  0  0  0  0  0  0  0  0  0
   36.3024   -2.0731    7.1906 C   0  0  1  0  0  0  0  0  0  0  0  0
   37.7298   -2.1094    7.0161 O   0  0  0  0  0  0  0  0  0  0  0  0
   35.7274   -0.8323    6.4920 C   0  0  2  0  0  0  0  0  0  0  0  0
   36.2980    0.3501    7.0702 O   0  0  0  0  0  0  0  0  0  0  0  0
   34.1891   -0.8260    6.6944 C   0  0  2  0  0  0  0  0  0  0  0  0
   33.5995   -2.0271    6.1184 O   0  0  0  0  0  0  0  0  0  0  0  0
   33.5833    0.4021    5.9927 C   0  0  0  0  0  0  0  0  0  0  0  0
   34.0569    1.6049    6.6254 O   0  0  0  0  0  0  0  0  0  0  0  0
  1  2  1  1  0  0  0
  1  3  1  0  0  0  0
  1  4  2  0  0  0  0
  1 16  1  0  0  0  0
  5  6  1  1  0  0  0
  5  7  1  0  0  0  0
  5 14  1  0  0  0  0
  7  8  1  1  0  0  0
  7  9  1  0  0  0  0
  9 10  1  6  0  0  0
  9 11  1  0  0  0  0
 11 12  1  1  0  0  0
 11 13  1  0  0  0  0
 13 14  1  0  0  0  0
 13 15  1  6  0  0  0
 15 16  1  0  0  0  0
M  CHG  1   3  -1
M  END
>  <CHROM.1>
-64.78622188,-174.18887053,-171.73728758,34.48114619,-0.12884398,6.52291725
-1.94331182,0.07803390,2.98485845

>  <Name>
ligand

>  <RI>
0

>  <Rbt.Current_Directory>
/home/itssahil/PROJECTS/Mol_Feturizer/New_Systems/rnas/3B4B

>  <Rbt.Executable>
rbdock ($Id: //depot/dev/client3/rdock/2013.1/src/exe/rbdock.cxx#4 $)

>  <Rbt.Library>
libRbt.so (2013.1, Build901 2013/11/27)

>  <Rbt.Parameter_File>
/export/apps/rDock/src/rDock_2013.1_src/data/scripts/dock_solv.prm

>  <Rbt.Receptor>
prm/blind_docking_60.prm

>  <SCORE>
-5.91749

>  <SCORE.INTER>
-4.95586

>  <SCORE.INTER.CONST>
1

>  <SCORE.INTER.POLAR>
0

>  <SCORE.INTER.ROT>
3

>  <SCORE.INTER.SOLV>
12.7225

>  <SCORE.INTER.VDW>
-13.1447

>  <SCORE.INTER.norm>
-0.309741

>  <SCORE.INTRA>
-0.963293

>  <SCORE.INTRA.DIHEDRAL>
-1.85811

>  <SCORE.INTRA.DIHEDRAL.0>
2.21864

>  <SCORE.INTRA.POLAR>
0

>  <SCORE.INTRA.POLAR.0>
0

>  <SCORE.INTRA.REPUL>
0

>  <SCORE.INTRA.REPUL.0>
0

>  <SCORE.INTRA.SOLV>
-0.0740879

>  <SCORE.INTRA.SOLV.lig_0>
-58.5963

>  <SCORE.INTRA.VDW>
0.00280555

>  <SCORE.INTRA.VDW.0>
-0.437849

>  <SCORE.INTRA.norm>
-0.0602058

>  <SCORE.RESTR>
0.00165604

>  <SCORE.RESTR.CAVITY>
0.00165604

>  <SCORE.RESTR.norm>
0.000103502

>  <SCORE.SYSTEM>
0

>  <SCORE.SYSTEM.CONST>
0

>  <SCORE.SYSTEM.DIHEDRAL>
0

>  <SCORE.SYSTEM.SOLV>
0

>  <SCORE.SYSTEM.norm>
0

>  <SCORE.heavy>
16

>  <SCORE.norm>
-0.369843

>  <RMSD>
18.348

$$$$
ligand
 OpenBabel11021811463D
libRbt.so/2013.1/901 2013/11/27
 16 16  0  0  0  0  0  0  0  0999 V2000
   33.9493   -0.1845   11.6166 P   0  0  2  0  0  0  0  0  0  0  0  0
   34.4882    0.6953   12.6827 O   0  0  0  0  0  0  0  0  0  0  0  0
   32.7188   -1.0560   12.1802 O   0  5  0  0  0  0  0  0  0  0  0  0
   35.1142   -1.1962   11.1229 O   0  0  0  0  0  0  0  0  0  0  0  0
   33.0634    2.5160    6.6065 C   0  0  2  0  0  0  0  0  0  0  0  0
   32.0305    3.3780    7.1065 O   0  0  0  0  0  0  0  0  0  0  0  0
   32.5648    1.6643    5.4050 C   0  0  2  0  0  0  0  0  0  0  0  0
   32.0858    2.5547    4.3248 N   0  0  0  0  0  0  0  0  0  0  0  0
   31.4171    0.7535    5.8899 C   0  0  1  0  0  0  0  0  0  0  0  0
   30.9418   -0.0660    4.8073 O   0  0  0  0  0  0  0  0  0  0  0  0
   31.9606   -0.1400    7.0145 C   0  0  2  0  0  0  0  0  0  0  0  0
   30.9120   -0.9905    7.4991 O   0  0  0  0  0  0  0  0  0  0  0  0
   32.4687    0.7728    8.1617 C   0  0  2  0  0  0  0  0  0  0  0  0
   33.5286    1.6477    7.6786 O   0  0  0  0  0  0  0  0  0  0  0  0
   33.0318   -0.0967    9.2994 C   0  0  0  0  0  0  0  0  0  0  0  0
   33.4296    0.7419   10.3994 O   0  0  0  0  0  0  0  0  0  0  0  0
  1  2  1  1  0  0  0
  1  3  1  0  0  0  0
  1  4  2  0  0  0  0
  1 16  1  0  0  0  0
  5  6  1  1  0  0  0
  5  7  1  0  0  0  0
  5 14  1  0  0  0  0
  7  8  1  6  0  0  0
  7  9  1  0  0  0  0
  9 10  1  6  0  0  0
  9 11  1  0  0  0  0
 11 12  1  1  0  0  0
 11 13  1  0  0  0  0
 13 14  1  0  0  0  0
 13 15  1  1  0  0  0
 15 16  1  0  0  0  0
M  CHG  1   3  -1
M  END
>  <CHROM.1>
-176.53071634,177.16420820,174.07260209,32.83247988,0.60154249,8.55641888
-0.96940200,-0.97778667,-0.77982011

>  <Name>
ligand

>  <RI>
0

>  <Rbt.Current_Directory>
/home/itssahil/PROJECTS/Mol_Feturizer/New_Systems/rnas/3B4B

>  <Rbt.Executable>
rbdock ($Id: //depot/dev/client3/rdock/2013.1/src/exe/rbdock.cxx#4 $)

>  <Rbt.Library>
libRbt.so (2013.1, Build901 2013/11/27)

>  <Rbt.Parameter_File>
/export/apps/rDock/src/rDock_2013.1_src/data/scripts/dock_solv.prm

>  <Rbt.Receptor>
prm/blind_docking_40.prm

>  <SCORE>
-8.68542

>  <SCORE.INTER>
-7.14188

>  <SCORE.INTER.CONST>
1

>  <SCORE.INTER.POLAR>
0

>  <SCORE.INTER.ROT>
3

>  <SCORE.INTER.SOLV>
14.1806

>  <SCORE.INTER.VDW>
-15.0881

>  <SCORE.INTER.norm>
-0.446367

>  <SCORE.INTRA>
-1.54354

>  <SCORE.INTRA.DIHEDRAL>
-2.07892

>  <SCORE.INTRA.DIHEDRAL.0>
2.21864

>  <SCORE.INTRA.POLAR>
0

>  <SCORE.INTRA.POLAR.0>
0

>  <SCORE.INTRA.REPUL>
0

>  <SCORE.INTRA.REPUL.0>
0

>  <SCORE.INTRA.SOLV>
-0.527198

>  <SCORE.INTRA.SOLV.lig_0>
-58.5963

>  <SCORE.INTRA.VDW>
-0.240483

>  <SCORE.INTRA.VDW.0>
-0.437849

>  <SCORE.INTRA.norm>
-0.0964714

>  <SCORE.RESTR>
0

>  <SCORE.RESTR.CAVITY>
0

>  <SCORE.RESTR.norm>
0

>  <SCORE.SYSTEM>
0

>  <SCORE.SYSTEM.CONST>
0

>  <SCORE.SYSTEM.DIHEDRAL>
0

>  <SCORE.SYSTEM.SOLV>
0

>  <SCORE.SYSTEM.norm>
0

>  <SCORE.heavy>
16

>  <SCORE.norm>
-0.542839

>  <RMSD>
18.379

$$$$
ligand
 OpenBabel11021811463D
libRbt.so/2013.1/901 2013/11/27
 16 16  0  0  0  0  0  0  0  0999 V2000
   30.3656    6.8888   10.0404 P   0  0  2  0  0  0  0  0  0  0  0  0
   31.3042    7.4641   11.0349 O   0  0  0  0  0  0  0  0  0  0  0  0
   29.8086    8.0421    9.0652 O   0  5  0  0  0  0  0  0  0  0  0  0
   29.1112    6.2206   10.8177 O   0  0  0  0  0  0  0  0  0  0  0  0
   32.3335    2.1044    7.6226 C   0  0  2  0  0  0  0  0  0  0  0  0
   33.4112    2.7090    6.8928 O   0  0  0  0  0  0  0  0  0  0  0  0
   31.3778    1.3168    6.6825 C   0  0  2  0  0  0  0  0  0  0  0  0
   32.1374    0.2771    5.9535 N   0  0  0  0  0  0  0  0  0  0  0  0
   30.7423    2.3075    5.6843 C   0  0  1  0  0  0  0  0  0  0  0  0
   29.8345    1.6165    4.8081 O   0  0  0  0  0  0  0  0  0  0  0  0
   29.9775    3.3691    6.4882 C   0  0  2  0  0  0  0  0  0  0  0  0
   29.3859    4.3168    5.5883 O   0  0  0  0  0  0  0  0  0  0  0  0
   30.9822    4.0909    7.4248 C   0  0  2  0  0  0  0  0  0  0  0  0
   31.5961    3.1361    8.3379 O   0  0  0  0  0  0  0  0  0  0  0  0
   30.2400    5.1537    8.2535 C   0  0  0  0  0  0  0  0  0  0  0  0
   31.1582    5.7886    9.1620 O   0  0  0  0  0  0  0  0  0  0  0  0
  1  2  1  1  0  0  0
  1  3  1  0  0  0  0
  1  4  2  0  0  0  0
  1 16  1  0  0  0  0
  5  6  1  6  0  0  0
  5  7  1  0  0  0  0
  5 14  1  0  0  0  0
  7  8  1  6  0  0  0
  7  9  1  0  0  0  0
  9 10  1  6  0  0  0
  9 11  1  0  0  0  0
 11 12  1  6  0  0  0
 11 13  1  0  0  0  0
 13 14  1  0  0  0  0
 13 15  1  1  0  0  0
 15 16  1  0  0  0  0
M  CHG  1   3  -1
M  END
>  <CHROM.1>
177.70573134,-179.27395332,176.05640694,30.81261694,4.32343757,7.94452677
-1.75424674,0.61042078,-2.37691057

>  <Name>
ligand

>  <RI>
0

>  <Rbt.Current_Directory>
/home/itssahil/PROJECTS/Mol_Feturizer/New_Systems/rnas/3B4B

>  <Rbt.Executable>
rbdock ($Id: //depot/dev/client3/rdock/2013.1/src/exe/rbdock.cxx#4 $)

>  <Rbt.Library>
libRbt.so (2013.1, Build901 2013/11/27)

>  <Rbt.Parameter_File>
/export/apps/rDock/src/rDock_2013.1_src/data/scripts/dock_solv.prm

>  <Rbt.Receptor>
prm/blind_docking_40.prm

>  <SCORE>
-6.97788

>  <SCORE.INTER>
-5.41391

>  <SCORE.INTER.CONST>
1

>  <SCORE.INTER.POLAR>
0

>  <SCORE.INTER.ROT>
3

>  <SCORE.INTER.SOLV>
9.42745

>  <SCORE.INTER.VDW>
-12.3518

>  <SCORE.INTER.norm>
-0.338369

>  <SCORE.INTRA>
-1.56397

>  <SCORE.INTRA.DIHEDRAL>
-2.17246

>  <SCORE.INTRA.DIHEDRAL.0>
2.21864

>  <SCORE.INTRA.POLAR>
0

>  <SCORE.INTRA.POLAR.0>
0

>  <SCORE.INTRA.REPUL>
0

>  <SCORE.INTRA.REPUL.0>
0

>  <SCORE.INTRA.SOLV>
-0.494931

>  <SCORE.INTRA.SOLV.lig_0>
-58.5963

>  <SCORE.INTRA.VDW>
-0.230271

>  <SCORE.INTRA.VDW.0>
-0.437849

>  <SCORE.INTRA.norm>
-0.0977478

>  <SCORE.RESTR>
0

>  <SCORE.RESTR.CAVITY>
0

>  <SCORE.RESTR.norm>
0

>  <SCORE.SYSTEM>
0

>  <SCORE.SYSTEM.CONST>
0

>  <SCORE.SYSTEM.DIHEDRAL>
0

>  <SCORE.SYSTEM.SOLV>
0

>  <SCORE.SYSTEM.norm>
0

>  <SCORE.heavy>
16

>  <SCORE.norm>
-0.436117

>  <RMSD>
18.413

$$$$
ligand
 OpenBabel11021811463D
libRbt.so/2013.1/901 2013/11/27
 16 16  0  0  0  0  0  0  0  0999 V2000
   30.6400    5.0133    8.2724 P   0  0  2  0  0  0  0  0  0  0  0  0
   31.1774    6.3201    8.7246 O   0  0  0  0  0  0  0  0  0  0  0  0
   30.1275    5.1164    6.7500 O   0  5  0  0  0  0  0  0  0  0  0  0
   29.3865    4.6002    9.2116 O   0  0  0  0  0  0  0  0  0  0  0  0
   33.4732    0.3488    9.8117 C   0  0  2  0  0  0  0  0  0  0  0  0
   34.7754    0.7521    9.3629 O   0  0  0  0  0  0  0  0  0  0  0  0
   33.0481   -1.0092    9.1850 C   0  0  2  0  0  0  0  0  0  0  0  0
   34.0425   -2.0506    9.5254 N   0  0  0  0  0  0  0  0  0  0  0  0
   32.9612   -0.8390    7.6536 C   0  0  1  0  0  0  0  0  0  0  0  0
   32.5505   -2.0730    7.0390 O   0  0  0  0  0  0  0  0  0  0  0  0
   31.9279    0.2568    7.3540 C   0  0  2  0  0  0  0  0  0  0  0  0
   31.8337    0.4510    5.9358 O   0  0  0  0  0  0  0  0  0  0  0  0
   32.3970    1.5703    8.0338 C   0  0  2  0  0  0  0  0  0  0  0  0
   32.5047    1.3822    9.4743 O   0  0  0  0  0  0  0  0  0  0  0  0
   31.3722    2.6850    7.7605 C   0  0  0  0  0  0  0  0  0  0  0  0
   31.8203    3.9137    8.3614 O   0  0  0  0  0  0  0  0  0  0  0  0
  1  2  1  1  0  0  0
  1  3  1  0  0  0  0
  1  4  2  0  0  0  0
  1 16  1  0  0  0  0
  5  6  1  6  0  0  0
  5  7  1  0  0  0  0
  5 14  1  0  0  0  0
  7  8  1  6  0  0  0
  7  9  1  0  0  0  0
  9 10  1  6  0  0  0
  9 11  1  0  0  0  0
 11 12  1  6  0  0  0
 11 13  1  0  0  0  0
 13 14  1  0  0  0  0
 13 15  1  1  0  0  0
 15 16  1  0  0  0  0
M  CHG  1   3  -1
M  END
>  <CHROM.1>
-178.57609054,-171.17043609,-172.36985771,31.99231158,1.96701278,8.26469506
-2.29200452,0.90429050,-2.56759052

>  <Name>
ligand

>  <RI>
0

>  <Rbt.Current_Directory>
/home/itssahil/PROJECTS/Mol_Feturizer/New_Systems/rnas/3B4B

>  <Rbt.Executable>
rbdock ($Id: //depot/dev/client3/rdock/2013.1/src/exe/rbdock.cxx#4 $)

>  <Rbt.Library>
libRbt.so (2013.1, Build901 2013/11/27)

>  <Rbt.Parameter_File>
/export/apps/rDock/src/rDock_2013.1_src/data/scripts/dock_solv.prm

>  <Rbt.Receptor>
prm/blind_docking_80.prm

>  <SCORE>
-6.50866

>  <SCORE.INTER>
-5.20936

>  <SCORE.INTER.CONST>
1

>  <SCORE.INTER.POLAR>
0

>  <SCORE.INTER.ROT>
3

>  <SCORE.INTER.SOLV>
12.3208

>  <SCORE.INTER.VDW>
-13.1798

>  <SCORE.INTER.norm>
-0.325585

>  <SCORE.INTRA>
-1.30007

>  <SCORE.INTRA.DIHEDRAL>
-1.73601

>  <SCORE.INTRA.DIHEDRAL.0>
2.21864

>  <SCORE.INTRA.POLAR>
0

>  <SCORE.INTRA.POLAR.0>
0

>  <SCORE.INTRA.REPUL>
0

>  <SCORE.INTRA.REPUL.0>
0

>  <SCORE.INTRA.SOLV>
-0.453837

>  <SCORE.INTRA.SOLV.lig_0>
-58.5963

>  <SCORE.INTRA.VDW>
-0.205145

>  <SCORE.INTRA.VDW.0>
-0.437849

>  <SCORE.INTRA.norm>
-0.0812542

>  <SCORE.RESTR>
0.000767478

>  <SCORE.RESTR.CAVITY>
0.000767478

>  <SCORE.RESTR.norm>
4.79674e-05

>  <SCORE.SYSTEM>
0

>  <SCORE.SYSTEM.CONST>
0

>  <SCORE.SYSTEM.DIHEDRAL>
0

>  <SCORE.SYSTEM.SOLV>
0

>  <SCORE.SYSTEM.norm>
0

>  <SCORE.heavy>
16

>  <SCORE.norm>
-0.406791

>  <RMSD>
18.415

$$$$
ligand
 OpenBabel11021811463D
libRbt.so/2013.1/901 2013/11/27
 16 16  0  0  0  0  0  0  0  0999 V2000
   30.7502    4.6118    7.7790 P   0  0  2  0  0  0  0  0  0  0  0  0
   30.3495    4.5475    6.3520 O   0  0  0  0  0  0  0  0  0  0  0  0
   29.5055    4.2327    8.7267 O   0  5  0  0  0  0  0  0  0  0  0  0
   31.2251    6.1202    8.1303 O   0  0  0  0  0  0  0  0  0  0  0  0
   33.6861    0.5212   10.2165 C   0  0  2  0  0  0  0  0  0  0  0  0
   34.9501    0.6630    9.5517 O   0  0  0  0  0  0  0  0  0  0  0  0
   33.1408   -0.9305   10.1035 C   0  0  2  0  0  0  0  0  0  0  0  0
   34.1204   -1.8792   10.6774 N   0  0  0  0  0  0  0  0  0  0  0  0
   32.9015   -1.2519    8.6131 C   0  0  1  0  0  0  0  0  0  0  0  0
   32.3769   -2.5836    8.4699 O   0  0  0  0  0  0  0  0  0  0  0  0
   31.8897   -0.2358    8.0632 C   0  0  2  0  0  0  0  0  0  0  0  0
   31.6561   -0.4979    6.6722 O   0  0  0  0  0  0  0  0  0  0  0  0
   32.4825    1.1875    8.2370 C   0  0  2  0  0  0  0  0  0  0  0  0
   32.7321    1.4615    9.6457 O   0  0  0  0  0  0  0  0  0  0  0  0
   31.4828    2.2292    7.7050 C   0  0  0  0  0  0  0  0  0  0  0  0
   31.9460    3.5537    8.0253 O   0  0  0  0  0  0  0  0  0  0  0  0
  1  2  1  6  0  0  0
  1  3  1  0  0  0  0
  1  4  2  0  0  0  0
  1 16  1  0  0  0  0
  5  6  1  6  0  0  0
  5  7  1  0  0  0  0
  5 14  1  0  0  0  0
  7  8  1  6  0  0  0
  7  9  1  0  0  0  0
  9 10  1  1  0  0  0
  9 11  1  0  0  0  0
 11 12  1  6  0  0  0
 11 13  1  0  0  0  0
 13 14  1  0  0  0  0
 13 15  1  1  0  0  0
 15 16  1  0  0  0  0
M  CHG  1   3  -1
M  END
>  <CHROM.1>
172.33647292,-166.93813843,-60.09378300,32.06735841,1.66007914,8.47532751
-2.17329444,0.80944220,-2.94100379

>  <Name>
ligand

>  <RI>
0

>  <Rbt.Current_Directory>
/home/itssahil/PROJECTS/Mol_Feturizer/New_Systems/rnas/3B4B

>  <Rbt.Executable>
rbdock ($Id: //depot/dev/client3/rdock/2013.1/src/exe/rbdock.cxx#4 $)

>  <Rbt.Library>
libRbt.so (2013.1, Build901 2013/11/27)

>  <Rbt.Parameter_File>
/export/apps/rDock/src/rDock_2013.1_src/data/scripts/dock_solv.prm

>  <Rbt.Receptor>
prm/blind_docking_40.prm

>  <SCORE>
-5.69841

>  <SCORE.INTER>
-4.56432

>  <SCORE.INTER.CONST>
1

>  <SCORE.INTER.POLAR>
0

>  <SCORE.INTER.ROT>
3

>  <SCORE.INTER.SOLV>
15.6268

>  <SCORE.INTER.VDW>
-13.8518

>  <SCORE.INTER.norm>
-0.28527

>  <SCORE.INTRA>
-1.13408

>  <SCORE.INTRA.DIHEDRAL>
-1.19992

>  <SCORE.INTRA.DIHEDRAL.0>
2.21864

>  <SCORE.INTRA.POLAR>
0

>  <SCORE.INTRA.POLAR.0>
0

>  <SCORE.INTRA.REPUL>
0

>  <SCORE.INTRA.REPUL.0>
0

>  <SCORE.INTRA.SOLV>
-0.966746

>  <SCORE.INTRA.SOLV.lig_0>
-58.5963

>  <SCORE.INTRA.VDW>
-0.0507526

>  <SCORE.INTRA.VDW.0>
-0.437849

>  <SCORE.INTRA.norm>
-0.0708803

>  <SCORE.RESTR>
0

>  <SCORE.RESTR.CAVITY>
0

>  <SCORE.RESTR.norm>
0

>  <SCORE.SYSTEM>
0

>  <SCORE.SYSTEM.CONST>
0

>  <SCORE.SYSTEM.DIHEDRAL>
0

>  <SCORE.SYSTEM.SOLV>
0

>  <SCORE.SYSTEM.norm>
0

>  <SCORE.heavy>
16

>  <SCORE.norm>
-0.35615

>  <RMSD>
18.446

$$$$
ligand
 OpenBabel11021811463D
libRbt.so/2013.1/901 2013/11/27
 16 16  0  0  0  0  0  0  0  0999 V2000
   28.5191   10.6019   10.8696 P   0  0  2  0  0  0  0  0  0  0  0  0
   28.7230   11.4784    9.6902 O   0  0  0  0  0  0  0  0  0  0  0  0
   27.0099   10.7378   11.4127 O   0  5  0  0  0  0  0  0  0  0  0  0
   29.5340   11.0529   12.0489 O   0  0  0  0  0  0  0  0  0  0  0  0
   27.8419    4.9341   10.2478 C   0  0  2  0  0  0  0  0  0  0  0  0
   28.0841    4.1198   11.4045 O   0  0  0  0  0  0  0  0  0  0  0  0
   28.9301    4.7173    9.1585 C   0  0  2  0  0  0  0  0  0  0  0  0
   28.9717    3.2903    8.7696 N   0  0  0  0  0  0  0  0  0  0  0  0
   30.2953    5.1505    9.7333 C   0  0  1  0  0  0  0  0  0  0  0  0
   31.3267    4.9822    8.7449 O   0  0  0  0  0  0  0  0  0  0  0  0
   30.1968    6.6306   10.1309 C   0  0  2  0  0  0  0  0  0  0  0  0
   31.4480    7.0618   10.6845 O   0  0  0  0  0  0  0  0  0  0  0  0
   29.0744    6.7781   11.1920 C   0  0  2  0  0  0  0  0  0  0  0  0
   27.7999    6.3346   10.6434 O   0  0  0  0  0  0  0  0  0  0  0  0
   28.9443    8.2558   11.6006 C   0  0  0  0  0  0  0  0  0  0  0  0
   28.7873    9.0719   10.4255 O   0  0  0  0  0  0  0  0  0  0  0  0
  1  2  1  6  0  0  0
  1  3  1  0  0  0  0
  1  4  2  0  0  0  0
  1 16  1  0  0  0  0
  5  6  1  1  0  0  0
  5  7  1  0  0  0  0
  5 14  1  0  0  0  0
  7  8  1  1  0  0  0
  7  9  1  0  0  0  0
  9 10  1  6  0  0  0
  9 11  1  0  0  0  0
 11 12  1  1  0  0  0
 11 13  1  0  0  0  0
 13 14  1  0  0  0  0
 13 15  1  6  0  0  0
 15 16  1  0  0  0  0
M  CHG  1   3  -1
M  END
>  <CHROM.1>
52.67048338,174.96789941,164.91775834,29.05059924,7.51668881,10.47221941
1.71392667,0.33198571,0.15534860

>  <Name>
ligand

>  <RI>
0

>  <Rbt.Current_Directory>
/home/itssahil/PROJECTS/Mol_Feturizer/New_Systems/rnas/3B4B

>  <Rbt.Executable>
rbdock ($Id: //depot/dev/client3/rdock/2013.1/src/exe/rbdock.cxx#4 $)

>  <Rbt.Library>
libRbt.so (2013.1, Build901 2013/11/27)

>  <Rbt.Parameter_File>
/export/apps/rDock/src/rDock_2013.1_src/data/scripts/dock_solv.prm

>  <Rbt.Receptor>
prm/blind_docking_80.prm

>  <SCORE>
-6.6185

>  <SCORE.INTER>
-5.54912

>  <SCORE.INTER.CONST>
1

>  <SCORE.INTER.POLAR>
0

>  <SCORE.INTER.ROT>
3

>  <SCORE.INTER.SOLV>
21.2188

>  <SCORE.INTER.VDW>
-16.3724

>  <SCORE.INTER.norm>
-0.34682

>  <SCORE.INTRA>
-1.06938

>  <SCORE.INTRA.DIHEDRAL>
-1.5517

>  <SCORE.INTRA.DIHEDRAL.0>
2.21864

>  <SCORE.INTRA.POLAR>
0

>  <SCORE.INTRA.POLAR.0>
0

>  <SCORE.INTRA.REPUL>
0

>  <SCORE.INTRA.REPUL.0>
0

>  <SCORE.INTRA.SOLV>
-0.262016

>  <SCORE.INTRA.SOLV.lig_0>
-58.5963

>  <SCORE.INTRA.VDW>
-0.162525

>  <SCORE.INTRA.VDW.0>
-0.437849

>  <SCORE.INTRA.norm>
-0.0668365

>  <SCORE.RESTR>
0

>  <SCORE.RESTR.CAVITY>
0

>  <SCORE.RESTR.norm>
0

>  <SCORE.SYSTEM>
0

>  <SCORE.SYSTEM.CONST>
0

>  <SCORE.SYSTEM.DIHEDRAL>
0

>  <SCORE.SYSTEM.SOLV>
0

>  <SCORE.SYSTEM.norm>
0

>  <SCORE.heavy>
16

>  <SCORE.norm>
-0.413657

>  <RMSD>
18.474

$$$$
ligand
 OpenBabel11021811463D
libRbt.so/2013.1/901 2013/11/27
 16 16  0  0  0  0  0  0  0  0999 V2000
   29.5517    4.4195    9.8645 P   0  0  2  0  0  0  0  0  0  0  0  0
   29.0055    4.1183   11.2106 O   0  0  0  0  0  0  0  0  0  0  0  0
   30.0815    5.9382    9.8032 O   0  5  0  0  0  0  0  0  0  0  0  0
   28.3788    4.2377    8.7620 O   0  0  0  0  0  0  0  0  0  0  0  0
   32.0591    0.0948    7.2603 C   0  0  2  0  0  0  0  0  0  0  0  0
   33.0041   -0.2246    8.2921 O   0  0  0  0  0  0  0  0  0  0  0  0
   32.7644    0.3472    5.8977 C   0  0  2  0  0  0  0  0  0  0  0  0
   33.5475   -0.8470    5.5107 N   0  0  0  0  0  0  0  0  0  0  0  0
   33.6967    1.5683    6.0447 C   0  0  1  0  0  0  0  0  0  0  0  0
   34.3537    1.8451    4.7954 O   0  0  0  0  0  0  0  0  0  0  0  0
   32.8404    2.7746    6.4570 C   0  0  2  0  0  0  0  0  0  0  0  0
   33.6811    3.9259    6.6173 O   0  0  0  0  0  0  0  0  0  0  0  0
   32.1430    2.4421    7.8025 C   0  0  2  0  0  0  0  0  0  0  0  0
   31.2928    1.2686    7.6537 O   0  0  0  0  0  0  0  0  0  0  0  0
   31.2664    3.6305    8.2346 C   0  0  0  0  0  0  0  0  0  0  0  0
   30.7838    3.4158    9.5734 O   0  0  0  0  0  0  0  0  0  0  0  0
  1  2  1  1  0  0  0
  1  3  1  0  0  0  0
  1  4  2  0  0  0  0
  1 16  1  0  0  0  0
  5  6  1  1  0  0  0
  5  7  1  0  0  0  0
  5 14  1  0  0  0  0
  7  8  1  1  0  0  0
  7  9  1  0  0  0  0
  9 10  1  6  0  0  0
  9 11  1  0  0  0  0
 11 12  1  1  0  0  0
 11 13  1  0  0  0  0
 13 14  1  0  0  0  0
 13 15  1  6  0  0  0
 15 16  1  0  0  0  0
M  CHG  1   3  -1
M  END
>  <CHROM.1>
-171.13226366,-163.85177616,176.01925089,31.58138453,2.62764888,7.93805153
2.55897282,0.78464509,-0.02201535

>  <Name>
ligand

>  <RI>
0

>  <Rbt.Current_Directory>
/home/itssahil/PROJECTS/Mol_Feturizer/New_Systems/rnas/3B4B

>  <Rbt.Executable>
rbdock ($Id: //depot/dev/client3/rdock/2013.1/src/exe/rbdock.cxx#4 $)

>  <Rbt.Library>
libRbt.so (2013.1, Build901 2013/11/27)

>  <Rbt.Parameter_File>
/export/apps/rDock/src/rDock_2013.1_src/data/scripts/dock_solv.prm

>  <Rbt.Receptor>
prm/blind_docking_40.prm

>  <SCORE>
-7.20797

>  <SCORE.INTER>
-6.37511

>  <SCORE.INTER.CONST>
1

>  <SCORE.INTER.POLAR>
0

>  <SCORE.INTER.ROT>
3

>  <SCORE.INTER.SOLV>
17.764

>  <SCORE.INTER.VDW>
-15.7714

>  <SCORE.INTER.norm>
-0.398445

>  <SCORE.INTRA>
-0.832859

>  <SCORE.INTRA.DIHEDRAL>
-0.70062

>  <SCORE.INTRA.DIHEDRAL.0>
2.21864

>  <SCORE.INTRA.POLAR>
0

>  <SCORE.INTRA.POLAR.0>
0

>  <SCORE.INTRA.REPUL>
0

>  <SCORE.INTRA.REPUL.0>
0

>  <SCORE.INTRA.SOLV>
-0.358446

>  <SCORE.INTRA.SOLV.lig_0>
-58.5963

>  <SCORE.INTRA.VDW>
-0.303326

>  <SCORE.INTRA.VDW.0>
-0.437849

>  <SCORE.INTRA.norm>
-0.0520537

>  <SCORE.RESTR>
0

>  <SCORE.RESTR.CAVITY>
0

>  <SCORE.RESTR.norm>
0

>  <SCORE.SYSTEM>
0

>  <SCORE.SYSTEM.CONST>
0

>  <SCORE.SYSTEM.DIHEDRAL>
0

>  <SCORE.SYSTEM.SOLV>
0

>  <SCORE.SYSTEM.norm>
0

>  <SCORE.heavy>
16

>  <SCORE.norm>
-0.450498

>  <RMSD>
18.515

$$$$
ligand
 OpenBabel11021811463D
libRbt.so/2013.1/901 2013/11/27
 16 16  0  0  0  0  0  0  0  0999 V2000
   28.7488    2.5166    7.0804 P   0  0  2  0  0  0  0  0  0  0  0  0
   27.7192    1.5280    7.4849 O   0  0  0  0  0  0  0  0  0  0  0  0
   28.4102    3.1119    5.6237 O   0  5  0  0  0  0  0  0  0  0  0  0
   30.1924    1.7844    7.0154 O   0  0  0  0  0  0  0  0  0  0  0  0
   29.9304    6.6633   10.9835 C   0  0  2  0  0  0  0  0  0  0  0  0
   28.5694    7.1160   11.0326 O   0  0  0  0  0  0  0  0  0  0  0  0
   30.8944    7.7986   10.5373 C   0  0  2  0  0  0  0  0  0  0  0  0
   30.7791    8.9462   11.4641 N   0  0  0  0  0  0  0  0  0  0  0  0
   30.5149    8.2326    9.1057 C   0  0  1  0  0  0  0  0  0  0  0  0
   31.3999    9.2711    8.6502 O   0  0  0  0  0  0  0  0  0  0  0  0
   30.6394    7.0077    8.1879 C   0  0  2  0  0  0  0  0  0  0  0  0
   30.2779    7.3743    6.8489 O   0  0  0  0  0  0  0  0  0  0  0  0
   29.6780    5.9068    8.7086 C   0  0  2  0  0  0  0  0  0  0  0  0
   30.0305    5.5326   10.0716 O   0  0  0  0  0  0  0  0  0  0  0  0
   29.7911    4.6603    7.8136 C   0  0  0  0  0  0  0  0  0  0  0  0
   28.7559    3.7212    8.1571 O   0  0  0  0  0  0  0  0  0  0  0  0
  1  2  1  1  0  0  0
  1  3  1  0  0  0  0
  1  4  2  0  0  0  0
  1 16  1  0  0  0  0
  5  6  1  6  0  0  0
  5  7  1  0  0  0  0
  5 14  1  0  0  0  0
  7  8  1  1  0  0  0
  7  9  1  0  0  0  0
  9 10  1  6  0  0  0
  9 11  1  0  0  0  0
 11 12  1  6  0  0  0
 11 13  1  0  0  0  0
 13 14  1  0  0  0  0
 13 15  1  6  0  0  0
 15 16  1  0  0  0  0
M  CHG  1   3  -1
M  END
>  <CHROM.1>
-170.85325445,171.98305749,177.42091197,29.66874154,5.40753620,8.51373994
2.24067830,-1.13182447,-2.03493674

>  <Name>
ligand

>  <RI>
0

>  <Rbt.Current_Directory>
/home/itssahil/PROJECTS/Mol_Feturizer/New_Systems/rnas/3B4B

>  <Rbt.Executable>
rbdock ($Id: //depot/dev/client3/rdock/2013.1/src/exe/rbdock.cxx#4 $)

>  <Rbt.Library>
libRbt.so (2013.1, Build901 2013/11/27)

>  <Rbt.Parameter_File>
/export/apps/rDock/src/rDock_2013.1_src/data/scripts/dock_solv.prm

>  <Rbt.Receptor>
prm/blind_docking_40.prm

>  <SCORE>
-10.5778

>  <SCORE.INTER>
-9.24717

>  <SCORE.INTER.CONST>
1

>  <SCORE.INTER.POLAR>
0

>  <SCORE.INTER.ROT>
3

>  <SCORE.INTER.SOLV>
15.5779

>  <SCORE.INTER.VDW>
-16.9574

>  <SCORE.INTER.norm>
-0.577948

>  <SCORE.INTRA>
-1.33064

>  <SCORE.INTRA.DIHEDRAL>
-1.59714

>  <SCORE.INTRA.DIHEDRAL.0>
2.21864

>  <SCORE.INTRA.POLAR>
0

>  <SCORE.INTRA.POLAR.0>
0

>  <SCORE.INTRA.REPUL>
0

>  <SCORE.INTRA.REPUL.0>
0

>  <SCORE.INTRA.SOLV>
-0.553368

>  <SCORE.INTRA.SOLV.lig_0>
-58.5963

>  <SCORE.INTRA.VDW>
-0.255383

>  <SCORE.INTRA.VDW.0>
-0.437849

>  <SCORE.INTRA.norm>
-0.0831649

>  <SCORE.RESTR>
0

>  <SCORE.RESTR.CAVITY>
0

>  <SCORE.RESTR.norm>
0

>  <SCORE.SYSTEM>
0

>  <SCORE.SYSTEM.CONST>
0

>  <SCORE.SYSTEM.DIHEDRAL>
0

>  <SCORE.SYSTEM.SOLV>
0

>  <SCORE.SYSTEM.norm>
0

>  <SCORE.heavy>
16

>  <SCORE.norm>
-0.661113

>  <RMSD>
18.527

$$$$
ligand
 OpenBabel11021811463D
libRbt.so/2013.1/901 2013/11/27
 16 16  0  0  0  0  0  0  0  0999 V2000
   29.0895    8.6669   10.8797 P   0  0  2  0  0  0  0  0  0  0  0  0
   28.4088    8.2584    9.6264 O   0  0  0  0  0  0  0  0  0  0  0  0
   28.0566    9.4222   11.8562 O   0  5  0  0  0  0  0  0  0  0  0  0
   30.2980    9.6843   10.5210 O   0  0  0  0  0  0  0  0  0  0  0  0
   30.7645    4.9870    7.5421 C   0  0  2  0  0  0  0  0  0  0  0  0
   29.9431    5.8829    6.7790 O   0  0  0  0  0  0  0  0  0  0  0  0
   29.9922    3.6946    7.9306 C   0  0  2  0  0  0  0  0  0  0  0  0
   29.5069    3.0152    6.7091 N   0  0  0  0  0  0  0  0  0  0  0  0
   28.8001    4.0849    8.8298 C   0  0  1  0  0  0  0  0  0  0  0  0
   28.0712    2.9099    9.2264 O   0  0  0  0  0  0  0  0  0  0  0  0
   29.3541    4.7942   10.0741 C   0  0  2  0  0  0  0  0  0  0  0  0
   28.2679    5.1848   10.9258 O   0  0  0  0  0  0  0  0  0  0  0  0
   30.1374    6.0514    9.6121 C   0  0  2  0  0  0  0  0  0  0  0  0
   31.2384    5.6674    8.7390 O   0  0  0  0  0  0  0  0  0  0  0  0
   30.7157    6.7766   10.8397 C   0  0  0  0  0  0  0  0  0  0  0  0
   29.6451    7.3417   11.6182 O   0  0  0  0  0  0  0  0  0  0  0  0
  1  2  1  6  0  0  0
  1  3  1  0  0  0  0
  1  4  2  0  0  0  0
  1 16  1  0  0  0  0
  5  6  1  1  0  0  0
  5  7  1  0  0  0  0
  5 14  1  0  0  0  0
  7  8  1  6  0  0  0
  7  9  1  0  0  0  0
  9 10  1  1  0  0  0
  9 11  1  0  0  0  0
 11 12  1  1  0  0  0
 11 13  1  0  0  0  0
 13 14  1  0  0  0  0
 13 15  1  1  0  0  0
 15 16  1  0  0  0  0
M  CHG  1   3  -1
M  END
>  <CHROM.1>
-68.10034270,-75.74554490,68.43347953,29.46611084,6.27827183,9.61658128,-1.67956796
-0.88727824,-2.66037895

>  <Name>
ligand

>  <RI>
0

>  <Rbt.Current_Directory>
/home/itssahil/PROJECTS/Mol_Feturizer/New_Systems/rnas/3B4B

>  <Rbt.Executable>
rbdock ($Id: //depot/dev/client3/rdock/2013.1/src/exe/rbdock.cxx#4 $)

>  <Rbt.Library>
libRbt.so (2013.1, Build901 2013/11/27)

>  <Rbt.Parameter_File>
/export/apps/rDock/src/rDock_2013.1_src/data/scripts/dock_solv.prm

>  <Rbt.Receptor>
prm/blind_docking_60.prm

>  <SCORE>
-8.49708

>  <SCORE.INTER>
-8.379

>  <SCORE.INTER.CONST>
1

>  <SCORE.INTER.POLAR>
0

>  <SCORE.INTER.ROT>
3

>  <SCORE.INTER.SOLV>
12.067

>  <SCORE.INTER.VDW>
-15.2083

>  <SCORE.INTER.norm>
-0.523688

>  <SCORE.INTRA>
-0.118085

>  <SCORE.INTRA.DIHEDRAL>
-0.71222

>  <SCORE.INTRA.DIHEDRAL.0>
2.21864

>  <SCORE.INTRA.POLAR>
0

>  <SCORE.INTRA.POLAR.0>
0

>  <SCORE.INTRA.REPUL>
0

>  <SCORE.INTRA.REPUL.0>
0

>  <SCORE.INTRA.SOLV>
0.627561

>  <SCORE.INTRA.SOLV.lig_0>
-58.5963

>  <SCORE.INTRA.VDW>
-0.0757553

>  <SCORE.INTRA.VDW.0>
-0.437849

>  <SCORE.INTRA.norm>
-0.0073803

>  <SCORE.RESTR>
0

>  <SCORE.RESTR.CAVITY>
0

>  <SCORE.RESTR.norm>
0

>  <SCORE.SYSTEM>
0

>  <SCORE.SYSTEM.CONST>
0

>  <SCORE.SYSTEM.DIHEDRAL>
0

>  <SCORE.SYSTEM.SOLV>
0

>  <SCORE.SYSTEM.norm>
0

>  <SCORE.heavy>
16

>  <SCORE.norm>
-0.531068

>  <RMSD>
18.529

$$$$
ligand
 OpenBabel11021811463D
libRbt.so/2013.1/901 2013/11/27
 16 16  0  0  0  0  0  0  0  0999 V2000
   28.7582    2.4443    7.0517 P   0  0  2  0  0  0  0  0  0  0  0  0
   27.6856    1.4905    7.4270 O   0  0  0  0  0  0  0  0  0  0  0  0
   28.4906    3.0347    5.5782 O   0  5  0  0  0  0  0  0  0  0  0  0
   30.1807    1.6694    7.0462 O   0  0  0  0  0  0  0  0  0  0  0  0
   29.9739    6.5810   10.9483 C   0  0  2  0  0  0  0  0  0  0  0  0
   28.6165    7.0433   11.0072 O   0  0  0  0  0  0  0  0  0  0  0  0
   30.9435    7.7113   10.5010 C   0  0  2  0  0  0  0  0  0  0  0  0
   30.8418    8.8559   11.4330 N   0  0  0  0  0  0  0  0  0  0  0  0
   30.5587    8.1537    9.0734 C   0  0  1  0  0  0  0  0  0  0  0  0
   31.4484    9.1877    8.6168 O   0  0  0  0  0  0  0  0  0  0  0  0
   30.6690    6.9317    8.1499 C   0  0  2  0  0  0  0  0  0  0  0  0
   30.3023    7.3063    6.8146 O   0  0  0  0  0  0  0  0  0  0  0  0
   29.7028    5.8356    8.6719 C   0  0  2  0  0  0  0  0  0  0  0  0
   30.0606    5.4534   10.0313 O   0  0  0  0  0  0  0  0  0  0  0  0
   29.8017    4.5920    7.7713 C   0  0  0  0  0  0  0  0  0  0  0  0
   28.7619    3.6589    8.1171 O   0  0  0  0  0  0  0  0  0  0  0  0
  1  2  1  1  0  0  0
  1  3  1  0  0  0  0
  1  4  2  0  0  0  0
  1 16  1  0  0  0  0
  5  6  1  6  0  0  0
  5  7  1  0  0  0  0
  5 14  1  0  0  0  0
  7  8  1  1  0  0  0
  7  9  1  0  0  0  0
  9 10  1  6  0  0  0
  9 11  1  0  0  0  0
 11 12  1  6  0  0  0
 11 13  1  0  0  0  0
 13 14  1  0  0  0  0
 13 15  1  6  0  0  0
 15 16  1  0  0  0  0
M  CHG  1   3  -1
M  END
>  <CHROM.1>
-170.85483513,173.04508081,179.74251093,29.69595216,5.33162540,8.48129323
2.25745742,-1.13131962,-2.01908744

>  <Name>
ligand

>  <RI>
0

>  <Rbt.Current_Directory>
/home/itssahil/PROJECTS/Mol_Feturizer/New_Systems/rnas/3B4B

>  <Rbt.Executable>
rbdock ($Id: //depot/dev/client3/rdock/2013.1/src/exe/rbdock.cxx#4 $)

>  <Rbt.Library>
libRbt.so (2013.1, Build901 2013/11/27)

>  <Rbt.Parameter_File>
/export/apps/rDock/src/rDock_2013.1_src/data/scripts/dock_solv.prm

>  <Rbt.Receptor>
prm/blind_docking_40.prm

>  <SCORE>
-10.6532

>  <SCORE.INTER>
-9.28352

>  <SCORE.INTER.CONST>
1

>  <SCORE.INTER.POLAR>
0

>  <SCORE.INTER.ROT>
3

>  <SCORE.INTER.SOLV>
15.953

>  <SCORE.INTER.VDW>
-17.1067

>  <SCORE.INTER.norm>
-0.58022

>  <SCORE.INTRA>
-1.36966

>  <SCORE.INTRA.DIHEDRAL>
-1.68385

>  <SCORE.INTRA.DIHEDRAL.0>
2.21864

>  <SCORE.INTRA.POLAR>
0

>  <SCORE.INTRA.POLAR.0>
0

>  <SCORE.INTRA.REPUL>
0

>  <SCORE.INTRA.REPUL.0>
0

>  <SCORE.INTRA.SOLV>
-0.552613

>  <SCORE.INTRA.SOLV.lig_0>
-58.5963

>  <SCORE.INTRA.VDW>
-0.251425

>  <SCORE.INTRA.VDW.0>
-0.437849

>  <SCORE.INTRA.norm>
-0.0856036

>  <SCORE.RESTR>
0

>  <SCORE.RESTR.CAVITY>
0

>  <SCORE.RESTR.norm>
0

>  <SCORE.SYSTEM>
0

>  <SCORE.SYSTEM.CONST>
0

>  <SCORE.SYSTEM.DIHEDRAL>
0

>  <SCORE.SYSTEM.SOLV>
0

>  <SCORE.SYSTEM.norm>
0

>  <SCORE.heavy>
16

>  <SCORE.norm>
-0.665823

>  <RMSD>
18.534

$$$$
ligand
 OpenBabel11021811463D
libRbt.so/2013.1/901 2013/11/27
 16 16  0  0  0  0  0  0  0  0999 V2000
   28.7555    2.4517    7.0533 P   0  0  2  0  0  0  0  0  0  0  0  0
   27.6743    1.5023    7.4150 O   0  0  0  0  0  0  0  0  0  0  0  0
   28.5129    3.0378    5.5739 O   0  5  0  0  0  0  0  0  0  0  0  0
   30.1756    1.6726    7.0728 O   0  0  0  0  0  0  0  0  0  0  0  0
   29.9658    6.5955   10.9598 C   0  0  2  0  0  0  0  0  0  0  0  0
   28.6054    7.0491   11.0169 O   0  0  0  0  0  0  0  0  0  0  0  0
   30.9278    7.7299   10.5064 C   0  0  2  0  0  0  0  0  0  0  0  0
   30.8188    8.8785   11.4327 N   0  0  0  0  0  0  0  0  0  0  0  0
   30.5396    8.1625    9.0768 C   0  0  1  0  0  0  0  0  0  0  0  0
   31.4223    9.2000    8.6146 O   0  0  0  0  0  0  0  0  0  0  0  0
   30.6577    6.9366    8.1594 C   0  0  2  0  0  0  0  0  0  0  0  0
   30.2881    7.3019    6.8223 O   0  0  0  0  0  0  0  0  0  0  0  0
   29.6990    5.8368    8.6873 C   0  0  2  0  0  0  0  0  0  0  0  0
   30.0597    5.4639   10.0485 O   0  0  0  0  0  0  0  0  0  0  0  0
   29.8057    4.5892    7.7930 C   0  0  0  0  0  0  0  0  0  0  0  0
   28.7461    3.6699    8.1146 O   0  0  0  0  0  0  0  0  0  0  0  0
  1  2  1  1  0  0  0
  1  3  1  0  0  0  0
  1  4  2  0  0  0  0
  1 16  1  0  0  0  0
  5  6  1  6  0  0  0
  5  7  1  0  0  0  0
  5 14  1  0  0  0  0
  7  8  1  1  0  0  0
  7  9  1  0  0  0  0
  9 10  1  6  0  0  0
  9 11  1  0  0  0  0
 11 12  1  6  0  0  0
 11 13  1  0  0  0  0
 13 14  1  0  0  0  0
 13 15  1  6  0  0  0
 15 16  1  0  0  0  0
M  CHG  1   3  -1
M  END
>  <CHROM.1>
-169.01236795,173.08034227,178.95306792,29.68763315,5.33948182,8.48758230
2.25368519,-1.13368486,-2.02165950

>  <Name>
ligand

>  <RI>
0

>  <Rbt.Current_Directory>
/home/itssahil/PROJECTS/Mol_Feturizer/New_Systems/rnas/3B4B

>  <Rbt.Executable>
rbdock ($Id: //depot/dev/client3/rdock/2013.1/src/exe/rbdock.cxx#4 $)

>  <Rbt.Library>
libRbt.so (2013.1, Build901 2013/11/27)

>  <Rbt.Parameter_File>
/export/apps/rDock/src/rDock_2013.1_src/data/scripts/dock_solv.prm

>  <Rbt.Receptor>
prm/blind_docking_40.prm

>  <SCORE>
-10.6473

>  <SCORE.INTER>
-9.33434

>  <SCORE.INTER.CONST>
1

>  <SCORE.INTER.POLAR>
0

>  <SCORE.INTER.ROT>
3

>  <SCORE.INTER.SOLV>
15.825

>  <SCORE.INTER.VDW>
-17.0979

>  <SCORE.INTER.norm>
-0.583396

>  <SCORE.INTRA>
-1.31298

>  <SCORE.INTRA.DIHEDRAL>
-1.55648

>  <SCORE.INTRA.DIHEDRAL.0>
2.21864

>  <SCORE.INTRA.POLAR>
0

>  <SCORE.INTRA.POLAR.0>
0

>  <SCORE.INTRA.REPUL>
0

>  <SCORE.INTRA.REPUL.0>
0

>  <SCORE.INTRA.SOLV>
-0.558703

>  <SCORE.INTRA.SOLV.lig_0>
-58.5963

>  <SCORE.INTRA.VDW>
-0.255383

>  <SCORE.INTRA.VDW.0>
-0.437849

>  <SCORE.INTRA.norm>
-0.082061

>  <SCORE.RESTR>
0

>  <SCORE.RESTR.CAVITY>
0

>  <SCORE.RESTR.norm>
0

>  <SCORE.SYSTEM>
0

>  <SCORE.SYSTEM.CONST>
0

>  <SCORE.SYSTEM.DIHEDRAL>
0

>  <SCORE.SYSTEM.SOLV>
0

>  <SCORE.SYSTEM.norm>
0

>  <SCORE.heavy>
16

>  <SCORE.norm>
-0.665457

>  <RMSD>
18.537

$$$$
ligand
 OpenBabel11021811463D
libRbt.so/2013.1/901 2013/11/27
 16 16  0  0  0  0  0  0  0  0999 V2000
   28.7457    2.4315    7.0656 P   0  0  2  0  0  0  0  0  0  0  0  0
   27.6553    1.4963    7.4365 O   0  0  0  0  0  0  0  0  0  0  0  0
   28.4964    3.0233    5.5896 O   0  5  0  0  0  0  0  0  0  0  0  0
   30.1552    1.6330    7.0698 O   0  0  0  0  0  0  0  0  0  0  0  0
   29.9978    6.5866   10.9301 C   0  0  2  0  0  0  0  0  0  0  0  0
   28.6402    7.0463   11.0027 O   0  0  0  0  0  0  0  0  0  0  0  0
   30.9598    7.7170   10.4672 C   0  0  2  0  0  0  0  0  0  0  0  0
   30.8663    8.8653   11.3957 N   0  0  0  0  0  0  0  0  0  0  0  0
   30.5578    8.1528    9.0423 C   0  0  1  0  0  0  0  0  0  0  0  0
   31.4401    9.1868    8.5713 O   0  0  0  0  0  0  0  0  0  0  0  0
   30.6602    6.9273    8.1226 C   0  0  2  0  0  0  0  0  0  0  0  0
   30.2775    7.2955    6.7900 O   0  0  0  0  0  0  0  0  0  0  0  0
   29.7024    5.8313    8.6601 C   0  0  2  0  0  0  0  0  0  0  0  0
   30.0764    5.4554   10.0169 O   0  0  0  0  0  0  0  0  0  0  0  0
   29.7936    4.5842    7.7635 C   0  0  0  0  0  0  0  0  0  0  0  0
   28.7634    3.6478    8.1289 O   0  0  0  0  0  0  0  0  0  0  0  0
  1  2  1  1  0  0  0
  1  3  1  0  0  0  0
  1  4  2  0  0  0  0
  1 16  1  0  0  0  0
  5  6  1  6  0  0  0
  5  7  1  0  0  0  0
  5 14  1  0  0  0  0
  7  8  1  1  0  0  0
  7  9  1  0  0  0  0
  9 10  1  6  0  0  0
  9 11  1  0  0  0  0
 11 12  1  6  0  0  0
 11 13  1  0  0  0  0
 13 14  1  0  0  0  0
 13 15  1  6  0  0  0
 15 16  1  0  0  0  0
M  CHG  1   3  -1
M  END
>  <CHROM.1>
-171.10421400,172.82841151,-178.49363072,29.69421605,5.32641609,8.47212453
2.28026456,-1.13824166,-2.00273635

>  <Name>
ligand

>  <RI>
0

>  <Rbt.Current_Directory>
/home/itssahil/PROJECTS/Mol_Feturizer/New_Systems/rnas/3B4B

>  <Rbt.Executable>
rbdock ($Id: //depot/dev/client3/rdock/2013.1/src/exe/rbdock.cxx#4 $)

>  <Rbt.Library>
libRbt.so (2013.1, Build901 2013/11/27)

>  <Rbt.Parameter_File>
/export/apps/rDock/src/rDock_2013.1_src/data/scripts/dock_solv.prm

>  <Rbt.Receptor>
prm/blind_docking_80.prm

>  <SCORE>
-10.6662

>  <SCORE.INTER>
-9.30579

>  <SCORE.INTER.CONST>
1

>  <SCORE.INTER.POLAR>
0

>  <SCORE.INTER.ROT>
3

>  <SCORE.INTER.SOLV>
16.0327

>  <SCORE.INTER.VDW>
-17.1481

>  <SCORE.INTER.norm>
-0.581612

>  <SCORE.INTRA>
-1.36043

>  <SCORE.INTRA.DIHEDRAL>
-1.68067

>  <SCORE.INTRA.DIHEDRAL.0>
2.21864

>  <SCORE.INTRA.POLAR>
0

>  <SCORE.INTRA.POLAR.0>
0

>  <SCORE.INTRA.REPUL>
0

>  <SCORE.INTRA.REPUL.0>
0

>  <SCORE.INTRA.SOLV>
-0.552681

>  <SCORE.INTRA.SOLV.lig_0>
-58.5963

>  <SCORE.INTRA.VDW>
-0.243755

>  <SCORE.INTRA.VDW.0>
-0.437849

>  <SCORE.INTRA.norm>
-0.085027

>  <SCORE.RESTR>
0

>  <SCORE.RESTR.CAVITY>
0

>  <SCORE.RESTR.norm>
0

>  <SCORE.SYSTEM>
0

>  <SCORE.SYSTEM.CONST>
0

>  <SCORE.SYSTEM.DIHEDRAL>
0

>  <SCORE.SYSTEM.SOLV>
0

>  <SCORE.SYSTEM.norm>
0

>  <SCORE.heavy>
16

>  <SCORE.norm>
-0.666639

>  <RMSD>
18.540

$$$$
ligand
 OpenBabel11021811463D
libRbt.so/2013.1/901 2013/11/27
 16 16  0  0  0  0  0  0  0  0999 V2000
   28.7602    2.4427    7.0685 P   0  0  2  0  0  0  0  0  0  0  0  0
   27.6663    1.5016    7.4130 O   0  0  0  0  0  0  0  0  0  0  0  0
   28.5501    3.0238    5.5822 O   0  5  0  0  0  0  0  0  0  0  0  0
   30.1748    1.6548    7.1189 O   0  0  0  0  0  0  0  0  0  0  0  0
   29.9151    6.5956   10.9722 C   0  0  2  0  0  0  0  0  0  0  0  0
   28.5555    7.0536   11.0108 O   0  0  0  0  0  0  0  0  0  0  0  0
   30.8869    7.7270   10.5326 C   0  0  2  0  0  0  0  0  0  0  0  0
   30.7689    8.8757   11.4577 N   0  0  0  0  0  0  0  0  0  0  0  0
   30.5198    8.1614    9.0979 C   0  0  1  0  0  0  0  0  0  0  0  0
   31.4121    9.1962    8.6483 O   0  0  0  0  0  0  0  0  0  0  0  0
   30.6466    6.9354    8.1818 C   0  0  2  0  0  0  0  0  0  0  0  0
   30.2965    7.3024    6.8399 O   0  0  0  0  0  0  0  0  0  0  0  0
   29.6771    5.8385    8.6960 C   0  0  2  0  0  0  0  0  0  0  0  0
   30.0178    5.4640   10.0619 O   0  0  0  0  0  0  0  0  0  0  0  0
   29.7921    4.5910    7.8028 C   0  0  0  0  0  0  0  0  0  0  0  0
   28.7379    3.6654    8.1243 O   0  0  0  0  0  0  0  0  0  0  0  0
  1  2  1  1  0  0  0
  1  3  1  0  0  0  0
  1  4  2  0  0  0  0
  1 16  1  0  0  0  0
  5  6  1  6  0  0  0
  5  7  1  0  0  0  0
  5 14  1  0  0  0  0
  7  8  1  1  0  0  0
  7  9  1  0  0  0  0
  9 10  1  6  0  0  0
  9 11  1  0  0  0  0
 11 12  1  6  0  0  0
 11 13  1  0  0  0  0
 13 14  1  0  0  0  0
 13 15  1  6  0  0  0
 15 16  1  0  0  0  0
M  CHG  1   3  -1
M  END
>  <CHROM.1>
-169.92968812,173.36567398,-179.87099700,29.67256785,5.33587985,8.50372661
2.22626407,-1.12739074,-2.05008116

>  <Name>
ligand

>  <RI>
0

>  <Rbt.Current_Directory>
/home/itssahil/PROJECTS/Mol_Feturizer/New_Systems/rnas/3B4B

>  <Rbt.Executable>
rbdock ($Id: //depot/dev/client3/rdock/2013.1/src/exe/rbdock.cxx#4 $)

>  <Rbt.Library>
libRbt.so (2013.1, Build901 2013/11/27)

>  <Rbt.Parameter_File>
/export/apps/rDock/src/rDock_2013.1_src/data/scripts/dock_solv.prm

>  <Rbt.Receptor>
prm/blind_docking_40.prm

>  <SCORE>
-10.6239

>  <SCORE.INTER>
-9.27348

>  <SCORE.INTER.CONST>
1

>  <SCORE.INTER.POLAR>
0

>  <SCORE.INTER.ROT>
3

>  <SCORE.INTER.SOLV>
15.834

>  <SCORE.INTER.VDW>
-17.0603

>  <SCORE.INTER.norm>
-0.579593

>  <SCORE.INTRA>
-1.35041

>  <SCORE.INTRA.DIHEDRAL>
-1.64312

>  <SCORE.INTRA.DIHEDRAL.0>
2.21864

>  <SCORE.INTRA.POLAR>
0

>  <SCORE.INTRA.POLAR.0>
0

>  <SCORE.INTRA.REPUL>
0

>  <SCORE.INTRA.REPUL.0>
0

>  <SCORE.INTRA.SOLV>
-0.555429

>  <SCORE.INTRA.SOLV.lig_0>
-58.5963

>  <SCORE.INTRA.VDW>
-0.251142

>  <SCORE.INTRA.VDW.0>
-0.437849

>  <SCORE.INTRA.norm>
-0.0844009

>  <SCORE.RESTR>
0

>  <SCORE.RESTR.CAVITY>
0

>  <SCORE.RESTR.norm>
0

>  <SCORE.SYSTEM>
0

>  <SCORE.SYSTEM.CONST>
0

>  <SCORE.SYSTEM.DIHEDRAL>
0

>  <SCORE.SYSTEM.SOLV>
0

>  <SCORE.SYSTEM.norm>
0

>  <SCORE.heavy>
16

>  <SCORE.norm>
-0.663993

>  <RMSD>
18.549

$$$$
ligand
 OpenBabel11021811463D
libRbt.so/2013.1/901 2013/11/27
 16 16  0  0  0  0  0  0  0  0999 V2000
   31.7599    1.1926    6.8958 P   0  0  2  0  0  0  0  0  0  0  0  0
   30.9190    0.0205    7.2425 O   0  0  0  0  0  0  0  0  0  0  0  0
   31.6485    1.5145    5.3226 O   0  5  0  0  0  0  0  0  0  0  0  0
   33.3061    0.8596    7.2459 O   0  0  0  0  0  0  0  0  0  0  0  0
   29.0081    4.6198   10.5039 C   0  0  2  0  0  0  0  0  0  0  0  0
   27.5954    4.7717   10.3016 O   0  0  0  0  0  0  0  0  0  0  0  0
   29.7691    5.9501   10.2415 C   0  0  2  0  0  0  0  0  0  0  0  0
   29.2447    7.0104   11.1303 N   0  0  0  0  0  0  0  0  0  0  0  0
   29.5685    6.3489    8.7642 C   0  0  1  0  0  0  0  0  0  0  0  0
   30.2762    7.5681    8.4781 O   0  0  0  0  0  0  0  0  0  0  0  0
   30.1167    5.2147    7.8859 C   0  0  2  0  0  0  0  0  0  0  0  0
   29.9313    5.5479    6.5030 O   0  0  0  0  0  0  0  0  0  0  0  0
   29.3375    3.9157    8.2220 C   0  0  2  0  0  0  0  0  0  0  0  0
   29.5115    3.5722    9.6269 O   0  0  0  0  0  0  0  0  0  0  0  0
   29.8752    2.7571    7.3642 C   0  0  0  0  0  0  0  0  0  0  0  0
   31.2351    2.4683    7.7367 O   0  0  0  0  0  0  0  0  0  0  0  0
  1  2  1  1  0  0  0
  1  3  1  0  0  0  0
  1  4  2  0  0  0  0
  1 16  1  0  0  0  0
  5  6  1  6  0  0  0
  5  7  1  0  0  0  0
  5 14  1  0  0  0  0
  7  8  1  1  0  0  0
  7  9  1  0  0  0  0
  9 10  1  6  0  0  0
  9 11  1  0  0  0  0
 11 12  1  6  0  0  0
 11 13  1  0  0  0  0
 13 14  1  0  0  0  0
 13 15  1  6  0  0  0
 15 16  1  0  0  0  0
M  CHG  1   3  -1
M  END
>  <CHROM.1>
65.84917197,176.52190731,-61.88042990,30.33441243,3.70526087,8.19506802,0.72193682
-1.00815610,2.90655216

>  <Name>
ligand

>  <RI>
0

>  <Rbt.Current_Directory>
/home/itssahil/PROJECTS/Mol_Feturizer/New_Systems/rnas/3B4B

>  <Rbt.Executable>
rbdock ($Id: //depot/dev/client3/rdock/2013.1/src/exe/rbdock.cxx#4 $)

>  <Rbt.Library>
libRbt.so (2013.1, Build901 2013/11/27)

>  <Rbt.Parameter_File>
/export/apps/rDock/src/rDock_2013.1_src/data/scripts/dock_solv.prm

>  <Rbt.Receptor>
prm/blind_docking_40.prm

>  <SCORE>
-8.30933

>  <SCORE.INTER>
-6.65138

>  <SCORE.INTER.CONST>
1

>  <SCORE.INTER.POLAR>
0

>  <SCORE.INTER.ROT>
3

>  <SCORE.INTER.SOLV>
11.2115

>  <SCORE.INTER.VDW>
-13.7714

>  <SCORE.INTER.norm>
-0.415711

>  <SCORE.INTRA>
-1.65795

>  <SCORE.INTRA.DIHEDRAL>
-2.02964

>  <SCORE.INTRA.DIHEDRAL.0>
2.21864

>  <SCORE.INTRA.POLAR>
0

>  <SCORE.INTRA.POLAR.0>
0

>  <SCORE.INTRA.REPUL>
0

>  <SCORE.INTRA.REPUL.0>
0

>  <SCORE.INTRA.SOLV>
-0.910339

>  <SCORE.INTRA.SOLV.lig_0>
-58.5963

>  <SCORE.INTRA.VDW>
-0.18796

>  <SCORE.INTRA.VDW.0>
-0.437849

>  <SCORE.INTRA.norm>
-0.103622

>  <SCORE.RESTR>
0

>  <SCORE.RESTR.CAVITY>
0

>  <SCORE.RESTR.norm>
0

>  <SCORE.SYSTEM>
0

>  <SCORE.SYSTEM.CONST>
0

>  <SCORE.SYSTEM.DIHEDRAL>
0

>  <SCORE.SYSTEM.SOLV>
0

>  <SCORE.SYSTEM.norm>
0

>  <SCORE.heavy>
16

>  <SCORE.norm>
-0.519333

>  <RMSD>
18.581

$$$$
ligand
 OpenBabel11021811463D
libRbt.so/2013.1/901 2013/11/27
 16 16  0  0  0  0  0  0  0  0999 V2000
   30.3300    7.9942   10.2221 P   0  0  2  0  0  0  0  0  0  0  0  0
   31.5647    7.4112   10.8022 O   0  0  0  0  0  0  0  0  0  0  0  0
   30.3555    7.8736    8.6172 O   0  5  0  0  0  0  0  0  0  0  0  0
   30.2446    9.5621   10.6201 O   0  0  0  0  0  0  0  0  0  0  0  0
   30.6934    4.6942    7.4669 C   0  0  2  0  0  0  0  0  0  0  0  0
   29.9497    5.5837    6.6211 O   0  0  0  0  0  0  0  0  0  0  0  0
   30.1287    3.2467    7.4107 C   0  0  2  0  0  0  0  0  0  0  0  0
   30.1538    2.7534    6.0160 N   0  0  0  0  0  0  0  0  0  0  0  0
   28.6797    3.2626    7.9418 C   0  0  1  0  0  0  0  0  0  0  0  0
   28.1290    1.9338    7.9233 O   0  0  0  0  0  0  0  0  0  0  0  0
   28.7065    3.7911    9.3834 C   0  0  2  0  0  0  0  0  0  0  0  0
   27.3699    3.8330    9.9027 O   0  0  0  0  0  0  0  0  0  0  0  0
   29.3092    5.2207    9.3689 C   0  0  2  0  0  0  0  0  0  0  0  0
   30.6643    5.1916    8.8349 O   0  0  0  0  0  0  0  0  0  0  0  0
   29.3602    5.7717   10.8046 C   0  0  0  0  0  0  0  0  0  0  0  0
   29.0583    7.1789   10.7952 O   0  0  0  0  0  0  0  0  0  0  0  0
  1  2  1  1  0  0  0
  1  3  1  0  0  0  0
  1  4  2  0  0  0  0
  1 16  1  0  0  0  0
  5  6  1  6  0  0  0
  5  7  1  0  0  0  0
  5 14  1  0  0  0  0
  7  8  1  6  0  0  0
  7  9  1  0  0  0  0
  9 10  1  1  0  0  0
  9 11  1  0  0  0  0
 11 12  1  6  0  0  0
 11 13  1  0  0  0  0
 13 14  1  0  0  0  0
 13 15  1  1  0  0  0
 15 16  1  0  0  0  0
M  CHG  1   3  -1
M  END
>  <CHROM.1>
-142.80203382,-74.62493875,-41.84175084,29.71621288,5.58264960,9.04205726
-1.25280629,-0.83886967,-2.40523460

>  <Name>
ligand

>  <RI>
0

>  <Rbt.Current_Directory>
/home/itssahil/PROJECTS/Mol_Feturizer/New_Systems/rnas/3B4B

>  <Rbt.Executable>
rbdock ($Id: //depot/dev/client3/rdock/2013.1/src/exe/rbdock.cxx#4 $)

>  <Rbt.Library>
libRbt.so (2013.1, Build901 2013/11/27)

>  <Rbt.Parameter_File>
/export/apps/rDock/src/rDock_2013.1_src/data/scripts/dock_solv.prm

>  <Rbt.Receptor>
prm/blind_docking_100.prm

>  <SCORE>
-6.98448

>  <SCORE.INTER>
-9.77403

>  <SCORE.INTER.CONST>
1

>  <SCORE.INTER.POLAR>
0

>  <SCORE.INTER.ROT>
3

>  <SCORE.INTER.SOLV>
11.513

>  <SCORE.INTER.VDW>
-15.9537

>  <SCORE.INTER.norm>
-0.610877

>  <SCORE.INTRA>
2.78955

>  <SCORE.INTRA.DIHEDRAL>
2.90752

>  <SCORE.INTRA.DIHEDRAL.0>
2.21864

>  <SCORE.INTRA.POLAR>
0

>  <SCORE.INTRA.POLAR.0>
0

>  <SCORE.INTRA.REPUL>
0

>  <SCORE.INTRA.REPUL.0>
0

>  <SCORE.INTRA.SOLV>
2.81742

>  <SCORE.INTRA.SOLV.lig_0>
-58.5963

>  <SCORE.INTRA.VDW>
-0.0729218

>  <SCORE.INTRA.VDW.0>
-0.437849

>  <SCORE.INTRA.norm>
0.174347

>  <SCORE.RESTR>
0

>  <SCORE.RESTR.CAVITY>
0

>  <SCORE.RESTR.norm>
0

>  <SCORE.SYSTEM>
0

>  <SCORE.SYSTEM.CONST>
0

>  <SCORE.SYSTEM.DIHEDRAL>
0

>  <SCORE.SYSTEM.SOLV>
0

>  <SCORE.SYSTEM.norm>
0

>  <SCORE.heavy>
16

>  <SCORE.norm>
-0.43653

>  <RMSD>
18.626

$$$$
ligand
 OpenBabel11021811463D
libRbt.so/2013.1/901 2013/11/27
 16 16  0  0  0  0  0  0  0  0999 V2000
   26.5417    9.2733   14.9194 P   0  0  2  0  0  0  0  0  0  0  0  0
   27.1060   10.5362   15.4559 O   0  0  0  0  0  0  0  0  0  0  0  0
   25.3098    9.5868   13.9318 O   0  5  0  0  0  0  0  0  0  0  0  0
   25.9995    8.3687   16.1491 O   0  0  0  0  0  0  0  0  0  0  0  0
   29.1122    6.8190   10.4504 C   0  0  2  0  0  0  0  0  0  0  0  0
   30.0241    6.0196   11.2179 O   0  0  0  0  0  0  0  0  0  0  0  0
   29.8633    7.7326    9.4411 C   0  0  2  0  0  0  0  0  0  0  0  0
   30.6909    6.9046    8.5363 N   0  0  0  0  0  0  0  0  0  0  0  0
   30.7580    8.7096   10.2329 C   0  0  1  0  0  0  0  0  0  0  0  0
   31.4559    9.5865    9.3311 O   0  0  0  0  0  0  0  0  0  0  0  0
   29.8560    9.5350   11.1621 C   0  0  2  0  0  0  0  0  0  0  0  0
   30.6604   10.4450   11.9257 O   0  0  0  0  0  0  0  0  0  0  0  0
   29.1154    8.5612   12.1164 C   0  0  2  0  0  0  0  0  0  0  0  0
   28.3017    7.6262   11.3511 O   0  0  0  0  0  0  0  0  0  0  0  0
   28.1929    9.3611   13.0526 C   0  0  0  0  0  0  0  0  0  0  0  0
   27.6984    8.5022   14.0963 O   0  0  0  0  0  0  0  0  0  0  0  0
  1  2  1  1  0  0  0
  1  3  1  0  0  0  0
  1  4  2  0  0  0  0
  1 16  1  0  0  0  0
  5  6  1  1  0  0  0
  5  7  1  0  0  0  0
  5 14  1  0  0  0  0
  7  8  1  6  0  0  0
  7  9  1  0  0  0  0
  9 10  1  6  0  0  0
  9 11  1  0  0  0  0
 11 12  1  1  0  0  0
 11 13  1  0  0  0  0
 13 14  1  0  0  0  0
 13 15  1  1  0  0  0
 15 16  1  0  0  0  0
M  CHG  1   3  -1
M  END
>  <CHROM.1>
-169.27993840,-170.35586817,-57.43861630,28.59280594,8.66480379,12.35752271
2.57224452,0.77445787,0.49821180

>  <Name>
ligand

>  <RI>
0

>  <Rbt.Current_Directory>
/home/itssahil/PROJECTS/Mol_Feturizer/New_Systems/rnas/3B4B

>  <Rbt.Executable>
rbdock ($Id: //depot/dev/client3/rdock/2013.1/src/exe/rbdock.cxx#4 $)

>  <Rbt.Library>
libRbt.so (2013.1, Build901 2013/11/27)

>  <Rbt.Parameter_File>
/export/apps/rDock/src/rDock_2013.1_src/data/scripts/dock_solv.prm

>  <Rbt.Receptor>
prm/blind_docking_40.prm

>  <SCORE>
-8.11953

>  <SCORE.INTER>
-6.81684

>  <SCORE.INTER.CONST>
1

>  <SCORE.INTER.POLAR>
0

>  <SCORE.INTER.ROT>
3

>  <SCORE.INTER.SOLV>
13.3472

>  <SCORE.INTER.VDW>
-14.5936

>  <SCORE.INTER.norm>
-0.426053

>  <SCORE.INTRA>
-1.30269

>  <SCORE.INTRA.DIHEDRAL>
-1.35081

>  <SCORE.INTRA.DIHEDRAL.0>
2.21864

>  <SCORE.INTRA.POLAR>
0

>  <SCORE.INTRA.POLAR.0>
0

>  <SCORE.INTRA.REPUL>
0

>  <SCORE.INTRA.REPUL.0>
0

>  <SCORE.INTRA.SOLV>
-1.11184

>  <SCORE.INTRA.SOLV.lig_0>
-58.5963

>  <SCORE.INTRA.VDW>
-0.0713661

>  <SCORE.INTRA.VDW.0>
-0.437849

>  <SCORE.INTRA.norm>
-0.0814181

>  <SCORE.RESTR>
0

>  <SCORE.RESTR.CAVITY>
0

>  <SCORE.RESTR.norm>
0

>  <SCORE.SYSTEM>
0

>  <SCORE.SYSTEM.CONST>
0

>  <SCORE.SYSTEM.DIHEDRAL>
0

>  <SCORE.SYSTEM.SOLV>
0

>  <SCORE.SYSTEM.norm>
0

>  <SCORE.heavy>
16

>  <SCORE.norm>
-0.507471

>  <RMSD>
18.631

$$$$
ligand
 OpenBabel11021811463D
libRbt.so/2013.1/901 2013/11/27
 16 16  0  0  0  0  0  0  0  0999 V2000
   28.8190    9.7386   12.1442 P   0  0  2  0  0  0  0  0  0  0  0  0
   29.8043   10.8075   12.4405 O   0  0  0  0  0  0  0  0  0  0  0  0
   27.5366   10.3538   11.3907 O   0  5  0  0  0  0  0  0  0  0  0  0
   28.3277    9.0683   13.5347 O   0  0  0  0  0  0  0  0  0  0  0  0
   30.8449    5.5414    8.7483 C   0  0  2  0  0  0  0  0  0  0  0  0
   30.3332    6.1917    7.5757 O   0  0  0  0  0  0  0  0  0  0  0  0
   30.2492    4.1150    8.9164 C   0  0  2  0  0  0  0  0  0  0  0  0
   30.5514    3.3019    7.7178 N   0  0  0  0  0  0  0  0  0  0  0  0
   28.7222    4.2381    9.1029 C   0  0  1  0  0  0  0  0  0  0  0  0
   28.1368    2.9363    9.2816 O   0  0  0  0  0  0  0  0  0  0  0  0
   28.4621    5.0973   10.3489 C   0  0  2  0  0  0  0  0  0  0  0  0
   27.0483    5.2444   10.5423 O   0  0  0  0  0  0  0  0  0  0  0  0
   29.1092    6.4899   10.1262 C   0  0  2  0  0  0  0  0  0  0  0  0
   30.5446    6.3520    9.9199 O   0  0  0  0  0  0  0  0  0  0  0  0
   28.8749    7.3698   11.3665 C   0  0  0  0  0  0  0  0  0  0  0  0
   29.5216    8.6430   11.1870 O   0  0  0  0  0  0  0  0  0  0  0  0
  1  2  1  1  0  0  0
  1  3  1  0  0  0  0
  1  4  2  0  0  0  0
  1 16  1  0  0  0  0
  5  6  1  6  0  0  0
  5  7  1  0  0  0  0
  5 14  1  0  0  0  0
  7  8  1  6  0  0  0
  7  9  1  0  0  0  0
  9 10  1  1  0  0  0
  9 11  1  0  0  0  0
 11 12  1  6  0  0  0
 11 13  1  0  0  0  0
 13 14  1  0  0  0  0
 13 15  1  1  0  0  0
 15 16  1  0  0  0  0
M  CHG  1   3  -1
M  END
>  <CHROM.1>
177.60133308,157.37949944,154.22133346,29.13288839,6.88832450,10.44299538
-1.71159073,-0.60913510,-2.66723478

>  <Name>
ligand

>  <RI>
0

>  <Rbt.Current_Directory>
/home/itssahil/PROJECTS/Mol_Feturizer/New_Systems/rnas/3B4B

>  <Rbt.Executable>
rbdock ($Id: //depot/dev/client3/rdock/2013.1/src/exe/rbdock.cxx#4 $)

>  <Rbt.Library>
libRbt.so (2013.1, Build901 2013/11/27)

>  <Rbt.Parameter_File>
/export/apps/rDock/src/rDock_2013.1_src/data/scripts/dock_solv.prm

>  <Rbt.Receptor>
prm/blind_docking_60.prm

>  <SCORE>
-7.90912

>  <SCORE.INTER>
-8.2079

>  <SCORE.INTER.CONST>
1

>  <SCORE.INTER.POLAR>
0

>  <SCORE.INTER.ROT>
3

>  <SCORE.INTER.SOLV>
18.5574

>  <SCORE.INTER.VDW>
-17.2577

>  <SCORE.INTER.norm>
-0.512994

>  <SCORE.INTRA>
0.29878

>  <SCORE.INTRA.DIHEDRAL>
0.977192

>  <SCORE.INTRA.DIHEDRAL.0>
2.21864

>  <SCORE.INTRA.POLAR>
0

>  <SCORE.INTRA.POLAR.0>
0

>  <SCORE.INTRA.REPUL>
0

>  <SCORE.INTRA.REPUL.0>
0

>  <SCORE.INTRA.SOLV>
-0.487901

>  <SCORE.INTRA.SOLV.lig_0>
-58.5963

>  <SCORE.INTRA.VDW>
0.0541341

>  <SCORE.INTRA.VDW.0>
-0.437849

>  <SCORE.INTRA.norm>
0.0186737

>  <SCORE.RESTR>
0

>  <SCORE.RESTR.CAVITY>
0

>  <SCORE.RESTR.norm>
0

>  <SCORE.SYSTEM>
0

>  <SCORE.SYSTEM.CONST>
0

>  <SCORE.SYSTEM.DIHEDRAL>
0

>  <SCORE.SYSTEM.SOLV>
0

>  <SCORE.SYSTEM.norm>
0

>  <SCORE.heavy>
16

>  <SCORE.norm>
-0.49432

>  <RMSD>
18.650

$$$$
ligand
 OpenBabel11021811463D
libRbt.so/2013.1/901 2013/11/27
 16 16  0  0  0  0  0  0  0  0999 V2000
   28.9121    4.2447    9.4372 P   0  0  2  0  0  0  0  0  0  0  0  0
   27.8328    4.0261   10.4314 O   0  0  0  0  0  0  0  0  0  0  0  0
   28.6627    3.3355    8.1325 O   0  5  0  0  0  0  0  0  0  0  0  0
   30.3325    3.8257   10.0938 O   0  0  0  0  0  0  0  0  0  0  0  0
   28.4742    9.0051    6.3003 C   0  0  2  0  0  0  0  0  0  0  0  0
   29.5067    9.2443    5.3326 O   0  0  0  0  0  0  0  0  0  0  0  0
   28.5223   10.0442    7.4559 C   0  0  2  0  0  0  0  0  0  0  0  0
   28.3893   11.4112    6.9056 N   0  0  0  0  0  0  0  0  0  0  0  0
   29.8699    9.8981    8.1936 C   0  0  1  0  0  0  0  0  0  0  0  0
   29.9432   10.8326    9.2847 O   0  0  0  0  0  0  0  0  0  0  0  0
   29.9640    8.4638    8.7343 C   0  0  2  0  0  0  0  0  0  0  0  0
   31.2151    8.2896    9.4142 O   0  0  0  0  0  0  0  0  0  0  0  0
   29.8769    7.4827    7.5354 C   0  0  2  0  0  0  0  0  0  0  0  0
   28.6134    7.6567    6.8317 O   0  0  0  0  0  0  0  0  0  0  0  0
   29.9559    6.0346    8.0494 C   0  0  0  0  0  0  0  0  0  0  0  0
   28.9072    5.8020    9.0073 O   0  0  0  0  0  0  0  0  0  0  0  0
  1  2  1  1  0  0  0
  1  3  1  0  0  0  0
  1  4  2  0  0  0  0
  1 16  1  0  0  0  0
  5  6  1  6  0  0  0
  5  7  1  0  0  0  0
  5 14  1  0  0  0  0
  7  8  1  6  0  0  0
  7  9  1  0  0  0  0
  9 10  1  1  0  0  0
  9 11  1  0  0  0  0
 11 12  1  6  0  0  0
 11 13  1  0  0  0  0
 13 14  1  0  0  0  0
 13 15  1  1  0  0  0
 15 16  1  0  0  0  0
M  CHG  1   3  -1
M  END
>  <CHROM.1>
56.96169851,174.75861458,179.57200921,29.28787671,7.17417586,8.31395383,1.66097539
1.09159477,2.72231153

>  <Name>
ligand

>  <RI>
0

>  <Rbt.Current_Directory>
/home/itssahil/PROJECTS/Mol_Feturizer/New_Systems/rnas/3B4B

>  <Rbt.Executable>
rbdock ($Id: //depot/dev/client3/rdock/2013.1/src/exe/rbdock.cxx#4 $)

>  <Rbt.Library>
libRbt.so (2013.1, Build901 2013/11/27)

>  <Rbt.Parameter_File>
/export/apps/rDock/src/rDock_2013.1_src/data/scripts/dock_solv.prm

>  <Rbt.Receptor>
prm/blind_docking_100.prm

>  <SCORE>
-6.75057

>  <SCORE.INTER>
-5.29887

>  <SCORE.INTER.CONST>
1

>  <SCORE.INTER.POLAR>
0

>  <SCORE.INTER.ROT>
3

>  <SCORE.INTER.SOLV>
15.7989

>  <SCORE.INTER.VDW>
-14.3989

>  <SCORE.INTER.norm>
-0.331179

>  <SCORE.INTRA>
-1.45171

>  <SCORE.INTRA.DIHEDRAL>
-2.05032

>  <SCORE.INTRA.DIHEDRAL.0>
2.21864

>  <SCORE.INTRA.POLAR>
0

>  <SCORE.INTRA.POLAR.0>
0

>  <SCORE.INTRA.REPUL>
0

>  <SCORE.INTRA.REPUL.0>
0

>  <SCORE.INTRA.SOLV>
-0.252225

>  <SCORE.INTRA.SOLV.lig_0>
-58.5963

>  <SCORE.INTRA.VDW>
-0.300435

>  <SCORE.INTRA.VDW.0>
-0.437849

>  <SCORE.INTRA.norm>
-0.0907316

>  <SCORE.RESTR>
0

>  <SCORE.RESTR.CAVITY>
0

>  <SCORE.RESTR.norm>
0

>  <SCORE.SYSTEM>
0

>  <SCORE.SYSTEM.CONST>
0

>  <SCORE.SYSTEM.DIHEDRAL>
0

>  <SCORE.SYSTEM.SOLV>
0

>  <SCORE.SYSTEM.norm>
0

>  <SCORE.heavy>
16

>  <SCORE.norm>
-0.421911

>  <RMSD>
18.663

$$$$
ligand
 OpenBabel11021811463D
libRbt.so/2013.1/901 2013/11/27
 16 16  0  0  0  0  0  0  0  0999 V2000
   28.8668    2.2332    6.8740 P   0  0  2  0  0  0  0  0  0  0  0  0
   27.9028    1.5945    7.8034 O   0  0  0  0  0  0  0  0  0  0  0  0
   28.3443    2.1116    5.3563 O   0  5  0  0  0  0  0  0  0  0  0  0
   30.2958    1.4790    6.9893 O   0  0  0  0  0  0  0  0  0  0  0  0
   29.9608    6.8161   10.9234 C   0  0  2  0  0  0  0  0  0  0  0  0
   28.6212    7.3297   10.8866 O   0  0  0  0  0  0  0  0  0  0  0  0
   30.9332    7.6961   10.0880 C   0  0  2  0  0  0  0  0  0  0  0  0
   30.9129    9.0855   10.5963 N   0  0  0  0  0  0  0  0  0  0  0  0
   30.4817    7.6642    8.6126 C   0  0  1  0  0  0  0  0  0  0  0  0
   31.3714    8.4536    7.8035 O   0  0  0  0  0  0  0  0  0  0  0  0
   30.5092    6.2042    8.1374 C   0  0  2  0  0  0  0  0  0  0  0  0
   30.0791    6.1375    6.7704 O   0  0  0  0  0  0  0  0  0  0  0  0
   29.5452    5.3807    9.0318 C   0  0  2  0  0  0  0  0  0  0  0  0
   29.9674    5.4484   10.4244 O   0  0  0  0  0  0  0  0  0  0  0  0
   29.5618    3.9082    8.5859 C   0  0  0  0  0  0  0  0  0  0  0  0
   29.0005    3.7950    7.2654 O   0  0  0  0  0  0  0  0  0  0  0  0
  1  2  1  1  0  0  0
  1  3  1  0  0  0  0
  1  4  2  0  0  0  0
  1 16  1  0  0  0  0
  5  6  1  6  0  0  0
  5  7  1  0  0  0  0
  5 14  1  0  0  0  0
  7  8  1  1  0  0  0
  7  9  1  0  0  0  0
  9 10  1  6  0  0  0
  9 11  1  0  0  0  0
 11 12  1  6  0  0  0
 11 13  1  0  0  0  0
 13 14  1  0  0  0  0
 13 15  1  6  0  0  0
 15 16  1  0  0  0  0
M  CHG  1   3  -1
M  END
>  <CHROM.1>
-66.24837709,-173.60409565,63.97041417,29.68061001,5.04707121,8.34485357
2.12513462,-1.10550641,-2.14829317

>  <Name>
ligand

>  <RI>
0

>  <Rbt.Current_Directory>
/home/itssahil/PROJECTS/Mol_Feturizer/New_Systems/rnas/3B4B

>  <Rbt.Executable>
rbdock ($Id: //depot/dev/client3/rdock/2013.1/src/exe/rbdock.cxx#4 $)

>  <Rbt.Library>
libRbt.so (2013.1, Build901 2013/11/27)

>  <Rbt.Parameter_File>
/export/apps/rDock/src/rDock_2013.1_src/data/scripts/dock_solv.prm

>  <Rbt.Receptor>
prm/blind_docking_60.prm

>  <SCORE>
-10.6567

>  <SCORE.INTER>
-9.38146

>  <SCORE.INTER.CONST>
1

>  <SCORE.INTER.POLAR>
0

>  <SCORE.INTER.ROT>
3

>  <SCORE.INTER.SOLV>
15.7261

>  <SCORE.INTER.VDW>
-17.0963

>  <SCORE.INTER.norm>
-0.586341

>  <SCORE.INTRA>
-1.27525

>  <SCORE.INTRA.DIHEDRAL>
-1.85203

>  <SCORE.INTRA.DIHEDRAL.0>
2.21864

>  <SCORE.INTRA.POLAR>
0

>  <SCORE.INTRA.POLAR.0>
0

>  <SCORE.INTRA.REPUL>
0

>  <SCORE.INTRA.REPUL.0>
0

>  <SCORE.INTRA.SOLV>
-0.753224

>  <SCORE.INTRA.SOLV.lig_0>
-58.5963

>  <SCORE.INTRA.VDW>
0.0273787

>  <SCORE.INTRA.VDW.0>
-0.437849

>  <SCORE.INTRA.norm>
-0.0797029

>  <SCORE.RESTR>
0

>  <SCORE.RESTR.CAVITY>
0

>  <SCORE.RESTR.norm>
0

>  <SCORE.SYSTEM>
0

>  <SCORE.SYSTEM.CONST>
0

>  <SCORE.SYSTEM.DIHEDRAL>
0

>  <SCORE.SYSTEM.SOLV>
0

>  <SCORE.SYSTEM.norm>
0

>  <SCORE.heavy>
16

>  <SCORE.norm>
-0.666044

>  <RMSD>
18.680

$$$$
ligand
 OpenBabel11021811463D
libRbt.so/2013.1/901 2013/11/27
 16 16  0  0  0  0  0  0  0  0999 V2000
   28.8732    2.2467    6.8848 P   0  0  2  0  0  0  0  0  0  0  0  0
   27.9029    1.5911    7.7957 O   0  0  0  0  0  0  0  0  0  0  0  0
   28.3744    2.1294    5.3588 O   0  5  0  0  0  0  0  0  0  0  0  0
   30.3087    1.5076    7.0163 O   0  0  0  0  0  0  0  0  0  0  0  0
   29.9658    6.8332   10.9387 C   0  0  2  0  0  0  0  0  0  0  0  0
   28.6259    7.3471   10.9265 O   0  0  0  0  0  0  0  0  0  0  0  0
   30.9218    7.7101   10.0815 C   0  0  2  0  0  0  0  0  0  0  0  0
   30.9118    9.1012   10.5855 N   0  0  0  0  0  0  0  0  0  0  0  0
   30.4415    7.6736    8.6153 C   0  0  1  0  0  0  0  0  0  0  0  0
   31.3153    8.4600    7.7863 O   0  0  0  0  0  0  0  0  0  0  0  0
   30.4592    6.2119    8.1445 C   0  0  2  0  0  0  0  0  0  0  0  0
   30.0023    6.1409    6.7865 O   0  0  0  0  0  0  0  0  0  0  0  0
   29.5128    5.3917    9.0604 C   0  0  2  0  0  0  0  0  0  0  0  0
   29.9624    5.4638   10.4442 O   0  0  0  0  0  0  0  0  0  0  0  0
   29.5203    3.9177    8.6191 C   0  0  0  0  0  0  0  0  0  0  0  0
   28.9836    3.8072    7.2883 O   0  0  0  0  0  0  0  0  0  0  0  0
  1  2  1  1  0  0  0
  1  3  1  0  0  0  0
  1  4  2  0  0  0  0
  1 16  1  0  0  0  0
  5  6  1  6  0  0  0
  5  7  1  0  0  0  0
  5 14  1  0  0  0  0
  7  8  1  1  0  0  0
  7  9  1  0  0  0  0
  9 10  1  6  0  0  0
  9 11  1  0  0  0  0
 11 12  1  6  0  0  0
 11 13  1  0  0  0  0
 13 14  1  0  0  0  0
 13 15  1  6  0  0  0
 15 16  1  0  0  0  0
M  CHG  1   3  -1
M  END
>  <CHROM.1>
-63.90440338,-175.00222968,63.79639934,29.66556205,5.05939201,8.35642010
2.13490444,-1.12184004,-2.13497087

>  <Name>
ligand

>  <RI>
0

>  <Rbt.Current_Directory>
/home/itssahil/PROJECTS/Mol_Feturizer/New_Systems/rnas/3B4B

>  <Rbt.Executable>
rbdock ($Id: //depot/dev/client3/rdock/2013.1/src/exe/rbdock.cxx#4 $)

>  <Rbt.Library>
libRbt.so (2013.1, Build901 2013/11/27)

>  <Rbt.Parameter_File>
/export/apps/rDock/src/rDock_2013.1_src/data/scripts/dock_solv.prm

>  <Rbt.Receptor>
prm/blind_docking_40.prm

>  <SCORE>
-10.615

>  <SCORE.INTER>
-9.33323

>  <SCORE.INTER.CONST>
1

>  <SCORE.INTER.POLAR>
0

>  <SCORE.INTER.ROT>
3

>  <SCORE.INTER.SOLV>
15.5379

>  <SCORE.INTER.VDW>
-17.0015

>  <SCORE.INTER.norm>
-0.583327

>  <SCORE.INTRA>
-1.2818

>  <SCORE.INTRA.DIHEDRAL>
-2.01643

>  <SCORE.INTRA.DIHEDRAL.0>
2.21864

>  <SCORE.INTRA.POLAR>
0

>  <SCORE.INTRA.POLAR.0>
0

>  <SCORE.INTRA.REPUL>
0

>  <SCORE.INTRA.REPUL.0>
0

>  <SCORE.INTRA.SOLV>
-0.715827

>  <SCORE.INTRA.SOLV.lig_0>
-58.5963

>  <SCORE.INTRA.VDW>
0.0843311

>  <SCORE.INTRA.VDW.0>
-0.437849

>  <SCORE.INTRA.norm>
-0.0801123

>  <SCORE.RESTR>
0

>  <SCORE.RESTR.CAVITY>
0

>  <SCORE.RESTR.norm>
0

>  <SCORE.SYSTEM>
0

>  <SCORE.SYSTEM.CONST>
0

>  <SCORE.SYSTEM.DIHEDRAL>
0

>  <SCORE.SYSTEM.SOLV>
0

>  <SCORE.SYSTEM.norm>
0

>  <SCORE.heavy>
16

>  <SCORE.norm>
-0.663439

>  <RMSD>
18.686

$$$$
ligand
 OpenBabel11021811463D
libRbt.so/2013.1/901 2013/11/27
 16 16  0  0  0  0  0  0  0  0999 V2000
   28.8750    2.2525    6.8717 P   0  0  2  0  0  0  0  0  0  0  0  0
   27.9067    1.5995    7.7867 O   0  0  0  0  0  0  0  0  0  0  0  0
   28.3634    2.1475    5.3491 O   0  5  0  0  0  0  0  0  0  0  0  0
   30.3056    1.5016    6.9879 O   0  0  0  0  0  0  0  0  0  0  0  0
   29.8983    6.8021   10.9819 C   0  0  2  0  0  0  0  0  0  0  0  0
   28.5642    7.3284   10.9266 O   0  0  0  0  0  0  0  0  0  0  0  0
   30.8916    7.6764   10.1656 C   0  0  2  0  0  0  0  0  0  0  0  0
   30.8763    9.0638   10.6795 N   0  0  0  0  0  0  0  0  0  0  0  0
   30.4629    7.6550    8.6832 C   0  0  1  0  0  0  0  0  0  0  0  0
   31.3723    8.4394    7.8914 O   0  0  0  0  0  0  0  0  0  0  0  0
   30.4842    6.1968    8.2021 C   0  0  2  0  0  0  0  0  0  0  0  0
   30.0748    6.1399    6.8284 O   0  0  0  0  0  0  0  0  0  0  0  0
   29.4988    5.3786    9.0780 C   0  0  2  0  0  0  0  0  0  0  0  0
   29.9000    5.4365   10.4772 O   0  0  0  0  0  0  0  0  0  0  0  0
   29.5087    3.9079    8.6259 C   0  0  0  0  0  0  0  0  0  0  0  0
   29.0007    3.8098    7.2829 O   0  0  0  0  0  0  0  0  0  0  0  0
  1  2  1  1  0  0  0
  1  3  1  0  0  0  0
  1  4  2  0  0  0  0
  1 16  1  0  0  0  0
  5  6  1  6  0  0  0
  5  7  1  0  0  0  0
  5 14  1  0  0  0  0
  7  8  1  1  0  0  0
  7  9  1  0  0  0  0
  9 10  1  6  0  0  0
  9 11  1  0  0  0  0
 11 12  1  6  0  0  0
 11 13  1  0  0  0  0
 13 14  1  0  0  0  0
 13 15  1  6  0  0  0
 15 16  1  0  0  0  0
M  CHG  1   3  -1
M  END
>  <CHROM.1>
-64.69756766,-174.33904049,61.97914200,29.66056801,5.04888373,8.38246667
2.09109954,-1.09215658,-2.16958607

>  <Name>
ligand

>  <RI>
0

>  <Rbt.Current_Directory>
/home/itssahil/PROJECTS/Mol_Feturizer/New_Systems/rnas/3B4B

>  <Rbt.Executable>
rbdock ($Id: //depot/dev/client3/rdock/2013.1/src/exe/rbdock.cxx#4 $)

>  <Rbt.Library>
libRbt.so (2013.1, Build901 2013/11/27)

>  <Rbt.Parameter_File>
/export/apps/rDock/src/rDock_2013.1_src/data/scripts/dock_solv.prm

>  <Rbt.Receptor>
prm/blind_docking_40.prm

>  <SCORE>
-10.6315

>  <SCORE.INTER>
-9.35643

>  <SCORE.INTER.CONST>
1

>  <SCORE.INTER.POLAR>
0

>  <SCORE.INTER.ROT>
3

>  <SCORE.INTER.SOLV>
15.6648

>  <SCORE.INTER.VDW>
-17.0592

>  <SCORE.INTER.norm>
-0.584777

>  <SCORE.INTRA>
-1.27503

>  <SCORE.INTRA.DIHEDRAL>
-1.97535

>  <SCORE.INTRA.DIHEDRAL.0>
2.21864

>  <SCORE.INTRA.POLAR>
0

>  <SCORE.INTRA.POLAR.0>
0

>  <SCORE.INTRA.REPUL>
0

>  <SCORE.INTRA.REPUL.0>
0

>  <SCORE.INTRA.SOLV>
-0.749244

>  <SCORE.INTRA.SOLV.lig_0>
-58.5963

>  <SCORE.INTRA.VDW>
0.0872611

>  <SCORE.INTRA.VDW.0>
-0.437849

>  <SCORE.INTRA.norm>
-0.0796896

>  <SCORE.RESTR>
0

>  <SCORE.RESTR.CAVITY>
0

>  <SCORE.RESTR.norm>
0

>  <SCORE.SYSTEM>
0

>  <SCORE.SYSTEM.CONST>
0

>  <SCORE.SYSTEM.DIHEDRAL>
0

>  <SCORE.SYSTEM.SOLV>
0

>  <SCORE.SYSTEM.norm>
0

>  <SCORE.heavy>
16

>  <SCORE.norm>
-0.664466

>  <RMSD>
18.688

$$$$
ligand
 OpenBabel11021811463D
libRbt.so/2013.1/901 2013/11/27
 16 16  0  0  0  0  0  0  0  0999 V2000
   28.8696    2.2404    6.8705 P   0  0  2  0  0  0  0  0  0  0  0  0
   27.8791    1.6266    7.7887 O   0  0  0  0  0  0  0  0  0  0  0  0
   28.3632    2.1289    5.3466 O   0  5  0  0  0  0  0  0  0  0  0  0
   30.2785    1.4522    7.0046 O   0  0  0  0  0  0  0  0  0  0  0  0
   29.9577    6.8192   10.9341 C   0  0  2  0  0  0  0  0  0  0  0  0
   28.6222    7.3442   10.9105 O   0  0  0  0  0  0  0  0  0  0  0  0
   30.9275    7.6861   10.0822 C   0  0  2  0  0  0  0  0  0  0  0  0
   30.9252    9.0784   10.5828 N   0  0  0  0  0  0  0  0  0  0  0  0
   30.4580    7.6500    8.6125 C   0  0  1  0  0  0  0  0  0  0  0  0
   31.3446    8.4271    7.7883 O   0  0  0  0  0  0  0  0  0  0  0  0
   30.4671    6.1871    8.1452 C   0  0  2  0  0  0  0  0  0  0  0  0
   30.0200    6.1166    6.7839 O   0  0  0  0  0  0  0  0  0  0  0  0
   29.5070    5.3770    9.0558 C   0  0  2  0  0  0  0  0  0  0  0  0
   29.9466    5.4487   10.4428 O   0  0  0  0  0  0  0  0  0  0  0  0
   29.5056    3.9019    8.6180 C   0  0  0  0  0  0  0  0  0  0  0  0
   29.0359    3.7991    7.2614 O   0  0  0  0  0  0  0  0  0  0  0  0
  1  2  1  1  0  0  0
  1  3  1  0  0  0  0
  1  4  2  0  0  0  0
  1 16  1  0  0  0  0
  5  6  1  6  0  0  0
  5  7  1  0  0  0  0
  5 14  1  0  0  0  0
  7  8  1  1  0  0  0
  7  9  1  0  0  0  0
  9 10  1  6  0  0  0
  9 11  1  0  0  0  0
 11 12  1  6  0  0  0
 11 13  1  0  0  0  0
 13 14  1  0  0  0  0
 13 15  1  6  0  0  0
 15 16  1  0  0  0  0
M  CHG  1   3  -1
M  END
>  <CHROM.1>
-61.27222027,-173.27640505,60.46004158,29.66681201,5.04466572,8.34908155
2.12661357,-1.11161030,-2.14210612

>  <Name>
ligand

>  <RI>
0

>  <Rbt.Current_Directory>
/home/itssahil/PROJECTS/Mol_Feturizer/New_Systems/rnas/3B4B

>  <Rbt.Executable>
rbdock ($Id: //depot/dev/client3/rdock/2013.1/src/exe/rbdock.cxx#4 $)

>  <Rbt.Library>
libRbt.so (2013.1, Build901 2013/11/27)

>  <Rbt.Parameter_File>
/export/apps/rDock/src/rDock_2013.1_src/data/scripts/dock_solv.prm

>  <Rbt.Receptor>
prm/blind_docking_40.prm

>  <SCORE>
-10.5987

>  <SCORE.INTER>
-9.4447

>  <SCORE.INTER.CONST>
1

>  <SCORE.INTER.POLAR>
0

>  <SCORE.INTER.ROT>
3

>  <SCORE.INTER.SOLV>
15.7131

>  <SCORE.INTER.VDW>
-17.1342

>  <SCORE.INTER.norm>
-0.590294

>  <SCORE.INTRA>
-1.15399

>  <SCORE.INTRA.DIHEDRAL>
-1.99117

>  <SCORE.INTRA.DIHEDRAL.0>
2.21864

>  <SCORE.INTRA.POLAR>
0

>  <SCORE.INTRA.POLAR.0>
0

>  <SCORE.INTRA.REPUL>
0

>  <SCORE.INTRA.REPUL.0>
0

>  <SCORE.INTRA.SOLV>
-0.741709

>  <SCORE.INTRA.SOLV.lig_0>
-58.5963

>  <SCORE.INTRA.VDW>
0.212449

>  <SCORE.INTRA.VDW.0>
-0.437849

>  <SCORE.INTRA.norm>
-0.0721242

>  <SCORE.RESTR>
0

>  <SCORE.RESTR.CAVITY>
0

>  <SCORE.RESTR.norm>
0

>  <SCORE.SYSTEM>
0

>  <SCORE.SYSTEM.CONST>
0

>  <SCORE.SYSTEM.DIHEDRAL>
0

>  <SCORE.SYSTEM.SOLV>
0

>  <SCORE.SYSTEM.norm>
0

>  <SCORE.heavy>
16

>  <SCORE.norm>
-0.662418

>  <RMSD>
18.693

$$$$
ligand
 OpenBabel11021811463D
libRbt.so/2013.1/901 2013/11/27
 16 16  0  0  0  0  0  0  0  0999 V2000
   28.8720    2.2336    6.8642 P   0  0  2  0  0  0  0  0  0  0  0  0
   27.8849    1.6213    7.7871 O   0  0  0  0  0  0  0  0  0  0  0  0
   28.3587    2.1217    5.3426 O   0  5  0  0  0  0  0  0  0  0  0  0
   30.2807    1.4442    6.9925 O   0  0  0  0  0  0  0  0  0  0  0  0
   29.9247    6.7965   10.9477 C   0  0  2  0  0  0  0  0  0  0  0  0
   28.5811    7.2999   10.9173 O   0  0  0  0  0  0  0  0  0  0  0  0
   30.8876    7.6873   10.1128 C   0  0  2  0  0  0  0  0  0  0  0  0
   30.8582    9.0744   10.6269 N   0  0  0  0  0  0  0  0  0  0  0  0
   30.4316    7.6580    8.6387 C   0  0  1  0  0  0  0  0  0  0  0  0
   31.3125    8.4575    7.8300 O   0  0  0  0  0  0  0  0  0  0  0  0
   30.4687    6.2002    8.1575 C   0  0  2  0  0  0  0  0  0  0  0  0
   30.0347    6.1358    6.7917 O   0  0  0  0  0  0  0  0  0  0  0  0
   29.5140    5.3656    9.0516 C   0  0  2  0  0  0  0  0  0  0  0  0
   29.9403    5.4308   10.4431 O   0  0  0  0  0  0  0  0  0  0  0  0
   29.5405    3.8951    8.5996 C   0  0  0  0  0  0  0  0  0  0  0  0
   29.0415    3.7924    7.2535 O   0  0  0  0  0  0  0  0  0  0  0  0
  1  2  1  1  0  0  0
  1  3  1  0  0  0  0
  1  4  2  0  0  0  0
  1 16  1  0  0  0  0
  5  6  1  6  0  0  0
  5  7  1  0  0  0  0
  5 14  1  0  0  0  0
  7  8  1  1  0  0  0
  7  9  1  0  0  0  0
  9 10  1  6  0  0  0
  9 11  1  0  0  0  0
 11 12  1  6  0  0  0
 11 13  1  0  0  0  0
 13 14  1  0  0  0  0
 13 15  1  6  0  0  0
 15 16  1  0  0  0  0
M  CHG  1   3  -1
M  END
>  <CHROM.1>
-63.21954518,-171.89470641,61.50567344,29.65710483,5.04009706,8.35576593
2.11557875,-1.11537689,-2.14869154

>  <Name>
ligand

>  <RI>
0

>  <Rbt.Current_Directory>
/home/itssahil/PROJECTS/Mol_Feturizer/New_Systems/rnas/3B4B

>  <Rbt.Executable>
rbdock ($Id: //depot/dev/client3/rdock/2013.1/src/exe/rbdock.cxx#4 $)

>  <Rbt.Library>
libRbt.so (2013.1, Build901 2013/11/27)

>  <Rbt.Parameter_File>
/export/apps/rDock/src/rDock_2013.1_src/data/scripts/dock_solv.prm

>  <Rbt.Receptor>
prm/blind_docking_40.prm

>  <SCORE>
-10.615

>  <SCORE.INTER>
-9.45138

>  <SCORE.INTER.CONST>
1

>  <SCORE.INTER.POLAR>
0

>  <SCORE.INTER.ROT>
3

>  <SCORE.INTER.SOLV>
15.6568

>  <SCORE.INTER.VDW>
-17.1198

>  <SCORE.INTER.norm>
-0.590711

>  <SCORE.INTRA>
-1.16357

>  <SCORE.INTRA.DIHEDRAL>
-1.85764

>  <SCORE.INTRA.DIHEDRAL.0>
2.21864

>  <SCORE.INTRA.POLAR>
0

>  <SCORE.INTRA.POLAR.0>
0

>  <SCORE.INTRA.REPUL>
0

>  <SCORE.INTRA.REPUL.0>
0

>  <SCORE.INTRA.SOLV>
-0.764355

>  <SCORE.INTRA.SOLV.lig_0>
-58.5963

>  <SCORE.INTRA.VDW>
0.147424

>  <SCORE.INTRA.VDW.0>
-0.437849

>  <SCORE.INTRA.norm>
-0.0727232

>  <SCORE.RESTR>
0

>  <SCORE.RESTR.CAVITY>
0

>  <SCORE.RESTR.norm>
0

>  <SCORE.SYSTEM>
0

>  <SCORE.SYSTEM.CONST>
0

>  <SCORE.SYSTEM.DIHEDRAL>
0

>  <SCORE.SYSTEM.SOLV>
0

>  <SCORE.SYSTEM.norm>
0

>  <SCORE.heavy>
16

>  <SCORE.norm>
-0.663435

>  <RMSD>
18.699

$$$$
ligand
 OpenBabel11021811463D
libRbt.so/2013.1/901 2013/11/27
 16 16  0  0  0  0  0  0  0  0999 V2000
   28.8238    2.3205    6.8847 P   0  0  2  0  0  0  0  0  0  0  0  0
   27.8428    1.6303    7.7578 O   0  0  0  0  0  0  0  0  0  0  0  0
   28.3369    2.2744    5.3512 O   0  5  0  0  0  0  0  0  0  0  0  0
   30.2544    1.5684    6.9943 O   0  0  0  0  0  0  0  0  0  0  0  0
   29.8434    6.7202   11.1602 C   0  0  2  0  0  0  0  0  0  0  0  0
   28.5188    7.2705   11.1114 O   0  0  0  0  0  0  0  0  0  0  0  0
   30.8577    7.6022   10.3787 C   0  0  2  0  0  0  0  0  0  0  0  0
   30.8616    8.9731   10.9352 N   0  0  0  0  0  0  0  0  0  0  0  0
   30.4403    7.6338    8.8932 C   0  0  1  0  0  0  0  0  0  0  0  0
   31.3690    8.4267    8.1329 O   0  0  0  0  0  0  0  0  0  0  0  0
   30.4409    6.1910    8.3674 C   0  0  2  0  0  0  0  0  0  0  0  0
   30.0415    6.1835    6.9896 O   0  0  0  0  0  0  0  0  0  0  0  0
   29.4351    5.3630    9.2102 C   0  0  2  0  0  0  0  0  0  0  0  0
   29.8261    5.3709   10.6134 O   0  0  0  0  0  0  0  0  0  0  0  0
   29.4239    3.9070    8.7129 C   0  0  0  0  0  0  0  0  0  0  0  0
   28.9390    3.8608    7.3586 O   0  0  0  0  0  0  0  0  0  0  0  0
  1  2  1  1  0  0  0
  1  3  1  0  0  0  0
  1  4  2  0  0  0  0
  1 16  1  0  0  0  0
  5  6  1  6  0  0  0
  5  7  1  0  0  0  0
  5 14  1  0  0  0  0
  7  8  1  1  0  0  0
  7  9  1  0  0  0  0
  9 10  1  6  0  0  0
  9 11  1  0  0  0  0
 11 12  1  6  0  0  0
 11 13  1  0  0  0  0
 13 14  1  0  0  0  0
 13 15  1  6  0  0  0
 15 16  1  0  0  0  0
M  CHG  1   3  -1
M  END
>  <CHROM.1>
-64.05906416,-175.70195035,61.91705877,29.61466695,5.05350337,8.49898568
2.08172821,-1.07674494,-2.14336502

>  <Name>
ligand

>  <RI>
0

>  <Rbt.Current_Directory>
/home/itssahil/PROJECTS/Mol_Feturizer/New_Systems/rnas/3B4B

>  <Rbt.Executable>
rbdock ($Id: //depot/dev/client3/rdock/2013.1/src/exe/rbdock.cxx#4 $)

>  <Rbt.Library>
libRbt.so (2013.1, Build901 2013/11/27)

>  <Rbt.Parameter_File>
/export/apps/rDock/src/rDock_2013.1_src/data/scripts/dock_solv.prm

>  <Rbt.Receptor>
prm/blind_docking_80.prm

>  <SCORE>
-10.5863

>  <SCORE.INTER>
-9.29886

>  <SCORE.INTER.CONST>
1

>  <SCORE.INTER.POLAR>
0

>  <SCORE.INTER.ROT>
3

>  <SCORE.INTER.SOLV>
16.3644

>  <SCORE.INTER.VDW>
-17.254

>  <SCORE.INTER.norm>
-0.581179

>  <SCORE.INTRA>
-1.28743

>  <SCORE.INTRA.DIHEDRAL>
-2.06193

>  <SCORE.INTRA.DIHEDRAL.0>
2.21864

>  <SCORE.INTRA.POLAR>
0

>  <SCORE.INTRA.POLAR.0>
0

>  <SCORE.INTRA.REPUL>
0

>  <SCORE.INTRA.REPUL.0>
0

>  <SCORE.INTRA.SOLV>
-0.728058

>  <SCORE.INTRA.SOLV.lig_0>
-58.5963

>  <SCORE.INTRA.VDW>
0.107563

>  <SCORE.INTRA.VDW.0>
-0.437849

>  <SCORE.INTRA.norm>
-0.0804645

>  <SCORE.RESTR>
0

>  <SCORE.RESTR.CAVITY>
0

>  <SCORE.RESTR.norm>
0

>  <SCORE.SYSTEM>
0

>  <SCORE.SYSTEM.CONST>
0

>  <SCORE.SYSTEM.DIHEDRAL>
0

>  <SCORE.SYSTEM.SOLV>
0

>  <SCORE.SYSTEM.norm>
0

>  <SCORE.heavy>
16

>  <SCORE.norm>
-0.661643

>  <RMSD>
18.700

$$$$
ligand
 OpenBabel11021811463D
libRbt.so/2013.1/901 2013/11/27
 16 16  0  0  0  0  0  0  0  0999 V2000
   28.7952    2.2245    6.7906 P   0  0  2  0  0  0  0  0  0  0  0  0
   27.7398    1.6029    7.6277 O   0  0  0  0  0  0  0  0  0  0  0  0
   28.3753    2.1795    5.2373 O   0  5  0  0  0  0  0  0  0  0  0  0
   30.1761    1.3980    6.9757 O   0  0  0  0  0  0  0  0  0  0  0  0
   29.8702    6.6156   11.0566 C   0  0  2  0  0  0  0  0  0  0  0  0
   28.5544    7.1847   10.9894 O   0  0  0  0  0  0  0  0  0  0  0  0
   30.9073    7.4821   10.2877 C   0  0  2  0  0  0  0  0  0  0  0  0
   30.9233    8.8536   10.8426 N   0  0  0  0  0  0  0  0  0  0  0  0
   30.5103    7.5176    8.7967 C   0  0  1  0  0  0  0  0  0  0  0  0
   31.4602    8.2961    8.0479 O   0  0  0  0  0  0  0  0  0  0  0  0
   30.4973    6.0741    8.2727 C   0  0  2  0  0  0  0  0  0  0  0  0
   30.1162    6.0704    6.8897 O   0  0  0  0  0  0  0  0  0  0  0  0
   29.4686    5.2618    9.1029 C   0  0  2  0  0  0  0  0  0  0  0  0
   29.8410    5.2660   10.5112 O   0  0  0  0  0  0  0  0  0  0  0  0
   29.4433    3.8054    8.6072 C   0  0  0  0  0  0  0  0  0  0  0  0
   28.9733    3.7639    7.2475 O   0  0  0  0  0  0  0  0  0  0  0  0
  1  2  1  1  0  0  0
  1  3  1  0  0  0  0
  1  4  2  0  0  0  0
  1 16  1  0  0  0  0
  5  6  1  6  0  0  0
  5  7  1  0  0  0  0
  5 14  1  0  0  0  0
  7  8  1  1  0  0  0
  7  9  1  0  0  0  0
  9 10  1  6  0  0  0
  9 11  1  0  0  0  0
 11 12  1  6  0  0  0
 11 13  1  0  0  0  0
 13 14  1  0  0  0  0
 13 15  1  6  0  0  0
 15 16  1  0  0  0  0
M  CHG  1   3  -1
M  END
>  <CHROM.1>
-64.17785218,-173.81377101,63.88270820,29.63471153,4.94825179,8.40124843
2.09097107,-1.05528316,-2.13971434

>  <Name>
ligand

>  <RI>
0

>  <Rbt.Current_Directory>
/home/itssahil/PROJECTS/Mol_Feturizer/New_Systems/rnas/3B4B

>  <Rbt.Executable>
rbdock ($Id: //depot/dev/client3/rdock/2013.1/src/exe/rbdock.cxx#4 $)

>  <Rbt.Library>
libRbt.so (2013.1, Build901 2013/11/27)

>  <Rbt.Parameter_File>
/export/apps/rDock/src/rDock_2013.1_src/data/scripts/dock_solv.prm

>  <Rbt.Receptor>
prm/blind_docking_40.prm

>  <SCORE>
-10.6486

>  <SCORE.INTER>
-9.40762

>  <SCORE.INTER.CONST>
1

>  <SCORE.INTER.POLAR>
0

>  <SCORE.INTER.ROT>
3

>  <SCORE.INTER.SOLV>
16.8706

>  <SCORE.INTER.VDW>
-17.4953

>  <SCORE.INTER.norm>
-0.587976

>  <SCORE.INTRA>
-1.24103

>  <SCORE.INTRA.DIHEDRAL>
-1.94278

>  <SCORE.INTRA.DIHEDRAL.0>
2.21864

>  <SCORE.INTRA.POLAR>
0

>  <SCORE.INTRA.POLAR.0>
0

>  <SCORE.INTRA.REPUL>
0

>  <SCORE.INTRA.REPUL.0>
0

>  <SCORE.INTRA.SOLV>
-0.730706

>  <SCORE.INTRA.SOLV.lig_0>
-58.5963

>  <SCORE.INTRA.VDW>
0.0957135

>  <SCORE.INTRA.VDW.0>
-0.437849

>  <SCORE.INTRA.norm>
-0.0775642

>  <SCORE.RESTR>
0

>  <SCORE.RESTR.CAVITY>
0

>  <SCORE.RESTR.norm>
0

>  <SCORE.SYSTEM>
0

>  <SCORE.SYSTEM.CONST>
0

>  <SCORE.SYSTEM.DIHEDRAL>
0

>  <SCORE.SYSTEM.SOLV>
0

>  <SCORE.SYSTEM.norm>
0

>  <SCORE.heavy>
16

>  <SCORE.norm>
-0.66554

>  <RMSD>
18.740

$$$$
ligand
 OpenBabel11021811463D
libRbt.so/2013.1/901 2013/11/27
 16 16  0  0  0  0  0  0  0  0999 V2000
   36.0602   -2.0605    6.8920 P   0  0  2  0  0  0  0  0  0  0  0  0
   37.5251   -1.8437    6.8015 O   0  0  0  0  0  0  0  0  0  0  0  0
   35.6383   -2.4016    8.4075 O   0  5  0  0  0  0  0  0  0  0  0  0
   35.6486   -3.3110    5.9482 O   0  0  0  0  0  0  0  0  0  0  0  0
   33.0639    2.1720    4.4204 C   0  0  2  0  0  0  0  0  0  0  0  0
   33.3172    3.1380    5.4511 O   0  0  0  0  0  0  0  0  0  0  0  0
   31.5398    1.9532    4.2044 C   0  0  2  0  0  0  0  0  0  0  0  0
   30.8936    3.2386    3.8590 N   0  0  0  0  0  0  0  0  0  0  0  0
   30.9342    1.3879    5.5065 C   0  0  1  0  0  0  0  0  0  0  0  0
   29.5249    1.1535    5.3384 O   0  0  0  0  0  0  0  0  0  0  0  0
   31.6439    0.0642    5.8266 C   0  0  2  0  0  0  0  0  0  0  0  0
   31.1136   -0.4813    7.0428 O   0  0  0  0  0  0  0  0  0  0  0  0
   33.1593    0.3506    5.9966 C   0  0  2  0  0  0  0  0  0  0  0  0
   33.7071    0.9134    4.7697 O   0  0  0  0  0  0  0  0  0  0  0  0
   33.8991   -0.9626    6.3061 C   0  0  0  0  0  0  0  0  0  0  0  0
   35.3106   -0.7078    6.4244 O   0  0  0  0  0  0  0  0  0  0  0  0
  1  2  1  6  0  0  0
  1  3  1  0  0  0  0
  1  4  2  0  0  0  0
  1 16  1  0  0  0  0
  5  6  1  1  0  0  0
  5  7  1  0  0  0  0
  5 14  1  0  0  0  0
  7  8  1  1  0  0  0
  7  9  1  0  0  0  0
  9 10  1  6  0  0  0
  9 11  1  0  0  0  0
 11 12  1  1  0  0  0
 11 13  1  0  0  0  0
 13 14  1  0  0  0  0
 13 15  1  6  0  0  0
 15 16  1  0  0  0  0
M  CHG  1   3  -1
M  END
>  <CHROM.1>
178.26834025,174.46555426,171.14463525,33.56247918,-0.04535963,5.93733486
-0.75279467,0.07069589,-0.53376992

>  <Name>
ligand

>  <RI>
0

>  <Rbt.Current_Directory>
/home/itssahil/PROJECTS/Mol_Feturizer/New_Systems/rnas/3B4B

>  <Rbt.Executable>
rbdock ($Id: //depot/dev/client3/rdock/2013.1/src/exe/rbdock.cxx#4 $)

>  <Rbt.Library>
libRbt.so (2013.1, Build901 2013/11/27)

>  <Rbt.Parameter_File>
/export/apps/rDock/src/rDock_2013.1_src/data/scripts/dock_solv.prm

>  <Rbt.Receptor>
prm/blind_docking_60.prm

>  <SCORE>
-1.52888

>  <SCORE.INTER>
-0.0952221

>  <SCORE.INTER.CONST>
1

>  <SCORE.INTER.POLAR>
0

>  <SCORE.INTER.ROT>
3

>  <SCORE.INTER.SOLV>
10.1766

>  <SCORE.INTER.VDW>
-9.05569

>  <SCORE.INTER.norm>
-0.00595138

>  <SCORE.INTRA>
-1.43365

>  <SCORE.INTRA.DIHEDRAL>
-1.93319

>  <SCORE.INTRA.DIHEDRAL.0>
2.21864

>  <SCORE.INTRA.POLAR>
0

>  <SCORE.INTRA.POLAR.0>
0

>  <SCORE.INTRA.REPUL>
0

>  <SCORE.INTRA.REPUL.0>
0

>  <SCORE.INTRA.SOLV>
-0.517147

>  <SCORE.INTRA.SOLV.lig_0>
-58.5963

>  <SCORE.INTRA.VDW>
-0.208486

>  <SCORE.INTRA.VDW.0>
-0.437849

>  <SCORE.INTRA.norm>
-0.0896034

>  <SCORE.RESTR>
0

>  <SCORE.RESTR.CAVITY>
0

>  <SCORE.RESTR.norm>
0

>  <SCORE.SYSTEM>
0

>  <SCORE.SYSTEM.CONST>
0

>  <SCORE.SYSTEM.DIHEDRAL>
0

>  <SCORE.SYSTEM.SOLV>
0

>  <SCORE.SYSTEM.norm>
0

>  <SCORE.heavy>
16

>  <SCORE.norm>
-0.0955548

>  <RMSD>
18.800

$$$$
ligand
 OpenBabel11021811463D
libRbt.so/2013.1/901 2013/11/27
 16 16  0  0  0  0  0  0  0  0999 V2000
   28.5756    9.3402   12.2583 P   0  0  2  0  0  0  0  0  0  0  0  0
   28.6114    8.6391   13.5653 O   0  0  0  0  0  0  0  0  0  0  0  0
   29.4251   10.7054   12.3330 O   0  5  0  0  0  0  0  0  0  0  0  0
   27.0405    9.7075   11.8939 O   0  0  0  0  0  0  0  0  0  0  0  0
   30.7896    5.4441    8.6310 C   0  0  2  0  0  0  0  0  0  0  0  0
   30.2823    6.1126    7.4667 O   0  0  0  0  0  0  0  0  0  0  0  0
   30.2662    3.9830    8.7243 C   0  0  2  0  0  0  0  0  0  0  0  0
   30.6505    3.2349    7.5070 N   0  0  0  0  0  0  0  0  0  0  0  0
   28.7294    4.0184    8.8622 C   0  0  1  0  0  0  0  0  0  0  0  0
   28.2093    2.6817    8.9712 O   0  0  0  0  0  0  0  0  0  0  0  0
   28.3831    4.8129   10.1300 C   0  0  2  0  0  0  0  0  0  0  0  0
   26.9579    4.8779   10.2797 O   0  0  0  0  0  0  0  0  0  0  0  0
   28.9614    6.2451    9.9827 C   0  0  2  0  0  0  0  0  0  0  0  0
   30.4082    6.1909    9.8212 O   0  0  0  0  0  0  0  0  0  0  0  0
   28.6399    7.0618   11.2465 C   0  0  0  0  0  0  0  0  0  0  0  0
   29.2236    8.3729   11.1382 O   0  0  0  0  0  0  0  0  0  0  0  0
  1  2  1  1  0  0  0
  1  3  1  0  0  0  0
  1  4  2  0  0  0  0
  1 16  1  0  0  0  0
  5  6  1  6  0  0  0
  5  7  1  0  0  0  0
  5 14  1  0  0  0  0
  7  8  1  6  0  0  0
  7  9  1  0  0  0  0
  9 10  1  1  0  0  0
  9 11  1  0  0  0  0
 11 12  1  6  0  0  0
 11 13  1  0  0  0  0
 13 14  1  0  0  0  0
 13 15  1  1  0  0  0
 15 16  1  0  0  0  0
M  CHG  1   3  -1
M  END
>  <CHROM.1>
177.56518176,165.33935807,48.55766531,29.01261911,6.62146717,10.36590258
-1.75164551,-0.59102438,-2.63196542

>  <Name>
ligand

>  <RI>
0

>  <Rbt.Current_Directory>
/home/itssahil/PROJECTS/Mol_Feturizer/New_Systems/rnas/3B4B

>  <Rbt.Executable>
rbdock ($Id: //depot/dev/client3/rdock/2013.1/src/exe/rbdock.cxx#4 $)

>  <Rbt.Library>
libRbt.so (2013.1, Build901 2013/11/27)

>  <Rbt.Parameter_File>
/export/apps/rDock/src/rDock_2013.1_src/data/scripts/dock_solv.prm

>  <Rbt.Receptor>
prm/blind_docking_40.prm

>  <SCORE>
-8.50981

>  <SCORE.INTER>
-7.53157

>  <SCORE.INTER.CONST>
1

>  <SCORE.INTER.POLAR>
0

>  <SCORE.INTER.ROT>
3

>  <SCORE.INTER.SOLV>
17.763

>  <SCORE.INTER.VDW>
-16.542

>  <SCORE.INTER.norm>
-0.470723

>  <SCORE.INTRA>
-0.978246

>  <SCORE.INTRA.DIHEDRAL>
-0.981568

>  <SCORE.INTRA.DIHEDRAL.0>
2.21864

>  <SCORE.INTRA.POLAR>
0

>  <SCORE.INTRA.POLAR.0>
0

>  <SCORE.INTRA.REPUL>
0

>  <SCORE.INTRA.REPUL.0>
0

>  <SCORE.INTRA.SOLV>
-1.24457

>  <SCORE.INTRA.SOLV.lig_0>
-58.5963

>  <SCORE.INTRA.VDW>
0.134822

>  <SCORE.INTRA.VDW.0>
-0.437849

>  <SCORE.INTRA.norm>
-0.0611403

>  <SCORE.RESTR>
0

>  <SCORE.RESTR.CAVITY>
0

>  <SCORE.RESTR.norm>
0

>  <SCORE.SYSTEM>
0

>  <SCORE.SYSTEM.CONST>
0

>  <SCORE.SYSTEM.DIHEDRAL>
0

>  <SCORE.SYSTEM.SOLV>
0

>  <SCORE.SYSTEM.norm>
0

>  <SCORE.heavy>
16

>  <SCORE.norm>
-0.531863

>  <RMSD>
18.833

$$$$
ligand
 OpenBabel11021811463D
libRbt.so/2013.1/901 2013/11/27
 16 16  0  0  0  0  0  0  0  0999 V2000
   30.3041    8.1949   10.3621 P   0  0  2  0  0  0  0  0  0  0  0  0
   31.1250    7.5509   11.4169 O   0  0  0  0  0  0  0  0  0  0  0  0
   30.9727    9.5860    9.9050 O   0  5  0  0  0  0  0  0  0  0  0  0
   28.8268    8.5019   10.9516 O   0  0  0  0  0  0  0  0  0  0  0  0
   30.4752    3.9951    6.3800 C   0  0  2  0  0  0  0  0  0  0  0  0
   29.6034    4.6907    5.4768 O   0  0  0  0  0  0  0  0  0  0  0  0
   29.8971    2.6074    6.7771 C   0  0  2  0  0  0  0  0  0  0  0  0
   29.6757    1.7914    5.5629 N   0  0  0  0  0  0  0  0  0  0  0  0
   28.5625    2.8247    7.5210 C   0  0  1  0  0  0  0  0  0  0  0  0
   28.0058    1.5605    7.9225 O   0  0  0  0  0  0  0  0  0  0  0  0
   28.8435    3.6835    8.7627 C   0  0  2  0  0  0  0  0  0  0  0  0
   27.6177    3.9174    9.4703 O   0  0  0  0  0  0  0  0  0  0  0  0
   29.4466    5.0348    8.2962 C   0  0  2  0  0  0  0  0  0  0  0  0
   30.6881    4.8088    7.5685 O   0  0  0  0  0  0  0  0  0  0  0  0
   29.7506    5.9128    9.5227 C   0  0  0  0  0  0  0  0  0  0  0  0
   30.2278    7.2002    9.0913 O   0  0  0  0  0  0  0  0  0  0  0  0
  1  2  1  1  0  0  0
  1  3  1  0  0  0  0
  1  4  2  0  0  0  0
  1 16  1  0  0  0  0
  5  6  1  6  0  0  0
  5  7  1  0  0  0  0
  5 14  1  0  0  0  0
  7  8  1  6  0  0  0
  7  9  1  0  0  0  0
  9 10  1  1  0  0  0
  9 11  1  0  0  0  0
 11 12  1  6  0  0  0
 11 13  1  0  0  0  0
 13 14  1  0  0  0  0
 13 15  1  1  0  0  0
 15 16  1  0  0  0  0
M  CHG  1   3  -1
M  END
>  <CHROM.1>
-176.24378654,170.43630538,54.21991745,29.67602955,5.40715276,8.61788537
-1.30457744,-0.87123472,-2.36797304

>  <Name>
ligand

>  <RI>
0

>  <Rbt.Current_Directory>
/home/itssahil/PROJECTS/Mol_Feturizer/New_Systems/rnas/3B4B

>  <Rbt.Executable>
rbdock ($Id: //depot/dev/client3/rdock/2013.1/src/exe/rbdock.cxx#4 $)

>  <Rbt.Library>
libRbt.so (2013.1, Build901 2013/11/27)

>  <Rbt.Parameter_File>
/export/apps/rDock/src/rDock_2013.1_src/data/scripts/dock_solv.prm

>  <Rbt.Receptor>
prm/blind_docking_40.prm

>  <SCORE>
-9.21086

>  <SCORE.INTER>
-7.74577

>  <SCORE.INTER.CONST>
1

>  <SCORE.INTER.POLAR>
0

>  <SCORE.INTER.ROT>
3

>  <SCORE.INTER.SOLV>
10.7297

>  <SCORE.INTER.VDW>
-14.3404

>  <SCORE.INTER.norm>
-0.48411

>  <SCORE.INTRA>
-1.46509

>  <SCORE.INTRA.DIHEDRAL>
-1.67178

>  <SCORE.INTRA.DIHEDRAL.0>
2.21864

>  <SCORE.INTRA.POLAR>
0

>  <SCORE.INTRA.POLAR.0>
0

>  <SCORE.INTRA.REPUL>
0

>  <SCORE.INTRA.REPUL.0>
0

>  <SCORE.INTRA.SOLV>
-1.23385

>  <SCORE.INTRA.SOLV.lig_0>
-58.5963

>  <SCORE.INTRA.VDW>
-0.0122771

>  <SCORE.INTRA.VDW.0>
-0.437849

>  <SCORE.INTRA.norm>
-0.0915684

>  <SCORE.RESTR>
0

>  <SCORE.RESTR.CAVITY>
0

>  <SCORE.RESTR.norm>
0

>  <SCORE.SYSTEM>
0

>  <SCORE.SYSTEM.CONST>
0

>  <SCORE.SYSTEM.DIHEDRAL>
0

>  <SCORE.SYSTEM.SOLV>
0

>  <SCORE.SYSTEM.norm>
0

>  <SCORE.heavy>
16

>  <SCORE.norm>
-0.575679

>  <RMSD>
18.882

$$$$
ligand
 OpenBabel11021811463D
libRbt.so/2013.1/901 2013/11/27
 16 16  0  0  0  0  0  0  0  0999 V2000
   30.2772    8.2469   10.3435 P   0  0  2  0  0  0  0  0  0  0  0  0
   31.1460    7.6181   11.3685 O   0  0  0  0  0  0  0  0  0  0  0  0
   30.9036    9.6503    9.8646 O   0  5  0  0  0  0  0  0  0  0  0  0
   28.8158    8.5264   10.9843 O   0  0  0  0  0  0  0  0  0  0  0  0
   30.4680    4.0206    6.3971 C   0  0  2  0  0  0  0  0  0  0  0  0
   29.5909    4.6974    5.4848 O   0  0  0  0  0  0  0  0  0  0  0  0
   29.9042    2.6307    6.8068 C   0  0  2  0  0  0  0  0  0  0  0  0
   29.6947    1.8001    5.6004 N   0  0  0  0  0  0  0  0  0  0  0  0
   28.5654    2.8408    7.5453 C   0  0  1  0  0  0  0  0  0  0  0  0
   28.0216    1.5747    7.9582 O   0  0  0  0  0  0  0  0  0  0  0  0
   28.8340    3.7151    8.7790 C   0  0  2  0  0  0  0  0  0  0  0  0
   27.6040    3.9427    9.4813 O   0  0  0  0  0  0  0  0  0  0  0  0
   29.4234    5.0682    8.3003 C   0  0  2  0  0  0  0  0  0  0  0  0
   30.6691    4.8485    7.5777 O   0  0  0  0  0  0  0  0  0  0  0  0
   29.7148    5.9617    9.5186 C   0  0  0  0  0  0  0  0  0  0  0  0
   30.1751    7.2513    9.0753 O   0  0  0  0  0  0  0  0  0  0  0  0
  1  2  1  1  0  0  0
  1  3  1  0  0  0  0
  1  4  2  0  0  0  0
  1 16  1  0  0  0  0
  5  6  1  6  0  0  0
  5  7  1  0  0  0  0
  5 14  1  0  0  0  0
  7  8  1  6  0  0  0
  7  9  1  0  0  0  0
  9 10  1  1  0  0  0
  9 11  1  0  0  0  0
 11 12  1  6  0  0  0
 11 13  1  0  0  0  0
 13 14  1  0  0  0  0
 13 15  1  1  0  0  0
 15 16  1  0  0  0  0
M  CHG  1   3  -1
M  END
>  <CHROM.1>
-176.07119332,172.02531552,55.21074623,29.66127038,5.44204470,8.62164984
-1.31077626,-0.87558152,-2.38104916

>  <Name>
ligand

>  <RI>
0

>  <Rbt.Current_Directory>
/home/itssahil/PROJECTS/Mol_Feturizer/New_Systems/rnas/3B4B

>  <Rbt.Executable>
rbdock ($Id: //depot/dev/client3/rdock/2013.1/src/exe/rbdock.cxx#4 $)

>  <Rbt.Library>
libRbt.so (2013.1, Build901 2013/11/27)

>  <Rbt.Parameter_File>
/export/apps/rDock/src/rDock_2013.1_src/data/scripts/dock_solv.prm

>  <Rbt.Receptor>
prm/blind_docking_40.prm

>  <SCORE>
-9.19274

>  <SCORE.INTER>
-7.63979

>  <SCORE.INTER.CONST>
1

>  <SCORE.INTER.POLAR>
0

>  <SCORE.INTER.ROT>
3

>  <SCORE.INTER.SOLV>
10.5184

>  <SCORE.INTER.VDW>
-14.1993

>  <SCORE.INTER.norm>
-0.477487

>  <SCORE.INTRA>
-1.55295

>  <SCORE.INTRA.DIHEDRAL>
-1.81643

>  <SCORE.INTRA.DIHEDRAL.0>
2.21864

>  <SCORE.INTRA.POLAR>
0

>  <SCORE.INTRA.POLAR.0>
0

>  <SCORE.INTRA.REPUL>
0

>  <SCORE.INTRA.REPUL.0>
0

>  <SCORE.INTRA.SOLV>
-1.22904

>  <SCORE.INTRA.SOLV.lig_0>
-58.5963

>  <SCORE.INTRA.VDW>
-0.0302193

>  <SCORE.INTRA.VDW.0>
-0.437849

>  <SCORE.INTRA.norm>
-0.0970596

>  <SCORE.RESTR>
0

>  <SCORE.RESTR.CAVITY>
0

>  <SCORE.RESTR.norm>
0

>  <SCORE.SYSTEM>
0

>  <SCORE.SYSTEM.CONST>
0

>  <SCORE.SYSTEM.DIHEDRAL>
0

>  <SCORE.SYSTEM.SOLV>
0

>  <SCORE.SYSTEM.norm>
0

>  <SCORE.heavy>
16

>  <SCORE.norm>
-0.574546

>  <RMSD>
18.883

$$$$
ligand
 OpenBabel11021811463D
libRbt.so/2013.1/901 2013/11/27
 16 16  0  0  0  0  0  0  0  0999 V2000
   27.8607    8.9313   12.7699 P   0  0  2  0  0  0  0  0  0  0  0  0
   28.1789    8.2148   14.0294 O   0  0  0  0  0  0  0  0  0  0  0  0
   28.9386   10.0964   12.5021 O   0  5  0  0  0  0  0  0  0  0  0  0
   26.3935    9.6057   12.8980 O   0  0  0  0  0  0  0  0  0  0  0  0
   30.9102    5.4545    8.6305 C   0  0  2  0  0  0  0  0  0  0  0  0
   30.3596    6.1378    7.4949 O   0  0  0  0  0  0  0  0  0  0  0  0
   30.2344    4.0712    8.8479 C   0  0  2  0  0  0  0  0  0  0  0  0
   30.3941    3.2399    7.6344 N   0  0  0  0  0  0  0  0  0  0  0  0
   28.7364    4.2961    9.1435 C   0  0  1  0  0  0  0  0  0  0  0  0
   28.0800    3.0364    9.3701 O   0  0  0  0  0  0  0  0  0  0  0  0
   28.6251    5.1706   10.4009 C   0  0  2  0  0  0  0  0  0  0  0  0
   27.2419    5.4119   10.6952 O   0  0  0  0  0  0  0  0  0  0  0  0
   29.3459    6.5168   10.1257 C   0  0  2  0  0  0  0  0  0  0  0  0
   30.7502    6.2832    9.8169 O   0  0  0  0  0  0  0  0  0  0  0  0
   29.2612    7.4102   11.3755 C   0  0  0  0  0  0  0  0  0  0  0  0
   27.9096    7.8730   11.5501 O   0  0  0  0  0  0  0  0  0  0  0  0
  1  2  1  1  0  0  0
  1  3  1  0  0  0  0
  1  4  2  0  0  0  0
  1 16  1  0  0  0  0
  5  6  1  6  0  0  0
  5  7  1  0  0  0  0
  5 14  1  0  0  0  0
  7  8  1  6  0  0  0
  7  9  1  0  0  0  0
  9 10  1  1  0  0  0
  9 11  1  0  0  0  0
 11 12  1  6  0  0  0
 11 13  1  0  0  0  0
 13 14  1  0  0  0  0
 13 15  1  1  0  0  0
 15 16  1  0  0  0  0
M  CHG  1   3  -1
M  END
>  <CHROM.1>
-70.83002284,-174.11117451,-66.35414424,28.83606506,6.60291609,10.66851249
-1.94300427,-0.61503699,-2.62577919

>  <Name>
ligand

>  <RI>
0

>  <Rbt.Current_Directory>
/home/itssahil/PROJECTS/Mol_Feturizer/New_Systems/rnas/3B4B

>  <Rbt.Executable>
rbdock ($Id: //depot/dev/client3/rdock/2013.1/src/exe/rbdock.cxx#4 $)

>  <Rbt.Library>
libRbt.so (2013.1, Build901 2013/11/27)

>  <Rbt.Parameter_File>
/export/apps/rDock/src/rDock_2013.1_src/data/scripts/dock_solv.prm

>  <Rbt.Receptor>
prm/blind_docking_80.prm

>  <SCORE>
-9.66192

>  <SCORE.INTER>
-8.47149

>  <SCORE.INTER.CONST>
1

>  <SCORE.INTER.POLAR>
0

>  <SCORE.INTER.ROT>
3

>  <SCORE.INTER.SOLV>
17.3834

>  <SCORE.INTER.VDW>
-17.0421

>  <SCORE.INTER.norm>
-0.529468

>  <SCORE.INTRA>
-1.19042

>  <SCORE.INTRA.DIHEDRAL>
-1.57269

>  <SCORE.INTRA.DIHEDRAL.0>
2.21864

>  <SCORE.INTRA.POLAR>
0

>  <SCORE.INTRA.POLAR.0>
0

>  <SCORE.INTRA.REPUL>
0

>  <SCORE.INTRA.REPUL.0>
0

>  <SCORE.INTRA.SOLV>
-0.701564

>  <SCORE.INTRA.SOLV.lig_0>
-58.5963

>  <SCORE.INTRA.VDW>
-0.0532925

>  <SCORE.INTRA.VDW.0>
-0.437849

>  <SCORE.INTRA.norm>
-0.0744013

>  <SCORE.RESTR>
0

>  <SCORE.RESTR.CAVITY>
0

>  <SCORE.RESTR.norm>
0

>  <SCORE.SYSTEM>
0

>  <SCORE.SYSTEM.CONST>
0

>  <SCORE.SYSTEM.DIHEDRAL>
0

>  <SCORE.SYSTEM.SOLV>
0

>  <SCORE.SYSTEM.norm>
0

>  <SCORE.heavy>
16

>  <SCORE.norm>
-0.60387

>  <RMSD>
18.948

$$$$
ligand
 OpenBabel11021811463D
libRbt.so/2013.1/901 2013/11/27
 16 16  0  0  0  0  0  0  0  0999 V2000
   30.0400    7.1506   10.4240 P   0  0  2  0  0  0  0  0  0  0  0  0
   31.3356    6.8610   11.0864 O   0  0  0  0  0  0  0  0  0  0  0  0
   30.0603    8.6244    9.7769 O   0  5  0  0  0  0  0  0  0  0  0  0
   28.8539    7.0873   11.5255 O   0  0  0  0  0  0  0  0  0  0  0  0
   27.9807    2.7666    7.3112 C   0  0  2  0  0  0  0  0  0  0  0  0
   28.2126    1.4455    7.8217 O   0  0  0  0  0  0  0  0  0  0  0  0
   28.8109    3.0358    6.0244 C   0  0  2  0  0  0  0  0  0  0  0  0
   28.4738    2.0310    4.9920 N   0  0  0  0  0  0  0  0  0  0  0  0
   30.3105    2.9495    6.3790 C   0  0  1  0  0  0  0  0  0  0  0  0
   31.1125    3.2129    5.2143 O   0  0  0  0  0  0  0  0  0  0  0  0
   30.6060    4.0007    7.4588 C   0  0  2  0  0  0  0  0  0  0  0  0
   31.9921    3.9364    7.8228 O   0  0  0  0  0  0  0  0  0  0  0  0
   29.7231    3.6917    8.6967 C   0  0  2  0  0  0  0  0  0  0  0  0
   28.3126    3.7456    8.3365 O   0  0  0  0  0  0  0  0  0  0  0  0
   29.9893    4.7387    9.7923 C   0  0  0  0  0  0  0  0  0  0  0  0
   29.8059    6.0610    9.2544 O   0  0  0  0  0  0  0  0  0  0  0  0
  1  2  1  1  0  0  0
  1  3  1  0  0  0  0
  1  4  2  0  0  0  0
  1 16  1  0  0  0  0
  5  6  1  1  0  0  0
  5  7  1  0  0  0  0
  5 14  1  0  0  0  0
  7  8  1  6  0  0  0
  7  9  1  0  0  0  0
  9 10  1  6  0  0  0
  9 11  1  0  0  0  0
 11 12  1  1  0  0  0
 11 13  1  0  0  0  0
 13 14  1  0  0  0  0
 13 15  1  1  0  0  0
 15 16  1  0  0  0  0
M  CHG  1   3  -1
M  END
>  <CHROM.1>
54.02514317,178.15367409,51.03460707,29.76690978,4.70472399,8.45115152,1.43388262
0.46727342,0.79909946

>  <Name>
ligand

>  <RI>
0

>  <Rbt.Current_Directory>
/home/itssahil/PROJECTS/Mol_Feturizer/New_Systems/rnas/3B4B

>  <Rbt.Executable>
rbdock ($Id: //depot/dev/client3/rdock/2013.1/src/exe/rbdock.cxx#4 $)

>  <Rbt.Library>
libRbt.so (2013.1, Build901 2013/11/27)

>  <Rbt.Parameter_File>
/export/apps/rDock/src/rDock_2013.1_src/data/scripts/dock_solv.prm

>  <Rbt.Receptor>
prm/blind_docking_40.prm

>  <SCORE>
-9.05082

>  <SCORE.INTER>
-7.59364

>  <SCORE.INTER.CONST>
1

>  <SCORE.INTER.POLAR>
0

>  <SCORE.INTER.ROT>
3

>  <SCORE.INTER.SOLV>
15.4892

>  <SCORE.INTER.VDW>
-15.8255

>  <SCORE.INTER.norm>
-0.474602

>  <SCORE.INTRA>
-1.45718

>  <SCORE.INTRA.DIHEDRAL>
-1.94673

>  <SCORE.INTRA.DIHEDRAL.0>
2.21864

>  <SCORE.INTRA.POLAR>
0

>  <SCORE.INTRA.POLAR.0>
0

>  <SCORE.INTRA.REPUL>
0

>  <SCORE.INTRA.REPUL.0>
0

>  <SCORE.INTRA.SOLV>
-1.01035

>  <SCORE.INTRA.SOLV.lig_0>
-58.5963

>  <SCORE.INTRA.VDW>
0.0213558

>  <SCORE.INTRA.VDW.0>
-0.437849

>  <SCORE.INTRA.norm>
-0.091074

>  <SCORE.RESTR>
0

>  <SCORE.RESTR.CAVITY>
0

>  <SCORE.RESTR.norm>
0

>  <SCORE.SYSTEM>
0

>  <SCORE.SYSTEM.CONST>
0

>  <SCORE.SYSTEM.DIHEDRAL>
0

>  <SCORE.SYSTEM.SOLV>
0

>  <SCORE.SYSTEM.norm>
0

>  <SCORE.heavy>
16

>  <SCORE.norm>
-0.565676

>  <RMSD>
19.000

$$$$
ligand
 OpenBabel11021811463D
libRbt.so/2013.1/901 2013/11/27
 16 16  0  0  0  0  0  0  0  0999 V2000
   29.7332    2.3399    6.1972 P   0  0  2  0  0  0  0  0  0  0  0  0
   28.3696    2.6518    5.7028 O   0  0  0  0  0  0  0  0  0  0  0  0
   30.8416    2.9557    5.2055 O   0  5  0  0  0  0  0  0  0  0  0  0
   29.9247    0.7322    6.2500 O   0  0  0  0  0  0  0  0  0  0  0  0
   30.1900    7.1850   10.0690 C   0  0  2  0  0  0  0  0  0  0  0  0
   31.1816    6.6382   10.9507 O   0  0  0  0  0  0  0  0  0  0  0  0
   28.7619    7.0683   10.6729 C   0  0  2  0  0  0  0  0  0  0  0  0
   28.7123    7.7626   11.9785 N   0  0  0  0  0  0  0  0  0  0  0  0
   28.4246    5.5732   10.8540 C   0  0  1  0  0  0  0  0  0  0  0  0
   27.0996    5.4245   11.3939 O   0  0  0  0  0  0  0  0  0  0  0  0
   28.5006    4.8975    9.4770 C   0  0  2  0  0  0  0  0  0  0  0  0
   28.2066    3.5000    9.6127 O   0  0  0  0  0  0  0  0  0  0  0  0
   29.9378    5.0801    8.9214 C   0  0  2  0  0  0  0  0  0  0  0  0
   30.2508    6.4965    8.7876 O   0  0  0  0  0  0  0  0  0  0  0  0
   30.0401    4.4226    7.5341 C   0  0  0  0  0  0  0  0  0  0  0  0
   29.9107    2.9950    7.6633 O   0  0  0  0  0  0  0  0  0  0  0  0
  1  2  1  6  0  0  0
  1  3  1  0  0  0  0
  1  4  2  0  0  0  0
  1 16  1  0  0  0  0
  5  6  1  1  0  0  0
  5  7  1  0  0  0  0
  5 14  1  0  0  0  0
  7  8  1  1  0  0  0
  7  9  1  0  0  0  0
  9 10  1  6  0  0  0
  9 11  1  0  0  0  0
 11 12  1  1  0  0  0
 11 13  1  0  0  0  0
 13 14  1  0  0  0  0
 13 15  1  6  0  0  0
 15 16  1  0  0  0  0
M  CHG  1   3  -1
M  END
>  <CHROM.1>
-67.14107108,169.18795301,-73.04327443,29.41428285,4.49643671,8.58915898
1.44376730,-0.58829836,-2.37963794

>  <Name>
ligand

>  <RI>
0

>  <Rbt.Current_Directory>
/home/itssahil/PROJECTS/Mol_Feturizer/New_Systems/rnas/3B4B

>  <Rbt.Executable>
rbdock ($Id: //depot/dev/client3/rdock/2013.1/src/exe/rbdock.cxx#4 $)

>  <Rbt.Library>
libRbt.so (2013.1, Build901 2013/11/27)

>  <Rbt.Parameter_File>
/export/apps/rDock/src/rDock_2013.1_src/data/scripts/dock_solv.prm

>  <Rbt.Receptor>
prm/blind_docking_40.prm

>  <SCORE>
-6.7596

>  <SCORE.INTER>
-5.9481

>  <SCORE.INTER.CONST>
1

>  <SCORE.INTER.POLAR>
0

>  <SCORE.INTER.ROT>
3

>  <SCORE.INTER.SOLV>
15.9327

>  <SCORE.INTER.VDW>
-14.8763

>  <SCORE.INTER.norm>
-0.371756

>  <SCORE.INTRA>
-0.811499

>  <SCORE.INTRA.DIHEDRAL>
-1.20947

>  <SCORE.INTRA.DIHEDRAL.0>
2.21864

>  <SCORE.INTRA.POLAR>
0

>  <SCORE.INTRA.POLAR.0>
0

>  <SCORE.INTRA.REPUL>
0

>  <SCORE.INTRA.REPUL.0>
0

>  <SCORE.INTRA.SOLV>
-0.468665

>  <SCORE.INTRA.SOLV.lig_0>
-58.5963

>  <SCORE.INTRA.VDW>
0.0275672

>  <SCORE.INTRA.VDW.0>
-0.437849

>  <SCORE.INTRA.norm>
-0.0507187

>  <SCORE.RESTR>
0

>  <SCORE.RESTR.CAVITY>
0

>  <SCORE.RESTR.norm>
0

>  <SCORE.SYSTEM>
0

>  <SCORE.SYSTEM.CONST>
0

>  <SCORE.SYSTEM.DIHEDRAL>
0

>  <SCORE.SYSTEM.SOLV>
0

>  <SCORE.SYSTEM.norm>
0

>  <SCORE.heavy>
16

>  <SCORE.norm>
-0.422475

>  <RMSD>
19.063

$$$$
ligand
 OpenBabel11021811463D
libRbt.so/2013.1/901 2013/11/27
 16 16  0  0  0  0  0  0  0  0999 V2000
   28.8864    2.1695    6.8700 P   0  0  2  0  0  0  0  0  0  0  0  0
   28.1001    1.6130    7.9983 O   0  0  0  0  0  0  0  0  0  0  0  0
   28.1169    1.9238    5.4777 O   0  5  0  0  0  0  0  0  0  0  0  0
   30.3227    1.4232    6.8040 O   0  0  0  0  0  0  0  0  0  0  0  0
   30.1400    7.7178    7.4649 C   0  0  2  0  0  0  0  0  0  0  0  0
   31.4500    8.0454    7.9508 O   0  0  0  0  0  0  0  0  0  0  0  0
   29.0397    8.0732    8.5044 C   0  0  2  0  0  0  0  0  0  0  0  0
   29.1085    9.5141    8.8333 N   0  0  0  0  0  0  0  0  0  0  0  0
   29.2707    7.2274    9.7744 C   0  0  1  0  0  0  0  0  0  0  0  0
   28.2577    7.5153   10.7543 O   0  0  0  0  0  0  0  0  0  0  0  0
   29.2010    5.7452    9.3790 C   0  0  2  0  0  0  0  0  0  0  0  0
   29.4274    4.9296   10.5372 O   0  0  0  0  0  0  0  0  0  0  0  0
   30.3006    5.4695    8.3196 C   0  0  2  0  0  0  0  0  0  0  0  0
   30.0856    6.2992    7.1417 O   0  0  0  0  0  0  0  0  0  0  0  0
   30.2461    3.9918    7.8945 C   0  0  0  0  0  0  0  0  0  0  0  0
   29.0668    3.7579    7.1032 O   0  0  0  0  0  0  0  0  0  0  0  0
  1  2  1  1  0  0  0
  1  3  1  0  0  0  0
  1  4  2  0  0  0  0
  1 16  1  0  0  0  0
  5  6  1  1  0  0  0
  5  7  1  0  0  0  0
  5 14  1  0  0  0  0
  7  8  1  1  0  0  0
  7  9  1  0  0  0  0
  9 10  1  1  0  0  0
  9 11  1  0  0  0  0
 11 12  1  1  0  0  0
 11 13  1  0  0  0  0
 13 14  1  0  0  0  0
 13 15  1  6  0  0  0
 15 16  1  0  0  0  0
M  CHG  1   3  -1
M  END
>  <CHROM.1>
70.99340761,-170.63704199,88.19741661,29.39327575,5.03861844,8.06457242,-1.77868511
1.08290208,0.53868628

>  <Name>
ligand

>  <RI>
0

>  <Rbt.Current_Directory>
/home/itssahil/PROJECTS/Mol_Feturizer/New_Systems/rnas/3B4B

>  <Rbt.Executable>
rbdock ($Id: //depot/dev/client3/rdock/2013.1/src/exe/rbdock.cxx#4 $)

>  <Rbt.Library>
libRbt.so (2013.1, Build901 2013/11/27)

>  <Rbt.Parameter_File>
/export/apps/rDock/src/rDock_2013.1_src/data/scripts/dock_solv.prm

>  <Rbt.Receptor>
prm/blind_docking_40.prm

>  <SCORE>
-7.81336

>  <SCORE.INTER>
-7.3522

>  <SCORE.INTER.CONST>
1

>  <SCORE.INTER.POLAR>
0

>  <SCORE.INTER.ROT>
3

>  <SCORE.INTER.SOLV>
14.9293

>  <SCORE.INTER.VDW>
-15.4779

>  <SCORE.INTER.norm>
-0.459512

>  <SCORE.INTRA>
-0.46116

>  <SCORE.INTRA.DIHEDRAL>
-0.274889

>  <SCORE.INTRA.DIHEDRAL.0>
2.21864

>  <SCORE.INTRA.POLAR>
0

>  <SCORE.INTRA.POLAR.0>
0

>  <SCORE.INTRA.REPUL>
0

>  <SCORE.INTRA.REPUL.0>
0

>  <SCORE.INTRA.SOLV>
-0.674418

>  <SCORE.INTRA.SOLV.lig_0>
-58.5963

>  <SCORE.INTRA.VDW>
0.0134938

>  <SCORE.INTRA.VDW.0>
-0.437849

>  <SCORE.INTRA.norm>
-0.0288225

>  <SCORE.RESTR>
0

>  <SCORE.RESTR.CAVITY>
0

>  <SCORE.RESTR.norm>
0

>  <SCORE.SYSTEM>
0

>  <SCORE.SYSTEM.CONST>
0

>  <SCORE.SYSTEM.DIHEDRAL>
0

>  <SCORE.SYSTEM.SOLV>
0

>  <SCORE.SYSTEM.norm>
0

>  <SCORE.heavy>
16

>  <SCORE.norm>
-0.488335

>  <RMSD>
19.089

$$$$
ligand
 OpenBabel11021811463D
libRbt.so/2013.1/901 2013/11/27
 16 16  0  0  0  0  0  0  0  0999 V2000
   28.8758    2.6318    6.8534 P   0  0  2  0  0  0  0  0  0  0  0  0
   30.2010    1.9708    6.7648 O   0  0  0  0  0  0  0  0  0  0  0  0
   27.8211    1.6718    7.5997 O   0  5  0  0  0  0  0  0  0  0  0  0
   28.3307    2.9325    5.3578 O   0  0  0  0  0  0  0  0  0  0  0  0
   30.5730    7.2687    9.7708 C   0  0  2  0  0  0  0  0  0  0  0  0
   31.3933    7.0445   10.9268 O   0  0  0  0  0  0  0  0  0  0  0  0
   29.1655    7.8001   10.1634 C   0  0  2  0  0  0  0  0  0  0  0  0
   29.3016    9.0552   10.9349 N   0  0  0  0  0  0  0  0  0  0  0  0
   28.4546    6.7278   11.0159 C   0  0  1  0  0  0  0  0  0  0  0  0
   27.1381    7.1769   11.3827 O   0  0  0  0  0  0  0  0  0  0  0  0
   28.3484    5.4457   10.1772 C   0  0  2  0  0  0  0  0  0  0  0  0
   27.7043    4.4216   10.9480 O   0  0  0  0  0  0  0  0  0  0  0  0
   29.7819    4.9917    9.7947 C   0  0  2  0  0  0  0  0  0  0  0  0
   30.4492    6.0282    9.0186 O   0  0  0  0  0  0  0  0  0  0  0  0
   29.7058    3.7135    8.9415 C   0  0  0  0  0  0  0  0  0  0  0  0
   29.0388    3.9991    7.6985 O   0  0  0  0  0  0  0  0  0  0  0  0
  1  2  1  6  0  0  0
  1  3  1  0  0  0  0
  1  4  2  0  0  0  0
  1 16  1  0  0  0  0
  5  6  1  1  0  0  0
  5  7  1  0  0  0  0
  5 14  1  0  0  0  0
  7  8  1  1  0  0  0
  7  9  1  0  0  0  0
  9 10  1  6  0  0  0
  9 11  1  0  0  0  0
 11 12  1  1  0  0  0
 11 13  1  0  0  0  0
 13 14  1  0  0  0  0
 13 15  1  6  0  0  0
 15 16  1  0  0  0  0
M  CHG  1   3  -1
M  END
>  <CHROM.1>
64.22566504,-176.24067332,-51.57944222,29.11396353,4.93458681,9.00016693
-1.64075917,0.43858577,0.70969143

>  <Name>
ligand

>  <RI>
0

>  <Rbt.Current_Directory>
/home/itssahil/PROJECTS/Mol_Feturizer/New_Systems/rnas/3B4B

>  <Rbt.Executable>
rbdock ($Id: //depot/dev/client3/rdock/2013.1/src/exe/rbdock.cxx#4 $)

>  <Rbt.Library>
libRbt.so (2013.1, Build901 2013/11/27)

>  <Rbt.Parameter_File>
/export/apps/rDock/src/rDock_2013.1_src/data/scripts/dock_solv.prm

>  <Rbt.Receptor>
prm/blind_docking_40.prm

>  <SCORE>
-8.69447

>  <SCORE.INTER>
-7.21054

>  <SCORE.INTER.CONST>
1

>  <SCORE.INTER.POLAR>
0

>  <SCORE.INTER.ROT>
3

>  <SCORE.INTER.SOLV>
19.0706

>  <SCORE.INTER.VDW>
-16.7639

>  <SCORE.INTER.norm>
-0.450659

>  <SCORE.INTRA>
-1.48394

>  <SCORE.INTRA.DIHEDRAL>
-1.96653

>  <SCORE.INTRA.DIHEDRAL.0>
2.21864

>  <SCORE.INTRA.POLAR>
0

>  <SCORE.INTRA.POLAR.0>
0

>  <SCORE.INTRA.REPUL>
0

>  <SCORE.INTRA.REPUL.0>
0

>  <SCORE.INTRA.SOLV>
-0.889629

>  <SCORE.INTRA.SOLV.lig_0>
-58.5963

>  <SCORE.INTRA.VDW>
-0.0558574

>  <SCORE.INTRA.VDW.0>
-0.437849

>  <SCORE.INTRA.norm>
-0.0927461

>  <SCORE.RESTR>
0

>  <SCORE.RESTR.CAVITY>
0

>  <SCORE.RESTR.norm>
0

>  <SCORE.SYSTEM>
0

>  <SCORE.SYSTEM.CONST>
0

>  <SCORE.SYSTEM.DIHEDRAL>
0

>  <SCORE.SYSTEM.SOLV>
0

>  <SCORE.SYSTEM.norm>
0

>  <SCORE.heavy>
16

>  <SCORE.norm>
-0.543405

>  <RMSD>
19.122

$$$$
ligand
 OpenBabel11021811463D
libRbt.so/2013.1/901 2013/11/27
 16 16  0  0  0  0  0  0  0  0999 V2000
   29.2453    2.1652    6.4780 P   0  0  2  0  0  0  0  0  0  0  0  0
   27.8536    1.8640    6.8944 O   0  0  0  0  0  0  0  0  0  0  0  0
   29.3744    2.1048    4.8746 O   0  5  0  0  0  0  0  0  0  0  0  0
   30.2425    1.0603    7.1176 O   0  0  0  0  0  0  0  0  0  0  0  0
   29.7005    7.5323    8.2192 C   0  0  2  0  0  0  0  0  0  0  0  0
   31.1158    7.5765    8.4533 O   0  0  0  0  0  0  0  0  0  0  0  0
   28.8990    7.9549    9.4827 C   0  0  2  0  0  0  0  0  0  0  0  0
   29.2982    9.3184    9.8959 N   0  0  0  0  0  0  0  0  0  0  0  0
   29.1973    6.9489   10.6144 C   0  0  1  0  0  0  0  0  0  0  0  0
   28.4562    7.2970   11.7970 O   0  0  0  0  0  0  0  0  0  0  0  0
   28.7771    5.5523   10.1333 C   0  0  2  0  0  0  0  0  0  0  0  0
   29.0560    4.5888   11.1589 O   0  0  0  0  0  0  0  0  0  0  0  0
   29.5894    5.2101    8.8564 C   0  0  2  0  0  0  0  0  0  0  0  0
   29.3205    6.1875    7.8104 O   0  0  0  0  0  0  0  0  0  0  0  0
   29.1791    3.8185    8.3438 C   0  0  0  0  0  0  0  0  0  0  0  0
   29.6231    3.6520    6.9849 O   0  0  0  0  0  0  0  0  0  0  0  0
  1  2  1  1  0  0  0
  1  3  1  0  0  0  0
  1  4  2  0  0  0  0
  1 16  1  0  0  0  0
  5  6  1  1  0  0  0
  5  7  1  0  0  0  0
  5 14  1  0  0  0  0
  7  8  1  1  0  0  0
  7  9  1  0  0  0  0
  9 10  1  1  0  0  0
  9 11  1  0  0  0  0
 11 12  1  1  0  0  0
 11 13  1  0  0  0  0
 13 14  1  0  0  0  0
 13 15  1  6  0  0  0
 15 16  1  0  0  0  0
M  CHG  1   3  -1
M  END
>  <CHROM.1>
163.63322369,177.52431007,44.68962095,29.30982130,4.88949686,8.38401039,-1.57469772
1.23768186,0.58842946

>  <Name>
ligand

>  <RI>
0

>  <Rbt.Current_Directory>
/home/itssahil/PROJECTS/Mol_Feturizer/New_Systems/rnas/3B4B

>  <Rbt.Executable>
rbdock ($Id: //depot/dev/client3/rdock/2013.1/src/exe/rbdock.cxx#4 $)

>  <Rbt.Library>
libRbt.so (2013.1, Build901 2013/11/27)

>  <Rbt.Parameter_File>
/export/apps/rDock/src/rDock_2013.1_src/data/scripts/dock_solv.prm

>  <Rbt.Receptor>
prm/blind_docking_100.prm

>  <SCORE>
-6.64102

>  <SCORE.INTER>
-5.88881

>  <SCORE.INTER.CONST>
1

>  <SCORE.INTER.POLAR>
0

>  <SCORE.INTER.ROT>
3

>  <SCORE.INTER.SOLV>
13.0128

>  <SCORE.INTER.VDW>
-13.8635

>  <SCORE.INTER.norm>
-0.368051

>  <SCORE.INTRA>
-0.752209

>  <SCORE.INTRA.DIHEDRAL>
-0.917276

>  <SCORE.INTRA.DIHEDRAL.0>
2.21864

>  <SCORE.INTRA.POLAR>
0

>  <SCORE.INTRA.POLAR.0>
0

>  <SCORE.INTRA.REPUL>
0

>  <SCORE.INTRA.REPUL.0>
0

>  <SCORE.INTRA.SOLV>
-1.26699

>  <SCORE.INTRA.SOLV.lig_0>
-58.5963

>  <SCORE.INTRA.VDW>
0.339923

>  <SCORE.INTRA.VDW.0>
-0.437849

>  <SCORE.INTRA.norm>
-0.047013

>  <SCORE.RESTR>
0

>  <SCORE.RESTR.CAVITY>
0

>  <SCORE.RESTR.norm>
0

>  <SCORE.SYSTEM>
0

>  <SCORE.SYSTEM.CONST>
0

>  <SCORE.SYSTEM.DIHEDRAL>
0

>  <SCORE.SYSTEM.SOLV>
0

>  <SCORE.SYSTEM.norm>
0

>  <SCORE.heavy>
16

>  <SCORE.norm>
-0.415064

>  <RMSD>
19.157

$$$$
ligand
 OpenBabel11021811463D
libRbt.so/2013.1/901 2013/11/27
 16 16  0  0  0  0  0  0  0  0999 V2000
   28.9212    5.0223   10.3051 P   0  0  2  0  0  0  0  0  0  0  0  0
   29.6360    3.7605   10.6181 O   0  0  0  0  0  0  0  0  0  0  0  0
   29.6979    6.2783   10.9458 O   0  5  0  0  0  0  0  0  0  0  0  0
   27.4312    4.9602   10.9377 O   0  0  0  0  0  0  0  0  0  0  0  0
   29.3589    4.3301    4.6423 C   0  0  2  0  0  0  0  0  0  0  0  0
   30.6849    4.2499    4.0992 O   0  0  0  0  0  0  0  0  0  0  0  0
   28.6359    5.6319    4.1950 C   0  0  2  0  0  0  0  0  0  0  0  0
   28.5789    5.6903    2.7176 N   0  0  0  0  0  0  0  0  0  0  0  0
   29.4188    6.8433    4.7440 C   0  0  1  0  0  0  0  0  0  0  0  0
   28.7673    8.0688    4.3659 O   0  0  0  0  0  0  0  0  0  0  0  0
   29.4591    6.7303    6.2750 C   0  0  2  0  0  0  0  0  0  0  0  0
   30.1947    7.8361    6.8174 O   0  0  0  0  0  0  0  0  0  0  0  0
   30.1618    5.3984    6.6486 C   0  0  2  0  0  0  0  0  0  0  0  0
   29.4278    4.2683    6.0954 O   0  0  0  0  0  0  0  0  0  0  0  0
   30.2053    5.2520    8.1797 C   0  0  0  0  0  0  0  0  0  0  0  0
   28.8645    5.1964    8.6999 O   0  0  0  0  0  0  0  0  0  0  0  0
  1  2  1  1  0  0  0
  1  3  1  0  0  0  0
  1  4  2  0  0  0  0
  1 16  1  0  0  0  0
  5  6  1  6  0  0  0
  5  7  1  0  0  0  0
  5 14  1  0  0  0  0
  7  8  1  6  0  0  0
  7  9  1  0  0  0  0
  9 10  1  1  0  0  0
  9 11  1  0  0  0  0
 11 12  1  1  0  0  0
 11 13  1  0  0  0  0
 13 14  1  0  0  0  0
 13 15  1  1  0  0  0
 15 16  1  0  0  0  0
M  CHG  1   3  -1
M  END
>  <CHROM.1>
62.17010244,179.22683212,-60.18328272,29.31066706,5.55140037,7.21264160,-2.15089731
1.46923095,-0.85019802

>  <Name>
ligand

>  <RI>
0

>  <Rbt.Current_Directory>
/home/itssahil/PROJECTS/Mol_Feturizer/New_Systems/rnas/3B4B

>  <Rbt.Executable>
rbdock ($Id: //depot/dev/client3/rdock/2013.1/src/exe/rbdock.cxx#4 $)

>  <Rbt.Library>
libRbt.so (2013.1, Build901 2013/11/27)

>  <Rbt.Parameter_File>
/export/apps/rDock/src/rDock_2013.1_src/data/scripts/dock_solv.prm

>  <Rbt.Receptor>
prm/blind_docking_80.prm

>  <SCORE>
-8.45795

>  <SCORE.INTER>
-6.72866

>  <SCORE.INTER.CONST>
1

>  <SCORE.INTER.POLAR>
0

>  <SCORE.INTER.ROT>
3

>  <SCORE.INTER.SOLV>
17.5753

>  <SCORE.INTER.VDW>
-15.9442

>  <SCORE.INTER.norm>
-0.420541

>  <SCORE.INTRA>
-1.72928

>  <SCORE.INTRA.DIHEDRAL>
-2.19782

>  <SCORE.INTRA.DIHEDRAL.0>
2.21864

>  <SCORE.INTRA.POLAR>
0

>  <SCORE.INTRA.POLAR.0>
0

>  <SCORE.INTRA.REPUL>
0

>  <SCORE.INTRA.REPUL.0>
0

>  <SCORE.INTRA.SOLV>
-0.913508

>  <SCORE.INTRA.SOLV.lig_0>
-58.5963

>  <SCORE.INTRA.VDW>
-0.173621

>  <SCORE.INTRA.VDW.0>
-0.437849

>  <SCORE.INTRA.norm>
-0.10808

>  <SCORE.RESTR>
0

>  <SCORE.RESTR.CAVITY>
0

>  <SCORE.RESTR.norm>
0

>  <SCORE.SYSTEM>
0

>  <SCORE.SYSTEM.CONST>
0

>  <SCORE.SYSTEM.DIHEDRAL>
0

>  <SCORE.SYSTEM.SOLV>
0

>  <SCORE.SYSTEM.norm>
0

>  <SCORE.heavy>
16

>  <SCORE.norm>
-0.528622

>  <RMSD>
19.416

$$$$
ligand
 OpenBabel11021811463D
libRbt.so/2013.1/901 2013/11/27
 16 16  0  0  0  0  0  0  0  0999 V2000
   25.6912    6.9134   11.8904 P   0  0  2  0  0  0  0  0  0  0  0  0
   24.3272    6.4627   11.5198 O   0  0  0  0  0  0  0  0  0  0  0  0
   25.9865    6.5864   13.4386 O   0  5  0  0  0  0  0  0  0  0  0  0
   25.7997    8.5148   11.6718 O   0  0  0  0  0  0  0  0  0  0  0  0
   29.5892    3.8537    9.2117 C   0  0  2  0  0  0  0  0  0  0  0  0
   30.8691    3.7628    9.8545 O   0  0  0  0  0  0  0  0  0  0  0  0
   29.6919    4.5632    7.8319 C   0  0  2  0  0  0  0  0  0  0  0  0
   30.6408    3.8327    6.9629 N   0  0  0  0  0  0  0  0  0  0  0  0
   30.1836    6.0087    8.0571 C   0  0  1  0  0  0  0  0  0  0  0  0
   30.2727    6.7046    6.8013 O   0  0  0  0  0  0  0  0  0  0  0  0
   29.1741    6.7184    8.9710 C   0  0  2  0  0  0  0  0  0  0  0  0
   29.6106    8.0633    9.2132 O   0  0  0  0  0  0  0  0  0  0  0  0
   29.0982    5.9416   10.3120 C   0  0  2  0  0  0  0  0  0  0  0  0
   28.6639    4.5710   10.0772 O   0  0  0  0  0  0  0  0  0  0  0  0
   28.0826    6.6242   11.2448 C   0  0  0  0  0  0  0  0  0  0  0  0
   26.7604    6.1271   10.9690 O   0  0  0  0  0  0  0  0  0  0  0  0
  1  2  1  6  0  0  0
  1  3  1  0  0  0  0
  1  4  2  0  0  0  0
  1 16  1  0  0  0  0
  5  6  1  1  0  0  0
  5  7  1  0  0  0  0
  5 14  1  0  0  0  0
  7  8  1  6  0  0  0
  7  9  1  0  0  0  0
  9 10  1  6  0  0  0
  9 11  1  0  0  0  0
 11 12  1  1  0  0  0
 11 13  1  0  0  0  0
 13 14  1  0  0  0  0
 13 15  1  1  0  0  0
 15 16  1  0  0  0  0
M  CHG  1   3  -1
M  END
>  <CHROM.1>
86.10154589,-176.61585693,175.73856194,28.15869127,6.05328390,10.06776280
3.07320591,0.76125403,-0.36535251

>  <Name>
ligand

>  <RI>
0

>  <Rbt.Current_Directory>
/home/itssahil/PROJECTS/Mol_Feturizer/New_Systems/rnas/3B4B

>  <Rbt.Executable>
rbdock ($Id: //depot/dev/client3/rdock/2013.1/src/exe/rbdock.cxx#4 $)

>  <Rbt.Library>
libRbt.so (2013.1, Build901 2013/11/27)

>  <Rbt.Parameter_File>
/export/apps/rDock/src/rDock_2013.1_src/data/scripts/dock_solv.prm

>  <Rbt.Receptor>
prm/blind_docking_80.prm

>  <SCORE>
-5.49255

>  <SCORE.INTER>
-5.11582

>  <SCORE.INTER.CONST>
1

>  <SCORE.INTER.POLAR>
0

>  <SCORE.INTER.ROT>
3

>  <SCORE.INTER.SOLV>
13.5813

>  <SCORE.INTER.VDW>
-13.5376

>  <SCORE.INTER.norm>
-0.319739

>  <SCORE.INTRA>
-0.376728

>  <SCORE.INTRA.DIHEDRAL>
-0.0260266

>  <SCORE.INTRA.DIHEDRAL.0>
2.21864

>  <SCORE.INTRA.POLAR>
0

>  <SCORE.INTRA.POLAR.0>
0

>  <SCORE.INTRA.REPUL>
0

>  <SCORE.INTRA.REPUL.0>
0

>  <SCORE.INTRA.SOLV>
-0.285712

>  <SCORE.INTRA.SOLV.lig_0>
-58.5963

>  <SCORE.INTRA.VDW>
-0.220858

>  <SCORE.INTRA.VDW.0>
-0.437849

>  <SCORE.INTRA.norm>
-0.0235455

>  <SCORE.RESTR>
0

>  <SCORE.RESTR.CAVITY>
0

>  <SCORE.RESTR.norm>
0

>  <SCORE.SYSTEM>
0

>  <SCORE.SYSTEM.CONST>
0

>  <SCORE.SYSTEM.DIHEDRAL>
0

>  <SCORE.SYSTEM.SOLV>
0

>  <SCORE.SYSTEM.norm>
0

>  <SCORE.heavy>
16

>  <SCORE.norm>
-0.343284

>  <RMSD>
19.715

$$$$
ligand
 OpenBabel11021811463D
libRbt.so/2013.1/901 2013/11/27
 16 16  0  0  0  0  0  0  0  0999 V2000
   29.3392    4.4092    9.4374 P   0  0  2  0  0  0  0  0  0  0  0  0
   30.6842    3.9184    9.8261 O   0  0  0  0  0  0  0  0  0  0  0  0
   28.7994    5.4742   10.5170 O   0  5  0  0  0  0  0  0  0  0  0  0
   28.3108    3.1586    9.3881 O   0  0  0  0  0  0  0  0  0  0  0  0
   29.4224    6.4869    4.1414 C   0  0  2  0  0  0  0  0  0  0  0  0
   28.0430    6.1663    3.9086 O   0  0  0  0  0  0  0  0  0  0  0  0
   30.3491    5.8270    3.0815 C   0  0  2  0  0  0  0  0  0  0  0  0
   29.9521    6.2674    1.7260 N   0  0  0  0  0  0  0  0  0  0  0  0
   30.2194    4.2937    3.2005 C   0  0  1  0  0  0  0  0  0  0  0  0
   31.0794    3.6467    2.2461 O   0  0  0  0  0  0  0  0  0  0  0  0
   30.6305    3.8899    4.6239 C   0  0  2  0  0  0  0  0  0  0  0  0
   30.5063    2.4685    4.7729 O   0  0  0  0  0  0  0  0  0  0  0  0
   29.6888    4.6072    5.6270 C   0  0  2  0  0  0  0  0  0  0  0  0
   29.8001    6.0521    5.4786 O   0  0  0  0  0  0  0  0  0  0  0  0
   30.0862    4.2303    7.0648 C   0  0  0  0  0  0  0  0  0  0  0  0
   29.4512    5.1271    7.9944 O   0  0  0  0  0  0  0  0  0  0  0  0
  1  2  1  1  0  0  0
  1  3  1  0  0  0  0
  1  4  2  0  0  0  0
  1 16  1  0  0  0  0
  5  6  1  6  0  0  0
  5  7  1  0  0  0  0
  5 14  1  0  0  0  0
  7  8  1  6  0  0  0
  7  9  1  0  0  0  0
  9 10  1  6  0  0  0
  9 11  1  0  0  0  0
 11 12  1  6  0  0  0
 11 13  1  0  0  0  0
 13 14  1  0  0  0  0
 13 15  1  1  0  0  0
 15 16  1  0  0  0  0
M  CHG  1   3  -1
M  END
>  <CHROM.1>
165.92085964,156.39171840,52.71005028,29.72589198,4.70729810,6.15167448,1.82268646
-1.08859990,1.90416039

>  <Name>
ligand

>  <RI>
0

>  <Rbt.Current_Directory>
/home/itssahil/PROJECTS/Mol_Feturizer/New_Systems/rnas/3B4B

>  <Rbt.Executable>
rbdock ($Id: //depot/dev/client3/rdock/2013.1/src/exe/rbdock.cxx#4 $)

>  <Rbt.Library>
libRbt.so (2013.1, Build901 2013/11/27)

>  <Rbt.Parameter_File>
/export/apps/rDock/src/rDock_2013.1_src/data/scripts/dock_solv.prm

>  <Rbt.Receptor>
prm/blind_docking_40.prm

>  <SCORE>
-5.69942

>  <SCORE.INTER>
-5.72826

>  <SCORE.INTER.CONST>
1

>  <SCORE.INTER.POLAR>
0

>  <SCORE.INTER.ROT>
3

>  <SCORE.INTER.SOLV>
16.1226

>  <SCORE.INTER.VDW>
-14.793

>  <SCORE.INTER.norm>
-0.358016

>  <SCORE.INTRA>
0.028835

>  <SCORE.INTRA.DIHEDRAL>
0.967194

>  <SCORE.INTRA.DIHEDRAL.0>
2.21864

>  <SCORE.INTRA.POLAR>
0

>  <SCORE.INTRA.POLAR.0>
0

>  <SCORE.INTRA.REPUL>
0

>  <SCORE.INTRA.REPUL.0>
0

>  <SCORE.INTRA.SOLV>
-1.10086

>  <SCORE.INTRA.SOLV.lig_0>
-58.5963

>  <SCORE.INTRA.VDW>
0.0956665

>  <SCORE.INTRA.VDW.0>
-0.437849

>  <SCORE.INTRA.norm>
0.00180219

>  <SCORE.RESTR>
0

>  <SCORE.RESTR.CAVITY>
0

>  <SCORE.RESTR.norm>
0

>  <SCORE.SYSTEM>
0

>  <SCORE.SYSTEM.CONST>
0

>  <SCORE.SYSTEM.DIHEDRAL>
0

>  <SCORE.SYSTEM.SOLV>
0

>  <SCORE.SYSTEM.norm>
0

>  <SCORE.heavy>
16

>  <SCORE.norm>
-0.356214

>  <RMSD>
19.724

$$$$
ligand
 OpenBabel11021811463D
libRbt.so/2013.1/901 2013/11/27
 16 16  0  0  0  0  0  0  0  0999 V2000
   28.1480    3.2641    3.6641 P   0  0  2  0  0  0  0  0  0  0  0  0
   26.6767    3.2404    3.4753 O   0  0  0  0  0  0  0  0  0  0  0  0
   28.8485    4.1145    2.4906 O   0  5  0  0  0  0  0  0  0  0  0  0
   28.7152    1.7476    3.6110 O   0  0  0  0  0  0  0  0  0  0  0  0
   29.8666    6.9426    7.6471 C   0  0  2  0  0  0  0  0  0  0  0  0
   31.2789    7.1771    7.7477 O   0  0  0  0  0  0  0  0  0  0  0  0
   29.3137    6.2322    8.9149 C   0  0  2  0  0  0  0  0  0  0  0  0
   29.6040    7.0498   10.1135 N   0  0  0  0  0  0  0  0  0  0  0  0
   29.9894    4.8502    9.0390 C   0  0  1  0  0  0  0  0  0  0  0  0
   29.4872    4.1533   10.1928 O   0  0  0  0  0  0  0  0  0  0  0  0
   29.6684    4.0474    7.7698 C   0  0  2  0  0  0  0  0  0  0  0  0
   30.2960    2.7597    7.8465 O   0  0  0  0  0  0  0  0  0  0  0  0
   30.2177    4.8271    6.5460 C   0  0  2  0  0  0  0  0  0  0  0  0
   29.5933    6.1407    6.4631 O   0  0  0  0  0  0  0  0  0  0  0  0
   29.8987    4.0508    5.2565 C   0  0  0  0  0  0  0  0  0  0  0  0
   28.4725    3.9566    5.0873 O   0  0  0  0  0  0  0  0  0  0  0  0
  1  2  1  6  0  0  0
  1  3  1  0  0  0  0
  1  4  2  0  0  0  0
  1 16  1  0  0  0  0
  5  6  1  1  0  0  0
  5  7  1  0  0  0  0
  5 14  1  0  0  0  0
  7  8  1  1  0  0  0
  7  9  1  0  0  0  0
  9 10  1  1  0  0  0
  9 11  1  0  0  0  0
 11 12  1  1  0  0  0
 11 13  1  0  0  0  0
 13 14  1  0  0  0  0
 13 15  1  6  0  0  0
 15 16  1  0  0  0  0
M  CHG  1   3  -1
M  END
>  <CHROM.1>
62.95251084,174.70437555,-177.04986332,29.27515781,4.52002528,6.34341017
-2.85478275,1.27371997,2.38071898

>  <Name>
ligand

>  <RI>
0

>  <Rbt.Current_Directory>
/home/itssahil/PROJECTS/Mol_Feturizer/New_Systems/rnas/3B4B

>  <Rbt.Executable>
rbdock ($Id: //depot/dev/client3/rdock/2013.1/src/exe/rbdock.cxx#4 $)

>  <Rbt.Library>
libRbt.so (2013.1, Build901 2013/11/27)

>  <Rbt.Parameter_File>
/export/apps/rDock/src/rDock_2013.1_src/data/scripts/dock_solv.prm

>  <Rbt.Receptor>
prm/blind_docking_40.prm

>  <SCORE>
-6.95007

>  <SCORE.INTER>
-5.47898

>  <SCORE.INTER.CONST>
1

>  <SCORE.INTER.POLAR>
0

>  <SCORE.INTER.ROT>
3

>  <SCORE.INTER.SOLV>
9.60827

>  <SCORE.INTER.VDW>
-12.4554

>  <SCORE.INTER.norm>
-0.342436

>  <SCORE.INTRA>
-1.4711

>  <SCORE.INTRA.DIHEDRAL>
-2.03356

>  <SCORE.INTRA.DIHEDRAL.0>
2.21864

>  <SCORE.INTRA.POLAR>
0

>  <SCORE.INTRA.POLAR.0>
0

>  <SCORE.INTRA.REPUL>
0

>  <SCORE.INTRA.REPUL.0>
0

>  <SCORE.INTRA.SOLV>
-0.260192

>  <SCORE.INTRA.SOLV.lig_0>
-58.5963

>  <SCORE.INTRA.VDW>
-0.324221

>  <SCORE.INTRA.VDW.0>
-0.437849

>  <SCORE.INTRA.norm>
-0.0919435

>  <SCORE.RESTR>
0

>  <SCORE.RESTR.CAVITY>
0

>  <SCORE.RESTR.norm>
0

>  <SCORE.SYSTEM>
0

>  <SCORE.SYSTEM.CONST>
0

>  <SCORE.SYSTEM.DIHEDRAL>
0

>  <SCORE.SYSTEM.SOLV>
0

>  <SCORE.SYSTEM.norm>
0

>  <SCORE.heavy>
16

>  <SCORE.norm>
-0.43438

>  <RMSD>
19.779

$$$$
ligand
 OpenBabel11021811463D
libRbt.so/2013.1/901 2013/11/27
 16 16  0  0  0  0  0  0  0  0999 V2000
   29.2112    8.9780    7.2089 P   0  0  2  0  0  0  0  0  0  0  0  0
   30.5495    9.4336    6.7591 O   0  0  0  0  0  0  0  0  0  0  0  0
   28.0902   10.0649    6.8176 O   0  5  0  0  0  0  0  0  0  0  0  0
   29.2220    8.8054    8.8196 O   0  0  0  0  0  0  0  0  0  0  0  0
   28.2412    5.4521    2.1726 C   0  0  2  0  0  0  0  0  0  0  0  0
   26.9777    4.9101    2.5845 O   0  0  0  0  0  0  0  0  0  0  0  0
   29.3976    4.4363    2.3926 C   0  0  2  0  0  0  0  0  0  0  0  0
   29.1175    3.1897    1.6465 N   0  0  0  0  0  0  0  0  0  0  0  0
   29.5095    4.1371    3.9025 C   0  0  1  0  0  0  0  0  0  0  0  0
   30.5846    3.2133    4.1478 O   0  0  0  0  0  0  0  0  0  0  0  0
   29.7883    5.4600    4.6309 C   0  0  2  0  0  0  0  0  0  0  0  0
   29.8830    5.2188    6.0418 O   0  0  0  0  0  0  0  0  0  0  0  0
   28.6152    6.4337    4.3423 C   0  0  2  0  0  0  0  0  0  0  0  0
   28.5039    6.6792    2.9107 O   0  0  0  0  0  0  0  0  0  0  0  0
   28.8741    7.7748    5.0507 C   0  0  0  0  0  0  0  0  0  0  0  0
   28.8717    7.5785    6.4765 O   0  0  0  0  0  0  0  0  0  0  0  0
  1  2  1  6  0  0  0
  1  3  1  0  0  0  0
  1  4  2  0  0  0  0
  1 16  1  0  0  0  0
  5  6  1  1  0  0  0
  5  7  1  0  0  0  0
  5 14  1  0  0  0  0
  7  8  1  6  0  0  0
  7  9  1  0  0  0  0
  9 10  1  6  0  0  0
  9 11  1  0  0  0  0
 11 12  1  1  0  0  0
 11 13  1  0  0  0  0
 13 14  1  0  0  0  0
 13 15  1  1  0  0  0
 15 16  1  0  0  0  0
M  CHG  1   3  -1
M  END
>  <CHROM.1>
-64.56695185,177.43081116,-59.88325244,29.09729988,6.59936633,4.98678006
1.52298533,-0.86948140,0.71844842

>  <Name>
ligand

>  <RI>
0

>  <Rbt.Current_Directory>
/home/itssahil/PROJECTS/Mol_Feturizer/New_Systems/rnas/3B4B

>  <Rbt.Executable>
rbdock ($Id: //depot/dev/client3/rdock/2013.1/src/exe/rbdock.cxx#4 $)

>  <Rbt.Library>
libRbt.so (2013.1, Build901 2013/11/27)

>  <Rbt.Parameter_File>
/export/apps/rDock/src/rDock_2013.1_src/data/scripts/dock_solv.prm

>  <Rbt.Receptor>
prm/blind_docking_60.prm

>  <SCORE>
-5.2319

>  <SCORE.INTER>
-3.95433

>  <SCORE.INTER.CONST>
1

>  <SCORE.INTER.POLAR>
0

>  <SCORE.INTER.ROT>
3

>  <SCORE.INTER.SOLV>
6.06996

>  <SCORE.INTER.VDW>
-10.2595

>  <SCORE.INTER.norm>
-0.247146

>  <SCORE.INTRA>
-1.27757

>  <SCORE.INTRA.DIHEDRAL>
-2.11108

>  <SCORE.INTRA.DIHEDRAL.0>
2.21864

>  <SCORE.INTRA.POLAR>
0

>  <SCORE.INTRA.POLAR.0>
0

>  <SCORE.INTRA.REPUL>
0

>  <SCORE.INTRA.REPUL.0>
0

>  <SCORE.INTRA.SOLV>
-0.654897

>  <SCORE.INTRA.SOLV.lig_0>
-58.5963

>  <SCORE.INTRA.VDW>
0.105417

>  <SCORE.INTRA.VDW.0>
-0.437849

>  <SCORE.INTRA.norm>
-0.0798482

>  <SCORE.RESTR>
0

>  <SCORE.RESTR.CAVITY>
0

>  <SCORE.RESTR.norm>
0

>  <SCORE.SYSTEM>
0

>  <SCORE.SYSTEM.CONST>
0

>  <SCORE.SYSTEM.DIHEDRAL>
0

>  <SCORE.SYSTEM.SOLV>
0

>  <SCORE.SYSTEM.norm>
0

>  <SCORE.heavy>
16

>  <SCORE.norm>
-0.326994

>  <RMSD>
20.179

$$$$
ligand
 OpenBabel11021811463D
libRbt.so/2013.1/901 2013/11/27
 16 16  0  0  0  0  0  0  0  0999 V2000
   28.7130    2.0701    6.3580 P   0  0  2  0  0  0  0  0  0  0  0  0
   27.9642    1.1023    5.5190 O   0  0  0  0  0  0  0  0  0  0  0  0
   27.7109    2.8334    7.3602 O   0  5  0  0  0  0  0  0  0  0  0  0
   29.4198    3.1686    5.3999 O   0  0  0  0  0  0  0  0  0  0  0  0
   32.1774   -1.8278    8.8059 C   0  0  2  0  0  0  0  0  0  0  0  0
   32.8158   -0.8934    9.6884 O   0  0  0  0  0  0  0  0  0  0  0  0
   33.2098   -2.5500    7.8947 C   0  0  2  0  0  0  0  0  0  0  0  0
   34.2109   -3.2498    8.7297 N   0  0  0  0  0  0  0  0  0  0  0  0
   33.9036   -1.4965    7.0056 C   0  0  1  0  0  0  0  0  0  0  0  0
   34.8545   -2.1314    6.1327 O   0  0  0  0  0  0  0  0  0  0  0  0
   32.8242   -0.7930    6.1700 C   0  0  2  0  0  0  0  0  0  0  0  0
   33.4357    0.2057    5.3414 O   0  0  0  0  0  0  0  0  0  0  0  0
   31.8140   -0.1243    7.1394 C   0  0  2  0  0  0  0  0  0  0  0  0
   31.1929   -1.1286    7.9924 O   0  0  0  0  0  0  0  0  0  0  0  0
   30.7118    0.5791    6.3284 C   0  0  0  0  0  0  0  0  0  0  0  0
   29.8114    1.2593    7.2218 O   0  0  0  0  0  0  0  0  0  0  0  0
  1  2  1  6  0  0  0
  1  3  1  0  0  0  0
  1  4  2  0  0  0  0
  1 16  1  0  0  0  0
  5  6  1  1  0  0  0
  5  7  1  0  0  0  0
  5 14  1  0  0  0  0
  7  8  1  1  0  0  0
  7  9  1  0  0  0  0
  9 10  1  6  0  0  0
  9 11  1  0  0  0  0
 11 12  1  6  0  0  0
 11 13  1  0  0  0  0
 13 14  1  0  0  0  0
 13 15  1  6  0  0  0
 15 16  1  0  0  0  0
M  CHG  1   3  -1
M  END
>  <CHROM.1>
-177.02498966,176.48698282,59.89619827,31.29203590,0.03552804,6.99864310
2.64452655,0.53636730,-1.07138037

>  <Name>
ligand

>  <RI>
0

>  <Rbt.Current_Directory>
/home/itssahil/PROJECTS/Mol_Feturizer/New_Systems/rnas/3B4B

>  <Rbt.Executable>
rbdock ($Id: //depot/dev/client3/rdock/2013.1/src/exe/rbdock.cxx#4 $)

>  <Rbt.Library>
libRbt.so (2013.1, Build901 2013/11/27)

>  <Rbt.Parameter_File>
/export/apps/rDock/src/rDock_2013.1_src/data/scripts/dock_solv.prm

>  <Rbt.Receptor>
prm/blind_docking_100.prm

>  <SCORE>
-7.77486

>  <SCORE.INTER>
-6.02641

>  <SCORE.INTER.CONST>
1

>  <SCORE.INTER.POLAR>
0

>  <SCORE.INTER.ROT>
3

>  <SCORE.INTER.SOLV>
14.9548

>  <SCORE.INTER.VDW>
-14.6025

>  <SCORE.INTER.norm>
-0.37665

>  <SCORE.INTRA>
-1.74846

>  <SCORE.INTRA.DIHEDRAL>
-2.125

>  <SCORE.INTRA.DIHEDRAL.0>
2.21864

>  <SCORE.INTRA.POLAR>
0

>  <SCORE.INTRA.POLAR.0>
0

>  <SCORE.INTRA.REPUL>
0

>  <SCORE.INTRA.REPUL.0>
0

>  <SCORE.INTRA.SOLV>
-1.18765

>  <SCORE.INTRA.SOLV.lig_0>
-58.5963

>  <SCORE.INTRA.VDW>
-0.0921341

>  <SCORE.INTRA.VDW.0>
-0.437849

>  <SCORE.INTRA.norm>
-0.109279

>  <SCORE.RESTR>
0

>  <SCORE.RESTR.CAVITY>
0

>  <SCORE.RESTR.norm>
0

>  <SCORE.SYSTEM>
0

>  <SCORE.SYSTEM.CONST>
0

>  <SCORE.SYSTEM.DIHEDRAL>
0

>  <SCORE.SYSTEM.SOLV>
0

>  <SCORE.SYSTEM.norm>
0

>  <SCORE.heavy>
16

>  <SCORE.norm>
-0.485929

>  <RMSD>
20.266

$$$$
ligand
 OpenBabel11021811463D
libRbt.so/2013.1/901 2013/11/27
 16 16  0  0  0  0  0  0  0  0999 V2000
   29.7873    4.3451    9.7629 P   0  0  2  0  0  0  0  0  0  0  0  0
   30.9379    3.4285    9.9557 O   0  0  0  0  0  0  0  0  0  0  0  0
   30.2863    5.8755    9.7606 O   0  5  0  0  0  0  0  0  0  0  0  0
   28.7392    4.1463   10.9820 O   0  0  0  0  0  0  0  0  0  0  0  0
   29.7396    4.2729    3.5575 C   0  0  2  0  0  0  0  0  0  0  0  0
   28.6050    5.1455    3.4531 O   0  0  0  0  0  0  0  0  0  0  0  0
   29.3504    2.7938    3.2778 C   0  0  2  0  0  0  0  0  0  0  0  0
   28.7506    2.6803    1.9300 N   0  0  0  0  0  0  0  0  0  0  0  0
   28.3367    2.3403    4.3495 C   0  0  1  0  0  0  0  0  0  0  0  0
   27.9670    0.9669    4.1344 O   0  0  0  0  0  0  0  0  0  0  0  0
   29.0010    2.4874    5.7262 C   0  0  2  0  0  0  0  0  0  0  0  0
   28.0775    2.0876    6.7485 O   0  0  0  0  0  0  0  0  0  0  0  0
   29.3913    3.9760    5.9242 C   0  0  2  0  0  0  0  0  0  0  0  0
   30.3227    4.3958    4.8859 O   0  0  0  0  0  0  0  0  0  0  0  0
   30.0719    4.1513    7.2930 C   0  0  0  0  0  0  0  0  0  0  0  0
   29.0961    4.0104    8.3415 O   0  0  0  0  0  0  0  0  0  0  0  0
  1  2  1  1  0  0  0
  1  3  1  0  0  0  0
  1  4  2  0  0  0  0
  1 16  1  0  0  0  0
  5  6  1  1  0  0  0
  5  7  1  0  0  0  0
  5 14  1  0  0  0  0
  7  8  1  6  0  0  0
  7  9  1  0  0  0  0
  9 10  1  6  0  0  0
  9 11  1  0  0  0  0
 11 12  1  1  0  0  0
 11 13  1  0  0  0  0
 13 14  1  0  0  0  0
 13 15  1  1  0  0  0
 15 16  1  0  0  0  0
M  CHG  1   3  -1
M  END
>  <CHROM.1>
-71.33051569,-174.24413626,-57.87763579,29.31375828,3.64089852,6.58940149
-1.23884235,-1.10960936,-1.48610081

>  <Name>
ligand

>  <RI>
0

>  <Rbt.Current_Directory>
/home/itssahil/PROJECTS/Mol_Feturizer/New_Systems/rnas/3B4B

>  <Rbt.Executable>
rbdock ($Id: //depot/dev/client3/rdock/2013.1/src/exe/rbdock.cxx#4 $)

>  <Rbt.Library>
libRbt.so (2013.1, Build901 2013/11/27)

>  <Rbt.Parameter_File>
/export/apps/rDock/src/rDock_2013.1_src/data/scripts/dock_solv.prm

>  <Rbt.Receptor>
prm/blind_docking_80.prm

>  <SCORE>
-7.26169

>  <SCORE.INTER>
-6.0328

>  <SCORE.INTER.CONST>
1

>  <SCORE.INTER.POLAR>
0

>  <SCORE.INTER.ROT>
3

>  <SCORE.INTER.SOLV>
14.5749

>  <SCORE.INTER.VDW>
-14.4802

>  <SCORE.INTER.norm>
-0.37705

>  <SCORE.INTRA>
-1.22889

>  <SCORE.INTRA.DIHEDRAL>
-1.59835

>  <SCORE.INTRA.DIHEDRAL.0>
2.21864

>  <SCORE.INTRA.POLAR>
0

>  <SCORE.INTRA.POLAR.0>
0

>  <SCORE.INTRA.REPUL>
0

>  <SCORE.INTRA.REPUL.0>
0

>  <SCORE.INTRA.SOLV>
-0.789454

>  <SCORE.INTRA.SOLV.lig_0>
-58.5963

>  <SCORE.INTRA.VDW>
-0.0349926

>  <SCORE.INTRA.VDW.0>
-0.437849

>  <SCORE.INTRA.norm>
-0.0768059

>  <SCORE.RESTR>
0

>  <SCORE.RESTR.CAVITY>
0

>  <SCORE.RESTR.norm>
0

>  <SCORE.SYSTEM>
0

>  <SCORE.SYSTEM.CONST>
0

>  <SCORE.SYSTEM.DIHEDRAL>
0

>  <SCORE.SYSTEM.SOLV>
0

>  <SCORE.SYSTEM.norm>
0

>  <SCORE.heavy>
16

>  <SCORE.norm>
-0.453856

>  <RMSD>
20.360

$$$$
ligand
 OpenBabel11021811463D
libRbt.so/2013.1/901 2013/11/27
 16 16  0  0  0  0  0  0  0  0999 V2000
   28.5415    1.9290    3.0100 P   0  0  2  0  0  0  0  0  0  0  0  0
   27.8767    0.6474    3.3514 O   0  0  0  0  0  0  0  0  0  0  0  0
   27.4445    3.0437    2.6292 O   0  5  0  0  0  0  0  0  0  0  0  0
   29.5103    1.7012    1.7318 O   0  0  0  0  0  0  0  0  0  0  0  0
   30.4053    5.1220    7.3700 C   0  0  2  0  0  0  0  0  0  0  0  0
   31.6223    4.3953    7.5945 O   0  0  0  0  0  0  0  0  0  0  0  0
   29.5319    5.1846    8.6548 C   0  0  2  0  0  0  0  0  0  0  0  0
   30.2994    5.8151    9.7515 N   0  0  0  0  0  0  0  0  0  0  0  0
   29.1294    3.7473    9.0470 C   0  0  1  0  0  0  0  0  0  0  0  0
   28.3021    3.7664   10.2236 O   0  0  0  0  0  0  0  0  0  0  0  0
   28.3479    3.1349    7.8754 C   0  0  2  0  0  0  0  0  0  0  0  0
   27.9710    1.7899    8.2024 O   0  0  0  0  0  0  0  0  0  0  0  0
   29.2647    3.1338    6.6236 C   0  0  2  0  0  0  0  0  0  0  0  0
   29.6610    4.4946    6.2873 O   0  0  0  0  0  0  0  0  0  0  0  0
   28.5020    2.5361    5.4284 C   0  0  0  0  0  0  0  0  0  0  0  0
   29.3827    2.4300    4.2951 O   0  0  0  0  0  0  0  0  0  0  0  0
  1  2  1  1  0  0  0
  1  3  1  0  0  0  0
  1  4  2  0  0  0  0
  1 16  1  0  0  0  0
  5  6  1  1  0  0  0
  5  7  1  0  0  0  0
  5 14  1  0  0  0  0
  7  8  1  1  0  0  0
  7  9  1  0  0  0  0
  9 10  1  1  0  0  0
  9 11  1  0  0  0  0
 11 12  1  1  0  0  0
 11 13  1  0  0  0  0
 13 14  1  0  0  0  0
 13 15  1  6  0  0  0
 15 16  1  0  0  0  0
M  CHG  1   3  -1
M  END
>  <CHROM.1>
-175.23505802,-174.88687118,-56.26040502,29.06030923,3.16398801,6.06966868
-1.79259278,0.76681072,1.32464012

>  <Name>
ligand

>  <RI>
0

>  <Rbt.Current_Directory>
/home/itssahil/PROJECTS/Mol_Feturizer/New_Systems/rnas/3B4B

>  <Rbt.Executable>
rbdock ($Id: //depot/dev/client3/rdock/2013.1/src/exe/rbdock.cxx#4 $)

>  <Rbt.Library>
libRbt.so (2013.1, Build901 2013/11/27)

>  <Rbt.Parameter_File>
/export/apps/rDock/src/rDock_2013.1_src/data/scripts/dock_solv.prm

>  <Rbt.Receptor>
prm/blind_docking_80.prm

>  <SCORE>
-8.63477

>  <SCORE.INTER>
-7.02331

>  <SCORE.INTER.CONST>
1

>  <SCORE.INTER.POLAR>
0

>  <SCORE.INTER.ROT>
3

>  <SCORE.INTER.SOLV>
13.5556

>  <SCORE.INTER.VDW>
-14.8008

>  <SCORE.INTER.norm>
-0.438957

>  <SCORE.INTRA>
-1.61146

>  <SCORE.INTRA.DIHEDRAL>
-1.98345

>  <SCORE.INTRA.DIHEDRAL.0>
2.21864

>  <SCORE.INTRA.POLAR>
0

>  <SCORE.INTRA.POLAR.0>
0

>  <SCORE.INTRA.REPUL>
0

>  <SCORE.INTRA.REPUL.0>
0

>  <SCORE.INTRA.SOLV>
-1.15736

>  <SCORE.INTRA.SOLV.lig_0>
-58.5963

>  <SCORE.INTRA.VDW>
-0.0410592

>  <SCORE.INTRA.VDW.0>
-0.437849

>  <SCORE.INTRA.norm>
-0.100716

>  <SCORE.RESTR>
0

>  <SCORE.RESTR.CAVITY>
0

>  <SCORE.RESTR.norm>
0

>  <SCORE.SYSTEM>
0

>  <SCORE.SYSTEM.CONST>
0

>  <SCORE.SYSTEM.DIHEDRAL>
0

>  <SCORE.SYSTEM.SOLV>
0

>  <SCORE.SYSTEM.norm>
0

>  <SCORE.heavy>
16

>  <SCORE.norm>
-0.539673

>  <RMSD>
20.539

$$$$
ligand
 OpenBabel11021811463D
libRbt.so/2013.1/901 2013/11/27
 16 16  0  0  0  0  0  0  0  0999 V2000
   27.8009    3.4638    3.1905 P   0  0  2  0  0  0  0  0  0  0  0  0
   26.9189    4.5436    2.6835 O   0  0  0  0  0  0  0  0  0  0  0  0
   29.2126    3.4860    2.4174 O   0  5  0  0  0  0  0  0  0  0  0  0
   27.0919    2.0311    2.9283 O   0  0  0  0  0  0  0  0  0  0  0  0
   30.5234    4.9363    7.8944 C   0  0  2  0  0  0  0  0  0  0  0  0
   31.5988    4.0846    8.3159 O   0  0  0  0  0  0  0  0  0  0  0  0
   29.3612    4.9427    8.9273 C   0  0  2  0  0  0  0  0  0  0  0  0
   29.8659    5.3848   10.2460 N   0  0  0  0  0  0  0  0  0  0  0  0
   28.7867    3.5140    9.0309 C   0  0  1  0  0  0  0  0  0  0  0  0
   27.6935    3.4845    9.9654 O   0  0  0  0  0  0  0  0  0  0  0  0
   28.2883    3.0989    7.6390 C   0  0  2  0  0  0  0  0  0  0  0  0
   27.7607    1.7662    7.6973 O   0  0  0  0  0  0  0  0  0  0  0  0
   29.4879    3.1461    6.6560 C   0  0  2  0  0  0  0  0  0  0  0  0
   30.0376    4.4937    6.5952 O   0  0  0  0  0  0  0  0  0  0  0  0
   29.0144    2.7462    5.2476 C   0  0  0  0  0  0  0  0  0  0  0  0
   28.0558    3.7063    4.7674 O   0  0  0  0  0  0  0  0  0  0  0  0
  1  2  1  6  0  0  0
  1  3  1  0  0  0  0
  1  4  2  0  0  0  0
  1 16  1  0  0  0  0
  5  6  1  1  0  0  0
  5  7  1  0  0  0  0
  5 14  1  0  0  0  0
  7  8  1  1  0  0  0
  7  9  1  0  0  0  0
  9 10  1  1  0  0  0
  9 11  1  0  0  0  0
 11 12  1  1  0  0  0
 11 13  1  0  0  0  0
 13 14  1  0  0  0  0
 13 15  1  6  0  0  0
 15 16  1  0  0  0  0
M  CHG  1   3  -1
M  END
>  <CHROM.1>
63.51119796,168.10412532,-174.35149654,28.74594289,3.64308902,6.20602250
-1.89797295,0.57885275,1.61442510

>  <Name>
ligand

>  <RI>
0

>  <Rbt.Current_Directory>
/home/itssahil/PROJECTS/Mol_Feturizer/New_Systems/rnas/3B4B

>  <Rbt.Executable>
rbdock ($Id: //depot/dev/client3/rdock/2013.1/src/exe/rbdock.cxx#4 $)

>  <Rbt.Library>
libRbt.so (2013.1, Build901 2013/11/27)

>  <Rbt.Parameter_File>
/export/apps/rDock/src/rDock_2013.1_src/data/scripts/dock_solv.prm

>  <Rbt.Receptor>
prm/blind_docking_40.prm

>  <SCORE>
-9.8553

>  <SCORE.INTER>
-8.72091

>  <SCORE.INTER.CONST>
1

>  <SCORE.INTER.POLAR>
0

>  <SCORE.INTER.ROT>
3

>  <SCORE.INTER.SOLV>
16.4362

>  <SCORE.INTER.VDW>
-16.8927

>  <SCORE.INTER.norm>
-0.545057

>  <SCORE.INTRA>
-1.13439

>  <SCORE.INTRA.DIHEDRAL>
-1.44337

>  <SCORE.INTRA.DIHEDRAL.0>
2.21864

>  <SCORE.INTRA.POLAR>
0

>  <SCORE.INTRA.POLAR.0>
0

>  <SCORE.INTRA.REPUL>
0

>  <SCORE.INTRA.REPUL.0>
0

>  <SCORE.INTRA.SOLV>
-0.214873

>  <SCORE.INTRA.SOLV.lig_0>
-58.5963

>  <SCORE.INTRA.VDW>
-0.305274

>  <SCORE.INTRA.VDW.0>
-0.437849

>  <SCORE.INTRA.norm>
-0.0708996

>  <SCORE.RESTR>
0

>  <SCORE.RESTR.CAVITY>
0

>  <SCORE.RESTR.norm>
0

>  <SCORE.SYSTEM>
0

>  <SCORE.SYSTEM.CONST>
0

>  <SCORE.SYSTEM.DIHEDRAL>
0

>  <SCORE.SYSTEM.SOLV>
0

>  <SCORE.SYSTEM.norm>
0

>  <SCORE.heavy>
16

>  <SCORE.norm>
-0.615956

>  <RMSD>
20.563

$$$$
ligand
 OpenBabel11021811463D
libRbt.so/2013.1/901 2013/11/27
 16 16  0  0  0  0  0  0  0  0999 V2000
   28.7357    1.5950    2.9669 P   0  0  2  0  0  0  0  0  0  0  0  0
   27.8311    0.4850    3.3550 O   0  0  0  0  0  0  0  0  0  0  0  0
   27.8884    2.8171    2.3508 O   0  5  0  0  0  0  0  0  0  0  0  0
   29.7725    1.0665    1.8399 O   0  0  0  0  0  0  0  0  0  0  0  0
   30.4692    4.9373    7.3130 C   0  0  2  0  0  0  0  0  0  0  0  0
   31.6457    4.1709    7.6100 O   0  0  0  0  0  0  0  0  0  0  0  0
   29.5374    5.0569    8.5519 C   0  0  2  0  0  0  0  0  0  0  0  0
   30.2739    5.6800    9.6738 N   0  0  0  0  0  0  0  0  0  0  0  0
   29.0625    3.6432    8.9492 C   0  0  1  0  0  0  0  0  0  0  0  0
   28.1803    3.7157   10.0830 O   0  0  0  0  0  0  0  0  0  0  0  0
   28.3164    3.0373    7.7515 C   0  0  2  0  0  0  0  0  0  0  0  0
   27.8737    1.7137    8.0832 O   0  0  0  0  0  0  0  0  0  0  0  0
   29.2922    2.9781    6.5466 C   0  0  2  0  0  0  0  0  0  0  0  0
   29.7553    4.3166    6.2062 O   0  0  0  0  0  0  0  0  0  0  0  0
   28.5665    2.3856    5.3260 C   0  0  0  0  0  0  0  0  0  0  0  0
   29.5194    2.1040    4.2848 O   0  0  0  0  0  0  0  0  0  0  0  0
  1  2  1  1  0  0  0
  1  3  1  0  0  0  0
  1  4  2  0  0  0  0
  1 16  1  0  0  0  0
  5  6  1  1  0  0  0
  5  7  1  0  0  0  0
  5 14  1  0  0  0  0
  7  8  1  1  0  0  0
  7  9  1  0  0  0  0
  9 10  1  1  0  0  0
  9 11  1  0  0  0  0
 11 12  1  1  0  0  0
 11 13  1  0  0  0  0
 13 14  1  0  0  0  0
 13 15  1  6  0  0  0
 15 16  1  0  0  0  0
M  CHG  1   3  -1
M  END
>  <CHROM.1>
-169.68047199,-175.47706964,-51.92660821,29.13043560,2.95322589,5.99879471
-1.73572434,0.71994360,1.24411557

>  <Name>
ligand

>  <RI>
0

>  <Rbt.Current_Directory>
/home/itssahil/PROJECTS/Mol_Feturizer/New_Systems/rnas/3B4B

>  <Rbt.Executable>
rbdock ($Id: //depot/dev/client3/rdock/2013.1/src/exe/rbdock.cxx#4 $)

>  <Rbt.Library>
libRbt.so (2013.1, Build901 2013/11/27)

>  <Rbt.Parameter_File>
/export/apps/rDock/src/rDock_2013.1_src/data/scripts/dock_solv.prm

>  <Rbt.Receptor>
prm/blind_docking_80.prm

>  <SCORE>
-8.64465

>  <SCORE.INTER>
-7.2421

>  <SCORE.INTER.CONST>
1

>  <SCORE.INTER.POLAR>
0

>  <SCORE.INTER.ROT>
3

>  <SCORE.INTER.SOLV>
12.7296

>  <SCORE.INTER.VDW>
-14.6713

>  <SCORE.INTER.norm>
-0.452631

>  <SCORE.INTRA>
-1.40255

>  <SCORE.INTRA.DIHEDRAL>
-1.63228

>  <SCORE.INTRA.DIHEDRAL.0>
2.21864

>  <SCORE.INTRA.POLAR>
0

>  <SCORE.INTRA.POLAR.0>
0

>  <SCORE.INTRA.REPUL>
0

>  <SCORE.INTRA.REPUL.0>
0

>  <SCORE.INTRA.SOLV>
-1.22192

>  <SCORE.INTRA.SOLV.lig_0>
-58.5963

>  <SCORE.INTRA.VDW>
0.0245473

>  <SCORE.INTRA.VDW.0>
-0.437849

>  <SCORE.INTRA.norm>
-0.0876596

>  <SCORE.RESTR>
0

>  <SCORE.RESTR.CAVITY>
0

>  <SCORE.RESTR.norm>
0

>  <SCORE.SYSTEM>
0

>  <SCORE.SYSTEM.CONST>
0

>  <SCORE.SYSTEM.DIHEDRAL>
0

>  <SCORE.SYSTEM.SOLV>
0

>  <SCORE.SYSTEM.norm>
0

>  <SCORE.heavy>
16

>  <SCORE.norm>
-0.540291

>  <RMSD>
20.580

$$$$
ligand
 OpenBabel11021811463D
libRbt.so/2013.1/901 2013/11/27
 16 16  0  0  0  0  0  0  0  0999 V2000
   28.2750    9.7099    5.7598 P   0  0  2  0  0  0  0  0  0  0  0  0
   29.5492   10.3159    5.3015 O   0  0  0  0  0  0  0  0  0  0  0  0
   27.0697   10.7671    5.6158 O   0  5  0  0  0  0  0  0  0  0  0  0
   28.4141    9.2959    7.3198 O   0  0  0  0  0  0  0  0  0  0  0  0
   28.4882    5.5448    1.8367 C   0  0  2  0  0  0  0  0  0  0  0  0
   27.1634    5.0428    2.0659 O   0  0  0  0  0  0  0  0  0  0  0  0
   29.5595    4.4320    2.0142 C   0  0  2  0  0  0  0  0  0  0  0  0
   29.2778    3.3137    1.0874 N   0  0  0  0  0  0  0  0  0  0  0  0
   29.5155    3.9348    3.4746 C   0  0  1  0  0  0  0  0  0  0  0  0
   30.5089    2.9154    3.6826 O   0  0  0  0  0  0  0  0  0  0  0  0
   29.8019    5.1310    4.3940 C   0  0  2  0  0  0  0  0  0  0  0  0
   29.7532    4.7050    5.7630 O   0  0  0  0  0  0  0  0  0  0  0  0
   28.7179    6.2121    4.1417 C   0  0  2  0  0  0  0  0  0  0  0  0
   28.7523    6.6462    2.7516 O   0  0  0  0  0  0  0  0  0  0  0  0
   28.9874    7.4303    5.0422 C   0  0  0  0  0  0  0  0  0  0  0  0
   27.9604    8.4185    4.8414 O   0  0  0  0  0  0  0  0  0  0  0  0
  1  2  1  6  0  0  0
  1  3  1  0  0  0  0
  1  4  2  0  0  0  0
  1 16  1  0  0  0  0
  5  6  1  1  0  0  0
  5  7  1  0  0  0  0
  5 14  1  0  0  0  0
  7  8  1  6  0  0  0
  7  9  1  0  0  0  0
  9 10  1  6  0  0  0
  9 11  1  0  0  0  0
 11 12  1  1  0  0  0
 11 13  1  0  0  0  0
 13 14  1  0  0  0  0
 13 15  1  1  0  0  0
 15 16  1  0  0  0  0
M  CHG  1   3  -1
M  END
>  <CHROM.1>
-178.22356289,-178.41967323,63.83656889,28.80204845,6.78252048,4.23765311
1.87719078,-1.00274802,0.76803382

>  <Name>
ligand

>  <RI>
0

>  <Rbt.Current_Directory>
/home/itssahil/PROJECTS/Mol_Feturizer/New_Systems/rnas/3B4B

>  <Rbt.Executable>
rbdock ($Id: //depot/dev/client3/rdock/2013.1/src/exe/rbdock.cxx#4 $)

>  <Rbt.Library>
libRbt.so (2013.1, Build901 2013/11/27)

>  <Rbt.Parameter_File>
/export/apps/rDock/src/rDock_2013.1_src/data/scripts/dock_solv.prm

>  <Rbt.Receptor>
prm/blind_docking_40.prm

>  <SCORE>
-5.28911

>  <SCORE.INTER>
-3.49233

>  <SCORE.INTER.CONST>
1

>  <SCORE.INTER.POLAR>
0

>  <SCORE.INTER.ROT>
3

>  <SCORE.INTER.SOLV>
6.03508

>  <SCORE.INTER.VDW>
-9.93992

>  <SCORE.INTER.norm>
-0.218271

>  <SCORE.INTRA>
-1.79678

>  <SCORE.INTRA.DIHEDRAL>
-2.16889

>  <SCORE.INTRA.DIHEDRAL.0>
2.21864

>  <SCORE.INTRA.POLAR>
0

>  <SCORE.INTRA.POLAR.0>
0

>  <SCORE.INTRA.REPUL>
0

>  <SCORE.INTRA.REPUL.0>
0

>  <SCORE.INTRA.SOLV>
-1.14481

>  <SCORE.INTRA.SOLV.lig_0>
-58.5963

>  <SCORE.INTRA.VDW>
-0.139926

>  <SCORE.INTRA.VDW.0>
-0.437849

>  <SCORE.INTRA.norm>
-0.112299

>  <SCORE.RESTR>
0

>  <SCORE.RESTR.CAVITY>
0

>  <SCORE.RESTR.norm>
0

>  <SCORE.SYSTEM>
0

>  <SCORE.SYSTEM.CONST>
0

>  <SCORE.SYSTEM.DIHEDRAL>
0

>  <SCORE.SYSTEM.SOLV>
0

>  <SCORE.SYSTEM.norm>
0

>  <SCORE.heavy>
16

>  <SCORE.norm>
-0.330569

>  <RMSD>
20.658

$$$$
ligand
 OpenBabel11021811463D
libRbt.so/2013.1/901 2013/11/27
 16 16  0  0  0  0  0  0  0  0999 V2000
   27.6807    4.4058    3.6158 P   0  0  2  0  0  0  0  0  0  0  0  0
   26.3550    3.7960    3.8837 O   0  0  0  0  0  0  0  0  0  0  0  0
   28.0044    4.3692    2.0394 O   0  5  0  0  0  0  0  0  0  0  0  0
   28.8217    3.5614    4.3962 O   0  0  0  0  0  0  0  0  0  0  0  0
   28.1253   10.1350    3.9659 C   0  0  2  0  0  0  0  0  0  0  0  0
   29.4507   10.6844    3.9298 O   0  0  0  0  0  0  0  0  0  0  0  0
   27.4784   10.2953    5.3706 C   0  0  2  0  0  0  0  0  0  0  0  0
   27.4401   11.7266    5.7437 N   0  0  0  0  0  0  0  0  0  0  0  0
   28.3196    9.5028    6.3934 C   0  0  1  0  0  0  0  0  0  0  0  0
   27.7392    9.6117    7.7051 O   0  0  0  0  0  0  0  0  0  0  0  0
   28.3376    8.0306    5.9567 C   0  0  2  0  0  0  0  0  0  0  0  0
   29.1261    7.2670    6.8803 O   0  0  0  0  0  0  0  0  0  0  0  0
   28.9635    7.9487    4.5393 C   0  0  2  0  0  0  0  0  0  0  0  0
   28.1754    8.7282    3.5940 O   0  0  0  0  0  0  0  0  0  0  0  0
   28.9829    6.4836    4.0698 C   0  0  0  0  0  0  0  0  0  0  0  0
   27.6503    5.9419    4.1155 O   0  0  0  0  0  0  0  0  0  0  0  0
  1  2  1  1  0  0  0
  1  3  1  0  0  0  0
  1  4  2  0  0  0  0
  1 16  1  0  0  0  0
  5  6  1  1  0  0  0
  5  7  1  0  0  0  0
  5 14  1  0  0  0  0
  7  8  1  1  0  0  0
  7  9  1  0  0  0  0
  9 10  1  1  0  0  0
  9 11  1  0  0  0  0
 11 12  1  1  0  0  0
 11 13  1  0  0  0  0
 13 14  1  0  0  0  0
 13 15  1  6  0  0  0
 15 16  1  0  0  0  0
M  CHG  1   3  -1
M  END
>  <CHROM.1>
56.08284811,179.79209996,170.55943430,28.13153637,7.34920405,4.66345685,-2.47904239
1.49022564,1.23569654

>  <Name>
ligand

>  <RI>
0

>  <Rbt.Current_Directory>
/home/itssahil/PROJECTS/Mol_Feturizer/New_Systems/rnas/3B4B

>  <Rbt.Executable>
rbdock ($Id: //depot/dev/client3/rdock/2013.1/src/exe/rbdock.cxx#4 $)

>  <Rbt.Library>
libRbt.so (2013.1, Build901 2013/11/27)

>  <Rbt.Parameter_File>
/export/apps/rDock/src/rDock_2013.1_src/data/scripts/dock_solv.prm

>  <Rbt.Receptor>
prm/blind_docking_40.prm

>  <SCORE>
-8.95781

>  <SCORE.INTER>
-7.53778

>  <SCORE.INTER.CONST>
1

>  <SCORE.INTER.POLAR>
0

>  <SCORE.INTER.ROT>
3

>  <SCORE.INTER.SOLV>
10.1818

>  <SCORE.INTER.VDW>
-14.0191

>  <SCORE.INTER.norm>
-0.471111

>  <SCORE.INTRA>
-1.42002

>  <SCORE.INTRA.DIHEDRAL>
-2.02211

>  <SCORE.INTRA.DIHEDRAL.0>
2.21864

>  <SCORE.INTRA.POLAR>
0

>  <SCORE.INTRA.POLAR.0>
0

>  <SCORE.INTRA.REPUL>
0

>  <SCORE.INTRA.REPUL.0>
0

>  <SCORE.INTRA.SOLV>
-0.267306

>  <SCORE.INTRA.SOLV.lig_0>
-58.5963

>  <SCORE.INTRA.VDW>
-0.275314

>  <SCORE.INTRA.VDW.0>
-0.437849

>  <SCORE.INTRA.norm>
-0.0887515

>  <SCORE.RESTR>
0

>  <SCORE.RESTR.CAVITY>
0

>  <SCORE.RESTR.norm>
0

>  <SCORE.SYSTEM>
0

>  <SCORE.SYSTEM.CONST>
0

>  <SCORE.SYSTEM.DIHEDRAL>
0

>  <SCORE.SYSTEM.SOLV>
0

>  <SCORE.SYSTEM.norm>
0

>  <SCORE.heavy>
16

>  <SCORE.norm>
-0.559863

>  <RMSD>
20.686

$$$$
ligand
 OpenBabel11021811463D
libRbt.so/2013.1/901 2013/11/27
 16 16  0  0  0  0  0  0  0  0999 V2000
   27.7126    4.3492    3.7047 P   0  0  2  0  0  0  0  0  0  0  0  0
   26.3626    3.7671    3.9043 O   0  0  0  0  0  0  0  0  0  0  0  0
   28.1648    4.1976    2.1673 O   0  5  0  0  0  0  0  0  0  0  0  0
   28.7759    3.5573    4.6355 O   0  0  0  0  0  0  0  0  0  0  0  0
   28.1569   10.0852    3.9110 C   0  0  2  0  0  0  0  0  0  0  0  0
   29.4840   10.6315    3.9245 O   0  0  0  0  0  0  0  0  0  0  0  0
   27.4425   10.2860    5.2773 C   0  0  2  0  0  0  0  0  0  0  0  0
   27.3899   11.7273    5.6076 N   0  0  0  0  0  0  0  0  0  0  0  0
   28.2305    9.5215    6.3620 C   0  0  1  0  0  0  0  0  0  0  0  0
   27.5869    9.6683    7.6400 O   0  0  0  0  0  0  0  0  0  0  0  0
   28.2658    8.0376    5.9683 C   0  0  2  0  0  0  0  0  0  0  0  0
   29.0061    7.2993    6.9506 O   0  0  0  0  0  0  0  0  0  0  0  0
   28.9601    7.9148    4.5861 C   0  0  2  0  0  0  0  0  0  0  0  0
   28.2214    8.6684    3.5818 O   0  0  0  0  0  0  0  0  0  0  0  0
   28.9985    6.4370    4.1596 C   0  0  0  0  0  0  0  0  0  0  0  0
   27.6581    5.9174    4.0894 O   0  0  0  0  0  0  0  0  0  0  0  0
  1  2  1  1  0  0  0
  1  3  1  0  0  0  0
  1  4  2  0  0  0  0
  1 16  1  0  0  0  0
  5  6  1  1  0  0  0
  5  7  1  0  0  0  0
  5 14  1  0  0  0  0
  7  8  1  1  0  0  0
  7  9  1  0  0  0  0
  9 10  1  1  0  0  0
  9 11  1  0  0  0  0
 11 12  1  1  0  0  0
 11 13  1  0  0  0  0
 13 14  1  0  0  0  0
 13 15  1  6  0  0  0
 15 16  1  0  0  0  0
M  CHG  1   3  -1
M  END
>  <CHROM.1>
58.98260309,-177.52018045,168.66948529,28.12082193,7.32017394,4.68773091
-2.05076643,1.46128348,0.78017059

>  <Name>
ligand

>  <RI>
0

>  <Rbt.Current_Directory>
/home/itssahil/PROJECTS/Mol_Feturizer/New_Systems/rnas/3B4B

>  <Rbt.Executable>
rbdock ($Id: //depot/dev/client3/rdock/2013.1/src/exe/rbdock.cxx#4 $)

>  <Rbt.Library>
libRbt.so (2013.1, Build901 2013/11/27)

>  <Rbt.Parameter_File>
/export/apps/rDock/src/rDock_2013.1_src/data/scripts/dock_solv.prm

>  <Rbt.Receptor>
prm/blind_docking_100.prm

>  <SCORE>
-8.98328

>  <SCORE.INTER>
-7.56774

>  <SCORE.INTER.CONST>
1

>  <SCORE.INTER.POLAR>
0

>  <SCORE.INTER.ROT>
3

>  <SCORE.INTER.SOLV>
10.2212

>  <SCORE.INTER.VDW>
-14.0522

>  <SCORE.INTER.norm>
-0.472984

>  <SCORE.INTRA>
-1.41554

>  <SCORE.INTRA.DIHEDRAL>
-1.98224

>  <SCORE.INTRA.DIHEDRAL.0>
2.21864

>  <SCORE.INTRA.POLAR>
0

>  <SCORE.INTRA.POLAR.0>
0

>  <SCORE.INTRA.REPUL>
0

>  <SCORE.INTRA.REPUL.0>
0

>  <SCORE.INTRA.SOLV>
-0.265041

>  <SCORE.INTRA.SOLV.lig_0>
-58.5963

>  <SCORE.INTRA.VDW>
-0.291898

>  <SCORE.INTRA.VDW.0>
-0.437849

>  <SCORE.INTRA.norm>
-0.0884712

>  <SCORE.RESTR>
0

>  <SCORE.RESTR.CAVITY>
0

>  <SCORE.RESTR.norm>
0

>  <SCORE.SYSTEM>
0

>  <SCORE.SYSTEM.CONST>
0

>  <SCORE.SYSTEM.DIHEDRAL>
0

>  <SCORE.SYSTEM.SOLV>
0

>  <SCORE.SYSTEM.norm>
0

>  <SCORE.heavy>
16

>  <SCORE.norm>
-0.561455

>  <RMSD>
20.696

$$$$
ligand
 OpenBabel11021811463D
libRbt.so/2013.1/901 2013/11/27
 16 16  0  0  0  0  0  0  0  0999 V2000
   32.1012   -1.6931    8.6114 P   0  0  2  0  0  0  0  0  0  0  0  0
   30.7926   -2.2846    8.9838 O   0  0  0  0  0  0  0  0  0  0  0  0
   33.2138   -2.8467    8.4620 O   0  5  0  0  0  0  0  0  0  0  0  0
   32.5726   -0.6697    9.7753 O   0  0  0  0  0  0  0  0  0  0  0  0
   30.5202    0.3155    3.5766 C   0  0  2  0  0  0  0  0  0  0  0  0
   31.6262    1.1871    3.3000 O   0  0  0  0  0  0  0  0  0  0  0  0
   29.1634    1.0707    3.4958 C   0  0  2  0  0  0  0  0  0  0  0  0
   29.0055    1.6737    2.1539 N   0  0  0  0  0  0  0  0  0  0  0  0
   29.1475    2.1715    4.5773 C   0  0  1  0  0  0  0  0  0  0  0  0
   27.8965    2.8809    4.5460 O   0  0  0  0  0  0  0  0  0  0  0  0
   29.3255    1.4975    5.9457 C   0  0  2  0  0  0  0  0  0  0  0  0
   29.3305    2.4971    6.9746 O   0  0  0  0  0  0  0  0  0  0  0  0
   30.6788    0.7385    5.9445 C   0  0  2  0  0  0  0  0  0  0  0  0
   30.6885   -0.2740    4.8972 O   0  0  0  0  0  0  0  0  0  0  0  0
   30.8785    0.0414    7.3016 C   0  0  0  0  0  0  0  0  0  0  0  0
   31.9362   -0.9291    7.1974 O   0  0  0  0  0  0  0  0  0  0  0  0
  1  2  1  1  0  0  0
  1  3  1  0  0  0  0
  1  4  2  0  0  0  0
  1 16  1  0  0  0  0
  5  6  1  1  0  0  0
  5  7  1  0  0  0  0
  5 14  1  0  0  0  0
  7  8  1  6  0  0  0
  7  9  1  0  0  0  0
  9 10  1  1  0  0  0
  9 11  1  0  0  0  0
 11 12  1  1  0  0  0
 11 13  1  0  0  0  0
 13 14  1  0  0  0  0
 13 15  1  1  0  0  0
 15 16  1  0  0  0  0
M  CHG  1   3  -1
M  END
>  <CHROM.1>
165.28094490,-177.93280243,55.81700685,30.70298580,0.15860762,6.23541315
-0.87190389,0.83406967,-1.50181061

>  <Name>
ligand

>  <RI>
0

>  <Rbt.Current_Directory>
/home/itssahil/PROJECTS/Mol_Feturizer/New_Systems/rnas/3B4B

>  <Rbt.Executable>
rbdock ($Id: //depot/dev/client3/rdock/2013.1/src/exe/rbdock.cxx#4 $)

>  <Rbt.Library>
libRbt.so (2013.1, Build901 2013/11/27)

>  <Rbt.Parameter_File>
/export/apps/rDock/src/rDock_2013.1_src/data/scripts/dock_solv.prm

>  <Rbt.Receptor>
prm/blind_docking_60.prm

>  <SCORE>
-6.84941

>  <SCORE.INTER>
-5.57913

>  <SCORE.INTER.CONST>
1

>  <SCORE.INTER.POLAR>
0

>  <SCORE.INTER.ROT>
3

>  <SCORE.INTER.SOLV>
12.1876

>  <SCORE.INTER.VDW>
-13.382

>  <SCORE.INTER.norm>
-0.348695

>  <SCORE.INTRA>
-1.27029

>  <SCORE.INTRA.DIHEDRAL>
-1.42566

>  <SCORE.INTRA.DIHEDRAL.0>
2.21864

>  <SCORE.INTRA.POLAR>
0

>  <SCORE.INTRA.POLAR.0>
0

>  <SCORE.INTRA.REPUL>
0

>  <SCORE.INTRA.REPUL.0>
0

>  <SCORE.INTRA.SOLV>
-1.17133

>  <SCORE.INTRA.SOLV.lig_0>
-58.5963

>  <SCORE.INTRA.VDW>
0.0282095

>  <SCORE.INTRA.VDW.0>
-0.437849

>  <SCORE.INTRA.norm>
-0.0793929

>  <SCORE.RESTR>
0

>  <SCORE.RESTR.CAVITY>
0

>  <SCORE.RESTR.norm>
0

>  <SCORE.SYSTEM>
0

>  <SCORE.SYSTEM.CONST>
0

>  <SCORE.SYSTEM.DIHEDRAL>
0

>  <SCORE.SYSTEM.SOLV>
0

>  <SCORE.SYSTEM.norm>
0

>  <SCORE.heavy>
16

>  <SCORE.norm>
-0.428088

>  <RMSD>
20.800

$$$$
ligand
 OpenBabel11021811463D
libRbt.so/2013.1/901 2013/11/27
 16 16  0  0  0  0  0  0  0  0999 V2000
   29.7809    4.3484    9.3362 P   0  0  2  0  0  0  0  0  0  0  0  0
   28.7215    3.6857   10.1359 O   0  0  0  0  0  0  0  0  0  0  0  0
   31.1268    3.4655    9.3508 O   0  5  0  0  0  0  0  0  0  0  0  0
   30.1076    5.7971    9.9832 O   0  0  0  0  0  0  0  0  0  0  0  0
   28.9023    4.4531    3.6746 C   0  0  2  0  0  0  0  0  0  0  0  0
   27.5705    4.9841    3.7379 O   0  0  0  0  0  0  0  0  0  0  0  0
   28.9427    3.1019    2.9063 C   0  0  2  0  0  0  0  0  0  0  0  0
   28.4095    3.2876    1.5387 N   0  0  0  0  0  0  0  0  0  0  0  0
   28.0864    2.0730    3.6744 C   0  0  1  0  0  0  0  0  0  0  0  0
   28.1156    0.8015    3.0024 O   0  0  0  0  0  0  0  0  0  0  0  0
   28.6720    1.9251    5.0863 C   0  0  2  0  0  0  0  0  0  0  0  0
   27.8878    0.9846    5.8337 O   0  0  0  0  0  0  0  0  0  0  0  0
   28.6307    3.3120    5.7806 C   0  0  2  0  0  0  0  0  0  0  0  0
   29.4170    4.2780    5.0252 O   0  0  0  0  0  0  0  0  0  0  0  0
   29.2241    3.1966    7.1955 C   0  0  0  0  0  0  0  0  0  0  0  0
   29.2596    4.4956    7.8141 O   0  0  0  0  0  0  0  0  0  0  0  0
  1  2  1  1  0  0  0
  1  3  1  0  0  0  0
  1  4  2  0  0  0  0
  1 16  1  0  0  0  0
  5  6  1  1  0  0  0
  5  7  1  0  0  0  0
  5 14  1  0  0  0  0
  7  8  1  6  0  0  0
  7  9  1  0  0  0  0
  9 10  1  6  0  0  0
  9 11  1  0  0  0  0
 11 12  1  1  0  0  0
 11 13  1  0  0  0  0
 13 14  1  0  0  0  0
 13 15  1  1  0  0  0
 15 16  1  0  0  0  0
M  CHG  1   3  -1
M  END
>  <CHROM.1>
176.66371262,175.83349745,-70.80226218,28.99750940,3.47070874,6.20692195
-0.45562338,-1.31589292,-0.72651152

>  <Name>
ligand

>  <RI>
0

>  <Rbt.Current_Directory>
/home/itssahil/PROJECTS/Mol_Feturizer/New_Systems/rnas/3B4B

>  <Rbt.Executable>
rbdock ($Id: //depot/dev/client3/rdock/2013.1/src/exe/rbdock.cxx#4 $)

>  <Rbt.Library>
libRbt.so (2013.1, Build901 2013/11/27)

>  <Rbt.Parameter_File>
/export/apps/rDock/src/rDock_2013.1_src/data/scripts/dock_solv.prm

>  <Rbt.Receptor>
prm/blind_docking_60.prm

>  <SCORE>
-6.75069

>  <SCORE.INTER>
-5.26007

>  <SCORE.INTER.CONST>
1

>  <SCORE.INTER.POLAR>
0

>  <SCORE.INTER.ROT>
3

>  <SCORE.INTER.SOLV>
15.4609

>  <SCORE.INTER.VDW>
-14.2604

>  <SCORE.INTER.norm>
-0.328755

>  <SCORE.INTRA>
-1.49062

>  <SCORE.INTRA.DIHEDRAL>
-1.90917

>  <SCORE.INTRA.DIHEDRAL.0>
2.21864

>  <SCORE.INTRA.POLAR>
0

>  <SCORE.INTRA.POLAR.0>
0

>  <SCORE.INTRA.REPUL>
0

>  <SCORE.INTRA.REPUL.0>
0

>  <SCORE.INTRA.SOLV>
-1.06134

>  <SCORE.INTRA.SOLV.lig_0>
-58.5963

>  <SCORE.INTRA.VDW>
-0.00535861

>  <SCORE.INTRA.VDW.0>
-0.437849

>  <SCORE.INTRA.norm>
-0.0931634

>  <SCORE.RESTR>
0

>  <SCORE.RESTR.CAVITY>
0

>  <SCORE.RESTR.norm>
0

>  <SCORE.SYSTEM>
0

>  <SCORE.SYSTEM.CONST>
0

>  <SCORE.SYSTEM.DIHEDRAL>
0

>  <SCORE.SYSTEM.SOLV>
0

>  <SCORE.SYSTEM.norm>
0

>  <SCORE.heavy>
16

>  <SCORE.norm>
-0.421918

>  <RMSD>
20.822

$$$$
ligand
 OpenBabel11021811463D
libRbt.so/2013.1/901 2013/11/27
 16 16  0  0  0  0  0  0  0  0999 V2000
   28.6741    8.4912    6.9542 P   0  0  2  0  0  0  0  0  0  0  0  0
   27.2466    8.8891    6.8829 O   0  0  0  0  0  0  0  0  0  0  0  0
   29.0736    8.1115    8.4666 O   0  5  0  0  0  0  0  0  0  0  0  0
   29.5967    9.7328    6.4734 O   0  0  0  0  0  0  0  0  0  0  0  0
   27.5872    4.3384    3.1461 C   0  0  2  0  0  0  0  0  0  0  0  0
   28.6921    3.5057    3.5273 O   0  0  0  0  0  0  0  0  0  0  0  0
   27.6412    4.7033    1.6357 C   0  0  2  0  0  0  0  0  0  0  0  0
   27.6440    3.4676    0.8220 N   0  0  0  0  0  0  0  0  0  0  0  0
   28.9264    5.5157    1.3711 C   0  0  1  0  0  0  0  0  0  0  0  0
   29.0016    5.8891   -0.0160 O   0  0  0  0  0  0  0  0  0  0  0  0
   28.8803    6.7780    2.2445 C   0  0  2  0  0  0  0  0  0  0  0  0
   30.0709    7.5499    2.0333 O   0  0  0  0  0  0  0  0  0  0  0  0
   28.7946    6.3412    3.7309 C   0  0  2  0  0  0  0  0  0  0  0  0
   27.5930    5.5488    3.9553 O   0  0  0  0  0  0  0  0  0  0  0  0
   28.7342    7.5881    4.6304 C   0  0  0  0  0  0  0  0  0  0  0  0
   28.8959    7.2011    6.0072 O   0  0  0  0  0  0  0  0  0  0  0  0
  1  2  1  6  0  0  0
  1  3  1  0  0  0  0
  1  4  2  0  0  0  0
  1 16  1  0  0  0  0
  5  6  1  1  0  0  0
  5  7  1  0  0  0  0
  5 14  1  0  0  0  0
  7  8  1  6  0  0  0
  7  9  1  0  0  0  0
  9 10  1  6  0  0  0
  9 11  1  0  0  0  0
 11 12  1  1  0  0  0
 11 13  1  0  0  0  0
 13 14  1  0  0  0  0
 13 15  1  1  0  0  0
 15 16  1  0  0  0  0
M  CHG  1   3  -1
M  END
>  <CHROM.1>
-169.76229686,-174.00606732,68.26270812,28.58999084,6.66865578,4.15323598
1.45703632,1.12380516,1.08293722

>  <Name>
ligand

>  <RI>
0

>  <Rbt.Current_Directory>
/home/itssahil/PROJECTS/Mol_Feturizer/New_Systems/rnas/3B4B

>  <Rbt.Executable>
rbdock ($Id: //depot/dev/client3/rdock/2013.1/src/exe/rbdock.cxx#4 $)

>  <Rbt.Library>
libRbt.so (2013.1, Build901 2013/11/27)

>  <Rbt.Parameter_File>
/export/apps/rDock/src/rDock_2013.1_src/data/scripts/dock_solv.prm

>  <Rbt.Receptor>
prm/blind_docking_40.prm

>  <SCORE>
-8.10466

>  <SCORE.INTER>
-6.60111

>  <SCORE.INTER.CONST>
1

>  <SCORE.INTER.POLAR>
0

>  <SCORE.INTER.ROT>
3

>  <SCORE.INTER.SOLV>
10.0974

>  <SCORE.INTER.VDW>
-13.3665

>  <SCORE.INTER.norm>
-0.412569

>  <SCORE.INTRA>
-1.50355

>  <SCORE.INTRA.DIHEDRAL>
-1.55774

>  <SCORE.INTRA.DIHEDRAL.0>
2.21864

>  <SCORE.INTRA.POLAR>
0

>  <SCORE.INTRA.POLAR.0>
0

>  <SCORE.INTRA.REPUL>
0

>  <SCORE.INTRA.REPUL.0>
0

>  <SCORE.INTRA.SOLV>
-1.11857

>  <SCORE.INTRA.SOLV.lig_0>
-58.5963

>  <SCORE.INTRA.VDW>
-0.165392

>  <SCORE.INTRA.VDW.0>
-0.437849

>  <SCORE.INTRA.norm>
-0.0939717

>  <SCORE.RESTR>
0

>  <SCORE.RESTR.CAVITY>
0

>  <SCORE.RESTR.norm>
0

>  <SCORE.SYSTEM>
0

>  <SCORE.SYSTEM.CONST>
0

>  <SCORE.SYSTEM.DIHEDRAL>
0

>  <SCORE.SYSTEM.SOLV>
0

>  <SCORE.SYSTEM.norm>
0

>  <SCORE.heavy>
16

>  <SCORE.norm>
-0.506541

>  <RMSD>
20.852

$$$$
ligand
 OpenBabel11021811463D
libRbt.so/2013.1/901 2013/11/27
 16 16  0  0  0  0  0  0  0  0999 V2000
   28.2403    9.2795    5.5633 P   0  0  2  0  0  0  0  0  0  0  0  0
   29.6643    9.5949    5.8351 O   0  0  0  0  0  0  0  0  0  0  0  0
   27.7316   10.0721    4.2580 O   0  5  0  0  0  0  0  0  0  0  0  0
   27.3424    9.7419    6.8299 O   0  0  0  0  0  0  0  0  0  0  0  0
   27.3309    3.9482    3.5880 C   0  0  2  0  0  0  0  0  0  0  0  0
   27.8001    3.2908    4.7742 O   0  0  0  0  0  0  0  0  0  0  0  0
   28.1275    3.4966    2.3314 C   0  0  2  0  0  0  0  0  0  0  0  0
   28.0187    2.0299    2.1702 N   0  0  0  0  0  0  0  0  0  0  0  0
   29.6054    3.9023    2.5133 C   0  0  1  0  0  0  0  0  0  0  0  0
   30.3722    3.5172    1.3588 O   0  0  0  0  0  0  0  0  0  0  0  0
   29.6630    5.4270    2.6872 C   0  0  2  0  0  0  0  0  0  0  0  0
   31.0251    5.8362    2.8744 O   0  0  0  0  0  0  0  0  0  0  0  0
   28.8238    5.8088    3.9352 C   0  0  2  0  0  0  0  0  0  0  0  0
   27.4396    5.3899    3.7598 O   0  0  0  0  0  0  0  0  0  0  0  0
   28.8531    7.3352    4.1270 C   0  0  0  0  0  0  0  0  0  0  0  0
   28.1061    7.6904    5.3048 O   0  0  0  0  0  0  0  0  0  0  0  0
  1  2  1  1  0  0  0
  1  3  1  0  0  0  0
  1  4  2  0  0  0  0
  1 16  1  0  0  0  0
  5  6  1  1  0  0  0
  5  7  1  0  0  0  0
  5 14  1  0  0  0  0
  7  8  1  1  0  0  0
  7  9  1  0  0  0  0
  9 10  1  6  0  0  0
  9 11  1  0  0  0  0
 11 12  1  1  0  0  0
 11 13  1  0  0  0  0
 13 14  1  0  0  0  0
 13 15  1  6  0  0  0
 15 16  1  0  0  0  0
M  CHG  1   3  -1
M  END
>  <CHROM.1>
-178.43174862,175.54540230,-63.37333529,28.60926584,6.32634348,4.03218905
1.68445600,0.56836685,0.41237067

>  <Name>
ligand

>  <RI>
0

>  <Rbt.Current_Directory>
/home/itssahil/PROJECTS/Mol_Feturizer/New_Systems/rnas/3B4B

>  <Rbt.Executable>
rbdock ($Id: //depot/dev/client3/rdock/2013.1/src/exe/rbdock.cxx#4 $)

>  <Rbt.Library>
libRbt.so (2013.1, Build901 2013/11/27)

>  <Rbt.Parameter_File>
/export/apps/rDock/src/rDock_2013.1_src/data/scripts/dock_solv.prm

>  <Rbt.Receptor>
prm/blind_docking_80.prm

>  <SCORE>
-7.44178

>  <SCORE.INTER>
-5.75955

>  <SCORE.INTER.CONST>
1

>  <SCORE.INTER.POLAR>
0

>  <SCORE.INTER.ROT>
3

>  <SCORE.INTER.SOLV>
10.9981

>  <SCORE.INTER.VDW>
-13.1057

>  <SCORE.INTER.norm>
-0.359972

>  <SCORE.INTRA>
-1.68224

>  <SCORE.INTRA.DIHEDRAL>
-2.09381

>  <SCORE.INTRA.DIHEDRAL.0>
2.21864

>  <SCORE.INTRA.POLAR>
0

>  <SCORE.INTRA.POLAR.0>
0

>  <SCORE.INTRA.REPUL>
0

>  <SCORE.INTRA.REPUL.0>
0

>  <SCORE.INTRA.SOLV>
-1.15575

>  <SCORE.INTRA.SOLV.lig_0>
-58.5963

>  <SCORE.INTRA.VDW>
-0.0574613

>  <SCORE.INTRA.VDW.0>
-0.437849

>  <SCORE.INTRA.norm>
-0.10514

>  <SCORE.RESTR>
0

>  <SCORE.RESTR.CAVITY>
0

>  <SCORE.RESTR.norm>
0

>  <SCORE.SYSTEM>
0

>  <SCORE.SYSTEM.CONST>
0

>  <SCORE.SYSTEM.DIHEDRAL>
0

>  <SCORE.SYSTEM.SOLV>
0

>  <SCORE.SYSTEM.norm>
0

>  <SCORE.heavy>
16

>  <SCORE.norm>
-0.465111

>  <RMSD>
20.940

$$$$
ligand
 OpenBabel11021811463D
libRbt.so/2013.1/901 2013/11/27
 16 16  0  0  0  0  0  0  0  0999 V2000
   32.2049    3.9079    2.9806 P   0  0  2  0  0  0  0  0  0  0  0  0
   33.5610    4.5095    2.9790 O   0  0  0  0  0  0  0  0  0  0  0  0
   32.1118    2.7426    4.0872 O   0  5  0  0  0  0  0  0  0  0  0  0
   31.9083    3.2617    1.5250 O   0  0  0  0  0  0  0  0  0  0  0  0
   28.6569    4.7497   -0.7835 C   0  0  2  0  0  0  0  0  0  0  0  0
   29.8927    4.4484   -1.4480 O   0  0  0  0  0  0  0  0  0  0  0  0
   28.2856    6.2533   -0.9218 C   0  0  2  0  0  0  0  0  0  0  0  0
   28.1886    6.6153   -2.3532 N   0  0  0  0  0  0  0  0  0  0  0  0
   29.3807    7.0960   -0.2345 C   0  0  1  0  0  0  0  0  0  0  0  0
   29.0610    8.4956   -0.3252 O   0  0  0  0  0  0  0  0  0  0  0  0
   29.4493    6.6759    1.2410 C   0  0  2  0  0  0  0  0  0  0  0  0
   30.4707    7.4316    1.9069 O   0  0  0  0  0  0  0  0  0  0  0  0
   29.7902    5.1635    1.3034 C   0  0  2  0  0  0  0  0  0  0  0  0
   28.7634    4.3864    0.6223 O   0  0  0  0  0  0  0  0  0  0  0  0
   29.8531    4.7109    2.7727 C   0  0  0  0  0  0  0  0  0  0  0  0
   31.1310    5.0620    3.3340 O   0  0  0  0  0  0  0  0  0  0  0  0
  1  2  1  1  0  0  0
  1  3  1  0  0  0  0
  1  4  2  0  0  0  0
  1 16  1  0  0  0  0
  5  6  1  6  0  0  0
  5  7  1  0  0  0  0
  5 14  1  0  0  0  0
  7  8  1  6  0  0  0
  7  9  1  0  0  0  0
  9 10  1  1  0  0  0
  9 11  1  0  0  0  0
 11 12  1  1  0  0  0
 11 13  1  0  0  0  0
 13 14  1  0  0  0  0
 13 15  1  1  0  0  0
 15 16  1  0  0  0  0
M  CHG  1   3  -1
M  END
>  <CHROM.1>
-80.94909386,-84.64040200,154.11143156,30.37083515,5.21595237,1.22579245
0.21898414,0.94129426,-2.81625950

>  <Name>
ligand

>  <RI>
0

>  <Rbt.Current_Directory>
/home/itssahil/PROJECTS/Mol_Feturizer/New_Systems/rnas/3B4B

>  <Rbt.Executable>
rbdock ($Id: //depot/dev/client3/rdock/2013.1/src/exe/rbdock.cxx#4 $)

>  <Rbt.Library>
libRbt.so (2013.1, Build901 2013/11/27)

>  <Rbt.Parameter_File>
/export/apps/rDock/src/rDock_2013.1_src/data/scripts/dock_solv.prm

>  <Rbt.Receptor>
prm/blind_docking_60.prm

>  <SCORE>
-4.29812

>  <SCORE.INTER>
-6.61919

>  <SCORE.INTER.CONST>
1

>  <SCORE.INTER.POLAR>
0

>  <SCORE.INTER.ROT>
3

>  <SCORE.INTER.SOLV>
9.72504

>  <SCORE.INTER.VDW>
-13.2545

>  <SCORE.INTER.norm>
-0.413699

>  <SCORE.INTRA>
2.32107

>  <SCORE.INTRA.DIHEDRAL>
2.75555

>  <SCORE.INTRA.DIHEDRAL.0>
2.21864

>  <SCORE.INTRA.POLAR>
0

>  <SCORE.INTRA.POLAR.0>
0

>  <SCORE.INTRA.REPUL>
0

>  <SCORE.INTRA.REPUL.0>
0

>  <SCORE.INTRA.SOLV>
2.30244

>  <SCORE.INTRA.SOLV.lig_0>
-58.5963

>  <SCORE.INTRA.VDW>
-0.207923

>  <SCORE.INTRA.VDW.0>
-0.437849

>  <SCORE.INTRA.norm>
0.145067

>  <SCORE.RESTR>
0

>  <SCORE.RESTR.CAVITY>
0

>  <SCORE.RESTR.norm>
0

>  <SCORE.SYSTEM>
0

>  <SCORE.SYSTEM.CONST>
0

>  <SCORE.SYSTEM.DIHEDRAL>
0

>  <SCORE.SYSTEM.SOLV>
0

>  <SCORE.SYSTEM.norm>
0

>  <SCORE.heavy>
16

>  <SCORE.norm>
-0.268632

>  <RMSD>
21.044

$$$$
ligand
 OpenBabel11021811463D
libRbt.so/2013.1/901 2013/11/27
 16 16  0  0  0  0  0  0  0  0999 V2000
   27.9765    9.1821    6.1629 P   0  0  2  0  0  0  0  0  0  0  0  0
   26.7438    9.6714    5.4981 O   0  0  0  0  0  0  0  0  0  0  0  0
   27.7837    9.1729    7.7610 O   0  5  0  0  0  0  0  0  0  0  0  0
   29.2060   10.1715    5.7976 O   0  0  0  0  0  0  0  0  0  0  0  0
   27.5516    4.1967    3.4705 C   0  0  2  0  0  0  0  0  0  0  0  0
   28.5287    3.4772    4.2368 O   0  0  0  0  0  0  0  0  0  0  0  0
   27.8752    4.1566    1.9502 C   0  0  2  0  0  0  0  0  0  0  0  0
   27.9416    2.7522    1.4894 N   0  0  0  0  0  0  0  0  0  0  0  0
   29.2309    4.8562    1.7169 C   0  0  1  0  0  0  0  0  0  0  0  0
   29.5555    4.8561    0.3155 O   0  0  0  0  0  0  0  0  0  0  0  0
   29.1137    6.3023    2.2203 C   0  0  2  0  0  0  0  0  0  0  0  0
   30.3651    6.9777    2.0315 O   0  0  0  0  0  0  0  0  0  0  0  0
   28.7587    6.2670    3.7303 C   0  0  2  0  0  0  0  0  0  0  0  0
   27.4931    5.5753    3.9350 O   0  0  0  0  0  0  0  0  0  0  0  0
   28.6221    7.7052    4.2600 C   0  0  0  0  0  0  0  0  0  0  0  0
   28.2712    7.6768    5.6555 O   0  0  0  0  0  0  0  0  0  0  0  0
  1  2  1  6  0  0  0
  1  3  1  0  0  0  0
  1  4  2  0  0  0  0
  1 16  1  0  0  0  0
  5  6  1  1  0  0  0
  5  7  1  0  0  0  0
  5 14  1  0  0  0  0
  7  8  1  1  0  0  0
  7  9  1  0  0  0  0
  9 10  1  6  0  0  0
  9 11  1  0  0  0  0
 11 12  1  1  0  0  0
 11 13  1  0  0  0  0
 13 14  1  0  0  0  0
 13 15  1  6  0  0  0
 15 16  1  0  0  0  0
M  CHG  1   3  -1
M  END
>  <CHROM.1>
179.06081762,-174.02773033,67.42186146,28.40964926,6.69533698,3.98884380
1.74545017,0.96661334,0.56864389

>  <Name>
ligand

>  <RI>
0

>  <Rbt.Current_Directory>
/home/itssahil/PROJECTS/Mol_Feturizer/New_Systems/rnas/3B4B

>  <Rbt.Executable>
rbdock ($Id: //depot/dev/client3/rdock/2013.1/src/exe/rbdock.cxx#4 $)

>  <Rbt.Library>
libRbt.so (2013.1, Build901 2013/11/27)

>  <Rbt.Parameter_File>
/export/apps/rDock/src/rDock_2013.1_src/data/scripts/dock_solv.prm

>  <Rbt.Receptor>
prm/blind_docking_100.prm

>  <SCORE>
-8.56392

>  <SCORE.INTER>
-6.89814

>  <SCORE.INTER.CONST>
1

>  <SCORE.INTER.POLAR>
0

>  <SCORE.INTER.ROT>
3

>  <SCORE.INTER.SOLV>
9.13113

>  <SCORE.INTER.VDW>
-13.2425

>  <SCORE.INTER.norm>
-0.431134

>  <SCORE.INTRA>
-1.66577

>  <SCORE.INTRA.DIHEDRAL>
-1.94891

>  <SCORE.INTRA.DIHEDRAL.0>
2.21864

>  <SCORE.INTRA.POLAR>
0

>  <SCORE.INTRA.POLAR.0>
0

>  <SCORE.INTRA.REPUL>
0

>  <SCORE.INTRA.REPUL.0>
0

>  <SCORE.INTRA.SOLV>
-1.09345

>  <SCORE.INTRA.SOLV.lig_0>
-58.5963

>  <SCORE.INTRA.VDW>
-0.144598

>  <SCORE.INTRA.VDW.0>
-0.437849

>  <SCORE.INTRA.norm>
-0.104111

>  <SCORE.RESTR>
0

>  <SCORE.RESTR.CAVITY>
0

>  <SCORE.RESTR.norm>
0

>  <SCORE.SYSTEM>
0

>  <SCORE.SYSTEM.CONST>
0

>  <SCORE.SYSTEM.DIHEDRAL>
0

>  <SCORE.SYSTEM.SOLV>
0

>  <SCORE.SYSTEM.norm>
0

>  <SCORE.heavy>
16

>  <SCORE.norm>
-0.535245

>  <RMSD>
21.047

$$$$
ligand
 OpenBabel11021811463D
libRbt.so/2013.1/901 2013/11/27
 16 16  0  0  0  0  0  0  0  0999 V2000
   27.9765    9.1978    6.1351 P   0  0  2  0  0  0  0  0  0  0  0  0
   26.7432    9.6823    5.4678 O   0  0  0  0  0  0  0  0  0  0  0  0
   27.7838    9.1967    7.7332 O   0  5  0  0  0  0  0  0  0  0  0  0
   29.2049   10.1866    5.7645 O   0  0  0  0  0  0  0  0  0  0  0  0
   27.5442    4.1954    3.4785 C   0  0  2  0  0  0  0  0  0  0  0  0
   28.5290    3.4825    4.2411 O   0  0  0  0  0  0  0  0  0  0  0  0
   27.8555    4.1466    1.9558 C   0  0  2  0  0  0  0  0  0  0  0  0
   27.9207    2.7395    1.5031 N   0  0  0  0  0  0  0  0  0  0  0  0
   29.2079    4.8472    1.7071 C   0  0  1  0  0  0  0  0  0  0  0  0
   29.5210    4.8391    0.3031 O   0  0  0  0  0  0  0  0  0  0  0  0
   29.0921    6.2961    2.2026 C   0  0  2  0  0  0  0  0  0  0  0  0
   30.3406    6.9727    1.9994 O   0  0  0  0  0  0  0  0  0  0  0  0
   28.7495    6.2695    3.7156 C   0  0  2  0  0  0  0  0  0  0  0  0
   27.4870    5.5767    3.9350 O   0  0  0  0  0  0  0  0  0  0  0  0
   28.6146    7.7106    4.2376 C   0  0  0  0  0  0  0  0  0  0  0  0
   28.2727    7.6902    5.6355 O   0  0  0  0  0  0  0  0  0  0  0  0
  1  2  1  6  0  0  0
  1  3  1  0  0  0  0
  1  4  2  0  0  0  0
  1 16  1  0  0  0  0
  5  6  1  1  0  0  0
  5  7  1  0  0  0  0
  5 14  1  0  0  0  0
  7  8  1  1  0  0  0
  7  9  1  0  0  0  0
  9 10  1  6  0  0  0
  9 11  1  0  0  0  0
 11 12  1  1  0  0  0
 11 13  1  0  0  0  0
 13 14  1  0  0  0  0
 13 15  1  6  0  0  0
 15 16  1  0  0  0  0
M  CHG  1   3  -1
M  END
>  <CHROM.1>
178.95498720,-173.91235255,67.02954509,28.39977584,6.69865578,3.97383904
1.74192852,0.97410103,0.56533164

>  <Name>
ligand

>  <RI>
0

>  <Rbt.Current_Directory>
/home/itssahil/PROJECTS/Mol_Feturizer/New_Systems/rnas/3B4B

>  <Rbt.Executable>
rbdock ($Id: //depot/dev/client3/rdock/2013.1/src/exe/rbdock.cxx#4 $)

>  <Rbt.Library>
libRbt.so (2013.1, Build901 2013/11/27)

>  <Rbt.Parameter_File>
/export/apps/rDock/src/rDock_2013.1_src/data/scripts/dock_solv.prm

>  <Rbt.Receptor>
prm/blind_docking_40.prm

>  <SCORE>
-8.54504

>  <SCORE.INTER>
-6.87666

>  <SCORE.INTER.CONST>
1

>  <SCORE.INTER.POLAR>
0

>  <SCORE.INTER.ROT>
3

>  <SCORE.INTER.SOLV>
9.06461

>  <SCORE.INTER.VDW>
-13.206

>  <SCORE.INTER.norm>
-0.429791

>  <SCORE.INTRA>
-1.66838

>  <SCORE.INTRA.DIHEDRAL>
-1.95062

>  <SCORE.INTRA.DIHEDRAL.0>
2.21864

>  <SCORE.INTRA.POLAR>
0

>  <SCORE.INTRA.POLAR.0>
0

>  <SCORE.INTRA.REPUL>
0

>  <SCORE.INTRA.REPUL.0>
0

>  <SCORE.INTRA.SOLV>
-1.09678

>  <SCORE.INTRA.SOLV.lig_0>
-58.5963

>  <SCORE.INTRA.VDW>
-0.144683

>  <SCORE.INTRA.VDW.0>
-0.437849

>  <SCORE.INTRA.norm>
-0.104274

>  <SCORE.RESTR>
0

>  <SCORE.RESTR.CAVITY>
0

>  <SCORE.RESTR.norm>
0

>  <SCORE.SYSTEM>
0

>  <SCORE.SYSTEM.CONST>
0

>  <SCORE.SYSTEM.DIHEDRAL>
0

>  <SCORE.SYSTEM.SOLV>
0

>  <SCORE.SYSTEM.norm>
0

>  <SCORE.heavy>
16

>  <SCORE.norm>
-0.534065

>  <RMSD>
21.059

$$$$
ligand
 OpenBabel11021811463D
libRbt.so/2013.1/901 2013/11/27
 16 16  0  0  0  0  0  0  0  0999 V2000
   27.9530    9.1114    6.1032 P   0  0  2  0  0  0  0  0  0  0  0  0
   27.2976    8.9724    7.4269 O   0  0  0  0  0  0  0  0  0  0  0  0
   29.3965    9.8053    6.2644 O   0  5  0  0  0  0  0  0  0  0  0  0
   27.0349   10.0463    5.1509 O   0  0  0  0  0  0  0  0  0  0  0  0
   27.5614    4.3404    3.0445 C   0  0  2  0  0  0  0  0  0  0  0  0
   28.5097    3.5501    3.7764 O   0  0  0  0  0  0  0  0  0  0  0  0
   27.9227    4.4124    1.5339 C   0  0  2  0  0  0  0  0  0  0  0  0
   27.9826    3.0466    0.9680 N   0  0  0  0  0  0  0  0  0  0  0  0
   29.2927    5.1078    1.3879 C   0  0  1  0  0  0  0  0  0  0  0  0
   29.6524    5.2104   -0.0011 O   0  0  0  0  0  0  0  0  0  0  0  0
   29.1813    6.5126    1.9983 C   0  0  2  0  0  0  0  0  0  0  0  0
   30.4457    7.1821    1.8923 O   0  0  0  0  0  0  0  0  0  0  0  0
   28.7880    6.3668    3.4921 C   0  0  2  0  0  0  0  0  0  0  0  0
   27.5089    5.6801    3.6123 O   0  0  0  0  0  0  0  0  0  0  0  0
   28.6566    7.7619    4.1276 C   0  0  0  0  0  0  0  0  0  0  0  0
   28.1407    7.6388    5.4655 O   0  0  0  0  0  0  0  0  0  0  0  0
  1  2  1  1  0  0  0
  1  3  1  0  0  0  0
  1  4  2  0  0  0  0
  1 16  1  0  0  0  0
  5  6  1  1  0  0  0
  5  7  1  0  0  0  0
  5 14  1  0  0  0  0
  7  8  1  1  0  0  0
  7  9  1  0  0  0  0
  9 10  1  6  0  0  0
  9 11  1  0  0  0  0
 11 12  1  1  0  0  0
 11 13  1  0  0  0  0
 13 14  1  0  0  0  0
 13 15  1  6  0  0  0
 15 16  1  0  0  0  0
M  CHG  1   3  -1
M  END
>  <CHROM.1>
173.28360807,-177.84553385,174.50063644,28.42460645,6.78795466,3.75661321
1.75912494,0.93381389,0.62476721

>  <Name>
ligand

>  <RI>
0

>  <Rbt.Current_Directory>
/home/itssahil/PROJECTS/Mol_Feturizer/New_Systems/rnas/3B4B

>  <Rbt.Executable>
rbdock ($Id: //depot/dev/client3/rdock/2013.1/src/exe/rbdock.cxx#4 $)

>  <Rbt.Library>
libRbt.so (2013.1, Build901 2013/11/27)

>  <Rbt.Parameter_File>
/export/apps/rDock/src/rDock_2013.1_src/data/scripts/dock_solv.prm

>  <Rbt.Receptor>
prm/blind_docking_40.prm

>  <SCORE>
-7.52323

>  <SCORE.INTER>
-6.08421

>  <SCORE.INTER.CONST>
1

>  <SCORE.INTER.POLAR>
0

>  <SCORE.INTER.ROT>
3

>  <SCORE.INTER.SOLV>
10.8285

>  <SCORE.INTER.VDW>
-13.2656

>  <SCORE.INTER.norm>
-0.380263

>  <SCORE.INTRA>
-1.43902

>  <SCORE.INTRA.DIHEDRAL>
-1.9868

>  <SCORE.INTRA.DIHEDRAL.0>
2.21864

>  <SCORE.INTRA.POLAR>
0

>  <SCORE.INTRA.POLAR.0>
0

>  <SCORE.INTRA.REPUL>
0

>  <SCORE.INTRA.REPUL.0>
0

>  <SCORE.INTRA.SOLV>
-0.475454

>  <SCORE.INTRA.SOLV.lig_0>
-58.5963

>  <SCORE.INTRA.VDW>
-0.207887

>  <SCORE.INTRA.VDW.0>
-0.437849

>  <SCORE.INTRA.norm>
-0.0899385

>  <SCORE.RESTR>
0

>  <SCORE.RESTR.CAVITY>
0

>  <SCORE.RESTR.norm>
0

>  <SCORE.SYSTEM>
0

>  <SCORE.SYSTEM.CONST>
0

>  <SCORE.SYSTEM.DIHEDRAL>
0

>  <SCORE.SYSTEM.SOLV>
0

>  <SCORE.SYSTEM.norm>
0

>  <SCORE.heavy>
16

>  <SCORE.norm>
-0.470202

>  <RMSD>
21.114

$$$$
ligand
 OpenBabel11021811463D
libRbt.so/2013.1/901 2013/11/27
 16 16  0  0  0  0  0  0  0  0999 V2000
   32.6136    3.4511    2.7555 P   0  0  2  0  0  0  0  0  0  0  0  0
   33.5884    4.5689    2.7952 O   0  0  0  0  0  0  0  0  0  0  0  0
   31.2481    3.8739    3.4955 O   0  5  0  0  0  0  0  0  0  0  0  0
   33.2415    2.1708    3.5240 O   0  0  0  0  0  0  0  0  0  0  0  0
   30.0951   -0.0386   -1.7353 C   0  0  2  0  0  0  0  0  0  0  0  0
   31.1551    0.1105   -2.6912 O   0  0  0  0  0  0  0  0  0  0  0  0
   28.8949    0.8940   -2.0630 C   0  0  2  0  0  0  0  0  0  0  0  0
   28.3908    0.6017   -3.4231 N   0  0  0  0  0  0  0  0  0  0  0  0
   29.3722    2.3591   -1.9776 C   0  0  1  0  0  0  0  0  0  0  0  0
   28.2812    3.2543   -2.2563 O   0  0  0  0  0  0  0  0  0  0  0  0
   29.8945    2.6078   -0.5551 C   0  0  2  0  0  0  0  0  0  0  0  0
   30.3613    3.9599   -0.4461 O   0  0  0  0  0  0  0  0  0  0  0  0
   31.0645    1.6251   -0.2850 C   0  0  2  0  0  0  0  0  0  0  0  0
   30.6038    0.2481   -0.4016 O   0  0  0  0  0  0  0  0  0  0  0  0
   31.6004    1.8433    1.1407 C   0  0  0  0  0  0  0  0  0  0  0  0
   32.2939    3.1026    1.2107 O   0  0  0  0  0  0  0  0  0  0  0  0
  1  2  1  1  0  0  0
  1  3  1  0  0  0  0
  1  4  2  0  0  0  0
  1 16  1  0  0  0  0
  5  6  1  6  0  0  0
  5  7  1  0  0  0  0
  5 14  1  0  0  0  0
  7  8  1  6  0  0  0
  7  9  1  0  0  0  0
  9 10  1  1  0  0  0
  9 11  1  0  0  0  0
 11 12  1  6  0  0  0
 11 13  1  0  0  0  0
 13 14  1  0  0  0  0
 13 15  1  1  0  0  0
 15 16  1  0  0  0  0
M  CHG  1   3  -1
M  END
>  <CHROM.1>
-70.58607639,169.64976369,167.01250205,30.96943129,2.29573723,0.20210190
0.76576870,-0.79831517,0.51172735

>  <Name>
ligand

>  <RI>
0

>  <Rbt.Current_Directory>
/home/itssahil/PROJECTS/Mol_Feturizer/New_Systems/rnas/3B4B

>  <Rbt.Executable>
rbdock ($Id: //depot/dev/client3/rdock/2013.1/src/exe/rbdock.cxx#4 $)

>  <Rbt.Library>
libRbt.so (2013.1, Build901 2013/11/27)

>  <Rbt.Parameter_File>
/export/apps/rDock/src/rDock_2013.1_src/data/scripts/dock_solv.prm

>  <Rbt.Receptor>
prm/blind_docking_60.prm

>  <SCORE>
-9.18516

>  <SCORE.INTER>
-8.60221

>  <SCORE.INTER.CONST>
1

>  <SCORE.INTER.POLAR>
0

>  <SCORE.INTER.ROT>
3

>  <SCORE.INTER.SOLV>
11.0399

>  <SCORE.INTER.VDW>
-15.0148

>  <SCORE.INTER.norm>
-0.537638

>  <SCORE.INTRA>
-0.582953

>  <SCORE.INTRA.DIHEDRAL>
-1.04508

>  <SCORE.INTRA.DIHEDRAL.0>
2.21864

>  <SCORE.INTRA.POLAR>
0

>  <SCORE.INTRA.POLAR.0>
0

>  <SCORE.INTRA.REPUL>
0

>  <SCORE.INTRA.REPUL.0>
0

>  <SCORE.INTRA.SOLV>
0.356

>  <SCORE.INTRA.SOLV.lig_0>
-58.5963

>  <SCORE.INTRA.VDW>
-0.238414

>  <SCORE.INTRA.VDW.0>
-0.437849

>  <SCORE.INTRA.norm>
-0.0364346

>  <SCORE.RESTR>
0

>  <SCORE.RESTR.CAVITY>
0

>  <SCORE.RESTR.norm>
0

>  <SCORE.SYSTEM>
0

>  <SCORE.SYSTEM.CONST>
0

>  <SCORE.SYSTEM.DIHEDRAL>
0

>  <SCORE.SYSTEM.SOLV>
0

>  <SCORE.SYSTEM.norm>
0

>  <SCORE.heavy>
16

>  <SCORE.norm>
-0.574073

>  <RMSD>
22.330

$$$$
ligand
 OpenBabel11021811463D
libRbt.so/2013.1/901 2013/11/27
 16 16  0  0  0  0  0  0  0  0999 V2000
   28.8018    2.5929    7.3608 P   0  0  2  0  0  0  0  0  0  0  0  0
   27.8330    1.5497    7.7780 O   0  0  0  0  0  0  0  0  0  0  0  0
   30.2645    1.9505    7.1637 O   0  5  0  0  0  0  0  0  0  0  0  0
   28.8885    3.7289    8.5125 O   0  0  0  0  0  0  0  0  0  0  0  0
   28.2988    4.6413    2.0773 C   0  0  2  0  0  0  0  0  0  0  0  0
   26.9296    5.0631    2.1599 O   0  0  0  0  0  0  0  0  0  0  0  0
   28.5241    3.6610    0.8916 C   0  0  2  0  0  0  0  0  0  0  0  0
   28.1194    4.3076   -0.3762 N   0  0  0  0  0  0  0  0  0  0  0  0
   27.6787    2.3928    1.1339 C   0  0  1  0  0  0  0  0  0  0  0  0
   27.8768    1.4516    0.0642 O   0  0  0  0  0  0  0  0  0  0  0  0
   28.1280    1.7674    2.4626 C   0  0  2  0  0  0  0  0  0  0  0  0
   27.3492    0.5918    2.7257 O   0  0  0  0  0  0  0  0  0  0  0  0
   27.9064    2.8077    3.5922 C   0  0  2  0  0  0  0  0  0  0  0  0
   28.6862    4.0101    3.3308 O   0  0  0  0  0  0  0  0  0  0  0  0
   28.3606    2.2118    4.9361 C   0  0  0  0  0  0  0  0  0  0  0  0
   28.3061    3.2235    5.9584 O   0  0  0  0  0  0  0  0  0  0  0  0
  1  2  1  1  0  0  0
  1  3  1  0  0  0  0
  1  4  2  0  0  0  0
  1 16  1  0  0  0  0
  5  6  1  1  0  0  0
  5  7  1  0  0  0  0
  5 14  1  0  0  0  0
  7  8  1  6  0  0  0
  7  9  1  0  0  0  0
  9 10  1  6  0  0  0
  9 11  1  0  0  0  0
 11 12  1  1  0  0  0
 11 13  1  0  0  0  0
 13 14  1  0  0  0  0
 13 15  1  1  0  0  0
 15 16  1  0  0  0  0
M  CHG  1   3  -1
M  END
>  <CHROM.1>
173.23340453,-179.31075253,-65.22209164,28.28831091,2.83845843,4.07491156
-0.44894131,-1.41419516,-0.36379774

>  <Name>
ligand

>  <RI>
0

>  <Rbt.Current_Directory>
/home/itssahil/PROJECTS/Mol_Feturizer/New_Systems/rnas/3B4B

>  <Rbt.Executable>
rbdock ($Id: //depot/dev/client3/rdock/2013.1/src/exe/rbdock.cxx#4 $)

>  <Rbt.Library>
libRbt.so (2013.1, Build901 2013/11/27)

>  <Rbt.Parameter_File>
/export/apps/rDock/src/rDock_2013.1_src/data/scripts/dock_solv.prm

>  <Rbt.Receptor>
prm/blind_docking_100.prm

>  <SCORE>
-7.47507

>  <SCORE.INTER>
-5.90777

>  <SCORE.INTER.CONST>
1

>  <SCORE.INTER.POLAR>
0

>  <SCORE.INTER.ROT>
3

>  <SCORE.INTER.SOLV>
12.0385

>  <SCORE.INTER.VDW>
-13.5513

>  <SCORE.INTER.norm>
-0.369236

>  <SCORE.INTRA>
-1.5673

>  <SCORE.INTRA.DIHEDRAL>
-2.0097

>  <SCORE.INTRA.DIHEDRAL.0>
2.21864

>  <SCORE.INTRA.POLAR>
0

>  <SCORE.INTRA.POLAR.0>
0

>  <SCORE.INTRA.REPUL>
0

>  <SCORE.INTRA.REPUL.0>
0

>  <SCORE.INTRA.SOLV>
-1.07169

>  <SCORE.INTRA.SOLV.lig_0>
-58.5963

>  <SCORE.INTRA.VDW>
-0.026608

>  <SCORE.INTRA.VDW.0>
-0.437849

>  <SCORE.INTRA.norm>
-0.0979562

>  <SCORE.RESTR>
0

>  <SCORE.RESTR.CAVITY>
0

>  <SCORE.RESTR.norm>
0

>  <SCORE.SYSTEM>
0

>  <SCORE.SYSTEM.CONST>
0

>  <SCORE.SYSTEM.DIHEDRAL>
0

>  <SCORE.SYSTEM.SOLV>
0

>  <SCORE.SYSTEM.norm>
0

>  <SCORE.heavy>
16

>  <SCORE.norm>
-0.467192

>  <RMSD>
22.367

$$$$
ligand
 OpenBabel11021811463D
libRbt.so/2013.1/901 2013/11/27
 16 16  0  0  0  0  0  0  0  0999 V2000
   28.7892    2.6099    7.2551 P   0  0  2  0  0  0  0  0  0  0  0  0
   27.7932    1.5927    7.6728 O   0  0  0  0  0  0  0  0  0  0  0  0
   30.2322    1.9272    7.0483 O   0  5  0  0  0  0  0  0  0  0  0  0
   28.9134    3.7381    8.4109 O   0  0  0  0  0  0  0  0  0  0  0  0
   28.3951    4.6926    1.9726 C   0  0  2  0  0  0  0  0  0  0  0  0
   27.0464    5.1760    2.0562 O   0  0  0  0  0  0  0  0  0  0  0  0
   28.5756    3.7055    0.7849 C   0  0  2  0  0  0  0  0  0  0  0  0
   28.2007    4.3724   -0.4816 N   0  0  0  0  0  0  0  0  0  0  0  0
   27.6735    2.4765    1.0246 C   0  0  1  0  0  0  0  0  0  0  0  0
   27.8286    1.5295   -0.0470 O   0  0  0  0  0  0  0  0  0  0  0  0
   28.0939    1.8286    2.3520 C   0  0  2  0  0  0  0  0  0  0  0  0
   27.2626    0.6890    2.6128 O   0  0  0  0  0  0  0  0  0  0  0  0
   27.9198    2.8756    3.4838 C   0  0  2  0  0  0  0  0  0  0  0  0
   28.7534    4.0419    3.2248 O   0  0  0  0  0  0  0  0  0  0  0  0
   28.3465    2.2570    4.8264 C   0  0  0  0  0  0  0  0  0  0  0  0
   28.3049    3.2601    5.8577 O   0  0  0  0  0  0  0  0  0  0  0  0
  1  2  1  1  0  0  0
  1  3  1  0  0  0  0
  1  4  2  0  0  0  0
  1 16  1  0  0  0  0
  5  6  1  1  0  0  0
  5  7  1  0  0  0  0
  5 14  1  0  0  0  0
  7  8  1  6  0  0  0
  7  9  1  0  0  0  0
  9 10  1  6  0  0  0
  9 11  1  0  0  0  0
 11 12  1  1  0  0  0
 11 13  1  0  0  0  0
 13 14  1  0  0  0  0
 13 15  1  1  0  0  0
 15 16  1  0  0  0  0
M  CHG  1   3  -1
M  END
>  <CHROM.1>
174.70074435,-178.61498713,-66.14030596,28.29684689,2.88705041,3.96773212
-0.69944151,-1.39498942,-0.60834514

>  <Name>
ligand

>  <RI>
0

>  <Rbt.Current_Directory>
/home/itssahil/PROJECTS/Mol_Feturizer/New_Systems/rnas/3B4B

>  <Rbt.Executable>
rbdock ($Id: //depot/dev/client3/rdock/2013.1/src/exe/rbdock.cxx#4 $)

>  <Rbt.Library>
libRbt.so (2013.1, Build901 2013/11/27)

>  <Rbt.Parameter_File>
/export/apps/rDock/src/rDock_2013.1_src/data/scripts/dock_solv.prm

>  <Rbt.Receptor>
prm/blind_docking_40.prm

>  <SCORE>
-7.43964

>  <SCORE.INTER>
-5.85224

>  <SCORE.INTER.CONST>
1

>  <SCORE.INTER.POLAR>
0

>  <SCORE.INTER.ROT>
3

>  <SCORE.INTER.SOLV>
11.4648

>  <SCORE.INTER.VDW>
-13.3231

>  <SCORE.INTER.norm>
-0.365765

>  <SCORE.INTRA>
-1.5874

>  <SCORE.INTRA.DIHEDRAL>
-2.04871

>  <SCORE.INTRA.DIHEDRAL.0>
2.21864

>  <SCORE.INTRA.POLAR>
0

>  <SCORE.INTRA.POLAR.0>
0

>  <SCORE.INTRA.REPUL>
0

>  <SCORE.INTRA.REPUL.0>
0

>  <SCORE.INTRA.SOLV>
-1.06179

>  <SCORE.INTRA.SOLV.lig_0>
-58.5963

>  <SCORE.INTRA.VDW>
-0.03215

>  <SCORE.INTRA.VDW.0>
-0.437849

>  <SCORE.INTRA.norm>
-0.0992123

>  <SCORE.RESTR>
0

>  <SCORE.RESTR.CAVITY>
0

>  <SCORE.RESTR.norm>
0

>  <SCORE.SYSTEM>
0

>  <SCORE.SYSTEM.CONST>
0

>  <SCORE.SYSTEM.DIHEDRAL>
0

>  <SCORE.SYSTEM.SOLV>
0

>  <SCORE.SYSTEM.norm>
0

>  <SCORE.heavy>
16

>  <SCORE.norm>
-0.464977

>  <RMSD>
22.383

$$$$
ligand
 OpenBabel11021811463D
libRbt.so/2013.1/901 2013/11/27
 16 16  0  0  0  0  0  0  0  0999 V2000
   28.7894    2.6151    7.2273 P   0  0  2  0  0  0  0  0  0  0  0  0
   27.7838    1.5898    7.5994 O   0  0  0  0  0  0  0  0  0  0  0  0
   30.2400    1.9387    7.0555 O   0  5  0  0  0  0  0  0  0  0  0  0
   28.8748    3.7270    8.4023 O   0  0  0  0  0  0  0  0  0  0  0  0
   28.3596    4.7125    1.9329 C   0  0  2  0  0  0  0  0  0  0  0  0
   27.0166    5.2047    2.0503 O   0  0  0  0  0  0  0  0  0  0  0  0
   28.5032    3.7222    0.7428 C   0  0  2  0  0  0  0  0  0  0  0  0
   28.1000    4.3892   -0.5148 N   0  0  0  0  0  0  0  0  0  0  0  0
   27.5998    2.4994    1.0082 C   0  0  1  0  0  0  0  0  0  0  0  0
   27.7212    1.5495   -0.0653 O   0  0  0  0  0  0  0  0  0  0  0  0
   28.0501    1.8512    2.3255 C   0  0  2  0  0  0  0  0  0  0  0  0
   27.2185    0.7174    2.6099 O   0  0  0  0  0  0  0  0  0  0  0  0
   27.9119    2.9013    3.4594 C   0  0  2  0  0  0  0  0  0  0  0  0
   28.7459    4.0617    3.1767 O   0  0  0  0  0  0  0  0  0  0  0  0
   28.3691    2.2823    4.7918 C   0  0  0  0  0  0  0  0  0  0  0  0
   28.3467    3.2841    5.8249 O   0  0  0  0  0  0  0  0  0  0  0  0
  1  2  1  1  0  0  0
  1  3  1  0  0  0  0
  1  4  2  0  0  0  0
  1 16  1  0  0  0  0
  5  6  1  1  0  0  0
  5  7  1  0  0  0  0
  5 14  1  0  0  0  0
  7  8  1  6  0  0  0
  7  9  1  0  0  0  0
  9 10  1  6  0  0  0
  9 11  1  0  0  0  0
 11 12  1  1  0  0  0
 11 13  1  0  0  0  0
 13 14  1  0  0  0  0
 13 15  1  1  0  0  0
 15 16  1  0  0  0  0
M  CHG  1   3  -1
M  END
>  <CHROM.1>
175.31233784,178.47384403,-63.75723416,28.26862141,2.90311647,3.94123738
-0.68843944,-1.38254474,-0.59515082

>  <Name>
ligand

>  <RI>
0

>  <Rbt.Current_Directory>
/home/itssahil/PROJECTS/Mol_Feturizer/New_Systems/rnas/3B4B

>  <Rbt.Executable>
rbdock ($Id: //depot/dev/client3/rdock/2013.1/src/exe/rbdock.cxx#4 $)

>  <Rbt.Library>
libRbt.so (2013.1, Build901 2013/11/27)

>  <Rbt.Parameter_File>
/export/apps/rDock/src/rDock_2013.1_src/data/scripts/dock_solv.prm

>  <Rbt.Receptor>
prm/blind_docking_100.prm

>  <SCORE>
-7.38711

>  <SCORE.INTER>
-5.7427

>  <SCORE.INTER.CONST>
1

>  <SCORE.INTER.POLAR>
0

>  <SCORE.INTER.ROT>
3

>  <SCORE.INTER.SOLV>
11.6716

>  <SCORE.INTER.VDW>
-13.319

>  <SCORE.INTER.norm>
-0.358919

>  <SCORE.INTRA>
-1.64441

>  <SCORE.INTRA.DIHEDRAL>
-2.10612

>  <SCORE.INTRA.DIHEDRAL.0>
2.21864

>  <SCORE.INTRA.POLAR>
0

>  <SCORE.INTRA.POLAR.0>
0

>  <SCORE.INTRA.REPUL>
0

>  <SCORE.INTRA.REPUL.0>
0

>  <SCORE.INTRA.SOLV>
-1.11

>  <SCORE.INTRA.SOLV.lig_0>
-58.5963

>  <SCORE.INTRA.VDW>
-0.03635

>  <SCORE.INTRA.VDW.0>
-0.437849

>  <SCORE.INTRA.norm>
-0.102776

>  <SCORE.RESTR>
0

>  <SCORE.RESTR.CAVITY>
0

>  <SCORE.RESTR.norm>
0

>  <SCORE.SYSTEM>
0

>  <SCORE.SYSTEM.CONST>
0

>  <SCORE.SYSTEM.DIHEDRAL>
0

>  <SCORE.SYSTEM.SOLV>
0

>  <SCORE.SYSTEM.norm>
0

>  <SCORE.heavy>
16

>  <SCORE.norm>
-0.461694

>  <RMSD>
22.410

$$$$
ligand
 OpenBabel11021811463D
libRbt.so/2013.1/901 2013/11/27
 16 16  0  0  0  0  0  0  0  0999 V2000
   26.5082    4.6531   -1.2543 P   0  0  2  0  0  0  0  0  0  0  0  0
   25.3690    5.3905   -0.6547 O   0  0  0  0  0  0  0  0  0  0  0  0
   27.3998    5.6418   -2.1591 O   0  5  0  0  0  0  0  0  0  0  0  0
   25.9362    3.4666   -2.1972 O   0  0  0  0  0  0  0  0  0  0  0  0
   30.3324    5.2394    3.6187 C   0  0  2  0  0  0  0  0  0  0  0  0
   31.3449    4.3499    3.1255 O   0  0  0  0  0  0  0  0  0  0  0  0
   29.4481    4.5554    4.6993 C   0  0  2  0  0  0  0  0  0  0  0  0
   30.2962    4.0886    5.8182 N   0  0  0  0  0  0  0  0  0  0  0  0
   28.7173    3.3596    4.0528 C   0  0  1  0  0  0  0  0  0  0  0  0
   27.8721    2.7118    5.0198 O   0  0  0  0  0  0  0  0  0  0  0  0
   27.8624    3.8936    2.8942 C   0  0  2  0  0  0  0  0  0  0  0  0
   27.1800    2.8024    2.2604 O   0  0  0  0  0  0  0  0  0  0  0  0
   28.8016    4.5892    1.8737 C   0  0  2  0  0  0  0  0  0  0  0  0
   29.5069    5.6942    2.5090 O   0  0  0  0  0  0  0  0  0  0  0  0
   27.9692    5.1462    0.7057 C   0  0  0  0  0  0  0  0  0  0  0  0
   27.4208    4.0586   -0.0610 O   0  0  0  0  0  0  0  0  0  0  0  0
  1  2  1  1  0  0  0
  1  3  1  0  0  0  0
  1  4  2  0  0  0  0
  1 16  1  0  0  0  0
  5  6  1  6  0  0  0
  5  7  1  0  0  0  0
  5 14  1  0  0  0  0
  7  8  1  1  0  0  0
  7  9  1  0  0  0  0
  9 10  1  1  0  0  0
  9 11  1  0  0  0  0
 11 12  1  6  0  0  0
 11 13  1  0  0  0  0
 13 14  1  0  0  0  0
 13 15  1  6  0  0  0
 15 16  1  0  0  0  0
M  CHG  1   3  -1
M  END
>  <CHROM.1>
-68.05182908,178.09896777,-63.19768613,28.08410026,4.36776514,1.59123136
-2.17395197,0.55842726,2.01783704

>  <Name>
ligand

>  <RI>
0

>  <Rbt.Current_Directory>
/home/itssahil/PROJECTS/Mol_Feturizer/New_Systems/rnas/3B4B

>  <Rbt.Executable>
rbdock ($Id: //depot/dev/client3/rdock/2013.1/src/exe/rbdock.cxx#4 $)

>  <Rbt.Library>
libRbt.so (2013.1, Build901 2013/11/27)

>  <Rbt.Parameter_File>
/export/apps/rDock/src/rDock_2013.1_src/data/scripts/dock_solv.prm

>  <Rbt.Receptor>
prm/blind_docking_40.prm

>  <SCORE>
-6.68611

>  <SCORE.INTER>
-5.36573

>  <SCORE.INTER.CONST>
1

>  <SCORE.INTER.POLAR>
0

>  <SCORE.INTER.ROT>
3

>  <SCORE.INTER.SOLV>
8.44648

>  <SCORE.INTER.VDW>
-11.9926

>  <SCORE.INTER.norm>
-0.335358

>  <SCORE.INTRA>
-1.32038

>  <SCORE.INTRA.DIHEDRAL>
-1.95444

>  <SCORE.INTRA.DIHEDRAL.0>
2.21864

>  <SCORE.INTRA.POLAR>
0

>  <SCORE.INTRA.POLAR.0>
0

>  <SCORE.INTRA.REPUL>
0

>  <SCORE.INTRA.REPUL.0>
0

>  <SCORE.INTRA.SOLV>
-0.658146

>  <SCORE.INTRA.SOLV.lig_0>
-58.5963

>  <SCORE.INTRA.VDW>
-0.0140894

>  <SCORE.INTRA.VDW.0>
-0.437849

>  <SCORE.INTRA.norm>
-0.082524

>  <SCORE.RESTR>
0

>  <SCORE.RESTR.CAVITY>
0

>  <SCORE.RESTR.norm>
0

>  <SCORE.SYSTEM>
0

>  <SCORE.SYSTEM.CONST>
0

>  <SCORE.SYSTEM.DIHEDRAL>
0

>  <SCORE.SYSTEM.SOLV>
0

>  <SCORE.SYSTEM.norm>
0

>  <SCORE.heavy>
16

>  <SCORE.norm>
-0.417882

>  <RMSD>
22.681

$$$$
ligand
 OpenBabel11021811463D
libRbt.so/2013.1/901 2013/11/27
 16 16  0  0  0  0  0  0  0  0999 V2000
   44.9182   15.4839   35.6096 P   0  0  2  0  0  0  0  0  0  0  0  0
   44.7917   15.0798   37.0315 O   0  0  0  0  0  0  0  0  0  0  0  0
   43.6189   16.3136   35.1467 O   0  5  0  0  0  0  0  0  0  0  0  0
   45.0376   14.1567   34.6884 O   0  0  0  0  0  0  0  0  0  0  0  0
   50.2358   17.1238   34.4925 C   0  0  2  0  0  0  0  0  0  0  0  0
   50.1980   18.3872   35.1723 O   0  0  0  0  0  0  0  0  0  0  0  0
   50.6551   17.2882   33.0043 C   0  0  2  0  0  0  0  0  0  0  0  0
   51.9806   17.9411   32.9269 N   0  0  0  0  0  0  0  0  0  0  0  0
   49.5958   18.1513   32.2868 C   0  0  1  0  0  0  0  0  0  0  0  0
   49.9404   18.3094   30.8992 O   0  0  0  0  0  0  0  0  0  0  0  0
   48.2408   17.4383   32.4050 C   0  0  2  0  0  0  0  0  0  0  0  0
   47.2287   18.2239   31.7598 O   0  0  0  0  0  0  0  0  0  0  0  0
   47.9017   17.2792   33.9107 C   0  0  2  0  0  0  0  0  0  0  0  0
   48.9279   16.4899   34.5783 O   0  0  0  0  0  0  0  0  0  0  0  0
   46.5523   16.5552   34.0600 C   0  0  0  0  0  0  0  0  0  0  0  0
   46.2271   16.4183   35.4553 O   0  0  0  0  0  0  0  0  0  0  0  0
  1  2  1  1  0  0  0
  1  3  1  0  0  0  0
  1  4  2  0  0  0  0
  1 16  1  0  0  0  0
  5  6  1  6  0  0  0
  5  7  1  0  0  0  0
  5 14  1  0  0  0  0
  7  8  1  1  0  0  0
  7  9  1  0  0  0  0
  9 10  1  6  0  0  0
  9 11  1  0  0  0  0
 11 12  1  6  0  0  0
 11 13  1  0  0  0  0
 13 14  1  0  0  0  0
 13 15  1  6  0  0  0
 15 16  1  0  0  0  0
M  CHG  1   3  -1
M  END
>  <CHROM.1>
-179.38725676,-172.29311288,166.26261970,47.59469543,16.79268949,34.11339004
-2.57818198,-0.23671107,-1.21168171

>  <Name>
ligand

>  <RI>
0

>  <Rbt.Current_Directory>
/home/itssahil/PROJECTS/Mol_Feturizer/New_Systems/rnas/3B4B

>  <Rbt.Executable>
rbdock ($Id: //depot/dev/client3/rdock/2013.1/src/exe/rbdock.cxx#4 $)

>  <Rbt.Library>
libRbt.so (2013.1, Build901 2013/11/27)

>  <Rbt.Parameter_File>
/export/apps/rDock/src/rDock_2013.1_src/data/scripts/dock_solv.prm

>  <Rbt.Receptor>
prm/blind_docking_80.prm

>  <SCORE>
-7.5346

>  <SCORE.INTER>
-6.2791

>  <SCORE.INTER.CONST>
1

>  <SCORE.INTER.POLAR>
0

>  <SCORE.INTER.ROT>
3

>  <SCORE.INTER.SOLV>
11.1839

>  <SCORE.INTER.VDW>
-13.514

>  <SCORE.INTER.norm>
-0.392444

>  <SCORE.INTRA>
-1.2555

>  <SCORE.INTRA.DIHEDRAL>
-1.63388

>  <SCORE.INTRA.DIHEDRAL.0>
2.21864

>  <SCORE.INTRA.POLAR>
0

>  <SCORE.INTRA.POLAR.0>
0

>  <SCORE.INTRA.REPUL>
0

>  <SCORE.INTRA.REPUL.0>
0

>  <SCORE.INTRA.SOLV>
-0.48169

>  <SCORE.INTRA.SOLV.lig_0>
-58.5963

>  <SCORE.INTRA.VDW>
-0.197709

>  <SCORE.INTRA.VDW.0>
-0.437849

>  <SCORE.INTRA.norm>
-0.0784684

>  <SCORE.RESTR>
0

>  <SCORE.RESTR.CAVITY>
0

>  <SCORE.RESTR.norm>
0

>  <SCORE.SYSTEM>
0

>  <SCORE.SYSTEM.CONST>
0

>  <SCORE.SYSTEM.DIHEDRAL>
0

>  <SCORE.SYSTEM.SOLV>
0

>  <SCORE.SYSTEM.norm>
0

>  <SCORE.heavy>
16

>  <SCORE.norm>
-0.470912

>  <RMSD>
22.887

$$$$
ligand
 OpenBabel11021811463D
libRbt.so/2013.1/901 2013/11/27
 16 16  0  0  0  0  0  0  0  0999 V2000
   26.5612    5.3383   -1.5956 P   0  0  2  0  0  0  0  0  0  0  0  0
   25.1576    5.8144   -1.6598 O   0  0  0  0  0  0  0  0  0  0  0  0
   27.5739    6.5321   -1.9705 O   0  5  0  0  0  0  0  0  0  0  0  0
   26.7641    4.1360   -2.6621 O   0  0  0  0  0  0  0  0  0  0  0  0
   28.2142    4.7104    3.8163 C   0  0  2  0  0  0  0  0  0  0  0  0
   29.6248    4.7739    4.0730 O   0  0  0  0  0  0  0  0  0  0  0  0
   27.6450    3.2918    4.1011 C   0  0  2  0  0  0  0  0  0  0  0  0
   27.9182    2.9156    5.5057 N   0  0  0  0  0  0  0  0  0  0  0  0
   28.3203    2.2886    3.1422 C   0  0  1  0  0  0  0  0  0  0  0  0
   27.8032    0.9646    3.3634 O   0  0  0  0  0  0  0  0  0  0  0  0
   28.0173    2.7281    1.7023 C   0  0  2  0  0  0  0  0  0  0  0  0
   28.6452    1.8229    0.7835 O   0  0  0  0  0  0  0  0  0  0  0  0
   28.5823    4.1588    1.4986 C   0  0  2  0  0  0  0  0  0  0  0  0
   27.9578    5.0856    2.4330 O   0  0  0  0  0  0  0  0  0  0  0  0
   28.2816    4.6310    0.0655 C   0  0  0  0  0  0  0  0  0  0  0  0
   26.8658    4.8376   -0.0901 O   0  0  0  0  0  0  0  0  0  0  0  0
  1  2  1  6  0  0  0
  1  3  1  0  0  0  0
  1  4  2  0  0  0  0
  1 16  1  0  0  0  0
  5  6  1  6  0  0  0
  5  7  1  0  0  0  0
  5 14  1  0  0  0  0
  7  8  1  1  0  0  0
  7  9  1  0  0  0  0
  9 10  1  1  0  0  0
  9 11  1  0  0  0  0
 11 12  1  6  0  0  0
 11 13  1  0  0  0  0
 13 14  1  0  0  0  0
 13 15  1  6  0  0  0
 15 16  1  0  0  0  0
M  CHG  1   3  -1
M  END
>  <CHROM.1>
68.56507565,179.78734906,-168.34604164,27.64562774,4.11837000,1.12096997
-2.80676987,1.28356381,-3.09326062

>  <Name>
ligand

>  <RI>
0

>  <Rbt.Current_Directory>
/home/itssahil/PROJECTS/Mol_Feturizer/New_Systems/rnas/3B4B

>  <Rbt.Executable>
rbdock ($Id: //depot/dev/client3/rdock/2013.1/src/exe/rbdock.cxx#4 $)

>  <Rbt.Library>
libRbt.so (2013.1, Build901 2013/11/27)

>  <Rbt.Parameter_File>
/export/apps/rDock/src/rDock_2013.1_src/data/scripts/dock_solv.prm

>  <Rbt.Receptor>
prm/blind_docking_100.prm

>  <SCORE>
-7.64437

>  <SCORE.INTER>
-6.4103

>  <SCORE.INTER.CONST>
1

>  <SCORE.INTER.POLAR>
0

>  <SCORE.INTER.ROT>
3

>  <SCORE.INTER.SOLV>
11.0678

>  <SCORE.INTER.VDW>
-13.5628

>  <SCORE.INTER.norm>
-0.400643

>  <SCORE.INTRA>
-1.23407

>  <SCORE.INTRA.DIHEDRAL>
-1.73595

>  <SCORE.INTRA.DIHEDRAL.0>
2.21864

>  <SCORE.INTRA.POLAR>
0

>  <SCORE.INTRA.POLAR.0>
0

>  <SCORE.INTRA.REPUL>
0

>  <SCORE.INTRA.REPUL.0>
0

>  <SCORE.INTRA.SOLV>
-0.279744

>  <SCORE.INTRA.SOLV.lig_0>
-58.5963

>  <SCORE.INTRA.VDW>
-0.226225

>  <SCORE.INTRA.VDW.0>
-0.437849

>  <SCORE.INTRA.norm>
-0.0771296

>  <SCORE.RESTR>
0

>  <SCORE.RESTR.CAVITY>
0

>  <SCORE.RESTR.norm>
0

>  <SCORE.SYSTEM>
0

>  <SCORE.SYSTEM.CONST>
0

>  <SCORE.SYSTEM.DIHEDRAL>
0

>  <SCORE.SYSTEM.SOLV>
0

>  <SCORE.SYSTEM.norm>
0

>  <SCORE.heavy>
16

>  <SCORE.norm>
-0.477773

>  <RMSD>
23.332

$$$$
ligand
 OpenBabel11021811463D
libRbt.so/2013.1/901 2013/11/27
 16 16  0  0  0  0  0  0  0  0999 V2000
   26.9753    5.8945   -1.9128 P   0  0  2  0  0  0  0  0  0  0  0  0
   26.9184    7.3603   -2.1349 O   0  0  0  0  0  0  0  0  0  0  0  0
   27.8372    5.1864   -3.0732 O   0  5  0  0  0  0  0  0  0  0  0  0
   25.4716    5.2929   -1.9473 O   0  0  0  0  0  0  0  0  0  0  0  0
   27.6818    4.6789    3.5956 C   0  0  2  0  0  0  0  0  0  0  0  0
   29.0442    5.1150    3.7117 O   0  0  0  0  0  0  0  0  0  0  0  0
   27.5149    3.2003    4.0469 C   0  0  2  0  0  0  0  0  0  0  0  0
   27.9743    3.0489    5.4452 N   0  0  0  0  0  0  0  0  0  0  0  0
   28.3536    2.3027    3.1128 C   0  0  1  0  0  0  0  0  0  0  0  0
   28.2083    0.9217    3.4883 O   0  0  0  0  0  0  0  0  0  0  0  0
   27.8468    2.5042    1.6772 C   0  0  2  0  0  0  0  0  0  0  0  0
   28.6176    1.6933    0.7793 O   0  0  0  0  0  0  0  0  0  0  0  0
   28.0124    4.0016    1.3058 C   0  0  2  0  0  0  0  0  0  0  0  0
   27.2404    4.8357    2.2171 O   0  0  0  0  0  0  0  0  0  0  0  0
   27.4999    4.2359   -0.1259 C   0  0  0  0  0  0  0  0  0  0  0  0
   27.6794    5.6179   -0.4852 O   0  0  0  0  0  0  0  0  0  0  0  0
  1  2  1  6  0  0  0
  1  3  1  0  0  0  0
  1  4  2  0  0  0  0
  1 16  1  0  0  0  0
  5  6  1  6  0  0  0
  5  7  1  0  0  0  0
  5 14  1  0  0  0  0
  7  8  1  1  0  0  0
  7  9  1  0  0  0  0
  9 10  1  1  0  0  0
  9 11  1  0  0  0  0
 11 12  1  6  0  0  0
 11 13  1  0  0  0  0
 13 14  1  0  0  0  0
 13 15  1  6  0  0  0
 15 16  1  0  0  0  0
M  CHG  1   3  -1
M  END
>  <CHROM.1>
-178.71260214,-173.04506876,168.29683479,27.62503049,4.27732682,0.93219721
2.69985634,1.37227469,-2.20299311

>  <Name>
ligand

>  <RI>
0

>  <Rbt.Current_Directory>
/home/itssahil/PROJECTS/Mol_Feturizer/New_Systems/rnas/3B4B

>  <Rbt.Executable>
rbdock ($Id: //depot/dev/client3/rdock/2013.1/src/exe/rbdock.cxx#4 $)

>  <Rbt.Library>
libRbt.so (2013.1, Build901 2013/11/27)

>  <Rbt.Parameter_File>
/export/apps/rDock/src/rDock_2013.1_src/data/scripts/dock_solv.prm

>  <Rbt.Receptor>
prm/blind_docking_100.prm

>  <SCORE>
-7.67442

>  <SCORE.INTER>
-6.33037

>  <SCORE.INTER.CONST>
1

>  <SCORE.INTER.POLAR>
0

>  <SCORE.INTER.ROT>
3

>  <SCORE.INTER.SOLV>
14.022

>  <SCORE.INTER.VDW>
-14.4942

>  <SCORE.INTER.norm>
-0.395648

>  <SCORE.INTRA>
-1.34405

>  <SCORE.INTRA.DIHEDRAL>
-1.76069

>  <SCORE.INTRA.DIHEDRAL.0>
2.21864

>  <SCORE.INTRA.POLAR>
0

>  <SCORE.INTRA.POLAR.0>
0

>  <SCORE.INTRA.REPUL>
0

>  <SCORE.INTRA.REPUL.0>
0

>  <SCORE.INTRA.SOLV>
-0.484011

>  <SCORE.INTRA.SOLV.lig_0>
-58.5963

>  <SCORE.INTRA.VDW>
-0.221693

>  <SCORE.INTRA.VDW.0>
-0.437849

>  <SCORE.INTRA.norm>
-0.0840029

>  <SCORE.RESTR>
0

>  <SCORE.RESTR.CAVITY>
0

>  <SCORE.RESTR.norm>
0

>  <SCORE.SYSTEM>
0

>  <SCORE.SYSTEM.CONST>
0

>  <SCORE.SYSTEM.DIHEDRAL>
0

>  <SCORE.SYSTEM.SOLV>
0

>  <SCORE.SYSTEM.norm>
0

>  <SCORE.heavy>
16

>  <SCORE.norm>
-0.479651

>  <RMSD>
23.424

$$$$
ligand
 OpenBabel11021811463D
libRbt.so/2013.1/901 2013/11/27
 16 16  0  0  0  0  0  0  0  0999 V2000
   26.9500    5.8372   -1.8717 P   0  0  2  0  0  0  0  0  0  0  0  0
   25.4865    5.8670   -1.6297 O   0  0  0  0  0  0  0  0  0  0  0  0
   27.4541    7.2623   -2.4248 O   0  5  0  0  0  0  0  0  0  0  0  0
   27.2821    4.7061   -2.9827 O   0  0  0  0  0  0  0  0  0  0  0  0
   27.9020    4.6903    3.6464 C   0  0  2  0  0  0  0  0  0  0  0  0
   29.3128    4.9530    3.6269 O   0  0  0  0  0  0  0  0  0  0  0  0
   27.5953    3.2541    4.1570 C   0  0  2  0  0  0  0  0  0  0  0  0
   28.1594    3.0737    5.5129 N   0  0  0  0  0  0  0  0  0  0  0  0
   28.2263    2.2392    3.1805 C   0  0  1  0  0  0  0  0  0  0  0  0
   27.9461    0.8954    3.6106 O   0  0  0  0  0  0  0  0  0  0  0  0
   27.6181    2.4744    1.7901 C   0  0  2  0  0  0  0  0  0  0  0  0
   28.1961    1.5548    0.8530 O   0  0  0  0  0  0  0  0  0  0  0  0
   27.9332    3.9311    1.3587 C   0  0  2  0  0  0  0  0  0  0  0  0
   27.3581    4.8741    2.3084 O   0  0  0  0  0  0  0  0  0  0  0  0
   27.3238    4.1997   -0.0284 C   0  0  0  0  0  0  0  0  0  0  0  0
   27.6955    5.5165   -0.4747 O   0  0  0  0  0  0  0  0  0  0  0  0
  1  2  1  1  0  0  0
  1  3  1  0  0  0  0
  1  4  2  0  0  0  0
  1 16  1  0  0  0  0
  5  6  1  6  0  0  0
  5  7  1  0  0  0  0
  5 14  1  0  0  0  0
  7  8  1  1  0  0  0
  7  9  1  0  0  0  0
  9 10  1  1  0  0  0
  9 11  1  0  0  0  0
 11 12  1  6  0  0  0
 11 13  1  0  0  0  0
 13 14  1  0  0  0  0
 13 15  1  6  0  0  0
 15 16  1  0  0  0  0
M  CHG  1   3  -1
M  END
>  <CHROM.1>
-175.86028379,-175.22885631,64.01008438,27.59733536,4.23955823,0.98782124
-2.74316153,1.37742028,-3.06093230

>  <Name>
ligand

>  <RI>
0

>  <Rbt.Current_Directory>
/home/itssahil/PROJECTS/Mol_Feturizer/New_Systems/rnas/3B4B

>  <Rbt.Executable>
rbdock ($Id: //depot/dev/client3/rdock/2013.1/src/exe/rbdock.cxx#4 $)

>  <Rbt.Library>
libRbt.so (2013.1, Build901 2013/11/27)

>  <Rbt.Parameter_File>
/export/apps/rDock/src/rDock_2013.1_src/data/scripts/dock_solv.prm

>  <Rbt.Receptor>
prm/blind_docking_40.prm

>  <SCORE>
-8.91621

>  <SCORE.INTER>
-7.18435

>  <SCORE.INTER.CONST>
1

>  <SCORE.INTER.POLAR>
0

>  <SCORE.INTER.ROT>
3

>  <SCORE.INTER.SOLV>
12.4192

>  <SCORE.INTER.VDW>
-14.5293

>  <SCORE.INTER.norm>
-0.449022

>  <SCORE.INTRA>
-1.73186

>  <SCORE.INTRA.DIHEDRAL>
-2.01649

>  <SCORE.INTRA.DIHEDRAL.0>
2.21864

>  <SCORE.INTRA.POLAR>
0

>  <SCORE.INTRA.POLAR.0>
0

>  <SCORE.INTRA.REPUL>
0

>  <SCORE.INTRA.REPUL.0>
0

>  <SCORE.INTRA.SOLV>
-1.1455

>  <SCORE.INTRA.SOLV.lig_0>
-58.5963

>  <SCORE.INTRA.VDW>
-0.150869

>  <SCORE.INTRA.VDW.0>
-0.437849

>  <SCORE.INTRA.norm>
-0.108241

>  <SCORE.RESTR>
0

>  <SCORE.RESTR.CAVITY>
0

>  <SCORE.RESTR.norm>
0

>  <SCORE.SYSTEM>
0

>  <SCORE.SYSTEM.CONST>
0

>  <SCORE.SYSTEM.DIHEDRAL>
0

>  <SCORE.SYSTEM.SOLV>
0

>  <SCORE.SYSTEM.norm>
0

>  <SCORE.heavy>
16

>  <SCORE.norm>
-0.557263

>  <RMSD>
23.431

$$$$
ligand
 OpenBabel11021811463D
libRbt.so/2013.1/901 2013/11/27
 16 16  0  0  0  0  0  0  0  0999 V2000
   26.3188    2.9252   -2.2920 P   0  0  2  0  0  0  0  0  0  0  0  0
   24.9527    2.4105   -2.5564 O   0  0  0  0  0  0  0  0  0  0  0  0
   26.7036    4.0644   -3.3621 O   0  5  0  0  0  0  0  0  0  0  0  0
   27.3806    1.7095   -2.4287 O   0  0  0  0  0  0  0  0  0  0  0  0
   27.7698    3.7445    3.1565 C   0  0  2  0  0  0  0  0  0  0  0  0
   26.6363    4.5467    3.5188 O   0  0  0  0  0  0  0  0  0  0  0  0
   29.1079    4.4771    3.4571 C   0  0  2  0  0  0  0  0  0  0  0  0
   29.1762    4.8250    4.8936 N   0  0  0  0  0  0  0  0  0  0  0  0
   29.1721    5.7573    2.5975 C   0  0  1  0  0  0  0  0  0  0  0  0
   30.4083    6.4536    2.8347 O   0  0  0  0  0  0  0  0  0  0  0  0
   29.0864    5.3444    1.1209 C   0  0  2  0  0  0  0  0  0  0  0  0
   29.1282    6.5154    0.2933 O   0  0  0  0  0  0  0  0  0  0  0  0
   27.7469    4.5930    0.9003 C   0  0  2  0  0  0  0  0  0  0  0  0
   27.6897    3.4059    1.7427 O   0  0  0  0  0  0  0  0  0  0  0  0
   27.6393    4.1553   -0.5709 C   0  0  0  0  0  0  0  0  0  0  0  0
   26.3502    3.5603   -0.8068 O   0  0  0  0  0  0  0  0  0  0  0  0
  1  2  1  6  0  0  0
  1  3  1  0  0  0  0
  1  4  2  0  0  0  0
  1 16  1  0  0  0  0
  5  6  1  6  0  0  0
  5  7  1  0  0  0  0
  5 14  1  0  0  0  0
  7  8  1  1  0  0  0
  7  9  1  0  0  0  0
  9 10  1  6  0  0  0
  9 11  1  0  0  0  0
 11 12  1  6  0  0  0
 11 13  1  0  0  0  0
 13 14  1  0  0  0  0
 13 15  1  6  0  0  0
 15 16  1  0  0  0  0
M  CHG  1   3  -1
M  END
>  <CHROM.1>
-175.08533687,-172.38816719,-175.67996546,27.68613155,4.16695962,0.49005414
2.19061026,-0.80702611,-1.48441698

>  <Name>
ligand

>  <RI>
0

>  <Rbt.Current_Directory>
/home/itssahil/PROJECTS/Mol_Feturizer/New_Systems/rnas/3B4B

>  <Rbt.Executable>
rbdock ($Id: //depot/dev/client3/rdock/2013.1/src/exe/rbdock.cxx#4 $)

>  <Rbt.Library>
libRbt.so (2013.1, Build901 2013/11/27)

>  <Rbt.Parameter_File>
/export/apps/rDock/src/rDock_2013.1_src/data/scripts/dock_solv.prm

>  <Rbt.Receptor>
prm/blind_docking_100.prm

>  <SCORE>
-5.30645

>  <SCORE.INTER>
-3.91468

>  <SCORE.INTER.CONST>
1

>  <SCORE.INTER.POLAR>
0

>  <SCORE.INTER.ROT>
3

>  <SCORE.INTER.SOLV>
6.61478

>  <SCORE.INTER.VDW>
-10.4147

>  <SCORE.INTER.norm>
-0.244667

>  <SCORE.INTRA>
-1.39177

>  <SCORE.INTRA.DIHEDRAL>
-1.81653

>  <SCORE.INTRA.DIHEDRAL.0>
2.21864

>  <SCORE.INTRA.POLAR>
0

>  <SCORE.INTRA.POLAR.0>
0

>  <SCORE.INTRA.REPUL>
0

>  <SCORE.INTRA.REPUL.0>
0

>  <SCORE.INTRA.SOLV>
-0.473174

>  <SCORE.INTRA.SOLV.lig_0>
-58.5963

>  <SCORE.INTRA.VDW>
-0.246923

>  <SCORE.INTRA.VDW.0>
-0.437849

>  <SCORE.INTRA.norm>
-0.0869858

>  <SCORE.RESTR>
0

>  <SCORE.RESTR.CAVITY>
0

>  <SCORE.RESTR.norm>
0

>  <SCORE.SYSTEM>
0

>  <SCORE.SYSTEM.CONST>
0

>  <SCORE.SYSTEM.DIHEDRAL>
0

>  <SCORE.SYSTEM.SOLV>
0

>  <SCORE.SYSTEM.norm>
0

>  <SCORE.heavy>
16

>  <SCORE.norm>
-0.331653

>  <RMSD>
23.520

$$$$
ligand
 OpenBabel11021811463D
libRbt.so/2013.1/901 2013/11/27
 16 16  0  0  0  0  0  0  0  0999 V2000
   27.6798    4.4794    3.3340 P   0  0  2  0  0  0  0  0  0  0  0  0
   26.4012    4.0282    3.9361 O   0  0  0  0  0  0  0  0  0  0  0  0
   28.8043    3.3383    3.4896 O   0  5  0  0  0  0  0  0  0  0  0  0
   28.1879    5.8122    4.1020 O   0  0  0  0  0  0  0  0  0  0  0  0
   29.3336    6.8005   -2.1862 C   0  0  2  0  0  0  0  0  0  0  0  0
   28.1333    7.5692   -2.3535 O   0  0  0  0  0  0  0  0  0  0  0  0
   29.3121    5.5112   -3.0552 C   0  0  2  0  0  0  0  0  0  0  0  0
   29.1393    5.8708   -4.4799 N   0  0  0  0  0  0  0  0  0  0  0  0
   28.1415    4.6213   -2.5868 C   0  0  1  0  0  0  0  0  0  0  0  0
   28.1014    3.4069   -3.3568 O   0  0  0  0  0  0  0  0  0  0  0  0
   28.3612    4.2864   -1.1042 C   0  0  2  0  0  0  0  0  0  0  0  0
   27.2796    3.4706   -0.6324 O   0  0  0  0  0  0  0  0  0  0  0  0
   28.4045    5.6150   -0.3041 C   0  0  2  0  0  0  0  0  0  0  0  0
   29.4944    6.4558   -0.7808 O   0  0  0  0  0  0  0  0  0  0  0  0
   28.6367    5.3103    1.1861 C   0  0  0  0  0  0  0  0  0  0  0  0
   27.4338    4.7712    1.7641 O   0  0  0  0  0  0  0  0  0  0  0  0
  1  2  1  1  0  0  0
  1  3  1  0  0  0  0
  1  4  2  0  0  0  0
  1 16  1  0  0  0  0
  5  6  1  1  0  0  0
  5  7  1  0  0  0  0
  5 14  1  0  0  0  0
  7  8  1  6  0  0  0
  7  9  1  0  0  0  0
  9 10  1  6  0  0  0
  9 11  1  0  0  0  0
 11 12  1  1  0  0  0
 11 13  1  0  0  0  0
 13 14  1  0  0  0  0
 13 15  1  1  0  0  0
 15 16  1  0  0  0  0
M  CHG  1   3  -1
M  END
>  <CHROM.1>
-73.66763023,-179.00040280,175.51571737,28.23245586,5.02357790,0.14119673
2.05019405,1.22423731,1.28823970

>  <Name>
ligand

>  <RI>
0

>  <Rbt.Current_Directory>
/home/itssahil/PROJECTS/Mol_Feturizer/New_Systems/rnas/3B4B

>  <Rbt.Executable>
rbdock ($Id: //depot/dev/client3/rdock/2013.1/src/exe/rbdock.cxx#4 $)

>  <Rbt.Library>
libRbt.so (2013.1, Build901 2013/11/27)

>  <Rbt.Parameter_File>
/export/apps/rDock/src/rDock_2013.1_src/data/scripts/dock_solv.prm

>  <Rbt.Receptor>
prm/blind_docking_60.prm

>  <SCORE>
-6.9892

>  <SCORE.INTER>
-5.86199

>  <SCORE.INTER.CONST>
1

>  <SCORE.INTER.POLAR>
0

>  <SCORE.INTER.ROT>
3

>  <SCORE.INTER.SOLV>
6.30284

>  <SCORE.INTER.VDW>
-11.6089

>  <SCORE.INTER.norm>
-0.366374

>  <SCORE.INTRA>
-1.12722

>  <SCORE.INTRA.DIHEDRAL>
-1.53582

>  <SCORE.INTRA.DIHEDRAL.0>
2.21864

>  <SCORE.INTRA.POLAR>
0

>  <SCORE.INTRA.POLAR.0>
0

>  <SCORE.INTRA.REPUL>
0

>  <SCORE.INTRA.REPUL.0>
0

>  <SCORE.INTRA.SOLV>
-0.113204

>  <SCORE.INTRA.SOLV.lig_0>
-58.5963

>  <SCORE.INTRA.VDW>
-0.302705

>  <SCORE.INTRA.VDW.0>
-0.437849

>  <SCORE.INTRA.norm>
-0.0704511

>  <SCORE.RESTR>
0

>  <SCORE.RESTR.CAVITY>
0

>  <SCORE.RESTR.norm>
0

>  <SCORE.SYSTEM>
0

>  <SCORE.SYSTEM.CONST>
0

>  <SCORE.SYSTEM.DIHEDRAL>
0

>  <SCORE.SYSTEM.SOLV>
0

>  <SCORE.SYSTEM.norm>
0

>  <SCORE.heavy>
16

>  <SCORE.norm>
-0.436825

>  <RMSD>
23.540

$$$$
ligand
 OpenBabel11021811463D
libRbt.so/2013.1/901 2013/11/27
 16 16  0  0  0  0  0  0  0  0999 V2000
   27.6098    3.7118    3.8656 P   0  0  2  0  0  0  0  0  0  0  0  0
   26.1658    3.9860    4.0680 O   0  0  0  0  0  0  0  0  0  0  0  0
   28.0716    2.4576    4.7627 O   0  5  0  0  0  0  0  0  0  0  0  0
   28.4658    5.0112    4.3162 O   0  0  0  0  0  0  0  0  0  0  0  0
   27.3672    2.9619   -1.8413 C   0  0  2  0  0  0  0  0  0  0  0  0
   28.6535    2.3332   -1.9401 O   0  0  0  0  0  0  0  0  0  0  0  0
   27.2822    4.2322   -2.7340 C   0  0  2  0  0  0  0  0  0  0  0  0
   27.5602    3.8737   -4.1423 N   0  0  0  0  0  0  0  0  0  0  0  0
   28.3213    5.2570   -2.2323 C   0  0  1  0  0  0  0  0  0  0  0  0
   28.2586    6.4565   -3.0239 O   0  0  0  0  0  0  0  0  0  0  0  0
   27.9968    5.5865   -0.7679 C   0  0  2  0  0  0  0  0  0  0  0  0
   28.9558    6.5275   -0.2652 O   0  0  0  0  0  0  0  0  0  0  0  0
   28.0678    4.2736    0.0560 C   0  0  2  0  0  0  0  0  0  0  0  0
   27.1037    3.3067   -0.4515 O   0  0  0  0  0  0  0  0  0  0  0  0
   27.7340    4.5718    1.5281 C   0  0  0  0  0  0  0  0  0  0  0  0
   27.8538    3.3670    2.3062 O   0  0  0  0  0  0  0  0  0  0  0  0
  1  2  1  1  0  0  0
  1  3  1  0  0  0  0
  1  4  2  0  0  0  0
  1 16  1  0  0  0  0
  5  6  1  1  0  0  0
  5  7  1  0  0  0  0
  5 14  1  0  0  0  0
  7  8  1  6  0  0  0
  7  9  1  0  0  0  0
  9 10  1  6  0  0  0
  9 11  1  0  0  0  0
 11 12  1  1  0  0  0
 11 13  1  0  0  0  0
 13 14  1  0  0  0  0
 13 15  1  1  0  0  0
 15 16  1  0  0  0  0
M  CHG  1   3  -1
M  END
>  <CHROM.1>
-177.59096441,175.81085291,72.62718886,27.83308344,4.20049741,0.56170334
1.78513169,1.34120001,1.49118308

>  <Name>
ligand

>  <RI>
0

>  <Rbt.Current_Directory>
/home/itssahil/PROJECTS/Mol_Feturizer/New_Systems/rnas/3B4B

>  <Rbt.Executable>
rbdock ($Id: //depot/dev/client3/rdock/2013.1/src/exe/rbdock.cxx#4 $)

>  <Rbt.Library>
libRbt.so (2013.1, Build901 2013/11/27)

>  <Rbt.Parameter_File>
/export/apps/rDock/src/rDock_2013.1_src/data/scripts/dock_solv.prm

>  <Rbt.Receptor>
prm/blind_docking_60.prm

>  <SCORE>
-5.78903

>  <SCORE.INTER>
-4.22934

>  <SCORE.INTER.CONST>
1

>  <SCORE.INTER.POLAR>
0

>  <SCORE.INTER.ROT>
3

>  <SCORE.INTER.SOLV>
7.8074

>  <SCORE.INTER.VDW>
-11.022

>  <SCORE.INTER.norm>
-0.264334

>  <SCORE.INTRA>
-1.55969

>  <SCORE.INTRA.DIHEDRAL>
-1.8543

>  <SCORE.INTRA.DIHEDRAL.0>
2.21864

>  <SCORE.INTRA.POLAR>
0

>  <SCORE.INTRA.POLAR.0>
0

>  <SCORE.INTRA.REPUL>
0

>  <SCORE.INTRA.REPUL.0>
0

>  <SCORE.INTRA.SOLV>
-1.0614

>  <SCORE.INTRA.SOLV.lig_0>
-58.5963

>  <SCORE.INTRA.VDW>
-0.101843

>  <SCORE.INTRA.VDW.0>
-0.437849

>  <SCORE.INTRA.norm>
-0.0974808

>  <SCORE.RESTR>
0

>  <SCORE.RESTR.CAVITY>
0

>  <SCORE.RESTR.norm>
0

>  <SCORE.SYSTEM>
0

>  <SCORE.SYSTEM.CONST>
0

>  <SCORE.SYSTEM.DIHEDRAL>
0

>  <SCORE.SYSTEM.SOLV>
0

>  <SCORE.SYSTEM.norm>
0

>  <SCORE.heavy>
16

>  <SCORE.norm>
-0.361815

>  <RMSD>
23.837

$$$$
ligand
 OpenBabel11021811463D
libRbt.so/2013.1/901 2013/11/27
 16 16  0  0  0  0  0  0  0  0999 V2000
   32.6193   24.8861   27.9848 P   0  0  2  0  0  0  0  0  0  0  0  0
   33.0419   23.4667   28.0734 O   0  0  0  0  0  0  0  0  0  0  0  0
   33.7159   25.7464   27.1796 O   0  5  0  0  0  0  0  0  0  0  0  0
   32.4830   25.4944   29.4799 O   0  0  0  0  0  0  0  0  0  0  0  0
   28.9568   26.7630   24.3373 C   0  0  2  0  0  0  0  0  0  0  0  0
   27.7195   26.1337   24.7020 O   0  0  0  0  0  0  0  0  0  0  0  0
   29.2930   26.5352   22.8364 C   0  0  2  0  0  0  0  0  0  0  0  0
   28.1953   27.0571   21.9928 N   0  0  0  0  0  0  0  0  0  0  0  0
   29.4727   25.0213   22.5964 C   0  0  1  0  0  0  0  0  0  0  0  0
   29.8049   24.7724   21.2191 O   0  0  0  0  0  0  0  0  0  0  0  0
   30.6119   24.5276   23.5003 C   0  0  2  0  0  0  0  0  0  0  0  0
   30.7951   23.1172   23.3123 O   0  0  0  0  0  0  0  0  0  0  0  0
   30.2252   24.8148   24.9752 C   0  0  2  0  0  0  0  0  0  0  0  0
   30.0280   26.2441   25.1759 O   0  0  0  0  0  0  0  0  0  0  0  0
   31.3561   24.3411   25.9048 C   0  0  0  0  0  0  0  0  0  0  0  0
   31.2096   24.9546   27.1985 O   0  0  0  0  0  0  0  0  0  0  0  0
  1  2  1  1  0  0  0
  1  3  1  0  0  0  0
  1  4  2  0  0  0  0
  1 16  1  0  0  0  0
  5  6  1  1  0  0  0
  5  7  1  0  0  0  0
  5 14  1  0  0  0  0
  7  8  1  6  0  0  0
  7  9  1  0  0  0  0
  9 10  1  6  0  0  0
  9 11  1  0  0  0  0
 11 12  1  1  0  0  0
 11 13  1  0  0  0  0
 13 14  1  0  0  0  0
 13 15  1  1  0  0  0
 15 16  1  0  0  0  0
M  CHG  1   3  -1
M  END
>  <CHROM.1>
162.45470637,-160.38278058,-56.92455546,30.78097154,25.19663060,25.30359273
0.73155501,-0.74279666,1.08282827

>  <Name>
ligand

>  <RI>
0

>  <Rbt.Current_Directory>
/home/itssahil/PROJECTS/Mol_Feturizer/New_Systems/rnas/3B4B

>  <Rbt.Executable>
rbdock ($Id: //depot/dev/client3/rdock/2013.1/src/exe/rbdock.cxx#4 $)

>  <Rbt.Library>
libRbt.so (2013.1, Build901 2013/11/27)

>  <Rbt.Parameter_File>
/export/apps/rDock/src/rDock_2013.1_src/data/scripts/dock_solv.prm

>  <Rbt.Receptor>
prm/blind_docking_80.prm

>  <SCORE>
-9.44148

>  <SCORE.INTER>
-9.41073

>  <SCORE.INTER.CONST>
1

>  <SCORE.INTER.POLAR>
0

>  <SCORE.INTER.ROT>
3

>  <SCORE.INTER.SOLV>
25.7805

>  <SCORE.INTER.VDW>
-20.4673

>  <SCORE.INTER.norm>
-0.588171

>  <SCORE.INTRA>
-0.118432

>  <SCORE.INTRA.DIHEDRAL>
0.571626

>  <SCORE.INTRA.DIHEDRAL.0>
2.21864

>  <SCORE.INTRA.POLAR>
0

>  <SCORE.INTRA.POLAR.0>
0

>  <SCORE.INTRA.REPUL>
0

>  <SCORE.INTRA.REPUL.0>
0

>  <SCORE.INTRA.SOLV>
-0.837228

>  <SCORE.INTRA.SOLV.lig_0>
-58.5963

>  <SCORE.INTRA.VDW>
0.0143687

>  <SCORE.INTRA.VDW.0>
-0.437849

>  <SCORE.INTRA.norm>
-0.00740203

>  <SCORE.RESTR>
0.0876856

>  <SCORE.RESTR.CAVITY>
0.0876856

>  <SCORE.RESTR.norm>
0.00548035

>  <SCORE.SYSTEM>
0

>  <SCORE.SYSTEM.CONST>
0

>  <SCORE.SYSTEM.DIHEDRAL>
0

>  <SCORE.SYSTEM.SOLV>
0

>  <SCORE.SYSTEM.norm>
0

>  <SCORE.heavy>
16

>  <SCORE.norm>
-0.590092

>  <RMSD>
24.740

$$$$
ligand
 OpenBabel11021811463D
libRbt.so/2013.1/901 2013/11/27
 16 16  0  0  0  0  0  0  0  0999 V2000
   32.5958   24.8894   27.9727 P   0  0  2  0  0  0  0  0  0  0  0  0
   32.9857   23.4611   28.0676 O   0  0  0  0  0  0  0  0  0  0  0  0
   33.7129   25.7212   27.1656 O   0  5  0  0  0  0  0  0  0  0  0  0
   32.4714   25.5068   29.4651 O   0  0  0  0  0  0  0  0  0  0  0  0
   28.9751   26.7903   24.3045 C   0  0  2  0  0  0  0  0  0  0  0  0
   27.7227   26.1848   24.6573 O   0  0  0  0  0  0  0  0  0  0  0  0
   29.3242   26.5506   22.8085 C   0  0  2  0  0  0  0  0  0  0  0  0
   28.2458   27.0888   21.9504 N   0  0  0  0  0  0  0  0  0  0  0  0
   29.4795   25.0328   22.5762 C   0  0  1  0  0  0  0  0  0  0  0  0
   29.8228   24.7726   21.2037 O   0  0  0  0  0  0  0  0  0  0  0  0
   30.5991   24.5223   23.4949 C   0  0  2  0  0  0  0  0  0  0  0  0
   30.7591   23.1082   23.3143 O   0  0  0  0  0  0  0  0  0  0  0  0
   30.2009   24.8222   24.9642 C   0  0  2  0  0  0  0  0  0  0  0  0
   30.0271   26.2556   25.1573 O   0  0  0  0  0  0  0  0  0  0  0  0
   31.3124   24.3319   25.9084 C   0  0  0  0  0  0  0  0  0  0  0  0
   31.1892   24.9869   27.1840 O   0  0  0  0  0  0  0  0  0  0  0  0
  1  2  1  1  0  0  0
  1  3  1  0  0  0  0
  1  4  2  0  0  0  0
  1 16  1  0  0  0  0
  5  6  1  1  0  0  0
  5  7  1  0  0  0  0
  5 14  1  0  0  0  0
  7  8  1  6  0  0  0
  7  9  1  0  0  0  0
  9 10  1  6  0  0  0
  9 11  1  0  0  0  0
 11 12  1  1  0  0  0
 11 13  1  0  0  0  0
 13 14  1  0  0  0  0
 13 15  1  1  0  0  0
 15 16  1  0  0  0  0
M  CHG  1   3  -1
M  END
>  <CHROM.1>
160.53107879,-160.26297312,-55.31852061,30.77266964,25.20548504,25.28693195
0.72635693,-0.75857244,1.07206328

>  <Name>
ligand

>  <RI>
0

>  <Rbt.Current_Directory>
/home/itssahil/PROJECTS/Mol_Feturizer/New_Systems/rnas/3B4B

>  <Rbt.Executable>
rbdock ($Id: //depot/dev/client3/rdock/2013.1/src/exe/rbdock.cxx#4 $)

>  <Rbt.Library>
libRbt.so (2013.1, Build901 2013/11/27)

>  <Rbt.Parameter_File>
/export/apps/rDock/src/rDock_2013.1_src/data/scripts/dock_solv.prm

>  <Rbt.Receptor>
prm/blind_docking_100.prm

>  <SCORE>
-9.54124

>  <SCORE.INTER>
-9.6717

>  <SCORE.INTER.CONST>
1

>  <SCORE.INTER.POLAR>
0

>  <SCORE.INTER.ROT>
3

>  <SCORE.INTER.SOLV>
25.7407

>  <SCORE.INTER.VDW>
-20.628

>  <SCORE.INTER.norm>
-0.604481

>  <SCORE.INTRA>
0.04471

>  <SCORE.INTRA.DIHEDRAL>
0.830692

>  <SCORE.INTRA.DIHEDRAL.0>
2.21864

>  <SCORE.INTRA.POLAR>
0

>  <SCORE.INTRA.POLAR.0>
0

>  <SCORE.INTRA.REPUL>
0

>  <SCORE.INTRA.REPUL.0>
0

>  <SCORE.INTRA.SOLV>
-0.850013

>  <SCORE.INTRA.SOLV.lig_0>
-58.5963

>  <SCORE.INTRA.VDW>
0.0543706

>  <SCORE.INTRA.VDW.0>
-0.437849

>  <SCORE.INTRA.norm>
0.00279438

>  <SCORE.RESTR>
0.0857492

>  <SCORE.RESTR.CAVITY>
0.0857492

>  <SCORE.RESTR.norm>
0.00535932

>  <SCORE.SYSTEM>
0

>  <SCORE.SYSTEM.CONST>
0

>  <SCORE.SYSTEM.DIHEDRAL>
0

>  <SCORE.SYSTEM.SOLV>
0

>  <SCORE.SYSTEM.norm>
0

>  <SCORE.heavy>
16

>  <SCORE.norm>
-0.596327

>  <RMSD>
24.743

$$$$
ligand
 OpenBabel11021811463D
libRbt.so/2013.1/901 2013/11/27
 16 16  0  0  0  0  0  0  0  0999 V2000
   32.8143   23.9884   27.0536 P   0  0  2  0  0  0  0  0  0  0  0  0
   33.8341   24.6028   26.1684 O   0  0  0  0  0  0  0  0  0  0  0  0
   33.1404   24.3183   28.5950 O   0  5  0  0  0  0  0  0  0  0  0  0
   32.8366   22.3809   26.8544 O   0  0  0  0  0  0  0  0  0  0  0  0
   28.2022   26.7743   25.5436 C   0  0  2  0  0  0  0  0  0  0  0  0
   27.1616   25.7965   25.6872 O   0  0  0  0  0  0  0  0  0  0  0  0
   28.2094   27.3958   24.1183 C   0  0  2  0  0  0  0  0  0  0  0  0
   26.8954   28.0140   23.8352 N   0  0  0  0  0  0  0  0  0  0  0  0
   28.5012   26.2777   23.0952 C   0  0  1  0  0  0  0  0  0  0  0  0
   28.5352   26.8195   21.7631 O   0  0  0  0  0  0  0  0  0  0  0  0
   29.8658   25.6625   23.4381 C   0  0  2  0  0  0  0  0  0  0  0  0
   30.1610   24.6068   22.5128 O   0  0  0  0  0  0  0  0  0  0  0  0
   29.7970   25.0930   24.8798 C   0  0  2  0  0  0  0  0  0  0  0  0
   29.4890   26.1554   25.8277 O   0  0  0  0  0  0  0  0  0  0  0  0
   31.1573   24.4801   25.2559 C   0  0  0  0  0  0  0  0  0  0  0  0
   31.3683   24.6012   26.6744 O   0  0  0  0  0  0  0  0  0  0  0  0
  1  2  1  6  0  0  0
  1  3  1  0  0  0  0
  1  4  2  0  0  0  0
  1 16  1  0  0  0  0
  5  6  1  6  0  0  0
  5  7  1  0  0  0  0
  5 14  1  0  0  0  0
  7  8  1  6  0  0  0
  7  9  1  0  0  0  0
  9 10  1  6  0  0  0
  9 11  1  0  0  0  0
 11 12  1  6  0  0  0
 11 13  1  0  0  0  0
 13 14  1  0  0  0  0
 13 15  1  1  0  0  0
 15 16  1  0  0  0  0
M  CHG  1   3  -1
M  END
>  <CHROM.1>
149.65552622,-178.60047100,51.44755770,30.37174237,25.28899358,25.25827655
0.54049690,-0.55326942,1.53657585

>  <Name>
ligand

>  <RI>
0

>  <Rbt.Current_Directory>
/home/itssahil/PROJECTS/Mol_Feturizer/New_Systems/rnas/3B4B

>  <Rbt.Executable>
rbdock ($Id: //depot/dev/client3/rdock/2013.1/src/exe/rbdock.cxx#4 $)

>  <Rbt.Library>
libRbt.so (2013.1, Build901 2013/11/27)

>  <Rbt.Parameter_File>
/export/apps/rDock/src/rDock_2013.1_src/data/scripts/dock_solv.prm

>  <Rbt.Receptor>
prm/blind_docking_60.prm

>  <SCORE>
-12.7529

>  <SCORE.INTER>
-12.779

>  <SCORE.INTER.CONST>
1

>  <SCORE.INTER.POLAR>
0

>  <SCORE.INTER.ROT>
3

>  <SCORE.INTER.SOLV>
21.1546

>  <SCORE.INTER.VDW>
-21.1709

>  <SCORE.INTER.norm>
-0.798689

>  <SCORE.INTRA>
0.00911999

>  <SCORE.INTRA.DIHEDRAL>
0.59183

>  <SCORE.INTRA.DIHEDRAL.0>
2.21864

>  <SCORE.INTRA.POLAR>
0

>  <SCORE.INTRA.POLAR.0>
0

>  <SCORE.INTRA.REPUL>
0.00632802

>  <SCORE.INTRA.REPUL.0>
0

>  <SCORE.INTRA.SOLV>
-1.17647

>  <SCORE.INTRA.SOLV.lig_0>
-58.5963

>  <SCORE.INTRA.VDW>
0.2698

>  <SCORE.INTRA.VDW.0>
-0.437849

>  <SCORE.INTRA.norm>
0.000569999

>  <SCORE.RESTR>
0.0169566

>  <SCORE.RESTR.CAVITY>
0.0169566

>  <SCORE.RESTR.norm>
0.00105979

>  <SCORE.SYSTEM>
0

>  <SCORE.SYSTEM.CONST>
0

>  <SCORE.SYSTEM.DIHEDRAL>
0

>  <SCORE.SYSTEM.SOLV>
0

>  <SCORE.SYSTEM.norm>
0

>  <SCORE.heavy>
16

>  <SCORE.norm>
-0.797059

>  <RMSD>
25.080

$$$$
ligand
 OpenBabel11021811463D
libRbt.so/2013.1/901 2013/11/27
 16 16  0  0  0  0  0  0  0  0999 V2000
   32.8195   24.6125   27.8054 P   0  0  2  0  0  0  0  0  0  0  0  0
   32.8721   25.0107   29.2336 O   0  0  0  0  0  0  0  0  0  0  0  0
   33.1764   23.0509   27.6471 O   0  5  0  0  0  0  0  0  0  0  0  0
   33.9069   25.4770   26.9721 O   0  0  0  0  0  0  0  0  0  0  0  0
   28.2087   26.8217   25.5086 C   0  0  2  0  0  0  0  0  0  0  0  0
   27.2254   25.8179   25.8004 O   0  0  0  0  0  0  0  0  0  0  0  0
   28.2596   27.1470   23.9890 C   0  0  2  0  0  0  0  0  0  0  0  0
   26.9278   27.5986   23.5291 N   0  0  0  0  0  0  0  0  0  0  0  0
   28.6803   25.8729   23.2265 C   0  0  1  0  0  0  0  0  0  0  0  0
   28.7574   26.1410   21.8153 O   0  0  0  0  0  0  0  0  0  0  0  0
   30.0588   25.4398   23.7466 C   0  0  2  0  0  0  0  0  0  0  0  0
   30.4734   24.2463   23.0673 O   0  0  0  0  0  0  0  0  0  0  0  0
   29.9425   25.1640   25.2690 C   0  0  2  0  0  0  0  0  0  0  0  0
   29.5134   26.3676   25.9685 O   0  0  0  0  0  0  0  0  0  0  0  0
   31.3146   24.7395   25.8209 C   0  0  0  0  0  0  0  0  0  0  0  0
   31.3235   24.8733   27.2539 O   0  0  0  0  0  0  0  0  0  0  0  0
  1  2  1  1  0  0  0
  1  3  1  0  0  0  0
  1  4  2  0  0  0  0
  1 16  1  0  0  0  0
  5  6  1  6  0  0  0
  5  7  1  0  0  0  0
  5 14  1  0  0  0  0
  7  8  1  6  0  0  0
  7  9  1  0  0  0  0
  9 10  1  6  0  0  0
  9 11  1  0  0  0  0
 11 12  1  6  0  0  0
 11 13  1  0  0  0  0
 13 14  1  0  0  0  0
 13 15  1  1  0  0  0
 15 16  1  0  0  0  0
M  CHG  1   3  -1
M  END
>  <CHROM.1>
162.71995795,-172.66948929,169.05653832,30.45842090,25.42597592,25.63266106
0.62057541,-0.49695678,1.40079337

>  <Name>
ligand

>  <RI>
0

>  <Rbt.Current_Directory>
/home/itssahil/PROJECTS/Mol_Feturizer/New_Systems/rnas/3B4B

>  <Rbt.Executable>
rbdock ($Id: //depot/dev/client3/rdock/2013.1/src/exe/rbdock.cxx#4 $)

>  <Rbt.Library>
libRbt.so (2013.1, Build901 2013/11/27)

>  <Rbt.Parameter_File>
/export/apps/rDock/src/rDock_2013.1_src/data/scripts/dock_solv.prm

>  <Rbt.Receptor>
prm/blind_docking_100.prm

>  <SCORE>
-12.4652

>  <SCORE.INTER>
-11.874

>  <SCORE.INTER.CONST>
1

>  <SCORE.INTER.POLAR>
0

>  <SCORE.INTER.ROT>
3

>  <SCORE.INTER.SOLV>
23.2068

>  <SCORE.INTER.VDW>
-21.2516

>  <SCORE.INTER.norm>
-0.742123

>  <SCORE.INTRA>
-0.696186

>  <SCORE.INTRA.DIHEDRAL>
-0.761012

>  <SCORE.INTRA.DIHEDRAL.0>
2.21864

>  <SCORE.INTRA.POLAR>
0

>  <SCORE.INTRA.POLAR.0>
0

>  <SCORE.INTRA.REPUL>
0

>  <SCORE.INTRA.REPUL.0>
0

>  <SCORE.INTRA.SOLV>
-0.427446

>  <SCORE.INTRA.SOLV.lig_0>
-58.5963

>  <SCORE.INTRA.VDW>
-0.101957

>  <SCORE.INTRA.VDW.0>
-0.437849

>  <SCORE.INTRA.norm>
-0.0435116

>  <SCORE.RESTR>
0.104913

>  <SCORE.RESTR.CAVITY>
0.104913

>  <SCORE.RESTR.norm>
0.00655706

>  <SCORE.SYSTEM>
0

>  <SCORE.SYSTEM.CONST>
0

>  <SCORE.SYSTEM.DIHEDRAL>
0

>  <SCORE.SYSTEM.SOLV>
0

>  <SCORE.SYSTEM.norm>
0

>  <SCORE.heavy>
16

>  <SCORE.norm>
-0.779077

>  <RMSD>
25.257

$$$$
ligand
 OpenBabel11021811463D
libRbt.so/2013.1/901 2013/11/27
 16 16  0  0  0  0  0  0  0  0999 V2000
   34.2107   23.7411   32.6291 P   0  0  2  0  0  0  0  0  0  0  0  0
   34.3117   23.0535   31.3183 O   0  0  0  0  0  0  0  0  0  0  0  0
   32.6816   23.7648   33.1314 O   0  5  0  0  0  0  0  0  0  0  0  0
   34.7246   25.2690   32.4688 O   0  0  0  0  0  0  0  0  0  0  0  0
   37.1895   20.3909   36.0002 C   0  0  2  0  0  0  0  0  0  0  0  0
   37.7941   21.3261   36.9055 O   0  0  0  0  0  0  0  0  0  0  0  0
   38.2538   19.4826   35.3220 C   0  0  2  0  0  0  0  0  0  0  0  0
   39.0240   18.7563   36.3556 N   0  0  0  0  0  0  0  0  0  0  0  0
   39.1972   20.3711   34.4839 C   0  0  1  0  0  0  0  0  0  0  0  0
   40.1862   19.5616   33.8238 O   0  0  0  0  0  0  0  0  0  0  0  0
   38.3508   21.1095   33.4367 C   0  0  2  0  0  0  0  0  0  0  0  0
   39.1976   21.9581   32.6487 O   0  0  0  0  0  0  0  0  0  0  0  0
   37.2929   21.9676   34.1797 C   0  0  2  0  0  0  0  0  0  0  0  0
   36.4323   21.1167   34.9905 O   0  0  0  0  0  0  0  0  0  0  0  0
   36.4204   22.7105   33.1530 C   0  0  0  0  0  0  0  0  0  0  0  0
   35.1094   22.9352   33.7029 O   0  0  0  0  0  0  0  0  0  0  0  0
  1  2  1  6  0  0  0
  1  3  1  0  0  0  0
  1  4  2  0  0  0  0
  1 16  1  0  0  0  0
  5  6  1  1  0  0  0
  5  7  1  0  0  0  0
  5 14  1  0  0  0  0
  7  8  1  1  0  0  0
  7  9  1  0  0  0  0
  9 10  1  6  0  0  0
  9 11  1  0  0  0  0
 11 12  1  1  0  0  0
 11 13  1  0  0  0  0
 13 14  1  0  0  0  0
 13 15  1  6  0  0  0
 15 16  1  0  0  0  0
M  CHG  1   3  -1
M  END
>  <CHROM.1>
151.20720851,178.88653694,49.84191992,36.65735430,21.91780037,33.90102382
2.48459129,0.44294096,-1.09242557

>  <Name>
ligand

>  <RI>
0

>  <Rbt.Current_Directory>
/home/itssahil/PROJECTS/Mol_Feturizer/New_Systems/rnas/3B4B

>  <Rbt.Executable>
rbdock ($Id: //depot/dev/client3/rdock/2013.1/src/exe/rbdock.cxx#4 $)

>  <Rbt.Library>
libRbt.so (2013.1, Build901 2013/11/27)

>  <Rbt.Parameter_File>
/export/apps/rDock/src/rDock_2013.1_src/data/scripts/dock_solv.prm

>  <Rbt.Receptor>
prm/blind_docking_60.prm

>  <SCORE>
-11.3039

>  <SCORE.INTER>
-11.2294

>  <SCORE.INTER.CONST>
1

>  <SCORE.INTER.POLAR>
0

>  <SCORE.INTER.ROT>
3

>  <SCORE.INTER.SOLV>
18.6026

>  <SCORE.INTER.VDW>
-19.2871

>  <SCORE.INTER.norm>
-0.701838

>  <SCORE.INTRA>
-0.074474

>  <SCORE.INTRA.DIHEDRAL>
0.420994

>  <SCORE.INTRA.DIHEDRAL.0>
2.21864

>  <SCORE.INTRA.POLAR>
0

>  <SCORE.INTRA.POLAR.0>
0

>  <SCORE.INTRA.REPUL>
0.00399277

>  <SCORE.INTRA.REPUL.0>
0

>  <SCORE.INTRA.SOLV>
-1.19076

>  <SCORE.INTRA.SOLV.lig_0>
-58.5963

>  <SCORE.INTRA.VDW>
0.290446

>  <SCORE.INTRA.VDW.0>
-0.437849

>  <SCORE.INTRA.norm>
-0.00465463

>  <SCORE.RESTR>
0

>  <SCORE.RESTR.CAVITY>
0

>  <SCORE.RESTR.norm>
0

>  <SCORE.SYSTEM>
0

>  <SCORE.SYSTEM.CONST>
0

>  <SCORE.SYSTEM.DIHEDRAL>
0

>  <SCORE.SYSTEM.SOLV>
0

>  <SCORE.SYSTEM.norm>
0

>  <SCORE.heavy>
16

>  <SCORE.norm>
-0.706493

>  <RMSD>
26.214

$$$$
ligand
 OpenBabel11021811463D
libRbt.so/2013.1/901 2013/11/27
 16 16  0  0  0  0  0  0  0  0999 V2000
   34.6021   23.1779   32.5543 P   0  0  2  0  0  0  0  0  0  0  0  0
   34.3011   23.1494   31.1019 O   0  0  0  0  0  0  0  0  0  0  0  0
   33.2710   22.8744   33.4070 O   0  5  0  0  0  0  0  0  0  0  0  0
   35.1471   24.6497   32.9555 O   0  0  0  0  0  0  0  0  0  0  0  0
   38.9572   19.8704   34.6556 C   0  0  2  0  0  0  0  0  0  0  0  0
   38.6892   18.8222   33.7127 O   0  0  0  0  0  0  0  0  0  0  0  0
   38.7972   19.3755   36.1209 C   0  0  2  0  0  0  0  0  0  0  0  0
   39.7061   18.2340   36.3658 N   0  0  0  0  0  0  0  0  0  0  0  0
   37.3317   18.9426   36.3371 C   0  0  1  0  0  0  0  0  0  0  0  0
   37.1401   18.4956   37.6909 O   0  0  0  0  0  0  0  0  0  0  0  0
   36.4310   20.1553   36.0606 C   0  0  2  0  0  0  0  0  0  0  0  0
   35.0574   19.7817   36.2383 O   0  0  0  0  0  0  0  0  0  0  0  0
   36.6651   20.6147   34.5972 C   0  0  2  0  0  0  0  0  0  0  0  0
   38.0596   20.9885   34.4028 O   0  0  0  0  0  0  0  0  0  0  0  0
   35.7832   21.8388   34.2954 C   0  0  0  0  0  0  0  0  0  0  0  0
   35.7064   22.0423   32.8726 O   0  0  0  0  0  0  0  0  0  0  0  0
  1  2  1  6  0  0  0
  1  3  1  0  0  0  0
  1  4  2  0  0  0  0
  1 16  1  0  0  0  0
  5  6  1  6  0  0  0
  5  7  1  0  0  0  0
  5 14  1  0  0  0  0
  7  8  1  6  0  0  0
  7  9  1  0  0  0  0
  9 10  1  1  0  0  0
  9 11  1  0  0  0  0
 11 12  1  6  0  0  0
 11 13  1  0  0  0  0
 13 14  1  0  0  0  0
 13 15  1  1  0  0  0
 15 16  1  0  0  0  0
M  CHG  1   3  -1
M  END
>  <CHROM.1>
-164.12456602,171.24331342,-166.69106660,36.40479166,21.02651437,34.39581692
-2.20989407,-0.39283176,2.17743837

>  <Name>
ligand

>  <RI>
0

>  <Rbt.Current_Directory>
/home/itssahil/PROJECTS/Mol_Feturizer/New_Systems/rnas/3B4B

>  <Rbt.Executable>
rbdock ($Id: //depot/dev/client3/rdock/2013.1/src/exe/rbdock.cxx#4 $)

>  <Rbt.Library>
libRbt.so (2013.1, Build901 2013/11/27)

>  <Rbt.Parameter_File>
/export/apps/rDock/src/rDock_2013.1_src/data/scripts/dock_solv.prm

>  <Rbt.Receptor>
prm/blind_docking_60.prm

>  <SCORE>
-7.28421

>  <SCORE.INTER>
-6.49813

>  <SCORE.INTER.CONST>
1

>  <SCORE.INTER.POLAR>
0

>  <SCORE.INTER.ROT>
3

>  <SCORE.INTER.SOLV>
15.5906

>  <SCORE.INTER.VDW>
-15.1289

>  <SCORE.INTER.norm>
-0.406133

>  <SCORE.INTRA>
-0.786072

>  <SCORE.INTRA.DIHEDRAL>
-0.70037

>  <SCORE.INTRA.DIHEDRAL.0>
2.21864

>  <SCORE.INTRA.POLAR>
0

>  <SCORE.INTRA.POLAR.0>
0

>  <SCORE.INTRA.REPUL>
0

>  <SCORE.INTRA.REPUL.0>
0

>  <SCORE.INTRA.SOLV>
-0.594476

>  <SCORE.INTRA.SOLV.lig_0>
-58.5963

>  <SCORE.INTRA.VDW>
-0.138649

>  <SCORE.INTRA.VDW.0>
-0.437849

>  <SCORE.INTRA.norm>
-0.0491295

>  <SCORE.RESTR>
0

>  <SCORE.RESTR.CAVITY>
0

>  <SCORE.RESTR.norm>
0

>  <SCORE.SYSTEM>
0

>  <SCORE.SYSTEM.CONST>
0

>  <SCORE.SYSTEM.DIHEDRAL>
0

>  <SCORE.SYSTEM.SOLV>
0

>  <SCORE.SYSTEM.norm>
0

>  <SCORE.heavy>
16

>  <SCORE.norm>
-0.455263

>  <RMSD>
26.447

$$$$
ligand
 OpenBabel11021811463D
libRbt.so/2013.1/901 2013/11/27
 16 16  0  0  0  0  0  0  0  0999 V2000
   34.4796   24.0081   32.8516 P   0  0  2  0  0  0  0  0  0  0  0  0
   35.2726   25.2620   32.8491 O   0  0  0  0  0  0  0  0  0  0  0  0
   34.4103   23.3877   31.3680 O   0  5  0  0  0  0  0  0  0  0  0  0
   32.9715   24.3339   33.3453 O   0  0  0  0  0  0  0  0  0  0  0  0
   39.0262   19.9981   33.9873 C   0  0  2  0  0  0  0  0  0  0  0  0
   38.1815   18.8786   33.6828 O   0  0  0  0  0  0  0  0  0  0  0  0
   39.2526   20.1433   35.5187 C   0  0  2  0  0  0  0  0  0  0  0  0
   39.8502   18.9012   36.0563 N   0  0  0  0  0  0  0  0  0  0  0  0
   37.8913   20.4127   36.1942 C   0  0  1  0  0  0  0  0  0  0  0  0
   38.0637   20.5725   37.6133 O   0  0  0  0  0  0  0  0  0  0  0  0
   37.3093   21.7016   35.5957 C   0  0  2  0  0  0  0  0  0  0  0  0
   36.0334   21.9730   36.1927 O   0  0  0  0  0  0  0  0  0  0  0  0
   37.1409   21.4981   34.0667 C   0  0  2  0  0  0  0  0  0  0  0  0
   38.4298   21.2131   33.4507 O   0  0  0  0  0  0  0  0  0  0  0  0
   36.5700   22.7808   33.4372 C   0  0  0  0  0  0  0  0  0  0  0  0
   35.1975   22.9480   33.8369 O   0  0  0  0  0  0  0  0  0  0  0  0
  1  2  1  6  0  0  0
  1  3  1  0  0  0  0
  1  4  2  0  0  0  0
  1 16  1  0  0  0  0
  5  6  1  1  0  0  0
  5  7  1  0  0  0  0
  5 14  1  0  0  0  0
  7  8  1  1  0  0  0
  7  9  1  0  0  0  0
  9 10  1  1  0  0  0
  9 11  1  0  0  0  0
 11 12  1  1  0  0  0
 11 13  1  0  0  0  0
 13 14  1  0  0  0  0
 13 15  1  6  0  0  0
 15 16  1  0  0  0  0
M  CHG  1   3  -1
M  END
>  <CHROM.1>
-70.38027913,-163.05933216,-54.68677212,36.64284583,21.95847228,34.24027015
-2.69656080,-0.76004453,1.59269827

>  <Name>
ligand

>  <RI>
0

>  <Rbt.Current_Directory>
/home/itssahil/PROJECTS/Mol_Feturizer/New_Systems/rnas/3B4B

>  <Rbt.Executable>
rbdock ($Id: //depot/dev/client3/rdock/2013.1/src/exe/rbdock.cxx#4 $)

>  <Rbt.Library>
libRbt.so (2013.1, Build901 2013/11/27)

>  <Rbt.Parameter_File>
/export/apps/rDock/src/rDock_2013.1_src/data/scripts/dock_solv.prm

>  <Rbt.Receptor>
prm/blind_docking_80.prm

>  <SCORE>
-11.1891

>  <SCORE.INTER>
-10.6616

>  <SCORE.INTER.CONST>
1

>  <SCORE.INTER.POLAR>
0

>  <SCORE.INTER.ROT>
3

>  <SCORE.INTER.SOLV>
19.3224

>  <SCORE.INTER.VDW>
-19.1485

>  <SCORE.INTER.norm>
-0.666349

>  <SCORE.INTRA>
-0.587435

>  <SCORE.INTRA.DIHEDRAL>
-0.465768

>  <SCORE.INTRA.DIHEDRAL.0>
2.21864

>  <SCORE.INTRA.POLAR>
0

>  <SCORE.INTRA.POLAR.0>
0

>  <SCORE.INTRA.REPUL>
0

>  <SCORE.INTRA.REPUL.0>
0

>  <SCORE.INTRA.SOLV>
-0.826877

>  <SCORE.INTRA.SOLV.lig_0>
-58.5963

>  <SCORE.INTRA.VDW>
0.0588871

>  <SCORE.INTRA.VDW.0>
-0.437849

>  <SCORE.INTRA.norm>
-0.0367147

>  <SCORE.RESTR>
0.0599392

>  <SCORE.RESTR.CAVITY>
0.0599392

>  <SCORE.RESTR.norm>
0.0037462

>  <SCORE.SYSTEM>
0

>  <SCORE.SYSTEM.CONST>
0

>  <SCORE.SYSTEM.DIHEDRAL>
0

>  <SCORE.SYSTEM.SOLV>
0

>  <SCORE.SYSTEM.norm>
0

>  <SCORE.heavy>
16

>  <SCORE.norm>
-0.699318

>  <RMSD>
26.528

$$$$
ligand
 OpenBabel11021811463D
libRbt.so/2013.1/901 2013/11/27
 16 16  0  0  0  0  0  0  0  0999 V2000
   38.2594   20.5175   36.5607 P   0  0  2  0  0  0  0  0  0  0  0  0
   38.8811   21.1078   37.7715 O   0  0  0  0  0  0  0  0  0  0  0  0
   37.6467   19.0676   36.8974 O   0  5  0  0  0  0  0  0  0  0  0  0
   39.3895   20.3459   35.4128 O   0  0  0  0  0  0  0  0  0  0  0  0
   33.8516   22.2983   32.5460 C   0  0  2  0  0  0  0  0  0  0  0  0
   34.1583   23.7000   32.5714 O   0  0  0  0  0  0  0  0  0  0  0  0
   32.6120   21.9686   33.4249 C   0  0  2  0  0  0  0  0  0  0  0  0
   31.4447   22.7477   32.9562 N   0  0  0  0  0  0  0  0  0  0  0  0
   32.9372   22.3294   34.8898 C   0  0  1  0  0  0  0  0  0  0  0  0
   31.8177   22.0193   35.7382 O   0  0  0  0  0  0  0  0  0  0  0  0
   34.1585   21.5056   35.3235 C   0  0  2  0  0  0  0  0  0  0  0  0
   34.4972   21.8294   36.6794 O   0  0  0  0  0  0  0  0  0  0  0  0
   35.3442   21.8592   34.3873 C   0  0  2  0  0  0  0  0  0  0  0  0
   35.0080   21.5425   33.0057 O   0  0  0  0  0  0  0  0  0  0  0  0
   36.5808   21.0375   34.7913 C   0  0  0  0  0  0  0  0  0  0  0  0
   37.0711   21.4935   36.0653 O   0  0  0  0  0  0  0  0  0  0  0  0
  1  2  1  1  0  0  0
  1  3  1  0  0  0  0
  1  4  2  0  0  0  0
  1 16  1  0  0  0  0
  5  6  1  1  0  0  0
  5  7  1  0  0  0  0
  5 14  1  0  0  0  0
  7  8  1  6  0  0  0
  7  9  1  0  0  0  0
  9 10  1  1  0  0  0
  9 11  1  0  0  0  0
 11 12  1  1  0  0  0
 11 13  1  0  0  0  0
 13 14  1  0  0  0  0
 13 15  1  1  0  0  0
 15 16  1  0  0  0  0
M  CHG  1   3  -1
M  END
>  <CHROM.1>
-69.26428349,173.49032621,172.02252641,35.51357387,21.49323857,35.10075726
0.53397629,-0.20649012,1.83900284

>  <Name>
ligand

>  <RI>
0

>  <Rbt.Current_Directory>
/home/itssahil/PROJECTS/Mol_Feturizer/New_Systems/rnas/3B4B

>  <Rbt.Executable>
rbdock ($Id: //depot/dev/client3/rdock/2013.1/src/exe/rbdock.cxx#4 $)

>  <Rbt.Library>
libRbt.so (2013.1, Build901 2013/11/27)

>  <Rbt.Parameter_File>
/export/apps/rDock/src/rDock_2013.1_src/data/scripts/dock_solv.prm

>  <Rbt.Receptor>
prm/blind_docking_60.prm

>  <SCORE>
-9.77454

>  <SCORE.INTER>
-8.83888

>  <SCORE.INTER.CONST>
1

>  <SCORE.INTER.POLAR>
0

>  <SCORE.INTER.ROT>
3

>  <SCORE.INTER.SOLV>
15.669

>  <SCORE.INTER.VDW>
-16.7156

>  <SCORE.INTER.norm>
-0.55243

>  <SCORE.INTRA>
-0.935659

>  <SCORE.INTRA.DIHEDRAL>
-1.60688

>  <SCORE.INTRA.DIHEDRAL.0>
2.21864

>  <SCORE.INTRA.POLAR>
0

>  <SCORE.INTRA.POLAR.0>
0

>  <SCORE.INTRA.REPUL>
0

>  <SCORE.INTRA.REPUL.0>
0

>  <SCORE.INTRA.SOLV>
0.196766

>  <SCORE.INTRA.SOLV.lig_0>
-58.5963

>  <SCORE.INTRA.VDW>
-0.230605

>  <SCORE.INTRA.VDW.0>
-0.437849

>  <SCORE.INTRA.norm>
-0.0584787

>  <SCORE.RESTR>
0

>  <SCORE.RESTR.CAVITY>
0

>  <SCORE.RESTR.norm>
0

>  <SCORE.SYSTEM>
0

>  <SCORE.SYSTEM.CONST>
0

>  <SCORE.SYSTEM.DIHEDRAL>
0

>  <SCORE.SYSTEM.SOLV>
0

>  <SCORE.SYSTEM.norm>
0

>  <SCORE.heavy>
16

>  <SCORE.norm>
-0.610908

>  <RMSD>
27.256

$$$$
ligand
 OpenBabel11021811463D
libRbt.so/2013.1/901 2013/11/27
 16 16  0  0  0  0  0  0  0  0999 V2000
   15.2377   -3.3237    1.8607 P   0  0  2  0  0  0  0  0  0  0  0  0
   15.4714   -2.4031    3.0004 O   0  0  0  0  0  0  0  0  0  0  0  0
   14.1871   -4.4707    2.2752 O   0  5  0  0  0  0  0  0  0  0  0  0
   16.6373   -4.0298    1.4521 O   0  0  0  0  0  0  0  0  0  0  0  0
   11.6959   -1.5567   -2.2772 C   0  0  2  0  0  0  0  0  0  0  0  0
   12.6647   -0.7630   -2.9779 O   0  0  0  0  0  0  0  0  0  0  0  0
   10.4563   -0.7133   -1.8655 C   0  0  2  0  0  0  0  0  0  0  0  0
    9.8388   -0.1113   -3.0678 N   0  0  0  0  0  0  0  0  0  0  0  0
   10.9151    0.3943   -0.8937 C   0  0  1  0  0  0  0  0  0  0  0  0
    9.7892    1.1854   -0.4745 O   0  0  0  0  0  0  0  0  0  0  0  0
   11.5569   -0.2796    0.3279 C   0  0  2  0  0  0  0  0  0  0  0  0
   12.0091    0.7253    1.2464 O   0  0  0  0  0  0  0  0  0  0  0  0
   12.7621   -1.1272   -0.1583 C   0  0  2  0  0  0  0  0  0  0  0  0
   12.3157   -2.1461   -1.0989 O   0  0  0  0  0  0  0  0  0  0  0  0
   13.4183   -1.8257    1.0455 C   0  0  0  0  0  0  0  0  0  0  0  0
   14.6343   -2.4722    0.6275 O   0  0  0  0  0  0  0  0  0  0  0  0
  1  2  1  1  0  0  0
  1  3  1  0  0  0  0
  1  4  2  0  0  0  0
  1 16  1  0  0  0  0
  5  6  1  1  0  0  0
  5  7  1  0  0  0  0
  5 14  1  0  0  0  0
  7  8  1  6  0  0  0
  7  9  1  0  0  0  0
  9 10  1  1  0  0  0
  9 11  1  0  0  0  0
 11 12  1  1  0  0  0
 11 13  1  0  0  0  0
 13 14  1  0  0  0  0
 13 15  1  1  0  0  0
 15 16  1  0  0  0  0
M  CHG  1   3  -1
M  END
>  <CHROM.1>
-172.64962291,-174.40326417,-58.01444581,12.96476104,-1.59790944,0.12205461
-0.30573602,0.77171122,-1.95719882

>  <Name>
ligand

>  <RI>
0

>  <Rbt.Current_Directory>
/home/itssahil/PROJECTS/Mol_Feturizer/New_Systems/rnas/3B4B

>  <Rbt.Executable>
rbdock ($Id: //depot/dev/client3/rdock/2013.1/src/exe/rbdock.cxx#4 $)

>  <Rbt.Library>
libRbt.so (2013.1, Build901 2013/11/27)

>  <Rbt.Parameter_File>
/export/apps/rDock/src/rDock_2013.1_src/data/scripts/dock_solv.prm

>  <Rbt.Receptor>
prm/blind_docking_20.prm

>  <SCORE>
-8.39336

>  <SCORE.INTER>
-6.8236

>  <SCORE.INTER.CONST>
1

>  <SCORE.INTER.POLAR>
0

>  <SCORE.INTER.ROT>
3

>  <SCORE.INTER.SOLV>
12.3038

>  <SCORE.INTER.VDW>
-14.2503

>  <SCORE.INTER.norm>
-0.426475

>  <SCORE.INTRA>
-1.56976

>  <SCORE.INTRA.DIHEDRAL>
-1.86346

>  <SCORE.INTRA.DIHEDRAL.0>
2.21864

>  <SCORE.INTRA.POLAR>
0

>  <SCORE.INTRA.POLAR.0>
0

>  <SCORE.INTRA.REPUL>
0

>  <SCORE.INTRA.REPUL.0>
0

>  <SCORE.INTRA.SOLV>
-1.1434

>  <SCORE.INTRA.SOLV.lig_0>
-58.5963

>  <SCORE.INTRA.VDW>
-0.0663349

>  <SCORE.INTRA.VDW.0>
-0.437849

>  <SCORE.INTRA.norm>
-0.0981102

>  <SCORE.RESTR>
0

>  <SCORE.RESTR.CAVITY>
0

>  <SCORE.RESTR.norm>
0

>  <SCORE.SYSTEM>
0

>  <SCORE.SYSTEM.CONST>
0

>  <SCORE.SYSTEM.DIHEDRAL>
0

>  <SCORE.SYSTEM.SOLV>
0

>  <SCORE.SYSTEM.norm>
0

>  <SCORE.heavy>
16

>  <SCORE.norm>
-0.524585

>  <RMSD>
38.326

$$$$
ligand
 OpenBabel11021811463D
libRbt.so/2013.1/901 2013/11/27
 16 16  0  0  0  0  0  0  0  0999 V2000
   15.1567   -3.3309    1.6412 P   0  0  2  0  0  0  0  0  0  0  0  0
   15.3058   -3.0728    3.0946 O   0  0  0  0  0  0  0  0  0  0  0  0
   15.3819   -4.8930    1.3249 O   0  5  0  0  0  0  0  0  0  0  0  0
   16.2695   -2.4754    0.8325 O   0  0  0  0  0  0  0  0  0  0  0  0
    9.7564   -1.5188    1.5738 C   0  0  2  0  0  0  0  0  0  0  0  0
    8.8017   -2.2998    2.3073 O   0  0  0  0  0  0  0  0  0  0  0  0
    9.4865   -1.5761    0.0436 C   0  0  2  0  0  0  0  0  0  0  0  0
    8.1170   -1.0942   -0.2414 N   0  0  0  0  0  0  0  0  0  0  0  0
    9.6444   -3.0365   -0.4298 C   0  0  1  0  0  0  0  0  0  0  0  0
    9.4207   -3.1261   -1.8479 O   0  0  0  0  0  0  0  0  0  0  0  0
   11.0740   -3.4916   -0.1021 C   0  0  2  0  0  0  0  0  0  0  0  0
   11.2496   -4.8537   -0.5166 O   0  0  0  0  0  0  0  0  0  0  0  0
   11.2840   -3.3782    1.4310 C   0  0  2  0  0  0  0  0  0  0  0  0
   11.0994   -1.9998    1.8649 O   0  0  0  0  0  0  0  0  0  0  0  0
   12.7150   -3.8166    1.7878 C   0  0  0  0  0  0  0  0  0  0  0  0
   13.6622   -2.9094    1.1951 O   0  0  0  0  0  0  0  0  0  0  0  0
  1  2  1  1  0  0  0
  1  3  1  0  0  0  0
  1  4  2  0  0  0  0
  1 16  1  0  0  0  0
  5  6  1  1  0  0  0
  5  7  1  0  0  0  0
  5 14  1  0  0  0  0
  7  8  1  1  0  0  0
  7  9  1  0  0  0  0
  9 10  1  6  0  0  0
  9 11  1  0  0  0  0
 11 12  1  1  0  0  0
 11 13  1  0  0  0  0
 13 14  1  0  0  0  0
 13 15  1  6  0  0  0
 15 16  1  0  0  0  0
M  CHG  1   3  -1
M  END
>  <CHROM.1>
64.33351250,176.94756306,-68.16356330,12.08921016,-2.98043459,0.94155957
0.10568905,-0.28634155,1.00535971

>  <Name>
ligand

>  <RI>
0

>  <Rbt.Current_Directory>
/home/itssahil/PROJECTS/Mol_Feturizer/New_Systems/rnas/3B4B

>  <Rbt.Executable>
rbdock ($Id: //depot/dev/client3/rdock/2013.1/src/exe/rbdock.cxx#4 $)

>  <Rbt.Library>
libRbt.so (2013.1, Build901 2013/11/27)

>  <Rbt.Parameter_File>
/export/apps/rDock/src/rDock_2013.1_src/data/scripts/dock_solv.prm

>  <Rbt.Receptor>
prm/blind_docking_20.prm

>  <SCORE>
-6.15016

>  <SCORE.INTER>
-4.55266

>  <SCORE.INTER.CONST>
1

>  <SCORE.INTER.POLAR>
0

>  <SCORE.INTER.ROT>
3

>  <SCORE.INTER.SOLV>
12.3921

>  <SCORE.INTER.VDW>
-12.7658

>  <SCORE.INTER.norm>
-0.284541

>  <SCORE.INTRA>
-1.5975

>  <SCORE.INTRA.DIHEDRAL>
-1.99827

>  <SCORE.INTRA.DIHEDRAL.0>
2.21864

>  <SCORE.INTRA.POLAR>
0

>  <SCORE.INTRA.POLAR.0>
0

>  <SCORE.INTRA.REPUL>
0

>  <SCORE.INTRA.REPUL.0>
0

>  <SCORE.INTRA.SOLV>
-0.843796

>  <SCORE.INTRA.SOLV.lig_0>
-58.5963

>  <SCORE.INTRA.VDW>
-0.176468

>  <SCORE.INTRA.VDW.0>
-0.437849

>  <SCORE.INTRA.norm>
-0.0998438

>  <SCORE.RESTR>
0

>  <SCORE.RESTR.CAVITY>
0

>  <SCORE.RESTR.norm>
0

>  <SCORE.SYSTEM>
0

>  <SCORE.SYSTEM.CONST>
0

>  <SCORE.SYSTEM.DIHEDRAL>
0

>  <SCORE.SYSTEM.SOLV>
0

>  <SCORE.SYSTEM.norm>
0

>  <SCORE.heavy>
16

>  <SCORE.norm>
-0.384385

>  <RMSD>
39.299

$$$$
ligand
 OpenBabel11021811463D
libRbt.so/2013.1/901 2013/11/27
 16 16  0  0  0  0  0  0  0  0999 V2000
   10.2162    1.5514   -1.9851 P   0  0  2  0  0  0  0  0  0  0  0  0
   10.0785    2.6756   -1.0269 O   0  0  0  0  0  0  0  0  0  0  0  0
   10.8895    2.0636   -3.3546 O   0  5  0  0  0  0  0  0  0  0  0  0
    8.7472    0.9581   -2.3231 O   0  0  0  0  0  0  0  0  0  0  0  0
   11.7614   -3.6965   -0.6453 C   0  0  2  0  0  0  0  0  0  0  0  0
   11.0627   -4.3353    0.4333 O   0  0  0  0  0  0  0  0  0  0  0  0
   13.2591   -3.4644   -0.2978 C   0  0  2  0  0  0  0  0  0  0  0  0
   13.9042   -4.7564    0.0244 N   0  0  0  0  0  0  0  0  0  0  0  0
   13.3415   -2.5133    0.9147 C   0  0  1  0  0  0  0  0  0  0  0  0
   14.7160   -2.2589    1.2543 O   0  0  0  0  0  0  0  0  0  0  0  0
   12.6506   -1.1956    0.5344 C   0  0  2  0  0  0  0  0  0  0  0  0
   12.6963   -0.2924    1.6480 O   0  0  0  0  0  0  0  0  0  0  0  0
   11.1746   -1.5050    0.1696 C   0  0  2  0  0  0  0  0  0  0  0  0
   11.1159   -2.4288   -0.9552 O   0  0  0  0  0  0  0  0  0  0  0  0
   10.4595   -0.2022   -0.2287 C   0  0  0  0  0  0  0  0  0  0  0  0
   11.1605    0.4218   -1.3199 O   0  0  0  0  0  0  0  0  0  0  0  0
  1  2  1  1  0  0  0
  1  3  1  0  0  0  0
  1  4  2  0  0  0  0
  1 16  1  0  0  0  0
  5  6  1  1  0  0  0
  5  7  1  0  0  0  0
  5 14  1  0  0  0  0
  7  8  1  1  0  0  0
  7  9  1  0  0  0  0
  9 10  1  6  0  0  0
  9 11  1  0  0  0  0
 11 12  1  1  0  0  0
 11 13  1  0  0  0  0
 13 14  1  0  0  0  0
 13 15  1  6  0  0  0
 15 16  1  0  0  0  0
M  CHG  1   3  -1
M  END
>  <CHROM.1>
56.93610618,165.13868047,69.62413439,11.56268911,-0.92682060,-0.57859716
2.21690752,-0.68058579,-0.01050916

>  <Name>
ligand

>  <RI>
0

>  <Rbt.Current_Directory>
/home/itssahil/PROJECTS/Mol_Feturizer/New_Systems/rnas/3B4B

>  <Rbt.Executable>
rbdock ($Id: //depot/dev/client3/rdock/2013.1/src/exe/rbdock.cxx#4 $)

>  <Rbt.Library>
libRbt.so (2013.1, Build901 2013/11/27)

>  <Rbt.Parameter_File>
/export/apps/rDock/src/rDock_2013.1_src/data/scripts/dock_solv.prm

>  <Rbt.Receptor>
prm/blind_docking_40.prm

>  <SCORE>
-5.58334

>  <SCORE.INTER>
-4.6539

>  <SCORE.INTER.CONST>
1

>  <SCORE.INTER.POLAR>
0

>  <SCORE.INTER.ROT>
3

>  <SCORE.INTER.SOLV>
14.0147

>  <SCORE.INTER.VDW>
-13.3742

>  <SCORE.INTER.norm>
-0.290869

>  <SCORE.INTRA>
-1.03652

>  <SCORE.INTRA.DIHEDRAL>
-0.996839

>  <SCORE.INTRA.DIHEDRAL.0>
2.21864

>  <SCORE.INTRA.POLAR>
0

>  <SCORE.INTRA.POLAR.0>
0

>  <SCORE.INTRA.REPUL>
0

>  <SCORE.INTRA.REPUL.0>
0

>  <SCORE.INTRA.SOLV>
-0.705859

>  <SCORE.INTRA.SOLV.lig_0>
-58.5963

>  <SCORE.INTRA.VDW>
-0.185171

>  <SCORE.INTRA.VDW.0>
-0.437849

>  <SCORE.INTRA.norm>
-0.0647825

>  <SCORE.RESTR>
0.107079

>  <SCORE.RESTR.CAVITY>
0.107079

>  <SCORE.RESTR.norm>
0.00669243

>  <SCORE.SYSTEM>
0

>  <SCORE.SYSTEM.CONST>
0

>  <SCORE.SYSTEM.DIHEDRAL>
0

>  <SCORE.SYSTEM.SOLV>
0

>  <SCORE.SYSTEM.norm>
0

>  <SCORE.heavy>
16

>  <SCORE.norm>
-0.348959

>  <RMSD>
39.411

$$$$
ligand
 OpenBabel11021811463D
libRbt.so/2013.1/901 2013/11/27
 16 16  0  0  0  0  0  0  0  0999 V2000
   10.4450   -2.2195    1.8282 P   0  0  2  0  0  0  0  0  0  0  0  0
    9.4035   -1.7521    2.7759 O   0  0  0  0  0  0  0  0  0  0  0  0
   11.5415   -1.0656    1.5892 O   0  5  0  0  0  0  0  0  0  0  0  0
    9.7510   -2.5734    0.4079 O   0  0  0  0  0  0  0  0  0  0  0  0
   12.3776   -7.5312    2.8053 C   0  0  2  0  0  0  0  0  0  0  0  0
   12.8628   -7.2721    4.1309 O   0  0  0  0  0  0  0  0  0  0  0  0
   13.5032   -8.0761    1.8814 C   0  0  2  0  0  0  0  0  0  0  0  0
   14.0707   -9.3138    2.4603 N   0  0  0  0  0  0  0  0  0  0  0  0
   14.6005   -6.9984    1.7540 C   0  0  1  0  0  0  0  0  0  0  0  0
   15.6526   -7.4602    0.8884 O   0  0  0  0  0  0  0  0  0  0  0  0
   13.9605   -5.7346    1.1610 C   0  0  2  0  0  0  0  0  0  0  0  0
   14.9530   -4.7055    1.0433 O   0  0  0  0  0  0  0  0  0  0  0  0
   12.8290   -5.2664    2.1138 C   0  0  2  0  0  0  0  0  0  0  0  0
   11.8191   -6.3076    2.2478 O   0  0  0  0  0  0  0  0  0  0  0  0
   12.1601   -4.0064    1.5374 C   0  0  0  0  0  0  0  0  0  0  0  0
   11.1700   -3.5174    2.4605 O   0  0  0  0  0  0  0  0  0  0  0  0
  1  2  1  1  0  0  0
  1  3  1  0  0  0  0
  1  4  2  0  0  0  0
  1 16  1  0  0  0  0
  5  6  1  1  0  0  0
  5  7  1  0  0  0  0
  5 14  1  0  0  0  0
  7  8  1  1  0  0  0
  7  9  1  0  0  0  0
  9 10  1  6  0  0  0
  9 11  1  0  0  0  0
 11 12  1  1  0  0  0
 11 13  1  0  0  0  0
 13 14  1  0  0  0  0
 13 15  1  6  0  0  0
 15 16  1  0  0  0  0
M  CHG  1   3  -1
M  END
>  <CHROM.1>
-176.20897166,-178.42557889,178.46691075,12.38157848,-4.94792682,1.93509918
2.25029819,0.48341216,-0.40900390

>  <Name>
ligand

>  <RI>
0

>  <Rbt.Current_Directory>
/home/itssahil/PROJECTS/Mol_Feturizer/New_Systems/rnas/3B4B

>  <Rbt.Executable>
rbdock ($Id: //depot/dev/client3/rdock/2013.1/src/exe/rbdock.cxx#4 $)

>  <Rbt.Library>
libRbt.so (2013.1, Build901 2013/11/27)

>  <Rbt.Parameter_File>
/export/apps/rDock/src/rDock_2013.1_src/data/scripts/dock_solv.prm

>  <Rbt.Receptor>
prm/blind_docking_20.prm

>  <SCORE>
-6.11049

>  <SCORE.INTER>
-4.53232

>  <SCORE.INTER.CONST>
1

>  <SCORE.INTER.POLAR>
0

>  <SCORE.INTER.ROT>
3

>  <SCORE.INTER.SOLV>
9.29066

>  <SCORE.INTER.VDW>
-11.7184

>  <SCORE.INTER.norm>
-0.28327

>  <SCORE.INTRA>
-1.57817

>  <SCORE.INTRA.DIHEDRAL>
-2.15008

>  <SCORE.INTRA.DIHEDRAL.0>
2.21864

>  <SCORE.INTRA.POLAR>
0

>  <SCORE.INTRA.POLAR.0>
0

>  <SCORE.INTRA.REPUL>
0

>  <SCORE.INTRA.REPUL.0>
0

>  <SCORE.INTRA.SOLV>
-0.509247

>  <SCORE.INTRA.SOLV.lig_0>
-58.5963

>  <SCORE.INTRA.VDW>
-0.248504

>  <SCORE.INTRA.VDW.0>
-0.437849

>  <SCORE.INTRA.norm>
-0.0986356

>  <SCORE.RESTR>
0

>  <SCORE.RESTR.CAVITY>
0

>  <SCORE.RESTR.norm>
0

>  <SCORE.SYSTEM>
0

>  <SCORE.SYSTEM.CONST>
0

>  <SCORE.SYSTEM.DIHEDRAL>
0

>  <SCORE.SYSTEM.SOLV>
0

>  <SCORE.SYSTEM.norm>
0

>  <SCORE.heavy>
16

>  <SCORE.norm>
-0.381905

>  <RMSD>
39.455

$$$$
ligand
 OpenBabel11021811463D
libRbt.so/2013.1/901 2013/11/27
 16 16  0  0  0  0  0  0  0  0999 V2000
   10.2584    1.4240   -2.0233 P   0  0  2  0  0  0  0  0  0  0  0  0
   10.2672    2.8121   -2.5468 O   0  0  0  0  0  0  0  0  0  0  0  0
   11.5395    0.6141   -2.5655 O   0  5  0  0  0  0  0  0  0  0  0  0
    8.9182    0.6714   -2.5349 O   0  0  0  0  0  0  0  0  0  0  0  0
   13.3987   -1.1369    0.3785 C   0  0  2  0  0  0  0  0  0  0  0  0
   13.6583   -1.3718   -1.0133 O   0  0  0  0  0  0  0  0  0  0  0  0
   13.1167   -2.4634    1.1389 C   0  0  2  0  0  0  0  0  0  0  0  0
   14.2683   -3.3804    0.9897 N   0  0  0  0  0  0  0  0  0  0  0  0
   11.8450   -3.1085    0.5488 C   0  0  1  0  0  0  0  0  0  0  0  0
   11.5405   -4.3316    1.2420 O   0  0  0  0  0  0  0  0  0  0  0  0
   10.6852   -2.1162    0.7175 C   0  0  2  0  0  0  0  0  0  0  0  0
    9.4881   -2.6804    0.1639 O   0  0  0  0  0  0  0  0  0  0  0  0
   11.0467   -0.8089   -0.0360 C   0  0  2  0  0  0  0  0  0  0  0  0
   12.2665   -0.2313    0.5123 O   0  0  0  0  0  0  0  0  0  0  0  0
    9.9058    0.2105    0.1267 C   0  0  0  0  0  0  0  0  0  0  0  0
   10.3121    1.4829   -0.4097 O   0  0  0  0  0  0  0  0  0  0  0  0
  1  2  1  6  0  0  0
  1  3  1  0  0  0  0
  1  4  2  0  0  0  0
  1 16  1  0  0  0  0
  5  6  1  6  0  0  0
  5  7  1  0  0  0  0
  5 14  1  0  0  0  0
  7  8  1  6  0  0  0
  7  9  1  0  0  0  0
  9 10  1  1  0  0  0
  9 11  1  0  0  0  0
 11 12  1  6  0  0  0
 11 13  1  0  0  0  0
 13 14  1  0  0  0  0
 13 15  1  1  0  0  0
 15 16  1  0  0  0  0
M  CHG  1   3  -1
M  END
>  <CHROM.1>
172.08486135,75.89604105,162.88273773,11.29196149,-0.69124282,-0.49856153
-1.99501633,0.03450557,2.59638422

>  <Name>
ligand

>  <RI>
0

>  <Rbt.Current_Directory>
/home/itssahil/PROJECTS/Mol_Feturizer/New_Systems/rnas/3B4B

>  <Rbt.Executable>
rbdock ($Id: //depot/dev/client3/rdock/2013.1/src/exe/rbdock.cxx#4 $)

>  <Rbt.Library>
libRbt.so (2013.1, Build901 2013/11/27)

>  <Rbt.Parameter_File>
/export/apps/rDock/src/rDock_2013.1_src/data/scripts/dock_solv.prm

>  <Rbt.Receptor>
prm/blind_docking_20.prm

>  <SCORE>
-5.77074

>  <SCORE.INTER>
-6.72416

>  <SCORE.INTER.CONST>
1

>  <SCORE.INTER.POLAR>
0

>  <SCORE.INTER.ROT>
3

>  <SCORE.INTER.SOLV>
11.0845

>  <SCORE.INTER.VDW>
-13.7776

>  <SCORE.INTER.norm>
-0.42026

>  <SCORE.INTRA>
0.953426

>  <SCORE.INTRA.DIHEDRAL>
-0.372938

>  <SCORE.INTRA.DIHEDRAL.0>
2.21864

>  <SCORE.INTRA.POLAR>
0

>  <SCORE.INTRA.POLAR.0>
0

>  <SCORE.INTRA.REPUL>
0

>  <SCORE.INTRA.REPUL.0>
0

>  <SCORE.INTRA.SOLV>
3.06539

>  <SCORE.INTRA.SOLV.lig_0>
-58.5963

>  <SCORE.INTRA.VDW>
-0.3928

>  <SCORE.INTRA.VDW.0>
-0.437849

>  <SCORE.INTRA.norm>
0.0595891

>  <SCORE.RESTR>
0

>  <SCORE.RESTR.CAVITY>
0

>  <SCORE.RESTR.norm>
0

>  <SCORE.SYSTEM>
0

>  <SCORE.SYSTEM.CONST>
0

>  <SCORE.SYSTEM.DIHEDRAL>
0

>  <SCORE.SYSTEM.SOLV>
0

>  <SCORE.SYSTEM.norm>
0

>  <SCORE.heavy>
16

>  <SCORE.norm>
-0.360671

>  <RMSD>
39.521

$$$$
ligand
 OpenBabel11021811463D
libRbt.so/2013.1/901 2013/11/27
 16 16  0  0  0  0  0  0  0  0999 V2000
   13.4848   -3.1901   -3.7743 P   0  0  2  0  0  0  0  0  0  0  0  0
   14.2866   -3.7724   -4.8784 O   0  0  0  0  0  0  0  0  0  0  0  0
   14.2062   -1.8734   -3.1938 O   0  5  0  0  0  0  0  0  0  0  0  0
   13.3568   -4.2769   -2.5798 O   0  0  0  0  0  0  0  0  0  0  0  0
   10.8677    1.2057   -3.7320 C   0  0  2  0  0  0  0  0  0  0  0  0
   12.2375    1.5715   -3.5092 O   0  0  0  0  0  0  0  0  0  0  0  0
    9.9747    1.5644   -2.5107 C   0  0  2  0  0  0  0  0  0  0  0  0
   10.0691    3.0140   -2.2302 N   0  0  0  0  0  0  0  0  0  0  0  0
   10.4616    0.7550   -1.2902 C   0  0  1  0  0  0  0  0  0  0  0  0
    9.6447    1.0466   -0.1426 O   0  0  0  0  0  0  0  0  0  0  0  0
   10.3548   -0.7376   -1.6350 C   0  0  2  0  0  0  0  0  0  0  0  0
   10.8153   -1.5197   -0.5240 O   0  0  0  0  0  0  0  0  0  0  0  0
   11.2414   -1.0171   -2.8772 C   0  0  2  0  0  0  0  0  0  0  0  0
   10.7881   -0.2213   -4.0100 O   0  0  0  0  0  0  0  0  0  0  0  0
   11.1439   -2.5057   -3.2540 C   0  0  0  0  0  0  0  0  0  0  0  0
   12.0308   -2.7873   -4.3520 O   0  0  0  0  0  0  0  0  0  0  0  0
  1  2  1  6  0  0  0
  1  3  1  0  0  0  0
  1  4  2  0  0  0  0
  1 16  1  0  0  0  0
  5  6  1  1  0  0  0
  5  7  1  0  0  0  0
  5 14  1  0  0  0  0
  7  8  1  1  0  0  0
  7  9  1  0  0  0  0
  9 10  1  1  0  0  0
  9 11  1  0  0  0  0
 11 12  1  1  0  0  0
 11 13  1  0  0  0  0
 13 14  1  0  0  0  0
 13 15  1  6  0  0  0
 15 16  1  0  0  0  0
M  CHG  1   3  -1
M  END
>  <CHROM.1>
-176.31600918,89.04360953,167.16844845,11.74757372,-1.02346838,-2.86247166
-0.49642986,0.91900488,-0.58989782

>  <Name>
ligand

>  <RI>
0

>  <Rbt.Current_Directory>
/home/itssahil/PROJECTS/Mol_Feturizer/New_Systems/rnas/3B4B

>  <Rbt.Executable>
rbdock ($Id: //depot/dev/client3/rdock/2013.1/src/exe/rbdock.cxx#4 $)

>  <Rbt.Library>
libRbt.so (2013.1, Build901 2013/11/27)

>  <Rbt.Parameter_File>
/export/apps/rDock/src/rDock_2013.1_src/data/scripts/dock_solv.prm

>  <Rbt.Receptor>
prm/blind_docking_20.prm

>  <SCORE>
-3.88987

>  <SCORE.INTER>
-4.89268

>  <SCORE.INTER.CONST>
1

>  <SCORE.INTER.POLAR>
0

>  <SCORE.INTER.ROT>
3

>  <SCORE.INTER.SOLV>
16.1306

>  <SCORE.INTER.VDW>
-14.2387

>  <SCORE.INTER.norm>
-0.305792

>  <SCORE.INTRA>
1.00281

>  <SCORE.INTRA.DIHEDRAL>
1.50854

>  <SCORE.INTRA.DIHEDRAL.0>
2.21864

>  <SCORE.INTRA.POLAR>
0

>  <SCORE.INTRA.POLAR.0>
0

>  <SCORE.INTRA.REPUL>
0

>  <SCORE.INTRA.REPUL.0>
0

>  <SCORE.INTRA.SOLV>
1.75845

>  <SCORE.INTRA.SOLV.lig_0>
-58.5963

>  <SCORE.INTRA.VDW>
-0.630687

>  <SCORE.INTRA.VDW.0>
-0.437849

>  <SCORE.INTRA.norm>
0.0626753

>  <SCORE.RESTR>
0

>  <SCORE.RESTR.CAVITY>
0

>  <SCORE.RESTR.norm>
0

>  <SCORE.SYSTEM>
0

>  <SCORE.SYSTEM.CONST>
0

>  <SCORE.SYSTEM.DIHEDRAL>
0

>  <SCORE.SYSTEM.SOLV>
0

>  <SCORE.SYSTEM.norm>
0

>  <SCORE.heavy>
16

>  <SCORE.norm>
-0.243117

>  <RMSD>
40.111

$$$$
ligand
 OpenBabel11021811463D
libRbt.so/2013.1/901 2013/11/27
 16 16  0  0  0  0  0  0  0  0999 V2000
   13.1537   -3.8041   -2.8125 P   0  0  2  0  0  0  0  0  0  0  0  0
   13.4346   -3.9571   -4.2613 O   0  0  0  0  0  0  0  0  0  0  0  0
   14.5179   -3.9084   -1.9647 O   0  5  0  0  0  0  0  0  0  0  0  0
   12.1584   -4.9900   -2.3359 O   0  0  0  0  0  0  0  0  0  0  0  0
    9.6271    0.1159   -0.8628 C   0  0  2  0  0  0  0  0  0  0  0  0
    8.2786    0.0690   -1.3516 O   0  0  0  0  0  0  0  0  0  0  0  0
   10.3428    1.4298   -1.2860 C   0  0  2  0  0  0  0  0  0  0  0  0
    9.5846    2.5969   -0.7837 N   0  0  0  0  0  0  0  0  0  0  0  0
   10.4231    1.4724   -2.8266 C   0  0  1  0  0  0  0  0  0  0  0  0
   11.0983    2.6678   -3.2562 O   0  0  0  0  0  0  0  0  0  0  0  0
   11.2070    0.2385   -3.2971 C   0  0  2  0  0  0  0  0  0  0  0  0
   11.2869    0.2397   -4.7294 O   0  0  0  0  0  0  0  0  0  0  0  0
   10.4565   -1.0308   -2.8142 C   0  0  2  0  0  0  0  0  0  0  0  0
   10.3616   -1.0384   -1.3606 O   0  0  0  0  0  0  0  0  0  0  0  0
   11.2274   -2.2851   -3.2614 C   0  0  0  0  0  0  0  0  0  0  0  0
   12.4872   -2.3527   -2.5687 O   0  0  0  0  0  0  0  0  0  0  0  0
  1  2  1  6  0  0  0
  1  3  1  0  0  0  0
  1  4  2  0  0  0  0
  1 16  1  0  0  0  0
  5  6  1  6  0  0  0
  5  7  1  0  0  0  0
  5 14  1  0  0  0  0
  7  8  1  6  0  0  0
  7  9  1  0  0  0  0
  9 10  1  1  0  0  0
  9 11  1  0  0  0  0
 11 12  1  6  0  0  0
 11 13  1  0  0  0  0
 13 14  1  0  0  0  0
 13 15  1  1  0  0  0
 15 16  1  0  0  0  0
M  CHG  1   3  -1
M  END
>  <CHROM.1>
66.93045492,168.73864695,63.11741518,11.40351398,-1.17750615,-2.52845983
0.75378241,-0.79898888,2.65372949

>  <Name>
ligand

>  <RI>
0

>  <Rbt.Current_Directory>
/home/itssahil/PROJECTS/Mol_Feturizer/New_Systems/rnas/3B4B

>  <Rbt.Executable>
rbdock ($Id: //depot/dev/client3/rdock/2013.1/src/exe/rbdock.cxx#4 $)

>  <Rbt.Library>
libRbt.so (2013.1, Build901 2013/11/27)

>  <Rbt.Parameter_File>
/export/apps/rDock/src/rDock_2013.1_src/data/scripts/dock_solv.prm

>  <Rbt.Receptor>
prm/blind_docking_20.prm

>  <SCORE>
-6.15942

>  <SCORE.INTER>
-4.79799

>  <SCORE.INTER.CONST>
1

>  <SCORE.INTER.POLAR>
0

>  <SCORE.INTER.ROT>
3

>  <SCORE.INTER.SOLV>
14.205

>  <SCORE.INTER.VDW>
-13.5336

>  <SCORE.INTER.norm>
-0.299874

>  <SCORE.INTRA>
-1.36144

>  <SCORE.INTRA.DIHEDRAL>
-1.42049

>  <SCORE.INTRA.DIHEDRAL.0>
2.21864

>  <SCORE.INTRA.POLAR>
0

>  <SCORE.INTRA.POLAR.0>
0

>  <SCORE.INTRA.REPUL>
0

>  <SCORE.INTRA.REPUL.0>
0

>  <SCORE.INTRA.SOLV>
-0.848879

>  <SCORE.INTRA.SOLV.lig_0>
-58.5963

>  <SCORE.INTRA.VDW>
-0.226753

>  <SCORE.INTRA.VDW.0>
-0.437849

>  <SCORE.INTRA.norm>
-0.0850898

>  <SCORE.RESTR>
0

>  <SCORE.RESTR.CAVITY>
0

>  <SCORE.RESTR.norm>
0

>  <SCORE.SYSTEM>
0

>  <SCORE.SYSTEM.CONST>
0

>  <SCORE.SYSTEM.DIHEDRAL>
0

>  <SCORE.SYSTEM.SOLV>
0

>  <SCORE.SYSTEM.norm>
0

>  <SCORE.heavy>
16

>  <SCORE.norm>
-0.384964

>  <RMSD>
40.281

$$$$
ligand
 OpenBabel11021811463D
libRbt.so/2013.1/901 2013/11/27
 16 16  0  0  0  0  0  0  0  0999 V2000
   14.4074   -6.0508   -3.5945 P   0  0  2  0  0  0  0  0  0  0  0  0
   13.5258   -7.2430   -3.6466 O   0  0  0  0  0  0  0  0  0  0  0  0
   15.1469   -5.8403   -5.0087 O   0  5  0  0  0  0  0  0  0  0  0  0
   15.5338   -6.2722   -2.4515 O   0  0  0  0  0  0  0  0  0  0  0  0
   12.2942   -1.1239   -1.7013 C   0  0  2  0  0  0  0  0  0  0  0  0
   12.1310   -0.9945   -0.2814 O   0  0  0  0  0  0  0  0  0  0  0  0
   10.9243   -1.1162   -2.4369 C   0  0  2  0  0  0  0  0  0  0  0  0
   10.1963    0.1338   -2.1260 N   0  0  0  0  0  0  0  0  0  0  0  0
   10.1063   -2.3376   -1.9670 C   0  0  1  0  0  0  0  0  0  0  0  0
    8.8367   -2.3750   -2.6423 O   0  0  0  0  0  0  0  0  0  0  0  0
   10.9072   -3.6045   -2.3011 C   0  0  2  0  0  0  0  0  0  0  0  0
   10.1796   -4.7604   -1.8623 O   0  0  0  0  0  0  0  0  0  0  0  0
   12.2699   -3.5304   -1.5629 C   0  0  2  0  0  0  0  0  0  0  0  0
   13.0142   -2.3550   -1.9944 O   0  0  0  0  0  0  0  0  0  0  0  0
   13.1006   -4.7836   -1.8899 C   0  0  0  0  0  0  0  0  0  0  0  0
   13.4994   -4.7539   -3.2725 O   0  0  0  0  0  0  0  0  0  0  0  0
  1  2  1  6  0  0  0
  1  3  1  0  0  0  0
  1  4  2  0  0  0  0
  1 16  1  0  0  0  0
  5  6  1  1  0  0  0
  5  7  1  0  0  0  0
  5 14  1  0  0  0  0
  7  8  1  1  0  0  0
  7  9  1  0  0  0  0
  9 10  1  6  0  0  0
  9 11  1  0  0  0  0
 11 12  1  1  0  0  0
 11 13  1  0  0  0  0
 13 14  1  0  0  0  0
 13 15  1  6  0  0  0
 15 16  1  0  0  0  0
M  CHG  1   3  -1
M  END
>  <CHROM.1>
68.49792115,178.32859912,73.59223538,12.44853098,-3.80256439,-2.52266303
-0.91143082,-0.02284079,0.37181772

>  <Name>
ligand

>  <RI>
0

>  <Rbt.Current_Directory>
/home/itssahil/PROJECTS/Mol_Feturizer/New_Systems/rnas/3B4B

>  <Rbt.Executable>
rbdock ($Id: //depot/dev/client3/rdock/2013.1/src/exe/rbdock.cxx#4 $)

>  <Rbt.Library>
libRbt.so (2013.1, Build901 2013/11/27)

>  <Rbt.Parameter_File>
/export/apps/rDock/src/rDock_2013.1_src/data/scripts/dock_solv.prm

>  <Rbt.Receptor>
prm/blind_docking_20.prm

>  <SCORE>
-5.74057

>  <SCORE.INTER>
-4.30335

>  <SCORE.INTER.CONST>
1

>  <SCORE.INTER.POLAR>
0

>  <SCORE.INTER.ROT>
3

>  <SCORE.INTER.SOLV>
10.2317

>  <SCORE.INTER.VDW>
-11.8795

>  <SCORE.INTER.norm>
-0.268959

>  <SCORE.INTRA>
-1.43722

>  <SCORE.INTRA.DIHEDRAL>
-1.65125

>  <SCORE.INTRA.DIHEDRAL.0>
2.21864

>  <SCORE.INTRA.POLAR>
0

>  <SCORE.INTRA.POLAR.0>
0

>  <SCORE.INTRA.REPUL>
0

>  <SCORE.INTRA.REPUL.0>
0

>  <SCORE.INTRA.SOLV>
-0.806537

>  <SCORE.INTRA.SOLV.lig_0>
-58.5963

>  <SCORE.INTRA.VDW>
-0.208327

>  <SCORE.INTRA.VDW.0>
-0.437849

>  <SCORE.INTRA.norm>
-0.0898264

>  <SCORE.RESTR>
0

>  <SCORE.RESTR.CAVITY>
0

>  <SCORE.RESTR.norm>
0

>  <SCORE.SYSTEM>
0

>  <SCORE.SYSTEM.CONST>
0

>  <SCORE.SYSTEM.DIHEDRAL>
0

>  <SCORE.SYSTEM.SOLV>
0

>  <SCORE.SYSTEM.norm>
0

>  <SCORE.heavy>
16

>  <SCORE.norm>
-0.358786

>  <RMSD>
40.285

$$$$
ligand
 OpenBabel11021811463D
libRbt.so/2013.1/901 2013/11/27
 16 16  0  0  0  0  0  0  0  0999 V2000
   10.7393    0.7385   -3.2150 P   0  0  2  0  0  0  0  0  0  0  0  0
   11.1260    1.5042   -4.4255 O   0  0  0  0  0  0  0  0  0  0  0  0
    9.2246    0.2101   -3.3483 O   0  5  0  0  0  0  0  0  0  0  0  0
   10.8355    1.7070   -1.9201 O   0  0  0  0  0  0  0  0  0  0  0  0
   14.4374   -3.7002   -3.5167 C   0  0  2  0  0  0  0  0  0  0  0  0
   14.3205   -4.5641   -4.6567 O   0  0  0  0  0  0  0  0  0  0  0  0
   13.9361   -4.3954   -2.2193 C   0  0  2  0  0  0  0  0  0  0  0  0
   14.7040   -5.6390   -1.9891 N   0  0  0  0  0  0  0  0  0  0  0  0
   12.4363   -4.7205   -2.3830 C   0  0  1  0  0  0  0  0  0  0  0  0
   11.9311   -5.3486   -1.1916 O   0  0  0  0  0  0  0  0  0  0  0  0
   11.6874   -3.4027   -2.6300 C   0  0  2  0  0  0  0  0  0  0  0  0
   10.2889   -3.6720   -2.8021 O   0  0  0  0  0  0  0  0  0  0  0  0
   12.2585   -2.7495   -3.9163 C   0  0  2  0  0  0  0  0  0  0  0  0
   13.6810   -2.4794   -3.7562 O   0  0  0  0  0  0  0  0  0  0  0  0
   11.5340   -1.4184   -4.1821 C   0  0  0  0  0  0  0  0  0  0  0  0
   11.7319   -0.5278   -3.0690 O   0  0  0  0  0  0  0  0  0  0  0  0
  1  2  1  6  0  0  0
  1  3  1  0  0  0  0
  1  4  2  0  0  0  0
  1 16  1  0  0  0  0
  5  6  1  6  0  0  0
  5  7  1  0  0  0  0
  5 14  1  0  0  0  0
  7  8  1  6  0  0  0
  7  9  1  0  0  0  0
  9 10  1  1  0  0  0
  9 11  1  0  0  0  0
 11 12  1  6  0  0  0
 11 13  1  0  0  0  0
 13 14  1  0  0  0  0
 13 15  1  1  0  0  0
 15 16  1  0  0  0  0
M  CHG  1   3  -1
M  END
>  <CHROM.1>
60.07614570,-168.78343637,-64.80092728,12.03346784,-2.11693803,-3.09295763
-2.12030085,-0.49668952,2.75881397

>  <Name>
ligand

>  <RI>
0

>  <Rbt.Current_Directory>
/home/itssahil/PROJECTS/Mol_Feturizer/New_Systems/rnas/3B4B

>  <Rbt.Executable>
rbdock ($Id: //depot/dev/client3/rdock/2013.1/src/exe/rbdock.cxx#4 $)

>  <Rbt.Library>
libRbt.so (2013.1, Build901 2013/11/27)

>  <Rbt.Parameter_File>
/export/apps/rDock/src/rDock_2013.1_src/data/scripts/dock_solv.prm

>  <Rbt.Receptor>
prm/blind_docking_20.prm

>  <SCORE>
-6.13277

>  <SCORE.INTER>
-4.91691

>  <SCORE.INTER.CONST>
1

>  <SCORE.INTER.POLAR>
0

>  <SCORE.INTER.ROT>
3

>  <SCORE.INTER.SOLV>
13.1879

>  <SCORE.INTER.VDW>
-13.2739

>  <SCORE.INTER.norm>
-0.307307

>  <SCORE.INTRA>
-1.21586

>  <SCORE.INTRA.DIHEDRAL>
-1.57852

>  <SCORE.INTRA.DIHEDRAL.0>
2.21864

>  <SCORE.INTRA.POLAR>
0

>  <SCORE.INTRA.POLAR.0>
0

>  <SCORE.INTRA.REPUL>
0

>  <SCORE.INTRA.REPUL.0>
0

>  <SCORE.INTRA.SOLV>
-0.45365

>  <SCORE.INTRA.SOLV.lig_0>
-58.5963

>  <SCORE.INTRA.VDW>
-0.199778

>  <SCORE.INTRA.VDW.0>
-0.437849

>  <SCORE.INTRA.norm>
-0.0759914

>  <SCORE.RESTR>
0

>  <SCORE.RESTR.CAVITY>
0

>  <SCORE.RESTR.norm>
0

>  <SCORE.SYSTEM>
0

>  <SCORE.SYSTEM.CONST>
0

>  <SCORE.SYSTEM.DIHEDRAL>
0

>  <SCORE.SYSTEM.SOLV>
0

>  <SCORE.SYSTEM.norm>
0

>  <SCORE.heavy>
16

>  <SCORE.norm>
-0.383298

>  <RMSD>
40.352

$$$$
ligand
 OpenBabel11021811463D
libRbt.so/2013.1/901 2013/11/27
 16 16  0  0  0  0  0  0  0  0999 V2000
   10.8170    0.7486   -3.3810 P   0  0  2  0  0  0  0  0  0  0  0  0
   11.5733    2.0201   -3.4933 O   0  0  0  0  0  0  0  0  0  0  0  0
   11.7227   -0.3801   -2.6763 O   0  5  0  0  0  0  0  0  0  0  0  0
   10.4159    0.2359   -4.8644 O   0  0  0  0  0  0  0  0  0  0  0  0
   11.4061   -0.8389    1.5453 C   0  0  2  0  0  0  0  0  0  0  0  0
   12.2469   -1.6689    0.7306 O   0  0  0  0  0  0  0  0  0  0  0  0
   10.1359   -1.6014    2.0175 C   0  0  2  0  0  0  0  0  0  0  0  0
   10.5300   -2.8120    2.7712 N   0  0  0  0  0  0  0  0  0  0  0  0
    9.3082   -1.9954    0.7759 C   0  0  1  0  0  0  0  0  0  0  0  0
    8.1121   -2.6876    1.1751 O   0  0  0  0  0  0  0  0  0  0  0  0
    8.9349   -0.7093    0.0244 C   0  0  2  0  0  0  0  0  0  0  0  0
    8.1760   -1.0422   -1.1466 O   0  0  0  0  0  0  0  0  0  0  0  0
   10.2443    0.0144   -0.3869 C   0  0  2  0  0  0  0  0  0  0  0  0
   11.0278    0.3498    0.7946 O   0  0  0  0  0  0  0  0  0  0  0  0
    9.9002    1.3157   -1.1322 C   0  0  0  0  0  0  0  0  0  0  0  0
    9.5012    1.0111   -2.4811 O   0  0  0  0  0  0  0  0  0  0  0  0
  1  2  1  6  0  0  0
  1  3  1  0  0  0  0
  1  4  2  0  0  0  0
  1 16  1  0  0  0  0
  5  6  1  6  0  0  0
  5  7  1  0  0  0  0
  5 14  1  0  0  0  0
  7  8  1  6  0  0  0
  7  9  1  0  0  0  0
  9 10  1  1  0  0  0
  9 11  1  0  0  0  0
 11 12  1  6  0  0  0
 11 13  1  0  0  0  0
 13 14  1  0  0  0  0
 13 15  1  1  0  0  0
 15 16  1  0  0  0  0
M  CHG  1   3  -1
M  END
>  <CHROM.1>
-77.18016074,-79.55286953,-66.48713783,10.30195222,-0.39320854,-0.87823362
-1.43472636,0.30661632,2.03234189

>  <Name>
ligand

>  <RI>
0

>  <Rbt.Current_Directory>
/home/itssahil/PROJECTS/Mol_Feturizer/New_Systems/rnas/3B4B

>  <Rbt.Executable>
rbdock ($Id: //depot/dev/client3/rdock/2013.1/src/exe/rbdock.cxx#4 $)

>  <Rbt.Library>
libRbt.so (2013.1, Build901 2013/11/27)

>  <Rbt.Parameter_File>
/export/apps/rDock/src/rDock_2013.1_src/data/scripts/dock_solv.prm

>  <Rbt.Receptor>
prm/blind_docking_20.prm

>  <SCORE>
-7.07637

>  <SCORE.INTER>
-8.51747

>  <SCORE.INTER.CONST>
1

>  <SCORE.INTER.POLAR>
0

>  <SCORE.INTER.ROT>
3

>  <SCORE.INTER.SOLV>
15.3982

>  <SCORE.INTER.VDW>
-16.411

>  <SCORE.INTER.norm>
-0.532342

>  <SCORE.INTRA>
1.4411

>  <SCORE.INTRA.DIHEDRAL>
0.571788

>  <SCORE.INTRA.DIHEDRAL.0>
2.21864

>  <SCORE.INTRA.POLAR>
0

>  <SCORE.INTRA.POLAR.0>
0

>  <SCORE.INTRA.REPUL>
0

>  <SCORE.INTRA.REPUL.0>
0

>  <SCORE.INTRA.SOLV>
2.42407

>  <SCORE.INTRA.SOLV.lig_0>
-58.5963

>  <SCORE.INTRA.VDW>
-0.0568229

>  <SCORE.INTRA.VDW.0>
-0.437849

>  <SCORE.INTRA.norm>
0.090069

>  <SCORE.RESTR>
0

>  <SCORE.RESTR.CAVITY>
0

>  <SCORE.RESTR.norm>
0

>  <SCORE.SYSTEM>
0

>  <SCORE.SYSTEM.CONST>
0

>  <SCORE.SYSTEM.DIHEDRAL>
0

>  <SCORE.SYSTEM.SOLV>
0

>  <SCORE.SYSTEM.norm>
0

>  <SCORE.heavy>
16

>  <SCORE.norm>
-0.442273

>  <RMSD>
40.395

$$$$
ligand
 OpenBabel11021811463D
libRbt.so/2013.1/901 2013/11/27
 16 16  0  0  0  0  0  0  0  0999 V2000
    9.9828   -1.1365   -3.2694 P   0  0  2  0  0  0  0  0  0  0  0  0
   10.1468   -0.7093   -4.6807 O   0  0  0  0  0  0  0  0  0  0  0  0
    8.4655   -1.6009   -2.9987 O   0  5  0  0  0  0  0  0  0  0  0  0
   10.3220    0.1112   -2.2935 O   0  0  0  0  0  0  0  0  0  0  0  0
   13.7806   -4.9184   -1.2511 C   0  0  2  0  0  0  0  0  0  0  0  0
   15.1165   -4.4424   -1.0312 O   0  0  0  0  0  0  0  0  0  0  0  0
   13.7233   -5.9392   -2.4225 C   0  0  2  0  0  0  0  0  0  0  0  0
   14.6230   -7.0788   -2.1378 N   0  0  0  0  0  0  0  0  0  0  0  0
   14.1638   -5.2265   -3.7186 C   0  0  1  0  0  0  0  0  0  0  0  0
   14.1048   -6.1366   -4.8309 O   0  0  0  0  0  0  0  0  0  0  0  0
   13.2087   -4.0490   -3.9629 C   0  0  2  0  0  0  0  0  0  0  0  0
   13.6007   -3.3542   -5.1552 O   0  0  0  0  0  0  0  0  0  0  0  0
   13.2924   -3.0908   -2.7453 C   0  0  2  0  0  0  0  0  0  0  0  0
   12.9046   -3.7885   -1.5267 O   0  0  0  0  0  0  0  0  0  0  0  0
   12.3344   -1.9056   -2.9571 C   0  0  0  0  0  0  0  0  0  0  0  0
   10.9759   -2.3798   -2.9901 O   0  0  0  0  0  0  0  0  0  0  0  0
  1  2  1  6  0  0  0
  1  3  1  0  0  0  0
  1  4  2  0  0  0  0
  1 16  1  0  0  0  0
  5  6  1  6  0  0  0
  5  7  1  0  0  0  0
  5 14  1  0  0  0  0
  7  8  1  1  0  0  0
  7  9  1  0  0  0  0
  9 10  1  6  0  0  0
  9 11  1  0  0  0  0
 11 12  1  6  0  0  0
 11 13  1  0  0  0  0
 13 14  1  0  0  0  0
 13 15  1  6  0  0  0
 15 16  1  0  0  0  0
M  CHG  1   3  -1
M  END
>  <CHROM.1>
64.29434801,-177.84226019,71.58915139,12.31530268,-3.25360277,-3.03199065
-3.12808136,0.81146223,-1.70947038

>  <Name>
ligand

>  <RI>
0

>  <Rbt.Current_Directory>
/home/itssahil/PROJECTS/Mol_Feturizer/New_Systems/rnas/3B4B

>  <Rbt.Executable>
rbdock ($Id: //depot/dev/client3/rdock/2013.1/src/exe/rbdock.cxx#4 $)

>  <Rbt.Library>
libRbt.so (2013.1, Build901 2013/11/27)

>  <Rbt.Parameter_File>
/export/apps/rDock/src/rDock_2013.1_src/data/scripts/dock_solv.prm

>  <Rbt.Receptor>
prm/blind_docking_20.prm

>  <SCORE>
-4.94253

>  <SCORE.INTER>
-3.33877

>  <SCORE.INTER.CONST>
1

>  <SCORE.INTER.POLAR>
0

>  <SCORE.INTER.ROT>
3

>  <SCORE.INTER.SOLV>
12.3231

>  <SCORE.INTER.VDW>
-11.9336

>  <SCORE.INTER.norm>
-0.208673

>  <SCORE.INTRA>
-1.60376

>  <SCORE.INTRA.DIHEDRAL>
-1.91072

>  <SCORE.INTRA.DIHEDRAL.0>
2.21864

>  <SCORE.INTRA.POLAR>
0

>  <SCORE.INTRA.POLAR.0>
0

>  <SCORE.INTRA.REPUL>
0

>  <SCORE.INTRA.REPUL.0>
0

>  <SCORE.INTRA.SOLV>
-0.832253

>  <SCORE.INTRA.SOLV.lig_0>
-58.5963

>  <SCORE.INTRA.VDW>
-0.232274

>  <SCORE.INTRA.VDW.0>
-0.437849

>  <SCORE.INTRA.norm>
-0.100235

>  <SCORE.RESTR>
0

>  <SCORE.RESTR.CAVITY>
0

>  <SCORE.RESTR.norm>
0

>  <SCORE.SYSTEM>
0

>  <SCORE.SYSTEM.CONST>
0

>  <SCORE.SYSTEM.DIHEDRAL>
0

>  <SCORE.SYSTEM.SOLV>
0

>  <SCORE.SYSTEM.norm>
0

>  <SCORE.heavy>
16

>  <SCORE.norm>
-0.308908

>  <RMSD>
40.410

$$$$
ligand
 OpenBabel11021811463D
libRbt.so/2013.1/901 2013/11/27
 16 16  0  0  0  0  0  0  0  0999 V2000
   14.2537   -5.5280   -4.0990 P   0  0  2  0  0  0  0  0  0  0  0  0
   13.9193   -6.7628   -4.8505 O   0  0  0  0  0  0  0  0  0  0  0  0
   15.0968   -4.5194   -5.0279 O   0  5  0  0  0  0  0  0  0  0  0  0
   15.1550   -5.9176   -2.8105 O   0  0  0  0  0  0  0  0  0  0  0  0
   10.3774   -2.3040   -1.2825 C   0  0  2  0  0  0  0  0  0  0  0  0
    9.2398   -2.9082   -1.9153 O   0  0  0  0  0  0  0  0  0  0  0  0
   10.4135   -0.7676   -1.5185 C   0  0  2  0  0  0  0  0  0  0  0  0
    9.1682   -0.1533   -1.0075 N   0  0  0  0  0  0  0  0  0  0  0  0
   10.5518   -0.5053   -3.0330 C   0  0  1  0  0  0  0  0  0  0  0  0
   10.6083    0.9091   -3.2893 O   0  0  0  0  0  0  0  0  0  0  0  0
   11.8493   -1.1703   -3.5152 C   0  0  2  0  0  0  0  0  0  0  0  0
   12.0006   -0.9578   -4.9258 O   0  0  0  0  0  0  0  0  0  0  0  0
   11.7583   -2.6909   -3.2202 C   0  0  2  0  0  0  0  0  0  0  0  0
   11.5956   -2.9186   -1.7906 O   0  0  0  0  0  0  0  0  0  0  0  0
   13.0526   -3.3826   -3.6822 C   0  0  0  0  0  0  0  0  0  0  0  0
   12.8773   -4.8108   -3.6503 O   0  0  0  0  0  0  0  0  0  0  0  0
  1  2  1  6  0  0  0
  1  3  1  0  0  0  0
  1  4  2  0  0  0  0
  1 16  1  0  0  0  0
  5  6  1  6  0  0  0
  5  7  1  0  0  0  0
  5 14  1  0  0  0  0
  7  8  1  6  0  0  0
  7  9  1  0  0  0  0
  9 10  1  1  0  0  0
  9 11  1  0  0  0  0
 11 12  1  6  0  0  0
 11 13  1  0  0  0  0
 13 14  1  0  0  0  0
 13 15  1  1  0  0  0
 15 16  1  0  0  0  0
M  CHG  1   3  -1
M  END
>  <CHROM.1>
-169.04562648,-178.49846553,-145.44284283,12.20249322,-3.02985820,-3.20713468
0.54302959,-0.76095346,2.65705337

>  <Name>
ligand

>  <RI>
0

>  <Rbt.Current_Directory>
/home/itssahil/PROJECTS/Mol_Feturizer/New_Systems/rnas/3B4B

>  <Rbt.Executable>
rbdock ($Id: //depot/dev/client3/rdock/2013.1/src/exe/rbdock.cxx#4 $)

>  <Rbt.Library>
libRbt.so (2013.1, Build901 2013/11/27)

>  <Rbt.Parameter_File>
/export/apps/rDock/src/rDock_2013.1_src/data/scripts/dock_solv.prm

>  <Rbt.Receptor>
prm/blind_docking_20.prm

>  <SCORE>
-5.18294

>  <SCORE.INTER>
-5.25832

>  <SCORE.INTER.CONST>
1

>  <SCORE.INTER.POLAR>
0

>  <SCORE.INTER.ROT>
3

>  <SCORE.INTER.SOLV>
10.882

>  <SCORE.INTER.VDW>
-12.7329

>  <SCORE.INTER.norm>
-0.328645

>  <SCORE.INTRA>
0.0753831

>  <SCORE.INTRA.DIHEDRAL>
-0.29415

>  <SCORE.INTRA.DIHEDRAL.0>
2.21864

>  <SCORE.INTRA.POLAR>
0

>  <SCORE.INTRA.POLAR.0>
0

>  <SCORE.INTRA.REPUL>
0

>  <SCORE.INTRA.REPUL.0>
0

>  <SCORE.INTRA.SOLV>
-0.604334

>  <SCORE.INTRA.SOLV.lig_0>
-58.5963

>  <SCORE.INTRA.VDW>
0.524625

>  <SCORE.INTRA.VDW.0>
-0.437849

>  <SCORE.INTRA.norm>
0.00471144

>  <SCORE.RESTR>
0

>  <SCORE.RESTR.CAVITY>
0

>  <SCORE.RESTR.norm>
0

>  <SCORE.SYSTEM>
0

>  <SCORE.SYSTEM.CONST>
0

>  <SCORE.SYSTEM.DIHEDRAL>
0

>  <SCORE.SYSTEM.SOLV>
0

>  <SCORE.SYSTEM.norm>
0

>  <SCORE.heavy>
16

>  <SCORE.norm>
-0.323933

>  <RMSD>
40.437

$$$$
ligand
 OpenBabel11021811463D
libRbt.so/2013.1/901 2013/11/27
 16 16  0  0  0  0  0  0  0  0999 V2000
   10.0769   -1.0690    2.1553 P   0  0  2  0  0  0  0  0  0  0  0  0
    9.7704   -0.1306    3.2627 O   0  0  0  0  0  0  0  0  0  0  0  0
   10.2534   -2.5649    2.7230 O   0  5  0  0  0  0  0  0  0  0  0  0
   11.4623   -0.6199    1.4459 O   0  0  0  0  0  0  0  0  0  0  0  0
   10.3479   -0.9696   -2.7789 C   0  0  2  0  0  0  0  0  0  0  0  0
   11.6746   -1.2587   -2.3141 O   0  0  0  0  0  0  0  0  0  0  0  0
   10.3055    0.3492   -3.6015 C   0  0  2  0  0  0  0  0  0  0  0  0
   11.2314    0.2519   -4.7514 N   0  0  0  0  0  0  0  0  0  0  0  0
   10.7222    1.5166   -2.6820 C   0  0  1  0  0  0  0  0  0  0  0  0
   10.6760    2.7594   -3.4049 O   0  0  0  0  0  0  0  0  0  0  0  0
    9.7404    1.5678   -1.5024 C   0  0  2  0  0  0  0  0  0  0  0  0
   10.1097    2.6354   -0.6182 O   0  0  0  0  0  0  0  0  0  0  0  0
    9.8109    0.2135   -0.7484 C   0  0  2  0  0  0  0  0  0  0  0  0
    9.4460   -0.8796   -1.6395 O   0  0  0  0  0  0  0  0  0  0  0  0
    8.8261    0.2314    0.4337 C   0  0  0  0  0  0  0  0  0  0  0  0
    8.8502   -1.0419    1.1043 O   0  0  0  0  0  0  0  0  0  0  0  0
  1  2  1  1  0  0  0
  1  3  1  0  0  0  0
  1  4  2  0  0  0  0
  1 16  1  0  0  0  0
  5  6  1  1  0  0  0
  5  7  1  0  0  0  0
  5 14  1  0  0  0  0
  7  8  1  6  0  0  0
  7  9  1  0  0  0  0
  9 10  1  6  0  0  0
  9 11  1  0  0  0  0
 11 12  1  1  0  0  0
 11 13  1  0  0  0  0
 13 14  1  0  0  0  0
 13 15  1  1  0  0  0
 15 16  1  0  0  0  0
M  CHG  1   3  -1
M  END
>  <CHROM.1>
177.75815836,83.68293425,69.01248339,10.20275452,-0.03607389,-0.52380799
-2.03495376,1.31674337,-0.76251144

>  <Name>
ligand

>  <RI>
0

>  <Rbt.Current_Directory>
/home/itssahil/PROJECTS/Mol_Feturizer/New_Systems/rnas/3B4B

>  <Rbt.Executable>
rbdock ($Id: //depot/dev/client3/rdock/2013.1/src/exe/rbdock.cxx#4 $)

>  <Rbt.Library>
libRbt.so (2013.1, Build901 2013/11/27)

>  <Rbt.Parameter_File>
/export/apps/rDock/src/rDock_2013.1_src/data/scripts/dock_solv.prm

>  <Rbt.Receptor>
prm/blind_docking_20.prm

>  <SCORE>
-9.21182

>  <SCORE.INTER>
-9.86136

>  <SCORE.INTER.CONST>
1

>  <SCORE.INTER.POLAR>
0

>  <SCORE.INTER.ROT>
3

>  <SCORE.INTER.SOLV>
17.8494

>  <SCORE.INTER.VDW>
-18.124

>  <SCORE.INTER.norm>
-0.616335

>  <SCORE.INTRA>
0.649537

>  <SCORE.INTRA.DIHEDRAL>
0.364236

>  <SCORE.INTRA.DIHEDRAL.0>
2.21864

>  <SCORE.INTRA.POLAR>
0

>  <SCORE.INTRA.POLAR.0>
0

>  <SCORE.INTRA.REPUL>
0

>  <SCORE.INTRA.REPUL.0>
0

>  <SCORE.INTRA.SOLV>
1.59001

>  <SCORE.INTRA.SOLV.lig_0>
-58.5963

>  <SCORE.INTRA.VDW>
-0.327586

>  <SCORE.INTRA.VDW.0>
-0.437849

>  <SCORE.INTRA.norm>
0.040596

>  <SCORE.RESTR>
0

>  <SCORE.RESTR.CAVITY>
0

>  <SCORE.RESTR.norm>
0

>  <SCORE.SYSTEM>
0

>  <SCORE.SYSTEM.CONST>
0

>  <SCORE.SYSTEM.DIHEDRAL>
0

>  <SCORE.SYSTEM.SOLV>
0

>  <SCORE.SYSTEM.norm>
0

>  <SCORE.heavy>
16

>  <SCORE.norm>
-0.575739

>  <RMSD>
40.452

$$$$
ligand
 OpenBabel11021811463D
libRbt.so/2013.1/901 2013/11/27
 16 16  0  0  0  0  0  0  0  0999 V2000
   12.5586   -5.1435    2.5693 P   0  0  2  0  0  0  0  0  0  0  0  0
   11.5954   -5.3268    3.6828 O   0  0  0  0  0  0  0  0  0  0  0  0
   13.1243   -6.5687    2.0794 O   0  5  0  0  0  0  0  0  0  0  0  0
   13.8034   -4.2446    3.0858 O   0  0  0  0  0  0  0  0  0  0  0  0
    8.8984   -2.6854   -1.0897 C   0  0  2  0  0  0  0  0  0  0  0  0
    9.8501   -2.4792   -2.1440 O   0  0  0  0  0  0  0  0  0  0  0  0
    8.2247   -1.3518   -0.6594 C   0  0  2  0  0  0  0  0  0  0  0  0
    7.5580   -0.7291   -1.8243 N   0  0  0  0  0  0  0  0  0  0  0  0
    9.3118   -0.4080   -0.1032 C   0  0  1  0  0  0  0  0  0  0  0  0
    8.7218    0.8322    0.3245 O   0  0  0  0  0  0  0  0  0  0  0  0
    9.9791   -1.1026    1.0929 C   0  0  2  0  0  0  0  0  0  0  0  0
   11.0077   -0.2561    1.6252 O   0  0  0  0  0  0  0  0  0  0  0  0
   10.5997   -2.4364    0.5998 C   0  0  2  0  0  0  0  0  0  0  0  0
    9.5650   -3.3011    0.0488 O   0  0  0  0  0  0  0  0  0  0  0  0
   11.2658   -3.1616    1.7822 C   0  0  0  0  0  0  0  0  0  0  0  0
   11.7935   -4.4258    1.3407 O   0  0  0  0  0  0  0  0  0  0  0  0
  1  2  1  1  0  0  0
  1  3  1  0  0  0  0
  1  4  2  0  0  0  0
  1 16  1  0  0  0  0
  5  6  1  6  0  0  0
  5  7  1  0  0  0  0
  5 14  1  0  0  0  0
  7  8  1  6  0  0  0
  7  9  1  0  0  0  0
  9 10  1  1  0  0  0
  9 11  1  0  0  0  0
 11 12  1  6  0  0  0
 11 13  1  0  0  0  0
 13 14  1  0  0  0  0
 13 15  1  1  0  0  0
 15 16  1  0  0  0  0
M  CHG  1   3  -1
M  END
>  <CHROM.1>
177.58554049,177.01815204,58.69373642,10.69535648,-2.89620766,0.94263133
0.39728743,0.89594574,-2.70709152

>  <Name>
ligand

>  <RI>
0

>  <Rbt.Current_Directory>
/home/itssahil/PROJECTS/Mol_Feturizer/New_Systems/rnas/3B4B

>  <Rbt.Executable>
rbdock ($Id: //depot/dev/client3/rdock/2013.1/src/exe/rbdock.cxx#4 $)

>  <Rbt.Library>
libRbt.so (2013.1, Build901 2013/11/27)

>  <Rbt.Parameter_File>
/export/apps/rDock/src/rDock_2013.1_src/data/scripts/dock_solv.prm

>  <Rbt.Receptor>
prm/blind_docking_20.prm

>  <SCORE>
-5.44839

>  <SCORE.INTER>
-3.7194

>  <SCORE.INTER.CONST>
1

>  <SCORE.INTER.POLAR>
0

>  <SCORE.INTER.ROT>
3

>  <SCORE.INTER.SOLV>
15.7483

>  <SCORE.INTER.VDW>
-13.329

>  <SCORE.INTER.norm>
-0.232462

>  <SCORE.INTRA>
-1.729

>  <SCORE.INTRA.DIHEDRAL>
-2.15118

>  <SCORE.INTRA.DIHEDRAL.0>
2.21864

>  <SCORE.INTRA.POLAR>
0

>  <SCORE.INTRA.POLAR.0>
0

>  <SCORE.INTRA.REPUL>
0

>  <SCORE.INTRA.REPUL.0>
0

>  <SCORE.INTRA.SOLV>
-1.18149

>  <SCORE.INTRA.SOLV.lig_0>
-58.5963

>  <SCORE.INTRA.VDW>
-0.0626649

>  <SCORE.INTRA.VDW.0>
-0.437849

>  <SCORE.INTRA.norm>
-0.108062

>  <SCORE.RESTR>
0

>  <SCORE.RESTR.CAVITY>
0

>  <SCORE.RESTR.norm>
0

>  <SCORE.SYSTEM>
0

>  <SCORE.SYSTEM.CONST>
0

>  <SCORE.SYSTEM.DIHEDRAL>
0

>  <SCORE.SYSTEM.SOLV>
0

>  <SCORE.SYSTEM.norm>
0

>  <SCORE.heavy>
16

>  <SCORE.norm>
-0.340525

>  <RMSD>
40.478

$$$$
ligand
 OpenBabel11021811463D
libRbt.so/2013.1/901 2013/11/27
 16 16  0  0  0  0  0  0  0  0999 V2000
    9.9745   -1.0529    2.2009 P   0  0  2  0  0  0  0  0  0  0  0  0
    9.6125   -0.0987    3.2778 O   0  0  0  0  0  0  0  0  0  0  0  0
   10.1275   -2.5393    2.7995 O   0  5  0  0  0  0  0  0  0  0  0  0
   11.3912   -0.6098    1.5523 O   0  0  0  0  0  0  0  0  0  0  0  0
   10.3406   -1.0078   -2.7743 C   0  0  2  0  0  0  0  0  0  0  0  0
   11.6604   -1.3024   -2.2936 O   0  0  0  0  0  0  0  0  0  0  0  0
   10.3154    0.3058   -3.6057 C   0  0  2  0  0  0  0  0  0  0  0  0
   11.2528    0.1951   -4.7451 N   0  0  0  0  0  0  0  0  0  0  0  0
   10.7299    1.4765   -2.6895 C   0  0  1  0  0  0  0  0  0  0  0  0
   10.6994    2.7149   -3.4207 O   0  0  0  0  0  0  0  0  0  0  0  0
    9.7359    1.5416   -1.5207 C   0  0  2  0  0  0  0  0  0  0  0  0
   10.1027    2.6126   -0.6395 O   0  0  0  0  0  0  0  0  0  0  0  0
    9.7897    0.1919   -0.7573 C   0  0  2  0  0  0  0  0  0  0  0  0
    9.4273   -0.9047   -1.6451 O   0  0  0  0  0  0  0  0  0  0  0  0
    8.7926    0.2237    0.4141 C   0  0  0  0  0  0  0  0  0  0  0  0
    8.7998   -1.0460    1.0918 O   0  0  0  0  0  0  0  0  0  0  0  0
  1  2  1  1  0  0  0
  1  3  1  0  0  0  0
  1  4  2  0  0  0  0
  1 16  1  0  0  0  0
  5  6  1  1  0  0  0
  5  7  1  0  0  0  0
  5 14  1  0  0  0  0
  7  8  1  6  0  0  0
  7  9  1  0  0  0  0
  9 10  1  6  0  0  0
  9 11  1  0  0  0  0
 11 12  1  1  0  0  0
 11 13  1  0  0  0  0
 13 14  1  0  0  0  0
 13 15  1  1  0  0  0
 15 16  1  0  0  0  0
M  CHG  1   3  -1
M  END
>  <CHROM.1>
177.66820201,86.12676251,68.21773499,10.16193007,-0.05101223,-0.51033703
-2.11472155,1.31521212,-0.69851854

>  <Name>
ligand

>  <RI>
0

>  <Rbt.Current_Directory>
/home/itssahil/PROJECTS/Mol_Feturizer/New_Systems/rnas/3B4B

>  <Rbt.Executable>
rbdock ($Id: //depot/dev/client3/rdock/2013.1/src/exe/rbdock.cxx#4 $)

>  <Rbt.Library>
libRbt.so (2013.1, Build901 2013/11/27)

>  <Rbt.Parameter_File>
/export/apps/rDock/src/rDock_2013.1_src/data/scripts/dock_solv.prm

>  <Rbt.Receptor>
prm/blind_docking_20.prm

>  <SCORE>
-9.20764

>  <SCORE.INTER>
-9.88321

>  <SCORE.INTER.CONST>
1

>  <SCORE.INTER.POLAR>
0

>  <SCORE.INTER.ROT>
3

>  <SCORE.INTER.SOLV>
18.1466

>  <SCORE.INTER.VDW>
-18.2377

>  <SCORE.INTER.norm>
-0.6177

>  <SCORE.INTRA>
0.67557

>  <SCORE.INTRA.DIHEDRAL>
0.787787

>  <SCORE.INTRA.DIHEDRAL.0>
2.21864

>  <SCORE.INTRA.POLAR>
0

>  <SCORE.INTRA.POLAR.0>
0

>  <SCORE.INTRA.REPUL>
0

>  <SCORE.INTRA.REPUL.0>
0

>  <SCORE.INTRA.SOLV>
1.37159

>  <SCORE.INTRA.SOLV.lig_0>
-58.5963

>  <SCORE.INTRA.VDW>
-0.404116

>  <SCORE.INTRA.VDW.0>
-0.437849

>  <SCORE.INTRA.norm>
0.0422231

>  <SCORE.RESTR>
0

>  <SCORE.RESTR.CAVITY>
0

>  <SCORE.RESTR.norm>
0

>  <SCORE.SYSTEM>
0

>  <SCORE.SYSTEM.CONST>
0

>  <SCORE.SYSTEM.DIHEDRAL>
0

>  <SCORE.SYSTEM.SOLV>
0

>  <SCORE.SYSTEM.norm>
0

>  <SCORE.heavy>
16

>  <SCORE.norm>
-0.575477

>  <RMSD>
40.489

$$$$
ligand
 OpenBabel11021811463D
libRbt.so/2013.1/901 2013/11/27
 16 16  0  0  0  0  0  0  0  0999 V2000
   12.8737   -2.4900   -3.6759 P   0  0  2  0  0  0  0  0  0  0  0  0
   13.0951   -3.0886   -5.0152 O   0  0  0  0  0  0  0  0  0  0  0  0
   14.1864   -2.6661   -2.7611 O   0  5  0  0  0  0  0  0  0  0  0  0
   11.6365   -3.2462   -2.9536 O   0  0  0  0  0  0  0  0  0  0  0  0
    9.1003   -0.8203   -1.4491 C   0  0  2  0  0  0  0  0  0  0  0  0
    7.8202   -0.6517   -2.0756 O   0  0  0  0  0  0  0  0  0  0  0  0
    9.5739    0.4884   -0.7558 C   0  0  2  0  0  0  0  0  0  0  0  0
    8.5740    0.9127    0.2488 N   0  0  0  0  0  0  0  0  0  0  0  0
    9.7423    1.5822   -1.8315 C   0  0  1  0  0  0  0  0  0  0  0  0
   10.1996    2.8057   -1.2288 O   0  0  0  0  0  0  0  0  0  0  0  0
   10.7783    1.0904   -2.8529 C   0  0  2  0  0  0  0  0  0  0  0  0
   10.9474    2.0801   -3.8775 O   0  0  0  0  0  0  0  0  0  0  0  0
   10.2582   -0.2304   -3.4795 C   0  0  2  0  0  0  0  0  0  0  0  0
   10.0743   -1.2408   -2.4463 O   0  0  0  0  0  0  0  0  0  0  0  0
   11.2839   -0.7541   -4.4998 C   0  0  0  0  0  0  0  0  0  0  0  0
   12.5639   -0.9153   -3.8617 O   0  0  0  0  0  0  0  0  0  0  0  0
  1  2  1  6  0  0  0
  1  3  1  0  0  0  0
  1  4  2  0  0  0  0
  1 16  1  0  0  0  0
  5  6  1  6  0  0  0
  5  7  1  0  0  0  0
  5 14  1  0  0  0  0
  7  8  1  1  0  0  0
  7  9  1  0  0  0  0
  9 10  1  1  0  0  0
  9 11  1  0  0  0  0
 11 12  1  6  0  0  0
 11 13  1  0  0  0  0
 13 14  1  0  0  0  0
 13 15  1  6  0  0  0
 15 16  1  0  0  0  0
M  CHG  1   3  -1
M  END
>  <CHROM.1>
56.14386293,107.82197145,68.52996181,10.98491292,-0.62756152,-2.76077554
0.64379383,-0.65576965,3.04140302

>  <Name>
ligand

>  <RI>
0

>  <Rbt.Current_Directory>
/home/itssahil/PROJECTS/Mol_Feturizer/New_Systems/rnas/3B4B

>  <Rbt.Executable>
rbdock ($Id: //depot/dev/client3/rdock/2013.1/src/exe/rbdock.cxx#4 $)

>  <Rbt.Library>
libRbt.so (2013.1, Build901 2013/11/27)

>  <Rbt.Parameter_File>
/export/apps/rDock/src/rDock_2013.1_src/data/scripts/dock_solv.prm

>  <Rbt.Receptor>
prm/blind_docking_20.prm

>  <SCORE>
-6.22544

>  <SCORE.INTER>
-8.87289

>  <SCORE.INTER.CONST>
1

>  <SCORE.INTER.POLAR>
0

>  <SCORE.INTER.ROT>
3

>  <SCORE.INTER.SOLV>
14.9389

>  <SCORE.INTER.VDW>
-16.4949

>  <SCORE.INTER.norm>
-0.554556

>  <SCORE.INTRA>
2.64745

>  <SCORE.INTRA.DIHEDRAL>
4.44765

>  <SCORE.INTRA.DIHEDRAL.0>
2.21864

>  <SCORE.INTRA.POLAR>
0

>  <SCORE.INTRA.POLAR.0>
0

>  <SCORE.INTRA.REPUL>
0

>  <SCORE.INTRA.REPUL.0>
0

>  <SCORE.INTRA.SOLV>
1.79593

>  <SCORE.INTRA.SOLV.lig_0>
-58.5963

>  <SCORE.INTRA.VDW>
-0.474344

>  <SCORE.INTRA.VDW.0>
-0.437849

>  <SCORE.INTRA.norm>
0.165466

>  <SCORE.RESTR>
0

>  <SCORE.RESTR.CAVITY>
0

>  <SCORE.RESTR.norm>
0

>  <SCORE.SYSTEM>
0

>  <SCORE.SYSTEM.CONST>
0

>  <SCORE.SYSTEM.DIHEDRAL>
0

>  <SCORE.SYSTEM.SOLV>
0

>  <SCORE.SYSTEM.norm>
0

>  <SCORE.heavy>
16

>  <SCORE.norm>
-0.38909

>  <RMSD>
40.558

$$$$
ligand
 OpenBabel11021811463D
libRbt.so/2013.1/901 2013/11/27
 16 16  0  0  0  0  0  0  0  0999 V2000
    9.7540   -1.1123    2.2939 P   0  0  2  0  0  0  0  0  0  0  0  0
    9.7753   -2.4601    2.9136 O   0  0  0  0  0  0  0  0  0  0  0  0
   11.2193   -0.7225    1.7534 O   0  5  0  0  0  0  0  0  0  0  0  0
    9.3080   -0.0226    3.4065 O   0  0  0  0  0  0  0  0  0  0  0  0
   10.3469   -0.9649   -2.7714 C   0  0  2  0  0  0  0  0  0  0  0  0
   11.6599   -1.2561   -2.2704 O   0  0  0  0  0  0  0  0  0  0  0  0
   10.3220    0.3711   -3.5664 C   0  0  2  0  0  0  0  0  0  0  0  0
   11.2850    0.3043   -4.6877 N   0  0  0  0  0  0  0  0  0  0  0  0
   10.7012    1.5207   -2.6092 C   0  0  1  0  0  0  0  0  0  0  0  0
   10.6699    2.7786   -3.3063 O   0  0  0  0  0  0  0  0  0  0  0  0
    9.6817    1.5405   -1.4609 C   0  0  2  0  0  0  0  0  0  0  0  0
   10.0152    2.5909   -0.5426 O   0  0  0  0  0  0  0  0  0  0  0  0
    9.7370    0.1706   -0.7343 C   0  0  2  0  0  0  0  0  0  0  0  0
    9.4083   -0.9051   -1.6599 O   0  0  0  0  0  0  0  0  0  0  0  0
    8.7148    0.1570    0.4156 C   0  0  0  0  0  0  0  0  0  0  0  0
    8.7193   -1.1333    1.0533 O   0  0  0  0  0  0  0  0  0  0  0  0
  1  2  1  1  0  0  0
  1  3  1  0  0  0  0
  1  4  2  0  0  0  0
  1 16  1  0  0  0  0
  5  6  1  1  0  0  0
  5  7  1  0  0  0  0
  5 14  1  0  0  0  0
  7  8  1  6  0  0  0
  7  9  1  0  0  0  0
  9 10  1  6  0  0  0
  9 11  1  0  0  0  0
 11 12  1  1  0  0  0
 11 13  1  0  0  0  0
 13 14  1  0  0  0  0
 13 15  1  1  0  0  0
 15 16  1  0  0  0  0
M  CHG  1   3  -1
M  END
>  <CHROM.1>
177.37032389,92.37550243,-178.35449787,10.05960416,-0.04650902,-0.44536430
-2.23817902,1.29795858,-0.57620051

>  <Name>
ligand

>  <RI>
0

>  <Rbt.Current_Directory>
/home/itssahil/PROJECTS/Mol_Feturizer/New_Systems/rnas/3B4B

>  <Rbt.Executable>
rbdock ($Id: //depot/dev/client3/rdock/2013.1/src/exe/rbdock.cxx#4 $)

>  <Rbt.Library>
libRbt.so (2013.1, Build901 2013/11/27)

>  <Rbt.Parameter_File>
/export/apps/rDock/src/rDock_2013.1_src/data/scripts/dock_solv.prm

>  <Rbt.Receptor>
prm/blind_docking_20.prm

>  <SCORE>
-8.22531

>  <SCORE.INTER>
-9.36319

>  <SCORE.INTER.CONST>
1

>  <SCORE.INTER.POLAR>
0

>  <SCORE.INTER.ROT>
3

>  <SCORE.INTER.SOLV>
20.0212

>  <SCORE.INTER.VDW>
-18.5159

>  <SCORE.INTER.norm>
-0.585199

>  <SCORE.INTRA>
1.13788

>  <SCORE.INTRA.DIHEDRAL>
1.85804

>  <SCORE.INTRA.DIHEDRAL.0>
2.21864

>  <SCORE.INTRA.POLAR>
0

>  <SCORE.INTRA.POLAR.0>
0

>  <SCORE.INTRA.REPUL>
0

>  <SCORE.INTRA.REPUL.0>
0

>  <SCORE.INTRA.SOLV>
1.58773

>  <SCORE.INTRA.SOLV.lig_0>
-58.5963

>  <SCORE.INTRA.VDW>
-0.585003

>  <SCORE.INTRA.VDW.0>
-0.437849

>  <SCORE.INTRA.norm>
0.0711176

>  <SCORE.RESTR>
0

>  <SCORE.RESTR.CAVITY>
0

>  <SCORE.RESTR.norm>
0

>  <SCORE.SYSTEM>
0

>  <SCORE.SYSTEM.CONST>
0

>  <SCORE.SYSTEM.DIHEDRAL>
0

>  <SCORE.SYSTEM.SOLV>
0

>  <SCORE.SYSTEM.norm>
0

>  <SCORE.heavy>
16

>  <SCORE.norm>
-0.514082

>  <RMSD>
40.561

$$$$
ligand
 OpenBabel11021811463D
libRbt.so/2013.1/901 2013/11/27
 16 16  0  0  0  0  0  0  0  0999 V2000
    9.7823   -0.7788    2.0984 P   0  0  2  0  0  0  0  0  0  0  0  0
    9.8780   -0.2274    3.4724 O   0  0  0  0  0  0  0  0  0  0  0  0
    9.2856   -2.3093    2.1438 O   0  5  0  0  0  0  0  0  0  0  0  0
   11.2450   -0.7319    1.4038 O   0  0  0  0  0  0  0  0  0  0  0  0
   10.5957   -0.6647   -3.1171 C   0  0  2  0  0  0  0  0  0  0  0  0
   11.8826   -0.8642   -2.5141 O   0  0  0  0  0  0  0  0  0  0  0  0
   10.4231    0.7944   -3.6259 C   0  0  2  0  0  0  0  0  0  0  0  0
   11.4902    1.1144   -4.5996 N   0  0  0  0  0  0  0  0  0  0  0  0
   10.5042    1.7502   -2.4168 C   0  0  1  0  0  0  0  0  0  0  0  0
   10.3289    3.1116   -2.8469 O   0  0  0  0  0  0  0  0  0  0  0  0
    9.3871    1.3706   -1.4338 C   0  0  2  0  0  0  0  0  0  0  0  0
    9.4442    2.2325   -0.2884 O   0  0  0  0  0  0  0  0  0  0  0  0
    9.6020   -0.1018   -0.9942 C   0  0  2  0  0  0  0  0  0  0  0  0
    9.5547   -0.9858   -2.1511 O   0  0  0  0  0  0  0  0  0  0  0  0
    8.4878   -0.5143   -0.0166 C   0  0  0  0  0  0  0  0  0  0  0  0
    8.7143    0.1011    1.2646 O   0  0  0  0  0  0  0  0  0  0  0  0
  1  2  1  1  0  0  0
  1  3  1  0  0  0  0
  1  4  2  0  0  0  0
  1 16  1  0  0  0  0
  5  6  1  1  0  0  0
  5  7  1  0  0  0  0
  5 14  1  0  0  0  0
  7  8  1  6  0  0  0
  7  9  1  0  0  0  0
  9 10  1  6  0  0  0
  9 11  1  0  0  0  0
 11 12  1  1  0  0  0
 11 13  1  0  0  0  0
 13 14  1  0  0  0  0
 13 15  1  1  0  0  0
 15 16  1  0  0  0  0
M  CHG  1   3  -1
M  END
>  <CHROM.1>
-74.02105490,-82.48181434,-173.12474035,10.01951131,0.12094641,-0.56636740
-2.10956680,1.21759945,-0.72121731

>  <Name>
ligand

>  <RI>
0

>  <Rbt.Current_Directory>
/home/itssahil/PROJECTS/Mol_Feturizer/New_Systems/rnas/3B4B

>  <Rbt.Executable>
rbdock ($Id: //depot/dev/client3/rdock/2013.1/src/exe/rbdock.cxx#4 $)

>  <Rbt.Library>
libRbt.so (2013.1, Build901 2013/11/27)

>  <Rbt.Parameter_File>
/export/apps/rDock/src/rDock_2013.1_src/data/scripts/dock_solv.prm

>  <Rbt.Receptor>
prm/blind_docking_20.prm

>  <SCORE>
-7.48596

>  <SCORE.INTER>
-8.70946

>  <SCORE.INTER.CONST>
1

>  <SCORE.INTER.POLAR>
0

>  <SCORE.INTER.ROT>
3

>  <SCORE.INTER.SOLV>
18.8978

>  <SCORE.INTER.VDW>
-17.7056

>  <SCORE.INTER.norm>
-0.544341

>  <SCORE.INTRA>
1.2235

>  <SCORE.INTRA.DIHEDRAL>
0.757986

>  <SCORE.INTRA.DIHEDRAL.0>
2.21864

>  <SCORE.INTRA.POLAR>
0

>  <SCORE.INTRA.POLAR.0>
0

>  <SCORE.INTRA.REPUL>
0

>  <SCORE.INTRA.REPUL.0>
0

>  <SCORE.INTRA.SOLV>
2.68631

>  <SCORE.INTRA.SOLV.lig_0>
-58.5963

>  <SCORE.INTRA.VDW>
-0.498641

>  <SCORE.INTRA.VDW.0>
-0.437849

>  <SCORE.INTRA.norm>
0.076469

>  <SCORE.RESTR>
0

>  <SCORE.RESTR.CAVITY>
0

>  <SCORE.RESTR.norm>
0

>  <SCORE.SYSTEM>
0

>  <SCORE.SYSTEM.CONST>
0

>  <SCORE.SYSTEM.DIHEDRAL>
0

>  <SCORE.SYSTEM.SOLV>
0

>  <SCORE.SYSTEM.norm>
0

>  <SCORE.heavy>
16

>  <SCORE.norm>
-0.467872

>  <RMSD>
40.588

$$$$
ligand
 OpenBabel11021811463D
libRbt.so/2013.1/901 2013/11/27
 16 16  0  0  0  0  0  0  0  0999 V2000
   12.5645   -8.3745    2.1137 P   0  0  2  0  0  0  0  0  0  0  0  0
   13.7664   -8.6020    1.2742 O   0  0  0  0  0  0  0  0  0  0  0  0
   12.9963   -7.9244    3.5976 O   0  5  0  0  0  0  0  0  0  0  0  0
   11.7203   -9.7531    2.2182 O   0  0  0  0  0  0  0  0  0  0  0  0
   11.5649   -2.4408    0.6246 C   0  0  2  0  0  0  0  0  0  0  0  0
   10.3929   -2.3378    1.4465 O   0  0  0  0  0  0  0  0  0  0  0  0
   11.1981   -2.5494   -0.8824 C   0  0  2  0  0  0  0  0  0  0  0  0
   10.4000   -1.3719   -1.2894 N   0  0  0  0  0  0  0  0  0  0  0  0
   10.3842   -3.8427   -1.0991 C   0  0  1  0  0  0  0  0  0  0  0  0
   10.0424   -3.9879   -2.4888 O   0  0  0  0  0  0  0  0  0  0  0  0
   11.2492   -5.0304   -0.6526 C   0  0  2  0  0  0  0  0  0  0  0  0
   10.5144   -6.2500   -0.8270 O   0  0  0  0  0  0  0  0  0  0  0  0
   11.6039   -4.8409    0.8460 C   0  0  2  0  0  0  0  0  0  0  0  0
   12.3432   -3.6003    1.0365 O   0  0  0  0  0  0  0  0  0  0  0  0
   12.4826   -6.0123    1.3184 C   0  0  0  0  0  0  0  0  0  0  0  0
   11.6812   -7.2017    1.4396 O   0  0  0  0  0  0  0  0  0  0  0  0
  1  2  1  6  0  0  0
  1  3  1  0  0  0  0
  1  4  2  0  0  0  0
  1 16  1  0  0  0  0
  5  6  1  1  0  0  0
  5  7  1  0  0  0  0
  5 14  1  0  0  0  0
  7  8  1  1  0  0  0
  7  9  1  0  0  0  0
  9 10  1  6  0  0  0
  9 11  1  0  0  0  0
 11 12  1  1  0  0  0
 11 13  1  0  0  0  0
 13 14  1  0  0  0  0
 13 15  1  6  0  0  0
 15 16  1  0  0  0  0
M  CHG  1   3  -1
M  END
>  <CHROM.1>
-72.99833319,-172.81587238,-57.77310656,11.63938650,-5.55712682,0.68981975
-0.86946771,-1.11604218,0.18580086

>  <Name>
ligand

>  <RI>
0

>  <Rbt.Current_Directory>
/home/itssahil/PROJECTS/Mol_Feturizer/New_Systems/rnas/3B4B

>  <Rbt.Executable>
rbdock ($Id: //depot/dev/client3/rdock/2013.1/src/exe/rbdock.cxx#4 $)

>  <Rbt.Library>
libRbt.so (2013.1, Build901 2013/11/27)

>  <Rbt.Parameter_File>
/export/apps/rDock/src/rDock_2013.1_src/data/scripts/dock_solv.prm

>  <Rbt.Receptor>
prm/blind_docking_20.prm

>  <SCORE>
-5.7902

>  <SCORE.INTER>
-4.63508

>  <SCORE.INTER.CONST>
1

>  <SCORE.INTER.POLAR>
0

>  <SCORE.INTER.ROT>
3

>  <SCORE.INTER.SOLV>
13.0766

>  <SCORE.INTER.VDW>
-13.0489

>  <SCORE.INTER.norm>
-0.289693

>  <SCORE.INTRA>
-1.15511

>  <SCORE.INTRA.DIHEDRAL>
-1.37128

>  <SCORE.INTRA.DIHEDRAL.0>
2.21864

>  <SCORE.INTRA.POLAR>
0

>  <SCORE.INTRA.POLAR.0>
0

>  <SCORE.INTRA.REPUL>
0

>  <SCORE.INTRA.REPUL.0>
0

>  <SCORE.INTRA.SOLV>
-0.814738

>  <SCORE.INTRA.SOLV.lig_0>
-58.5963

>  <SCORE.INTRA.VDW>
-0.0621058

>  <SCORE.INTRA.VDW.0>
-0.437849

>  <SCORE.INTRA.norm>
-0.0721946

>  <SCORE.RESTR>
0

>  <SCORE.RESTR.CAVITY>
0

>  <SCORE.RESTR.norm>
0

>  <SCORE.SYSTEM>
0

>  <SCORE.SYSTEM.CONST>
0

>  <SCORE.SYSTEM.DIHEDRAL>
0

>  <SCORE.SYSTEM.SOLV>
0

>  <SCORE.SYSTEM.norm>
0

>  <SCORE.heavy>
16

>  <SCORE.norm>
-0.361887

>  <RMSD>
40.629

$$$$
ligand
 OpenBabel11021811463D
libRbt.so/2013.1/901 2013/11/27
 16 16  0  0  0  0  0  0  0  0999 V2000
   13.1766   -4.2710    1.9022 P   0  0  2  0  0  0  0  0  0  0  0  0
   12.3890   -4.3146    3.1587 O   0  0  0  0  0  0  0  0  0  0  0  0
   13.1201   -5.6968    1.1574 O   0  5  0  0  0  0  0  0  0  0  0  0
   14.7215   -3.9341    2.2546 O   0  0  0  0  0  0  0  0  0  0  0  0
   10.7707   -1.6208   -2.5683 C   0  0  2  0  0  0  0  0  0  0  0  0
   11.0242   -0.2841   -2.1116 O   0  0  0  0  0  0  0  0  0  0  0  0
    9.2561   -1.8586   -2.8271 C   0  0  2  0  0  0  0  0  0  0  0  0
    8.7594   -0.8838   -3.8232 N   0  0  0  0  0  0  0  0  0  0  0  0
    8.4964   -1.6891   -1.4945 C   0  0  1  0  0  0  0  0  0  0  0  0
    7.0905   -1.9214   -1.6908 O   0  0  0  0  0  0  0  0  0  0  0  0
    9.0547   -2.7121   -0.4944 C   0  0  2  0  0  0  0  0  0  0  0  0
    8.3786   -2.5705    0.7629 O   0  0  0  0  0  0  0  0  0  0  0  0
   10.5706   -2.4378   -0.3092 C   0  0  2  0  0  0  0  0  0  0  0  0
   11.2665   -2.5702   -1.5821 O   0  0  0  0  0  0  0  0  0  0  0  0
   11.1605   -3.4579    0.6801 C   0  0  0  0  0  0  0  0  0  0  0  0
   12.5413   -3.1425    0.9363 O   0  0  0  0  0  0  0  0  0  0  0  0
  1  2  1  1  0  0  0
  1  3  1  0  0  0  0
  1  4  2  0  0  0  0
  1 16  1  0  0  0  0
  5  6  1  1  0  0  0
  5  7  1  0  0  0  0
  5 14  1  0  0  0  0
  7  8  1  6  0  0  0
  7  9  1  0  0  0  0
  9 10  1  6  0  0  0
  9 11  1  0  0  0  0
 11 12  1  1  0  0  0
 11 13  1  0  0  0  0
 13 14  1  0  0  0  0
 13 15  1  1  0  0  0
 15 16  1  0  0  0  0
M  CHG  1   3  -1
M  END
>  <CHROM.1>
-175.47313455,-176.48235960,-58.30226718,10.95872518,-2.84984386,-0.15505670
-0.85777964,0.05289888,-1.02538770

>  <Name>
ligand

>  <RI>
0

>  <Rbt.Current_Directory>
/home/itssahil/PROJECTS/Mol_Feturizer/New_Systems/rnas/3B4B

>  <Rbt.Executable>
rbdock ($Id: //depot/dev/client3/rdock/2013.1/src/exe/rbdock.cxx#4 $)

>  <Rbt.Library>
libRbt.so (2013.1, Build901 2013/11/27)

>  <Rbt.Parameter_File>
/export/apps/rDock/src/rDock_2013.1_src/data/scripts/dock_solv.prm

>  <Rbt.Receptor>
prm/blind_docking_20.prm

>  <SCORE>
-4.70023

>  <SCORE.INTER>
-3.02417

>  <SCORE.INTER.CONST>
1

>  <SCORE.INTER.POLAR>
0

>  <SCORE.INTER.ROT>
3

>  <SCORE.INTER.SOLV>
12.538

>  <SCORE.INTER.VDW>
-11.7955

>  <SCORE.INTER.norm>
-0.189011

>  <SCORE.INTRA>
-1.67606

>  <SCORE.INTRA.DIHEDRAL>
-2.07754

>  <SCORE.INTRA.DIHEDRAL.0>
2.21864

>  <SCORE.INTRA.POLAR>
0

>  <SCORE.INTRA.POLAR.0>
0

>  <SCORE.INTRA.REPUL>
0

>  <SCORE.INTRA.REPUL.0>
0

>  <SCORE.INTRA.SOLV>
-1.15207

>  <SCORE.INTRA.SOLV.lig_0>
-58.5963

>  <SCORE.INTRA.VDW>
-0.0612514

>  <SCORE.INTRA.VDW.0>
-0.437849

>  <SCORE.INTRA.norm>
-0.104754

>  <SCORE.RESTR>
0

>  <SCORE.RESTR.CAVITY>
0

>  <SCORE.RESTR.norm>
0

>  <SCORE.SYSTEM>
0

>  <SCORE.SYSTEM.CONST>
0

>  <SCORE.SYSTEM.DIHEDRAL>
0

>  <SCORE.SYSTEM.SOLV>
0

>  <SCORE.SYSTEM.norm>
0

>  <SCORE.heavy>
16

>  <SCORE.norm>
-0.293764

>  <RMSD>
40.635

$$$$
ligand
 OpenBabel11021811463D
libRbt.so/2013.1/901 2013/11/27
 16 16  0  0  0  0  0  0  0  0999 V2000
   12.4526   -8.1507    2.1252 P   0  0  2  0  0  0  0  0  0  0  0  0
   12.7525   -7.6546    3.4908 O   0  0  0  0  0  0  0  0  0  0  0  0
   11.5785   -9.5003    2.2003 O   0  5  0  0  0  0  0  0  0  0  0  0
   13.8430   -8.4787    1.3615 O   0  0  0  0  0  0  0  0  0  0  0  0
   11.5293   -2.2790    0.3770 C   0  0  2  0  0  0  0  0  0  0  0  0
   10.3608   -2.1287    1.1964 O   0  0  0  0  0  0  0  0  0  0  0  0
   11.1572   -2.4483   -1.1232 C   0  0  2  0  0  0  0  0  0  0  0  0
   10.3701   -1.2811   -1.5785 N   0  0  0  0  0  0  0  0  0  0  0  0
   10.3294   -3.7411   -1.2822 C   0  0  1  0  0  0  0  0  0  0  0  0
    9.9822   -3.9422   -2.6636 O   0  0  0  0  0  0  0  0  0  0  0  0
   11.1833   -4.9176   -0.7872 C   0  0  2  0  0  0  0  0  0  0  0  0
   10.4354   -6.1358   -0.9075 O   0  0  0  0  0  0  0  0  0  0  0  0
   11.5441   -4.6677    0.7010 C   0  0  2  0  0  0  0  0  0  0  0  0
   12.2968   -3.4278    0.8364 O   0  0  0  0  0  0  0  0  0  0  0  0
   12.4120   -5.8269    1.2212 C   0  0  0  0  0  0  0  0  0  0  0  0
   11.6113   -7.0170    1.3397 O   0  0  0  0  0  0  0  0  0  0  0  0
  1  2  1  1  0  0  0
  1  3  1  0  0  0  0
  1  4  2  0  0  0  0
  1 16  1  0  0  0  0
  5  6  1  1  0  0  0
  5  7  1  0  0  0  0
  5 14  1  0  0  0  0
  7  8  1  1  0  0  0
  7  9  1  0  0  0  0
  9 10  1  6  0  0  0
  9 11  1  0  0  0  0
 11 12  1  1  0  0  0
 11 13  1  0  0  0  0
 13 14  1  0  0  0  0
 13 15  1  6  0  0  0
 15 16  1  0  0  0  0
M  CHG  1   3  -1
M  END
>  <CHROM.1>
-70.50943699,-170.10475523,62.12462326,11.56890863,-5.39359357,0.56715563
-0.89927278,-1.11160191,0.12094488

>  <Name>
ligand

>  <RI>
0

>  <Rbt.Current_Directory>
/home/itssahil/PROJECTS/Mol_Feturizer/New_Systems/rnas/3B4B

>  <Rbt.Executable>
rbdock ($Id: //depot/dev/client3/rdock/2013.1/src/exe/rbdock.cxx#4 $)

>  <Rbt.Library>
libRbt.so (2013.1, Build901 2013/11/27)

>  <Rbt.Parameter_File>
/export/apps/rDock/src/rDock_2013.1_src/data/scripts/dock_solv.prm

>  <Rbt.Receptor>
prm/blind_docking_80.prm

>  <SCORE>
-5.50942

>  <SCORE.INTER>
-4.3382

>  <SCORE.INTER.CONST>
1

>  <SCORE.INTER.POLAR>
0

>  <SCORE.INTER.ROT>
3

>  <SCORE.INTER.SOLV>
14.0775

>  <SCORE.INTER.VDW>
-13.1846

>  <SCORE.INTER.norm>
-0.271138

>  <SCORE.INTRA>
-1.17122

>  <SCORE.INTRA.DIHEDRAL>
-1.34941

>  <SCORE.INTRA.DIHEDRAL.0>
2.21864

>  <SCORE.INTRA.POLAR>
0

>  <SCORE.INTRA.POLAR.0>
0

>  <SCORE.INTRA.REPUL>
0

>  <SCORE.INTRA.REPUL.0>
0

>  <SCORE.INTRA.SOLV>
-0.854619

>  <SCORE.INTRA.SOLV.lig_0>
-58.5963

>  <SCORE.INTRA.VDW>
-0.0692072

>  <SCORE.INTRA.VDW.0>
-0.437849

>  <SCORE.INTRA.norm>
-0.0732012

>  <SCORE.RESTR>
0

>  <SCORE.RESTR.CAVITY>
0

>  <SCORE.RESTR.norm>
0

>  <SCORE.SYSTEM>
0

>  <SCORE.SYSTEM.CONST>
0

>  <SCORE.SYSTEM.DIHEDRAL>
0

>  <SCORE.SYSTEM.SOLV>
0

>  <SCORE.SYSTEM.norm>
0

>  <SCORE.heavy>
16

>  <SCORE.norm>
-0.344339

>  <RMSD>
40.666

$$$$
ligand
 OpenBabel11021811463D
libRbt.so/2013.1/901 2013/11/27
 16 16  0  0  0  0  0  0  0  0999 V2000
   14.3158   -5.7300   -4.2569 P   0  0  2  0  0  0  0  0  0  0  0  0
   13.7803   -6.9085   -4.9818 O   0  0  0  0  0  0  0  0  0  0  0  0
   15.5779   -5.1154   -5.0444 O   0  5  0  0  0  0  0  0  0  0  0  0
   14.8024   -6.1894   -2.7816 O   0  0  0  0  0  0  0  0  0  0  0  0
   10.9862   -1.0152   -4.4303 C   0  0  2  0  0  0  0  0  0  0  0  0
   11.4796    0.1491   -3.7516 O   0  0  0  0  0  0  0  0  0  0  0  0
    9.7681   -1.6353   -3.6890 C   0  0  2  0  0  0  0  0  0  0  0  0
    8.6904   -0.6287   -3.5682 N   0  0  0  0  0  0  0  0  0  0  0  0
   10.2255   -2.0936   -2.2881 C   0  0  1  0  0  0  0  0  0  0  0  0
    9.1270   -2.6920   -1.5778 O   0  0  0  0  0  0  0  0  0  0  0  0
   11.3485   -3.1256   -2.4676 C   0  0  2  0  0  0  0  0  0  0  0  0
   11.8079   -3.5618   -1.1805 O   0  0  0  0  0  0  0  0  0  0  0  0
   12.5132   -2.4514   -3.2399 C   0  0  2  0  0  0  0  0  0  0  0  0
   12.0557   -1.9963   -4.5460 O   0  0  0  0  0  0  0  0  0  0  0  0
   13.6498   -3.4677   -3.4458 C   0  0  0  0  0  0  0  0  0  0  0  0
   13.1532   -4.6121   -4.1636 O   0  0  0  0  0  0  0  0  0  0  0  0
  1  2  1  6  0  0  0
  1  3  1  0  0  0  0
  1  4  2  0  0  0  0
  1 16  1  0  0  0  0
  5  6  1  1  0  0  0
  5  7  1  0  0  0  0
  5 14  1  0  0  0  0
  7  8  1  1  0  0  0
  7  9  1  0  0  0  0
  9 10  1  6  0  0  0
  9 11  1  0  0  0  0
 11 12  1  1  0  0  0
 11 13  1  0  0  0  0
 13 14  1  0  0  0  0
 13 15  1  6  0  0  0
 15 16  1  0  0  0  0
M  CHG  1   3  -1
M  END
>  <CHROM.1>
58.10765167,-174.87866724,179.18898817,12.29312628,-3.42764688,-3.52396741
-0.46870651,0.68314102,-0.64768747

>  <Name>
ligand

>  <RI>
0

>  <Rbt.Current_Directory>
/home/itssahil/PROJECTS/Mol_Feturizer/New_Systems/rnas/3B4B

>  <Rbt.Executable>
rbdock ($Id: //depot/dev/client3/rdock/2013.1/src/exe/rbdock.cxx#4 $)

>  <Rbt.Library>
libRbt.so (2013.1, Build901 2013/11/27)

>  <Rbt.Parameter_File>
/export/apps/rDock/src/rDock_2013.1_src/data/scripts/dock_solv.prm

>  <Rbt.Receptor>
prm/blind_docking_20.prm

>  <SCORE>
-8.50614

>  <SCORE.INTER>
-7.05328

>  <SCORE.INTER.CONST>
1

>  <SCORE.INTER.POLAR>
0

>  <SCORE.INTER.ROT>
3

>  <SCORE.INTER.SOLV>
15.8315

>  <SCORE.INTER.VDW>
-15.5794

>  <SCORE.INTER.norm>
-0.44083

>  <SCORE.INTRA>
-1.45286

>  <SCORE.INTRA.DIHEDRAL>
-2.07593

>  <SCORE.INTRA.DIHEDRAL.0>
2.21864

>  <SCORE.INTRA.POLAR>
0

>  <SCORE.INTRA.POLAR.0>
0

>  <SCORE.INTRA.REPUL>
0

>  <SCORE.INTRA.REPUL.0>
0

>  <SCORE.INTRA.SOLV>
-0.158491

>  <SCORE.INTRA.SOLV.lig_0>
-58.5963

>  <SCORE.INTRA.VDW>
-0.335653

>  <SCORE.INTRA.VDW.0>
-0.437849

>  <SCORE.INTRA.norm>
-0.090804

>  <SCORE.RESTR>
0

>  <SCORE.RESTR.CAVITY>
0

>  <SCORE.RESTR.norm>
0

>  <SCORE.SYSTEM>
0

>  <SCORE.SYSTEM.CONST>
0

>  <SCORE.SYSTEM.DIHEDRAL>
0

>  <SCORE.SYSTEM.SOLV>
0

>  <SCORE.SYSTEM.norm>
0

>  <SCORE.heavy>
16

>  <SCORE.norm>
-0.531634

>  <RMSD>
40.711

$$$$
ligand
 OpenBabel11021811463D
libRbt.so/2013.1/901 2013/11/27
 16 16  0  0  0  0  0  0  0  0999 V2000
    9.6388   -0.6927    2.0086 P   0  0  2  0  0  0  0  0  0  0  0  0
   10.9952   -0.5006    1.4391 O   0  0  0  0  0  0  0  0  0  0  0  0
    9.5966   -0.1848    3.5355 O   0  5  0  0  0  0  0  0  0  0  0  0
    9.2682   -2.2694    1.9792 O   0  0  0  0  0  0  0  0  0  0  0  0
   10.2599   -1.1493   -3.2100 C   0  0  2  0  0  0  0  0  0  0  0  0
   11.5089   -1.5443   -2.6237 O   0  0  0  0  0  0  0  0  0  0  0  0
   10.3238    0.3007   -3.7676 C   0  0  2  0  0  0  0  0  0  0  0  0
   11.4058    0.4038   -4.7715 N   0  0  0  0  0  0  0  0  0  0  0  0
   10.5939    1.2675   -2.5953 C   0  0  1  0  0  0  0  0  0  0  0  0
   10.6404    2.6244   -3.0707 O   0  0  0  0  0  0  0  0  0  0  0  0
    9.4527    1.1146   -1.5791 C   0  0  2  0  0  0  0  0  0  0  0  0
    9.6818    1.9909   -0.4666 O   0  0  0  0  0  0  0  0  0  0  0  0
    9.4267   -0.3579   -1.0909 C   0  0  2  0  0  0  0  0  0  0  0  0
    9.2032   -1.2580   -2.2142 O   0  0  0  0  0  0  0  0  0  0  0  0
    8.2827   -0.5439   -0.0790 C   0  0  0  0  0  0  0  0  0  0  0  0
    8.5876    0.1679    1.1342 O   0  0  0  0  0  0  0  0  0  0  0  0
  1  2  1  6  0  0  0
  1  3  1  0  0  0  0
  1  4  2  0  0  0  0
  1 16  1  0  0  0  0
  5  6  1  1  0  0  0
  5  7  1  0  0  0  0
  5 14  1  0  0  0  0
  7  8  1  6  0  0  0
  7  9  1  0  0  0  0
  9 10  1  6  0  0  0
  9 11  1  0  0  0  0
 11 12  1  1  0  0  0
 11 13  1  0  0  0  0
 13 14  1  0  0  0  0
 13 15  1  1  0  0  0
 15 16  1  0  0  0  0
M  CHG  1   3  -1
M  END
>  <CHROM.1>
-68.84098711,-78.65281062,78.98368533,9.90824280,-0.09403576,-0.67318410
-2.73768301,1.35380777,-0.20153493

>  <Name>
ligand

>  <RI>
0

>  <Rbt.Current_Directory>
/home/itssahil/PROJECTS/Mol_Feturizer/New_Systems/rnas/3B4B

>  <Rbt.Executable>
rbdock ($Id: //depot/dev/client3/rdock/2013.1/src/exe/rbdock.cxx#4 $)

>  <Rbt.Library>
libRbt.so (2013.1, Build901 2013/11/27)

>  <Rbt.Parameter_File>
/export/apps/rDock/src/rDock_2013.1_src/data/scripts/dock_solv.prm

>  <Rbt.Receptor>
prm/blind_docking_60.prm

>  <SCORE>
-6.9021

>  <SCORE.INTER>
-7.03635

>  <SCORE.INTER.CONST>
1

>  <SCORE.INTER.POLAR>
0

>  <SCORE.INTER.ROT>
3

>  <SCORE.INTER.SOLV>
19.7053

>  <SCORE.INTER.VDW>
-16.8593

>  <SCORE.INTER.norm>
-0.439772

>  <SCORE.INTRA>
0.134252

>  <SCORE.INTRA.DIHEDRAL>
0.193363

>  <SCORE.INTRA.DIHEDRAL.0>
2.21864

>  <SCORE.INTRA.POLAR>
0

>  <SCORE.INTRA.POLAR.0>
0

>  <SCORE.INTRA.REPUL>
0

>  <SCORE.INTRA.REPUL.0>
0

>  <SCORE.INTRA.SOLV>
0.6555

>  <SCORE.INTRA.SOLV.lig_0>
-58.5963

>  <SCORE.INTRA.VDW>
-0.290179

>  <SCORE.INTRA.VDW.0>
-0.437849

>  <SCORE.INTRA.norm>
0.00839077

>  <SCORE.RESTR>
0

>  <SCORE.RESTR.CAVITY>
0

>  <SCORE.RESTR.norm>
0

>  <SCORE.SYSTEM>
0

>  <SCORE.SYSTEM.CONST>
0

>  <SCORE.SYSTEM.DIHEDRAL>
0

>  <SCORE.SYSTEM.SOLV>
0

>  <SCORE.SYSTEM.norm>
0

>  <SCORE.heavy>
16

>  <SCORE.norm>
-0.431381

>  <RMSD>
40.789

$$$$
ligand
 OpenBabel11021811463D
libRbt.so/2013.1/901 2013/11/27
 16 16  0  0  0  0  0  0  0  0999 V2000
   12.4560   -7.3076    2.4246 P   0  0  2  0  0  0  0  0  0  0  0  0
   12.0808   -8.5329    1.6770 O   0  0  0  0  0  0  0  0  0  0  0  0
   14.0278   -7.0066    2.2517 O   0  5  0  0  0  0  0  0  0  0  0  0
   12.1435   -7.5286    3.9987 O   0  0  0  0  0  0  0  0  0  0  0  0
    9.8665   -2.7558    0.0352 C   0  0  2  0  0  0  0  0  0  0  0  0
    8.6324   -3.4569   -0.1769 O   0  0  0  0  0  0  0  0  0  0  0  0
   10.4450   -2.2016   -1.2974 C   0  0  2  0  0  0  0  0  0  0  0  0
    9.4587   -1.3022   -1.9356 N   0  0  0  0  0  0  0  0  0  0  0  0
   10.7599   -3.3906   -2.2296 C   0  0  1  0  0  0  0  0  0  0  0  0
   11.3167   -2.9169   -3.4685 O   0  0  0  0  0  0  0  0  0  0  0  0
   11.7759   -4.2969   -1.5192 C   0  0  2  0  0  0  0  0  0  0  0  0
   12.0792   -5.4229   -2.3548 O   0  0  0  0  0  0  0  0  0  0  0  0
   11.1477   -4.7857   -0.1873 C   0  0  2  0  0  0  0  0  0  0  0  0
   10.8273   -3.6495    0.6662 O   0  0  0  0  0  0  0  0  0  0  0  0
   12.1503   -5.6875    0.5535 C   0  0  0  0  0  0  0  0  0  0  0  0
   11.6097   -6.0651    1.8328 O   0  0  0  0  0  0  0  0  0  0  0  0
  1  2  1  6  0  0  0
  1  3  1  0  0  0  0
  1  4  2  0  0  0  0
  1 16  1  0  0  0  0
  5  6  1  6  0  0  0
  5  7  1  0  0  0  0
  5 14  1  0  0  0  0
  7  8  1  6  0  0  0
  7  9  1  0  0  0  0
  9 10  1  6  0  0  0
  9 11  1  0  0  0  0
 11 12  1  6  0  0  0
 11 13  1  0  0  0  0
 13 14  1  0  0  0  0
 13 15  1  1  0  0  0
 15 16  1  0  0  0  0
M  CHG  1   3  -1
M  END
>  <CHROM.1>
175.89838997,164.69797784,-74.34522981,11.40474307,-5.01606052,0.23360557
1.08052104,-0.80377968,2.02384008

>  <Name>
ligand

>  <RI>
0

>  <Rbt.Current_Directory>
/home/itssahil/PROJECTS/Mol_Feturizer/New_Systems/rnas/3B4B

>  <Rbt.Executable>
rbdock ($Id: //depot/dev/client3/rdock/2013.1/src/exe/rbdock.cxx#4 $)

>  <Rbt.Library>
libRbt.so (2013.1, Build901 2013/11/27)

>  <Rbt.Parameter_File>
/export/apps/rDock/src/rDock_2013.1_src/data/scripts/dock_solv.prm

>  <Rbt.Receptor>
prm/blind_docking_20.prm

>  <SCORE>
-4.92254

>  <SCORE.INTER>
-4.05929

>  <SCORE.INTER.CONST>
1

>  <SCORE.INTER.POLAR>
0

>  <SCORE.INTER.ROT>
3

>  <SCORE.INTER.SOLV>
10.6979

>  <SCORE.INTER.VDW>
-11.8722

>  <SCORE.INTER.norm>
-0.253706

>  <SCORE.INTRA>
-0.863254

>  <SCORE.INTRA.DIHEDRAL>
-0.743965

>  <SCORE.INTRA.DIHEDRAL.0>
2.21864

>  <SCORE.INTRA.POLAR>
0

>  <SCORE.INTRA.POLAR.0>
0

>  <SCORE.INTRA.REPUL>
0

>  <SCORE.INTRA.REPUL.0>
0

>  <SCORE.INTRA.SOLV>
-1.06901

>  <SCORE.INTRA.SOLV.lig_0>
-58.5963

>  <SCORE.INTRA.VDW>
0.0432328

>  <SCORE.INTRA.VDW.0>
-0.437849

>  <SCORE.INTRA.norm>
-0.0539534

>  <SCORE.RESTR>
0

>  <SCORE.RESTR.CAVITY>
0

>  <SCORE.RESTR.norm>
0

>  <SCORE.SYSTEM>
0

>  <SCORE.SYSTEM.CONST>
0

>  <SCORE.SYSTEM.DIHEDRAL>
0

>  <SCORE.SYSTEM.SOLV>
0

>  <SCORE.SYSTEM.norm>
0

>  <SCORE.heavy>
16

>  <SCORE.norm>
-0.307659

>  <RMSD>
40.802

$$$$
ligand
 OpenBabel11021811463D
libRbt.so/2013.1/901 2013/11/27
 16 16  0  0  0  0  0  0  0  0999 V2000
   12.2319   -6.9798    1.8384 P   0  0  2  0  0  0  0  0  0  0  0  0
   11.5017   -8.2702    1.7851 O   0  0  0  0  0  0  0  0  0  0  0  0
   13.7442   -7.1717    1.3216 O   0  5  0  0  0  0  0  0  0  0  0  0
   12.2731   -6.4552    3.3704 O   0  0  0  0  0  0  0  0  0  0  0  0
   10.2366   -3.4552   -2.1587 C   0  0  2  0  0  0  0  0  0  0  0  0
   11.1675   -2.5170   -2.7180 O   0  0  0  0  0  0  0  0  0  0  0  0
    9.1230   -2.7385   -1.3438 C   0  0  2  0  0  0  0  0  0  0  0  0
    8.4081   -1.7768   -2.2116 N   0  0  0  0  0  0  0  0  0  0  0  0
    9.7790   -1.9981   -0.1592 C   0  0  1  0  0  0  0  0  0  0  0  0
    8.7750   -1.3373    0.6312 O   0  0  0  0  0  0  0  0  0  0  0  0
   10.5151   -3.0350    0.7019 C   0  0  2  0  0  0  0  0  0  0  0  0
   11.1504   -2.3757    1.8063 O   0  0  0  0  0  0  0  0  0  0  0  0
   11.5851   -3.7316   -0.1797 C   0  0  2  0  0  0  0  0  0  0  0  0
   10.9518   -4.3976   -1.3100 O   0  0  0  0  0  0  0  0  0  0  0  0
   12.3314   -4.7868    0.6552 C   0  0  0  0  0  0  0  0  0  0  0  0
   11.4747   -5.9210    0.8814 O   0  0  0  0  0  0  0  0  0  0  0  0
  1  2  1  6  0  0  0
  1  3  1  0  0  0  0
  1  4  2  0  0  0  0
  1 16  1  0  0  0  0
  5  6  1  1  0  0  0
  5  7  1  0  0  0  0
  5 14  1  0  0  0  0
  7  8  1  6  0  0  0
  7  9  1  0  0  0  0
  9 10  1  1  0  0  0
  9 11  1  0  0  0  0
 11 12  1  1  0  0  0
 11 13  1  0  0  0  0
 13 14  1  0  0  0  0
 13 15  1  1  0  0  0
 15 16  1  0  0  0  0
M  CHG  1   3  -1
M  END
>  <CHROM.1>
73.05915947,-176.34523413,-165.83400184,11.08002263,-4.43509833,0.34339450
-0.47122370,1.06543218,-1.61376593

>  <Name>
ligand

>  <RI>
0

>  <Rbt.Current_Directory>
/home/itssahil/PROJECTS/Mol_Feturizer/New_Systems/rnas/3B4B

>  <Rbt.Executable>
rbdock ($Id: //depot/dev/client3/rdock/2013.1/src/exe/rbdock.cxx#4 $)

>  <Rbt.Library>
libRbt.so (2013.1, Build901 2013/11/27)

>  <Rbt.Parameter_File>
/export/apps/rDock/src/rDock_2013.1_src/data/scripts/dock_solv.prm

>  <Rbt.Receptor>
prm/blind_docking_20.prm

>  <SCORE>
-5.49777

>  <SCORE.INTER>
-4.57305

>  <SCORE.INTER.CONST>
1

>  <SCORE.INTER.POLAR>
0

>  <SCORE.INTER.ROT>
3

>  <SCORE.INTER.SOLV>
12.2517

>  <SCORE.INTER.VDW>
-12.7326

>  <SCORE.INTER.norm>
-0.285815

>  <SCORE.INTRA>
-0.924721

>  <SCORE.INTRA.DIHEDRAL>
-1.2383

>  <SCORE.INTRA.DIHEDRAL.0>
2.21864

>  <SCORE.INTRA.POLAR>
0

>  <SCORE.INTRA.POLAR.0>
0

>  <SCORE.INTRA.REPUL>
0

>  <SCORE.INTRA.REPUL.0>
0

>  <SCORE.INTRA.SOLV>
-0.270786

>  <SCORE.INTRA.SOLV.lig_0>
-58.5963

>  <SCORE.INTRA.VDW>
-0.170177

>  <SCORE.INTRA.VDW.0>
-0.437849

>  <SCORE.INTRA.norm>
-0.0577951

>  <SCORE.RESTR>
0

>  <SCORE.RESTR.CAVITY>
0

>  <SCORE.RESTR.norm>
0

>  <SCORE.SYSTEM>
0

>  <SCORE.SYSTEM.CONST>
0

>  <SCORE.SYSTEM.DIHEDRAL>
0

>  <SCORE.SYSTEM.SOLV>
0

>  <SCORE.SYSTEM.norm>
0

>  <SCORE.heavy>
16

>  <SCORE.norm>
-0.34361

>  <RMSD>
40.834

$$$$
ligand
 OpenBabel11021811463D
libRbt.so/2013.1/901 2013/11/27
 16 16  0  0  0  0  0  0  0  0999 V2000
   14.2305   -5.5423   -4.3435 P   0  0  2  0  0  0  0  0  0  0  0  0
   13.7492   -6.7790   -5.0068 O   0  0  0  0  0  0  0  0  0  0  0  0
   15.5669   -5.0061   -5.0628 O   0  5  0  0  0  0  0  0  0  0  0  0
   14.5742   -5.8692   -2.7945 O   0  0  0  0  0  0  0  0  0  0  0  0
   10.5698   -0.9662   -4.3686 C   0  0  2  0  0  0  0  0  0  0  0  0
   11.0159    0.1883   -3.6421 O   0  0  0  0  0  0  0  0  0  0  0  0
    9.4999   -1.7647   -3.5714 C   0  0  2  0  0  0  0  0  0  0  0  0
    8.3484   -0.8883   -3.2629 N   0  0  0  0  0  0  0  0  0  0  0  0
   10.1411   -2.2780   -2.2648 C   0  0  1  0  0  0  0  0  0  0  0  0
    9.1843   -3.0400   -1.5077 O   0  0  0  0  0  0  0  0  0  0  0  0
   11.3339   -3.1703   -2.6380 C   0  0  2  0  0  0  0  0  0  0  0  0
   11.9632   -3.6528   -1.4425 O   0  0  0  0  0  0  0  0  0  0  0  0
   12.3424   -2.3214   -3.4563 C   0  0  2  0  0  0  0  0  0  0  0  0
   11.7113   -1.8185   -4.6691 O   0  0  0  0  0  0  0  0  0  0  0  0
   13.5445   -3.1948   -3.8556 C   0  0  0  0  0  0  0  0  0  0  0  0
   13.0780   -4.4159   -4.4580 O   0  0  0  0  0  0  0  0  0  0  0  0
  1  2  1  6  0  0  0
  1  3  1  0  0  0  0
  1  4  2  0  0  0  0
  1 16  1  0  0  0  0
  5  6  1  1  0  0  0
  5  7  1  0  0  0  0
  5 14  1  0  0  0  0
  7  8  1  1  0  0  0
  7  9  1  0  0  0  0
  9 10  1  6  0  0  0
  9 11  1  0  0  0  0
 11 12  1  1  0  0  0
 11 13  1  0  0  0  0
 13 14  1  0  0  0  0
 13 15  1  6  0  0  0
 15 16  1  0  0  0  0
M  CHG  1   3  -1
M  END
>  <CHROM.1>
50.31273268,-157.90395325,-178.22677030,12.14878257,-3.37927173,-3.58524130
0.43770303,-0.64916572,2.51579789

>  <Name>
ligand

>  <RI>
0

>  <Rbt.Current_Directory>
/home/itssahil/PROJECTS/Mol_Feturizer/New_Systems/rnas/3B4B

>  <Rbt.Executable>
rbdock ($Id: //depot/dev/client3/rdock/2013.1/src/exe/rbdock.cxx#4 $)

>  <Rbt.Library>
libRbt.so (2013.1, Build901 2013/11/27)

>  <Rbt.Parameter_File>
/export/apps/rDock/src/rDock_2013.1_src/data/scripts/dock_solv.prm

>  <Rbt.Receptor>
prm/blind_docking_20.prm

>  <SCORE>
-7.41147

>  <SCORE.INTER>
-7.53355

>  <SCORE.INTER.CONST>
1

>  <SCORE.INTER.POLAR>
0

>  <SCORE.INTER.ROT>
3

>  <SCORE.INTER.SOLV>
15.9506

>  <SCORE.INTER.VDW>
-15.9392

>  <SCORE.INTER.norm>
-0.470847

>  <SCORE.INTRA>
0.122071

>  <SCORE.INTRA.DIHEDRAL>
0.270855

>  <SCORE.INTRA.DIHEDRAL.0>
2.21864

>  <SCORE.INTRA.POLAR>
0

>  <SCORE.INTRA.POLAR.0>
0

>  <SCORE.INTRA.REPUL>
0

>  <SCORE.INTRA.REPUL.0>
0

>  <SCORE.INTRA.SOLV>
0.679088

>  <SCORE.INTRA.SOLV.lig_0>
-58.5963

>  <SCORE.INTRA.VDW>
-0.3529

>  <SCORE.INTRA.VDW.0>
-0.437849

>  <SCORE.INTRA.norm>
0.00762944

>  <SCORE.RESTR>
0

>  <SCORE.RESTR.CAVITY>
0

>  <SCORE.RESTR.norm>
0

>  <SCORE.SYSTEM>
0

>  <SCORE.SYSTEM.CONST>
0

>  <SCORE.SYSTEM.DIHEDRAL>
0

>  <SCORE.SYSTEM.SOLV>
0

>  <SCORE.SYSTEM.norm>
0

>  <SCORE.heavy>
16

>  <SCORE.norm>
-0.463217

>  <RMSD>
40.843

$$$$
ligand
 OpenBabel11021811463D
libRbt.so/2013.1/901 2013/11/27
 16 16  0  0  0  0  0  0  0  0999 V2000
    9.3672   -0.6140   -2.8415 P   0  0  2  0  0  0  0  0  0  0  0  0
    9.5999    0.8506   -2.8853 O   0  0  0  0  0  0  0  0  0  0  0  0
    8.4449   -1.0706   -4.0792 O   0  5  0  0  0  0  0  0  0  0  0  0
    8.6037   -0.9901   -1.4632 O   0  0  0  0  0  0  0  0  0  0  0  0
   12.9680   -5.6016   -2.1004 C   0  0  2  0  0  0  0  0  0  0  0  0
   13.7133   -5.0107   -1.0257 O   0  0  0  0  0  0  0  0  0  0  0  0
   13.7818   -5.6057   -3.4253 C   0  0  2  0  0  0  0  0  0  0  0  0
   15.0517   -6.3397   -3.2305 N   0  0  0  0  0  0  0  0  0  0  0  0
   14.0702   -4.1447   -3.8305 C   0  0  1  0  0  0  0  0  0  0  0  0
   14.8068   -4.1077   -5.0656 O   0  0  0  0  0  0  0  0  0  0  0  0
   12.7252   -3.4255   -4.0089 C   0  0  2  0  0  0  0  0  0  0  0  0
   12.9584   -2.0573   -4.3718 O   0  0  0  0  0  0  0  0  0  0  0  0
   11.9551   -3.4878   -2.6634 C   0  0  2  0  0  0  0  0  0  0  0  0
   11.7201   -4.8734   -2.2803 O   0  0  0  0  0  0  0  0  0  0  0  0
   10.5952   -2.7844   -2.8162 C   0  0  0  0  0  0  0  0  0  0  0  0
   10.7947   -1.3643   -2.9387 O   0  0  0  0  0  0  0  0  0  0  0  0
  1  2  1  6  0  0  0
  1  3  1  0  0  0  0
  1  4  2  0  0  0  0
  1 16  1  0  0  0  0
  5  6  1  1  0  0  0
  5  7  1  0  0  0  0
  5 14  1  0  0  0  0
  7  8  1  1  0  0  0
  7  9  1  0  0  0  0
  9 10  1  6  0  0  0
  9 11  1  0  0  0  0
 11 12  1  1  0  0  0
 11 13  1  0  0  0  0
 13 14  1  0  0  0  0
 13 15  1  6  0  0  0
 15 16  1  0  0  0  0
M  CHG  1   3  -1
M  END
>  <CHROM.1>
-70.59732415,-170.29103248,176.54669637,11.71190213,-2.91438683,-3.04319475
2.66271052,0.62182925,-0.76732277

>  <Name>
ligand

>  <RI>
0

>  <Rbt.Current_Directory>
/home/itssahil/PROJECTS/Mol_Feturizer/New_Systems/rnas/3B4B

>  <Rbt.Executable>
rbdock ($Id: //depot/dev/client3/rdock/2013.1/src/exe/rbdock.cxx#4 $)

>  <Rbt.Library>
libRbt.so (2013.1, Build901 2013/11/27)

>  <Rbt.Parameter_File>
/export/apps/rDock/src/rDock_2013.1_src/data/scripts/dock_solv.prm

>  <Rbt.Receptor>
prm/blind_docking_20.prm

>  <SCORE>
-4.77967

>  <SCORE.INTER>
-3.81811

>  <SCORE.INTER.CONST>
1

>  <SCORE.INTER.POLAR>
0

>  <SCORE.INTER.ROT>
3

>  <SCORE.INTER.SOLV>
13.8553

>  <SCORE.INTER.VDW>
-12.7638

>  <SCORE.INTER.norm>
-0.238632

>  <SCORE.INTRA>
-0.961556

>  <SCORE.INTRA.DIHEDRAL>
-1.34974

>  <SCORE.INTRA.DIHEDRAL.0>
2.21864

>  <SCORE.INTRA.POLAR>
0

>  <SCORE.INTRA.POLAR.0>
0

>  <SCORE.INTRA.REPUL>
0

>  <SCORE.INTRA.REPUL.0>
0

>  <SCORE.INTRA.SOLV>
-0.161528

>  <SCORE.INTRA.SOLV.lig_0>
-58.5963

>  <SCORE.INTRA.VDW>
-0.205922

>  <SCORE.INTRA.VDW.0>
-0.437849

>  <SCORE.INTRA.norm>
-0.0600973

>  <SCORE.RESTR>
0

>  <SCORE.RESTR.CAVITY>
0

>  <SCORE.RESTR.norm>
0

>  <SCORE.SYSTEM>
0

>  <SCORE.SYSTEM.CONST>
0

>  <SCORE.SYSTEM.DIHEDRAL>
0

>  <SCORE.SYSTEM.SOLV>
0

>  <SCORE.SYSTEM.norm>
0

>  <SCORE.heavy>
16

>  <SCORE.norm>
-0.298729

>  <RMSD>
40.845

$$$$
ligand
 OpenBabel11021811463D
libRbt.so/2013.1/901 2013/11/27
 16 16  0  0  0  0  0  0  0  0999 V2000
   12.9853   -4.6194    2.3074 P   0  0  2  0  0  0  0  0  0  0  0  0
   12.8471   -4.8021    3.7732 O   0  0  0  0  0  0  0  0  0  0  0  0
   13.4444   -5.9972    1.6132 O   0  5  0  0  0  0  0  0  0  0  0  0
   14.1138   -3.4942    2.0161 O   0  0  0  0  0  0  0  0  0  0  0  0
    8.2971   -2.2310    0.0817 C   0  0  2  0  0  0  0  0  0  0  0  0
    7.5155   -3.4329    0.0158 O   0  0  0  0  0  0  0  0  0  0  0  0
    8.4150   -1.5491   -1.3106 C   0  0  2  0  0  0  0  0  0  0  0  0
    7.0653   -1.2436   -1.8342 N   0  0  0  0  0  0  0  0  0  0  0  0
    9.1507   -2.5098   -2.2686 C   0  0  1  0  0  0  0  0  0  0  0  0
    9.2963   -1.9038   -3.5651 O   0  0  0  0  0  0  0  0  0  0  0  0
   10.5369   -2.8037   -1.6767 C   0  0  2  0  0  0  0  0  0  0  0  0
   11.2430   -3.7083   -2.5375 O   0  0  0  0  0  0  0  0  0  0  0  0
   10.3448   -3.4505   -0.2795 C   0  0  2  0  0  0  0  0  0  0  0  0
    9.6208   -2.5437    0.6011 O   0  0  0  0  0  0  0  0  0  0  0  0
   11.7203   -3.7450    0.3442 C   0  0  0  0  0  0  0  0  0  0  0  0
   11.5526   -4.1747    1.7075 O   0  0  0  0  0  0  0  0  0  0  0  0
  1  2  1  1  0  0  0
  1  3  1  0  0  0  0
  1  4  2  0  0  0  0
  1 16  1  0  0  0  0
  5  6  1  6  0  0  0
  5  7  1  0  0  0  0
  5 14  1  0  0  0  0
  7  8  1  6  0  0  0
  7  9  1  0  0  0  0
  9 10  1  6  0  0  0
  9 11  1  0  0  0  0
 11 12  1  6  0  0  0
 11 13  1  0  0  0  0
 13 14  1  0  0  0  0
 13 15  1  1  0  0  0
 15 16  1  0  0  0  0
M  CHG  1   3  -1
M  END
>  <CHROM.1>
172.24572299,174.49610671,169.01451222,10.74273702,-3.40040433,0.14911067
0.75006425,-0.35949787,1.75727109

>  <Name>
ligand

>  <RI>
0

>  <Rbt.Current_Directory>
/home/itssahil/PROJECTS/Mol_Feturizer/New_Systems/rnas/3B4B

>  <Rbt.Executable>
rbdock ($Id: //depot/dev/client3/rdock/2013.1/src/exe/rbdock.cxx#4 $)

>  <Rbt.Library>
libRbt.so (2013.1, Build901 2013/11/27)

>  <Rbt.Parameter_File>
/export/apps/rDock/src/rDock_2013.1_src/data/scripts/dock_solv.prm

>  <Rbt.Receptor>
prm/blind_docking_20.prm

>  <SCORE>
-6.45866

>  <SCORE.INTER>
-5.21395

>  <SCORE.INTER.CONST>
1

>  <SCORE.INTER.POLAR>
0

>  <SCORE.INTER.ROT>
3

>  <SCORE.INTER.SOLV>
14.7561

>  <SCORE.INTER.VDW>
-13.9947

>  <SCORE.INTER.norm>
-0.325872

>  <SCORE.INTRA>
-1.24471

>  <SCORE.INTRA.DIHEDRAL>
-1.66607

>  <SCORE.INTRA.DIHEDRAL.0>
2.21864

>  <SCORE.INTRA.POLAR>
0

>  <SCORE.INTRA.POLAR.0>
0

>  <SCORE.INTRA.REPUL>
0

>  <SCORE.INTRA.REPUL.0>
0

>  <SCORE.INTRA.SOLV>
-0.497768

>  <SCORE.INTRA.SOLV.lig_0>
-58.5963

>  <SCORE.INTRA.VDW>
-0.162792

>  <SCORE.INTRA.VDW.0>
-0.437849

>  <SCORE.INTRA.norm>
-0.0777944

>  <SCORE.RESTR>
0

>  <SCORE.RESTR.CAVITY>
0

>  <SCORE.RESTR.norm>
0

>  <SCORE.SYSTEM>
0

>  <SCORE.SYSTEM.CONST>
0

>  <SCORE.SYSTEM.DIHEDRAL>
0

>  <SCORE.SYSTEM.SOLV>
0

>  <SCORE.SYSTEM.norm>
0

>  <SCORE.heavy>
16

>  <SCORE.norm>
-0.403666

>  <RMSD>
40.868

$$$$
ligand
 OpenBabel11021811463D
libRbt.so/2013.1/901 2013/11/27
 16 16  0  0  0  0  0  0  0  0999 V2000
   14.5575   -5.5843   -3.7832 P   0  0  2  0  0  0  0  0  0  0  0  0
   13.7582   -6.4396   -4.6945 O   0  0  0  0  0  0  0  0  0  0  0  0
   15.8683   -5.0349   -4.5388 O   0  5  0  0  0  0  0  0  0  0  0  0
   15.0286   -6.4629   -2.5064 O   0  0  0  0  0  0  0  0  0  0  0  0
   10.3878   -1.7648   -3.0138 C   0  0  2  0  0  0  0  0  0  0  0  0
   11.1456   -0.8299   -2.2319 O   0  0  0  0  0  0  0  0  0  0  0  0
    9.1050   -2.2269   -2.2665 C   0  0  2  0  0  0  0  0  0  0  0  0
    8.2679   -1.0526   -1.9358 N   0  0  0  0  0  0  0  0  0  0  0  0
    9.5247   -2.9600   -0.9748 C   0  0  1  0  0  0  0  0  0  0  0  0
    8.3618   -3.4206   -0.2645 O   0  0  0  0  0  0  0  0  0  0  0  0
   10.3979   -4.1598   -1.3703 C   0  0  2  0  0  0  0  0  0  0  0  0
   10.8186   -4.8557   -0.1885 O   0  0  0  0  0  0  0  0  0  0  0  0
   11.6383   -3.6301   -2.1373 C   0  0  2  0  0  0  0  0  0  0  0  0
   11.2224   -2.9136   -3.3356 O   0  0  0  0  0  0  0  0  0  0  0  0
   12.5267   -4.8138   -2.5579 C   0  0  0  0  0  0  0  0  0  0  0  0
   13.6466   -4.3319   -3.3229 O   0  0  0  0  0  0  0  0  0  0  0  0
  1  2  1  6  0  0  0
  1  3  1  0  0  0  0
  1  4  2  0  0  0  0
  1 16  1  0  0  0  0
  5  6  1  1  0  0  0
  5  7  1  0  0  0  0
  5 14  1  0  0  0  0
  7  8  1  1  0  0  0
  7  9  1  0  0  0  0
  9 10  1  6  0  0  0
  9 11  1  0  0  0  0
 11 12  1  1  0  0  0
 11 13  1  0  0  0  0
 13 14  1  0  0  0  0
 13 15  1  6  0  0  0
 15 16  1  0  0  0  0
M  CHG  1   3  -1
M  END
>  <CHROM.1>
177.36878304,-178.93570287,64.09282078,11.91852051,-3.94989741,-2.55690434
-0.22502818,0.60997894,-0.58993330

>  <Name>
ligand

>  <RI>
0

>  <Rbt.Current_Directory>
/home/itssahil/PROJECTS/Mol_Feturizer/New_Systems/rnas/3B4B

>  <Rbt.Executable>
rbdock ($Id: //depot/dev/client3/rdock/2013.1/src/exe/rbdock.cxx#4 $)

>  <Rbt.Library>
libRbt.so (2013.1, Build901 2013/11/27)

>  <Rbt.Parameter_File>
/export/apps/rDock/src/rDock_2013.1_src/data/scripts/dock_solv.prm

>  <Rbt.Receptor>
prm/blind_docking_20.prm

>  <SCORE>
-8.28832

>  <SCORE.INTER>
-6.51854

>  <SCORE.INTER.CONST>
1

>  <SCORE.INTER.POLAR>
0

>  <SCORE.INTER.ROT>
3

>  <SCORE.INTER.SOLV>
10.0146

>  <SCORE.INTER.VDW>
-13.2839

>  <SCORE.INTER.norm>
-0.407409

>  <SCORE.INTRA>
-1.76977

>  <SCORE.INTRA.DIHEDRAL>
-2.15927

>  <SCORE.INTRA.DIHEDRAL.0>
2.21864

>  <SCORE.INTRA.POLAR>
0

>  <SCORE.INTRA.POLAR.0>
0

>  <SCORE.INTRA.REPUL>
0

>  <SCORE.INTRA.REPUL.0>
0

>  <SCORE.INTRA.SOLV>
-1.12835

>  <SCORE.INTRA.SOLV.lig_0>
-58.5963

>  <SCORE.INTRA.VDW>
-0.125966

>  <SCORE.INTRA.VDW.0>
-0.437849

>  <SCORE.INTRA.norm>
-0.110611

>  <SCORE.RESTR>
0

>  <SCORE.RESTR.CAVITY>
0

>  <SCORE.RESTR.norm>
0

>  <SCORE.SYSTEM>
0

>  <SCORE.SYSTEM.CONST>
0

>  <SCORE.SYSTEM.DIHEDRAL>
0

>  <SCORE.SYSTEM.SOLV>
0

>  <SCORE.SYSTEM.norm>
0

>  <SCORE.heavy>
16

>  <SCORE.norm>
-0.51802

>  <RMSD>
40.887

$$$$
ligand
 OpenBabel11021811463D
libRbt.so/2013.1/901 2013/11/27
 16 16  0  0  0  0  0  0  0  0999 V2000
    9.2059   -2.0025    1.3903 P   0  0  2  0  0  0  0  0  0  0  0  0
    9.1731   -2.6452    2.7270 O   0  0  0  0  0  0  0  0  0  0  0  0
    7.9110   -2.4276    0.5338 O   0  5  0  0  0  0  0  0  0  0  0  0
   10.5315   -2.4913    0.5978 O   0  0  0  0  0  0  0  0  0  0  0  0
   10.4699   -1.1792   -2.5917 C   0  0  2  0  0  0  0  0  0  0  0  0
   11.7780   -1.3519   -2.0271 O   0  0  0  0  0  0  0  0  0  0  0  0
   10.4139    0.0536   -3.5375 C   0  0  2  0  0  0  0  0  0  0  0  0
   11.4124   -0.0992   -4.6186 N   0  0  0  0  0  0  0  0  0  0  0  0
   10.7162    1.3218   -2.7115 C   0  0  1  0  0  0  0  0  0  0  0  0
   10.6541    2.4882   -3.5511 O   0  0  0  0  0  0  0  0  0  0  0  0
    9.6623    1.4285   -1.5996 C   0  0  2  0  0  0  0  0  0  0  0  0
    9.9243    2.5917   -0.8019 O   0  0  0  0  0  0  0  0  0  0  0  0
    9.7522    0.1555   -0.7170 C   0  0  2  0  0  0  0  0  0  0  0  0
    9.4963   -1.0334   -1.5189 O   0  0  0  0  0  0  0  0  0  0  0  0
    8.6970    0.2292    0.4003 C   0  0  0  0  0  0  0  0  0  0  0  0
    9.2064   -0.3993    1.5907 O   0  0  0  0  0  0  0  0  0  0  0  0
  1  2  1  1  0  0  0
  1  3  1  0  0  0  0
  1  4  2  0  0  0  0
  1 16  1  0  0  0  0
  5  6  1  1  0  0  0
  5  7  1  0  0  0  0
  5 14  1  0  0  0  0
  7  8  1  6  0  0  0
  7  9  1  0  0  0  0
  9 10  1  6  0  0  0
  9 11  1  0  0  0  0
 11 12  1  1  0  0  0
 11 13  1  0  0  0  0
 13 14  1  0  0  0  0
 13 15  1  1  0  0  0
 15 16  1  0  0  0  0
M  CHG  1   3  -1
M  END
>  <CHROM.1>
-146.10558170,-73.74166599,-156.63708304,9.87667236,-0.48123564,-0.79517554
-2.25231104,1.11744146,-0.36436834

>  <Name>
ligand

>  <RI>
0

>  <Rbt.Current_Directory>
/home/itssahil/PROJECTS/Mol_Feturizer/New_Systems/rnas/3B4B

>  <Rbt.Executable>
rbdock ($Id: //depot/dev/client3/rdock/2013.1/src/exe/rbdock.cxx#4 $)

>  <Rbt.Library>
libRbt.so (2013.1, Build901 2013/11/27)

>  <Rbt.Parameter_File>
/export/apps/rDock/src/rDock_2013.1_src/data/scripts/dock_solv.prm

>  <Rbt.Receptor>
prm/blind_docking_20.prm

>  <SCORE>
-6.42627

>  <SCORE.INTER>
-9.86469

>  <SCORE.INTER.CONST>
1

>  <SCORE.INTER.POLAR>
0

>  <SCORE.INTER.ROT>
3

>  <SCORE.INTER.SOLV>
14.4336

>  <SCORE.INTER.VDW>
-16.9877

>  <SCORE.INTER.norm>
-0.616543

>  <SCORE.INTRA>
3.43843

>  <SCORE.INTRA.DIHEDRAL>
2.64745

>  <SCORE.INTRA.DIHEDRAL.0>
2.21864

>  <SCORE.INTRA.POLAR>
0

>  <SCORE.INTRA.POLAR.0>
0

>  <SCORE.INTRA.REPUL>
0

>  <SCORE.INTRA.REPUL.0>
0

>  <SCORE.INTRA.SOLV>
4.83471

>  <SCORE.INTRA.SOLV.lig_0>
-58.5963

>  <SCORE.INTRA.VDW>
-0.302652

>  <SCORE.INTRA.VDW.0>
-0.437849

>  <SCORE.INTRA.norm>
0.214902

>  <SCORE.RESTR>
0

>  <SCORE.RESTR.CAVITY>
0

>  <SCORE.RESTR.norm>
0

>  <SCORE.SYSTEM>
0

>  <SCORE.SYSTEM.CONST>
0

>  <SCORE.SYSTEM.DIHEDRAL>
0

>  <SCORE.SYSTEM.SOLV>
0

>  <SCORE.SYSTEM.norm>
0

>  <SCORE.heavy>
16

>  <SCORE.norm>
-0.401642

>  <RMSD>
40.898

$$$$
ligand
 OpenBabel11021811463D
libRbt.so/2013.1/901 2013/11/27
 16 16  0  0  0  0  0  0  0  0999 V2000
    9.2006   -1.9890    1.3867 P   0  0  2  0  0  0  0  0  0  0  0  0
    7.9742   -2.3776    0.6478 O   0  0  0  0  0  0  0  0  0  0  0  0
   10.5120   -2.4143    0.5558 O   0  5  0  0  0  0  0  0  0  0  0  0
    9.2250   -2.7527    2.8151 O   0  0  0  0  0  0  0  0  0  0  0  0
   10.4381   -1.1782   -2.6079 C   0  0  2  0  0  0  0  0  0  0  0  0
   11.7441   -1.3713   -2.0451 O   0  0  0  0  0  0  0  0  0  0  0  0
   10.3982    0.0599   -3.5476 C   0  0  2  0  0  0  0  0  0  0  0  0
   11.3939   -0.1011   -4.6301 N   0  0  0  0  0  0  0  0  0  0  0  0
   10.7180    1.3198   -2.7157 C   0  0  1  0  0  0  0  0  0  0  0  0
   10.6712    2.4911   -3.5495 O   0  0  0  0  0  0  0  0  0  0  0  0
    9.6665    1.4353   -1.6025 C   0  0  2  0  0  0  0  0  0  0  0  0
    9.9446    2.5909   -0.7993 O   0  0  0  0  0  0  0  0  0  0  0  0
    9.7396    0.1569   -0.7263 C   0  0  2  0  0  0  0  0  0  0  0  0
    9.4672   -1.0245   -1.5338 O   0  0  0  0  0  0  0  0  0  0  0  0
    8.6862    0.2393    0.3922 C   0  0  0  0  0  0  0  0  0  0  0  0
    9.1950   -0.3856    1.5847 O   0  0  0  0  0  0  0  0  0  0  0  0
  1  2  1  6  0  0  0
  1  3  1  0  0  0  0
  1  4  2  0  0  0  0
  1 16  1  0  0  0  0
  5  6  1  1  0  0  0
  5  7  1  0  0  0  0
  5 14  1  0  0  0  0
  7  8  1  6  0  0  0
  7  9  1  0  0  0  0
  9 10  1  6  0  0  0
  9 11  1  0  0  0  0
 11 12  1  1  0  0  0
 11 13  1  0  0  0  0
 13 14  1  0  0  0  0
 13 15  1  1  0  0  0
 15 16  1  0  0  0  0
M  CHG  1   3  -1
M  END
>  <CHROM.1>
-145.31880324,-73.25391544,-38.89890627,9.87532772,-0.47687479,-0.79096101
-2.25085045,1.12454321,-0.36808423

>  <Name>
ligand

>  <RI>
0

>  <Rbt.Current_Directory>
/home/itssahil/PROJECTS/Mol_Feturizer/New_Systems/rnas/3B4B

>  <Rbt.Executable>
rbdock ($Id: //depot/dev/client3/rdock/2013.1/src/exe/rbdock.cxx#4 $)

>  <Rbt.Library>
libRbt.so (2013.1, Build901 2013/11/27)

>  <Rbt.Parameter_File>
/export/apps/rDock/src/rDock_2013.1_src/data/scripts/dock_solv.prm

>  <Rbt.Receptor>
prm/blind_docking_20.prm

>  <SCORE>
-6.56065

>  <SCORE.INTER>
-9.33298

>  <SCORE.INTER.CONST>
1

>  <SCORE.INTER.POLAR>
0

>  <SCORE.INTER.ROT>
3

>  <SCORE.INTER.SOLV>
14.9655

>  <SCORE.INTER.VDW>
-16.8105

>  <SCORE.INTER.norm>
-0.583312

>  <SCORE.INTRA>
2.77234

>  <SCORE.INTRA.DIHEDRAL>
2.56303

>  <SCORE.INTRA.DIHEDRAL.0>
2.21864

>  <SCORE.INTRA.POLAR>
0

>  <SCORE.INTRA.POLAR.0>
0

>  <SCORE.INTRA.REPUL>
0

>  <SCORE.INTRA.REPUL.0>
0

>  <SCORE.INTRA.SOLV>
2.85206

>  <SCORE.INTRA.SOLV.lig_0>
-58.5963

>  <SCORE.INTRA.VDW>
0.0647912

>  <SCORE.INTRA.VDW.0>
-0.437849

>  <SCORE.INTRA.norm>
0.173271

>  <SCORE.RESTR>
0

>  <SCORE.RESTR.CAVITY>
0

>  <SCORE.RESTR.norm>
0

>  <SCORE.SYSTEM>
0

>  <SCORE.SYSTEM.CONST>
0

>  <SCORE.SYSTEM.DIHEDRAL>
0

>  <SCORE.SYSTEM.SOLV>
0

>  <SCORE.SYSTEM.norm>
0

>  <SCORE.heavy>
16

>  <SCORE.norm>
-0.41004

>  <RMSD>
40.903

$$$$
ligand
 OpenBabel11021811463D
libRbt.so/2013.1/901 2013/11/27
 16 16  0  0  0  0  0  0  0  0999 V2000
   10.1081   -2.2425    1.6236 P   0  0  2  0  0  0  0  0  0  0  0  0
   11.4432   -2.7797    1.9844 O   0  0  0  0  0  0  0  0  0  0  0  0
    9.0988   -2.3696    2.8711 O   0  5  0  0  0  0  0  0  0  0  0  0
    9.5079   -3.0974    0.3855 O   0  0  0  0  0  0  0  0  0  0  0  0
   10.4594    2.1684   -1.7044 C   0  0  2  0  0  0  0  0  0  0  0  0
    9.3398    3.0461   -1.8935 O   0  0  0  0  0  0  0  0  0  0  0  0
   10.6207    1.1830   -2.8963 C   0  0  2  0  0  0  0  0  0  0  0  0
   10.7840    1.9429   -4.1553 N   0  0  0  0  0  0  0  0  0  0  0  0
    9.3620    0.2932   -2.9732 C   0  0  1  0  0  0  0  0  0  0  0  0
    9.4834   -0.6471   -4.0551 O   0  0  0  0  0  0  0  0  0  0  0  0
    9.2314   -0.4632   -1.6431 C   0  0  2  0  0  0  0  0  0  0  0  0
    8.0596   -1.2901   -1.6758 O   0  0  0  0  0  0  0  0  0  0  0  0
    9.1077    0.5775   -0.4989 C   0  0  2  0  0  0  0  0  0  0  0  0
   10.2890    1.4291   -0.4617 O   0  0  0  0  0  0  0  0  0  0  0  0
    8.9879   -0.1531    0.8498 C   0  0  0  0  0  0  0  0  0  0  0  0
   10.2706   -0.6841    1.2295 O   0  0  0  0  0  0  0  0  0  0  0  0
  1  2  1  1  0  0  0
  1  3  1  0  0  0  0
  1  4  2  0  0  0  0
  1 16  1  0  0  0  0
  5  6  1  6  0  0  0
  5  7  1  0  0  0  0
  5 14  1  0  0  0  0
  7  8  1  6  0  0  0
  7  9  1  0  0  0  0
  9 10  1  6  0  0  0
  9 11  1  0  0  0  0
 11 12  1  6  0  0  0
 11 13  1  0  0  0  0
 13 14  1  0  0  0  0
 13 15  1  1  0  0  0
 15 16  1  0  0  0  0
M  CHG  1   3  -1
M  END
>  <CHROM.1>
74.53829758,-129.76366456,178.83140067,9.77844403,-0.38770525,-0.58839093
-1.52573428,-1.34063108,-0.85321254

>  <Name>
ligand

>  <RI>
0

>  <Rbt.Current_Directory>
/home/itssahil/PROJECTS/Mol_Feturizer/New_Systems/rnas/3B4B

>  <Rbt.Executable>
rbdock ($Id: //depot/dev/client3/rdock/2013.1/src/exe/rbdock.cxx#4 $)

>  <Rbt.Library>
libRbt.so (2013.1, Build901 2013/11/27)

>  <Rbt.Parameter_File>
/export/apps/rDock/src/rDock_2013.1_src/data/scripts/dock_solv.prm

>  <Rbt.Receptor>
prm/blind_docking_80.prm

>  <SCORE>
-5.10708

>  <SCORE.INTER>
-7.89967

>  <SCORE.INTER.CONST>
1

>  <SCORE.INTER.POLAR>
0

>  <SCORE.INTER.ROT>
3

>  <SCORE.INTER.SOLV>
18.3821

>  <SCORE.INTER.VDW>
-16.9938

>  <SCORE.INTER.norm>
-0.49373

>  <SCORE.INTRA>
2.79259

>  <SCORE.INTRA.DIHEDRAL>
5.25397

>  <SCORE.INTRA.DIHEDRAL.0>
2.21864

>  <SCORE.INTRA.POLAR>
0

>  <SCORE.INTRA.POLAR.0>
0

>  <SCORE.INTRA.REPUL>
0

>  <SCORE.INTRA.REPUL.0>
0

>  <SCORE.INTRA.SOLV>
1.98699

>  <SCORE.INTRA.SOLV.lig_0>
-58.5963

>  <SCORE.INTRA.VDW>
-0.827887

>  <SCORE.INTRA.VDW.0>
-0.437849

>  <SCORE.INTRA.norm>
0.174537

>  <SCORE.RESTR>
0

>  <SCORE.RESTR.CAVITY>
0

>  <SCORE.RESTR.norm>
0

>  <SCORE.SYSTEM>
0

>  <SCORE.SYSTEM.CONST>
0

>  <SCORE.SYSTEM.DIHEDRAL>
0

>  <SCORE.SYSTEM.SOLV>
0

>  <SCORE.SYSTEM.norm>
0

>  <SCORE.heavy>
16

>  <SCORE.norm>
-0.319193

>  <RMSD>
40.927

$$$$
ligand
 OpenBabel11021811463D
libRbt.so/2013.1/901 2013/11/27
 16 16  0  0  0  0  0  0  0  0999 V2000
   11.1060   -5.1520   -1.3656 P   0  0  2  0  0  0  0  0  0  0  0  0
   10.1708   -6.3016   -1.4357 O   0  0  0  0  0  0  0  0  0  0  0  0
   12.3533   -5.3850   -2.3559 O   0  5  0  0  0  0  0  0  0  0  0  0
   11.6676   -5.0151    0.1477 O   0  0  0  0  0  0  0  0  0  0  0  0
    9.2910    0.2841   -1.2127 C   0  0  2  0  0  0  0  0  0  0  0  0
    8.1377    0.0690   -2.0393 O   0  0  0  0  0  0  0  0  0  0  0  0
   10.2207    1.3815   -1.8035 C   0  0  2  0  0  0  0  0  0  0  0  0
    9.4680    2.6462   -1.9561 N   0  0  0  0  0  0  0  0  0  0  0  0
   10.7370    0.9024   -3.1767 C   0  0  1  0  0  0  0  0  0  0  0  0
   11.6184    1.8859   -3.7469 O   0  0  0  0  0  0  0  0  0  0  0  0
   11.4988   -0.4144   -2.9662 C   0  0  2  0  0  0  0  0  0  0  0  0
   11.9801   -0.8959   -4.2289 O   0  0  0  0  0  0  0  0  0  0  0  0
   10.5234   -1.4498   -2.3466 C   0  0  2  0  0  0  0  0  0  0  0  0
   10.0211   -0.9672   -1.0673 O   0  0  0  0  0  0  0  0  0  0  0  0
   11.2642   -2.7779   -2.1125 C   0  0  0  0  0  0  0  0  0  0  0  0
   10.3142   -3.8173   -1.8147 O   0  0  0  0  0  0  0  0  0  0  0  0
  1  2  1  6  0  0  0
  1  3  1  0  0  0  0
  1  4  2  0  0  0  0
  1 16  1  0  0  0  0
  5  6  1  6  0  0  0
  5  7  1  0  0  0  0
  5 14  1  0  0  0  0
  7  8  1  6  0  0  0
  7  9  1  0  0  0  0
  9 10  1  1  0  0  0
  9 11  1  0  0  0  0
 11 12  1  6  0  0  0
 11 13  1  0  0  0  0
 13 14  1  0  0  0  0
 13 15  1  1  0  0  0
 15 16  1  0  0  0  0
M  CHG  1   3  -1
M  END
>  <CHROM.1>
-167.66191292,-172.01284929,-164.14207709,10.69144420,-1.90062414,-2.03796720
1.38757084,-0.69631919,2.83858507

>  <Name>
ligand

>  <RI>
0

>  <Rbt.Current_Directory>
/home/itssahil/PROJECTS/Mol_Feturizer/New_Systems/rnas/3B4B

>  <Rbt.Executable>
rbdock ($Id: //depot/dev/client3/rdock/2013.1/src/exe/rbdock.cxx#4 $)

>  <Rbt.Library>
libRbt.so (2013.1, Build901 2013/11/27)

>  <Rbt.Parameter_File>
/export/apps/rDock/src/rDock_2013.1_src/data/scripts/dock_solv.prm

>  <Rbt.Receptor>
prm/blind_docking_20.prm

>  <SCORE>
-9.27173

>  <SCORE.INTER>
-8.46085

>  <SCORE.INTER.CONST>
1

>  <SCORE.INTER.POLAR>
0

>  <SCORE.INTER.ROT>
3

>  <SCORE.INTER.SOLV>
17.6738

>  <SCORE.INTER.VDW>
-17.1318

>  <SCORE.INTER.norm>
-0.528803

>  <SCORE.INTRA>
-0.810875

>  <SCORE.INTRA.DIHEDRAL>
-0.979796

>  <SCORE.INTRA.DIHEDRAL.0>
2.21864

>  <SCORE.INTRA.POLAR>
0

>  <SCORE.INTRA.POLAR.0>
0

>  <SCORE.INTRA.REPUL>
0

>  <SCORE.INTRA.REPUL.0>
0

>  <SCORE.INTRA.SOLV>
-0.501797

>  <SCORE.INTRA.SOLV.lig_0>
-58.5963

>  <SCORE.INTRA.VDW>
-0.0700791

>  <SCORE.INTRA.VDW.0>
-0.437849

>  <SCORE.INTRA.norm>
-0.0506797

>  <SCORE.RESTR>
0

>  <SCORE.RESTR.CAVITY>
0

>  <SCORE.RESTR.norm>
0

>  <SCORE.SYSTEM>
0

>  <SCORE.SYSTEM.CONST>
0

>  <SCORE.SYSTEM.DIHEDRAL>
0

>  <SCORE.SYSTEM.SOLV>
0

>  <SCORE.SYSTEM.norm>
0

>  <SCORE.heavy>
16

>  <SCORE.norm>
-0.579483

>  <RMSD>
40.939

$$$$
ligand
 OpenBabel11021811463D
libRbt.so/2013.1/901 2013/11/27
 16 16  0  0  0  0  0  0  0  0999 V2000
    9.2457    0.0431   -2.1137 P   0  0  2  0  0  0  0  0  0  0  0  0
    7.9278   -0.2805   -2.7132 O   0  0  0  0  0  0  0  0  0  0  0  0
    9.0515    0.9135   -0.7737 O   0  5  0  0  0  0  0  0  0  0  0  0
   10.1122    0.9115   -3.1716 O   0  0  0  0  0  0  0  0  0  0  0  0
   11.3059   -5.2054   -1.1547 C   0  0  2  0  0  0  0  0  0  0  0  0
   10.3846   -6.1889   -0.6613 O   0  0  0  0  0  0  0  0  0  0  0  0
   12.3690   -4.8304   -0.0839 C   0  0  2  0  0  0  0  0  0  0  0  0
   13.1050   -6.0429    0.3368 N   0  0  0  0  0  0  0  0  0  0  0  0
   11.6477   -4.2008    1.1265 C   0  0  1  0  0  0  0  0  0  0  0  0
   12.6035   -3.8220    2.1327 O   0  0  0  0  0  0  0  0  0  0  0  0
   10.8922   -2.9568    0.6367 C   0  0  2  0  0  0  0  0  0  0  0  0
   10.1966   -2.3549    1.7375 O   0  0  0  0  0  0  0  0  0  0  0  0
    9.8752   -3.3983   -0.4488 C   0  0  2  0  0  0  0  0  0  0  0  0
   10.5701   -4.0191   -1.5685 O   0  0  0  0  0  0  0  0  0  0  0  0
    9.1110   -2.1679   -0.9680 C   0  0  0  0  0  0  0  0  0  0  0  0
    9.9956   -1.3394   -1.7442 O   0  0  0  0  0  0  0  0  0  0  0  0
  1  2  1  6  0  0  0
  1  3  1  0  0  0  0
  1  4  2  0  0  0  0
  1 16  1  0  0  0  0
  5  6  1  1  0  0  0
  5  7  1  0  0  0  0
  5 14  1  0  0  0  0
  7  8  1  1  0  0  0
  7  9  1  0  0  0  0
  9 10  1  1  0  0  0
  9 11  1  0  0  0  0
 11 12  1  1  0  0  0
 11 13  1  0  0  0  0
 13 14  1  0  0  0  0
 13 15  1  6  0  0  0
 15 16  1  0  0  0  0
M  CHG  1   3  -1
M  END
>  <CHROM.1>
70.10694807,-172.31197060,-51.35148924,10.39830989,-2.54133491,-0.72009302
2.72042315,-1.08788173,0.64267921

>  <Name>
ligand

>  <RI>
0

>  <Rbt.Current_Directory>
/home/itssahil/PROJECTS/Mol_Feturizer/New_Systems/rnas/3B4B

>  <Rbt.Executable>
rbdock ($Id: //depot/dev/client3/rdock/2013.1/src/exe/rbdock.cxx#4 $)

>  <Rbt.Library>
libRbt.so (2013.1, Build901 2013/11/27)

>  <Rbt.Parameter_File>
/export/apps/rDock/src/rDock_2013.1_src/data/scripts/dock_solv.prm

>  <Rbt.Receptor>
prm/blind_docking_20.prm

>  <SCORE>
-6.02478

>  <SCORE.INTER>
-4.8398

>  <SCORE.INTER.CONST>
1

>  <SCORE.INTER.POLAR>
0

>  <SCORE.INTER.ROT>
3

>  <SCORE.INTER.SOLV>
11.733

>  <SCORE.INTER.VDW>
-12.7375

>  <SCORE.INTER.norm>
-0.302488

>  <SCORE.INTRA>
-1.18498

>  <SCORE.INTRA.DIHEDRAL>
-1.44454

>  <SCORE.INTRA.DIHEDRAL.0>
2.21864

>  <SCORE.INTRA.POLAR>
0

>  <SCORE.INTRA.POLAR.0>
0

>  <SCORE.INTRA.REPUL>
0

>  <SCORE.INTRA.REPUL.0>
0

>  <SCORE.INTRA.SOLV>
-0.800809

>  <SCORE.INTRA.SOLV.lig_0>
-58.5963

>  <SCORE.INTRA.VDW>
-0.0623063

>  <SCORE.INTRA.VDW.0>
-0.437849

>  <SCORE.INTRA.norm>
-0.0740612

>  <SCORE.RESTR>
0

>  <SCORE.RESTR.CAVITY>
0

>  <SCORE.RESTR.norm>
0

>  <SCORE.SYSTEM>
0

>  <SCORE.SYSTEM.CONST>
0

>  <SCORE.SYSTEM.DIHEDRAL>
0

>  <SCORE.SYSTEM.SOLV>
0

>  <SCORE.SYSTEM.norm>
0

>  <SCORE.heavy>
16

>  <SCORE.norm>
-0.376549

>  <RMSD>
41.027

$$$$
ligand
 OpenBabel11021811463D
libRbt.so/2013.1/901 2013/11/27
 16 16  0  0  0  0  0  0  0  0999 V2000
    9.8686   -0.9721    2.3315 P   0  0  2  0  0  0  0  0  0  0  0  0
   10.0458   -2.3463    2.8619 O   0  0  0  0  0  0  0  0  0  0  0  0
   11.2873   -0.2155    2.2547 O   0  5  0  0  0  0  0  0  0  0  0  0
    8.8941   -0.1410    3.3233 O   0  0  0  0  0  0  0  0  0  0  0  0
   10.9565    1.1883   -2.3407 C   0  0  2  0  0  0  0  0  0  0  0  0
   10.2915    2.3861   -2.7683 O   0  0  0  0  0  0  0  0  0  0  0  0
   10.6922    0.0082   -3.3179 C   0  0  2  0  0  0  0  0  0  0  0  0
   11.1421    0.3749   -4.6789 N   0  0  0  0  0  0  0  0  0  0  0  0
    9.1794   -0.2971   -3.3235 C   0  0  1  0  0  0  0  0  0  0  0  0
    8.8981   -1.3993   -4.2039 O   0  0  0  0  0  0  0  0  0  0  0  0
    8.7614   -0.6600   -1.8910 C   0  0  2  0  0  0  0  0  0  0  0  0
    7.3539   -0.9353   -1.8584 O   0  0  0  0  0  0  0  0  0  0  0  0
    9.0821    0.5453   -0.9680 C   0  0  2  0  0  0  0  0  0  0  0  0
   10.5084    0.8397   -1.0000 O   0  0  0  0  0  0  0  0  0  0  0  0
    8.6846    0.2047    0.4789 C   0  0  0  0  0  0  0  0  0  0  0  0
    9.2394   -1.0713    0.8468 O   0  0  0  0  0  0  0  0  0  0  0  0
  1  2  1  1  0  0  0
  1  3  1  0  0  0  0
  1  4  2  0  0  0  0
  1 16  1  0  0  0  0
  5  6  1  6  0  0  0
  5  7  1  0  0  0  0
  5 14  1  0  0  0  0
  7  8  1  6  0  0  0
  7  9  1  0  0  0  0
  9 10  1  6  0  0  0
  9 11  1  0  0  0  0
 11 12  1  6  0  0  0
 11 13  1  0  0  0  0
 13 14  1  0  0  0  0
 13 15  1  1  0  0  0
 15 16  1  0  0  0  0
M  CHG  1   3  -1
M  END
>  <CHROM.1>
50.07772286,135.93727157,162.52629002,9.68456519,-0.22965377,-0.59286688
-1.59823688,-0.73922448,-1.39756315

>  <Name>
ligand

>  <RI>
0

>  <Rbt.Current_Directory>
/home/itssahil/PROJECTS/Mol_Feturizer/New_Systems/rnas/3B4B

>  <Rbt.Executable>
rbdock ($Id: //depot/dev/client3/rdock/2013.1/src/exe/rbdock.cxx#4 $)

>  <Rbt.Library>
libRbt.so (2013.1, Build901 2013/11/27)

>  <Rbt.Parameter_File>
/export/apps/rDock/src/rDock_2013.1_src/data/scripts/dock_solv.prm

>  <Rbt.Receptor>
prm/blind_docking_20.prm

>  <SCORE>
-5.58663

>  <SCORE.INTER>
-7.9672

>  <SCORE.INTER.CONST>
1

>  <SCORE.INTER.POLAR>
0

>  <SCORE.INTER.ROT>
3

>  <SCORE.INTER.SOLV>
22.7961

>  <SCORE.INTER.VDW>
-18.5102

>  <SCORE.INTER.norm>
-0.49795

>  <SCORE.INTRA>
2.38057

>  <SCORE.INTRA.DIHEDRAL>
4.61022

>  <SCORE.INTRA.DIHEDRAL.0>
2.21864

>  <SCORE.INTRA.POLAR>
0

>  <SCORE.INTRA.POLAR.0>
0

>  <SCORE.INTRA.REPUL>
0

>  <SCORE.INTRA.REPUL.0>
0

>  <SCORE.INTRA.SOLV>
0.728067

>  <SCORE.INTRA.SOLV.lig_0>
-58.5963

>  <SCORE.INTRA.VDW>
-0.28858

>  <SCORE.INTRA.VDW.0>
-0.437849

>  <SCORE.INTRA.norm>
0.148785

>  <SCORE.RESTR>
0

>  <SCORE.RESTR.CAVITY>
0

>  <SCORE.RESTR.norm>
0

>  <SCORE.SYSTEM>
0

>  <SCORE.SYSTEM.CONST>
0

>  <SCORE.SYSTEM.DIHEDRAL>
0

>  <SCORE.SYSTEM.SOLV>
0

>  <SCORE.SYSTEM.norm>
0

>  <SCORE.heavy>
16

>  <SCORE.norm>
-0.349165

>  <RMSD>
41.032

$$$$
ligand
 OpenBabel11021811463D
libRbt.so/2013.1/901 2013/11/27
 16 16  0  0  0  0  0  0  0  0999 V2000
   11.6183   -5.0817   -1.1591 P   0  0  2  0  0  0  0  0  0  0  0  0
   12.3113   -5.5907   -2.3681 O   0  0  0  0  0  0  0  0  0  0  0  0
   12.5698   -5.2228    0.1315 O   0  5  0  0  0  0  0  0  0  0  0  0
   10.2767   -5.9544   -0.9084 O   0  0  0  0  0  0  0  0  0  0  0  0
    9.0073   -0.0281   -1.5518 C   0  0  2  0  0  0  0  0  0  0  0  0
    7.9621    0.0872   -2.5284 O   0  0  0  0  0  0  0  0  0  0  0  0
   10.2310    0.8588   -1.9172 C   0  0  2  0  0  0  0  0  0  0  0  0
    9.8075    2.2714   -2.0367 N   0  0  0  0  0  0  0  0  0  0  0  0
   10.8143    0.3646   -3.2579 C   0  0  1  0  0  0  0  0  0  0  0  0
   11.9632    1.1509   -3.6200 O   0  0  0  0  0  0  0  0  0  0  0  0
   11.2269   -1.1045   -3.0853 C   0  0  2  0  0  0  0  0  0  0  0  0
   11.7605   -1.6003   -4.3212 O   0  0  0  0  0  0  0  0  0  0  0  0
    9.9688   -1.9226   -2.6909 C   0  0  2  0  0  0  0  0  0  0  0  0
    9.4130   -1.4220   -1.4408 O   0  0  0  0  0  0  0  0  0  0  0  0
   10.3554   -3.3994   -2.4984 C   0  0  0  0  0  0  0  0  0  0  0  0
   11.2631   -3.5224   -1.3883 O   0  0  0  0  0  0  0  0  0  0  0  0
  1  2  1  6  0  0  0
  1  3  1  0  0  0  0
  1  4  2  0  0  0  0
  1 16  1  0  0  0  0
  5  6  1  6  0  0  0
  5  7  1  0  0  0  0
  5 14  1  0  0  0  0
  7  8  1  6  0  0  0
  7  9  1  0  0  0  0
  9 10  1  1  0  0  0
  9 11  1  0  0  0  0
 11 12  1  6  0  0  0
 11 13  1  0  0  0  0
 13 14  1  0  0  0  0
 13 15  1  1  0  0  0
 15 16  1  0  0  0  0
M  CHG  1   3  -1
M  END
>  <CHROM.1>
64.44561148,177.84829415,62.73672584,10.74961473,-2.18287394,-2.08387831
1.28125514,-0.54555860,2.74464925

>  <Name>
ligand

>  <RI>
0

>  <Rbt.Current_Directory>
/home/itssahil/PROJECTS/Mol_Feturizer/New_Systems/rnas/3B4B

>  <Rbt.Executable>
rbdock ($Id: //depot/dev/client3/rdock/2013.1/src/exe/rbdock.cxx#4 $)

>  <Rbt.Library>
libRbt.so (2013.1, Build901 2013/11/27)

>  <Rbt.Parameter_File>
/export/apps/rDock/src/rDock_2013.1_src/data/scripts/dock_solv.prm

>  <Rbt.Receptor>
prm/blind_docking_20.prm

>  <SCORE>
-7.09665

>  <SCORE.INTER>
-5.36214

>  <SCORE.INTER.CONST>
1

>  <SCORE.INTER.POLAR>
0

>  <SCORE.INTER.ROT>
3

>  <SCORE.INTER.SOLV>
18.2906

>  <SCORE.INTER.VDW>
-15.2716

>  <SCORE.INTER.norm>
-0.335134

>  <SCORE.INTRA>
-1.7345

>  <SCORE.INTRA.DIHEDRAL>
-2.11037

>  <SCORE.INTRA.DIHEDRAL.0>
2.21864

>  <SCORE.INTRA.POLAR>
0

>  <SCORE.INTRA.POLAR.0>
0

>  <SCORE.INTRA.REPUL>
0

>  <SCORE.INTRA.REPUL.0>
0

>  <SCORE.INTRA.SOLV>
-0.905952

>  <SCORE.INTRA.SOLV.lig_0>
-58.5963

>  <SCORE.INTRA.VDW>
-0.226342

>  <SCORE.INTRA.VDW.0>
-0.437849

>  <SCORE.INTRA.norm>
-0.108406

>  <SCORE.RESTR>
0

>  <SCORE.RESTR.CAVITY>
0

>  <SCORE.RESTR.norm>
0

>  <SCORE.SYSTEM>
0

>  <SCORE.SYSTEM.CONST>
0

>  <SCORE.SYSTEM.DIHEDRAL>
0

>  <SCORE.SYSTEM.SOLV>
0

>  <SCORE.SYSTEM.norm>
0

>  <SCORE.heavy>
16

>  <SCORE.norm>
-0.44354

>  <RMSD>
41.039

$$$$
ligand
 OpenBabel11021811463D
libRbt.so/2013.1/901 2013/11/27
 16 16  0  0  0  0  0  0  0  0999 V2000
   14.0770   -6.0019   -3.1078 P   0  0  2  0  0  0  0  0  0  0  0  0
   13.3260   -7.2221   -3.4927 O   0  0  0  0  0  0  0  0  0  0  0  0
   15.2376   -5.6981   -4.1810 O   0  5  0  0  0  0  0  0  0  0  0  0
   14.7628   -6.2347   -1.6587 O   0  0  0  0  0  0  0  0  0  0  0  0
    9.7279   -2.1891   -2.9044 C   0  0  2  0  0  0  0  0  0  0  0  0
   10.6006   -1.0640   -2.7246 O   0  0  0  0  0  0  0  0  0  0  0  0
    8.7143   -2.3188   -1.7325 C   0  0  2  0  0  0  0  0  0  0  0  0
    7.9177   -1.0771   -1.6199 N   0  0  0  0  0  0  0  0  0  0  0  0
    9.4998   -2.5654   -0.4271 C   0  0  1  0  0  0  0  0  0  0  0  0
    8.5920   -2.7106    0.6793 O   0  0  0  0  0  0  0  0  0  0  0  0
   10.3161   -3.8548   -0.5987 C   0  0  2  0  0  0  0  0  0  0  0  0
   11.0718   -4.1053    0.5947 O   0  0  0  0  0  0  0  0  0  0  0  0
   11.2794   -3.6674   -1.8005 C   0  0  2  0  0  0  0  0  0  0  0  0
   10.5228   -3.4036   -3.0171 O   0  0  0  0  0  0  0  0  0  0  0  0
   12.1029   -4.9510   -2.0043 C   0  0  0  0  0  0  0  0  0  0  0  0
   13.0492   -4.7559   -3.0710 O   0  0  0  0  0  0  0  0  0  0  0  0
  1  2  1  6  0  0  0
  1  3  1  0  0  0  0
  1  4  2  0  0  0  0
  1 16  1  0  0  0  0
  5  6  1  1  0  0  0
  5  7  1  0  0  0  0
  5 14  1  0  0  0  0
  7  8  1  1  0  0  0
  7  9  1  0  0  0  0
  9 10  1  1  0  0  0
  9 11  1  0  0  0  0
 11 12  1  1  0  0  0
 11 13  1  0  0  0  0
 13 14  1  0  0  0  0
 13 15  1  6  0  0  0
 15 16  1  0  0  0  0
M  CHG  1   3  -1
M  END
>  <CHROM.1>
-176.85795286,170.15470972,66.46825186,11.56759051,-4.06011405,-2.03952584
0.01165214,0.71343296,-1.11516555

>  <Name>
ligand

>  <RI>
0

>  <Rbt.Current_Directory>
/home/itssahil/PROJECTS/Mol_Feturizer/New_Systems/rnas/3B4B

>  <Rbt.Executable>
rbdock ($Id: //depot/dev/client3/rdock/2013.1/src/exe/rbdock.cxx#4 $)

>  <Rbt.Library>
libRbt.so (2013.1, Build901 2013/11/27)

>  <Rbt.Parameter_File>
/export/apps/rDock/src/rDock_2013.1_src/data/scripts/dock_solv.prm

>  <Rbt.Receptor>
prm/blind_docking_20.prm

>  <SCORE>
-7.43292

>  <SCORE.INTER>
-5.92788

>  <SCORE.INTER.CONST>
1

>  <SCORE.INTER.POLAR>
0

>  <SCORE.INTER.ROT>
3

>  <SCORE.INTER.SOLV>
10.6314

>  <SCORE.INTER.VDW>
-13.0957

>  <SCORE.INTER.norm>
-0.370492

>  <SCORE.INTRA>
-1.50504

>  <SCORE.INTRA.DIHEDRAL>
-1.64419

>  <SCORE.INTRA.DIHEDRAL.0>
2.21864

>  <SCORE.INTRA.POLAR>
0

>  <SCORE.INTRA.POLAR.0>
0

>  <SCORE.INTRA.REPUL>
0

>  <SCORE.INTRA.REPUL.0>
0

>  <SCORE.INTRA.SOLV>
-1.11409

>  <SCORE.INTRA.SOLV.lig_0>
-58.5963

>  <SCORE.INTRA.VDW>
-0.125897

>  <SCORE.INTRA.VDW.0>
-0.437849

>  <SCORE.INTRA.norm>
-0.0940648

>  <SCORE.RESTR>
0

>  <SCORE.RESTR.CAVITY>
0

>  <SCORE.RESTR.norm>
0

>  <SCORE.SYSTEM>
0

>  <SCORE.SYSTEM.CONST>
0

>  <SCORE.SYSTEM.DIHEDRAL>
0

>  <SCORE.SYSTEM.SOLV>
0

>  <SCORE.SYSTEM.norm>
0

>  <SCORE.heavy>
16

>  <SCORE.norm>
-0.464557

>  <RMSD>
41.039

$$$$
ligand
 OpenBabel11021811463D
libRbt.so/2013.1/901 2013/11/27
 16 16  0  0  0  0  0  0  0  0999 V2000
   10.5620   -3.9309   -1.5938 P   0  0  2  0  0  0  0  0  0  0  0  0
    9.6216   -4.6842   -0.7282 O   0  0  0  0  0  0  0  0  0  0  0  0
   11.6209   -4.9341   -2.2745 O   0  5  0  0  0  0  0  0  0  0  0  0
   11.3741   -2.8594   -0.6901 O   0  0  0  0  0  0  0  0  0  0  0  0
   10.8902    0.8002   -3.6316 C   0  0  2  0  0  0  0  0  0  0  0  0
   12.2018    0.4843   -3.1423 O   0  0  0  0  0  0  0  0  0  0  0  0
   10.2486    1.9695   -2.8324 C   0  0  2  0  0  0  0  0  0  0  0  0
   11.1165    3.1652   -2.9112 N   0  0  0  0  0  0  0  0  0  0  0  0
   10.0841    1.5292   -1.3624 C   0  0  1  0  0  0  0  0  0  0  0  0
    9.4739    2.5810   -0.5938 O   0  0  0  0  0  0  0  0  0  0  0  0
    9.1876    0.2827   -1.3359 C   0  0  2  0  0  0  0  0  0  0  0  0
    9.0266   -0.1625    0.0183 O   0  0  0  0  0  0  0  0  0  0  0  0
    9.8704   -0.8286   -2.1763 C   0  0  2  0  0  0  0  0  0  0  0  0
   10.0469   -0.3840   -3.5522 O   0  0  0  0  0  0  0  0  0  0  0  0
    8.9865   -2.0881   -2.1780 C   0  0  0  0  0  0  0  0  0  0  0  0
    9.7134   -3.1899   -2.7518 O   0  0  0  0  0  0  0  0  0  0  0  0
  1  2  1  1  0  0  0
  1  3  1  0  0  0  0
  1  4  2  0  0  0  0
  1 16  1  0  0  0  0
  5  6  1  1  0  0  0
  5  7  1  0  0  0  0
  5 14  1  0  0  0  0
  7  8  1  1  0  0  0
  7  9  1  0  0  0  0
  9 10  1  1  0  0  0
  9 11  1  0  0  0  0
 11 12  1  1  0  0  0
 11 13  1  0  0  0  0
 13 14  1  0  0  0  0
 13 15  1  6  0  0  0
 15 16  1  0  0  0  0
M  CHG  1   3  -1
M  END
>  <CHROM.1>
-169.98014266,87.51599672,72.49109277,10.28461780,-1.06396609,-1.93471054
-1.52712516,0.93148783,-0.12820646

>  <Name>
ligand

>  <RI>
0

>  <Rbt.Current_Directory>
/home/itssahil/PROJECTS/Mol_Feturizer/New_Systems/rnas/3B4B

>  <Rbt.Executable>
rbdock ($Id: //depot/dev/client3/rdock/2013.1/src/exe/rbdock.cxx#4 $)

>  <Rbt.Library>
libRbt.so (2013.1, Build901 2013/11/27)

>  <Rbt.Parameter_File>
/export/apps/rDock/src/rDock_2013.1_src/data/scripts/dock_solv.prm

>  <Rbt.Receptor>
prm/blind_docking_20.prm

>  <SCORE>
-8.06325

>  <SCORE.INTER>
-9.10509

>  <SCORE.INTER.CONST>
1

>  <SCORE.INTER.POLAR>
0

>  <SCORE.INTER.ROT>
3

>  <SCORE.INTER.SOLV>
17.5621

>  <SCORE.INTER.VDW>
-17.5241

>  <SCORE.INTER.norm>
-0.569068

>  <SCORE.INTRA>
1.03902

>  <SCORE.INTRA.DIHEDRAL>
1.52236

>  <SCORE.INTRA.DIHEDRAL.0>
2.21864

>  <SCORE.INTRA.POLAR>
0

>  <SCORE.INTRA.POLAR.0>
0

>  <SCORE.INTRA.REPUL>
0

>  <SCORE.INTRA.REPUL.0>
0

>  <SCORE.INTRA.SOLV>
1.44303

>  <SCORE.INTRA.SOLV.lig_0>
-58.5963

>  <SCORE.INTRA.VDW>
-0.443673

>  <SCORE.INTRA.VDW.0>
-0.437849

>  <SCORE.INTRA.norm>
0.0649389

>  <SCORE.RESTR>
0.00281765

>  <SCORE.RESTR.CAVITY>
0.00281765

>  <SCORE.RESTR.norm>
0.000176103

>  <SCORE.SYSTEM>
0

>  <SCORE.SYSTEM.CONST>
0

>  <SCORE.SYSTEM.DIHEDRAL>
0

>  <SCORE.SYSTEM.SOLV>
0

>  <SCORE.SYSTEM.norm>
0

>  <SCORE.heavy>
16

>  <SCORE.norm>
-0.503953

>  <RMSD>
41.047

$$$$
ligand
 OpenBabel11021811463D
libRbt.so/2013.1/901 2013/11/27
 16 16  0  0  0  0  0  0  0  0999 V2000
   11.1257   -5.1959   -1.2073 P   0  0  2  0  0  0  0  0  0  0  0  0
   10.3015   -6.1801   -1.9510 O   0  0  0  0  0  0  0  0  0  0  0  0
   12.6029   -5.1115   -1.8414 O   0  5  0  0  0  0  0  0  0  0  0  0
   11.2537   -5.6686    0.3368 O   0  0  0  0  0  0  0  0  0  0  0  0
    9.8568    0.3041   -1.1935 C   0  0  2  0  0  0  0  0  0  0  0  0
    8.4551    0.2351   -1.4936 O   0  0  0  0  0  0  0  0  0  0  0  0
   10.6116    1.2209   -2.1972 C   0  0  2  0  0  0  0  0  0  0  0  0
   10.0245    2.5788   -2.1736 N   0  0  0  0  0  0  0  0  0  0  0  0
   10.4855    0.6129   -3.6101 C   0  0  1  0  0  0  0  0  0  0  0  0
   11.1898    1.4255   -4.5655 O   0  0  0  0  0  0  0  0  0  0  0  0
   11.0968   -0.7955   -3.5789 C   0  0  2  0  0  0  0  0  0  0  0  0
   10.9818   -1.3961   -4.8766 O   0  0  0  0  0  0  0  0  0  0  0  0
   10.3195   -1.6430   -2.5373 C   0  0  2  0  0  0  0  0  0  0  0  0
   10.4222   -1.0374   -1.2164 O   0  0  0  0  0  0  0  0  0  0  0  0
   10.9196   -3.0584   -2.4753 C   0  0  0  0  0  0  0  0  0  0  0  0
   10.4186   -3.7473   -1.3152 O   0  0  0  0  0  0  0  0  0  0  0  0
  1  2  1  6  0  0  0
  1  3  1  0  0  0  0
  1  4  2  0  0  0  0
  1 16  1  0  0  0  0
  5  6  1  6  0  0  0
  5  7  1  0  0  0  0
  5 14  1  0  0  0  0
  7  8  1  6  0  0  0
  7  9  1  0  0  0  0
  9 10  1  6  0  0  0
  9 11  1  0  0  0  0
 11 12  1  6  0  0  0
 11 13  1  0  0  0  0
 13 14  1  0  0  0  0
 13 15  1  1  0  0  0
 15 16  1  0  0  0  0
M  CHG  1   3  -1
M  END
>  <CHROM.1>
166.91613333,-176.41912644,-90.11053086,10.67026701,-2.04407305,-2.15824935
1.27598558,-1.10649940,2.60851142

>  <Name>
ligand

>  <RI>
0

>  <Rbt.Current_Directory>
/home/itssahil/PROJECTS/Mol_Feturizer/New_Systems/rnas/3B4B

>  <Rbt.Executable>
rbdock ($Id: //depot/dev/client3/rdock/2013.1/src/exe/rbdock.cxx#4 $)

>  <Rbt.Library>
libRbt.so (2013.1, Build901 2013/11/27)

>  <Rbt.Parameter_File>
/export/apps/rDock/src/rDock_2013.1_src/data/scripts/dock_solv.prm

>  <Rbt.Receptor>
prm/blind_docking_20.prm

>  <SCORE>
-8.20394

>  <SCORE.INTER>
-8.10524

>  <SCORE.INTER.CONST>
1

>  <SCORE.INTER.POLAR>
0

>  <SCORE.INTER.ROT>
3

>  <SCORE.INTER.SOLV>
17.3537

>  <SCORE.INTER.VDW>
-16.7881

>  <SCORE.INTER.norm>
-0.506577

>  <SCORE.INTRA>
-0.0986993

>  <SCORE.INTRA.DIHEDRAL>
-0.359846

>  <SCORE.INTRA.DIHEDRAL.0>
2.21864

>  <SCORE.INTRA.POLAR>
0

>  <SCORE.INTRA.POLAR.0>
0

>  <SCORE.INTRA.REPUL>
0

>  <SCORE.INTRA.REPUL.0>
0

>  <SCORE.INTRA.SOLV>
-0.794924

>  <SCORE.INTRA.SOLV.lig_0>
-58.5963

>  <SCORE.INTRA.VDW>
0.478686

>  <SCORE.INTRA.VDW.0>
-0.437849

>  <SCORE.INTRA.norm>
-0.00616871

>  <SCORE.RESTR>
0

>  <SCORE.RESTR.CAVITY>
0

>  <SCORE.RESTR.norm>
0

>  <SCORE.SYSTEM>
0

>  <SCORE.SYSTEM.CONST>
0

>  <SCORE.SYSTEM.DIHEDRAL>
0

>  <SCORE.SYSTEM.SOLV>
0

>  <SCORE.SYSTEM.norm>
0

>  <SCORE.heavy>
16

>  <SCORE.norm>
-0.512746

>  <RMSD>
41.059

$$$$
ligand
 OpenBabel11021811463D
libRbt.so/2013.1/901 2013/11/27
 16 16  0  0  0  0  0  0  0  0999 V2000
   11.4546   -5.2908   -1.6761 P   0  0  2  0  0  0  0  0  0  0  0  0
   10.2629   -6.1661   -1.7972 O   0  0  0  0  0  0  0  0  0  0  0  0
   12.6976   -5.9247   -2.4787 O   0  5  0  0  0  0  0  0  0  0  0  0
   11.8620   -5.1607   -0.1136 O   0  0  0  0  0  0  0  0  0  0  0  0
   10.3314    0.2569   -2.9057 C   0  0  2  0  0  0  0  0  0  0  0  0
   11.6912    0.5532   -2.5552 O   0  0  0  0  0  0  0  0  0  0  0  0
    9.3278    0.9918   -1.9727 C   0  0  2  0  0  0  0  0  0  0  0  0
    9.5582    2.4517   -2.0407 N   0  0  0  0  0  0  0  0  0  0  0  0
    9.5382    0.4881   -0.5292 C   0  0  1  0  0  0  0  0  0  0  0  0
    8.6115    1.1331    0.3622 O   0  0  0  0  0  0  0  0  0  0  0  0
    9.2993   -1.0288   -0.5143 C   0  0  2  0  0  0  0  0  0  0  0  0
    9.5023   -1.5323    0.8135 O   0  0  0  0  0  0  0  0  0  0  0  0
   10.3091   -1.6924   -1.4876 C   0  0  2  0  0  0  0  0  0  0  0  0
   10.1179   -1.1818   -2.8384 O   0  0  0  0  0  0  0  0  0  0  0  0
   10.0842   -3.2144   -1.5028 C   0  0  0  0  0  0  0  0  0  0  0  0
   11.0976   -3.8464   -2.3059 O   0  0  0  0  0  0  0  0  0  0  0  0
  1  2  1  6  0  0  0
  1  3  1  0  0  0  0
  1  4  2  0  0  0  0
  1 16  1  0  0  0  0
  5  6  1  1  0  0  0
  5  7  1  0  0  0  0
  5 14  1  0  0  0  0
  7  8  1  1  0  0  0
  7  9  1  0  0  0  0
  9 10  1  1  0  0  0
  9 11  1  0  0  0  0
 11 12  1  1  0  0  0
 11 13  1  0  0  0  0
 13 14  1  0  0  0  0
 13 15  1  6  0  0  0
 15 16  1  0  0  0  0
M  CHG  1   3  -1
M  END
>  <CHROM.1>
-174.64523768,146.01332510,65.84912756,10.46800226,-2.14773834,-1.47818923
-1.00230039,1.01844726,-0.44561687

>  <Name>
ligand

>  <RI>
0

>  <Rbt.Current_Directory>
/home/itssahil/PROJECTS/Mol_Feturizer/New_Systems/rnas/3B4B

>  <Rbt.Executable>
rbdock ($Id: //depot/dev/client3/rdock/2013.1/src/exe/rbdock.cxx#4 $)

>  <Rbt.Library>
libRbt.so (2013.1, Build901 2013/11/27)

>  <Rbt.Parameter_File>
/export/apps/rDock/src/rDock_2013.1_src/data/scripts/dock_solv.prm

>  <Rbt.Receptor>
prm/blind_docking_40.prm

>  <SCORE>
-5.55105

>  <SCORE.INTER>
-5.95384

>  <SCORE.INTER.CONST>
1

>  <SCORE.INTER.POLAR>
0

>  <SCORE.INTER.ROT>
3

>  <SCORE.INTER.SOLV>
15.5689

>  <SCORE.INTER.VDW>
-14.7589

>  <SCORE.INTER.norm>
-0.372115

>  <SCORE.INTRA>
0.402791

>  <SCORE.INTRA.DIHEDRAL>
2.28925

>  <SCORE.INTRA.DIHEDRAL.0>
2.21864

>  <SCORE.INTRA.POLAR>
0

>  <SCORE.INTRA.POLAR.0>
0

>  <SCORE.INTRA.REPUL>
0

>  <SCORE.INTRA.REPUL.0>
0

>  <SCORE.INTRA.SOLV>
-0.974

>  <SCORE.INTRA.SOLV.lig_0>
-58.5963

>  <SCORE.INTRA.VDW>
-0.254836

>  <SCORE.INTRA.VDW.0>
-0.437849

>  <SCORE.INTRA.norm>
0.0251744

>  <SCORE.RESTR>
0

>  <SCORE.RESTR.CAVITY>
0

>  <SCORE.RESTR.norm>
0

>  <SCORE.SYSTEM>
0

>  <SCORE.SYSTEM.CONST>
0

>  <SCORE.SYSTEM.DIHEDRAL>
0

>  <SCORE.SYSTEM.SOLV>
0

>  <SCORE.SYSTEM.norm>
0

>  <SCORE.heavy>
16

>  <SCORE.norm>
-0.346941

>  <RMSD>
41.078

$$$$
ligand
 OpenBabel11021811463D
libRbt.so/2013.1/901 2013/11/27
 16 16  0  0  0  0  0  0  0  0999 V2000
   10.5246   -4.6790   -1.0093 P   0  0  2  0  0  0  0  0  0  0  0  0
   10.2946   -6.0654   -1.4849 O   0  0  0  0  0  0  0  0  0  0  0  0
   11.3797   -3.8510   -2.0929 O   0  5  0  0  0  0  0  0  0  0  0  0
   11.3577   -4.7247    0.3792 O   0  0  0  0  0  0  0  0  0  0  0  0
    9.7649   -0.5819   -3.0585 C   0  0  2  0  0  0  0  0  0  0  0  0
   11.0947   -0.9839   -3.4185 O   0  0  0  0  0  0  0  0  0  0  0  0
    9.7548    0.8180   -2.3817 C   0  0  2  0  0  0  0  0  0  0  0  0
   10.3537    1.8185   -3.2924 N   0  0  0  0  0  0  0  0  0  0  0  0
   10.5683    0.7378   -1.0727 C   0  0  1  0  0  0  0  0  0  0  0  0
   10.5651    2.0129   -0.4068 O   0  0  0  0  0  0  0  0  0  0  0  0
    9.9149   -0.3186   -0.1697 C   0  0  2  0  0  0  0  0  0  0  0  0
   10.6578   -0.4291    1.0526 O   0  0  0  0  0  0  0  0  0  0  0  0
    9.9297   -1.6779   -0.9178 C   0  0  2  0  0  0  0  0  0  0  0  0
    9.1852   -1.5751   -2.1656 O   0  0  0  0  0  0  0  0  0  0  0  0
    9.2686   -2.7549   -0.0401 C   0  0  0  0  0  0  0  0  0  0  0  0
    9.0915   -3.9617   -0.8041 O   0  0  0  0  0  0  0  0  0  0  0  0
  1  2  1  6  0  0  0
  1  3  1  0  0  0  0
  1  4  2  0  0  0  0
  1 16  1  0  0  0  0
  5  6  1  1  0  0  0
  5  7  1  0  0  0  0
  5 14  1  0  0  0  0
  7  8  1  6  0  0  0
  7  9  1  0  0  0  0
  9 10  1  1  0  0  0
  9 11  1  0  0  0  0
 11 12  1  1  0  0  0
 11 13  1  0  0  0  0
 13 14  1  0  0  0  0
 13 15  1  1  0  0  0
 15 16  1  0  0  0  0
M  CHG  1   3  -1
M  END
>  <CHROM.1>
171.10661429,73.37551819,165.85342932,10.27007087,-1.92248504,-1.26911010
0.07748488,1.53999754,-1.78764134

>  <Name>
ligand

>  <RI>
0

>  <Rbt.Current_Directory>
/home/itssahil/PROJECTS/Mol_Feturizer/New_Systems/rnas/3B4B

>  <Rbt.Executable>
rbdock ($Id: //depot/dev/client3/rdock/2013.1/src/exe/rbdock.cxx#4 $)

>  <Rbt.Library>
libRbt.so (2013.1, Build901 2013/11/27)

>  <Rbt.Parameter_File>
/export/apps/rDock/src/rDock_2013.1_src/data/scripts/dock_solv.prm

>  <Rbt.Receptor>
prm/blind_docking_20.prm

>  <SCORE>
-6.94253

>  <SCORE.INTER>
-7.91218

>  <SCORE.INTER.CONST>
1

>  <SCORE.INTER.POLAR>
0

>  <SCORE.INTER.ROT>
3

>  <SCORE.INTER.SOLV>
10.7491

>  <SCORE.INTER.VDW>
-14.4578

>  <SCORE.INTER.norm>
-0.494511

>  <SCORE.INTRA>
0.969655

>  <SCORE.INTRA.DIHEDRAL>
-0.780277

>  <SCORE.INTRA.DIHEDRAL.0>
2.21864

>  <SCORE.INTRA.POLAR>
0

>  <SCORE.INTRA.POLAR.0>
0

>  <SCORE.INTRA.REPUL>
0

>  <SCORE.INTRA.REPUL.0>
0

>  <SCORE.INTRA.SOLV>
3.35046

>  <SCORE.INTRA.SOLV.lig_0>
-58.5963

>  <SCORE.INTRA.VDW>
-0.315438

>  <SCORE.INTRA.VDW.0>
-0.437849

>  <SCORE.INTRA.norm>
0.0606034

>  <SCORE.RESTR>
0

>  <SCORE.RESTR.CAVITY>
0

>  <SCORE.RESTR.norm>
0

>  <SCORE.SYSTEM>
0

>  <SCORE.SYSTEM.CONST>
0

>  <SCORE.SYSTEM.DIHEDRAL>
0

>  <SCORE.SYSTEM.SOLV>
0

>  <SCORE.SYSTEM.norm>
0

>  <SCORE.heavy>
16

>  <SCORE.norm>
-0.433908

>  <RMSD>
41.086

$$$$
ligand
 OpenBabel11021811463D
libRbt.so/2013.1/901 2013/11/27
 16 16  0  0  0  0  0  0  0  0999 V2000
   11.5321   -5.1946   -1.3870 P   0  0  2  0  0  0  0  0  0  0  0  0
   12.6262   -5.4737   -2.3493 O   0  0  0  0  0  0  0  0  0  0  0  0
   12.0073   -5.5333    0.1131 O   0  5  0  0  0  0  0  0  0  0  0  0
   10.2570   -6.1268   -1.7469 O   0  0  0  0  0  0  0  0  0  0  0  0
    9.8523    0.2116    0.1571 C   0  0  2  0  0  0  0  0  0  0  0  0
    8.4428    0.3835    0.3658 O   0  0  0  0  0  0  0  0  0  0  0  0
   10.3151    0.8583   -1.1790 C   0  0  2  0  0  0  0  0  0  0  0  0
    9.9781    2.2990   -1.1810 N   0  0  0  0  0  0  0  0  0  0  0  0
    9.5994    0.1445   -2.3453 C   0  0  1  0  0  0  0  0  0  0  0  0
   10.0183    0.7041   -3.6025 O   0  0  0  0  0  0  0  0  0  0  0  0
    9.9713   -1.3445   -2.2926 C   0  0  2  0  0  0  0  0  0  0  0  0
    9.3086   -2.0414   -3.3571 O   0  0  0  0  0  0  0  0  0  0  0  0
    9.5114   -1.9153   -0.9250 C   0  0  2  0  0  0  0  0  0  0  0  0
   10.1718   -1.2088    0.1643 O   0  0  0  0  0  0  0  0  0  0  0  0
    9.8832   -3.4059   -0.8388 C   0  0  0  0  0  0  0  0  0  0  0  0
   11.1517   -3.6273   -1.4818 O   0  0  0  0  0  0  0  0  0  0  0  0
  1  2  1  6  0  0  0
  1  3  1  0  0  0  0
  1  4  2  0  0  0  0
  1 16  1  0  0  0  0
  5  6  1  6  0  0  0
  5  7  1  0  0  0  0
  5 14  1  0  0  0  0
  7  8  1  1  0  0  0
  7  9  1  0  0  0  0
  9 10  1  6  0  0  0
  9 11  1  0  0  0  0
 11 12  1  6  0  0  0
 11 13  1  0  0  0  0
 13 14  1  0  0  0  0
 13 15  1  6  0  0  0
 15 16  1  0  0  0  0
M  CHG  1   3  -1
M  END
>  <CHROM.1>
36.75642863,-179.95024079,164.81729427,10.39459683,-2.26050093,-1.37764410
-0.18705331,1.26938694,-1.36742911

>  <Name>
ligand

>  <RI>
0

>  <Rbt.Current_Directory>
/home/itssahil/PROJECTS/Mol_Feturizer/New_Systems/rnas/3B4B

>  <Rbt.Executable>
rbdock ($Id: //depot/dev/client3/rdock/2013.1/src/exe/rbdock.cxx#4 $)

>  <Rbt.Library>
libRbt.so (2013.1, Build901 2013/11/27)

>  <Rbt.Parameter_File>
/export/apps/rDock/src/rDock_2013.1_src/data/scripts/dock_solv.prm

>  <Rbt.Receptor>
prm/blind_docking_20.prm

>  <SCORE>
-4.1538

>  <SCORE.INTER>
-4.18674

>  <SCORE.INTER.CONST>
1

>  <SCORE.INTER.POLAR>
0

>  <SCORE.INTER.ROT>
3

>  <SCORE.INTER.SOLV>
18.4022

>  <SCORE.INTER.VDW>
-14.5252

>  <SCORE.INTER.norm>
-0.261671

>  <SCORE.INTRA>
0.0329399

>  <SCORE.INTRA.DIHEDRAL>
-0.139919

>  <SCORE.INTRA.DIHEDRAL.0>
2.21864

>  <SCORE.INTRA.POLAR>
0

>  <SCORE.INTRA.POLAR.0>
0

>  <SCORE.INTRA.REPUL>
0

>  <SCORE.INTRA.REPUL.0>
0

>  <SCORE.INTRA.SOLV>
-0.162268

>  <SCORE.INTRA.SOLV.lig_0>
-58.5963

>  <SCORE.INTRA.VDW>
0.184033

>  <SCORE.INTRA.VDW.0>
-0.437849

>  <SCORE.INTRA.norm>
0.00205875

>  <SCORE.RESTR>
0

>  <SCORE.RESTR.CAVITY>
0

>  <SCORE.RESTR.norm>
0

>  <SCORE.SYSTEM>
0

>  <SCORE.SYSTEM.CONST>
0

>  <SCORE.SYSTEM.DIHEDRAL>
0

>  <SCORE.SYSTEM.SOLV>
0

>  <SCORE.SYSTEM.norm>
0

>  <SCORE.heavy>
16

>  <SCORE.norm>
-0.259612

>  <RMSD>
41.087

$$$$
ligand
 OpenBabel11021811463D
libRbt.so/2013.1/901 2013/11/27
 16 16  0  0  0  0  0  0  0  0999 V2000
    9.9386    1.7019   -1.8604 P   0  0  2  0  0  0  0  0  0  0  0  0
    9.3673    2.9910   -1.3989 O   0  0  0  0  0  0  0  0  0  0  0  0
   10.8022    1.0206   -0.6852 O   0  5  0  0  0  0  0  0  0  0  0  0
   10.9135    1.9748   -3.1250 O   0  0  0  0  0  0  0  0  0  0  0  0
    9.4193   -3.1449   -0.5368 C   0  0  2  0  0  0  0  0  0  0  0  0
   10.1912   -2.4866    0.4784 O   0  0  0  0  0  0  0  0  0  0  0  0
   10.2769   -4.1692   -1.3324 C   0  0  2  0  0  0  0  0  0  0  0  0
   10.8477   -5.1712   -0.4054 N   0  0  0  0  0  0  0  0  0  0  0  0
   11.4092   -3.4082   -2.0538 C   0  0  1  0  0  0  0  0  0  0  0  0
   12.2144   -4.3229   -2.8182 O   0  0  0  0  0  0  0  0  0  0  0  0
   10.7670   -2.3762   -2.9923 C   0  0  2  0  0  0  0  0  0  0  0  0
   11.7952   -1.6391   -3.6687 O   0  0  0  0  0  0  0  0  0  0  0  0
    9.9033   -1.4100   -2.1390 C   0  0  2  0  0  0  0  0  0  0  0  0
    8.8605   -2.1492   -1.4402 O   0  0  0  0  0  0  0  0  0  0  0  0
    9.2361   -0.3706   -3.0565 C   0  0  0  0  0  0  0  0  0  0  0  0
    8.7236    0.7169   -2.2651 O   0  0  0  0  0  0  0  0  0  0  0  0
  1  2  1  1  0  0  0
  1  3  1  0  0  0  0
  1  4  2  0  0  0  0
  1 16  1  0  0  0  0
  5  6  1  1  0  0  0
  5  7  1  0  0  0  0
  5 14  1  0  0  0  0
  7  8  1  1  0  0  0
  7  9  1  0  0  0  0
  9 10  1  6  0  0  0
  9 11  1  0  0  0  0
 11 12  1  1  0  0  0
 11 13  1  0  0  0  0
 13 14  1  0  0  0  0
 13 15  1  6  0  0  0
 15 16  1  0  0  0  0
M  CHG  1   3  -1
M  END
>  <CHROM.1>
-165.32660033,78.64147957,163.86019796,10.27076506,-1.09524756,-1.83584371
1.86981851,0.96216702,-0.33470094

>  <Name>
ligand

>  <RI>
0

>  <Rbt.Current_Directory>
/home/itssahil/PROJECTS/Mol_Feturizer/New_Systems/rnas/3B4B

>  <Rbt.Executable>
rbdock ($Id: //depot/dev/client3/rdock/2013.1/src/exe/rbdock.cxx#4 $)

>  <Rbt.Library>
libRbt.so (2013.1, Build901 2013/11/27)

>  <Rbt.Parameter_File>
/export/apps/rDock/src/rDock_2013.1_src/data/scripts/dock_solv.prm

>  <Rbt.Receptor>
prm/blind_docking_20.prm

>  <SCORE>
-8.46758

>  <SCORE.INTER>
-9.71236

>  <SCORE.INTER.CONST>
1

>  <SCORE.INTER.POLAR>
0

>  <SCORE.INTER.ROT>
3

>  <SCORE.INTER.SOLV>
14.1131

>  <SCORE.INTER.VDW>
-16.7793

>  <SCORE.INTER.norm>
-0.607023

>  <SCORE.INTRA>
1.24479

>  <SCORE.INTRA.DIHEDRAL>
0.507701

>  <SCORE.INTRA.DIHEDRAL.0>
2.21864

>  <SCORE.INTRA.POLAR>
0

>  <SCORE.INTRA.POLAR.0>
0

>  <SCORE.INTRA.REPUL>
0

>  <SCORE.INTRA.REPUL.0>
0

>  <SCORE.INTRA.SOLV>
3.07184

>  <SCORE.INTRA.SOLV.lig_0>
-58.5963

>  <SCORE.INTRA.VDW>
-0.544984

>  <SCORE.INTRA.VDW.0>
-0.437849

>  <SCORE.INTRA.norm>
0.0777991

>  <SCORE.RESTR>
0

>  <SCORE.RESTR.CAVITY>
0

>  <SCORE.RESTR.norm>
0

>  <SCORE.SYSTEM>
0

>  <SCORE.SYSTEM.CONST>
0

>  <SCORE.SYSTEM.DIHEDRAL>
0

>  <SCORE.SYSTEM.SOLV>
0

>  <SCORE.SYSTEM.norm>
0

>  <SCORE.heavy>
16

>  <SCORE.norm>
-0.529224

>  <RMSD>
41.095

$$$$
ligand
 OpenBabel11021811463D
libRbt.so/2013.1/901 2013/11/27
 16 16  0  0  0  0  0  0  0  0999 V2000
   11.4332   -5.1568   -1.0477 P   0  0  2  0  0  0  0  0  0  0  0  0
   10.2111   -5.9925   -1.1436 O   0  0  0  0  0  0  0  0  0  0  0  0
   12.4720   -5.5502   -2.2127 O   0  5  0  0  0  0  0  0  0  0  0  0
   12.1431   -5.4155    0.3852 O   0  0  0  0  0  0  0  0  0  0  0  0
    8.9478   -0.0650   -1.5233 C   0  0  2  0  0  0  0  0  0  0  0  0
    7.9388    0.0692   -2.5350 O   0  0  0  0  0  0  0  0  0  0  0  0
   10.1913    0.8144   -1.8365 C   0  0  2  0  0  0  0  0  0  0  0  0
    9.7846    2.2319   -1.9566 N   0  0  0  0  0  0  0  0  0  0  0  0
   10.8173    0.3280   -3.1607 C   0  0  1  0  0  0  0  0  0  0  0  0
   11.9850    1.1074   -3.4741 O   0  0  0  0  0  0  0  0  0  0  0  0
   11.2108   -1.1464   -2.9884 C   0  0  2  0  0  0  0  0  0  0  0  0
   11.7834   -1.6349   -4.2096 O   0  0  0  0  0  0  0  0  0  0  0  0
    9.9326   -1.9568   -2.6468 C   0  0  2  0  0  0  0  0  0  0  0  0
    9.3373   -1.4635   -1.4121 O   0  0  0  0  0  0  0  0  0  0  0  0
   10.2993   -3.4389   -2.4557 C   0  0  0  0  0  0  0  0  0  0  0  0
   11.0102   -3.6066   -1.2155 O   0  0  0  0  0  0  0  0  0  0  0  0
  1  2  1  6  0  0  0
  1  3  1  0  0  0  0
  1  4  2  0  0  0  0
  1 16  1  0  0  0  0
  5  6  1  6  0  0  0
  5  7  1  0  0  0  0
  5 14  1  0  0  0  0
  7  8  1  6  0  0  0
  7  9  1  0  0  0  0
  9 10  1  1  0  0  0
  9 11  1  0  0  0  0
 11 12  1  6  0  0  0
 11 13  1  0  0  0  0
 13 14  1  0  0  0  0
 13 15  1  1  0  0  0
 15 16  1  0  0  0  0
M  CHG  1   3  -1
M  END
>  <CHROM.1>
72.36103601,-178.14333898,-55.86879638,10.67427296,-2.23266024,-2.00567575
1.30769613,-0.54217725,2.75764461

>  <Name>
ligand

>  <RI>
0

>  <Rbt.Current_Directory>
/home/itssahil/PROJECTS/Mol_Feturizer/New_Systems/rnas/3B4B

>  <Rbt.Executable>
rbdock ($Id: //depot/dev/client3/rdock/2013.1/src/exe/rbdock.cxx#4 $)

>  <Rbt.Library>
libRbt.so (2013.1, Build901 2013/11/27)

>  <Rbt.Parameter_File>
/export/apps/rDock/src/rDock_2013.1_src/data/scripts/dock_solv.prm

>  <Rbt.Receptor>
prm/blind_docking_20.prm

>  <SCORE>
-8.75725

>  <SCORE.INTER>
-7.35904

>  <SCORE.INTER.CONST>
1

>  <SCORE.INTER.POLAR>
0

>  <SCORE.INTER.ROT>
3

>  <SCORE.INTER.SOLV>
15.8509

>  <SCORE.INTER.VDW>
-15.7897

>  <SCORE.INTER.norm>
-0.45994

>  <SCORE.INTRA>
-1.39821

>  <SCORE.INTRA.DIHEDRAL>
-1.63648

>  <SCORE.INTRA.DIHEDRAL.0>
2.21864

>  <SCORE.INTRA.POLAR>
0

>  <SCORE.INTRA.POLAR.0>
0

>  <SCORE.INTRA.REPUL>
0

>  <SCORE.INTRA.REPUL.0>
0

>  <SCORE.INTRA.SOLV>
-0.931966

>  <SCORE.INTRA.SOLV.lig_0>
-58.5963

>  <SCORE.INTRA.VDW>
-0.113985

>  <SCORE.INTRA.VDW.0>
-0.437849

>  <SCORE.INTRA.norm>
-0.0873879

>  <SCORE.RESTR>
0

>  <SCORE.RESTR.CAVITY>
0

>  <SCORE.RESTR.norm>
0

>  <SCORE.SYSTEM>
0

>  <SCORE.SYSTEM.CONST>
0

>  <SCORE.SYSTEM.DIHEDRAL>
0

>  <SCORE.SYSTEM.SOLV>
0

>  <SCORE.SYSTEM.norm>
0

>  <SCORE.heavy>
16

>  <SCORE.norm>
-0.547328

>  <RMSD>
41.096

$$$$
ligand
 OpenBabel11021811463D
libRbt.so/2013.1/901 2013/11/27
 16 16  0  0  0  0  0  0  0  0999 V2000
   11.4692   -5.1573   -1.1715 P   0  0  2  0  0  0  0  0  0  0  0  0
   10.2580   -6.0003   -1.3244 O   0  0  0  0  0  0  0  0  0  0  0  0
   12.5451   -5.5123   -2.3150 O   0  5  0  0  0  0  0  0  0  0  0  0
   12.1393   -5.4469    0.2747 O   0  0  0  0  0  0  0  0  0  0  0  0
    8.9524   -0.0751   -1.5505 C   0  0  2  0  0  0  0  0  0  0  0  0
    7.9371    0.0691   -2.5545 O   0  0  0  0  0  0  0  0  0  0  0  0
   10.1876    0.8190   -1.8546 C   0  0  2  0  0  0  0  0  0  0  0  0
    9.7697    2.2352   -1.9478 N   0  0  0  0  0  0  0  0  0  0  0  0
   10.8103    0.3605   -3.1902 C   0  0  1  0  0  0  0  0  0  0  0  0
   11.9706    1.1540   -3.4959 O   0  0  0  0  0  0  0  0  0  0  0  0
   11.2157   -1.1137   -3.0457 C   0  0  2  0  0  0  0  0  0  0  0  0
   11.7855   -1.5764   -4.2782 O   0  0  0  0  0  0  0  0  0  0  0  0
    9.9453   -1.9396   -2.7118 C   0  0  2  0  0  0  0  0  0  0  0  0
    9.3528   -1.4723   -1.4657 O   0  0  0  0  0  0  0  0  0  0  0  0
   10.3241   -3.4219   -2.5485 C   0  0  0  0  0  0  0  0  0  0  0  0
   11.0375   -3.6069   -1.3123 O   0  0  0  0  0  0  0  0  0  0  0  0
  1  2  1  6  0  0  0
  1  3  1  0  0  0  0
  1  4  2  0  0  0  0
  1 16  1  0  0  0  0
  5  6  1  6  0  0  0
  5  7  1  0  0  0  0
  5 14  1  0  0  0  0
  7  8  1  6  0  0  0
  7  9  1  0  0  0  0
  9 10  1  1  0  0  0
  9 11  1  0  0  0  0
 11 12  1  6  0  0  0
 11 13  1  0  0  0  0
 13 14  1  0  0  0  0
 13 15  1  1  0  0  0
 15 16  1  0  0  0  0
M  CHG  1   3  -1
M  END
>  <CHROM.1>
72.61066162,-178.31221952,-54.04161583,10.68905059,-2.22162199,-2.07723779
1.29933588,-0.54522326,2.76949632

>  <Name>
ligand

>  <RI>
0

>  <Rbt.Current_Directory>
/home/itssahil/PROJECTS/Mol_Feturizer/New_Systems/rnas/3B4B

>  <Rbt.Executable>
rbdock ($Id: //depot/dev/client3/rdock/2013.1/src/exe/rbdock.cxx#4 $)

>  <Rbt.Library>
libRbt.so (2013.1, Build901 2013/11/27)

>  <Rbt.Parameter_File>
/export/apps/rDock/src/rDock_2013.1_src/data/scripts/dock_solv.prm

>  <Rbt.Receptor>
prm/blind_docking_100.prm

>  <SCORE>
-8.77169

>  <SCORE.INTER>
-7.41648

>  <SCORE.INTER.CONST>
1

>  <SCORE.INTER.POLAR>
0

>  <SCORE.INTER.ROT>
3

>  <SCORE.INTER.SOLV>
15.9113

>  <SCORE.INTER.VDW>
-15.8481

>  <SCORE.INTER.norm>
-0.46353

>  <SCORE.INTRA>
-1.35521

>  <SCORE.INTRA.DIHEDRAL>
-1.58795

>  <SCORE.INTRA.DIHEDRAL.0>
2.21864

>  <SCORE.INTRA.POLAR>
0

>  <SCORE.INTRA.POLAR.0>
0

>  <SCORE.INTRA.REPUL>
0

>  <SCORE.INTRA.REPUL.0>
0

>  <SCORE.INTRA.SOLV>
-0.953891

>  <SCORE.INTRA.SOLV.lig_0>
-58.5963

>  <SCORE.INTRA.VDW>
-0.0842877

>  <SCORE.INTRA.VDW.0>
-0.437849

>  <SCORE.INTRA.norm>
-0.0847004

>  <SCORE.RESTR>
0

>  <SCORE.RESTR.CAVITY>
0

>  <SCORE.RESTR.norm>
0

>  <SCORE.SYSTEM>
0

>  <SCORE.SYSTEM.CONST>
0

>  <SCORE.SYSTEM.DIHEDRAL>
0

>  <SCORE.SYSTEM.SOLV>
0

>  <SCORE.SYSTEM.norm>
0

>  <SCORE.heavy>
16

>  <SCORE.norm>
-0.548231

>  <RMSD>
41.103

$$$$
ligand
 OpenBabel11021811463D
libRbt.so/2013.1/901 2013/11/27
 16 16  0  0  0  0  0  0  0  0999 V2000
   10.4968   -4.6007   -0.9109 P   0  0  2  0  0  0  0  0  0  0  0  0
   10.3099   -6.0162   -1.3142 O   0  0  0  0  0  0  0  0  0  0  0  0
   11.3491   -3.8102   -2.0243 O   0  5  0  0  0  0  0  0  0  0  0  0
   11.3072   -4.5500    0.4909 O   0  0  0  0  0  0  0  0  0  0  0  0
    9.8121   -0.6113   -3.1045 C   0  0  2  0  0  0  0  0  0  0  0  0
   11.1638   -1.0103   -3.3757 O   0  0  0  0  0  0  0  0  0  0  0  0
    9.7505    0.8124   -2.4826 C   0  0  2  0  0  0  0  0  0  0  0  0
   10.3887    1.7857   -3.3962 N   0  0  0  0  0  0  0  0  0  0  0  0
   10.4912    0.7908   -1.1288 C   0  0  1  0  0  0  0  0  0  0  0  0
   10.4383    2.0896   -0.5127 O   0  0  0  0  0  0  0  0  0  0  0  0
    9.7997   -0.2393   -0.2238 C   0  0  2  0  0  0  0  0  0  0  0  0
   10.4749   -0.2953    1.0406 O   0  0  0  0  0  0  0  0  0  0  0  0
    9.8695   -1.6251   -0.9182 C   0  0  2  0  0  0  0  0  0  0  0  0
    9.1940   -1.5778   -2.2080 O   0  0  0  0  0  0  0  0  0  0  0  0
    9.1718   -2.6768   -0.0381 C   0  0  0  0  0  0  0  0  0  0  0  0
    9.0429   -3.9110   -0.7672 O   0  0  0  0  0  0  0  0  0  0  0  0
  1  2  1  6  0  0  0
  1  3  1  0  0  0  0
  1  4  2  0  0  0  0
  1 16  1  0  0  0  0
  5  6  1  1  0  0  0
  5  7  1  0  0  0  0
  5 14  1  0  0  0  0
  7  8  1  6  0  0  0
  7  9  1  0  0  0  0
  9 10  1  1  0  0  0
  9 11  1  0  0  0  0
 11 12  1  1  0  0  0
 11 13  1  0  0  0  0
 13 14  1  0  0  0  0
 13 15  1  1  0  0  0
 15 16  1  0  0  0  0
M  CHG  1   3  -1
M  END
>  <CHROM.1>
170.79746260,71.72961336,164.44343072,10.23042593,-1.87103619,-1.25880963
-1.04644869,1.50577365,-0.69231160

>  <Name>
ligand

>  <RI>
0

>  <Rbt.Current_Directory>
/home/itssahil/PROJECTS/Mol_Feturizer/New_Systems/rnas/3B4B

>  <Rbt.Executable>
rbdock ($Id: //depot/dev/client3/rdock/2013.1/src/exe/rbdock.cxx#4 $)

>  <Rbt.Library>
libRbt.so (2013.1, Build901 2013/11/27)

>  <Rbt.Parameter_File>
/export/apps/rDock/src/rDock_2013.1_src/data/scripts/dock_solv.prm

>  <Rbt.Receptor>
prm/blind_docking_20.prm

>  <SCORE>
-7.02776

>  <SCORE.INTER>
-8.05434

>  <SCORE.INTER.CONST>
1

>  <SCORE.INTER.POLAR>
0

>  <SCORE.INTER.ROT>
3

>  <SCORE.INTER.SOLV>
10.7165

>  <SCORE.INTER.VDW>
-14.5417

>  <SCORE.INTER.norm>
-0.503396

>  <SCORE.INTRA>
1.02658

>  <SCORE.INTRA.DIHEDRAL>
-0.888458

>  <SCORE.INTRA.DIHEDRAL.0>
2.21864

>  <SCORE.INTRA.POLAR>
0

>  <SCORE.INTRA.POLAR.0>
0

>  <SCORE.INTRA.REPUL>
0

>  <SCORE.INTRA.REPUL.0>
0

>  <SCORE.INTRA.SOLV>
3.55674

>  <SCORE.INTRA.SOLV.lig_0>
-58.5963

>  <SCORE.INTRA.VDW>
-0.307566

>  <SCORE.INTRA.VDW.0>
-0.437849

>  <SCORE.INTRA.norm>
0.064161

>  <SCORE.RESTR>
0

>  <SCORE.RESTR.CAVITY>
0

>  <SCORE.RESTR.norm>
0

>  <SCORE.SYSTEM>
0

>  <SCORE.SYSTEM.CONST>
0

>  <SCORE.SYSTEM.DIHEDRAL>
0

>  <SCORE.SYSTEM.SOLV>
0

>  <SCORE.SYSTEM.norm>
0

>  <SCORE.heavy>
16

>  <SCORE.norm>
-0.439235

>  <RMSD>
41.106

$$$$
ligand
 OpenBabel11021811463D
libRbt.so/2013.1/901 2013/11/27
 16 16  0  0  0  0  0  0  0  0999 V2000
    8.5849   -2.5668   -0.5307 P   0  0  2  0  0  0  0  0  0  0  0  0
    7.8572   -3.7143    0.0649 O   0  0  0  0  0  0  0  0  0  0  0  0
    8.4374   -1.2652    0.4047 O   0  5  0  0  0  0  0  0  0  0  0  0
    7.9517   -2.2320   -1.9837 O   0  0  0  0  0  0  0  0  0  0  0  0
   13.2675   -6.0215   -2.7129 C   0  0  2  0  0  0  0  0  0  0  0  0
   14.1472   -5.8770   -1.5882 O   0  0  0  0  0  0  0  0  0  0  0  0
   13.6651   -5.0687   -3.8755 C   0  0  2  0  0  0  0  0  0  0  0  0
   15.0596   -5.3391   -4.2895 N   0  0  0  0  0  0  0  0  0  0  0  0
   13.5303   -3.6114   -3.3857 C   0  0  1  0  0  0  0  0  0  0  0  0
   13.8721   -2.6981   -4.4432 O   0  0  0  0  0  0  0  0  0  0  0  0
   12.0727   -3.3854   -2.9584 C   0  0  2  0  0  0  0  0  0  0  0  0
   11.9164   -2.0412   -2.4822 O   0  0  0  0  0  0  0  0  0  0  0  0
   11.7351   -4.3873   -1.8227 C   0  0  2  0  0  0  0  0  0  0  0  0
   11.8989   -5.7564   -2.2926 O   0  0  0  0  0  0  0  0  0  0  0  0
   10.2739   -4.1920   -1.3823 C   0  0  0  0  0  0  0  0  0  0  0  0
   10.1478   -2.9572   -0.6536 O   0  0  0  0  0  0  0  0  0  0  0  0
  1  2  1  1  0  0  0
  1  3  1  0  0  0  0
  1  4  2  0  0  0  0
  1 16  1  0  0  0  0
  5  6  1  1  0  0  0
  5  7  1  0  0  0  0
  5 14  1  0  0  0  0
  7  8  1  1  0  0  0
  7  9  1  0  0  0  0
  9 10  1  6  0  0  0
  9 11  1  0  0  0  0
 11 12  1  1  0  0  0
 11 13  1  0  0  0  0
 13 14  1  0  0  0  0
 13 15  1  6  0  0  0
 15 16  1  0  0  0  0
M  CHG  1   3  -1
M  END
>  <CHROM.1>
-71.81745759,165.37613085,54.26829625,11.25475226,-3.69033705,-1.96581592
2.99803022,0.58754873,-0.42143431

>  <Name>
ligand

>  <RI>
0

>  <Rbt.Current_Directory>
/home/itssahil/PROJECTS/Mol_Feturizer/New_Systems/rnas/3B4B

>  <Rbt.Executable>
rbdock ($Id: //depot/dev/client3/rdock/2013.1/src/exe/rbdock.cxx#4 $)

>  <Rbt.Library>
libRbt.so (2013.1, Build901 2013/11/27)

>  <Rbt.Parameter_File>
/export/apps/rDock/src/rDock_2013.1_src/data/scripts/dock_solv.prm

>  <Rbt.Receptor>
prm/blind_docking_20.prm

>  <SCORE>
-6.86418

>  <SCORE.INTER>
-6.31032

>  <SCORE.INTER.CONST>
1

>  <SCORE.INTER.POLAR>
0

>  <SCORE.INTER.ROT>
3

>  <SCORE.INTER.SOLV>
11.8921

>  <SCORE.INTER.VDW>
-13.7709

>  <SCORE.INTER.norm>
-0.394395

>  <SCORE.INTRA>
-0.553859

>  <SCORE.INTRA.DIHEDRAL>
-0.673563

>  <SCORE.INTRA.DIHEDRAL.0>
2.21864

>  <SCORE.INTRA.POLAR>
0

>  <SCORE.INTRA.POLAR.0>
0

>  <SCORE.INTRA.REPUL>
0

>  <SCORE.INTRA.REPUL.0>
0

>  <SCORE.INTRA.SOLV>
-0.208758

>  <SCORE.INTRA.SOLV.lig_0>
-58.5963

>  <SCORE.INTRA.VDW>
-0.112699

>  <SCORE.INTRA.VDW.0>
-0.437849

>  <SCORE.INTRA.norm>
-0.0346162

>  <SCORE.RESTR>
0

>  <SCORE.RESTR.CAVITY>
0

>  <SCORE.RESTR.norm>
0

>  <SCORE.SYSTEM>
0

>  <SCORE.SYSTEM.CONST>
0

>  <SCORE.SYSTEM.DIHEDRAL>
0

>  <SCORE.SYSTEM.SOLV>
0

>  <SCORE.SYSTEM.norm>
0

>  <SCORE.heavy>
16

>  <SCORE.norm>
-0.429011

>  <RMSD>
41.117

$$$$
ligand
 OpenBabel11021811463D
libRbt.so/2013.1/901 2013/11/27
 16 16  0  0  0  0  0  0  0  0999 V2000
   10.4073   -3.8403   -1.6653 P   0  0  2  0  0  0  0  0  0  0  0  0
   10.5064   -5.2906   -1.9619 O   0  0  0  0  0  0  0  0  0  0  0  0
   11.8647   -3.1587   -1.7156 O   0  5  0  0  0  0  0  0  0  0  0  0
    9.7966   -3.6424   -0.1780 O   0  0  0  0  0  0  0  0  0  0  0  0
   10.7823    0.8102   -3.6244 C   0  0  2  0  0  0  0  0  0  0  0  0
   12.0874    0.4289   -3.1650 O   0  0  0  0  0  0  0  0  0  0  0  0
   10.2048    1.9888   -2.7907 C   0  0  2  0  0  0  0  0  0  0  0  0
   11.1215    3.1480   -2.8611 N   0  0  0  0  0  0  0  0  0  0  0  0
   10.0467    1.5255   -1.3271 C   0  0  1  0  0  0  0  0  0  0  0  0
    9.4951    2.5860   -0.5269 O   0  0  0  0  0  0  0  0  0  0  0  0
    9.0984    0.3177   -1.3095 C   0  0  2  0  0  0  0  0  0  0  0  0
    8.9417   -0.1482    0.0382 O   0  0  0  0  0  0  0  0  0  0  0  0
    9.7188   -0.8039   -2.1839 C   0  0  2  0  0  0  0  0  0  0  0  0
    9.8907   -0.3387   -3.5537 O   0  0  0  0  0  0  0  0  0  0  0  0
    8.7821   -2.0245   -2.1950 C   0  0  0  0  0  0  0  0  0  0  0  0
    9.4609   -3.1514   -2.7788 O   0  0  0  0  0  0  0  0  0  0  0  0
  1  2  1  6  0  0  0
  1  3  1  0  0  0  0
  1  4  2  0  0  0  0
  1 16  1  0  0  0  0
  5  6  1  1  0  0  0
  5  7  1  0  0  0  0
  5 14  1  0  0  0  0
  7  8  1  1  0  0  0
  7  9  1  0  0  0  0
  9 10  1  1  0  0  0
  9 11  1  0  0  0  0
 11 12  1  1  0  0  0
 11 13  1  0  0  0  0
 13 14  1  0  0  0  0
 13 15  1  6  0  0  0
 15 16  1  0  0  0  0
M  CHG  1   3  -1
M  END
>  <CHROM.1>
-168.81209518,81.27835985,149.73663243,10.16659585,-1.01833758,-1.94438686
-1.56981619,0.94722602,-0.08185552

>  <Name>
ligand

>  <RI>
0

>  <Rbt.Current_Directory>
/home/itssahil/PROJECTS/Mol_Feturizer/New_Systems/rnas/3B4B

>  <Rbt.Executable>
rbdock ($Id: //depot/dev/client3/rdock/2013.1/src/exe/rbdock.cxx#4 $)

>  <Rbt.Library>
libRbt.so (2013.1, Build901 2013/11/27)

>  <Rbt.Parameter_File>
/export/apps/rDock/src/rDock_2013.1_src/data/scripts/dock_solv.prm

>  <Rbt.Receptor>
prm/blind_docking_20.prm

>  <SCORE>
-8.29811

>  <SCORE.INTER>
-9.98911

>  <SCORE.INTER.CONST>
1

>  <SCORE.INTER.POLAR>
0

>  <SCORE.INTER.ROT>
3

>  <SCORE.INTER.SOLV>
16.9668

>  <SCORE.INTER.VDW>
-17.915

>  <SCORE.INTER.norm>
-0.62432

>  <SCORE.INTRA>
1.691

>  <SCORE.INTRA.DIHEDRAL>
1.44706

>  <SCORE.INTRA.DIHEDRAL.0>
2.21864

>  <SCORE.INTRA.POLAR>
0

>  <SCORE.INTRA.POLAR.0>
0

>  <SCORE.INTRA.REPUL>
0

>  <SCORE.INTRA.REPUL.0>
0

>  <SCORE.INTRA.SOLV>
2.61519

>  <SCORE.INTRA.SOLV.lig_0>
-58.5963

>  <SCORE.INTRA.VDW>
-0.340118

>  <SCORE.INTRA.VDW.0>
-0.437849

>  <SCORE.INTRA.norm>
0.105688

>  <SCORE.RESTR>
0

>  <SCORE.RESTR.CAVITY>
0

>  <SCORE.RESTR.norm>
0

>  <SCORE.SYSTEM>
0

>  <SCORE.SYSTEM.CONST>
0

>  <SCORE.SYSTEM.DIHEDRAL>
0

>  <SCORE.SYSTEM.SOLV>
0

>  <SCORE.SYSTEM.norm>
0

>  <SCORE.heavy>
16

>  <SCORE.norm>
-0.518632

>  <RMSD>
41.134

$$$$
ligand
 OpenBabel11021811463D
libRbt.so/2013.1/901 2013/11/27
 16 16  0  0  0  0  0  0  0  0999 V2000
   10.3793   -3.8400   -1.6854 P   0  0  2  0  0  0  0  0  0  0  0  0
   10.4504   -5.2910   -1.9863 O   0  0  0  0  0  0  0  0  0  0  0  0
   11.8515   -3.1900   -1.7163 O   0  5  0  0  0  0  0  0  0  0  0  0
    9.7556   -3.6341   -0.2046 O   0  0  0  0  0  0  0  0  0  0  0  0
   10.7676    0.8441   -3.6504 C   0  0  2  0  0  0  0  0  0  0  0  0
   12.0769    0.4613   -3.2044 O   0  0  0  0  0  0  0  0  0  0  0  0
   10.1961    2.0170   -2.8047 C   0  0  2  0  0  0  0  0  0  0  0  0
   11.1111    3.1776   -2.8758 N   0  0  0  0  0  0  0  0  0  0  0  0
   10.0509    1.5447   -1.3426 C   0  0  1  0  0  0  0  0  0  0  0  0
    9.5051    2.5998   -0.5314 O   0  0  0  0  0  0  0  0  0  0  0  0
    9.1038    0.3360   -1.3243 C   0  0  2  0  0  0  0  0  0  0  0  0
    8.9589   -0.1383    0.0218 O   0  0  0  0  0  0  0  0  0  0  0  0
    9.7178   -0.7797   -2.2108 C   0  0  2  0  0  0  0  0  0  0  0  0
    9.8778   -0.3061   -3.5791 O   0  0  0  0  0  0  0  0  0  0  0  0
    8.7822   -2.0012   -2.2214 C   0  0  0  0  0  0  0  0  0  0  0  0
    9.4610   -3.1270   -2.8073 O   0  0  0  0  0  0  0  0  0  0  0  0
  1  2  1  6  0  0  0
  1  3  1  0  0  0  0
  1  4  2  0  0  0  0
  1 16  1  0  0  0  0
  5  6  1  1  0  0  0
  5  7  1  0  0  0  0
  5 14  1  0  0  0  0
  7  8  1  1  0  0  0
  7  9  1  0  0  0  0
  9 10  1  1  0  0  0
  9 11  1  0  0  0  0
 11 12  1  1  0  0  0
 11 13  1  0  0  0  0
 13 14  1  0  0  0  0
 13 15  1  6  0  0  0
 15 16  1  0  0  0  0
M  CHG  1   3  -1
M  END
>  <CHROM.1>
-168.32562335,82.79678304,148.76399087,10.15507248,-1.00325700,-1.96470516
-1.57852265,0.96000254,-0.07523837

>  <Name>
ligand

>  <RI>
0

>  <Rbt.Current_Directory>
/home/itssahil/PROJECTS/Mol_Feturizer/New_Systems/rnas/3B4B

>  <Rbt.Executable>
rbdock ($Id: //depot/dev/client3/rdock/2013.1/src/exe/rbdock.cxx#4 $)

>  <Rbt.Library>
libRbt.so (2013.1, Build901 2013/11/27)

>  <Rbt.Parameter_File>
/export/apps/rDock/src/rDock_2013.1_src/data/scripts/dock_solv.prm

>  <Rbt.Receptor>
prm/blind_docking_20.prm

>  <SCORE>
-8.26876

>  <SCORE.INTER>
-10.1086

>  <SCORE.INTER.CONST>
1

>  <SCORE.INTER.POLAR>
0

>  <SCORE.INTER.ROT>
3

>  <SCORE.INTER.SOLV>
17.2083

>  <SCORE.INTER.VDW>
-18.0752

>  <SCORE.INTER.norm>
-0.631788

>  <SCORE.INTRA>
1.83985

>  <SCORE.INTRA.DIHEDRAL>
1.80769

>  <SCORE.INTRA.DIHEDRAL.0>
2.21864

>  <SCORE.INTRA.POLAR>
0

>  <SCORE.INTRA.POLAR.0>
0

>  <SCORE.INTRA.REPUL>
0

>  <SCORE.INTRA.REPUL.0>
0

>  <SCORE.INTRA.SOLV>
2.47305

>  <SCORE.INTRA.SOLV.lig_0>
-58.5963

>  <SCORE.INTRA.VDW>
-0.300519

>  <SCORE.INTRA.VDW.0>
-0.437849

>  <SCORE.INTRA.norm>
0.114991

>  <SCORE.RESTR>
0

>  <SCORE.RESTR.CAVITY>
0

>  <SCORE.RESTR.norm>
0

>  <SCORE.SYSTEM>
0

>  <SCORE.SYSTEM.CONST>
0

>  <SCORE.SYSTEM.DIHEDRAL>
0

>  <SCORE.SYSTEM.SOLV>
0

>  <SCORE.SYSTEM.norm>
0

>  <SCORE.heavy>
16

>  <SCORE.norm>
-0.516797

>  <RMSD>
41.146

$$$$
ligand
 OpenBabel11021811463D
libRbt.so/2013.1/901 2013/11/27
 16 16  0  0  0  0  0  0  0  0999 V2000
   11.3313   -5.2345   -1.1541 P   0  0  2  0  0  0  0  0  0  0  0  0
   10.2815   -6.0004   -1.8699 O   0  0  0  0  0  0  0  0  0  0  0  0
   12.7763   -5.5294   -1.7992 O   0  5  0  0  0  0  0  0  0  0  0  0
   11.3571   -5.6922    0.3996 O   0  0  0  0  0  0  0  0  0  0  0  0
    9.7932    0.1533    0.2307 C   0  0  2  0  0  0  0  0  0  0  0  0
    8.3945    0.3897    0.4487 O   0  0  0  0  0  0  0  0  0  0  0  0
   10.2880    0.8233   -1.0823 C   0  0  2  0  0  0  0  0  0  0  0  0
   10.0256    2.2785   -1.0313 N   0  0  0  0  0  0  0  0  0  0  0  0
    9.5360    0.1900   -2.2719 C   0  0  1  0  0  0  0  0  0  0  0  0
    9.9825    0.7725   -3.5090 O   0  0  0  0  0  0  0  0  0  0  0  0
    9.8308   -1.3171   -2.2740 C   0  0  2  0  0  0  0  0  0  0  0  0
    9.1326   -1.9399   -3.3614 O   0  0  0  0  0  0  0  0  0  0  0  0
    9.3428   -1.9127   -0.9269 C   0  0  2  0  0  0  0  0  0  0  0  0
   10.0393   -1.2810    0.1858 O   0  0  0  0  0  0  0  0  0  0  0  0
    9.6375   -3.4225   -0.8956 C   0  0  0  0  0  0  0  0  0  0  0  0
   11.0011   -3.6589   -1.2906 O   0  0  0  0  0  0  0  0  0  0  0  0
  1  2  1  6  0  0  0
  1  3  1  0  0  0  0
  1  4  2  0  0  0  0
  1 16  1  0  0  0  0
  5  6  1  6  0  0  0
  5  7  1  0  0  0  0
  5 14  1  0  0  0  0
  7  8  1  1  0  0  0
  7  9  1  0  0  0  0
  9 10  1  6  0  0  0
  9 11  1  0  0  0  0
 11 12  1  6  0  0  0
 11 13  1  0  0  0  0
 13 14  1  0  0  0  0
 13 15  1  6  0  0  0
 15 16  1  0  0  0  0
M  CHG  1   3  -1
M  END
>  <CHROM.1>
48.68658220,176.02930819,51.38487510,10.27054634,-2.26939754,-1.26071645
0.20683279,-1.28799200,1.75941583

>  <Name>
ligand

>  <RI>
0

>  <Rbt.Current_Directory>
/home/itssahil/PROJECTS/Mol_Feturizer/New_Systems/rnas/3B4B

>  <Rbt.Executable>
rbdock ($Id: //depot/dev/client3/rdock/2013.1/src/exe/rbdock.cxx#4 $)

>  <Rbt.Library>
libRbt.so (2013.1, Build901 2013/11/27)

>  <Rbt.Parameter_File>
/export/apps/rDock/src/rDock_2013.1_src/data/scripts/dock_solv.prm

>  <Rbt.Receptor>
prm/blind_docking_20.prm

>  <SCORE>
-7.89796

>  <SCORE.INTER>
-6.71671

>  <SCORE.INTER.CONST>
1

>  <SCORE.INTER.POLAR>
0

>  <SCORE.INTER.ROT>
3

>  <SCORE.INTER.SOLV>
15.2909

>  <SCORE.INTER.VDW>
-15.1748

>  <SCORE.INTER.norm>
-0.419794

>  <SCORE.INTRA>
-1.18125

>  <SCORE.INTRA.DIHEDRAL>
-1.57479

>  <SCORE.INTRA.DIHEDRAL.0>
2.21864

>  <SCORE.INTRA.POLAR>
0

>  <SCORE.INTRA.POLAR.0>
0

>  <SCORE.INTRA.REPUL>
0

>  <SCORE.INTRA.REPUL.0>
0

>  <SCORE.INTRA.SOLV>
-0.991902

>  <SCORE.INTRA.SOLV.lig_0>
-58.5963

>  <SCORE.INTRA.VDW>
0.102098

>  <SCORE.INTRA.VDW.0>
-0.437849

>  <SCORE.INTRA.norm>
-0.073828

>  <SCORE.RESTR>
0

>  <SCORE.RESTR.CAVITY>
0

>  <SCORE.RESTR.norm>
0

>  <SCORE.SYSTEM>
0

>  <SCORE.SYSTEM.CONST>
0

>  <SCORE.SYSTEM.DIHEDRAL>
0

>  <SCORE.SYSTEM.SOLV>
0

>  <SCORE.SYSTEM.norm>
0

>  <SCORE.heavy>
16

>  <SCORE.norm>
-0.493622

>  <RMSD>
41.169

$$$$
ligand
 OpenBabel11021811463D
libRbt.so/2013.1/901 2013/11/27
 16 16  0  0  0  0  0  0  0  0999 V2000
   11.3292   -5.2354   -1.1432 P   0  0  2  0  0  0  0  0  0  0  0  0
   10.2836   -6.0057   -1.8605 O   0  0  0  0  0  0  0  0  0  0  0  0
   12.7775   -5.5318   -1.7801 O   0  5  0  0  0  0  0  0  0  0  0  0
   11.3480   -5.6862    0.4127 O   0  0  0  0  0  0  0  0  0  0  0  0
    9.8003    0.1487    0.2282 C   0  0  2  0  0  0  0  0  0  0  0  0
    8.4035    0.3869    0.4560 O   0  0  0  0  0  0  0  0  0  0  0  0
   10.2875    0.8205   -1.0867 C   0  0  2  0  0  0  0  0  0  0  0  0
   10.0278    2.2761   -1.0311 N   0  0  0  0  0  0  0  0  0  0  0  0
    9.5266    0.1908   -2.2725 C   0  0  1  0  0  0  0  0  0  0  0  0
    9.9659    0.7750   -3.5114 O   0  0  0  0  0  0  0  0  0  0  0  0
    9.8190   -1.3168   -2.2795 C   0  0  2  0  0  0  0  0  0  0  0  0
    9.1126   -1.9364   -3.3635 O   0  0  0  0  0  0  0  0  0  0  0  0
    9.3389   -1.9142   -0.9304 C   0  0  2  0  0  0  0  0  0  0  0  0
   10.0437   -1.2859    0.1789 O   0  0  0  0  0  0  0  0  0  0  0  0
    9.6313   -3.4246   -0.9040 C   0  0  0  0  0  0  0  0  0  0  0  0
   10.9981   -3.6608   -1.2882 O   0  0  0  0  0  0  0  0  0  0  0  0
  1  2  1  6  0  0  0
  1  3  1  0  0  0  0
  1  4  2  0  0  0  0
  1 16  1  0  0  0  0
  5  6  1  6  0  0  0
  5  7  1  0  0  0  0
  5 14  1  0  0  0  0
  7  8  1  1  0  0  0
  7  9  1  0  0  0  0
  9 10  1  6  0  0  0
  9 11  1  0  0  0  0
 11 12  1  6  0  0  0
 11 13  1  0  0  0  0
 13 14  1  0  0  0  0
 13 15  1  6  0  0  0
 15 16  1  0  0  0  0
M  CHG  1   3  -1
M  END
>  <CHROM.1>
49.58313831,175.49180870,51.24153344,10.26705971,-2.27048857,-1.25815665
0.17717240,-1.28963188,1.72550854

>  <Name>
ligand

>  <RI>
0

>  <Rbt.Current_Directory>
/home/itssahil/PROJECTS/Mol_Feturizer/New_Systems/rnas/3B4B

>  <Rbt.Executable>
rbdock ($Id: //depot/dev/client3/rdock/2013.1/src/exe/rbdock.cxx#4 $)

>  <Rbt.Library>
libRbt.so (2013.1, Build901 2013/11/27)

>  <Rbt.Parameter_File>
/export/apps/rDock/src/rDock_2013.1_src/data/scripts/dock_solv.prm

>  <Rbt.Receptor>
prm/blind_docking_20.prm

>  <SCORE>
-7.90285

>  <SCORE.INTER>
-6.69015

>  <SCORE.INTER.CONST>
1

>  <SCORE.INTER.POLAR>
0

>  <SCORE.INTER.ROT>
3

>  <SCORE.INTER.SOLV>
15.3128

>  <SCORE.INTER.VDW>
-15.1644

>  <SCORE.INTER.norm>
-0.418134

>  <SCORE.INTRA>
-1.2127

>  <SCORE.INTRA.DIHEDRAL>
-1.6152

>  <SCORE.INTRA.DIHEDRAL.0>
2.21864

>  <SCORE.INTRA.POLAR>
0

>  <SCORE.INTRA.POLAR.0>
0

>  <SCORE.INTRA.REPUL>
0

>  <SCORE.INTRA.REPUL.0>
0

>  <SCORE.INTRA.SOLV>
-0.990205

>  <SCORE.INTRA.SOLV.lig_0>
-58.5963

>  <SCORE.INTRA.VDW>
0.0899992

>  <SCORE.INTRA.VDW.0>
-0.437849

>  <SCORE.INTRA.norm>
-0.0757939

>  <SCORE.RESTR>
0

>  <SCORE.RESTR.CAVITY>
0

>  <SCORE.RESTR.norm>
0

>  <SCORE.SYSTEM>
0

>  <SCORE.SYSTEM.CONST>
0

>  <SCORE.SYSTEM.DIHEDRAL>
0

>  <SCORE.SYSTEM.SOLV>
0

>  <SCORE.SYSTEM.norm>
0

>  <SCORE.heavy>
16

>  <SCORE.norm>
-0.493928

>  <RMSD>
41.172

$$$$
ligand
 OpenBabel11021811463D
libRbt.so/2013.1/901 2013/11/27
 16 16  0  0  0  0  0  0  0  0999 V2000
   10.4444    1.1325   -2.6421 P   0  0  2  0  0  0  0  0  0  0  0  0
   11.1532    2.2214   -3.3583 O   0  0  0  0  0  0  0  0  0  0  0  0
    9.2617    1.7383   -1.7337 O   0  5  0  0  0  0  0  0  0  0  0  0
   11.4922    0.3609   -1.6772 O   0  0  0  0  0  0  0  0  0  0  0  0
    9.4544   -3.5300   -0.5791 C   0  0  2  0  0  0  0  0  0  0  0  0
   10.1686   -2.7931    0.4242 O   0  0  0  0  0  0  0  0  0  0  0  0
   10.4045   -4.4490   -1.3978 C   0  0  2  0  0  0  0  0  0  0  0  0
   11.1027   -5.3841   -0.4883 N   0  0  0  0  0  0  0  0  0  0  0  0
   11.4296   -3.5635   -2.1373 C   0  0  1  0  0  0  0  0  0  0  0  0
   12.3160   -4.3796   -2.9230 O   0  0  0  0  0  0  0  0  0  0  0  0
   10.6568   -2.6064   -3.0566 C   0  0  2  0  0  0  0  0  0  0  0  0
   11.5820   -1.7566   -3.7492 O   0  0  0  0  0  0  0  0  0  0  0  0
    9.7083   -1.7461   -2.1805 C   0  0  2  0  0  0  0  0  0  0  0  0
    8.7693   -2.5998   -1.4653 O   0  0  0  0  0  0  0  0  0  0  0  0
    8.9102   -0.7846   -3.0783 C   0  0  0  0  0  0  0  0  0  0  0  0
    9.8110    0.1256   -3.7353 O   0  0  0  0  0  0  0  0  0  0  0  0
  1  2  1  6  0  0  0
  1  3  1  0  0  0  0
  1  4  2  0  0  0  0
  1 16  1  0  0  0  0
  5  6  1  1  0  0  0
  5  7  1  0  0  0  0
  5 14  1  0  0  0  0
  7  8  1  1  0  0  0
  7  9  1  0  0  0  0
  9 10  1  6  0  0  0
  9 11  1  0  0  0  0
 11 12  1  1  0  0  0
 11 13  1  0  0  0  0
 13 14  1  0  0  0  0
 13 15  1  6  0  0  0
 15 16  1  0  0  0  0
M  CHG  1   3  -1
M  END
>  <CHROM.1>
-63.04263243,-68.88244768,-169.02035986,10.42966484,-1.47402746,-2.16215130
1.68295302,0.82879936,-0.34623118

>  <Name>
ligand

>  <RI>
0

>  <Rbt.Current_Directory>
/home/itssahil/PROJECTS/Mol_Feturizer/New_Systems/rnas/3B4B

>  <Rbt.Executable>
rbdock ($Id: //depot/dev/client3/rdock/2013.1/src/exe/rbdock.cxx#4 $)

>  <Rbt.Library>
libRbt.so (2013.1, Build901 2013/11/27)

>  <Rbt.Parameter_File>
/export/apps/rDock/src/rDock_2013.1_src/data/scripts/dock_solv.prm

>  <Rbt.Receptor>
prm/blind_docking_60.prm

>  <SCORE>
-6.43885

>  <SCORE.INTER>
-7.97204

>  <SCORE.INTER.CONST>
1

>  <SCORE.INTER.POLAR>
0

>  <SCORE.INTER.ROT>
3

>  <SCORE.INTER.SOLV>
13.2824

>  <SCORE.INTER.VDW>
-15.3422

>  <SCORE.INTER.norm>
-0.498253

>  <SCORE.INTRA>
1.53319

>  <SCORE.INTRA.DIHEDRAL>
-1.60685

>  <SCORE.INTRA.DIHEDRAL.0>
2.21864

>  <SCORE.INTRA.POLAR>
0

>  <SCORE.INTRA.POLAR.0>
0

>  <SCORE.INTRA.REPUL>
0

>  <SCORE.INTRA.REPUL.0>
0

>  <SCORE.INTRA.SOLV>
4.3539

>  <SCORE.INTRA.SOLV.lig_0>
-58.5963

>  <SCORE.INTRA.VDW>
0.159665

>  <SCORE.INTRA.VDW.0>
-0.437849

>  <SCORE.INTRA.norm>
0.0958244

>  <SCORE.RESTR>
0

>  <SCORE.RESTR.CAVITY>
0

>  <SCORE.RESTR.norm>
0

>  <SCORE.SYSTEM>
0

>  <SCORE.SYSTEM.CONST>
0

>  <SCORE.SYSTEM.DIHEDRAL>
0

>  <SCORE.SYSTEM.SOLV>
0

>  <SCORE.SYSTEM.norm>
0

>  <SCORE.heavy>
16

>  <SCORE.norm>
-0.402428

>  <RMSD>
41.190

$$$$
ligand
 OpenBabel11021811463D
libRbt.so/2013.1/901 2013/11/27
 16 16  0  0  0  0  0  0  0  0999 V2000
    8.3599   -2.8202   -0.2140 P   0  0  2  0  0  0  0  0  0  0  0  0
    7.2770   -3.7714    0.1379 O   0  0  0  0  0  0  0  0  0  0  0  0
    9.1199   -2.3222    1.1147 O   0  5  0  0  0  0  0  0  0  0  0  0
    7.7155   -1.5309   -0.9533 O   0  0  0  0  0  0  0  0  0  0  0  0
   13.4030   -2.9646   -3.8522 C   0  0  2  0  0  0  0  0  0  0  0  0
   12.7114   -3.3835   -5.0379 O   0  0  0  0  0  0  0  0  0  0  0  0
   14.1592   -4.1474   -3.1839 C   0  0  2  0  0  0  0  0  0  0  0  0
   15.1186   -4.7350   -4.1449 N   0  0  0  0  0  0  0  0  0  0  0  0
   13.1268   -5.2087   -2.7487 C   0  0  1  0  0  0  0  0  0  0  0  0
   13.7892   -6.3126   -2.1069 O   0  0  0  0  0  0  0  0  0  0  0  0
   12.1508   -4.5483   -1.7640 C   0  0  2  0  0  0  0  0  0  0  0  0
   11.1663   -5.5064   -1.3507 O   0  0  0  0  0  0  0  0  0  0  0  0
   11.4582   -3.3612   -2.4842 C   0  0  2  0  0  0  0  0  0  0  0  0
   12.4498   -2.3854   -2.9163 O   0  0  0  0  0  0  0  0  0  0  0  0
   10.4819   -2.6713   -1.5156 C   0  0  0  0  0  0  0  0  0  0  0  0
    9.4147   -3.5756   -1.1767 O   0  0  0  0  0  0  0  0  0  0  0  0
  1  2  1  1  0  0  0
  1  3  1  0  0  0  0
  1  4  2  0  0  0  0
  1 16  1  0  0  0  0
  5  6  1  6  0  0  0
  5  7  1  0  0  0  0
  5 14  1  0  0  0  0
  7  8  1  6  0  0  0
  7  9  1  0  0  0  0
  9 10  1  1  0  0  0
  9 11  1  0  0  0  0
 11 12  1  6  0  0  0
 11 13  1  0  0  0  0
 13 14  1  0  0  0  0
 13 15  1  1  0  0  0
 15 16  1  0  0  0  0
M  CHG  1   3  -1
M  END
>  <CHROM.1>
-65.24458479,-177.43037041,-179.32094237,11.07932400,-3.62999389,-1.84555379
-3.06742107,0.59381389,-0.59970435

>  <Name>
ligand

>  <RI>
0

>  <Rbt.Current_Directory>
/home/itssahil/PROJECTS/Mol_Feturizer/New_Systems/rnas/3B4B

>  <Rbt.Executable>
rbdock ($Id: //depot/dev/client3/rdock/2013.1/src/exe/rbdock.cxx#4 $)

>  <Rbt.Library>
libRbt.so (2013.1, Build901 2013/11/27)

>  <Rbt.Parameter_File>
/export/apps/rDock/src/rDock_2013.1_src/data/scripts/dock_solv.prm

>  <Rbt.Receptor>
prm/blind_docking_20.prm

>  <SCORE>
-8.28327

>  <SCORE.INTER>
-7.10608

>  <SCORE.INTER.CONST>
1

>  <SCORE.INTER.POLAR>
0

>  <SCORE.INTER.ROT>
3

>  <SCORE.INTER.SOLV>
12.7161

>  <SCORE.INTER.VDW>
-14.5761

>  <SCORE.INTER.norm>
-0.44413

>  <SCORE.INTRA>
-1.17719

>  <SCORE.INTRA.DIHEDRAL>
-2.08647

>  <SCORE.INTRA.DIHEDRAL.0>
2.21864

>  <SCORE.INTRA.POLAR>
0

>  <SCORE.INTRA.POLAR.0>
0

>  <SCORE.INTRA.REPUL>
0

>  <SCORE.INTRA.REPUL.0>
0

>  <SCORE.INTRA.SOLV>
-0.0531095

>  <SCORE.INTRA.SOLV.lig_0>
-58.5963

>  <SCORE.INTRA.VDW>
-0.107402

>  <SCORE.INTRA.VDW.0>
-0.437849

>  <SCORE.INTRA.norm>
-0.0735746

>  <SCORE.RESTR>
0

>  <SCORE.RESTR.CAVITY>
0

>  <SCORE.RESTR.norm>
0

>  <SCORE.SYSTEM>
0

>  <SCORE.SYSTEM.CONST>
0

>  <SCORE.SYSTEM.DIHEDRAL>
0

>  <SCORE.SYSTEM.SOLV>
0

>  <SCORE.SYSTEM.norm>
0

>  <SCORE.heavy>
16

>  <SCORE.norm>
-0.517704

>  <RMSD>
41.227

$$$$
ligand
 OpenBabel11021811463D
libRbt.so/2013.1/901 2013/11/27
 16 16  0  0  0  0  0  0  0  0999 V2000
   10.6699    1.1822   -3.0783 P   0  0  2  0  0  0  0  0  0  0  0  0
   11.5674    0.4120   -2.1826 O   0  0  0  0  0  0  0  0  0  0  0  0
   11.4553    1.6224   -4.4126 O   0  5  0  0  0  0  0  0  0  0  0  0
   10.1704    2.5179   -2.3096 O   0  0  0  0  0  0  0  0  0  0  0  0
   10.3336   -0.9260    0.7304 C   0  0  2  0  0  0  0  0  0  0  0  0
   11.3325   -1.7664    0.1341 O   0  0  0  0  0  0  0  0  0  0  0  0
    9.2174   -1.7635    1.4160 C   0  0  2  0  0  0  0  0  0  0  0  0
    9.8130   -2.6445    2.4447 N   0  0  0  0  0  0  0  0  0  0  0  0
    8.5058   -2.6103    0.3397 C   0  0  1  0  0  0  0  0  0  0  0  0
    7.4509   -3.3862    0.9349 O   0  0  0  0  0  0  0  0  0  0  0  0
    7.9165   -1.6532   -0.7068 C   0  0  2  0  0  0  0  0  0  0  0  0
    7.2595   -2.4111   -1.7324 O   0  0  0  0  0  0  0  0  0  0  0  0
    9.0772   -0.8295   -1.3246 C   0  0  2  0  0  0  0  0  0  0  0  0
    9.7576   -0.0620   -0.2902 O   0  0  0  0  0  0  0  0  0  0  0  0
    8.5136    0.1490   -2.3698 C   0  0  0  0  0  0  0  0  0  0  0  0
    9.4195    0.2431   -3.4842 O   0  0  0  0  0  0  0  0  0  0  0  0
  1  2  1  1  0  0  0
  1  3  1  0  0  0  0
  1  4  2  0  0  0  0
  1 16  1  0  0  0  0
  5  6  1  6  0  0  0
  5  7  1  0  0  0  0
  5 14  1  0  0  0  0
  7  8  1  1  0  0  0
  7  9  1  0  0  0  0
  9 10  1  1  0  0  0
  9 11  1  0  0  0  0
 11 12  1  6  0  0  0
 11 13  1  0  0  0  0
 13 14  1  0  0  0  0
 13 15  1  6  0  0  0
 15 16  1  0  0  0  0
M  CHG  1   3  -1
M  END
>  <CHROM.1>
-142.21279333,-77.26285959,75.38302232,9.63289500,-0.57493147,-1.19755676
-1.18766040,0.49574100,2.13143052

>  <Name>
ligand

>  <RI>
0

>  <Rbt.Current_Directory>
/home/itssahil/PROJECTS/Mol_Feturizer/New_Systems/rnas/3B4B

>  <Rbt.Executable>
rbdock ($Id: //depot/dev/client3/rdock/2013.1/src/exe/rbdock.cxx#4 $)

>  <Rbt.Library>
libRbt.so (2013.1, Build901 2013/11/27)

>  <Rbt.Parameter_File>
/export/apps/rDock/src/rDock_2013.1_src/data/scripts/dock_solv.prm

>  <Rbt.Receptor>
prm/blind_docking_20.prm

>  <SCORE>
-4.30788

>  <SCORE.INTER>
-6.05695

>  <SCORE.INTER.CONST>
1

>  <SCORE.INTER.POLAR>
0

>  <SCORE.INTER.ROT>
3

>  <SCORE.INTER.SOLV>
20.9712

>  <SCORE.INTER.VDW>
-16.6284

>  <SCORE.INTER.norm>
-0.37856

>  <SCORE.INTRA>
1.74907

>  <SCORE.INTRA.DIHEDRAL>
3.2164

>  <SCORE.INTRA.DIHEDRAL.0>
2.21864

>  <SCORE.INTRA.POLAR>
0

>  <SCORE.INTRA.POLAR.0>
0

>  <SCORE.INTRA.REPUL>
0

>  <SCORE.INTRA.REPUL.0>
0

>  <SCORE.INTRA.SOLV>
1.0744

>  <SCORE.INTRA.SOLV.lig_0>
-58.5963

>  <SCORE.INTRA.VDW>
-0.39633

>  <SCORE.INTRA.VDW.0>
-0.437849

>  <SCORE.INTRA.norm>
0.109317

>  <SCORE.RESTR>
0

>  <SCORE.RESTR.CAVITY>
0

>  <SCORE.RESTR.norm>
0

>  <SCORE.SYSTEM>
0

>  <SCORE.SYSTEM.CONST>
0

>  <SCORE.SYSTEM.DIHEDRAL>
0

>  <SCORE.SYSTEM.SOLV>
0

>  <SCORE.SYSTEM.norm>
0

>  <SCORE.heavy>
16

>  <SCORE.norm>
-0.269243

>  <RMSD>
41.236

$$$$
ligand
 OpenBabel11021811463D
libRbt.so/2013.1/901 2013/11/27
 16 16  0  0  0  0  0  0  0  0999 V2000
    8.3195   -1.2178   -0.8281 P   0  0  2  0  0  0  0  0  0  0  0  0
    7.6011   -0.6618   -2.0010 O   0  0  0  0  0  0  0  0  0  0  0  0
    7.4602   -2.4012   -0.1558 O   0  5  0  0  0  0  0  0  0  0  0  0
    8.5310   -0.0460    0.2702 O   0  0  0  0  0  0  0  0  0  0  0  0
   13.0436   -2.7282   -3.6494 C   0  0  2  0  0  0  0  0  0  0  0  0
   12.8636   -3.4768   -4.8606 O   0  0  0  0  0  0  0  0  0  0  0  0
   13.7280   -3.5832   -2.5457 C   0  0  2  0  0  0  0  0  0  0  0  0
   15.0359   -4.0748   -3.0324 N   0  0  0  0  0  0  0  0  0  0  0  0
   12.8075   -4.7738   -2.2037 C   0  0  1  0  0  0  0  0  0  0  0  0
   13.4000   -5.5790   -1.1694 O   0  0  0  0  0  0  0  0  0  0  0  0
   11.4639   -4.2124   -1.7159 C   0  0  2  0  0  0  0  0  0  0  0  0
   10.5775   -5.2962   -1.4034 O   0  0  0  0  0  0  0  0  0  0  0  0
   10.8549   -3.3467   -2.8504 C   0  0  2  0  0  0  0  0  0  0  0  0
   11.7511   -2.2473   -3.1824 O   0  0  0  0  0  0  0  0  0  0  0  0
    9.5112   -2.7597   -2.3843 C   0  0  0  0  0  0  0  0  0  0  0  0
    9.7376   -1.8096   -1.3272 O   0  0  0  0  0  0  0  0  0  0  0  0
  1  2  1  6  0  0  0
  1  3  1  0  0  0  0
  1  4  2  0  0  0  0
  1 16  1  0  0  0  0
  5  6  1  6  0  0  0
  5  7  1  0  0  0  0
  5 14  1  0  0  0  0
  7  8  1  6  0  0  0
  7  9  1  0  0  0  0
  9 10  1  1  0  0  0
  9 11  1  0  0  0  0
 11 12  1  6  0  0  0
 11 13  1  0  0  0  0
 13 14  1  0  0  0  0
 13 15  1  1  0  0  0
 15 16  1  0  0  0  0
M  CHG  1   3  -1
M  END
>  <CHROM.1>
67.26073652,-179.05676869,-54.88767553,10.78254116,-2.85803270,-1.95013644
-2.97158764,-0.58603557,2.47661432

>  <Name>
ligand

>  <RI>
0

>  <Rbt.Current_Directory>
/home/itssahil/PROJECTS/Mol_Feturizer/New_Systems/rnas/3B4B

>  <Rbt.Executable>
rbdock ($Id: //depot/dev/client3/rdock/2013.1/src/exe/rbdock.cxx#4 $)

>  <Rbt.Library>
libRbt.so (2013.1, Build901 2013/11/27)

>  <Rbt.Parameter_File>
/export/apps/rDock/src/rDock_2013.1_src/data/scripts/dock_solv.prm

>  <Rbt.Receptor>
prm/blind_docking_20.prm

>  <SCORE>
-6.32686

>  <SCORE.INTER>
-4.75246

>  <SCORE.INTER.CONST>
1

>  <SCORE.INTER.POLAR>
0

>  <SCORE.INTER.ROT>
3

>  <SCORE.INTER.SOLV>
12.1371

>  <SCORE.INTER.VDW>
-12.814

>  <SCORE.INTER.norm>
-0.297029

>  <SCORE.INTRA>
-1.57441

>  <SCORE.INTRA.DIHEDRAL>
-1.98004

>  <SCORE.INTRA.DIHEDRAL.0>
2.21864

>  <SCORE.INTRA.POLAR>
0

>  <SCORE.INTRA.POLAR.0>
0

>  <SCORE.INTRA.REPUL>
0

>  <SCORE.INTRA.REPUL.0>
0

>  <SCORE.INTRA.SOLV>
-0.947644

>  <SCORE.INTRA.SOLV.lig_0>
-58.5963

>  <SCORE.INTRA.VDW>
-0.110566

>  <SCORE.INTRA.VDW.0>
-0.437849

>  <SCORE.INTRA.norm>
-0.0984004

>  <SCORE.RESTR>
0

>  <SCORE.RESTR.CAVITY>
0

>  <SCORE.RESTR.norm>
0

>  <SCORE.SYSTEM>
0

>  <SCORE.SYSTEM.CONST>
0

>  <SCORE.SYSTEM.DIHEDRAL>
0

>  <SCORE.SYSTEM.SOLV>
0

>  <SCORE.SYSTEM.norm>
0

>  <SCORE.heavy>
16

>  <SCORE.norm>
-0.395429

>  <RMSD>
41.257

$$$$
ligand
 OpenBabel11021811463D
libRbt.so/2013.1/901 2013/11/27
 16 16  0  0  0  0  0  0  0  0999 V2000
    8.0029   -2.4951   -0.4854 P   0  0  2  0  0  0  0  0  0  0  0  0
    7.1327   -3.2860    0.4192 O   0  0  0  0  0  0  0  0  0  0  0  0
    8.4291   -1.1113    0.2178 O   0  5  0  0  0  0  0  0  0  0  0  0
    7.1876   -2.1538   -1.8430 O   0  0  0  0  0  0  0  0  0  0  0  0
   12.6781   -5.4251   -1.9441 C   0  0  2  0  0  0  0  0  0  0  0  0
   13.4986   -4.8942   -0.8931 O   0  0  0  0  0  0  0  0  0  0  0  0
   13.3070   -5.1714   -3.3433 C   0  0  2  0  0  0  0  0  0  0  0  0
   14.6556   -5.7771   -3.4032 N   0  0  0  0  0  0  0  0  0  0  0  0
   13.3988   -3.6481   -3.5730 C   0  0  1  0  0  0  0  0  0  0  0  0
   13.9593   -3.3738   -4.8690 O   0  0  0  0  0  0  0  0  0  0  0  0
   11.9795   -3.0674   -3.4901 C   0  0  2  0  0  0  0  0  0  0  0  0
   12.0314   -1.6470   -3.6846 O   0  0  0  0  0  0  0  0  0  0  0  0
   11.4029   -3.3842   -2.0849 C   0  0  2  0  0  0  0  0  0  0  0  0
   11.3536   -4.8246   -1.8728 O   0  0  0  0  0  0  0  0  0  0  0  0
    9.9738   -2.8241   -1.9774 C   0  0  0  0  0  0  0  0  0  0  0  0
    9.3305   -3.3581   -0.8060 O   0  0  0  0  0  0  0  0  0  0  0  0
  1  2  1  1  0  0  0
  1  3  1  0  0  0  0
  1  4  2  0  0  0  0
  1 16  1  0  0  0  0
  5  6  1  1  0  0  0
  5  7  1  0  0  0  0
  5 14  1  0  0  0  0
  7  8  1  1  0  0  0
  7  9  1  0  0  0  0
  9 10  1  6  0  0  0
  9 11  1  0  0  0  0
 11 12  1  1  0  0  0
 11 13  1  0  0  0  0
 13 14  1  0  0  0  0
 13 15  1  6  0  0  0
 15 16  1  0  0  0  0
M  CHG  1   3  -1
M  END
>  <CHROM.1>
167.52327844,165.46358484,162.03649616,10.85660223,-3.41781449,-1.95032257
-3.07225685,0.54791275,-0.75113708

>  <Name>
ligand

>  <RI>
0

>  <Rbt.Current_Directory>
/home/itssahil/PROJECTS/Mol_Feturizer/New_Systems/rnas/3B4B

>  <Rbt.Executable>
rbdock ($Id: //depot/dev/client3/rdock/2013.1/src/exe/rbdock.cxx#4 $)

>  <Rbt.Library>
libRbt.so (2013.1, Build901 2013/11/27)

>  <Rbt.Parameter_File>
/export/apps/rDock/src/rDock_2013.1_src/data/scripts/dock_solv.prm

>  <Rbt.Receptor>
prm/blind_docking_20.prm

>  <SCORE>
-7.32398

>  <SCORE.INTER>
-6.94846

>  <SCORE.INTER.CONST>
1

>  <SCORE.INTER.POLAR>
0

>  <SCORE.INTER.ROT>
3

>  <SCORE.INTER.SOLV>
14.0138

>  <SCORE.INTER.VDW>
-14.9036

>  <SCORE.INTER.norm>
-0.434279

>  <SCORE.INTRA>
-0.37552

>  <SCORE.INTRA.DIHEDRAL>
-0.194592

>  <SCORE.INTRA.DIHEDRAL.0>
2.21864

>  <SCORE.INTRA.POLAR>
0

>  <SCORE.INTRA.POLAR.0>
0

>  <SCORE.INTRA.REPUL>
0

>  <SCORE.INTRA.REPUL.0>
0

>  <SCORE.INTRA.SOLV>
-0.475766

>  <SCORE.INTRA.SOLV.lig_0>
-58.5963

>  <SCORE.INTRA.VDW>
-0.0403415

>  <SCORE.INTRA.VDW.0>
-0.437849

>  <SCORE.INTRA.norm>
-0.02347

>  <SCORE.RESTR>
0

>  <SCORE.RESTR.CAVITY>
0

>  <SCORE.RESTR.norm>
0

>  <SCORE.SYSTEM>
0

>  <SCORE.SYSTEM.CONST>
0

>  <SCORE.SYSTEM.DIHEDRAL>
0

>  <SCORE.SYSTEM.SOLV>
0

>  <SCORE.SYSTEM.norm>
0

>  <SCORE.heavy>
16

>  <SCORE.norm>
-0.457749

>  <RMSD>
41.336

$$$$
ligand
 OpenBabel11021811463D
libRbt.so/2013.1/901 2013/11/27
 16 16  0  0  0  0  0  0  0  0999 V2000
    9.2266   -1.0570   -3.8639 P   0  0  2  0  0  0  0  0  0  0  0  0
    9.8389   -2.1758   -3.1061 O   0  0  0  0  0  0  0  0  0  0  0  0
    8.6751   -1.5792   -5.2832 O   0  5  0  0  0  0  0  0  0  0  0  0
   10.3489    0.0796   -4.1334 O   0  0  0  0  0  0  0  0  0  0  0  0
    9.9345    0.0845    0.5637 C   0  0  2  0  0  0  0  0  0  0  0  0
   11.1793   -0.4565    0.0972 O   0  0  0  0  0  0  0  0  0  0  0  0
    9.4343   -0.6506    1.8392 C   0  0  2  0  0  0  0  0  0  0  0  0
   10.4558   -0.5545    2.9053 N   0  0  0  0  0  0  0  0  0  0  0  0
    9.1749   -2.1301    1.4849 C   0  0  1  0  0  0  0  0  0  0  0  0
    8.6909   -2.8399    2.6387 O   0  0  0  0  0  0  0  0  0  0  0  0
    8.1196   -2.1750    0.3701 C   0  0  2  0  0  0  0  0  0  0  0  0
    7.8660   -3.5391    0.0058 O   0  0  0  0  0  0  0  0  0  0  0  0
    8.6694   -1.3979   -0.8551 C   0  0  2  0  0  0  0  0  0  0  0  0
    8.9390   -0.0125   -0.4943 O   0  0  0  0  0  0  0  0  0  0  0  0
    7.6258   -1.4155   -1.9856 C   0  0  0  0  0  0  0  0  0  0  0  0
    7.9952   -0.4653   -3.0015 O   0  0  0  0  0  0  0  0  0  0  0  0
  1  2  1  1  0  0  0
  1  3  1  0  0  0  0
  1  4  2  0  0  0  0
  1 16  1  0  0  0  0
  5  6  1  6  0  0  0
  5  7  1  0  0  0  0
  5 14  1  0  0  0  0
  7  8  1  1  0  0  0
  7  9  1  0  0  0  0
  9 10  1  1  0  0  0
  9 11  1  0  0  0  0
 11 12  1  6  0  0  0
 11 13  1  0  0  0  0
 13 14  1  0  0  0  0
 13 15  1  6  0  0  0
 15 16  1  0  0  0  0
M  CHG  1   3  -1
M  END
>  <CHROM.1>
167.51977556,74.86383606,-16.54775313,9.14674860,-1.26059677,-1.09068133
-1.63228280,0.83544329,1.70162191

>  <Name>
ligand

>  <RI>
0

>  <Rbt.Current_Directory>
/home/itssahil/PROJECTS/Mol_Feturizer/New_Systems/rnas/3B4B

>  <Rbt.Executable>
rbdock ($Id: //depot/dev/client3/rdock/2013.1/src/exe/rbdock.cxx#4 $)

>  <Rbt.Library>
libRbt.so (2013.1, Build901 2013/11/27)

>  <Rbt.Parameter_File>
/export/apps/rDock/src/rDock_2013.1_src/data/scripts/dock_solv.prm

>  <Rbt.Receptor>
prm/blind_docking_20.prm

>  <SCORE>
-3.55161

>  <SCORE.INTER>
-6.35654

>  <SCORE.INTER.CONST>
1

>  <SCORE.INTER.POLAR>
0

>  <SCORE.INTER.ROT>
3

>  <SCORE.INTER.SOLV>
24.4511

>  <SCORE.INTER.VDW>
-17.9881

>  <SCORE.INTER.norm>
-0.397284

>  <SCORE.INTRA>
2.80494

>  <SCORE.INTRA.DIHEDRAL>
1.3415

>  <SCORE.INTRA.DIHEDRAL.0>
2.21864

>  <SCORE.INTRA.POLAR>
0

>  <SCORE.INTRA.POLAR.0>
0

>  <SCORE.INTRA.REPUL>
0

>  <SCORE.INTRA.REPUL.0>
0

>  <SCORE.INTRA.SOLV>
0.189847

>  <SCORE.INTRA.SOLV.lig_0>
-58.5963

>  <SCORE.INTRA.VDW>
2.03926

>  <SCORE.INTRA.VDW.0>
-0.437849

>  <SCORE.INTRA.norm>
0.175309

>  <SCORE.RESTR>
0

>  <SCORE.RESTR.CAVITY>
0

>  <SCORE.RESTR.norm>
0

>  <SCORE.SYSTEM>
0

>  <SCORE.SYSTEM.CONST>
0

>  <SCORE.SYSTEM.DIHEDRAL>
0

>  <SCORE.SYSTEM.SOLV>
0

>  <SCORE.SYSTEM.norm>
0

>  <SCORE.heavy>
16

>  <SCORE.norm>
-0.221975

>  <RMSD>
41.746

$$$$
