@<TRIPOS>MOLECULE
3B4B_rdock.pdb
 3080 3443 0 0 0
SMALL
GASTEIGER

@<TRIPOS>ATOM
      1  P         41.7920    8.9560   16.8160 P.3     1  G1          0.0000
      2  C5'       42.1630   11.1910   18.1840 C.3     1  G1          0.0000
      3  O5'       42.4810   10.3830   17.0360 O.3     1  G1          0.0000
      4  C4'       43.4020   11.4590   19.0170 C.3     1  G1          0.0000
      5  O4'       44.4550   11.9510   18.1580 O.3     1  G1          0.0000
      6  C3'       43.1510   12.5580   20.0450 C.3     1  G1          0.0000
      7  O3'       43.7130   12.3240   21.3310 O.3     1  G1          0.0000
      8  C2'       43.6820   13.8420   19.4250 C.3     1  G1          0.0000
      9  O2'       44.3860   14.5990   20.3820 O.3     1  G1          0.0000
     10  C1'       44.7170   13.3080   18.4370 C.3     1  G1          0.0000
     11  N1        47.6330   13.7230   14.3580 N.ar    1  G1          0.0000
     12  C2        47.8060   12.9620   15.4900 C.ar    1  G1          0.0000
     13  N2        48.8960   12.1830   15.5280 N.pl3   1  G1          0.0000
     14  N3        46.9690   12.9640   16.5100 N.ar    1  G1          0.0000
     15  C4        45.9310   13.8080   16.3120 C.ar    1  G1          0.0000
     16  C5        45.6700   14.6140   15.2280 C.ar    1  G1          0.0000
     17  C6        46.5640   14.5860   14.1270 C.ar    1  G1          0.0000
     18  O6        46.4830   15.1950   13.0550 O.2     1  G1          0.0000
     19  N7        44.5030   15.3420   15.4270 N.ar    1  G1          0.0000
     20  C8        44.0770   14.9530   16.5980 C.ar    1  G1          0.0000
     21  N9        44.8900   14.0080   17.1750 N.ar    1  G1          0.0000
     22  OP1       40.3180    9.1410   16.7090 O.3     1  G1         -0.5000
     23  OP2       42.5220    8.2330   15.7450 O.co2   1  G1         -0.5000
     24  P         43.0400   11.2870   22.3350 P.3     2  C2          0.0000
     25  C5'       45.0820    9.7170   21.8640 C.3     2  C2          0.0000
     26  O5'       43.6740    9.9090   21.8690 O.3     2  C2          0.0000
     27  C4'       45.3970    8.2440   21.7920 C.3     2  C2          0.0000
     28  O4'       44.9040    7.7010   20.5350 O.3     2  C2          0.0000
     29  C3'       46.8730    7.8930   21.8060 C.3     2  C2          0.0000
     30  O3'       47.3210    7.8090   23.1480 O.3     2  C2          0.0000
     31  C2'       46.8830    6.5350   21.1170 C.3     2  C2          0.0000
     32  O2'       46.4510    5.4990   21.9760 O.3     2  C2          0.0000
     33  C1'       45.8280    6.7530   20.0290 C.3     2  C2          0.0000
     34  N1        46.3710    7.2750   18.7640 N.ar    2  C2          0.0000
     35  C2        47.1230    6.4270   17.9510 C.ar    2  C2          0.0000
     36  O2        47.3270    5.2640   18.3270 O.2     2  C2          0.0000
     37  N3        47.6030    6.8880   16.7780 N.ar    2  C2          0.0000
     38  C4        47.3550    8.1430   16.4060 C.ar    2  C2          0.0000
     39  N4        47.8350    8.5510   15.2410 N.pl3   2  C2          0.0000
     40  C5        46.5980    9.0360   17.2150 C.ar    2  C2          0.0000
     41  C6        46.1330    8.5660   18.3770 C.ar    2  C2          0.0000
     42  OP1       41.5700   11.2500   22.1020 O.2     2  C2          0.0000
     43  OP2       43.5520   11.5910   23.6960 O.co2   2  C2         -1.0000
     44  P         48.8860    7.8930   23.4670 P.3     3  G3          0.0000
     45  C5'       49.4420    5.3310   23.7220 C.3     3  G3          0.0000
     46  O5'       49.4720    6.5120   22.9270 O.3     3  G3          0.0000
     47  C4'       50.3900    4.3030   23.1530 C.3     3  G3          0.0000
     48  O4'       49.9660    3.9860   21.7990 O.3     3  G3          0.0000
     49  C3'       51.8380    4.7500   22.9820 C.3     3  G3          0.0000
     50  O3'       52.5910    4.6230   24.1870 O.3     3  G3          0.0000
     51  C2'       52.3300    3.8130   21.8860 C.3     3  G3          0.0000
     52  O2'       52.6060    2.5030   22.3430 O.3     3  G3          0.0000
     53  C1'       51.1050    3.7710   20.9730 C.3     3  G3          0.0000
     54  N1        53.1680    5.3260   16.6130 N.ar    3  G3          0.0000
     55  C2        53.4030    4.1760   17.3250 C.ar    3  G3          0.0000
     56  N2        54.3100    3.3380   16.8100 N.pl3   3  G3          0.0000
     57  N3        52.7950    3.8720   18.4560 N.ar    3  G3          0.0000
     58  C4        51.9210    4.8280   18.8260 C.ar    3  G3          0.0000
     59  C5        51.6180    6.0090   18.1870 C.ar    3  G3          0.0000
     60  C6        52.2710    6.3210   16.9780 C.ar    3  G3          0.0000
     61  O6        52.1300    7.3210   16.2640 O.2     3  G3          0.0000
     62  N7        50.6640    6.7210   18.8960 N.ar    3  G3          0.0000
     63  C8        50.4080    5.9730   19.9320 C.ar    3  G3          0.0000
     64  N9        51.1400    4.8130   19.9520 N.ar    3  G3          0.0000
     65  OP1       49.0460    7.9670   24.9460 O.3     3  G3         -0.5000
     66  OP2       49.4360    8.9710   22.6110 O.co2   3  G3         -0.5000
     67  P         53.8940    5.5430   24.4100 P.3     4  C4          0.0000
     68  C5'       55.3350    3.6550   23.3100 C.3     4  C4          0.0000
     69  O5'       54.9150    5.0130   23.3130 O.3     4  C4          0.0000
     70  C4'       56.2320    3.3930   22.1270 C.3     4  C4          0.0000
     71  O4'       55.4850    3.5650   20.8950 O.3     4  C4          0.0000
     72  C3'       57.4230    4.3280   21.9870 C.3     4  C4          0.0000
     73  O3'       58.4700    3.8720   22.8420 O.3     4  C4          0.0000
     74  C2'       57.7390    4.2150   20.4970 C.3     4  C4          0.0000
     75  O2'       58.4680    3.0590   20.1460 O.3     4  C4          0.0000
     76  C1'       56.3340    4.1090   19.8970 C.3     4  C4          0.0000
     77  N1        55.7710    5.4010   19.4590 N.ar    4  C4          0.0000
     78  C2        56.1630    5.9260   18.2130 C.ar    4  C4          0.0000
     79  O2        56.9610    5.2920   17.5170 O.2     4  C4          0.0000
     80  N3        55.6580    7.1080   17.8040 N.ar    4  C4          0.0000
     81  C4        54.7920    7.7670   18.5760 C.ar    4  C4          0.0000
     82  N4        54.3170    8.9270   18.1260 N.pl3   4  C4          0.0000
     83  C5        54.3720    7.2590   19.8480 C.ar    4  C4          0.0000
     84  C6        54.8820    6.0860   20.2460 C.ar    4  C4          0.0000
     85  OP1       54.4740    5.2300   25.7420 O.3     4  C4         -0.5000
     86  OP2       53.5300    6.9440   24.0780 O.co2   4  C4         -0.5000
     87  P         59.7160    4.8290   23.1870 P.3     5  C5          0.0000
     88  C5'       61.8040    5.4790   21.7850 C.3     5  C5          0.0000
     89  O5'       60.6420    4.6830   21.9030 O.3     5  C5          0.0000
     90  C4'       62.1540    5.6990   20.3430 C.3     5  C5          0.0000
     91  O4'       60.9510    5.8900   19.5640 O.3     5  C5          0.0000
     92  C3'       62.9730    6.9580   20.1430 C.3     5  C5          0.0000
     93  O3'       64.3590    6.7610   20.4940 O.3     5  C5          0.0000
     94  C2'       62.5950    7.4400   18.7420 C.3     5  C5          0.0000
     95  O2'       63.3980    6.9480   17.6840 O.3     5  C5          0.0000
     96  C1'       61.1650    6.9040   18.5970 C.3     5  C5          0.0000
     97  N1        60.0560    7.8790   18.6710 N.ar    5  C5          0.0000
     98  C2        59.8380    8.7510   17.5920 C.ar    5  C5          0.0000
     99  O2        60.6110    8.7220   16.6250 O.2     5  C5          0.0000
    100  N3        58.7900    9.5990   17.6320 N.ar    5  C5          0.0000
    101  C4        57.9810    9.6090   18.6890 C.ar    5  C5          0.0000
    102  N4        56.9550   10.4600   18.6840 N.pl3   5  C5          0.0000
    103  C5        58.1880    8.7490   19.8040 C.ar    5  C5          0.0000
    104  C6        59.2300    7.9150   19.7570 C.ar    5  C5          0.0000
    105  OP1       60.4450    4.2330   24.3350 O.3     5  C5         -0.5000
    106  OP2       59.2670    6.2460   23.2670 O.co2   5  C5         -0.5000
    107  P         65.3220    5.7590   19.6490 P.3     6  U6          0.0000
    108  C5'       67.7670    6.2690   18.7740 C.3     6  U6          0.0000
    109  O5'       66.4650    6.7430   19.1230 O.3     6  U6          0.0000
    110  C4'       68.0850    6.6280   17.3370 C.3     6  U6          0.0000
    111  O4'       67.2980    5.7950   16.4340 O.3     6  U6          0.0000
    112  C3'       67.7340    8.0540   16.9340 C.3     6  U6          0.0000
    113  O3'       68.7490    8.9790   17.3110 O.3     6  U6          0.0000
    114  C2'       67.5550    7.9320   15.4220 C.3     6  U6          0.0000
    115  O2'       68.7790    7.9300   14.7140 O.3     6  U6          0.0000
    116  C1'       66.8940    6.5560   15.3030 C.3     6  U6          0.0000
    117  OP1       64.6610    5.1470   18.4660 O.2     6  U6         -0.5000
    118  OP2       65.9110    4.8660   20.6830 O.co2   6  U6         -0.5000
    119  P         68.3330   10.4540   17.8010 P.3     7  G7          0.0000
    120  C5'       68.7090   11.1720   15.2970 C.3     7  G7          0.0000
    121  O5'       67.8840   11.1920   16.4620 O.3     7  G7          0.0000
    122  C4'       68.1780   12.1350   14.2630 C.3     7  G7          0.0000
    123  O4'       66.8430   11.7190   13.8650 O.3     7  G7          0.0000
    124  C3'       67.9910   13.5640   14.7420 C.3     7  G7          0.0000
    125  O3'       69.1900   14.3130   14.6670 O.3     7  G7          0.0000
    126  C2'       66.9450   14.0880   13.7730 C.3     7  G7          0.0000
    127  O2'       67.4760   14.4400   12.5120 O.3     7  G7          0.0000
    128  C1'       66.0330   12.8660   13.6410 C.3     7  G7          0.0000
    129  N1        61.7220   15.1340   15.0580 N.ar    7  G7          0.0000
    130  C2        62.5340   15.3850   13.9800 C.ar    7  G7          0.0000
    131  N2        62.1480   16.3780   13.1720 N.pl3   7  G7          0.0000
    132  N3        63.6410   14.7150   13.7140 N.ar    7  G7          0.0000
    133  C4        63.8810   13.7520   14.6270 C.ar    7  G7          0.0000
    134  C5        63.1400   13.4190   15.7420 C.ar    7  G7          0.0000
    135  C6        61.9460   14.1540   16.0160 C.ar    7  G7          0.0000
    136  O6        61.1490   14.0190   16.9510 O.2     7  G7          0.0000
    137  N7        63.7320   12.3670   16.4290 N.ar    7  G7          0.0000
    138  C8        64.7990   12.0840   15.7310 C.ar    7  G7          0.0000
    139  N9        64.9520   12.8890   14.6260 N.ar    7  G7          0.0000
    140  OP1       69.5420   11.1410   18.3190 O.2     7  G7         -0.5000
    141  OP2       67.1410   10.3150   18.6730 O.co2   7  G7         -0.5000
    142  P         69.4540   15.4930   15.7210 P.3     8  G8          0.0000
    143  C5'       68.0740   17.2560   14.3260 C.3     8  G8          0.0000
    144  O5'       68.2190   16.4790   15.5210 O.3     8  G8          0.0000
    145  C4'       66.8250   18.1090   14.3970 C.3     8  G8          0.0000
    146  O4'       65.6490   17.2510   14.4290 O.3     8  G8          0.0000
    147  C3'       66.6910   18.9720   15.6410 C.3     8  G8          0.0000
    148  O3'       67.4040   20.1940   15.5070 O.3     8  G8          0.0000
    149  C2'       65.1840   19.1860   15.7180 C.3     8  G8          0.0000
    150  O2'       64.6990   20.1750   14.8300 O.3     8  G8          0.0000
    151  C1'       64.6700   17.8100   15.2940 C.3     8  G8          0.0000
    152  N1        61.6800   16.5480   19.2140 N.ar    8  G8          0.0000
    153  C2        61.5280   17.5520   18.2860 C.ar    8  G8          0.0000
    154  N2        60.4360   18.3220   18.4150 N.pl3   8  G8          0.0000
    155  N3        62.3830   17.7830   17.3000 N.ar    8  G8          0.0000
    156  C4        63.4190   16.9200   17.3150 C.ar    8  G8          0.0000
    157  C5        63.6640   15.8870   18.1930 C.ar    8  G8          0.0000
    158  C6        62.7340   15.6430   19.2450 C.ar    8  G8          0.0000
    159  O6        62.7680   14.7660   20.1200 O.2     8  G8          0.0000
    160  N7        64.8460   15.2380   17.8710 N.ar    8  G8          0.0000
    161  C8        65.2890   15.8730   16.8200 C.ar    8  G8          0.0000
    162  N9        64.4720   16.9040   16.4270 N.ar    8  G8          0.0000
    163  OP1       70.6840   16.2180   15.3210 O.2     8  G8         -0.5000
    164  OP2       69.3690   14.8870   17.0740 O.co2   8  G8         -0.5000
    165  P         68.0750   20.8760   16.8040 P.3     9  A9          0.0000
    166  C5'       65.9070   22.2080   17.4480 C.3     9  A9          0.0000
    167  O5'       66.8510   21.1920   17.7690 O.3     9  A9          0.0000
    168  C4'       64.8200   22.2390   18.4890 C.3     9  A9          0.0000
    169  O4'       64.0570   21.0010   18.4260 O.3     9  A9          0.0000
    170  C3'       65.3400   22.2930   19.9150 C.3     9  A9          0.0000
    171  O3'       65.5990   23.6370   20.2950 O.3     9  A9          0.0000
    172  C2'       64.1970   21.6680   20.7000 C.3     9  A9          0.0000
    173  O2'       63.1440   22.5740   20.9270 O.3     9  A9          0.0000
    174  C1'       63.7420   20.5630   19.7410 C.3     9  A9          0.0000
    175  N1        64.2000   16.4540   22.8250 N.ar    9  A9          0.0000
    176  C2        63.3880   17.5110   22.8590 C.ar    9  A9          0.0000
    177  N3        63.3030   18.5390   22.0150 N.ar    9  A9          0.0000
    178  C4        64.1970   18.4150   21.0190 C.ar    9  A9          0.0000
    179  C5        65.1000   17.3830   20.8480 C.ar    9  A9          0.0000
    180  C6        65.0870   16.3560   21.8120 C.ar    9  A9          0.0000
    181  N6        65.9020   15.3010   21.7780 N.pl3   9  A9          0.0000
    182  N7        65.8670   17.5860   19.7090 N.ar    9  A9          0.0000
    183  C8        65.4220   18.7200   19.2290 C.ar    9  A9          0.0000
    184  N9        64.4200   19.2850   19.9770 N.ar    9  A9          0.0000
    185  OP1       68.6520   22.1810   16.3860 O.2     9  A9         -0.5000
    186  OP2       68.9430   19.8590   17.4600 O.co2   9  A9         -0.5000
    187  P         66.8970   23.9830   21.1840 P.3    10  C10         0.0000
    188  C5'       65.4350   24.0310   23.3380 C.3    10  C10         0.0000
    189  O5'       66.5200   23.4540   22.6330 O.3    10  C10         0.0000
    190  C4'       65.0510   23.1610   24.5020 C.3    10  C10         0.0000
    191  O4'       64.6120   21.8620   24.0180 O.3    10  C10         0.0000
    192  C3'       66.1700   22.8030   25.4640 C.3    10  C10         0.0000
    193  O3'       66.4970   23.8790   26.3370 O.3    10  C10         0.0000
    194  C2'       65.5690   21.5990   26.1780 C.3    10  C10         0.0000
    195  O2'       64.6070   21.9360   27.1610 O.3    10  C10         0.0000
    196  C1'       64.8900   20.8820   25.0060 C.3    10  C10         0.0000
    197  N1        65.7820   19.8620   24.4350 N.ar   10  C10         0.0000
    198  C2        65.9260   18.6580   25.1230 C.ar   10  C10         0.0000
    199  O2        65.2650   18.4760   26.1550 O.2    10  C10         0.0000
    200  N3        66.7780   17.7270   24.6600 N.ar   10  C10         0.0000
    201  C4        67.4720   17.9580   23.5530 C.ar   10  C10         0.0000
    202  N4        68.3230   17.0110   23.1500 N.pl3  10  C10         0.0000
    203  C5        67.3300   19.1690   22.8110 C.ar   10  C10         0.0000
    204  C6        66.4780   20.0840   23.2820 C.ar   10  C10         0.0000
    205  OP1       67.0070   25.4630   21.2480 O.3    10  C10        -0.5000
    206  OP2       68.0480   23.1770   20.7050 O.co2  10  C10        -0.5000
    207  P         67.9630   23.9440   26.9950 P.3    11  U11         0.0000
    208  C5'       66.8690   22.9750   29.1730 C.3    11  U11         0.0000
    209  O5'       67.8870   22.8850   28.1800 O.3    11  U11         0.0000
    210  C4'       66.9880   21.8250   30.1370 C.3    11  U11         0.0000
    211  O4'       66.7510   20.5800   29.4350 O.3    11  U11         0.0000
    212  C3'       68.3680   21.6510   30.7430 C.3    11  U11         0.0000
    213  O3'       68.5230   22.5070   31.8610 O.3    11  U11         0.0000
    214  C2'       68.3680   20.1810   31.1310 C.3    11  U11         0.0000
    215  O2'       67.6660   19.9420   32.3390 O.3    11  U11         0.0000
    216  C1'       67.5940   19.5680   29.9620 C.3    11  U11         0.0000
    217  N1        68.4190   19.0240   28.8680 N.ar   11  U11         0.0000
    218  C2        69.0280   17.7930   29.0700 C.ar   11  U11         0.0000
    219  O2        68.9520   17.1760   30.1160 O.2    11  U11         0.0000
    220  N3        69.7250   17.3060   27.9950 N.ar   11  U11         0.0000
    221  C4        69.8780   17.9020   26.7680 C.ar   11  U11         0.0000
    222  O4        70.5150   17.3180   25.8960 O.2    11  U11         0.0000
    223  C5        69.2450   19.1790   26.6360 C.ar   11  U11         0.0000
    224  C6        68.5600   19.6880   27.6660 C.ar   11  U11         0.0000
    225  OP1       68.1640   25.2790   27.6030 O.3    11  U11        -0.5000
    226  OP2       68.9300   23.4380   25.9860 O.co2  11  U11        -0.5000
    227  P         69.9840   23.0270   32.2610 P.3    12  U12         0.0000
    228  C5'       70.2960   21.2050   34.1010 C.3    12  U12         0.0000
    229  O5'       70.6970   21.7290   32.8430 O.3    12  U12         0.0000
    230  C4'       70.9900   19.9020   34.3750 C.3    12  U12         0.0000
    231  O4'       70.6090   18.9310   33.3700 O.3    12  U12         0.0000
    232  C3'       72.4990   19.9290   34.2840 C.3    12  U12         0.0000
    233  O3'       73.0720   20.4850   35.4600 O.3    12  U12         0.0000
    234  C2'       72.8180   18.4540   34.0780 C.3    12  U12         0.0000
    235  O2'       72.7070   17.6760   35.2500 O.3    12  U12         0.0000
    236  C1'       71.6920   18.0470   33.1310 C.3    12  U12         0.0000
    237  N1        72.0730   18.1540   31.7170 N.ar   12  U12         0.0000
    238  C2        72.7000   17.0700   31.1430 C.ar   12  U12         0.0000
    239  O2        72.9600   16.0530   31.7590 O.2    12  U12         0.0000
    240  N3        73.0100   17.2170   29.8180 N.ar   12  U12         0.0000
    241  C4        72.7560   18.3130   29.0260 C.ar   12  U12         0.0000
    242  O4        73.0210   18.2660   27.8230 O.2    12  U12         0.0000
    243  C5        72.1190   19.4000   29.7010 C.ar   12  U12         0.0000
    244  C6        71.8090   19.2860   30.9900 C.ar   12  U12         0.0000
    245  OP1       69.7990   24.0120   33.3560 O.3    12  U12        -0.5000
    246  OP2       70.7040   23.4280   31.0310 O.co2  12  U12        -0.5000
    247  P         74.4800   21.2530   35.3650 P.3    13  A13         0.0000
    248  C5'       75.5290   18.9230   35.9330 C.3    13  A13         0.0000
    249  O5'       75.5180   20.0680   35.0850 O.3    13  A13         0.0000
    250  C4'       76.5620   17.9050   35.4970 C.3    13  A13         0.0000
    251  O4'       76.1390   17.1660   34.3260 O.3    13  A13         0.0000
    252  C3'       77.9480   18.3770   35.1060 C.3    13  A13         0.0000
    253  O3'       78.7110   18.7540   36.2440 O.3    13  A13         0.0000
    254  C2'       78.5190   17.1220   34.4450 C.3    13  A13         0.0000
    255  O2'       78.9860   16.1650   35.3750 O.3    13  A13         0.0000
    256  C1'       77.2820   16.5390   33.7560 C.3    13  A13         0.0000
    257  N1        76.0160   19.2790   29.5170 N.ar   13  A13         0.0000
    258  C2        75.8250   19.5300   30.8290 C.ar   13  A13         0.0000
    259  N3        76.1640   18.7910   31.8870 N.ar   13  A13         0.0000
    260  C4        76.7780   17.6620   31.4920 C.ar   13  A13         0.0000
    261  C5        77.0460   17.2720   30.1850 C.ar   13  A13         0.0000
    262  C6        76.6360   18.1290   29.1650 C.ar   13  A13         0.0000
    263  N6        76.8270   17.8650   27.8720 N.pl3  13  A13         0.0000
    264  N7        77.6970   16.0520   30.1530 N.ar   13  A13         0.0000
    265  C8        77.8050   15.7240   31.4170 C.ar   13  A13         0.0000
    266  N9        77.2720   16.6540   32.2880 N.ar   13  A13         0.0000
    267  OP1       74.7210   21.8420   36.7030 O.3    13  A13        -0.5000
    268  OP2       74.4360   22.1460   34.1790 O.co2  13  A13        -0.5000
    269  P         79.8600   19.8760   36.1030 P.3    14  A14         0.0000
    270  C5'       81.6890   18.0420   35.6780 C.3    14  A14         0.0000
    271  O5'       80.9660   19.1720   35.1990 O.3    14  A14         0.0000
    272  C4'       82.4800   17.4120   34.5550 C.3    14  A14         0.0000
    273  O4'       81.5610   16.8660   33.5670 O.3    14  A14         0.0000
    274  C3'       83.3640   18.3560   33.7540 C.3    14  A14         0.0000
    275  O3'       84.6190   18.6000   34.3830 O.3    14  A14         0.0000
    276  C2'       83.5060   17.6070   32.4360 C.3    14  A14         0.0000
    277  O2'       84.4500   16.5520   32.4960 O.3    14  A14         0.0000
    278  C1'       82.0880   17.0590   32.2610 C.3    14  A14         0.0000
    279  N1        80.2100   18.5120   27.6830 N.ar   14  A14         0.0000
    280  C2        81.0460   17.5270   28.0430 C.ar   14  A14         0.0000
    281  N3        81.4890   17.1960   29.2560 N.ar   14  A14         0.0000
    282  C4        80.9760   18.0170   30.1890 C.ar   14  A14         0.0000
    283  C5        80.1030   19.0710   29.9760 C.ar   14  A14         0.0000
    284  C6        79.7090   19.3170   28.6460 C.ar   14  A14         0.0000
    285  N6        78.8720   20.2960   28.2890 N.pl3  14  A14         0.0000
    286  N7        79.7850   19.6970   31.1750 N.ar   14  A14         0.0000
    287  C8        80.4620   19.0230   32.0720 C.ar   14  A14         0.0000
    288  N9        81.2100   17.9920   31.5460 N.ar   14  A14         0.0000
    289  OP1       80.4180   20.0800   37.4630 O.3    14  A14        -0.5000
    290  OP2       79.3280   21.0450   35.3480 O.co2  14  A14        -0.5000
    291  P         85.4060   19.9750   34.0850 P.3    15  A15         0.0000
    292  C5'       86.8590   18.8270   32.2320 C.3    15  A15         0.0000
    293  O5'       85.8910   19.8140   32.5760 O.3    15  A15         0.0000
    294  C4'       87.0920   18.8140   30.7420 C.3    15  A15         0.0000
    295  O4'       85.8910   18.3540   30.0650 O.3    15  A15         0.0000
    296  C3'       87.3670   20.1630   30.0990 C.3    15  A15         0.0000
    297  O3'       88.7120   20.5990   30.2830 O.3    15  A15         0.0000
    298  C2'       87.0200   19.8790   28.6430 C.3    15  A15         0.0000
    299  O2'       88.0280   19.1720   27.9440 O.3    15  A15         0.0000
    300  C1'       85.7730   19.0070   28.8080 C.3    15  A15         0.0000
    301  N1        82.0840   21.1080   25.9100 N.ar   15  A15         0.0000
    302  C2        83.1040   20.2910   25.6210 C.ar   15  A15         0.0000
    303  N3        84.0170   19.7590   26.4330 N.ar   15  A15         0.0000
    304  C4        83.8090   20.1510   27.7040 C.ar   15  A15         0.0000
    305  C5        82.8030   20.9860   28.1600 C.ar   15  A15         0.0000
    306  C6        81.9010   21.4830   27.1970 C.ar   15  A15         0.0000
    307  N6        80.8850   22.2980   27.4860 N.pl3  15  A15         0.0000
    308  N7        82.8980   21.1670   29.5350 N.ar   15  A15         0.0000
    309  C8        83.9450   20.4530   29.8750 C.ar   15  A15         0.0000
    310  N9        84.5560   19.8240   28.8120 N.ar   15  A15         0.0000
    311  OP1       86.6010   19.9940   34.9700 O.3    15  A15        -0.5000
    312  OP2       84.4440   21.1100   34.1270 O.co2  15  A15        -0.5000
    313  P         89.0410   22.1780   30.3140 P.3    16  G16         0.0000
    314  C5'       89.4820   21.9450   27.7360 C.3    16  G16         0.0000
    315  O5'       88.8340   22.6380   28.8000 O.3    16  G16         0.0000
    316  C4'       88.8660   22.3080   26.4050 C.3    16  G16         0.0000
    317  O4'       87.4610   21.9440   26.3940 O.3    16  G16         0.0000
    318  C3'       88.8310   23.7800   26.0280 C.3    16  G16         0.0000
    319  O3'       90.0830   24.2320   25.5290 O.3    16  G16         0.0000
    320  C2'       87.7770   23.7900   24.9270 C.3    16  G16         0.0000
    321  O2'       88.2850   23.3770   23.6730 O.3    16  G16         0.0000
    322  C1'       86.7740   22.7610   25.4540 C.3    16  G16         0.0000
    323  N1        82.3770   25.1630   24.6710 N.ar   16  G16         0.0000
    324  C2        83.2800   24.6690   23.7620 C.ar   16  G16         0.0000
    325  N2        82.9710   24.8450   22.4670 N.pl3  16  G16         0.0000
    326  N3        84.4020   24.0500   24.0960 N.ar   16  G16         0.0000
    327  C4        84.5530   23.9630   25.4370 C.ar   16  G16         0.0000
    328  C5        83.7140   24.4230   26.4300 C.ar   16  G16         0.0000
    329  C6        82.5090   25.0850   26.0540 C.ar   16  G16         0.0000
    330  O6        81.6300   25.5630   26.7810 O.2    16  G16         0.0000
    331  N7        84.2330   24.1360   27.6860 N.ar   16  G16         0.0000
    332  C8        85.3570   23.5180   27.4390 C.ar   16  G16         0.0000
    333  N9        85.6140   23.3820   26.0930 N.ar   16  G16         0.0000
    334  OP1       90.4780   22.3100   30.6620 O.2    16  G16        -0.5000
    335  OP2       88.0270   22.8760   31.1480 O.co2  16  G16        -0.5000
    336  P         90.4580   25.7970   25.6090 P.3    17  C17         0.0000
    337  C5'       89.4480   26.2750   23.2220 C.3    17  C17         0.0000
    338  O5'       89.4150   26.5110   24.6300 O.3    17  C17         0.0000
    339  C4'       88.2450   26.8960   22.5420 C.3    17  C17         0.0000
    340  O4'       87.0210   26.3040   23.0600 O.3    17  C17         0.0000
    341  C3'       88.0190   28.3830   22.7600 C.3    17  C17         0.0000
    342  O3'       88.8670   29.1900   21.9540 O.3    17  C17         0.0000
    343  C2'       86.5480   28.5310   22.3830 C.3    17  C17         0.0000
    344  O2'       86.3100   28.5360   20.9880 O.3    17  C17         0.0000
    345  C1'       85.9620   27.2570   22.9940 C.3    17  C17         0.0000
    346  N1        85.4150   27.4870   24.3520 N.ar   17  C17         0.0000
    347  C2        84.1390   28.0730   24.4790 C.ar   17  C17         0.0000
    348  O2        83.5000   28.3620   23.4530 O.2    17  C17         0.0000
    349  N3        83.6400   28.3090   25.7140 N.ar   17  C17         0.0000
    350  C4        84.3530   27.9850   26.7960 C.ar   17  C17         0.0000
    351  N4        83.8230   28.2430   27.9950 N.pl3  17  C17         0.0000
    352  C5        85.6430   27.3840   26.6980 C.ar   17  C17         0.0000
    353  C6        86.1300   27.1540   25.4710 C.ar   17  C17         0.0000
    354  OP1       91.8260   25.9380   25.0400 O.2    17  C17        -0.5000
    355  OP2       90.1870   26.2590   26.9990 O.co2  17  C17        -0.5000
    356  P         89.2210   30.6870   22.4300 P.3    18  C18         0.0000
    357  C5'       87.3710   31.7760   20.9200 C.3    18  C18         0.0000
    358  O5'       87.8600   31.4930   22.2280 O.3    18  C18         0.0000
    359  C4'       86.0610   32.5260   20.9920 C.3    18  C18         0.0000
    360  O4'       85.0430   31.6830   21.5980 O.3    18  C18         0.0000
    361  C3'       86.0360   33.7790   21.8530 C.3    18  C18         0.0000
    362  O3'       86.6160   34.9050   21.1990 O.3    18  C18         0.0000
    363  C2'       84.5420   33.9490   22.0970 C.3    18  C18         0.0000
    364  O2'       83.8440   34.4820   20.9870 O.3    18  C18         0.0000
    365  C1'       84.1200   32.4950   22.3160 C.3    18  C18         0.0000
    366  N1        84.1480   32.1150   23.7450 N.ar   18  C18         0.0000
    367  C2        83.0790   32.5080   24.5700 C.ar   18  C18         0.0000
    368  O2        82.1430   33.1580   24.0790 O.2    18  C18         0.0000
    369  N3        83.0970   32.1690   25.8780 N.ar   18  C18         0.0000
    370  C4        84.1210   31.4710   26.3730 C.ar   18  C18         0.0000
    371  N4        84.0940   31.1590   27.6710 N.pl3  18  C18         0.0000
    372  C5        85.2190   31.0610   25.5610 C.ar   18  C18         0.0000
    373  C6        85.1920   31.4000   24.2660 C.ar   18  C18         0.0000
    374  OP1       90.2300   31.2370   21.4920 O.2    18  C18        -0.5000
    375  OP2       89.5230   30.6370   23.8860 O.co2  18  C18        -0.5000
    376  P         87.1250   36.1610   22.0730 P.3    19  A19         0.0000
    377  C5'       84.8940   37.3540   21.3600 C.3    19  A19         0.0000
    378  O5'       85.7870   36.9640   22.4040 O.3    19  A19         0.0000
    379  C4'       83.5490   37.7450   21.9290 C.3    19  A19         0.0000
    380  O4'       82.9680   36.6160   22.6350 O.3    19  A19         0.0000
    381  C3'       83.5610   38.8490   22.9710 C.3    19  A19         0.0000
    382  O3'       83.5930   40.1280   22.3530 O.3    19  A19         0.0000
    383  C2'       82.2450   38.6160   23.7050 C.3    19  A19         0.0000
    384  O2'       81.1220   39.1410   23.0250 O.3    19  A19         0.0000
    385  C1'       82.1720   37.0880   23.7130 C.3    19  A19         0.0000
    386  N1        81.2150   36.3480   28.7090 N.ar   19  A19         0.0000
    387  C2        80.5570   37.0190   27.7530 C.ar   19  A19         0.0000
    388  N3        80.8700   37.1810   26.4700 N.ar   19  A19         0.0000
    389  C4        82.0230   36.5510   26.1790 C.ar   19  A19         0.0000
    390  C5        82.8150   35.8240   27.0510 C.ar   19  A19         0.0000
    391  C6        82.3720   35.7270   28.3850 C.ar   19  A19         0.0000
    392  N6        83.0310   35.0590   29.3380 N.pl3  19  A19         0.0000
    393  N7        83.9330   35.3220   26.3970 N.ar   19  A19         0.0000
    394  C8        83.7940   35.7450   25.1640 C.ar   19  A19         0.0000
    395  N9        82.6550   36.4880   24.9580 N.ar   19  A19         0.0000
    396  OP1       87.9800   37.0080   21.2020 O.2    19  A19        -0.5000
    397  OP2       87.6760   35.6330   23.3500 O.co2  19  A19        -0.5000
    398  P         84.2770   41.3620   23.1220 P.3    20  U20         0.0000
    399  C5'       82.0710   42.0400   24.3880 C.3    20  U20         0.0000
    400  O5'       83.4020   41.5260   24.4460 O.3    20  U20         0.0000
    401  C4'       81.4800   42.1350   25.7760 C.3    20  U20         0.0000
    402  O4'       81.3160   40.8040   26.3320 O.3    20  U20         0.0000
    403  C3'       82.3240   42.8620   26.8100 C.3    20  U20         0.0000
    404  O3'       82.1550   44.2730   26.7110 O.3    20  U20         0.0000
    405  C2'       81.7690   42.3110   28.1200 C.3    20  U20         0.0000
    406  O2'       80.5760   42.9420   28.5400 O.3    20  U20         0.0000
    407  C1'       81.4720   40.8570   27.7420 C.3    20  U20         0.0000
    408  N1        82.5330   39.9180   28.1450 N.ar   20  U20         0.0000
    409  C2        82.5290   39.4580   29.4620 C.ar   20  U20         0.0000
    410  O2        81.6890   39.7930   30.2880 O.2    20  U20         0.0000
    411  N3        83.5500   38.5910   29.7740 N.ar   20  U20         0.0000
    412  C4        84.5520   38.1450   28.9330 C.ar   20  U20         0.0000
    413  O4        85.3980   37.3590   29.3650 O.2    20  U20         0.0000
    414  C5        84.4890   38.6620   27.5970 C.ar   20  U20         0.0000
    415  C6        83.5080   39.5070   27.2560 C.ar   20  U20         0.0000
    416  OP1       84.0780   42.5670   22.2680 O.2    20  U20        -0.5000
    417  OP2       85.6560   40.9570   23.5170 O.co2  20  U20        -0.5000
    418  P         74.0710   32.8440   32.1970 P.3    23  G23         0.0000
    419  C5'       73.5500   34.6590   30.3810 C.3    23  G23         0.0000
    420  O5'       74.4560   33.6990   30.9110 O.3    23  G23         0.0000
    421  C4'       73.9580   35.0530   28.9790 C.3    23  G23         0.0000
    422  O4'       75.2550   35.7120   29.0140 O.3    23  G23         0.0000
    423  C3'       74.1660   33.9140   27.9930 C.3    23  G23         0.0000
    424  O3'       72.9410   33.4210   27.4580 O.3    23  G23         0.0000
    425  C2'       75.0520   34.5770   26.9440 C.3    23  G23         0.0000
    426  O2'       74.3530   35.4250   26.0520 O.3    23  G23         0.0000
    427  C1'       75.9830   35.4010   27.8340 C.3    23  G23         0.0000
    428  N1        80.3570   33.4300   26.1950 N.ar   23  G23         0.0000
    429  C2        79.4260   34.1810   25.5150 C.ar   23  G23         0.0000
    430  N2        79.6890   34.4310   24.2200 N.pl3  23  G23         0.0000
    431  N3        78.3190   34.6530   26.0630 N.ar   23  G23         0.0000
    432  C4        78.2140   34.3120   27.3670 C.ar   23  G23         0.0000
    433  C5        79.0860   33.5690   28.1370 C.ar   23  G23         0.0000
    434  C6        80.2700   33.0660   27.5370 C.ar   23  G23         0.0000
    435  O6        81.1640   32.3850   28.0490 O.2    23  G23         0.0000
    436  N7        78.6140   33.4460   29.4380 N.ar   23  G23         0.0000
    437  C8        77.4830   34.0990   29.4340 C.ar   23  G23         0.0000
    438  N9        77.1760   34.6430   28.2050 N.ar   23  G23         0.0000
    439  OP1       72.7400   32.2270   31.9570 O.3    23  G23         0.0000
    440  OP2       75.2280   31.9820   32.5510 O.co2  23  G23        -1.0000
    441  P         72.8460   31.8870   26.9770 P.3    24  G24         0.0000
    442  C5'       73.4780   32.7130   24.5730 C.3    24  G24         0.0000
    443  O5'       73.7570   31.8480   25.6710 O.3    24  G24         0.0000
    444  C4'       74.5250   32.5580   23.4970 C.3    24  G24         0.0000
    445  O4'       75.8080   33.0420   23.9810 O.3    24  G24         0.0000
    446  C3'       74.8380   31.1360   23.0680 C.3    24  G24         0.0000
    447  O3'       73.8630   30.5870   22.1940 O.3    24  G24         0.0000
    448  C2'       76.1930   31.3150   22.4030 C.3    24  G24         0.0000
    449  O2'       76.1110   31.8900   21.1110 O.3    24  G24         0.0000
    450  C1'       76.8540   32.2930   23.3730 C.3    24  G24         0.0000
    451  N1        81.1590   29.8470   24.4610 N.ar   24  G24         0.0000
    452  C2        80.7480   30.4220   23.2830 C.ar   24  G24         0.0000
    453  N2        81.6010   30.3350   22.2500 N.pl3  24  G24         0.0000
    454  N3        79.5900   31.0360   23.1250 N.ar   24  G24         0.0000
    455  C4        78.8580   31.0330   24.2580 C.ar   24  G24         0.0000
    456  C5        79.1720   30.4900   25.4870 C.ar   24  G24         0.0000
    457  C6        80.4260   29.8320   25.6420 C.ar   24  G24         0.0000
    458  O6        80.8960   29.2880   26.6490 O.2    24  G24         0.0000
    459  N7        78.1420   30.7010   26.3990 N.ar   24  G24         0.0000
    460  C8        77.2380   31.3570   25.7190 C.ar   24  G24         0.0000
    461  N9        77.6100   31.5940   24.4120 N.ar   24  G24         0.0000
    462  OP1       71.4410   31.6500   26.5590 O.2    24  G24        -0.5000
    463  OP2       73.4650   31.0110   28.0110 O.co2  24  G24        -0.5000
    464  P         73.5990   29.0000   22.2080 P.3    25  C25         0.0000
    465  C5'       75.2910   28.8620   20.1910 C.3    25  C25         0.0000
    466  O5'       74.8830   28.3930   21.4790 O.3    25  C25         0.0000
    467  C4'       76.6670   28.3310   19.8440 C.3    25  C25         0.0000
    468  O4'       77.6630   28.8870   20.7480 O.3    25  C25         0.0000
    469  C3'       76.8480   26.8310   19.9910 C.3    25  C25         0.0000
    470  O3'       76.3370   26.1280   18.8690 O.3    25  C25         0.0000
    471  C2'       78.3590   26.7020   20.1380 C.3    25  C25         0.0000
    472  O2'       79.0570   26.8160   18.9150 O.3    25  C25         0.0000
    473  C1'       78.6690   27.9150   21.0130 C.3    25  C25         0.0000
    474  N1        78.6630   27.6000   22.4570 N.ar   25  C25         0.0000
    475  C2        79.7930   26.9890   23.0230 C.ar   25  C25         0.0000
    476  O2        80.7580   26.7120   22.2950 O.2    25  C25         0.0000
    477  N3        79.8020   26.7130   24.3460 N.ar   25  C25         0.0000
    478  C4        78.7430   27.0160   25.0970 C.ar   25  C25         0.0000
    479  N4        78.7990   26.7330   26.4000 N.pl3  25  C25         0.0000
    480  C5        77.5790   27.6270   24.5480 C.ar   25  C25         0.0000
    481  C6        77.5810   27.8980   23.2380 C.ar   25  C25         0.0000
    482  OP1       72.3950   28.7210   21.3790 O.2    25  C25        -0.5000
    483  OP2       73.6310   28.5580   23.6320 O.co2  25  C25        -0.5000
    484  P         75.9440   24.5780   19.0230 P.3    26  U26         0.0000
    485  C5'       78.3270   23.9440   18.1280 C.3    26  U26         0.0000
    486  O5'       77.3550   23.8500   19.1640 O.3    26  U26         0.0000
    487  C4'       79.5750   23.1840   18.5040 C.3    26  U26         0.0000
    488  O4'       80.2590   23.8470   19.5990 O.3    26  U26         0.0000
    489  C3'       79.3390   21.7780   19.0150 C.3    26  U26         0.0000
    490  O3'       79.1610   20.8720   17.9390 O.3    26  U26         0.0000
    491  C2'       80.6110   21.5050   19.8030 C.3    26  U26         0.0000
    492  O2'       81.6980   21.1240   18.9870 O.3    26  U26         0.0000
    493  C1'       80.8750   22.8760   20.4290 C.3    26  U26         0.0000
    494  N1        80.3300   23.0040   21.7890 N.ar   26  U26         0.0000
    495  C2        80.9850   22.3340   22.8130 C.ar   26  U26         0.0000
    496  O2        81.9720   21.6410   22.6300 O.2    26  U26         0.0000
    497  N3        80.4360   22.5010   24.0600 N.ar   26  U26         0.0000
    498  C4        79.3250   23.2460   24.3850 C.ar   26  U26         0.0000
    499  O4        78.9550   23.2960   25.5560 O.2    26  U26         0.0000
    500  C5        78.7000   23.9030   23.2780 C.ar   26  U26         0.0000
    501  C6        79.2100   23.7630   22.0490 C.ar   26  U26         0.0000
    502  OP1       75.3070   24.1410   17.7560 O.2    26  U26        -0.5000
    503  OP2       75.2090   24.4210   20.3070 O.co2  26  U26        -0.5000
    504  P         78.3210   19.5260   18.1720 P.3    27  U27         0.0000
    505  C5'       80.5390   18.1560   18.4290 C.3    27  U27         0.0000
    506  O5'       79.3190   18.6090   19.0030 O.3    27  U27         0.0000
    507  C4'       81.3040   17.3300   19.4320 C.3    27  U27         0.0000
    508  O4'       81.7250   18.1740   20.5380 O.3    27  U27         0.0000
    509  C3'       80.4890   16.2290   20.0870 C.3    27  U27         0.0000
    510  O3'       80.4670   15.0680   19.2620 O.3    27  U27         0.0000
    511  C2'       81.2200   16.0200   21.4100 C.3    27  U27         0.0000
    512  O2'       82.3750   15.2130   21.2920 O.3    27  U27         0.0000
    513  C1'       81.6350   17.4520   21.7550 C.3    27  U27         0.0000
    514  N1        80.7050   18.1620   22.6450 N.ar   27  U27         0.0000
    515  C2        80.8040   17.9220   24.0030 C.ar   27  U27         0.0000
    516  O2        81.5940   17.1270   24.4810 O.2    27  U27         0.0000
    517  N3        79.9400   18.6480   24.7850 N.ar   27  U27         0.0000
    518  C4        79.0040   19.5600   24.3580 C.ar   27  U27         0.0000
    519  O4        78.3130   20.1450   25.1860 O.2    27  U27         0.0000
    520  C5        78.9470   19.7390   22.9420 C.ar   27  U27         0.0000
    521  C6        79.7770   19.0500   22.1530 C.ar   27  U27         0.0000
    522  OP1       78.1120   18.8900   16.8480 O.2    27  U27        -0.5000
    523  OP2       77.1470   19.8530   19.0250 O.co2  27  U27        -0.5000
    524  P         79.2530   14.0210   19.3920 P.3    28  U28         0.0000
    525  C5'       80.7410   12.5890   21.0090 C.3    28  U28         0.0000
    526  O5'       79.5320   13.3170   20.7980 O.3    28  U28         0.0000
    527  C4'       80.9190   12.2550   22.4730 C.3    28  U28         0.0000
    528  O4'       81.1570   13.4650   23.2410 O.3    28  U28         0.0000
    529  C3'       79.7330   11.6060   23.1610 C.3    28  U28         0.0000
    530  O3'       79.6880   10.2080   22.8850 O.3    28  U28         0.0000
    531  C2'       80.0160   11.9140   24.6270 C.3    28  U28         0.0000
    532  O2'       81.0030   11.0640   25.1720 O.3    28  U28         0.0000
    533  C1'       80.5800   13.3350   24.5340 C.3    28  U28         0.0000
    534  N1        79.5680   14.3950   24.7040 N.ar   28  U28         0.0000
    535  C2        79.2760   14.8380   25.9960 C.ar   28  U28         0.0000
    536  O2        79.8120   14.3930   26.9980 O.2    28  U28         0.0000
    537  N3        78.3270   15.8300   26.0650 N.ar   28  U28         0.0000
    538  C4        77.6520   16.4100   25.0080 C.ar   28  U28         0.0000
    539  O4        76.8220   17.2880   25.2290 O.2    28  U28         0.0000
    540  C5        78.0040   15.9020   23.7200 C.ar   28  U28         0.0000
    541  C6        78.9230   14.9390   23.6130 C.ar   28  U28         0.0000
    542  OP1       79.4480   13.0120   18.3130 O.2    28  U28        -0.5000
    543  OP2       77.9760   14.7860   19.4590 O.co2  28  U28        -0.5000
    544  P         78.2750    9.4360   22.9070 P.3    29  A29         0.0000
    545  C5'       78.6710    8.8040   25.4240 C.3    29  A29         0.0000
    546  O5'       77.8660    9.4590   24.4480 O.3    29  A29         0.0000
    547  C4'       78.1510    9.0840   26.8150 C.3    29  A29         0.0000
    548  O4'       78.3630   10.4760   27.1630 O.3    29  A29         0.0000
    549  C3'       76.6620    8.8840   27.0240 C.3    29  A29         0.0000
    550  O3'       76.3530    7.5170   27.2260 O.3    29  A29         0.0000
    551  C2'       76.3950    9.7180   28.2700 C.3    29  A29         0.0000
    552  O2'       76.7390    9.0490   29.4670 O.3    29  A29         0.0000
    553  C1'       77.3300   10.9090   28.0400 C.3    29  A29         0.0000
    554  N1        74.5570   15.1510   28.8960 N.ar   29  A29         0.0000
    555  C2        75.0550   14.2200   29.7180 C.ar   29  A29         0.0000
    556  N3        75.7680   13.1310   29.4270 N.ar   29  A29         0.0000
    557  C4        75.9660   13.0360   28.1020 C.ar   29  A29         0.0000
    558  C5        75.5140   13.9130   27.1310 C.ar   29  A29         0.0000
    559  C6        74.7740   15.0240   27.5680 C.ar   29  A29         0.0000
    560  N6        74.2760   15.9510   26.7460 N.pl3  29  A29         0.0000
    561  N7        75.9060   13.4920   25.8680 N.ar   29  A29         0.0000
    562  C8        76.5790   12.3910   26.0990 C.ar   29  A29         0.0000
    563  N9        76.6570   12.0570   27.4310 N.ar   29  A29         0.0000
    564  OP1       78.5300    8.0220   22.5220 O.3    29  A29        -0.5000
    565  OP2       77.2850   10.2380   22.1360 O.co2  29  A29        -0.5000
    566  P         74.8780    6.9880   26.8920 P.3    30  A30         0.0000
    567  C5'       74.2060    7.2460   29.4200 C.3    30  A30         0.0000
    568  O5'       73.9900    7.6150   28.0600 O.3    30  A30         0.0000
    569  C4'       73.4470    8.1660   30.3450 C.3    30  A30         0.0000
    570  O4'       73.9200    9.5270   30.1670 O.3    30  A30         0.0000
    571  C3'       71.9550    8.2780   30.1000 C.3    30  A30         0.0000
    572  O3'       71.2450    7.1950   30.6830 O.3    30  A30         0.0000
    573  C2'       71.6250    9.6070   30.7670 C.3    30  A30         0.0000
    574  O2'       71.4990    9.5140   32.1750 O.3    30  A30         0.0000
    575  C1'       72.8530   10.4410   30.3930 C.3    30  A30         0.0000
    576  N1        71.0800   14.8380   28.3660 N.ar   30  A30         0.0000
    577  C2        71.1370   14.3960   29.6270 C.ar   30  A30         0.0000
    578  N3        71.6180   13.2490   30.0940 N.ar   30  A30         0.0000
    579  C4        72.0880   12.4870   29.0890 C.ar   30  A30         0.0000
    580  C5        72.0950   12.8100   27.7440 C.ar   30  A30         0.0000
    581  C6        71.5640   14.0510   27.3830 C.ar   30  A30         0.0000
    582  N6        71.5150   14.4910   26.1270 N.pl3  30  A30         0.0000
    583  N7        72.6580   11.7880   26.9950 N.ar   30  A30         0.0000
    584  C8        72.9730   10.8800   27.8880 C.ar   30  A30         0.0000
    585  N9        72.6520   11.2330   29.1760 N.ar   30  A30         0.0000
    586  OP1       74.8830    5.5070   27.0300 O.3    30  A30        -0.5000
    587  OP2       74.4620    7.6080   25.6020 O.co2  30  A30        -0.5000
    588  P         69.7450    6.8760   30.1940 P.3    31  G31         0.0000
    589  C5'       67.8270    8.6850   30.0630 C.3    31  G31         0.0000
    590  O5'       68.9180    8.1070   30.7780 O.3    31  G31         0.0000
    591  C4'       67.5530   10.0700   30.5930 C.3    31  G31         0.0000
    592  O4'       68.6180   10.9680   30.1780 O.3    31  G31         0.0000
    593  C3'       66.3010   10.7540   30.0830 C.3    31  G31         0.0000
    594  O3'       65.1650   10.2900   30.7960 O.3    31  G31         0.0000
    595  C2'       66.6220   12.2120   30.3800 C.3    31  G31         0.0000
    596  O2'       66.5440   12.5380   31.7540 O.3    31  G31         0.0000
    597  C1'       68.0890   12.2680   29.9600 C.3    31  G31         0.0000
    598  N1        67.2640   15.7550   26.3620 N.ar   31  G31         0.0000
    599  C2        66.9270   15.7780   27.6890 C.ar   31  G31         0.0000
    600  N2        66.2850   16.8660   28.1130 N.pl3  31  G31         0.0000
    601  N3        67.1980   14.8010   28.5370 N.ar   31  G31         0.0000
    602  C4        67.8400   13.7720   27.9380 C.ar   31  G31         0.0000
    603  C5        68.2170   13.6470   26.6190 C.ar   31  G31         0.0000
    604  C6        67.9250   14.7090   25.7210 C.ar   31  G31         0.0000
    605  O6        68.1840   14.7920   24.5150 O.2    31  G31         0.0000
    606  N7        68.8570   12.4380   26.4040 N.ar   31  G31         0.0000
    607  C8        68.8560   11.8570   27.5730 C.ar   31  G31         0.0000
    608  N9        68.2570   12.6110   28.5490 N.ar   31  G31         0.0000
    609  OP1       69.2990    5.6310   30.8770 O.3    31  G31        -0.5000
    610  OP2       69.7010    6.9510   28.7040 O.co2  31  G31        -0.5000
    611  P         63.7890   10.0240   30.0120 P.3    32  U32         0.0000
    612  C5'       62.9640   12.3580   30.8720 C.3    32  U32         0.0000
    613  O5'       63.2000   11.4840   29.7800 O.3    32  U32         0.0000
    614  C4'       62.5220   13.7090   30.3760 C.3    32  U32         0.0000
    615  O4'       63.6330   14.3910   29.7290 O.3    32  U32         0.0000
    616  C3'       61.4540   13.6900   29.3010 C.3    32  U32         0.0000
    617  O3'       60.1620   13.5040   29.8400 O.3    32  U32         0.0000
    618  C2'       61.6240   15.0660   28.6900 C.3    32  U32         0.0000
    619  O2'       61.1350   16.0680   29.5500 O.3    32  U32         0.0000
    620  C1'       63.1460   15.1710   28.6410 C.3    32  U32         0.0000
    621  N1        63.7230   14.6590   27.3810 N.ar   32  U32         0.0000
    622  C2        63.5570   15.4260   26.2220 C.ar   32  U32         0.0000
    623  O2        62.9360   16.4750   26.2000 O.2    32  U32         0.0000
    624  N3        64.1440   14.9080   25.0940 N.ar   32  U32         0.0000
    625  C4        64.8580   13.7210   24.9930 C.ar   32  U32         0.0000
    626  O4        65.3380   13.3900   23.9030 O.2    32  U32         0.0000
    627  C5        64.9710   12.9820   26.2200 C.ar   32  U32         0.0000
    628  C6        64.4170   13.4620   27.3400 C.ar   32  U32         0.0000
    629  OP1       62.8840    9.2780   30.9240 O.3    32  U32        -0.5000
    630  OP2       64.1160    9.4540   28.6740 O.co2  32  U32        -0.5000
    631  P         59.0620   12.6820   28.9990 P.3    33  U33         0.0000
    632  C5'       58.1190   14.9840   28.1610 C.3    33  U33         0.0000
    633  O5'       58.6190   13.6870   27.8440 O.3    33  U33         0.0000
    634  C4'       58.1930   15.8870   26.9520 C.3    33  U33         0.0000
    635  O4'       59.5730   15.9860   26.5080 O.3    33  U33         0.0000
    636  C3'       57.4590   15.4000   25.7110 C.3    33  U33         0.0000
    637  O3'       56.0710   15.6970   25.7810 O.3    33  U33         0.0000
    638  C2'       58.1550   16.1870   24.6110 C.3    33  U33         0.0000
    639  O2'       57.7120   17.5250   24.5250 O.3    33  U33         0.0000
    640  C1'       59.6050   16.1610   25.0990 C.3    33  U33         0.0000
    641  N1        60.4040   15.0800   24.4970 N.ar   33  U33         0.0000
    642  C2        60.7530   15.2080   23.1540 C.ar   33  U33         0.0000
    643  O2        60.4120   16.1580   22.4640 O.2    33  U33         0.0000
    644  N3        61.5090   14.1810   22.6490 N.ar   33  U33         0.0000
    645  C4        61.9360   13.0610   23.3190 C.ar   33  U33         0.0000
    646  O4        62.6130   12.2250   22.7220 O.2    33  U33         0.0000
    647  C5        61.5320   12.9940   24.6950 C.ar   33  U33         0.0000
    648  C6        60.8000   13.9800   25.2240 C.ar   33  U33         0.0000
    649  OP1       57.9110   12.4640   29.9080 O.3    33  U33        -0.5000
    650  OP2       59.7240   11.5160   28.3530 O.co2  33  U33        -0.5000
    651  P         54.9910   14.5420   25.4740 P.3    34  G34         0.0000
    652  C5'       54.8490   15.6820   23.1110 C.3    34  G34         0.0000
    653  O5'       54.9300   14.4870   23.8820 O.3    34  G34         0.0000
    654  C4'       55.4540   15.4600   21.7560 C.3    34  G34         0.0000
    655  O4'       56.8690   15.1870   21.9030 O.3    34  G34         0.0000
    656  C3'       54.9190   14.2540   21.0010 C.3    34  G34         0.0000
    657  O3'       53.7260   14.6060   20.3210 O.3    34  G34         0.0000
    658  C2'       56.0570   13.9390   20.0350 C.3    34  G34         0.0000
    659  O2'       56.0370   14.7250   18.8530 O.3    34  G34         0.0000
    660  C1'       57.2840   14.2740   20.8930 C.3    34  G34         0.0000
    661  N1        60.9110   10.7250   20.7520 N.ar   34  G34         0.0000
    662  C2        60.6460   11.7390   19.8550 C.ar   34  G34         0.0000
    663  N2        61.4510   11.8180   18.7880 N.pl3  34  G34         0.0000
    664  N3        59.6600   12.6100   19.9980 N.ar   34  G34         0.0000
    665  C4        58.9500   12.3870   21.1220 C.ar   34  G34         0.0000
    666  C5        59.1340   11.4100   22.0780 C.ar   34  G34         0.0000
    667  C6        60.1850   10.4810   21.9180 C.ar   34  G34         0.0000
    668  O6        60.4950    9.5390   22.6600 O.2    34  G34         0.0000
    669  N7        58.1900   11.5220   23.0830 N.ar   34  G34         0.0000
    670  C8        57.4630   12.5460   22.7300 C.ar   34  G34         0.0000
    671  N9        57.8730   13.1160   21.5520 N.ar   34  G34         0.0000
    672  OP1       53.6820   15.0180   25.9880 O.3    34  G34        -0.5000
    673  OP2       55.5160   13.2320   25.9290 O.co2  34  G34        -0.5000
    674  P         52.3450   13.8630   20.6840 P.3    35  A35         0.0000
    675  C5'       50.8310   15.9220   21.4250 C.3    35  A35         0.0000
    676  O5'       51.2440   14.9950   20.4060 O.3    35  A35         0.0000
    677  C4'       49.3210   15.8890   21.5790 C.3    35  A35         0.0000
    678  O4'       48.7140   16.3230   20.3550 O.3    35  A35         0.0000
    679  C3'       48.7600   14.5080   21.8570 C.3    35  A35         0.0000
    680  O3'       47.7430   14.4850   22.8610 O.3    35  A35         0.0000
    681  C2'       48.3420   13.9540   20.4960 C.3    35  A35         0.0000
    682  O2'       47.1110   13.2630   20.5260 O.3    35  A35         0.0000
    683  C1'       48.1430   15.2310   19.6710 C.3    35  A35         0.0000
    684  N1        47.9660   17.4460   15.0740 N.ar   35  A35         0.0000
    685  C2        47.1770   17.5370   16.1490 C.ar   35  A35         0.0000
    686  N3        47.2560   16.8870   17.3070 N.ar   35  A35         0.0000
    687  C4        48.3030   16.0430   17.3060 C.ar   35  A35         0.0000
    688  C5        49.1970   15.8360   16.2810 C.ar   35  A35         0.0000
    689  C6        49.0100   16.5840   15.1110 C.ar   35  A35         0.0000
    690  N6        49.8080   16.4900   14.0420 N.pl3  35  A35         0.0000
    691  N7        50.1470   14.8940   16.6440 N.ar   35  A35         0.0000
    692  C8        49.8140   14.5630   17.8630 C.ar   35  A35         0.0000
    693  N9        48.7280   15.2430   18.3370 N.ar   35  A35         0.0000
    694  OP1       52.3370   13.5220   22.1430 O.3    35  A35        -0.5000
    695  OP2       52.1850   12.7740   19.6810 O.co2  35  A35        -0.5000
    696  P         48.0300   15.0510   24.3410 P.3    36  C36         0.0000
    697  C5'       47.1850   17.1750   25.6120 C.3    36  C36         0.0000
    698  O5'       47.3520   16.4890   24.3720 O.3    36  C36         0.0000
    699  C4'       45.8260   17.8340   25.6810 C.3    36  C36         0.0000
    700  O4'       45.7340   18.8710   24.6760 O.3    36  C36         0.0000
    701  C3'       44.6410   16.9200   25.4320 C.3    36  C36         0.0000
    702  O3'       44.2540   16.3250   26.6690 O.3    36  C36         0.0000
    703  C2'       43.5860   17.8970   24.9270 C.3    36  C36         0.0000
    704  O2'       42.9580   18.6060   25.9610 O.3    36  C36         0.0000
    705  C1'       44.4300   18.8990   24.1420 C.3    36  C36         0.0000
    706  N1        44.4990   18.6420   22.6920 N.ar   36  C36         0.0000
    707  C2        43.3940   18.9740   21.9040 C.ar   36  C36         0.0000
    708  O2        42.3850   19.4520   22.4520 O.2    36  C36         0.0000
    709  N3        43.4470   18.7690   20.5670 N.ar   36  C36         0.0000
    710  C4        44.5490   18.2580   20.0170 C.ar   36  C36         0.0000
    711  N4        44.5600   18.0870   18.6910 N.pl3  36  C36         0.0000
    712  C5        45.6890   17.9020   20.8000 C.ar   36  C36         0.0000
    713  C6        45.6180   18.1040   22.1180 C.ar   36  C36         0.0000
    714  OP1       49.4910   15.1950   24.5650 O.2    36  C36         0.0000
    715  OP2       47.2200   14.2190   25.2630 O.co2  36  C36        -1.0000
    716  P         43.7020   14.8130   26.7170 P.3    37  G37         0.0000
    717  C5'       41.1290   14.5600   26.2960 C.3    37  G37         0.0000
    718  O5'       42.1830   15.0030   27.1300 O.3    37  G37         0.0000
    719  C4'       40.2150   15.7110   25.9760 C.3    37  G37         0.0000
    720  O4'       40.9250   16.6530   25.1350 O.3    37  G37         0.0000
    721  C3'       38.9890   15.3340   25.1710 C.3    37  G37         0.0000
    722  O3'       37.9590   14.9320   26.0610 O.3    37  G37         0.0000
    723  C2'       38.6600   16.6390   24.4670 C.3    37  G37         0.0000
    724  O2'       38.0530   17.5660   25.3410 O.3    37  G37         0.0000
    725  C1'       40.0580   17.1450   24.1280 C.3    37  G37         0.0000
    726  N1        39.4680   17.3200   19.0860 N.ar   37  G37         0.0000
    727  C2        38.6980   17.8720   20.0710 C.ar   37  G37         0.0000
    728  N2        37.6460   18.5750   19.6540 N.pl3  37  G37         0.0000
    729  N3        38.9380   17.7430   21.3670 N.ar   37  G37         0.0000
    730  C4        40.0350   16.9990   21.6000 C.ar   37  G37         0.0000
    731  C5        40.8710   16.3950   20.6870 C.ar   37  G37         0.0000
    732  C6        40.5940   16.5400   19.3020 C.ar   37  G37         0.0000
    733  O6        41.2080   16.0690   18.3430 O.2    37  G37         0.0000
    734  N7        41.8940   15.7110   21.3300 N.ar   37  G37         0.0000
    735  C8        41.6670   15.9140   22.5990 C.ar   37  G37         0.0000
    736  N9        40.5600   16.6980   22.8320 N.ar   37  G37         0.0000
    737  OP1       44.3480   14.1090   27.8410 O.2    37  G37         0.0000
    738  OP2       43.7700   14.2260   25.3550 O.co2  37  G37        -1.0000
    739  P         36.9910   13.7200   25.6620 P.3    38  A38         0.0000
    740  C5'       35.0510   15.2720   24.8700 C.3    38  A38         0.0000
    741  O5'       36.0740   14.3540   24.5290 O.3    38  A38         0.0000
    742  C4'       34.4340   15.8450   23.6270 C.3    38  A38         0.0000
    743  O4'       35.4620   16.5340   22.8680 O.3    38  A38         0.0000
    744  C3'       33.8440   14.8550   22.6390 C.3    38  A38         0.0000
    745  O3'       32.5230   14.5280   23.0280 O.3    38  A38         0.0000
    746  C2'       33.8710   15.6730   21.3520 C.3    38  A38         0.0000
    747  O2'       32.8720   16.6800   21.2980 O.3    38  A38         0.0000
    748  C1'       35.2300   16.3570   21.4790 C.3    38  A38         0.0000
    749  N1        37.4160   14.6130   17.2020 N.ar   38  A38         0.0000
    750  C2        36.3450   15.3880   17.4210 C.ar   38  A38         0.0000
    751  N3        35.8290   15.8000   18.5760 N.ar   38  A38         0.0000
    752  C4        36.5470   15.3260   19.6080 C.ar   38  A38         0.0000
    753  C5        37.6710   14.5180   19.5430 C.ar   38  A38         0.0000
    754  C6        38.1130   14.1510   18.2640 C.ar   38  A38         0.0000
    755  N6        39.1700   13.3800   18.0400 N.pl3  38  A38         0.0000
    756  N7        38.1410   14.2250   20.8180 N.ar   38  A38         0.0000
    757  C8        37.3040   14.8520   21.6110 C.ar   38  A38         0.0000
    758  N9        36.3160   15.5430   20.9390 N.ar   38  A38         0.0000
    759  OP1       36.1460   13.4050   26.8360 O.2    38  A38         0.0000
    760  OP2       37.8320   12.6490   25.0540 O.co2  38  A38        -1.0000
    761  P         31.8770   13.1190   22.6010 P.3    39  G39         0.0000
    762  C5'       31.2740   13.8150   20.1310 C.3    39  G39         0.0000
    763  O5'       32.0800   13.0430   21.0210 O.3    39  G39         0.0000
    764  C4'       31.6740   13.5480   18.7020 C.3    39  G39         0.0000
    765  O4'       33.0490   13.9670   18.4980 O.3    39  G39         0.0000
    766  C3'       31.6660   12.0860   18.3000 C.3    39  G39         0.0000
    767  O3'       30.3660   11.6970   17.8940 O.3    39  G39         0.0000
    768  C2'       32.6660   12.0560   17.1530 C.3    39  G39         0.0000
    769  O2'       32.1300   12.5210   15.9300 O.3    39  G39         0.0000
    770  C1'       33.7200   13.0390   17.6550 C.3    39  G39         0.0000
    771  N1        38.0740   10.3900   17.5900 N.ar   39  G39         0.0000
    772  C2        37.3200   10.8500   16.5360 C.ar   39  G39         0.0000
    773  N2        37.7880   10.5720   15.3190 N.pl3  39  G39         0.0000
    774  N3        36.1910   11.5360   16.6700 N.ar   39  G39         0.0000
    775  C4        35.8720   11.7270   17.9670 C.ar   39  G39         0.0000
    776  C5        36.5580   11.3110   19.0920 C.ar   39  G39         0.0000
    777  C6        37.7680   10.5800   18.9350 C.ar   39  G39         0.0000
    778  O6        38.5260   10.1320   19.8200 O.2    39  G39         0.0000
    779  N7        35.8970   11.7080   20.2440 N.ar   39  G39         0.0000
    780  C8        34.8450   12.3450   19.8120 C.ar   39  G39         0.0000
    781  N9        34.7680   12.3960   18.4410 N.ar   39  G39         0.0000
    782  OP1       30.4300   13.2540   22.8970 O.2    39  G39        -0.5000
    783  OP2       32.6490   12.0110   23.2200 O.co2  39  G39        -0.5000
    784  P         29.9010   10.1780   18.0850 P.3    40  A40         0.0000
    785  C5'       30.4700    9.7930   15.5550 C.3    40  A40         0.0000
    786  O5'       30.6570    9.4170   16.9140 O.3    40  A40         0.0000
    787  C4'       31.4920    9.1040   14.6900 C.3    40  A40         0.0000
    788  O4'       32.8120    9.5870   15.0600 O.3    40  A40         0.0000
    789  C3'       31.5920    7.5930   14.8480 C.3    40  A40         0.0000
    790  O3'       30.6610    6.9260   14.0060 O.3    40  A40         0.0000
    791  C2'       33.0130    7.3320   14.3770 C.3    40  A40         0.0000
    792  O2'       33.0880    7.4100   12.9620 O.3    40  A40         0.0000
    793  C1'       33.7560    8.5270   14.9780 C.3    40  A40         0.0000
    794  N1        37.8430    6.9040   17.6570 N.ar   40  A40         0.0000
    795  C2        37.6190    7.0310   16.3460 C.ar   40  A40         0.0000
    796  N3        36.5320    7.4640   15.7150 N.ar   40  A40         0.0000
    797  C4        35.5750    7.8050   16.5950 C.ar   40  A40         0.0000
    798  C5        35.6570    7.7330   17.9750 C.ar   40  A40         0.0000
    799  C6        36.8610    7.2490   18.5180 C.ar   40  A40         0.0000
    800  N6        37.0840    7.1090   19.8270 N.pl3  40  A40         0.0000
    801  N7        34.4780    8.1700   18.5630 N.ar   40  A40         0.0000
    802  C8        33.7180    8.4880   17.5440 C.ar   40  A40         0.0000
    803  N9        34.3180    8.2890   16.3160 N.ar   40  A40         0.0000
    804  OP1       28.4330   10.1460   17.8480 O.2    40  A40        -0.5000
    805  OP2       30.4500    9.6590   19.3630 O.co2  40  A40        -0.5000
    806  P         29.8400    5.6570   14.5620 P.3    41  G41         0.0000
    807  C5'       31.3690    4.1440   13.0500 C.3    41  G41         0.0000
    808  O5'       30.8080    4.4070   14.3350 O.3    41  G41         0.0000
    809  C4'       31.7340    2.6830   12.8990 C.3    41  G41         0.0000
    810  O4'       32.7180    2.3130   13.9000 O.3    41  G41         0.0000
    811  C3'       30.5180    1.7850   13.1510 C.3    41  G41         0.0000
    812  O3'       30.4650    0.7140   12.2170 O.3    41  G41         0.0000
    813  C2'       30.6360    1.3120   14.6000 C.3    41  G41         0.0000
    814  O2'       30.2510   -0.0400   14.7700 O.3    41  G41         0.0000
    815  C1'       32.1460    1.3810   14.7830 C.3    41  G41         0.0000
    816  N1        36.4550    0.3390   17.1670 N.ar   41  G41         0.0000
    817  C2        36.1700    0.3480   15.8210 C.ar   41  G41         0.0000
    818  N2        37.1740   -0.0050   14.9930 N.pl3  41  G41         0.0000
    819  N3        34.9940    0.6810   15.3210 N.ar   41  G41         0.0000
    820  C4        34.1110    1.0220   16.2860 C.ar   41  G41         0.0000
    821  C5        34.2920    1.0560   17.6490 C.ar   41  G41         0.0000
    822  C6        35.5630    0.6850   18.1790 C.ar   41  G41         0.0000
    823  O6        35.9280    0.6420   19.3640 O.2    41  G41         0.0000
    824  N7        33.1270    1.4670   18.2890 N.ar   41  G41         0.0000
    825  C8        32.2760    1.6650   17.3160 C.ar   41  G41         0.0000
    826  N9        32.8050    1.3870   16.0810 N.ar   41  G41         0.0000
    827  OP1       28.6440    5.4620   13.6970 O.2    41  G41        -0.5000
    828  OP2       29.6610    5.8540   16.0250 O.co2  41  G41        -0.5000
    829  P         29.3230    0.6600   11.1120 P.3    42  C42         0.0000
    830  C5'       28.5250   -1.5520   12.2700 C.3    42  C42         0.0000
    831  O5'       28.9260   -0.8770   11.0840 O.3    42  C42         0.0000
    832  C4'       28.0360   -2.9380   11.9350 C.3    42  C42         0.0000
    833  O4'       26.9530   -2.8230   10.9740 O.3    42  C42         0.0000
    834  C3'       29.0450   -3.8520   11.2610 C.3    42  C42         0.0000
    835  O3'       29.8090   -4.5480   12.2360 O.3    42  C42         0.0000
    836  C2'       28.1340   -4.8050   10.5060 C.3    42  C42         0.0000
    837  O2'       27.5190   -5.7220   11.3840 O.3    42  C42         0.0000
    838  C1'       27.0680   -3.8390    9.9940 C.3    42  C42         0.0000
    839  N1        27.3960   -3.1990    8.7020 N.ar   42  C42         0.0000
    840  C2        27.4010   -3.9790    7.5280 C.ar   42  C42         0.0000
    841  O2        27.1280   -5.1910    7.6030 O.2    42  C42         0.0000
    842  N3        27.7050   -3.3880    6.3460 N.ar   42  C42         0.0000
    843  C4        27.9960   -2.0830    6.3070 C.ar   42  C42         0.0000
    844  N4        28.3010   -1.5400    5.1250 N.pl3  42  C42         0.0000
    845  C5        27.9900   -1.2750    7.4780 C.ar   42  C42         0.0000
    846  C6        27.6910   -1.8650    8.6390 C.ar   42  C42         0.0000
    847  OP1       29.9490    0.9930    9.8070 O.2    42  C42        -0.5000
    848  OP2       28.1680    1.4500   11.6040 O.co2  42  C42        -0.5000
    849  P         31.3800   -4.7900   11.9990 P.3    43  A43         0.0000
    850  C5'       31.0780   -7.2590   11.2030 C.3    43  A43         0.0000
    851  O5'       31.4330   -5.9250   10.8850 O.3    43  A43         0.0000
    852  C4'       31.1790   -8.1250    9.9800 C.3    43  A43         0.0000
    853  O4'       30.2180   -7.6700    8.9930 O.3    43  A43         0.0000
    854  C3'       32.5020   -8.0490    9.2490 C.3    43  A43         0.0000
    855  O3'       33.4740   -8.8950    9.8290 O.3    43  A43         0.0000
    856  C2'       32.1170   -8.4950    7.8490 C.3    43  A43         0.0000
    857  O2'       31.9620   -9.8950    7.7470 O.3    43  A43         0.0000
    858  C1'       30.7640   -7.8060    7.6940 C.3    43  A43         0.0000
    859  N1        31.1870   -5.0800    3.3770 N.ar   43  A43         0.0000
    860  C2        31.1120   -6.4000    3.6030 C.ar   43  A43         0.0000
    861  N3        31.0130   -7.0490    4.7570 N.ar   43  A43         0.0000
    862  C4        30.9950   -6.1770    5.7850 C.ar   43  A43         0.0000
    863  C5        31.0680   -4.7970    5.7090 C.ar   43  A43         0.0000
    864  C6        31.1650   -4.2360    4.4330 C.ar   43  A43         0.0000
    865  N6        31.2330   -2.9250    4.2080 N.pl3  43  A43         0.0000
    866  N7        31.0280   -4.2320    6.9740 N.ar   43  A43         0.0000
    867  C8        30.9260   -5.2640    7.7750 C.ar   43  A43         0.0000
    868  N9        30.8920   -6.4700    7.1220 N.ar   43  A43         0.0000
    869  OP1       31.9650   -5.3400   13.2520 O.3    43  A43        -0.5000
    870  OP2       31.9230   -3.5360   11.4220 O.co2  43  A43        -0.5000
    871  P         35.0260   -8.6010    9.5580 P.3    44  G44         0.0000
    872  C5'       35.2220  -10.3310    7.6080 C.3    44  G44         0.0000
    873  O5'       35.1960   -8.9720    8.0200 O.3    44  G44         0.0000
    874  C4'       35.5480  -10.4150    6.1480 C.3    44  G44         0.0000
    875  O4'       34.4700   -9.7790    5.4140 O.3    44  G44         0.0000
    876  C3'       36.7740   -9.6340    5.7060 C.3    44  G44         0.0000
    877  O3'       37.9950  -10.3260    5.9270 O.3    44  G44         0.0000
    878  C2'       36.4920   -9.4510    4.2260 C.3    44  G44         0.0000
    879  O2'       36.7560  -10.6260    3.4810 O.3    44  G44         0.0000
    880  C1'       34.9910   -9.1460    4.2560 C.3    44  G44         0.0000
    881  N1        34.5070   -4.8450    1.6270 N.ar   44  G44         0.0000
    882  C2        34.6710   -6.1280    1.1750 C.ar   44  G44         0.0000
    883  N2        34.7470   -6.2840   -0.1530 N.pl3  44  G44         0.0000
    884  N3        34.7530   -7.1830    1.9670 N.ar   44  G44         0.0000
    885  C4        34.6540   -6.8430    3.2720 C.ar   44  G44         0.0000
    886  C5        34.4820   -5.5920    3.8250 C.ar   44  G44         0.0000
    887  C6        34.3970   -4.4740    2.9610 C.ar   44  G44         0.0000
    888  O6        34.2500   -3.2910    3.2520 O.2    44  G44         0.0000
    889  N7        34.4280   -5.6670    5.2100 N.ar   44  G44         0.0000
    890  C8        34.5710   -6.9400    5.4720 C.ar   44  G44         0.0000
    891  N9        34.7340   -7.7080    4.3390 N.ar   44  G44         0.0000
    892  OP1       35.8160   -9.5580   10.3810 O.3    44  G44        -0.5000
    893  OP2       35.2520   -7.1340    9.7110 O.co2  44  G44        -0.5000
    894  P         39.3730   -9.4940    6.0300 P.3    45  G45         0.0000
    895  C5'       39.8620   -9.7790    3.4550 C.3    45  G45         0.0000
    896  O5'       39.6000   -8.9150    4.5600 O.3    45  G45         0.0000
    897  C4'       39.9180   -8.9860    2.1660 C.3    45  G45         0.0000
    898  O4'       38.6120   -8.4020    1.8990 O.3    45  G45         0.0000
    899  C3'       40.8450   -7.7820    2.1600 C.3    45  G45         0.0000
    900  O3'       42.2070   -8.1310    1.9470 O.3    45  G45         0.0000
    901  C2'       40.2670   -6.9410    1.0280 C.3    45  G45         0.0000
    902  O2'       40.6370   -7.3400   -0.2780 O.3    45  G45         0.0000
    903  C1'       38.7700   -7.1410    1.2530 C.3    45  G45         0.0000
    904  N1        37.3500   -2.2980    1.5620 N.ar   45  G45         0.0000
    905  C2        37.7230   -3.0320    0.4660 C.ar   45  G45         0.0000
    906  N2        37.7560   -2.3800   -0.6950 N.pl3  45  G45         0.0000
    907  N3        38.0440   -4.3090    0.5100 N.ar   45  G45         0.0000
    908  C4        37.9660   -4.8040    1.7580 C.ar   45  G45         0.0000
    909  C5        37.6090   -4.1570    2.9200 C.ar   45  G45         0.0000
    910  C6        37.2650   -2.7900    2.8610 C.ar   45  G45         0.0000
    911  O6        36.9220   -2.0430    3.7820 O.2    45  G45         0.0000
    912  N7        37.6580   -5.0230    4.0020 N.ar   45  G45         0.0000
    913  C8        38.0430   -6.1590    3.4890 C.ar   45  G45         0.0000
    914  N9        38.2650   -6.0890    2.1320 N.ar   45  G45         0.0000
    915  OP1       40.4440  -10.4710    6.3300 O.2    45  G45        -0.5000
    916  OP2       39.1640   -8.3350    6.9420 O.co2  45  G45        -0.5000
    917  P         43.3720   -7.1420    2.4560 P.3    46  G46         0.0000
    918  C5'       43.4210   -5.9730    0.1130 C.3    46  G46         0.0000
    919  O5'       43.2150   -5.8640    1.5150 O.3    46  G46         0.0000
    920  C4'       43.2160   -4.6370   -0.5490 C.3    46  G46         0.0000
    921  O4'       41.8220   -4.2440   -0.4160 O.3    46  G46         0.0000
    922  C3'       43.9770   -3.4740    0.0620 C.3    46  G46         0.0000
    923  O3'       45.3320   -3.4150   -0.3700 O.3    46  G46         0.0000
    924  C2'       43.1450   -2.2890   -0.4140 C.3    46  G46         0.0000
    925  O2'       43.3340   -1.9880   -1.7800 O.3    46  G46         0.0000
    926  C1'       41.7320   -2.8340   -0.2130 C.3    46  G46         0.0000
    927  N1        39.5370    0.5250    2.9240 N.ar   46  G46         0.0000
    928  C2        39.8610    0.6540    1.6000 C.ar   46  G46         0.0000
    929  N2        39.5710    1.8360    1.0440 N.pl3  46  G46         0.0000
    930  N3        40.4270   -0.3020    0.8760 N.ar   46  G46         0.0000
    931  C4        40.6500   -1.4170    1.6010 C.ar   46  G46         0.0000
    932  C5        40.3650   -1.6490    2.9310 C.ar   46  G46         0.0000
    933  C6        39.7560   -0.6110    3.6940 C.ar   46  G46         0.0000
    934  O6        39.4280   -0.6170    4.8900 O.2    46  G46         0.0000
    935  N7        40.7490   -2.9320    3.3040 N.ar   46  G46         0.0000
    936  C8        41.2540   -3.4470    2.2160 C.ar   46  G46         0.0000
    937  N9        41.2300   -2.5810    1.1420 N.ar   46  G46         0.0000
    938  OP1       44.6780   -7.7870    2.1530 O.2    46  G46        -0.5000
    939  OP2       43.0530   -6.7550    3.8650 O.co2  46  G46        -0.5000
    940  P         46.4480   -2.7420    0.5850 P.3    47  U47         0.0000
    941  C5'       46.0010   -0.4550   -0.5870 C.3    47  U47         0.0000
    942  O5'       46.0530   -1.2010    0.6210 O.3    47  U47         0.0000
    943  C4'       45.4870    0.9380   -0.3290 C.3    47  U47         0.0000
    944  O4'       44.0930    0.8850    0.0770 O.3    47  U47         0.0000
    945  C3'       46.1840    1.7060    0.7790 C.3    47  U47         0.0000
    946  O3'       47.3900    2.3050    0.2980 O.3    47  U47         0.0000
    947  C2'       45.1140    2.7230    1.1640 C.3    47  U47         0.0000
    948  O2'       45.0120    3.7990    0.2530 O.3    47  U47         0.0000
    949  C1'       43.8460    1.8720    1.0660 C.3    47  U47         0.0000
    950  N1        43.5050    1.1920    2.3270 N.ar   47  U47         0.0000
    951  C2        42.6800    1.8570    3.2250 C.ar   47  U47         0.0000
    952  O2        42.2150    2.9660    3.0090 O.2    47  U47         0.0000
    953  N3        42.4170    1.1710    4.3840 N.ar   47  U47         0.0000
    954  C4        42.8770   -0.0790    4.7300 C.ar   47  U47         0.0000
    955  O4        42.5430   -0.5680    5.8050 O.2    47  U47         0.0000
    956  C5        43.7130   -0.7010    3.7530 C.ar   47  U47         0.0000
    957  C6        43.9910   -0.0650    2.6170 C.ar   47  U47         0.0000
    958  OP1       47.7540   -2.8560   -0.1080 O.2    47  U47        -0.5000
    959  OP2       46.2900   -3.3190    1.9440 O.co2  47  U47        -0.5000
    960  P         48.6170    2.5770    1.3090 P.3    48  U48         0.0000
    961  C5'       47.8520    5.0760    1.1700 C.3    48  U48         0.0000
    962  O5'       48.2650    3.9810    1.9810 O.3    48  U48         0.0000
    963  C4'       47.1980    6.1660    1.9970 C.3    48  U48         0.0000
    964  O4'       46.0950    5.6130    2.7740 O.3    48  U48         0.0000
    965  C3'       48.1820    6.7430    3.0230 C.3    48  U48         0.0000
    966  O3'       48.1570    8.1730    3.0210 O.3    48  U48         0.0000
    967  C2'       47.8600    6.0560    4.3550 C.3    48  U48         0.0000
    968  O2'       47.9220    6.9150    5.4720 O.3    48  U48         0.0000
    969  C1'       46.3880    5.7350    4.1440 C.3    48  U48         0.0000
    970  N1        45.6230    4.8000    4.9830 N.ar   48  U48         0.0000
    971  C2        44.6340    5.3720    5.7730 C.ar   48  U48         0.0000
    972  O2        44.3660    6.5620    5.7380 O.2    48  U48         0.0000
    973  N3        43.9680    4.5090    6.5990 N.ar   48  U48         0.0000
    974  C4        44.1670    3.1620    6.7160 C.ar   48  U48         0.0000
    975  O4        43.4860    2.5270    7.5200 O.2    48  U48         0.0000
    976  C5        45.1880    2.6300    5.8530 C.ar   48  U48         0.0000
    977  C6        45.8630    3.4500    5.0310 C.ar   48  U48         0.0000
    978  OP1       49.8230    2.7500    0.4670 O.2    48  U48        -0.5000
    979  OP2       48.6070    1.5400    2.3770 O.co2  48  U48        -0.5000
    980  P         49.5170    9.0120    3.1250 P.3    49  U49         0.0000
    981  C5'       48.8600   10.1520    5.4160 C.3    49  U49         0.0000
    982  O5'       49.1280   10.2840    4.0110 O.3    49  U49         0.0000
    983  C4'       48.0570   11.3390    5.9450 C.3    49  U49         0.0000
    984  O4'       48.9040   12.5200    6.0330 O.3    49  U49         0.0000
    985  C3'       46.8810   11.7480    5.0680 C.3    49  U49         0.0000
    986  O3'       45.5750   11.6860    5.6430 O.3    49  U49         0.0000
    987  C2'       47.3440   12.9470    4.2330 C.3    49  U49         0.0000
    988  O2'       46.3740   13.9760    4.1850 O.3    49  U49         0.0000
    989  C1'       48.5310   13.4760    5.0490 C.3    49  U49         0.0000
    990  N1        49.7330   13.8680    4.2860 N.ar   49  U49         0.0000
    991  C2        49.7470   15.1240    3.6690 C.ar   49  U49         0.0000
    992  O2        48.8000   15.9040    3.7000 O.2    49  U49         0.0000
    993  N3        50.9160   15.4300    3.0120 N.ar   49  U49         0.0000
    994  C4        52.0460   14.6340    2.9010 C.ar   49  U49         0.0000
    995  O4        53.0230   15.0550    2.2790 O.2    49  U49         0.0000
    996  C5        51.9510   13.3580    3.5470 C.ar   49  U49         0.0000
    997  C6        50.8300   13.0260    4.1980 C.ar   49  U49         0.0000
    998  OP1       49.8380    9.4890    1.7550 O.2    49  U49        -0.5000
    999  OP2       50.5020    8.1910    3.8710 O.co2  49  U49        -0.5000
   1000  P         44.4340   10.8260    4.9150 P.3    50  A50         0.0000
   1001  C5'       41.9010   11.3990    5.2960 C.3    50  A50         0.0000
   1002  O5'       43.1430   10.9640    5.8510 O.3    50  A50         0.0000
   1003  C4'       40.7680   11.3680    6.3140 C.3    50  A50         0.0000
   1004  O4'       40.3700   10.0010    6.5900 O.3    50  A50         0.0000
   1005  C3'       41.1310   11.9750    7.6690 C.3    50  A50         0.0000
   1006  O3'       40.1180   12.8370    8.1680 O.3    50  A50         0.0000
   1007  C2'       41.4430   10.7980    8.5910 C.3    50  A50         0.0000
   1008  O2'       40.8420   10.9480    9.8590 O.3    50  A50         0.0000
   1009  C1'       40.6440    9.6860    7.9300 C.3    50  A50         0.0000
   1010  N1        39.6710    5.3660   10.4060 N.ar   50  A50         0.0000
   1011  C2        39.1600    6.5970   10.4860 C.ar   50  A50         0.0000
   1012  N3        39.4840    7.6850    9.8050 N.ar   50  A50         0.0000
   1013  C4        40.4730    7.4200    8.9400 C.ar   50  A50         0.0000
   1014  C5        41.1020    6.2110    8.7410 C.ar   50  A50         0.0000
   1015  C6        40.6650    5.1320    9.5230 C.ar   50  A50         0.0000
   1016  N6        41.1730    3.8940    9.4400 N.pl3  50  A50         0.0000
   1017  N7        42.0790    6.3240    7.7650 N.ar   50  A50         0.0000
   1018  C8        42.0140    7.5810    7.4000 C.ar   50  A50         0.0000
   1019  N9        41.0570    8.2960    8.0640 N.ar   50  A50         0.0000
   1020  OP1       44.8870    9.4090    4.9090 O.3    50  A50        -0.5000
   1021  OP2       44.1640   11.5100    3.6230 O.co2  50  A50        -0.5000
   1022  P         40.2500   14.4250    8.0280 P.3    51  U51         0.0000
   1023  C5'       37.6650   14.7960    8.1880 C.3    51  U51         0.0000
   1024  O5'       38.9470   14.9360    8.7800 O.3    51  U51         0.0000
   1025  C4'       36.5890   15.1940    9.1700 C.3    51  U51         0.0000
   1026  O4'       36.4040   14.1520   10.1660 O.3    51  U51         0.0000
   1027  C3'       36.8730   16.4400    9.9900 C.3    51  U51         0.0000
   1028  O3'       36.6010   17.6240    9.2560 O.3    51  U51         0.0000
   1029  C2'       35.9530   16.2450   11.1850 C.3    51  U51         0.0000
   1030  O2'       34.6090   16.5430   10.8890 O.3    51  U51         0.0000
   1031  C1'       36.0800   14.7400   11.4180 C.3    51  U51         0.0000
   1032  N1        37.1140   14.3660   12.4010 N.ar   51  U51         0.0000
   1033  C2        36.8330   14.5650   13.7520 C.ar   51  U51         0.0000
   1034  O2        35.7830   15.0360   14.1550 O.2    51  U51         0.0000
   1035  N3        37.8300   14.1920   14.6150 N.ar   51  U51         0.0000
   1036  C4        39.0530   13.6480   14.2890 C.ar   51  U51         0.0000
   1037  O4        39.8380   13.3490   15.1920 O.2    51  U51         0.0000
   1038  C5        39.2750   13.4720   12.8780 C.ar   51  U51         0.0000
   1039  C6        38.3250   13.8280   12.0070 C.ar   51  U51         0.0000
   1040  OP1       40.1240   14.8000    6.5940 O.2    51  U51        -0.5000
   1041  OP2       41.4410   14.8630    8.8020 O.co2  51  U51        -0.5000
   1042  P         37.4550   18.9550    9.5580 P.3    52  C52         0.0000
   1043  C5'       35.5330   19.6930   11.1730 C.3    52  C52         0.0000
   1044  O5'       36.9140   19.4070   10.9860 O.3    52  C52         0.0000
   1045  C4'       35.2280   19.8690   12.6360 C.3    52  C52         0.0000
   1046  O4'       35.4600   18.6180   13.3370 O.3    52  C52         0.0000
   1047  C3'       36.1030   20.8520   13.3960 C.3    52  C52         0.0000
   1048  O3'       35.7180   22.1990   13.1570 O.3    52  C52         0.0000
   1049  C2'       35.8530   20.4140   14.8320 C.3    52  C52         0.0000
   1050  O2'       34.5770   20.8010   15.3160 O.3    52  C52         0.0000
   1051  C1'       35.8760   18.8950   14.6680 C.3    52  C52         0.0000
   1052  N1        37.2110   18.3120   14.8810 N.ar   52  C52         0.0000
   1053  C2        37.7120   18.2270   16.1910 C.ar   52  C52         0.0000
   1054  O2        37.0370   18.6860   17.1190 O.2    52  C52         0.0000
   1055  N3        38.9220   17.6540   16.4050 N.ar   52  C52         0.0000
   1056  C4        39.6270   17.1850   15.3720 C.ar   52  C52         0.0000
   1057  N4        40.8080   16.6180   15.6190 N.pl3  52  C52         0.0000
   1058  C5        39.1490   17.2760   14.0290 C.ar   52  C52         0.0000
   1059  C6        37.9500   17.8450   13.8310 C.ar   52  C52         0.0000
   1060  OP1       37.0730   20.0020    8.5650 O.2    52  C52        -0.5000
   1061  OP2       38.8840   18.5750    9.7110 O.co2  52  C52        -0.5000
   1062  P         36.7470   23.2010   12.4400 P.3    53  G53         0.0000
   1063  C5'       36.7910   24.9090   14.4170 C.3    53  G53         0.0000
   1064  O5'       37.4860   23.9540   13.6370 O.3    53  G53         0.0000
   1065  C4'       36.7820   24.5020   15.8730 C.3    53  G53         0.0000
   1066  O4'       36.8500   23.0540   15.9910 O.3    53  G53         0.0000
   1067  C3'       37.9500   24.9770   16.7170 C.3    53  G53         0.0000
   1068  O3'       37.7250   26.3130   17.1260 O.3    53  G53         0.0000
   1069  C2'       37.8770   24.0200   17.9020 C.3    53  G53         0.0000
   1070  O2'       36.8620   24.3500   18.8380 O.3    53  G53         0.0000
   1071  C1'       37.5110   22.7110   17.1990 C.3    53  G53         0.0000
   1072  N1        41.4210   20.0900   19.0990 N.ar   53  G53         0.0000
   1073  C2        40.4470   20.8100   19.7550 C.ar   53  G53         0.0000
   1074  N2        40.5260   20.8370   21.0920 N.pl3  53  G53         0.0000
   1075  N3        39.4700   21.4600   19.1420 N.ar   53  G53         0.0000
   1076  C4        39.5470   21.3410   17.7950 C.ar   53  G53         0.0000
   1077  C5        40.4750   20.6530   17.0440 C.ar   53  G53         0.0000
   1078  C6        41.5190   19.9530   17.7140 C.ar   53  G53         0.0000
   1079  O6        42.4380   19.2870   17.2240 O.2    53  G53         0.0000
   1080  N7        40.2020   20.7800   15.6890 N.ar   53  G53         0.0000
   1081  C8        39.1320   21.5300   15.6430 C.ar   53  G53         0.0000
   1082  N9        38.6800   21.8990   16.8830 N.ar   53  G53         0.0000
   1083  OP1       35.9390   24.1820   11.6580 O.2    53  G53        -0.5000
   1084  OP2       37.7800   22.3790   11.7600 O.co2  53  G53        -0.5000
   1085  P         38.9690   27.2760   17.4170 P.3    54  A54         0.0000
   1086  C5'       38.9120   26.9290   20.0060 C.3    54  A54         0.0000
   1087  O5'       39.5660   26.6950   18.7670 O.3    54  A54         0.0000
   1088  C4'       39.7840   26.4680   21.1370 C.3    54  A54         0.0000
   1089  O4'       39.9450   25.0240   21.0560 O.3    54  A54         0.0000
   1090  C3'       41.2090   26.9910   21.1200 C.3    54  A54         0.0000
   1091  O3'       41.2680   28.2970   21.6810 O.3    54  A54         0.0000
   1092  C2'       41.9110   25.9530   21.9920 C.3    54  A54         0.0000
   1093  O2'       41.6390   26.1090   23.3710 O.3    54  A54         0.0000
   1094  C1'       41.2280   24.6650   21.5300 C.3    54  A54         0.0000
   1095  N1        45.2990   21.7850   20.3730 N.ar   54  A54         0.0000
   1096  C2        44.8570   22.3080   21.5170 C.ar   54  A54         0.0000
   1097  N3        43.7850   23.0570   21.7420 N.ar   54  A54         0.0000
   1098  C4        43.1080   23.2700   20.6060 C.ar   54  A54         0.0000
   1099  C5        43.4340   22.8060   19.3500 C.ar   54  A54         0.0000
   1100  C6        44.5960   22.0180   19.2450 C.ar   54  A54         0.0000
   1101  N6        45.0410   21.4900   18.1100 N.pl3  54  A54         0.0000
   1102  N7        42.5000   23.2310   18.4150 N.ar   54  A54         0.0000
   1103  C8        41.6430   23.9320   19.1200 C.ar   54  A54         0.0000
   1104  N9        41.9500   23.9910   20.4550 N.ar   54  A54         0.0000
   1105  OP1       38.4360   28.6380   17.6710 O.3    54  A54        -0.5000
   1106  OP2       39.9860   27.0730   16.3610 O.co2  54  A54        -0.5000
   1107  P         42.2380   29.4160   21.0390 P.3    55  G55         0.0000
   1108  C5'       44.1970   29.2100   22.8170 C.3    55  G55         0.0000
   1109  O5'       43.0940   29.9550   22.2770 O.3    55  G55         0.0000
   1110  C4'       44.7130   29.8790   24.0810 C.3    55  G55         0.0000
   1111  O4'       43.6860   30.6600   24.6940 O.3    55  G55         0.0000
   1112  C3'       45.2640   28.9110   25.1200 C.3    55  G55         0.0000
   1113  O3'       46.6650   29.1760   25.2910 O.3    55  G55         0.0000
   1114  C2'       44.5740   29.2860   26.4430 C.3    55  G55         0.0000
   1115  O2'       45.4790   29.5330   27.4890 O.3    55  G55         0.0000
   1116  C1'       43.8160   30.5680   26.0810 C.3    55  G55         0.0000
   1117  N1        38.8240   29.7040   26.0630 N.ar   55  G55         0.0000
   1118  C2        39.8240   29.0060   25.4270 C.ar   55  G55         0.0000
   1119  N2        39.4390   27.9830   24.6420 N.pl3  55  G55         0.0000
   1120  N3        41.1090   29.2900   25.5490 N.ar   55  G55         0.0000
   1121  C4        41.3150   30.3420   26.3700 C.ar   55  G55         0.0000
   1122  C5        40.3880   31.1010   27.0480 C.ar   55  G55         0.0000
   1123  C6        39.0210   30.7930   26.9090 C.ar   55  G55         0.0000
   1124  O6        38.0540   31.3590   27.4270 O.2    55  G55         0.0000
   1125  N7        41.0100   32.0970   27.7860 N.ar   55  G55         0.0000
   1126  C8        42.2780   31.9310   27.5440 C.ar   55  G55         0.0000
   1127  N9        42.5270   30.9090   26.6630 N.ar   55  G55         0.0000
   1128  OP1       41.3580   30.5200   20.5990 O.3    55  G55        -0.5000
   1129  OP2       43.1970   28.8090   20.0680 O.co2  55  G55        -0.5000
   1130  P         47.7110   28.9360   24.0900 P.3    56  A56         0.0000
   1131  C5'       48.5570   26.5910   24.9030 C.3    56  A56         0.0000
   1132  O5'       47.7750   27.3520   23.9900 O.3    56  A56         0.0000
   1133  C4'       49.2070   25.4580   24.1660 C.3    56  A56         0.0000
   1134  O4'       48.1680   24.5660   23.6920 O.3    56  A56         0.0000
   1135  C3'       49.9710   25.9130   22.9300 C.3    56  A56         0.0000
   1136  O3'       51.3320   26.1360   23.3070 O.3    56  A56         0.0000
   1137  C2'       49.7960   24.7340   21.9770 C.3    56  A56         0.0000
   1138  O2'       50.6930   23.6780   22.2410 O.3    56  A56         0.0000
   1139  C1'       48.3830   24.2590   22.3290 C.3    56  A56         0.0000
   1140  N1        46.0750   24.7690   17.7270 N.ar   56  A56         0.0000
   1141  C2        47.1620   24.0830   18.1100 C.ar   56  A56         0.0000
   1142  N3        47.7200   23.9870   19.3170 N.ar   56  A56         0.0000
   1143  C4        47.0260   24.7120   20.2160 C.ar   56  A56         0.0000
   1144  C5        45.8890   25.4640   19.9710 C.ar   56  A56         0.0000
   1145  C6        45.4050   25.4840   18.6520 C.ar   56  A56         0.0000
   1146  N6        44.3300   26.1700   18.2730 N.pl3  56  A56         0.0000
   1147  N7        45.4430   26.0770   21.1340 N.ar   56  A56         0.0000
   1148  C8        46.3030   25.6920   22.0420 C.ar   56  A56         0.0000
   1149  N9        47.2900   24.8620   21.5590 N.ar   56  A56         0.0000
   1150  OP1       49.0460   29.3970   24.5460 O.3    56  A56        -0.5000
   1151  OP2       47.1550   29.4840   22.8320 O.co2  56  A56        -0.5000
   1152  P         52.1800   27.3400   22.6580 P.3    57  C57         0.0000
   1153  C5'       52.9590   25.5630   20.9470 C.3    57  C57         0.0000
   1154  O5'       52.4450   26.8590   21.1690 O.3    57  C57         0.0000
   1155  C4'       53.1180   25.2910   19.4770 C.3    57  C57         0.0000
   1156  O4'       51.8100   25.2500   18.8440 O.3    57  C57         0.0000
   1157  C3'       53.8780   26.3750   18.7440 C.3    57  C57         0.0000
   1158  O3'       55.2640   26.1840   18.4130 O.3    57  C57         0.0000
   1159  C2'       52.8500   27.2780   18.0560 C.3    57  C57         0.0000
   1160  O2'       53.2090   27.5970   16.7300 O.3    57  C57         0.0000
   1161  C1'       51.6200   26.3670   17.9900 C.3    57  C57         0.0000
   1162  N1        50.3050   26.9780   18.2930 N.ar   57  C57         0.0000
   1163  C2        49.2760   26.8830   17.3370 C.ar   57  C57         0.0000
   1164  O2        49.4940   26.3000   16.2680 O.2    57  C57         0.0000
   1165  N3        48.0670   27.4280   17.6070 N.ar   57  C57         0.0000
   1166  C4        47.8580   28.0510   18.7710 C.ar   57  C57         0.0000
   1167  N4        46.6400   28.5780   18.9930 N.pl3  57  C57         0.0000
   1168  C5        48.8820   28.1660   19.7600 C.ar   57  C57         0.0000
   1169  C6        50.0800   27.6210   19.4800 C.ar   57  C57         0.0000
   1170  OP1       53.4790   27.3170   23.3590 O.3    57  C57        -0.5000
   1171  OP2       51.3720   28.5900   22.6480 O.co2  57  C57        -0.5000
   1172  P         55.6740   25.2280   17.1880 P.3    58  A58         0.0000
   1173  C5'       54.6390   22.8210   17.1310 C.3    58  A58         0.0000
   1174  O5'       55.4930   23.7590   17.7760 O.3    58  A58         0.0000
   1175  C4'       55.3420   21.4890   16.9600 C.3    58  A58         0.0000
   1176  O4'       56.6390   21.6900   16.3430 O.3    58  A58         0.0000
   1177  C3'       55.6220   20.8210   18.3070 C.3    58  A58         0.0000
   1178  O3'       55.3760   19.4240   18.1960 O.3    58  A58         0.0000
   1179  C2'       57.0600   21.1700   18.6530 C.3    58  A58         0.0000
   1180  O2'       57.7170   20.0910   19.2680 O.3    58  A58         0.0000
   1181  C1'       57.6460   21.3530   17.2580 C.3    58  A58         0.0000
   1182  N1        62.3130   21.1410   15.2930 N.ar   58  A58         0.0000
   1183  C2        61.3380   20.2340   15.4310 C.ar   58  A58         0.0000
   1184  N3        60.1350   20.3720   15.9690 N.ar   58  A58         0.0000
   1185  C4        59.9580   21.6320   16.4090 C.ar   58  A58         0.0000
   1186  C5        60.8590   22.6720   16.3360 C.ar   58  A58         0.0000
   1187  C6        62.0990   22.3970   15.7460 C.ar   58  A58         0.0000
   1188  N6        63.0690   23.3040   15.6110 N.pl3  58  A58         0.0000
   1189  N7        60.3210   23.8240   16.8880 N.ar   58  A58         0.0000
   1190  C8        59.1240   23.4570   17.2790 C.ar   58  A58         0.0000
   1191  N9        58.8390   22.1490   17.0150 N.ar   58  A58         0.0000
   1192  OP1       57.1060   25.4550   16.9140 O.3    58  A58        -0.5000
   1193  OP2       54.6860   25.4130   16.0980 O.co2  58  A58        -0.5000
   1194  P         55.0190   18.5430   19.4860 P.3    59  U59         0.0000
   1195  C5'       53.1090   17.1810   18.2660 C.3    59  U59         0.0000
   1196  O5'       53.4790   18.1860   19.2170 O.3    59  U59         0.0000
   1197  C4'       51.9330   17.6150   17.3970 C.3    59  U59         0.0000
   1198  O4'       50.7380   17.8230   18.2030 O.3    59  U59         0.0000
   1199  C3'       52.2010   18.9500   16.7080 C.3    59  U59         0.0000
   1200  O3'       51.9090   18.9500   15.3120 O.3    59  U59         0.0000
   1201  C2'       51.4680   20.0080   17.5260 C.3    59  U59         0.0000
   1202  O2'       50.8350   20.9560   16.7000 O.3    59  U59         0.0000
   1203  C1'       50.3570   19.1780   18.1590 C.3    59  U59         0.0000
   1204  N1        49.7420   19.6020   19.4260 N.ar   59  U59         0.0000
   1205  C2        48.4950   20.2110   19.3440 C.ar   59  U59         0.0000
   1206  O2        47.9180   20.4020   18.2920 O.2    59  U59         0.0000
   1207  N3        47.9450   20.5860   20.5430 N.ar   59  U59         0.0000
   1208  C4        48.4940   20.4280   21.7940 C.ar   59  U59         0.0000
   1209  O4        47.8620   20.8130   22.7860 O.2    59  U59         0.0000
   1210  C5        49.7860   19.7990   21.8030 C.ar   59  U59         0.0000
   1211  C6        50.3530   19.4150   20.6450 C.ar   59  U59         0.0000
   1212  OP1       55.1020   19.3990   20.6950 O.3    59  U59        -0.5000
   1213  OP2       55.8680   17.3200   19.4030 O.co2  59  U59        -0.5000
   1214  P         52.9130   18.2520   14.2740 P.3    60  C60         0.0000
   1215  C5'       54.3300   20.3120   13.4850 C.3    60  C60         0.0000
   1216  O5'       54.2140   19.1700   14.3240 O.3    60  C60         0.0000
   1217  C4'       55.6430   20.2770   12.7440 C.3    60  C60         0.0000
   1218  O4'       56.7210   20.4380   13.7020 O.3    60  C60         0.0000
   1219  C3'       55.9740   18.9770   12.0140 C.3    60  C60         0.0000
   1220  O3'       55.4350   18.9430   10.6980 O.3    60  C60         0.0000
   1221  C2'       57.4870   19.0440   11.9420 C.3    60  C60         0.0000
   1222  O2'       57.9070   19.9170   10.9150 O.3    60  C60         0.0000
   1223  C1'       57.8230   19.6320   13.3160 C.3    60  C60         0.0000
   1224  N1        58.0200   18.5750   14.3290 N.ar   60  C60         0.0000
   1225  C2        59.1590   17.7720   14.2370 C.ar   60  C60         0.0000
   1226  O2        59.9840   18.0080   13.3440 O.2    60  C60         0.0000
   1227  N3        59.3290   16.7580   15.1200 N.ar   60  C60         0.0000
   1228  C4        58.4200   16.5420   16.0700 C.ar   60  C60         0.0000
   1229  N4        58.6230   15.5260   16.9000 N.pl3  60  C60         0.0000
   1230  C5        57.2610   17.3590   16.2060 C.ar   60  C60         0.0000
   1231  C6        57.1030   18.3590   15.3250 C.ar   60  C60         0.0000
   1232  OP1       52.3000   18.3730   12.9220 O.2    60  C60        -0.5000
   1233  OP2       53.2490   16.9020   14.8070 O.co2  60  C60        -0.5000
   1234  P         54.9270   17.5500   10.0800 P.3    61  G61         0.0000
   1235  C5'       57.3540   16.8590    9.3420 C.3    61  G61         0.0000
   1236  O5'       56.2060   16.6030   10.1490 O.3    61  G61         0.0000
   1237  C4'       58.4210   15.8210    9.6020 C.3    61  G61         0.0000
   1238  O4'       58.9570   15.9810   10.9460 O.3    61  G61         0.0000
   1239  C3'       57.9470   14.3830    9.5950 C.3    61  G61         0.0000
   1240  O3'       57.8080   13.8740    8.2860 O.3    61  G61         0.0000
   1241  C2'       59.0530   13.6850   10.3680 C.3    61  G61         0.0000
   1242  O2'       60.2160   13.4800    9.6060 O.3    61  G61         0.0000
   1243  C1'       59.3310   14.7100   11.4670 C.3    61  G61         0.0000
   1244  N1        58.7980   11.7990   15.5720 N.ar   61  G61         0.0000
   1245  C2        59.7970   11.8090   14.6380 C.ar   61  G61         0.0000
   1246  N2        60.7740   10.9190   14.8160 N.pl3  61  G61         0.0000
   1247  N3        59.8340   12.6330   13.6070 N.ar   61  G61         0.0000
   1248  C4        58.7700   13.4620   13.5880 C.ar   61  G61         0.0000
   1249  C5        57.7180   13.5300   14.4730 C.ar   61  G61         0.0000
   1250  C6        57.6930   12.6430   15.5730 C.ar   61  G61         0.0000
   1251  O6        56.8460   12.5540   16.4710 O.2    61  G61         0.0000
   1252  N7        56.8230   14.5240   14.1010 N.ar   61  G61         0.0000
   1253  C8        57.3400   15.0320   13.0180 C.ar   61  G61         0.0000
   1254  N9        58.5170   14.4250   12.6460 N.ar   61  G61         0.0000
   1255  OP1       54.5830   17.7820    8.6540 O.2    61  G61        -0.5000
   1256  OP2       53.8990   16.9970   11.0000 O.co2  61  G61        -0.5000
   1257  P         56.7650   12.6830    8.0150 P.3    62  G62         0.0000
   1258  C5'       58.7690   10.9890    8.0350 C.3    62  G62         0.0000
   1259  O5'       57.5100   11.3850    8.5650 O.3    62  G62         0.0000
   1260  C4'       59.3820    9.9040    8.8880 C.3    62  G62         0.0000
   1261  O4'       59.6450   10.4230   10.2220 O.3    62  G62         0.0000
   1262  C3'       58.5130    8.6860    9.1460 C.3    62  G62         0.0000
   1263  O3'       58.5410    7.7720    8.0620 O.3    62  G62         0.0000
   1264  C2'       59.1450    8.1090   10.4050 C.3    62  G62         0.0000
   1265  O2'       60.3170    7.3550   10.1460 O.3    62  G62         0.0000
   1266  C1'       59.4680    9.3890   11.1850 C.3    62  G62         0.0000
   1267  N1        56.7840    8.2220   15.3290 N.ar   62  G62         0.0000
   1268  C2        57.9010    7.6140   14.8190 C.ar   62  G62         0.0000
   1269  N2        58.3370    6.5360   15.4830 N.pl3  62  G62         0.0000
   1270  N3        58.5410    8.0300   13.7410 N.ar   62  G62         0.0000
   1271  C4        57.9630    9.1230   13.2070 C.ar   62  G62         0.0000
   1272  C5        56.8500    9.8070   13.6430 C.ar   62  G62         0.0000
   1273  C6        56.1730    9.3470   14.7970 C.ar   62  G62         0.0000
   1274  O6        55.1560    9.8120   15.3370 O.2    62  G62         0.0000
   1275  N7        56.5780   10.8860   12.8130 N.ar   62  G62         0.0000
   1276  C8        57.5090   10.8330   11.9010 C.ar   62  G62         0.0000
   1277  N9        58.3690    9.7750   12.0670 N.ar   62  G62         0.0000
   1278  OP1       56.5930   12.5800    6.5380 O.2    62  G62        -0.5000
   1279  OP2       55.5750   12.9190    8.8790 O.co2  62  G62        -0.5000
   1280  P         57.2080    6.9590    7.6830 P.3    63  C63         0.0000
   1281  C5'       58.1180    4.8010    8.8440 C.3    63  C63         0.0000
   1282  O5'       57.1290    5.8140    8.7890 O.3    63  C63         0.0000
   1283  C4'       57.9300    3.9440   10.0700 C.3    63  C63         0.0000
   1284  O4'       58.1350    4.7480   11.2640 O.3    63  C63         0.0000
   1285  C3'       56.5470    3.3560   10.2880 C.3    63  C63         0.0000
   1286  O3'       56.2700    2.2300    9.4580 O.3    63  C63         0.0000
   1287  C2'       56.6060    3.0150   11.7720 C.3    63  C63         0.0000
   1288  O2'       57.3530    1.8520   12.0720 O.3    63  C63         0.0000
   1289  C1'       57.3180    4.2550   12.3170 C.3    63  C63         0.0000
   1290  N1        56.3330    5.2890   12.6810 N.ar   63  C63         0.0000
   1291  C2        55.6470    5.1550   13.8960 C.ar   63  C63         0.0000
   1292  O2        55.9290    4.2030   14.6420 O.2    63  C63         0.0000
   1293  N3        54.6960    6.0640   14.2250 N.ar   63  C63         0.0000
   1294  C4        54.4270    7.0790   13.3960 C.ar   63  C63         0.0000
   1295  N4        53.4700    7.9410   13.7550 N.pl3  63  C63         0.0000
   1296  C5        55.1270    7.2520   12.1620 C.ar   63  C63         0.0000
   1297  C6        56.0640    6.3440   11.8490 C.ar   63  C63         0.0000
   1298  OP1       57.4180    6.3200    6.3590 O.2    63  C63        -0.5000
   1299  OP2       56.0490    7.8700    7.8860 O.co2  63  C63        -0.5000
   1300  P         54.7890    2.0450    8.8430 P.3    64  G64         0.0000
   1301  C5'       54.1640    0.4140   10.7730 C.3    64  G64         0.0000
   1302  O5'       53.8920    1.6280   10.0920 O.3    64  G64         0.0000
   1303  C4'       53.4210    0.3470   12.0810 C.3    64  G64         0.0000
   1304  O4'       53.7620    1.4900   12.9110 O.3    64  G64         0.0000
   1305  C3'       51.9110    0.4390   12.0350 C.3    64  G64         0.0000
   1306  O3'       51.2980   -0.7550   11.5940 O.3    64  G64         0.0000
   1307  C2'       51.5990    0.7220   13.4940 C.3    64  G64         0.0000
   1308  O2'       51.6950   -0.4240   14.3180 O.3    64  G64         0.0000
   1309  C1'       52.6950    1.7370   13.8220 C.3    64  G64         0.0000
   1310  N1        49.5540    5.2990   15.5330 N.ar   64  G64         0.0000
   1311  C2        49.9050    4.1040   16.0990 C.ar   64  G64         0.0000
   1312  N2        49.3060    3.7930   17.2600 N.pl3  64  G64         0.0000
   1313  N3        50.7800    3.2690   15.5660 N.ar   64  G64         0.0000
   1314  C4        51.2780    3.7330   14.4000 C.ar   64  G64         0.0000
   1315  C5        50.9930    4.9090   13.7540 C.ar   64  G64         0.0000
   1316  C6        50.0600    5.7930   14.3350 C.ar   64  G64         0.0000
   1317  O6        49.6780    6.8790   13.9140 O.2    64  G64         0.0000
   1318  N7        51.7170    5.0120   12.5750 N.ar   64  G64         0.0000
   1319  C8        52.4120    3.9100   12.5270 C.ar   64  G64         0.0000
   1320  N9        52.1720    3.0800   13.5930 N.ar   64  G64         0.0000
   1321  OP1       54.8390    0.8810    7.9250 O.2    64  G64        -0.5000
   1322  OP2       54.3170    3.3610    8.3350 O.co2  64  G64        -0.5000
   1323  P         49.9040   -0.6740   10.7970 P.3    65  G65         0.0000
   1324  C5'       48.7470   -0.9770   13.1200 C.3    65  G65         0.0000
   1325  O5'       48.8550   -0.2400   11.9120 O.3    65  G65         0.0000
   1326  C4'       47.8120   -0.2850   14.0800 C.3    65  G65         0.0000
   1327  O4'       48.3720    0.9940   14.4630 O.3    65  G65         0.0000
   1328  C3'       46.4270    0.0740   13.5610 C.3    65  G65         0.0000
   1329  O3'       45.5480   -1.0470   13.5930 O.3    65  G65         0.0000
   1330  C2'       46.0060    1.1400   14.5610 C.3    65  G65         0.0000
   1331  O2'       45.6060    0.5920   15.8000 O.3    65  G65         0.0000
   1332  C1'       47.3210    1.8920   14.7660 C.3    65  G65         0.0000
   1333  N1        45.7540    6.6200   13.9110 N.ar   65  G65         0.0000
   1334  C2        45.4350    5.7690   14.9390 C.ar   65  G65         0.0000
   1335  N2        44.5810    6.2380   15.8530 N.pl3  65  G65         0.0000
   1336  N3        45.9190    4.5500   15.0580 N.ar   65  G65         0.0000
   1337  C4        46.7600    4.2420   14.0480 C.ar   65  G65         0.0000
   1338  C5        47.1400    5.0180   12.9780 C.ar   65  G65         0.0000
   1339  C6        46.6160    6.3240   12.8660 C.ar   65  G65         0.0000
   1340  O6        46.8360    7.1640   11.9960 O.2    65  G65         0.0000
   1341  N7        48.0260    4.3290   12.1580 N.ar   65  G65         0.0000
   1342  C8        48.1640    3.1670   12.7340 C.ar   65  G65         0.0000
   1343  N9        47.4200    3.0470   13.8840 N.ar   65  G65         0.0000
   1344  OP1       49.6130   -2.0600   10.3390 O.3    65  G65        -0.5000
   1345  OP2       49.9650    0.4420    9.8060 O.co2  65  G65        -0.5000
   1346  P         44.3010   -1.1140   12.5800 P.3    66  G66         0.0000
   1347  C5'       42.8050    0.3520   14.1630 C.3    66  G66         0.0000
   1348  O5'       43.4750    0.2030   12.9180 O.3    66  G66         0.0000
   1349  C4'       42.0570    1.6590   14.1870 C.3    66  G66         0.0000
   1350  O4'       43.0020    2.7610   14.2470 O.3    66  G66         0.0000
   1351  C3'       41.2430    1.9420   12.9410 C.3    66  G66         0.0000
   1352  O3'       39.9940    1.2550   12.9740 O.3    66  G66         0.0000
   1353  C2'       41.1330    3.4600   12.9850 C.3    66  G66         0.0000
   1354  O2'       40.2160    3.9330   13.9490 O.3    66  G66         0.0000
   1355  C1'       42.5390    3.8360   13.4420 C.3    66  G66         0.0000
   1356  N1        44.3590    6.9630    9.8720 N.ar   66  G66         0.0000
   1357  C2        43.4270    7.2180   10.8420 C.ar   66  G66         0.0000
   1358  N2        42.9060    8.4610   10.8460 N.pl3  66  G66         0.0000
   1359  N3        43.0340    6.3240   11.7370 N.ar   66  G66         0.0000
   1360  C4        43.6610    5.1400   11.5710 C.ar   66  G66         0.0000
   1361  C5        44.6060    4.7960   10.6320 C.ar   66  G66         0.0000
   1362  C6        45.0150    5.7530    9.6920 C.ar   66  G66         0.0000
   1363  O6        45.8410    5.6310    8.7890 O.2    66  G66         0.0000
   1364  N7        45.0100    3.4810   10.7960 N.ar   66  G66         0.0000
   1365  C8        44.3110    3.0500   11.8080 C.ar   66  G66         0.0000
   1366  N9        43.4660    4.0030   12.3250 N.ar   66  G66         0.0000
   1367  OP1       43.5000   -2.3080   12.9580 O.3    66  G66        -0.5000
   1368  OP2       44.7680   -0.9630   11.1740 O.co2  66  G66        -0.5000
   1369  P         39.1920    0.9840   11.6010 P.3    67  U67         0.0000
   1370  C5'       36.8730    2.1180   11.0080 C.3    67  U67         0.0000
   1371  O5'       38.2090    2.2410   11.4990 O.3    67  U67         0.0000
   1372  C4'       35.9590    3.0400   11.7810 C.3    67  U67         0.0000
   1373  O4'       36.0920    2.7130   13.1750 O.3    67  U67         0.0000
   1374  C3'       36.3340    4.5140   11.6840 C.3    67  U67         0.0000
   1375  O3'       35.5810    5.2740   10.7030 O.3    67  U67         0.0000
   1376  C2'       36.0230    5.0960   13.0700 C.3    67  U67         0.0000
   1377  O2'       34.8610    5.8660   13.1040 O.3    67  U67         0.0000
   1378  C1'       35.7810    3.8560   13.9240 C.3    67  U67         0.0000
   1379  N1        36.3910    3.7760   15.2590 N.ar   67  U67         0.0000
   1380  C2        35.6110    4.2120   16.3170 C.ar   67  U67         0.0000
   1381  O2        34.4990    4.7010   16.1620 O.2    67  U67         0.0000
   1382  N3        36.1730    4.0560   17.5580 N.ar   67  U67         0.0000
   1383  C4        37.4130    3.5360   17.8460 C.ar   67  U67         0.0000
   1384  O4        37.7730    3.4550   19.0230 O.2    67  U67         0.0000
   1385  C5        38.1750    3.1310   16.6970 C.ar   67  U67         0.0000
   1386  C6        37.6510    3.2680   15.4700 C.ar   67  U67         0.0000
   1387  OP1       38.4100   -0.2640   11.7600 O.3    67  U67        -0.5000
   1388  OP2       40.1500    1.1070   10.4800 O.co2  67  U67        -0.5000
   1389  P         34.2720    4.6560    9.9440 P.3    68  G68         0.0000
   1390  C5'       34.0560    7.1050    9.0530 C.3    68  G68         0.0000
   1391  O5'       34.0260    5.7080    8.7820 O.3    68  G68         0.0000
   1392  C4'       34.9980    7.8090    8.1050 C.3    68  G68         0.0000
   1393  O4'       36.3720    7.4930    8.4260 O.3    68  G68         0.0000
   1394  C3'       34.8740    7.4380    6.6400 C.3    68  G68         0.0000
   1395  O3'       33.8010    8.1440    6.0440 O.3    68  G68         0.0000
   1396  C2'       36.2200    7.8770    6.0840 C.3    68  G68         0.0000
   1397  O2'       36.2590    9.2750    5.8640 O.3    68  G68         0.0000
   1398  C1'       37.1550    7.5090    7.2390 C.3    68  G68         0.0000
   1399  N1        40.7640    4.7280    4.9440 N.ar   68  G68         0.0000
   1400  C2        40.3760    6.0180    4.6900 C.ar   68  G68         0.0000
   1401  N2        41.0510    6.6430    3.7170 N.pl3  68  G68         0.0000
   1402  N3        39.4030    6.6450    5.3370 N.ar   68  G68         0.0000
   1403  C4        38.8390    5.8590    6.2710 C.ar   68  G68         0.0000
   1404  C5        39.1510    4.5550    6.5970 C.ar   68  G68         0.0000
   1405  C6        40.1990    3.9010    5.9020 C.ar   68  G68         0.0000
   1406  O6        40.6320    2.7450    6.0580 O.2    68  G68         0.0000
   1407  N7        38.3270    4.0900    7.6110 N.ar   68  G68         0.0000
   1408  C8        37.5480    5.1000    7.8840 C.ar   68  G68         0.0000
   1409  N9        37.8140    6.2120    7.1230 N.ar   68  G68         0.0000
   1410  OP1       33.0940    4.7420   10.8270 O.3    68  G68        -0.5000
   1411  OP2       34.5910    3.3660    9.2760 O.co2  68  G68        -0.5000
   1412  P         32.9120    7.4240    4.9240 P.3    69  C69         0.0000
   1413  C5'       34.4280    8.3790    3.0030 C.3    69  C69         0.0000
   1414  O5'       33.9390    7.2480    3.7180 O.3    69  C69         0.0000
   1415  C4'       35.4920    7.9570    2.0150 C.3    69  C69         0.0000
   1416  O4'       36.6540    7.4670    2.7330 O.3    69  C69         0.0000
   1417  C3'       35.1170    6.8120    1.0840 C.3    69  C69         0.0000
   1418  O3'       34.4020    7.2770   -0.0510 O.3    69  C69         0.0000
   1419  C2'       36.4750    6.2540    0.6900 C.3    69  C69         0.0000
   1420  O2'       37.0900    7.0050   -0.3340 O.3    69  C69         0.0000
   1421  C1'       37.2580    6.4150    1.9950 C.3    69  C69         0.0000
   1422  N1        37.2560    5.1960    2.8210 N.ar   69  C69         0.0000
   1423  C2        38.2170    4.2240    2.5700 C.ar   69  C69         0.0000
   1424  O2        39.0280    4.4060    1.6480 O.2    69  C69         0.0000
   1425  N3        38.2460    3.1120    3.3380 N.ar   69  C69         0.0000
   1426  C4        37.3610    2.9560    4.3240 C.ar   69  C69         0.0000
   1427  N4        37.4460    1.8530    5.0690 N.pl3  69  C69         0.0000
   1428  C5        36.3580    3.9230    4.5930 C.ar   69  C69         0.0000
   1429  C6        36.3390    5.0180    3.8240 C.ar   69  C69         0.0000
   1430  OP1       31.8490    8.3700    4.5060 O.2    69  C69        -0.5000
   1431  OP2       32.5300    6.0780    5.4230 O.co2  69  C69        -0.5000
   1432  P         33.2040    6.3880   -0.6530 P.3    70  C70         0.0000
   1433  C5'       34.7570    5.5990   -2.6000 C.3    70  C70         0.0000
   1434  O5'       33.9560    5.2550   -1.4790 O.3    70  C70         0.0000
   1435  C4'       35.5360    4.4020   -3.0670 C.3    70  C70         0.0000
   1436  O4'       36.5080    4.0260   -2.0610 O.3    70  C70         0.0000
   1437  C3'       34.7200    3.1420   -3.2510 C.3    70  C70         0.0000
   1438  O3'       34.0330    3.1590   -4.4850 O.3    70  C70         0.0000
   1439  C2'       35.7820    2.0540   -3.1660 C.3    70  C70         0.0000
   1440  O2'       36.5300    1.8690   -4.3480 O.3    70  C70         0.0000
   1441  C1'       36.6930    2.6190   -2.0790 C.3    70  C70         0.0000
   1442  N1        36.3800    2.0750   -0.7480 N.ar   70  C70         0.0000
   1443  C2        36.7850    0.7730   -0.4490 C.ar   70  C70         0.0000
   1444  O2        37.3940    0.1270   -1.3080 O.2    70  C70         0.0000
   1445  N3        36.5040    0.2510    0.7640 N.ar   70  C70         0.0000
   1446  C4        35.8490    0.9800    1.6620 C.ar   70  C70         0.0000
   1447  N4        35.5900    0.4240    2.8440 N.pl3  70  C70         0.0000
   1448  C5        35.4260    2.3130    1.3870 C.ar   70  C70         0.0000
   1449  C6        35.7080    2.8160    0.1810 C.ar   70  C70         0.0000
   1450  OP1       32.4650    7.2510   -1.6130 O.2    70  C70        -0.5000
   1451  OP2       32.4750    5.7590    0.4900 O.co2  70  C70        -0.5000
   1452  P         32.6020    2.4480   -4.5950 P.3    71  C71         0.0000
   1453  C5'       33.6550    0.3420   -5.7280 C.3    71  C71         0.0000
   1454  O5'       32.9580    0.8950   -4.6230 O.3    71  C71         0.0000
   1455  C4'       33.9770   -1.1050   -5.4760 C.3    71  C71         0.0000
   1456  O4'       34.9560   -1.2160   -4.4120 O.3    71  C71         0.0000
   1457  C3'       32.8330   -1.9800   -5.0030 C.3    71  C71         0.0000
   1458  O3'       32.0180   -2.3800   -6.0920 O.3    71  C71         0.0000
   1459  C2'       33.5900   -3.1480   -4.3900 C.3    71  C71         0.0000
   1460  O2'       34.1350   -4.0210   -5.3600 O.3    71  C71         0.0000
   1461  C1'       34.7260   -2.4110   -3.6810 C.3    71  C71         0.0000
   1462  N1        34.3790   -2.0530   -2.2910 N.ar   71  C71         0.0000
   1463  C2        34.5630   -3.0060   -1.2890 C.ar   71  C71         0.0000
   1464  O2        35.0000   -4.1190   -1.6020 O.2    71  C71         0.0000
   1465  N3        34.2560   -2.6910   -0.0060 N.ar   71  C71         0.0000
   1466  C4        33.7720   -1.4800    0.2860 C.ar   71  C71         0.0000
   1467  N4        33.4730   -1.2110    1.5570 N.pl3  71  C71         0.0000
   1468  C5        33.5700   -0.4890   -0.7190 C.ar   71  C71         0.0000
   1469  C6        33.8840   -0.8130   -1.9810 C.ar   71  C71         0.0000
   1470  OP1       32.0100    2.8380   -5.9060 O.2    71  C71        -0.5000
   1471  OP2       31.8580    2.7300   -3.3390 O.co2  71  C71        -0.5000
   1472  P         30.4400   -2.5960   -5.8740 P.3    72  U72         0.0000
   1473  C5'       30.8110   -5.1750   -5.7610 C.3    72  U72         0.0000
   1474  O5'       30.3420   -3.9980   -5.1290 O.3    72  U72         0.0000
   1475  C4'       31.0060   -6.2630   -4.7470 C.3    72  U72         0.0000
   1476  O4'       31.9900   -5.8440   -3.7650 O.3    72  U72         0.0000
   1477  C3'       29.7920   -6.5930   -3.9060 C.3    72  U72         0.0000
   1478  O3'       28.9310   -7.4590   -4.6300 O.3    72  U72         0.0000
   1479  C2'       30.4430   -7.2880   -2.7210 C.3    72  U72         0.0000
   1480  O2'       30.8990   -8.5840   -3.0520 O.3    72  U72         0.0000
   1481  C1'       31.6620   -6.3950   -2.4990 C.3    72  U72         0.0000
   1482  N1        31.4080   -5.2980   -1.5470 N.ar   72  U72         0.0000
   1483  C2        31.4540   -5.6020   -0.1970 C.ar   72  U72         0.0000
   1484  O2        31.6810   -6.7270    0.2210 O.2    72  U72         0.0000
   1485  N3        31.2190   -4.5440    0.6460 N.ar   72  U72         0.0000
   1486  C4        30.9420   -3.2360    0.2930 C.ar   72  U72         0.0000
   1487  O4        30.7650   -2.3900    1.1770 O.2    72  U72         0.0000
   1488  C5        30.9040   -2.9980   -1.1220 C.ar   72  U72         0.0000
   1489  C6        31.1330   -4.0110   -1.9720 C.ar   72  U72         0.0000
   1490  OP1       29.8440   -2.7430   -7.2300 O.2    72  U72        -0.5000
   1491  OP2       29.9360   -1.5360   -4.9560 O.co2  72  U72        -0.5000
   1492  P         27.3400   -7.3890   -4.4030 P.3    73  G73         0.0000
   1493  C5'       27.4800   -9.5070   -2.8790 C.3    73  G73         0.0000
   1494  O5'       27.1170   -8.1420   -3.0180 O.3    73  G73         0.0000
   1495  C4'       27.4620   -9.9110   -1.4300 C.3    73  G73         0.0000
   1496  O4'       28.5020   -9.2050   -0.7100 O.3    73  G73         0.0000
   1497  C3'       26.2000   -9.5650   -0.6650 C.3    73  G73         0.0000
   1498  O3'       25.1850  -10.5210   -0.8950 O.3    73  G73         0.0000
   1499  C2'       26.6930   -9.5910    0.7740 C.3    73  G73         0.0000
   1500  O2'       26.8180  -10.9090    1.2690 O.3    73  G73         0.0000
   1501  C1'       28.0710   -8.9450    0.6170 C.3    73  G73         0.0000
   1502  N1        27.8910   -5.1780    3.9880 N.ar   73  G73         0.0000
   1503  C2        27.8680   -6.5350    4.1910 C.ar   73  G73         0.0000
   1504  N2        27.8020   -6.9510    5.4560 N.pl3  73  G73         0.0000
   1505  N3        27.9110   -7.4220    3.2240 N.ar   73  G73         0.0000
   1506  C4        27.9820   -6.8410    2.0100 C.ar   73  G73         0.0000
   1507  C5        28.0090   -5.4980    1.6960 C.ar   73  G73         0.0000
   1508  C6        27.9600   -4.5540    2.7460 C.ar   73  G73         0.0000
   1509  O6        27.9660   -3.3160    2.6710 O.2    73  G73         0.0000
   1510  N7        28.0800   -5.3130    0.3220 N.ar   73  G73         0.0000
   1511  C8        28.0990   -6.5250   -0.1640 C.ar   73  G73         0.0000
   1512  N9        28.0480   -7.4990    0.8080 N.ar   73  G73         0.0000
   1513  OP1       26.7550   -8.2090   -5.4900 O.2    73  G73        -0.5000
   1514  OP2       26.9370   -5.9690   -4.2590 O.co2  73  G73        -0.5000
   1515  P         23.6530  -10.0490   -0.9350 P.3    74  C74         0.0000
   1516  C5'       23.3470  -10.8020    1.5420 C.3    74  C74         0.0000
   1517  O5'       23.3010   -9.7620    0.5840 O.3    74  C74         0.0000
   1518  C4'       23.2010  -10.2330    2.9210 C.3    74  C74         0.0000
   1519  O4'       24.3810   -9.4460    3.2470 O.3    74  C74         0.0000
   1520  C3'       22.0730   -9.2340    3.0960 C.3    74  C74         0.0000
   1521  O3'       20.8050   -9.8600    3.1960 O.3    74  C74         0.0000
   1522  C2'       22.5140   -8.5110    4.3630 C.3    74  C74         0.0000
   1523  O2'       22.3340   -9.2740    5.5480 O.3    74  C74         0.0000
   1524  C1'       24.0080   -8.3540    4.0820 C.3    74  C74         0.0000
   1525  N1        24.3140   -7.0940    3.3780 N.ar   74  C74         0.0000
   1526  C2        24.5120   -5.9270    4.1290 C.ar   74  C74         0.0000
   1527  O2        24.4340   -5.9840    5.3690 O.2    74  C74         0.0000
   1528  N3        24.7800   -4.7670    3.4850 N.ar   74  C74         0.0000
   1529  C4        24.8480   -4.7440    2.1500 C.ar   74  C74         0.0000
   1530  N4        25.1090   -3.5790    1.5530 N.pl3  74  C74         0.0000
   1531  C5        24.6530   -5.9140    1.3670 C.ar   74  C74         0.0000
   1532  C6        24.3940   -7.0550    2.0140 C.ar   74  C74         0.0000
   1533  OP1       22.8340  -11.2060   -1.4010 O.3    74  C74        -0.5000
   1534  OP2       23.5780   -8.7490   -1.6530 O.co2  74  C74        -0.5000
   1535  P         19.4830   -9.0370    2.7920 P.3    75  G75         0.0000
   1536  C5'       19.3580   -8.2140    5.2690 C.3    75  G75         0.0000
   1537  O5'       19.4070   -7.8880    3.8840 O.3    75  G75         0.0000
   1538  C4'       19.4030   -6.9580    6.0990 C.3    75  G75         0.0000
   1539  O4'       20.7250   -6.3600    6.0120 O.3    75  G75         0.0000
   1540  C3'       18.4770   -5.8370    5.6570 C.3    75  G75         0.0000
   1541  O3'       17.1480   -6.0560    6.1040 O.3    75  G75         0.0000
   1542  C2'       19.1310   -4.6390    6.3250 C.3    75  G75         0.0000
   1543  O2'       18.8970   -4.6150    7.7230 O.3    75  G75         0.0000
   1544  C1'       20.6060   -4.9440    6.0550 C.3    75  G75         0.0000
   1545  N1        22.0980   -0.8500    3.4580 N.ar   75  G75         0.0000
   1546  C2        21.7620   -0.9630    4.7860 C.ar   75  G75         0.0000
   1547  N2        21.8360    0.1590    5.5130 N.pl3  75  G75         0.0000
   1548  N3        21.3860   -2.0950    5.3560 N.ar   75  G75         0.0000
   1549  C4        21.3820   -3.1220    4.4820 C.ar   75  G75         0.0000
   1550  C5        21.7060   -3.1140    3.1430 C.ar   75  G75         0.0000
   1551  C6        22.1000   -1.8980    2.5430 C.ar   75  G75         0.0000
   1552  O6        22.4260   -1.6940    1.3690 O.2    75  G75         0.0000
   1553  N7        21.5780   -4.3830    2.5960 N.ar   75  G75         0.0000
   1554  C8        21.1840   -5.1260    3.5920 C.ar   75  G75         0.0000
   1555  N9        21.0420   -4.4220    4.7660 N.ar   75  G75         0.0000
   1556  OP1       18.3350   -9.9550    3.0030 O.3    75  G75        -0.5000
   1557  OP2       19.6790   -8.3810    1.4690 O.co2  75  G75        -0.5000
   1558  P         15.9100   -5.5450    5.2130 P.3    76  G76         0.0000
   1559  C5'       15.6930   -3.4780    6.8350 C.3    76  G76         0.0000
   1560  O5'       15.8470   -3.9720    5.5040 O.3    76  G76         0.0000
   1561  C4'       15.8820   -1.9750    6.8810 C.3    76  G76         0.0000
   1562  O4'       17.2700   -1.6230    6.6220 O.3    76  G76         0.0000
   1563  C3'       15.1040   -1.1570    5.8670 C.3    76  G76         0.0000
   1564  O3'       13.7410   -0.9830    6.2550 O.3    76  G76         0.0000
   1565  C2'       15.8940    0.1520    5.8540 C.3    76  G76         0.0000
   1566  O2'       15.6040    1.0070    6.9470 O.3    76  G76         0.0000
   1567  C1'       17.3320   -0.3650    5.9560 C.3    76  G76         0.0000
   1568  N1        19.6460    1.8980    2.0150 N.ar   76  G76         0.0000
   1569  C2        19.1540    2.4530    3.1710 C.ar   76  G76         0.0000
   1570  N2        19.2910    3.7930    3.2920 N.pl3  76  G76         0.0000
   1571  N3        18.5700    1.7540    4.1380 N.ar   76  G76         0.0000
   1572  C4        18.5160    0.4360    3.8500 C.ar   76  G76         0.0000
   1573  C5        18.9770   -0.2170    2.7250 C.ar   76  G76         0.0000
   1574  C6        19.6030    0.5440    1.6960 C.ar   76  G76         0.0000
   1575  O6        20.0770    0.1500    0.6200 O.2    76  G76         0.0000
   1576  N7        18.7310   -1.5790    2.8090 N.ar   76  G76         0.0000
   1577  C8        18.1370   -1.7320    3.9620 C.ar   76  G76         0.0000
   1578  N9        17.9700   -0.5500    4.6470 N.ar   76  G76         0.0000
   1579  OP1       14.7000   -6.1840    5.7790 O.3    76  G76        -0.5000
   1580  OP2       16.2440   -5.7610    3.7800 O.co2  76  G76        -0.5000
   1581  P         12.5980   -0.8170    5.1280 P.3    77  U77         0.0000
   1582  C5'       12.6910    1.7750    5.4930 C.3    77  U77         0.0000
   1583  O5'       12.7850    0.6720    4.5990 O.3    77  U77         0.0000
   1584  C4'       13.1680    3.0380    4.8210 C.3    77  U77         0.0000
   1585  O4'       14.5960    2.9480    4.5480 O.3    77  U77         0.0000
   1586  C3'       12.5470    3.3360    3.4670 C.3    77  U77         0.0000
   1587  O3'       11.2910    3.9800    3.6090 O.3    77  U77         0.0000
   1588  C2'       13.5830    4.2610    2.8430 C.3    77  U77         0.0000
   1589  O2'       13.4870    5.5840    3.3240 O.3    77  U77         0.0000
   1590  C1'       14.8880    3.6220    3.3300 C.3    77  U77         0.0000
   1591  N1        15.4490    2.6550    2.3690 N.ar   77  U77         0.0000
   1592  C2        16.1690    3.1590    1.2960 C.ar   77  U77         0.0000
   1593  O2        16.3430    4.3540    1.1080 O.2    77  U77         0.0000
   1594  N3        16.6770    2.2140    0.4460 N.ar   77  U77         0.0000
   1595  C4        16.5440    0.8530    0.5450 C.ar   77  U77         0.0000
   1596  O4        17.0720    0.1380   -0.3030 O.2    77  U77         0.0000
   1597  C5        15.7840    0.4050    1.6730 C.ar   77  U77         0.0000
   1598  C6        15.2760    1.2960    2.5230 C.ar   77  U77         0.0000
   1599  OP1       11.2870   -0.9050    5.8170 O.3    77  U77        -0.5000
   1600  OP2       12.8960   -1.7450    4.0070 O.co2  77  U77        -0.5000
   1601  P         10.1480    3.7580    2.5020 P.3    78  C78         0.0000
   1602  C5'       10.6340    5.9490    1.1610 C.3    78  C78         0.0000
   1603  O5'       10.6750    4.5330    1.2160 O.3    78  C78         0.0000
   1604  C4'       11.3940    6.4470   -0.0400 C.3    78  C78         0.0000
   1605  O4'       12.7490    5.9330    0.0100 O.3    78  C78         0.0000
   1606  C3'       10.8920    5.9880   -1.3970 C.3    78  C78         0.0000
   1607  O3'        9.8180    6.8030   -1.8480 O.3    78  C78         0.0000
   1608  C2'       12.1260    6.1830   -2.2700 C.3    78  C78         0.0000
   1609  O2'       12.3530    7.5120   -2.6790 O.3    78  C78         0.0000
   1610  C1'       13.2420    5.7900   -1.3100 C.3    78  C78         0.0000
   1611  N1        13.6880    4.4060   -1.5300 N.ar   78  C78         0.0000
   1612  C2        14.6380    4.1760   -2.5330 C.ar   78  C78         0.0000
   1613  O2        15.0470    5.1420   -3.2030 O.2    78  C78         0.0000
   1614  N3        15.0840    2.9180   -2.7500 N.ar   78  C78         0.0000
   1615  C4        14.6130    1.9120   -2.0160 C.ar   78  C78         0.0000
   1616  N4        15.0880    0.6930   -2.2600 N.pl3  78  C78         0.0000
   1617  C5        13.6350    2.1130   -0.9950 C.ar   78  C78         0.0000
   1618  C6        13.2030    3.3640   -0.7880 C.ar   78  C78         0.0000
   1619  OP1        8.9410    4.4730    3.0010 O.3    78  C78        -0.5000
   1620  OP2       10.0620    2.3050    2.1650 O.co2  78  C78        -0.5000
   1621  P          8.8160    6.2520   -2.9780 P.3    79  U79         0.0000
   1622  C5'        6.8680    5.6190   -1.3590 C.3    79  U79         0.0000
   1623  O5'        7.9160    5.1830   -2.2080 O.3    79  U79         0.0000
   1624  C4'        5.7090    4.6410   -1.3600 C.3    79  U79         0.0000
   1625  O4'        5.5870    3.9730   -2.6490 O.3    79  U79         0.0000
   1626  C3'        5.9350    3.5280   -0.3450 C.3    79  U79         0.0000
   1627  O3'        4.7570    3.3380    0.4270 O.3    79  U79         0.0000
   1628  C2'        6.4520    2.3270   -1.1330 C.3    79  U79         0.0000
   1629  O2'        5.9490    1.0960   -0.6760 O.3    79  U79         0.0000
   1630  C1'        5.8340    2.5950   -2.4980 C.3    79  U79         0.0000
   1631  N1         6.4280    2.0310   -3.7160 N.ar   79  U79         0.0000
   1632  C2         5.7640    0.9540   -4.2890 C.ar   79  U79         0.0000
   1633  O2         4.7360    0.4810   -3.8300 O.2    79  U79         0.0000
   1634  N3         6.3410    0.4520   -5.4260 N.ar   79  U79         0.0000
   1635  C4         7.4840    0.9020   -6.0400 C.ar   79  U79         0.0000
   1636  O4         7.8720    0.3490   -7.0710 O.2    79  U79         0.0000
   1637  C5         8.1140    2.0160   -5.3890 C.ar   79  U79         0.0000
   1638  C6         7.5750    2.5290   -4.2740 C.ar   79  U79         0.0000
   1639  OP1        9.6000    5.5200   -4.0040 O.2    79  U79        -0.5000
   1640  OP2        7.9760    7.4100   -3.3860 O.co2  79  U79        -0.5000
   1641  P          4.8440    2.8130    1.9350 P.3    80  U80         0.0000
   1642  C5'        3.0260    1.6360    3.4190 C.3    80  U80         0.0000
   1643  O5'        3.4370    2.0960    2.1390 O.3    80  U80         0.0000
   1644  C4'        2.5530    0.2030    3.3400 C.3    80  U80         0.0000
   1645  O4'        1.4430    0.0890    2.4080 O.3    80  U80         0.0000
   1646  C3'        3.5430   -0.8040    2.7910 C.3    80  U80         0.0000
   1647  O3'        4.5170   -1.1640    3.7610 O.3    80  U80         0.0000
   1648  C2'        2.6270   -1.9680    2.4320 C.3    80  U80         0.0000
   1649  O2'        2.2250   -2.7410    3.5460 O.3    80  U80         0.0000
   1650  C1'        1.4110   -1.2280    1.8720 C.3    80  U80         0.0000
   1651  N1         1.4010   -1.1680    0.4000 N.ar   80  U80         0.0000
   1652  C2         1.1300   -2.3440   -0.2810 C.ar   80  U80         0.0000
   1653  O2         0.9230   -3.4040    0.2880 O.2    80  U80         0.0000
   1654  N3         1.1170   -2.2360   -1.6470 N.ar   80  U80         0.0000
   1655  C4         1.3480   -1.1020   -2.3910 C.ar   80  U80         0.0000
   1656  O4         1.3030   -1.1660   -3.6200 O.2    80  U80         0.0000
   1657  C5         1.6270    0.0690   -1.6220 C.ar   80  U80         0.0000
   1658  C6         1.6450   -0.0010   -0.2870 C.ar   80  U80         0.0000
   1659  OP1        4.8920    4.0230    2.7930 O.3    80  U80        -0.5000
   1660  OP2        5.9070    1.7720    2.0550 O.co2  80  U80        -0.5000
   1661  P          5.9810   -1.6420    3.2820 P.3    81  C81         0.0000
   1662  C5'        5.3260   -4.1600    3.5920 C.3    81  C81         0.0000
   1663  O5'        5.7550   -3.1170    2.7280 O.3    81  C81         0.0000
   1664  C4'        5.0310   -5.4000    2.7910 C.3    81  C81         0.0000
   1665  O4'        3.9330   -5.1400    1.8820 O.3    81  C81         0.0000
   1666  C3'        6.1540   -5.8580    1.8790 C.3    81  C81         0.0000
   1667  O3'        7.0850   -6.6400    2.6100 O.3    81  C81         0.0000
   1668  C2'        5.4040   -6.6850    0.8430 C.3    81  C81         0.0000
   1669  O2'        5.0680   -7.9850    1.2930 O.3    81  C81         0.0000
   1670  C1'        4.1310   -5.8600    0.6780 C.3    81  C81         0.0000
   1671  N1         4.1760   -4.9050   -0.4440 N.ar   81  C81         0.0000
   1672  C2         4.0680   -5.3990   -1.7560 C.ar   81  C81         0.0000
   1673  O2         3.9990   -6.6270   -1.9330 O.2    81  C81         0.0000
   1674  N3         4.0440   -4.5290   -2.7950 N.ar   81  C81         0.0000
   1675  C4         4.1350   -3.2190   -2.5670 C.ar   81  C81         0.0000
   1676  N4         4.0910   -2.3970   -3.6220 N.pl3  81  C81         0.0000
   1677  C5         4.2740   -2.6890   -1.2450 C.ar   81  C81         0.0000
   1678  C6         4.2940   -3.5590   -0.2250 C.ar   81  C81         0.0000
   1679  OP1        6.8430   -1.7440    4.4930 O.3    81  C81        -0.5000
   1680  OP2        6.4020   -0.7730    2.1420 O.co2  81  C81        -0.5000
   1681  P          8.6350   -6.6280    2.1940 P.3    82  C82         0.0000
   1682  C5'        8.3930   -8.8810    0.8730 C.3    82  C82         0.0000
   1683  O5'        8.6770   -7.4860    0.8500 O.3    82  C82         0.0000
   1684  C4'        8.3270   -9.4340   -0.5340 C.3    82  C82         0.0000
   1685  O4'        7.2220   -8.8220   -1.2470 O.3    82  C82         0.0000
   1686  C3'        9.5170   -9.1610   -1.4410 C.3    82  C82         0.0000
   1687  O3'       10.5980  -10.0520   -1.1920 O.3    82  C82         0.0000
   1688  C2'        8.9130   -9.3740   -2.8220 C.3    82  C82         0.0000
   1689  O2'        8.8010  -10.7380   -3.1900 O.3    82  C82         0.0000
   1690  C1'        7.5250   -8.7660   -2.6310 C.3    82  C82         0.0000
   1691  N1         7.4400   -7.3680   -3.0730 N.ar   82  C82         0.0000
   1692  C2         7.3870   -7.1020   -4.4510 C.ar   82  C82         0.0000
   1693  O2         7.4620   -8.0510   -5.2510 O.2    82  C82         0.0000
   1694  N3         7.2610   -5.8200   -4.8740 N.ar   82  C82         0.0000
   1695  C4         7.2040   -4.8270   -3.9830 C.ar   82  C82         0.0000
   1696  N4         7.0770   -3.5830   -4.4470 N.pl3  82  C82         0.0000
   1697  C5         7.2770   -5.0680   -2.5760 C.ar   82  C82         0.0000
   1698  C6         7.3960   -6.3390   -2.1700 C.ar   82  C82         0.0000
   1699  OP1        9.3500   -7.3690    3.2720 O.3    82  C82        -0.5000
   1700  OP2        9.0210   -5.2220    1.8800 O.co2  82  C82        -0.5000
   1701  P         12.1030   -9.5680   -1.4810 P.3    83  U83         0.0000
   1702  C5'       12.1880  -10.8330   -3.7810 C.3    83  U83         0.0000
   1703  O5'       12.2090   -9.5970   -3.0740 O.3    83  U83         0.0000
   1704  C4'       12.2710  -10.5920   -5.2670 C.3    83  U83         0.0000
   1705  O4'       11.0720   -9.9120   -5.7230 O.3    83  U83         0.0000
   1706  C3'       13.3920   -9.6810   -5.7310 C.3    83  U83         0.0000
   1707  O3'       14.6280  -10.3790   -5.8070 O.3    83  U83         0.0000
   1708  C2'       12.8840   -9.2300   -7.0970 C.3    83  U83         0.0000
   1709  O2'       13.0510  -10.2010   -8.1100 O.3    83  U83         0.0000
   1710  C1'       11.3920   -9.0540   -6.8130 C.3    83  U83         0.0000
   1711  N1        11.0260   -7.6710   -6.4590 N.ar   83  U83         0.0000
   1712  C2        10.7410   -6.7940   -7.4960 C.ar   83  U83         0.0000
   1713  O2        10.7860   -7.1170   -8.6740 O.2    83  U83         0.0000
   1714  N3        10.4030   -5.5200   -7.1050 N.ar   83  U83         0.0000
   1715  C4        10.3250   -5.0400   -5.8150 C.ar   83  U83         0.0000
   1716  O4        10.0170   -3.8610   -5.6240 O.2    83  U83         0.0000
   1717  C5        10.6340   -6.0040   -4.8020 C.ar   83  U83         0.0000
   1718  C6        10.9660   -7.2530   -5.1480 C.ar   83  U83         0.0000
   1719  OP1       13.0020  -10.6050   -0.9070 O.3    83  U83        -0.5000
   1720  OP2       12.2330   -8.1520   -1.0410 O.co2  83  U83        -0.5000
   1721  P         16.0110   -9.5640   -5.6990 P.3    84  G84         0.0000
   1722  C5'       16.2800   -9.4710   -8.3060 C.3    84  G84         0.0000
   1723  O5'       16.0910   -8.7690   -7.0790 O.3    84  G84         0.0000
   1724  C4'       16.2580   -8.5180   -9.4710 C.3    84  G84         0.0000
   1725  O4'       14.9300   -7.9530   -9.6060 O.3    84  G84         0.0000
   1726  C3'       17.1620   -7.3040   -9.3480 C.3    84  G84         0.0000
   1727  O3'       18.5040   -7.6200   -9.6940 O.3    84  G84         0.0000
   1728  C2'       16.5170   -6.3240  -10.3240 C.3    84  G84         0.0000
   1729  O2'       16.8870   -6.5310  -11.6760 O.3    84  G84         0.0000
   1730  C1'       15.0270   -6.6300  -10.1240 C.3    84  G84         0.0000
   1731  N1        12.9160   -2.0500   -9.4910 N.ar   84  G84         0.0000
   1732  C2        13.4630   -2.6120  -10.6170 C.ar   84  G84         0.0000
   1733  N2        13.4440   -1.8480  -11.7170 N.pl3  84  G84         0.0000
   1734  N3        13.9890   -3.8300  -10.6620 N.ar   84  G84         0.0000
   1735  C4        13.9230   -4.4500   -9.4680 C.ar   84  G84         0.0000
   1736  C5        13.4010   -3.9770   -8.2800 C.ar   84  G84         0.0000
   1737  C6        12.8390   -2.6670   -8.2490 C.ar   84  G84         0.0000
   1738  O6        12.3260   -2.0670   -7.2980 O.2    84  G84         0.0000
   1739  N7        13.5280   -4.9260   -7.2730 N.ar   84  G84         0.0000
   1740  C8        14.1110   -5.9380   -7.8560 C.ar   84  G84         0.0000
   1741  N9        14.3790   -5.7150   -9.1880 N.ar   84  G84         0.0000
   1742  OP1       17.0940  -10.5830   -5.6650 O.2    84  G84        -0.5000
   1743  OP2       15.8980   -8.5740   -4.5950 O.co2  84  G84        -0.5000
   1744  P         19.7200   -6.9070   -8.9110 P.3    85  C85         0.0000
   1745  C5'       20.1190   -5.3790  -10.9970 C.3    85  C85         0.0000
   1746  O5'       19.8260   -5.4770   -9.6070 O.3    85  C85         0.0000
   1747  C4'       19.6550   -4.0550  -11.5560 C.3    85  C85         0.0000
   1748  O4'       18.2070   -3.9460  -11.4650 O.3    85  C85         0.0000
   1749  C3'       20.1490   -2.8100  -10.8440 C.3    85  C85         0.0000
   1750  O3'       21.4750   -2.4930  -11.2330 O.3    85  C85         0.0000
   1751  C2'       19.1460   -1.7780  -11.3330 C.3    85  C85         0.0000
   1752  O2'       19.3700   -1.4030  -12.6700 O.3    85  C85         0.0000
   1753  C1'       17.8480   -2.5830  -11.2710 C.3    85  C85         0.0000
   1754  N1        17.2000   -2.4310   -9.9540 N.ar   85  C85         0.0000
   1755  C2        16.4650   -1.2680   -9.6980 C.ar   85  C85         0.0000
   1756  O2        16.3430   -0.4210  -10.5990 O.2    85  C85         0.0000
   1757  N3        15.9110   -1.0950   -8.4740 N.ar   85  C85         0.0000
   1758  C4        16.0700   -2.0270   -7.5320 C.ar   85  C85         0.0000
   1759  N4        15.5270   -1.8070   -6.3360 N.pl3  85  C85         0.0000
   1760  C5        16.7950   -3.2230   -7.7730 C.ar   85  C85         0.0000
   1761  C6        17.3340   -3.3860   -8.9850 C.ar   85  C85         0.0000
   1762  OP1       20.9460   -7.6880   -9.2370 O.2    85  C85        -0.5000
   1763  OP2       19.3430   -6.7020   -7.4820 O.co2  85  C85        -0.5000
   1764  P         22.5050   -1.9000  -10.1480 P.3    86  G86         0.0000
   1765  C5'       21.8940    0.4720  -11.0690 C.3    86  G86         0.0000
   1766  O5'       22.0200   -0.3980   -9.9530 O.3    86  G86         0.0000
   1767  C4'       21.1530    1.7240  -10.6750 C.3    86  G86         0.0000
   1768  O4'       19.7710    1.4010  -10.3730 O.3    86  G86         0.0000
   1769  C3'       21.6300    2.4200   -9.4110 C.3    86  G86         0.0000
   1770  O3'       22.7830    3.2220   -9.6350 O.3    86  G86         0.0000
   1771  C2'       20.4180    3.2680   -9.0590 C.3    86  G86         0.0000
   1772  O2'       20.3170    4.4330   -9.8540 O.3    86  G86         0.0000
   1773  C1'       19.2810    2.3000   -9.3900 C.3    86  G86         0.0000
   1774  N1        16.7280    2.3930   -5.0080 N.ar   86  G86         0.0000
   1775  C2        16.9730    3.4080   -5.8960 C.ar   86  G86         0.0000
   1776  N2        16.4670    4.6010   -5.5830 N.pl3  86  G86         0.0000
   1777  N3        17.6650    3.2640   -7.0100 N.ar   86  G86         0.0000
   1778  C4        18.1070    2.0010   -7.1680 C.ar   86  G86         0.0000
   1779  C5        17.9250    0.9180   -6.3370 C.ar   86  G86         0.0000
   1780  C6        17.1760    1.0860   -5.1460 C.ar   86  G86         0.0000
   1781  O6        16.9030    0.2470   -4.2820 O.2    86  G86         0.0000
   1782  N7        18.5440   -0.2090   -6.8570 N.ar   86  G86         0.0000
   1783  C8        19.0770    0.2000   -7.9780 C.ar   86  G86         0.0000
   1784  N9        18.8450    1.5300   -8.2300 N.ar   86  G86         0.0000
   1785  OP1       23.8480   -1.8940  -10.7860 O.2    86  G86        -0.5000
   1786  OP2       22.3100   -2.6160   -8.8630 O.co2  86  G86        -0.5000
   1787  P         23.8210    3.4750   -8.4330 P.3    87  A87         0.0000
   1788  C5'       22.6450    5.7930   -8.0130 C.3    87  A87         0.0000
   1789  O5'       23.0590    4.5230   -7.5020 O.3    87  A87         0.0000
   1790  C4'       21.9050    6.5830   -6.9500 C.3    87  A87         0.0000
   1791  O4'       20.6230    5.9590   -6.6660 O.3    87  A87         0.0000
   1792  C3'       22.5780    6.6710   -5.5880 C.3    87  A87         0.0000
   1793  O3'       23.5720    7.6860   -5.5680 O.3    87  A87         0.0000
   1794  C2'       21.4010    6.9920   -4.6770 C.3    87  A87         0.0000
   1795  O2'       21.0040    8.3440   -4.7620 O.3    87  A87         0.0000
   1796  C1'       20.3110    6.1140   -5.2900 C.3    87  A87         0.0000
   1797  N1        18.0690    3.1760   -1.7210 N.ar   87  A87         0.0000
   1798  C2        17.9320    4.4700   -2.0370 C.ar   87  A87         0.0000
   1799  N3        18.5560    5.1780   -2.9720 N.ar   87  A87         0.0000
   1800  C4        19.4290    4.4080   -3.6450 C.ar   87  A87         0.0000
   1801  C5        19.6840    3.0660   -3.4330 C.ar   87  A87         0.0000
   1802  C6        18.9560    2.4320   -2.4150 C.ar   87  A87         0.0000
   1803  N6        19.0910    1.1440   -2.1020 N.pl3  87  A87         0.0000
   1804  N7        20.6530    2.6050   -4.3130 N.ar   87  A87         0.0000
   1805  C8        20.9540    3.6600   -5.0290 C.ar   87  A87         0.0000
   1806  N9        20.2430    4.7850   -4.6850 N.ar   87  A87         0.0000
   1807  OP1       25.0140    4.1360   -9.0100 O.2    87  A87        -0.5000
   1808  OP2       23.9830    2.2080   -7.6720 O.co2  87  A87        -0.5000
   1809  P         24.8030    7.5740   -4.5410 P.3    88  C88         0.0000
   1810  C5'       23.5390    9.0040   -2.7660 C.3    88  C88         0.0000
   1811  O5'       24.1160    7.7610   -3.1200 O.3    88  C88         0.0000
   1812  C4'       22.8950    8.9030   -1.4200 C.3    88  C88         0.0000
   1813  O4'       21.7610    8.0010   -1.4980 O.3    88  C88         0.0000
   1814  C3'       23.7580    8.2850   -0.3400 C.3    88  C88         0.0000
   1815  O3'       24.6780    9.2290    0.1900 O.3    88  C88         0.0000
   1816  C2'       22.7060    7.8530    0.6710 C.3    88  C88         0.0000
   1817  O2'       22.2130    8.9430    1.4220 O.3    88  C88         0.0000
   1818  C1'       21.6040    7.3290   -0.2560 C.3    88  C88         0.0000
   1819  N1        21.6980    5.8710   -0.4770 N.ar   88  C88         0.0000
   1820  C2        21.0360    5.0100    0.4120 C.ar   88  C88         0.0000
   1821  O2        20.3650    5.4960    1.3360 O.2    88  C88         0.0000
   1822  N3        21.1440    3.6690    0.2440 N.ar   88  C88         0.0000
   1823  C4        21.8710    3.1790   -0.7600 C.ar   88  C88         0.0000
   1824  N4        21.9590    1.8560   -0.8750 N.pl3  88  C88         0.0000
   1825  C5        22.5440    4.0290   -1.6900 C.ar   88  C88         0.0000
   1826  C6        22.4290    5.3560   -1.5140 C.ar   88  C88         0.0000
   1827  OP1       25.6770    8.7490   -4.8120 O.2    88  C88        -0.5000
   1828  OP2       25.3780    6.2020   -4.5820 O.co2  88  C88        -0.5000
   1829  P         25.7830    8.7500    1.2540 P.3    89  C89         0.0000
   1830  C5'       25.3870    7.6040    3.5810 C.3    89  C89         0.0000
   1831  O5'       24.9270    8.4880    2.5700 O.3    89  C89         0.0000
   1832  C4'       24.2140    7.0210    4.3210 C.3    89  C89         0.0000
   1833  O4'       23.3210    6.3990    3.3660 O.3    89  C89         0.0000
   1834  C3'       24.5450    5.9270    5.3230 C.3    89  C89         0.0000
   1835  O3'       24.8260    6.4990    6.5920 O.3    89  C89         0.0000
   1836  C2'       23.2410    5.1520    5.3860 C.3    89  C89         0.0000
   1837  O2'       22.3070    5.7990    6.2300 O.3    89  C89         0.0000
   1838  C1'       22.7800    5.2150    3.9250 C.3    89  C89         0.0000
   1839  N1        23.2240    4.0730    3.1010 N.ar   89  C89         0.0000
   1840  C2        22.7100    2.7930    3.3680 C.ar   89  C89         0.0000
   1841  O2        21.8950    2.6500    4.2850 O.2    89  C89         0.0000
   1842  N3        23.1190    1.7480    2.6180 N.ar   89  C89         0.0000
   1843  C4        24.0010    1.9360    1.6380 C.ar   89  C89         0.0000
   1844  N4        24.3810    0.8750    0.9300 N.pl3  89  C89         0.0000
   1845  C5        24.5360    3.2220    1.3400 C.ar   89  C89         0.0000
   1846  C6        24.1250    4.2530    2.0880 C.ar   89  C89         0.0000
   1847  OP1       26.6970    9.9050    1.4900 O.3    89  C89        -0.5000
   1848  OP2       26.3480    7.4380    0.8190 O.co2  89  C89        -0.5000
   1849  P         25.9430    5.8420    7.5380 P.3    90  G90         0.0000
   1850  C5'       24.0820    4.6380    8.9830 C.3    90  G90         0.0000
   1851  O5'       25.2410    4.5370    8.1470 O.3    90  G90         0.0000
   1852  C4'       23.6660    3.2720    9.5130 C.3    90  G90         0.0000
   1853  O4'       23.4050    2.3810    8.4030 O.3    90  G90         0.0000
   1854  C3'       24.7690    2.6070   10.3340 C.3    90  G90         0.0000
   1855  O3'       24.2980    1.9040   11.4880 O.3    90  G90         0.0000
   1856  C2'       25.4790    1.6560    9.3760 C.3    90  G90         0.0000
   1857  O2'       25.7790    0.4170    9.9760 O.3    90  G90         0.0000
   1858  C1'       24.3750    1.3630    8.3720 C.3    90  G90         0.0000
   1859  N1        24.8460   -2.3770    5.0370 N.ar   90  G90         0.0000
   1860  C2        24.5050   -2.4210    6.3670 C.ar   90  G90         0.0000
   1861  N2        24.2340   -3.6280    6.8650 N.pl3  90  G90         0.0000
   1862  N3        24.4360   -1.3570    7.1440 N.ar   90  G90         0.0000
   1863  C4        24.7400   -0.2240    6.4750 C.ar   90  G90         0.0000
   1864  C5        25.0930   -0.0700    5.1540 C.ar   90  G90         0.0000
   1865  C6        25.1650   -1.2200    4.3300 C.ar   90  G90         0.0000
   1866  O6        25.4600   -1.2920    3.1340 O.2    90  G90         0.0000
   1867  N7        25.3200    1.2670    4.8580 N.ar   90  G90         0.0000
   1868  C8        25.1020    1.8870    5.9860 C.ar   90  G90         0.0000
   1869  N9        24.7350    1.0380    7.0000 N.ar   90  G90         0.0000
   1870  OP1       26.1870    6.8260    8.6240 O.3    90  G90        -0.5000
   1871  OP2       27.0740    5.4240    6.6690 O.co2  90  G90        -0.5000
   1872  P         23.6350    2.6800   12.7240 P.3    91  U91         0.0000
   1873  C5'       21.0070    2.4260   12.5380 C.3    91  U91         0.0000
   1874  O5'       22.2650    1.8900   12.9620 O.3    91  U91         0.0000
   1875  C4'       19.8920    1.3910   12.6690 C.3    91  U91         0.0000
   1876  O4'       20.0880    0.3130   11.7160 O.3    91  U91         0.0000
   1877  C3'       19.8840    0.7270   14.0460 C.3    91  U91         0.0000
   1878  O3'       18.5660    0.6200   14.5750 O.3    91  U91         0.0000
   1879  C2'       20.6170   -0.6030   13.8720 C.3    91  U91         0.0000
   1880  O2'       20.0440   -1.6640   14.5970 O.3    91  U91         0.0000
   1881  C1'       20.3580   -0.8890   12.3980 C.3    91  U91         0.0000
   1882  N1        21.2990   -1.7190   11.6380 N.ar   91  U91         0.0000
   1883  C2        20.9580   -3.0510   11.4650 C.ar   91  U91         0.0000
   1884  O2        19.9400   -3.5430   11.9180 O.2    91  U91         0.0000
   1885  N3        21.8530   -3.7870   10.7380 N.ar   91  U91         0.0000
   1886  C4        23.0280   -3.3440   10.1790 C.ar   91  U91         0.0000
   1887  O4        23.7270   -4.1330    9.5460 O.2    91  U91         0.0000
   1888  C5        23.3150   -1.9580   10.4050 C.ar   91  U91         0.0000
   1889  C6        22.4600   -1.2120   11.1120 C.ar   91  U91         0.0000
   1890  OP1       23.3470    4.0970   12.3800 O.2    91  U91        -0.5000
   1891  OP2       24.5150    2.3630   13.8730 O.co2  91  U91        -0.5000
   1892  P         18.1630    1.3800   15.9280 P.3    92  U92         0.0000
   1893  C5'       16.8010    3.2320   14.6300 C.3    92  U92         0.0000
   1894  O5'       17.9130    2.8970   15.4700 O.3    92  U92         0.0000
   1895  C4'       16.6700    4.7360   14.4470 C.3    92  U92         0.0000
   1896  O4'       16.7290    5.3880   15.7440 O.3    92  U92         0.0000
   1897  C3'       17.8030    5.3520   13.6260 C.3    92  U92         0.0000
   1898  O3'       17.3680    6.2630   12.6200 O.3    92  U92         0.0000
   1899  C2'       18.7930    5.9440   14.6260 C.3    92  U92         0.0000
   1900  O2'       19.2480    7.2170   14.2040 O.3    92  U92         0.0000
   1901  C1'       17.9010    6.1710   15.8470 C.3    92  U92         0.0000
   1902  N1        18.5150    5.9930   17.1680 N.ar   92  U92         0.0000
   1903  C2        18.9600    7.1410   17.8110 C.ar   92  U92         0.0000
   1904  O2        18.8440    8.2610   17.3320 O.2    92  U92         0.0000
   1905  N3        19.5430    6.9310   19.0350 N.ar   92  U92         0.0000
   1906  C4        19.7200    5.7180   19.6740 C.ar   92  U92         0.0000
   1907  O4        20.2690    5.6910   20.7780 O.2    92  U92         0.0000
   1908  C5        19.2260    4.5780   18.9470 C.ar   92  U92         0.0000
   1909  C6        18.6540    4.7530   17.7490 C.ar   92  U92         0.0000
   1910  OP1       19.3050    1.3080   16.8860 O.3    92  U92        -0.5000
   1911  OP2       16.8550    0.7720   16.2990 O.co2  92  U92        -0.5000
   1912  P         16.8420    5.7150   11.2130 P.3    93  A93         0.0000
   1913  C5'       19.2350    5.7280   10.1210 C.3    93  A93         0.0000
   1914  O5'       18.1070    4.9880   10.5780 O.3    93  A93         0.0000
   1915  C4'       19.8990    4.9940    8.9850 C.3    93  A93         0.0000
   1916  O4'       20.2910    3.6740    9.4410 O.3    93  A93         0.0000
   1917  C3'       19.0010    4.7510    7.7830 C.3    93  A93         0.0000
   1918  O3'       19.1060    5.8660    6.8990 O.3    93  A93         0.0000
   1919  C2'       19.6010    3.4890    7.1660 C.3    93  A93         0.0000
   1920  O2'       20.7040    3.7520    6.3260 O.3    93  A93         0.0000
   1921  C1'       20.0940    2.7330    8.4030 C.3    93  A93         0.0000
   1922  N1        19.3260   -2.3180    8.9380 N.ar   93  A93         0.0000
   1923  C2        20.3170   -1.6120    8.3800 C.ar   93  A93         0.0000
   1924  N3        20.4480   -0.2930    8.2610 N.ar   93  A93         0.0000
   1925  C4        19.3950    0.3400    8.8060 C.ar   93  A93         0.0000
   1926  C5        18.3010   -0.2460    9.4110 C.ar   93  A93         0.0000
   1927  C6        18.2800   -1.6510    9.4700 C.ar   93  A93         0.0000
   1928  N6        17.2900   -2.3550   10.0160 N.pl3  93  A93         0.0000
   1929  N7        17.4160    0.7190    9.8620 N.ar   93  A93         0.0000
   1930  C8        17.9850    1.8500    9.5270 C.ar   93  A93         0.0000
   1931  N9        19.1880    1.6950    8.8900 N.ar   93  A93         0.0000
   1932  OP1       16.4900    6.8760   10.3480 O.2    93  A93        -0.5000
   1933  OP2       15.8170    4.6800   11.5170 O.co2  93  A93        -0.5000
   1934  P         17.7890    6.4730    6.2100 P.3    94  G94         0.0000
   1935  C5'       19.2840    7.3990    4.2680 C.3    94  G94         0.0000
   1936  O5'       18.3360    7.6650    5.2940 O.3    94  G94         0.0000
   1937  C4'       19.7960    8.6750    3.6150 C.3    94  G94         0.0000
   1938  O4'       18.7550    9.2850    2.8050 O.3    94  G94         0.0000
   1939  C3'       20.2190    9.7500    4.6240 C.3    94  G94         0.0000
   1940  O3'       21.5020   10.2850    4.3160 O.3    94  G94         0.0000
   1941  C2'       19.0610   10.7390    4.7040 C.3    94  G94         0.0000
   1942  O2'       19.4700   12.0880    4.7000 O.3    94  G94         0.0000
   1943  C1'       18.4260   10.5390    3.3400 C.3    94  G94         0.0000
   1944  N1        15.2760   12.8550    0.1740 N.ar   94  G94         0.0000
   1945  C2        16.5920   12.5080    0.0030 C.ar   94  G94         0.0000
   1946  N2        17.1580   12.8850   -1.1540 N.pl3  94  G94         0.0000
   1947  N3        17.2990   11.8410    0.8960 N.ar   94  G94         0.0000
   1948  C4        16.5720   11.5440    1.9940 C.ar   94  G94         0.0000
   1949  C5        15.2540   11.8370    2.2600 C.ar   94  G94         0.0000
   1950  C6        14.5070   12.5550    1.2940 C.ar   94  G94         0.0000
   1951  O6        13.3230   12.9180    1.3470 O.2    94  G94         0.0000
   1952  N7        14.8820   11.3480    3.5060 N.ar   94  G94         0.0000
   1953  C8        15.9670   10.7870    3.9690 C.ar   94  G94         0.0000
   1954  N9        17.0360   10.9050    3.1140 N.ar   94  G94         0.0000
   1955  OP1       16.9520    7.0580    7.2900 O.3    94  G94        -0.5000
   1956  OP2       17.2240    5.4050    5.3340 O.co2  94  G94        -0.5000
   1957  P         22.2610   11.2600    5.3430 P.3    95  A95         0.0000
   1958  C5'       24.1810   11.5290    3.5870 C.3    95  A95         0.0000
   1959  O5'       23.1450   12.1410    4.3530 O.3    95  A95         0.0000
   1960  C4'       24.1700   12.0280    2.1600 C.3    95  A95         0.0000
   1961  O4'       22.9030   11.7100    1.5340 O.3    95  A95         0.0000
   1962  C3'       24.3050   13.5270    1.9680 C.3    95  A95         0.0000
   1963  O3'       25.6670   13.9320    2.0480 O.3    95  A95         0.0000
   1964  C2'       23.7330   13.7180    0.5680 C.3    95  A95         0.0000
   1965  O2'       24.6310   13.4140   -0.4840 O.3    95  A95         0.0000
   1966  C1'       22.5860   12.7070    0.5730 C.3    95  A95         0.0000
   1967  N1        18.8180   15.8110   -1.0290 N.ar   95  A95         0.0000
   1968  C2        19.9540   15.3840   -1.6070 C.ar   95  A95         0.0000
   1969  N3        20.8930   14.5680   -1.1270 N.ar   95  A95         0.0000
   1970  C4        20.5770   14.1620    0.1150 C.ar   95  A95         0.0000
   1971  C5        19.4520   14.5100    0.8430 C.ar   95  A95         0.0000
   1972  C6        18.5320   15.3820    0.2230 C.ar   95  A95         0.0000
   1973  N6        17.4010   15.8010    0.8000 N.pl3  95  A95         0.0000
   1974  N7        19.4660   13.8990    2.0880 N.ar   95  A95         0.0000
   1975  C8        20.5800   13.2070    2.0870 C.ar   95  A95         0.0000
   1976  N9        21.3020   13.3220    0.9240 N.ar   95  A95         0.0000
   1977  OP1       23.1720   10.3930    6.1380 O.3    95  A95        -0.5000
   1978  OP2       21.3240   12.1660    6.0530 O.co2  95  A95        -0.5000
   1979  P         26.0560   15.2390    2.8970 P.3    96  G96         0.0000
   1980  C5'       25.3820   16.7730    0.8610 C.3    96  G96         0.0000
   1981  O5'       25.1770   16.3860    2.2200 O.3    96  G96         0.0000
   1982  C4'       24.3110   17.7510    0.4260 C.3    96  G96         0.0000
   1983  O4'       23.0420   17.0570    0.2580 O.3    96  G96         0.0000
   1984  C3'       23.9820   18.8790    1.3960 C.3    96  G96         0.0000
   1985  O3'       24.8960   19.9660    1.3220 O.3    96  G96         0.0000
   1986  C2'       22.5930   19.2840    0.9330 C.3    96  G96         0.0000
   1987  O2'       22.6210   20.0800   -0.2340 O.3    96  G96         0.0000
   1988  C1'       21.9740   17.9140    0.6430 C.3    96  G96         0.0000
   1989  N1        18.0130   18.1340    3.8020 N.ar   96  G96         0.0000
   1990  C2        18.2260   18.8050    2.6230 C.ar   96  G96         0.0000
   1991  N2        17.2790   19.6660    2.2540 N.pl3  96  G96         0.0000
   1992  N3        19.2950   18.6440    1.8630 N.ar   96  G96         0.0000
   1993  C4        20.1520   17.7440    2.3890 C.ar   96  G96         0.0000
   1994  C5        20.0340   17.0250    3.5580 C.ar   96  G96         0.0000
   1995  C6        18.8850   17.2070    4.3610 C.ar   96  G96         0.0000
   1996  O6        18.6050   16.6670    5.4330 O.2    96  G96         0.0000
   1997  N7        21.1350   16.2060    3.7450 N.ar   96  G96         0.0000
   1998  C8        21.8920   16.4390    2.7080 C.ar   96  G96         0.0000
   1999  N9        21.3630   17.3750    1.8540 N.ar   96  G96         0.0000
   2000  OP1       27.5020   15.5090    2.6470 O.2    96  G96        -0.5000
   2001  OP2       25.5740   15.0530    4.2960 O.co2  96  G96        -0.5000
   2002  P         25.1550   20.8780    2.6280 P.3    97  G97         0.0000
   2003  C5'       23.4520   22.6650    1.7320 C.3    97  G97         0.0000
   2004  O5'       23.8330   21.7550    2.7620 O.3    97  G97         0.0000
   2005  C4'       22.1230   23.3090    2.0580 C.3    97  G97         0.0000
   2006  O4'       21.0490   22.3260    1.9890 O.3    97  G97         0.0000
   2007  C3'       21.9790   23.8800    3.4570 C.3    97  G97         0.0000
   2008  O3'       22.6150   25.1450    3.5820 O.3    97  G97         0.0000
   2009  C2'       20.4680   23.9850    3.5670 C.3    97  G97         0.0000
   2010  O2'       19.9730   25.0620    2.8000 O.3    97  G97         0.0000
   2011  C1'       20.0350   22.6620    2.9290 C.3    97  G97         0.0000
   2012  N1        17.3610   20.8170    6.8460 N.ar   97  G97         0.0000
   2013  C2        17.0850   21.8820    6.0230 C.ar   97  G97         0.0000
   2014  N2        15.9640   22.5620    6.2950 N.pl3  97  G97         0.0000
   2015  N3        17.8500   22.2530    5.0050 N.ar   97  G97         0.0000
   2016  C4        18.9340   21.4580    4.8720 C.ar   97  G97         0.0000
   2017  C5        19.3010   20.3680    5.6360 C.ar   97  G97         0.0000
   2018  C6        18.4680   19.9850    6.7290 C.ar   97  G97         0.0000
   2019  O6        18.6210   19.0550    7.5280 O.2    97  G97         0.0000
   2020  N7        20.4870   19.8140    5.1700 N.ar   97  G97         0.0000
   2021  C8        20.8200   20.5670    4.1530 C.ar   97  G97         0.0000
   2022  N9        19.9330   21.5970    3.9280 N.ar   97  G97         0.0000
   2023  OP1       26.2810   21.7920    2.3000 O.2    97  G97        -0.5000
   2024  OP2       25.2410   20.0030    3.8310 O.co2  97  G97        -0.5000
   2025  P         23.0230   25.6920    5.0420 P.3    98  A98         0.0000
   2026  C5'       20.8150   27.1140    5.1260 C.3    98  A98         0.0000
   2027  O5'       21.6320   26.0930    5.7020 O.3    98  A98         0.0000
   2028  C4'       19.5540   27.2860    5.9350 C.3    98  A98         0.0000
   2029  O4'       18.7750   26.0620    5.8790 O.3    98  A98         0.0000
   2030  C3'       19.7930   27.5220    7.4140 C.3    98  A98         0.0000
   2031  O3'       19.9700   28.9080    7.6410 O.3    98  A98         0.0000
   2032  C2'       18.5080   27.0080    8.0400 C.3    98  A98         0.0000
   2033  O2'       17.4640   27.9510    7.9520 O.3    98  A98         0.0000
   2034  C1'       18.2010   25.8030    7.1480 C.3    98  A98         0.0000
   2035  N1        17.6360   21.9380   10.4820 N.ar   98  A98         0.0000
   2036  C2        16.8680   22.9950   10.1940 C.ar   98  A98         0.0000
   2037  N3        17.0660   23.9600    9.3020 N.ar   98  A98         0.0000
   2038  C4        18.2240   23.7640    8.6420 C.ar   98  A98         0.0000
   2039  C5        19.1180   22.7230    8.8250 C.ar   98  A98         0.0000
   2040  C6        18.7920   21.7710    9.8020 C.ar   98  A98         0.0000
   2041  N6        19.5600   20.7230   10.0940 N.pl3  98  A98         0.0000
   2042  N7        20.2040   22.8480    7.9650 N.ar   98  A98         0.0000
   2043  C8        19.9510   23.9460    7.2950 C.ar   98  A98         0.0000
   2044  N9        18.7720   24.5580    7.6600 N.ar   98  A98         0.0000
   2045  OP1       23.8070   26.9400    4.8290 O.2    98  A98        -0.5000
   2046  OP2       23.6000   24.5910    5.8530 O.co2  98  A98        -0.5000
   2047  P         20.9270   29.4070    8.8280 P.3    99  C99         0.0000
   2048  C5'       18.8600   30.0030   10.3180 C.3    99  C99         0.0000
   2049  O5'       20.0430   29.2380   10.1450 O.3    99  C99         0.0000
   2050  C4'       17.9290   29.3270   11.2910 C.3    99  C99         0.0000
   2051  O4'       17.6110   27.9940   10.8150 O.3    99  C99         0.0000
   2052  C3'       18.4850   29.0840   12.6800 C.3    99  C99         0.0000
   2053  O3'       18.3890   30.2590   13.4700 O.3    99  C99         0.0000
   2054  C2'       17.5710   27.9790   13.1890 C.3    99  C99         0.0000
   2055  O2'       16.3160   28.4450   13.6290 O.3    99  C99         0.0000
   2056  C1'       17.3960   27.1340   11.9250 C.3    99  C99         0.0000
   2057  N1        18.3720   26.0280   11.8730 N.ar   99  C99         0.0000
   2058  C2        18.1710   24.9140   12.7010 C.ar   99  C99         0.0000
   2059  O2        17.1580   24.8680   13.4130 O.2    99  C99         0.0000
   2060  N3        19.0830   23.9210   12.7060 N.ar   99  C99         0.0000
   2061  C4        20.1600   24.0010   11.9260 C.ar   99  C99         0.0000
   2062  N4        21.0410   23.0010   11.9740 N.pl3  99  C99         0.0000
   2063  C5        20.3830   25.1110   11.0600 C.ar   99  C99         0.0000
   2064  C6        19.4700   26.0900   11.0600 C.ar   99  C99         0.0000
   2065  OP1       21.1500   30.8560    8.5710 O.2    99  C99        -0.5000
   2066  OP2       22.0950   28.4930    8.9250 O.co2  99  C99        -0.5000
   2067  P         19.5380   30.5950   14.5390 P.3   100  U100        0.0000
   2068  C5'       18.0000   29.7280   16.4640 C.3   100  U100        0.0000
   2069  O5'       19.2240   29.6190   15.7570 O.3   100  U100        0.0000
   2070  C4'       17.7900   28.5210   17.3410 C.3   100  U100        0.0000
   2071  O4'       17.7610   27.3300   16.5120 O.3   100  U100        0.0000
   2072  C3'       18.8860   28.2390   18.3540 C.3   100  U100        0.0000
   2073  O3'       18.7120   29.0150   19.5350 O.3   100  U100        0.0000
   2074  C2'       18.6910   26.7520   18.6260 C.3   100  U100        0.0000
   2075  O2'       17.6480   26.4880   19.5400 O.3   100  U100        0.0000
   2076  C1'       18.3010   26.2340   17.2380 C.3   100  U100        0.0000
   2077  N1        19.4320   25.6680   16.4820 N.ar  100  U100        0.0000
   2078  C2        19.8250   24.3650   16.7740 C.ar  100  U100        0.0000
   2079  O2        19.2840   23.6740   17.6220 O.2   100  U100        0.0000
   2080  N3        20.8800   23.9020   16.0330 N.ar  100  U100        0.0000
   2081  C4        21.5680   24.5820   15.0560 C.ar  100  U100        0.0000
   2082  O4        22.4930   24.0230   14.4730 O.2   100  U100        0.0000
   2083  C5        21.1090   25.9140   14.8150 C.ar  100  U100        0.0000
   2084  C6        20.0850   26.3990   15.5160 C.ar  100  U100        0.0000
   2085  OP1       19.3380   31.9920   14.9960 O.3   100  U100       -0.5000
   2086  OP2       20.8310   30.2060   13.9220 O.co2 100  U100       -0.5000
   2087  P         19.9980   29.4440   20.4040 P.3   101  G101        0.0000
   2088  C5'       20.0450   27.1920   21.7420 C.3   101  G101        0.0000
   2089  O5'       20.6860   28.0560   20.8070 O.3   101  G101        0.0000
   2090  C4'       20.6320   25.7900   21.7180 C.3   101  G101        0.0000
   2091  O4'       20.7610   25.2960   20.3600 O.3   101  G101        0.0000
   2092  C3'       22.0200   25.5290   22.2800 C.3   101  G101        0.0000
   2093  O3'       21.9930   25.5060   23.7060 O.3   101  G101        0.0000
   2094  C2'       22.2840   24.1190   21.7520 C.3   101  G101        0.0000
   2095  O2'       21.6390   23.1180   22.5150 O.3   101  G101        0.0000
   2096  C1'       21.6180   24.1650   20.3750 C.3   101  G101        0.0000
   2097  N1        25.1880   21.6270   17.8450 N.ar  101  G101        0.0000
   2098  C2        24.4570   21.2530   18.9450 C.ar  101  G101        0.0000
   2099  N2        24.7010   20.0310   19.4430 N.pl3 101  G101        0.0000
   2100  N3        23.5510   22.0200   19.5200 N.ar  101  G101        0.0000
   2101  C4        23.4270   23.2100   18.8990 C.ar  101  G101        0.0000
   2102  C5        24.1060   23.6800   17.7980 C.ar  101  G101        0.0000
   2103  C6        25.0790   22.8450   17.1890 C.ar  101  G101        0.0000
   2104  O6        25.7870   23.0770   16.2060 O.2   101  G101        0.0000
   2105  N7        23.6840   24.9640   17.4710 N.ar  101  G101        0.0000
   2106  C8        22.7700   25.2430   18.3640 C.ar  101  G101        0.0000
   2107  N9        22.5620   24.2190   19.2590 N.ar  101  G101        0.0000
   2108  OP1       19.4820   30.0860   21.6410 O.3   101  G101       -0.5000
   2109  OP2       20.9280   30.2000   19.5230 O.co2 101  G101       -0.5000
   2110  P         23.3390   25.7950   24.5500 P.3   102  G102        0.0000
   2111  C5'       23.9200   23.2490   24.3950 C.3   102  G102        0.0000
   2112  O5'       24.3260   24.5960   24.1810 O.3   102  G102        0.0000
   2113  C4'       24.8680   22.2730   23.7270 C.3   102  G102        0.0000
   2114  O4'       25.0930   22.6590   22.3470 O.3   102  G102        0.0000
   2115  C3'       26.2450   22.2440   24.3740 C.3   102  G102        0.0000
   2116  O3'       26.6610   20.9090   24.6700 O.3   102  G102        0.0000
   2117  C2'       27.1500   23.1270   23.5110 C.3   102  G102        0.0000
   2118  O2'       28.4290   22.5630   23.2940 O.3   102  G102        0.0000
   2119  C1'       26.4260   23.0800   22.1670 C.3   102  G102        0.0000
   2120  N1        27.9120   24.8060   17.6720 N.ar  102  G102        0.0000
   2121  C2        28.0820   23.5650   18.2330 C.ar  102  G102        0.0000
   2122  N2        28.7290   22.6560   17.4840 N.pl3 102  G102        0.0000
   2123  N3        27.6490   23.2380   19.4360 N.ar  102  G102        0.0000
   2124  C4        27.0200   24.2700   20.0420 C.ar  102  G102        0.0000
   2125  C5        26.7960   25.5420   19.5660 C.ar  102  G102        0.0000
   2126  C6        27.2660   25.8780   18.2780 C.ar  102  G102        0.0000
   2127  O6        27.1650   26.9500   17.6820 O.2   102  G102        0.0000
   2128  N7        26.1080   26.3040   20.5000 N.ar  102  G102        0.0000
   2129  C8        25.9320   25.4940   21.5080 C.ar  102  G102        0.0000
   2130  N9        26.4560   24.2430   21.2900 N.ar  102  G102        0.0000
   2131  OP1       22.9790   25.6300   25.9790 O.3   102  G102       -0.5000
   2132  OP2       23.9360   27.0810   24.0800 O.co2 102  G102       -0.5000
   2133  P         27.6110   20.6160   25.9290 P.3   103  U103        0.0000
   2134  C5'       28.0140   23.0450   26.8760 C.3   103  U103        0.0000
   2135  O5'       28.4680   21.9580   26.0690 O.3   103  U103        0.0000
   2136  C4'       28.9550   23.2330   28.0370 C.3   103  U103        0.0000
   2137  O4'       28.4900   24.3440   28.8530 O.3   103  U103        0.0000
   2138  C3'       28.9840   22.0400   28.9770 C.3   103  U103        0.0000
   2139  O3'       30.0500   21.0940   28.9310 O.3   103  U103        0.0000
   2140  C2'       28.0750   22.3500   30.1600 C.3   103  U103        0.0000
   2141  O2'       28.6570   22.0120   31.4000 O.3   103  U103        0.0000
   2142  C1'       27.9640   23.8760   30.0900 C.3   103  U103        0.0000
   2143  OP1       28.5140   19.5050   25.5130 O.2   103  U103       -0.5000
   2144  OP2       26.7510   20.4460   27.1330 O.co2 103  U103       -0.5000
   2145  P         31.3200   21.2560   29.9110 P.3   104  A104        0.0000
   2146  C5'       32.5550   19.4240   28.5060 C.3   104  A104        0.0000
   2147  O5'       32.5520   20.7430   29.0310 O.3   104  A104        0.0000
   2148  C4'       33.9190   19.0580   27.9680 C.3   104  A104        0.0000
   2149  O4'       34.1590   19.6280   26.6610 O.3   104  A104        0.0000
   2150  C3'       35.1470   19.4740   28.7500 C.3   104  A104        0.0000
   2151  O3'       35.2780   18.6420   29.8960 O.3   104  A104        0.0000
   2152  C2'       36.2510   19.2300   27.7210 C.3   104  A104        0.0000
   2153  O2'       36.5990   17.8650   27.6330 O.3   104  A104        0.0000
   2154  C1'       35.5500   19.5990   26.4080 C.3   104  A104        0.0000
   2155  N1        38.5730   21.8030   22.9050 N.ar  104  A104        0.0000
   2156  C2        38.4470   20.5430   23.3170 C.ar  104  A104        0.0000
   2157  N3        37.6440   20.0370   24.2440 N.ar  104  A104        0.0000
   2158  C4        36.8950   21.0020   24.8000 C.ar  104  A104        0.0000
   2159  C5        36.9140   22.3430   24.4850 C.ar  104  A104        0.0000
   2160  C6        37.7990   22.7460   23.4760 C.ar  104  A104        0.0000
   2161  N6        37.9110   24.0040   23.0500 N.pl3 104  A104        0.0000
   2162  N7        36.0180   23.0450   25.2750 N.ar  104  A104        0.0000
   2163  C8        35.4800   22.1230   26.0350 C.ar  104  A104        0.0000
   2164  N9        35.9540   20.8620   25.7910 N.ar  104  A104        0.0000
   2165  OP1       31.1150   20.3010   31.0460 O.3   104  A104       -0.5000
   2166  OP2       31.5580   22.7090   30.1870 O.co2 104  A104       -0.5000
   2167  P         36.3170   19.0270   31.0550 P.3   105  A105        0.0000
   2168  C5'       38.8760   18.8400   30.8480 C.3   105  A105        0.0000
   2169  O5'       37.6270   18.2680   30.6030 O.3   105  A105        0.0000
   2170  C4'       39.8630   18.4240   29.8010 C.3   105  A105        0.0000
   2171  O4'       39.3500   18.6310   28.4570 O.3   105  A105        0.0000
   2172  C3'       41.0810   19.3100   29.8770 C.3   105  A105        0.0000
   2173  O3'       41.9140   18.8190   30.9000 O.3   105  A105        0.0000
   2174  C2'       41.6580   19.1990   28.4830 C.3   105  A105        0.0000
   2175  O2'       42.4240   18.0160   28.3370 O.3   105  A105        0.0000
   2176  C1'       40.3760   19.1750   27.6400 C.3   105  A105        0.0000
   2177  N1        41.1870   23.0440   24.3770 N.ar  105  A105        0.0000
   2178  C2        41.6740   21.8020   24.4400 C.ar  105  A105        0.0000
   2179  N3        41.3920   20.8280   25.2960 N.ar  105  A105        0.0000
   2180  C4        40.4800   21.2370   26.1890 C.ar  105  A105        0.0000
   2181  C5        39.8800   22.4840   26.2500 C.ar  105  A105        0.0000
   2182  C6        40.2710   23.4240   25.2870 C.ar  105  A105        0.0000
   2183  N6        39.7930   24.6630   25.2250 N.pl3 105  A105        0.0000
   2184  N7        38.9780   22.5460   27.3030 N.ar  105  A105        0.0000
   2185  C8        39.0620   21.3580   27.8560 C.ar  105  A105        0.0000
   2186  N9        39.9720   20.5230   27.2450 N.ar  105  A105        0.0000
   2187  OP1       35.9120   18.4040   32.3370 O.3   105  A105       -0.5000
   2188  OP2       36.5620   20.4800   31.0040 O.co2 105  A105       -0.5000
   2189  P         42.6830   19.8490   31.8340 P.3   106  A106        0.0000
   2190  C5'       44.7360   19.2360   30.3480 C.3   106  A106        0.0000
   2191  O5'       43.9220   20.2560   30.9230 O.3   106  A106        0.0000
   2192  C4'       45.4360   19.7340   29.1120 C.3   106  A106        0.0000
   2193  O4'       44.4590   20.1230   28.1160 O.3   106  A106        0.0000
   2194  C3'       46.2900   20.9800   29.2830 C.3   106  A106        0.0000
   2195  O3'       47.5570   20.6540   29.8330 O.3   106  A106        0.0000
   2196  C2'       46.4020   21.4670   27.8450 C.3   106  A106        0.0000
   2197  O2'       47.3370   20.7300   27.0780 O.3   106  A106        0.0000
   2198  C1'       44.9860   21.1880   27.3360 C.3   106  A106        0.0000
   2199  N1        43.2780   25.4720   25.1370 N.ar  106  A106        0.0000
   2200  C2        44.0880   24.5070   24.7060 C.ar  106  A106        0.0000
   2201  N3        44.4800   23.4080   25.3280 N.ar  106  A106        0.0000
   2202  C4        43.9370   23.3410   26.5540 C.ar  106  A106        0.0000
   2203  C5        43.0860   24.2510   27.1330 C.ar  106  A106        0.0000
   2204  C6        42.7470   25.3710   26.3770 C.ar  106  A106        0.0000
   2205  N6        41.9310   26.3400   26.8100 N.pl3 106  A106        0.0000
   2206  N7        42.7190   23.8410   28.3990 N.ar  106  A106        0.0000
   2207  C8        43.3530   22.7100   28.5600 C.ar  106  A106        0.0000
   2208  N9        44.1180   22.3540   27.4870 N.ar  106  A106        0.0000
   2209  OP1       43.1830   19.0940   33.0110 O.3   106  A106       -0.5000
   2210  OP2       41.7930   21.0140   32.0320 O.co2 106  A106       -0.5000
   2211  P         48.1000   21.4570   31.1110 P.3   107  A107        0.0000
   2212  C5'       48.5280   23.4700   29.4690 C.3   107  A107        0.0000
   2213  O5'       47.9580   22.9910   30.6930 O.3   107  A107        0.0000
   2214  C4'       47.9860   24.8430   29.0980 C.3   107  A107        0.0000
   2215  O4'       46.5550   24.7990   28.8330 O.3   107  A107        0.0000
   2216  C3'       48.0940   25.9640   30.1130 C.3   107  A107        0.0000
   2217  O3'       49.4140   26.4770   30.1670 O.3   107  A107        0.0000
   2218  C2'       47.1400   26.9930   29.5130 C.3   107  A107        0.0000
   2219  O2'       47.6770   27.6970   28.4120 O.3   107  A107        0.0000
   2220  C1'       46.0020   26.1000   29.0180 C.3   107  A107        0.0000
   2221  N1        42.2430   28.7810   31.2000 N.ar  107  A107        0.0000
   2222  C2        43.0410   29.0180   30.1500 C.ar  107  A107        0.0000
   2223  N3        43.9760   28.2430   29.6110 N.ar  107  A107        0.0000
   2224  C4        44.0600   27.0750   30.2680 C.ar  107  A107        0.0000
   2225  C5        43.3100   26.6770   31.3600 C.ar  107  A107        0.0000
   2226  C6        42.3550   27.5950   31.8450 C.ar  107  A107        0.0000
   2227  N6        41.5630   27.3610   32.9010 N.pl3 107  A107        0.0000
   2228  N7        43.6830   25.4070   31.7730 N.ar  107  A107        0.0000
   2229  C8        44.6400   25.0750   30.9410 C.ar  107  A107        0.0000
   2230  N9        44.9400   26.0510   30.0230 N.ar  107  A107        0.0000
   2231  OP1       49.5320   21.1090   31.1950 O.2   107  A107       -0.5000
   2232  OP2       47.2060   21.1810   32.2580 O.co2 107  A107       -0.5000
   2233  P         50.1990   26.5190   31.5700 P.3   108  C108        0.0000
   2234  C5'       48.8740   28.5310   32.6140 C.3   108  C108        0.0000
   2235  O5'       49.1570   27.1400   32.6020 O.3   108  C108        0.0000
   2236  C4'       47.8810   28.8420   33.7060 C.3   108  C108        0.0000
   2237  O4'       46.6040   28.2240   33.4040 O.3   108  C108        0.0000
   2238  C3'       48.2350   28.3130   35.0870 C.3   108  C108        0.0000
   2239  O3'       49.0720   29.2500   35.7260 O.3   108  C108        0.0000
   2240  C2'       46.8720   28.2490   35.7610 C.3   108  C108        0.0000
   2241  O2'       46.4030   29.5220   36.1450 O.3   108  C108        0.0000
   2242  C1'       45.9980   27.7690   34.6060 C.3   108  C108        0.0000
   2243  N1        45.8530   26.3060   34.5320 N.ar  108  C108        0.0000
   2244  C2        44.8280   25.6970   35.2590 C.ar  108  C108        0.0000
   2245  O2        44.1040   26.4000   35.9870 O.2   108  C108        0.0000
   2246  N3        44.6480   24.3620   35.1460 N.ar  108  C108        0.0000
   2247  C4        45.4480   23.6450   34.3530 C.ar  108  C108        0.0000
   2248  N4        45.2160   22.3440   34.2510 N.pl3 108  C108        0.0000
   2249  C5        46.5180   24.2360   33.6250 C.ar  108  C108        0.0000
   2250  C6        46.6860   25.5530   33.7450 C.ar  108  C108        0.0000
   2251  OP1       51.3340   27.4620   31.3960 O.2   108  C108       -0.5000
   2252  OP2       50.4620   25.1220   32.0030 O.co2 108  C108       -0.5000
   2253  P         50.1310   28.7610   36.8210 P.3   109  C109        0.0000
   2254  C5'       48.5910   29.3720   38.8480 C.3   109  C109        0.0000
   2255  O5'       49.2280   28.3700   38.0740 O.3   109  C109        0.0000
   2256  C4'       47.6850   28.7400   39.8720 C.3   109  C109        0.0000
   2257  O4'       46.6100   28.0270   39.2060 O.3   109  C109        0.0000
   2258  C3'       48.3290   27.6710   40.7290 C.3   109  C109        0.0000
   2259  O3'       49.0520   28.2310   41.8020 O.3   109  C109        0.0000
   2260  C2'       47.1220   26.8950   41.2210 C.3   109  C109        0.0000
   2261  O2'       46.4250   27.5490   42.2560 O.3   109  C109        0.0000
   2262  C1'       46.2640   26.8800   39.9620 C.3   109  C109        0.0000
   2263  N1        46.5160   25.6760   39.1540 N.ar  109  C109        0.0000
   2264  C2        45.9200   24.4710   39.5530 C.ar  109  C109        0.0000
   2265  O2        45.2030   24.4630   40.5740 O.2   109  C109        0.0000
   2266  N3        46.1370   23.3520   38.8240 N.ar  109  C109        0.0000
   2267  C4        46.9060   23.4030   37.7380 C.ar  109  C109        0.0000
   2268  N4        47.0850   22.2740   37.0480 N.pl3 109  C109        0.0000
   2269  C5        47.5260   24.6140   37.3100 C.ar  109  C109        0.0000
   2270  C6        47.3080   25.7170   38.0410 C.ar  109  C109        0.0000
   2271  OP1       50.9340   29.9570   37.1940 O.3   109  C109       -0.5000
   2272  OP2       50.8140   27.5480   36.2830 O.co2 109  C109       -0.5000
   2273  P         50.2100   27.3730   42.4890 P.3   110  A110        0.0000
   2274  C5'       48.6240   26.4950   44.3800 C.3   110  A110        0.0000
   2275  O5'       49.4110   26.2120   43.2290 O.3   110  A110        0.0000
   2276  C4'       48.0140   25.2270   44.9250 C.3   110  A110        0.0000
   2277  O4'       47.1300   24.6550   43.9230 O.3   110  A110        0.0000
   2278  C3'       48.9980   24.1120   45.2370 C.3   110  A110        0.0000
   2279  O3'       49.5710   24.2670   46.5310 O.3   110  A110        0.0000
   2280  C2'       48.1100   22.8820   45.1340 C.3   110  A110        0.0000
   2281  O2'       47.2710   22.7550   46.2590 O.3   110  A110        0.0000
   2282  C1'       47.2480   23.2410   43.9230 C.3   110  A110        0.0000
   2283  N1        47.9270   19.3970   40.5370 N.ar  110  A110        0.0000
   2284  C2        47.3260   19.4410   41.7310 C.ar  110  A110        0.0000
   2285  N3        47.1890   20.4690   42.5700 N.ar  110  A110        0.0000
   2286  C4        47.7670   21.5770   42.0670 C.ar  110  A110        0.0000
   2287  C5        48.4290   21.6860   40.8560 C.ar  110  A110        0.0000
   2288  C6        48.4990   20.5260   40.0580 C.ar  110  A110        0.0000
   2289  N6        49.0920   20.4880   38.8610 N.pl3 110  A110        0.0000
   2290  N7        48.9060   22.9780   40.6690 N.ar  110  A110        0.0000
   2291  C8        48.5250   23.6120   41.7490 C.ar  110  A110        0.0000
   2292  N9        47.8240   22.8300   42.6380 N.ar  110  A110        0.0000
   2293  OP1       50.8500   28.2430   43.5040 O.3   110  A110       -0.5000
   2294  OP2       51.0330   26.7760   41.4100 O.co2 110  A110       -0.5000
   2295  P         51.0260   23.6520   46.8280 P.3   111  C111        0.0000
   2296  C5'       50.0450   21.4790   47.8990 C.3   111  C111        0.0000
   2297  O5'       50.7850   22.0820   46.8470 O.3   111  C111        0.0000
   2298  C4'       49.7970   20.0300   47.5890 C.3   111  C111        0.0000
   2299  O4'       48.9880   19.9270   46.3880 O.3   111  C111        0.0000
   2300  C3'       51.0360   19.2210   47.2550 C.3   111  C111        0.0000
   2301  O3'       51.7110   18.8150   48.4330 O.3   111  C111        0.0000
   2302  C2'       50.4370   18.0600   46.4760 C.3   111  C111        0.0000
   2303  O2'       49.8000   17.1170   47.3120 O.3   111  C111        0.0000
   2304  C1'       49.3890   18.7930   45.6380 C.3   111  C111        0.0000
   2305  N1        49.9560   19.2580   44.3640 N.ar  111  C111        0.0000
   2306  C2        49.9700   18.3830   43.2730 C.ar  111  C111        0.0000
   2307  O2        49.4600   17.2580   43.4000 O.2   111  C111        0.0000
   2308  N3        50.5390   18.7840   42.1130 N.ar  111  C111        0.0000
   2309  C4        51.0740   20.0030   42.0200 C.ar  111  C111        0.0000
   2310  N4        51.6480   20.3510   40.8730 N.pl3 111  C111        0.0000
   2311  C5        51.0510   20.9210   43.1080 C.ar  111  C111        0.0000
   2312  C6        50.4860   20.5140   44.2470 C.ar  111  C111        0.0000
   2313  OP1       51.4590   24.0250   48.1990 O.3   111  C111       -0.5000
   2314  OP2       51.8980   23.9650   45.6700 O.co2 111  C111       -0.5000
   2315  P         53.3090   18.6670   48.4230 P.3   112  A112        0.0000
   2316  C5'       53.0080   16.1240   47.9280 C.3   112  A112        0.0000
   2317  O5'       53.5470   17.3730   47.5270 O.3   112  A112        0.0000
   2318  C4'       53.2990   15.0740   46.8970 C.3   112  A112        0.0000
   2319  O4'       52.4830   15.2960   45.7180 O.3   112  A112        0.0000
   2320  C3'       54.7100   15.0560   46.3410 C.3   112  A112        0.0000
   2321  O3'       55.6330   14.4330   47.2110 O.3   112  A112        0.0000
   2322  C2'       54.5090   14.2620   45.0640 C.3   112  A112        0.0000
   2323  O2'       54.3270   12.8860   45.3310 O.3   112  A112        0.0000
   2324  C1'       53.1980   14.8690   44.5670 C.3   112  A112        0.0000
   2325  N1        54.4060   16.5000   39.8650 N.ar  112  A112        0.0000
   2326  C2        54.2320   15.2780   40.3780 C.ar  112  A112        0.0000
   2327  N3        53.9140   14.9210   41.6160 N.ar  112  A112        0.0000
   2328  C4        53.7700   16.0060   42.3930 C.ar  112  A112        0.0000
   2329  C5        53.9160   17.3270   42.0100 C.ar  112  A112        0.0000
   2330  C6        54.2500   17.5670   40.6680 C.ar  112  A112        0.0000
   2331  N6        54.4170   18.7840   40.1500 N.pl3 112  A112        0.0000
   2332  N7        53.6890   18.1780   43.0860 N.ar  112  A112        0.0000
   2333  C8        53.4130   17.3650   44.0780 C.ar  112  A112        0.0000
   2334  N9        53.4460   16.0360   43.7270 N.ar  112  A112        0.0000
   2335  OP1       53.6880   18.3730   49.8330 O.3   112  A112       -0.5000
   2336  OP2       53.9480   19.8060   47.7230 O.co2 112  A112       -0.5000
   2337  P         57.1650   14.8970   47.1830 P.3   113  G113        0.0000
   2338  C5'       57.8530   12.9690   45.5390 C.3   113  G113        0.0000
   2339  O5'       57.7180   14.3650   45.7880 O.3   113  G113        0.0000
   2340  C4'       58.4130   12.7250   44.1550 C.3   113  G113        0.0000
   2341  O4'       57.4710   13.1720   43.1440 O.3   113  G113        0.0000
   2342  C3'       59.6770   13.4690   43.7730 C.3   113  G113        0.0000
   2343  O3'       60.8310   12.9030   44.3640 O.3   113  G113        0.0000
   2344  C2'       59.6610   13.3200   42.2560 C.3   113  G113        0.0000
   2345  O2'       60.0430   12.0410   41.8030 O.3   113  G113        0.0000
   2346  C1'       58.1780   13.5290   41.9630 C.3   113  G113        0.0000
   2347  N1        58.1570   17.1440   38.3980 N.ar  113  G113        0.0000
   2348  C2        58.4730   15.8170   38.2870 C.ar  113  G113        0.0000
   2349  N2        58.8350   15.4060   37.0640 N.pl3 113  G113        0.0000
   2350  N3        58.4350   14.9570   39.2970 N.ar  113  G113        0.0000
   2351  C4        58.0390   15.5460   40.4450 C.ar  113  G113        0.0000
   2352  C5        57.6970   16.8610   40.6610 C.ar  113  G113        0.0000
   2353  C6        57.7520   17.7730   39.5660 C.ar  113  G113        0.0000
   2354  O6        57.4980   18.9840   39.5540 O.2   113  G113        0.0000
   2355  N7        57.3450   17.0670   41.9890 N.ar  113  G113        0.0000
   2356  C8        57.4790   15.8940   42.5470 C.ar  113  G113        0.0000
   2357  N9        57.9030   14.9290   41.6680 N.ar  113  G113        0.0000
   2358  OP1       57.8650   14.2100   48.2960 O.3   113  G113       -0.5000
   2359  OP2       57.1800   16.3740   47.1060 O.co2 113  G113       -0.5000
   2360  P         62.0940   13.8410   44.6920 P.3   114  G114        0.0000
   2361  C5'       63.2310   13.2510   42.4170 C.3   114  G114        0.0000
   2362  O5'       62.6560   14.2420   43.2580 O.3   114  G114        0.0000
   2363  C4'       63.6130   13.8360   41.0820 C.3   114  G114        0.0000
   2364  O4'       62.4260   14.2930   40.3820 O.3   114  G114        0.0000
   2365  C3'       64.4780   15.0800   41.0950 C.3   114  G114        0.0000
   2366  O3'       65.8330   14.7800   41.3810 O.3   114  G114        0.0000
   2367  C2'       64.2830   15.5830   39.6730 C.3   114  G114        0.0000
   2368  O2'       65.0230   14.8470   38.7150 O.3   114  G114        0.0000
   2369  C1'       62.7850   15.3300   39.4830 C.3   114  G114        0.0000
   2370  N1        61.0090   19.7050   37.7170 N.ar  114  G114        0.0000
   2371  C2        61.6640   18.6970   37.0560 C.ar  114  G114        0.0000
   2372  N2        61.9090   18.8950   35.7470 N.pl3 114  G114        0.0000
   2373  N3        62.0500   17.5750   37.6310 N.ar  114  G114        0.0000
   2374  C4        61.7220   17.5410   38.9350 C.ar  114  G114        0.0000
   2375  C5        61.0670   18.4880   39.6840 C.ar  114  G114        0.0000
   2376  C6        60.6610   19.6840   39.0620 C.ar  114  G114        0.0000
   2377  O6        60.0670   20.6460   39.5590 O.2   114  G114        0.0000
   2378  N7        60.9190   18.0640   40.9940 N.ar  114  G114        0.0000
   2379  C8        61.4840   16.8890   41.0160 C.ar  114  G114        0.0000
   2380  N9        62.0130   16.5260   39.8030 N.ar  114  G114        0.0000
   2381  OP1       63.1200   12.9900   45.3580 O.2   114  G114       -0.5000
   2382  OP2       61.6050   15.0730   45.3660 O.co2 114  G114       -0.5000
   2383  P         66.6350   15.6880   42.4340 P.3   115  C115        0.0000
   2384  C5'       67.0140   18.2760   42.5530 C.3   115  C115        0.0000
   2385  O5'       66.6140   17.1410   41.7900 O.3   115  C115        0.0000
   2386  C4'       67.7140   19.2780   41.6690 C.3   115  C115        0.0000
   2387  O4'       68.9460   18.7030   41.1670 O.3   115  C115        0.0000
   2388  C3'       66.9530   19.6940   40.4210 C.3   115  C115        0.0000
   2389  O3'       66.0520   20.7500   40.7350 O.3   115  C115        0.0000
   2390  C2'       68.0720   20.1800   39.5070 C.3   115  C115        0.0000
   2391  O2'       68.4440   21.5180   39.7820 O.3   115  C115        0.0000
   2392  C1'       69.2220   19.2380   39.8850 C.3   115  C115        0.0000
   2393  N1        69.4700   18.1260   38.9490 N.ar  115  C115        0.0000
   2394  C2        70.2260   18.3670   37.7910 C.ar  115  C115        0.0000
   2395  O2        70.6450   19.5130   37.5690 O.2   115  C115        0.0000
   2396  N3        70.4840   17.3440   36.9450 N.ar  115  C115        0.0000
   2397  C4        70.0240   16.1200   37.2190 C.ar  115  C115        0.0000
   2398  N4        70.3150   15.1340   36.3690 N.pl3 115  C115        0.0000
   2399  C5        69.2450   15.8510   38.3800 C.ar  115  C115        0.0000
   2400  C6        68.9900   16.8730   39.2070 C.ar  115  C115        0.0000
   2401  OP1       68.0400   15.2190   42.4470 O.2   115  C115       -0.5000
   2402  OP2       65.8570   15.7370   43.7040 O.co2 115  C115       -0.5000
   2403  P         64.5360   20.6940   40.2050 P.3   116  G116        0.0000
   2404  C5'       65.2350   22.0400   38.0720 C.3   116  G116        0.0000
   2405  O5'       64.6960   20.8490   38.6260 O.3   116  G116        0.0000
   2406  C4'       65.6520   21.8140   36.6470 C.3   116  G116        0.0000
   2407  O4'       66.6450   20.7660   36.6030 O.3   116  G116        0.0000
   2408  C3'       64.5620   21.3610   35.6920 C.3   116  G116        0.0000
   2409  O3'       63.8570   22.5190   35.2250 O.3   116  G116        0.0000
   2410  C2'       65.3650   20.6460   34.5960 C.3   116  G116        0.0000
   2411  O2'       65.9260   21.4880   33.6100 O.3   116  G116        0.0000
   2412  C1'       66.5210   20.0390   35.3950 C.3   116  G116        0.0000
   2413  N1        67.7720   15.2280   34.3870 N.ar  116  G116        0.0000
   2414  C2        68.1390   16.3640   33.7230 C.ar  116  G116        0.0000
   2415  N2        68.9580   16.1880   32.6750 N.pl3 116  G116        0.0000
   2416  N3        67.7340   17.5780   34.0610 N.ar  116  G116        0.0000
   2417  C4        66.9190   17.5500   35.1310 C.ar  116  G116        0.0000
   2418  C5        66.4940   16.4610   35.8530 C.ar  116  G116        0.0000
   2419  C6        66.9320   15.1850   35.4880 C.ar  116  G116        0.0000
   2420  O6        66.6600   14.1030   36.0160 O.2   116  G116        0.0000
   2421  N7        65.6510   16.8490   36.8790 N.ar  116  G116        0.0000
   2422  C8        65.5850   18.1450   36.7700 C.ar  116  G116        0.0000
   2423  N9        66.3430   18.6360   35.7410 N.ar  116  G116        0.0000
   2424  OP1       63.8210   21.8950   40.7220 O.3   116  G116       -0.5000
   2425  OP2       64.0050   19.3410   40.5100 O.co2 116  G116       -0.5000
   2426  P         62.3370   22.3960   34.7040 P.3   117  A117        0.0000
   2427  C5'       62.9070   22.5580   32.1340 C.3   117  A117        0.0000
   2428  O5'       62.5060   21.7550   33.2490 O.3   117  A117        0.0000
   2429  C4'       63.1910   21.6890   30.9290 C.3   117  A117        0.0000
   2430  O4'       64.2370   20.7520   31.2790 O.3   117  A117        0.0000
   2431  C3'       62.0540   20.8190   30.4090 C.3   117  A117        0.0000
   2432  O3'       61.2550   21.5410   29.4700 O.3   117  A117        0.0000
   2433  C2'       62.8180   19.7070   29.6940 C.3   117  A117        0.0000
   2434  O2'       63.2810   20.0790   28.4100 O.3   117  A117        0.0000
   2435  C1'       64.0270   19.5230   30.6130 C.3   117  A117        0.0000
   2436  N1        65.4950   14.8740   32.2610 N.ar  117  A117        0.0000
   2437  C2        65.8700   15.6120   31.2080 C.ar  117  A117        0.0000
   2438  N3        65.4460   16.8180   30.8290 N.ar  117  A117        0.0000
   2439  C4        64.5160   17.2820   31.6840 C.ar  117  A117        0.0000
   2440  C5        64.0340   16.6420   32.8130 C.ar  117  A117        0.0000
   2441  C6        64.5590   15.3720   33.1010 C.ar  117  A117        0.0000
   2442  N6        64.1860   14.6410   34.1560 N.pl3 117  A117        0.0000
   2443  N7        63.0920   17.4290   33.4590 N.ar  117  A117        0.0000
   2444  C8        63.0210   18.5050   32.7190 C.ar  117  A117        0.0000
   2445  N9        63.8570   18.4850   31.6280 N.ar  117  A117        0.0000
   2446  OP1       61.7730   23.7630   34.5270 O.2   117  A117       -0.5000
   2447  OP2       61.6170   21.4280   35.5700 O.co2 117  A117       -0.5000
   2448  P         59.8060   22.1070   29.8970 P.3   118  C118        0.0000
   2449  C5'       59.0460   19.6590   29.3280 C.3   118  C118        0.0000
   2450  O5'       58.9060   20.8130   30.1380 O.3   118  C118        0.0000
   2451  C4'       59.0590   18.4160   30.1850 C.3   118  C118        0.0000
   2452  O4'       59.9110   18.6580   31.3390 O.3   118  C118        0.0000
   2453  C3'       57.7660   17.9540   30.8420 C.3   118  C118        0.0000
   2454  O3'       56.9130   17.2680   29.9290 O.3   118  C118        0.0000
   2455  C2'       58.3140   17.0030   31.9020 C.3   118  C118        0.0000
   2456  O2'       58.7790   15.7580   31.4060 O.3   118  C118        0.0000
   2457  C1'       59.5200   17.7970   32.3990 C.3   118  C118        0.0000
   2458  N1        59.1680   18.5930   33.5860 N.ar  118  C118        0.0000
   2459  C2        59.0200   17.9190   34.8070 C.ar  118  C118        0.0000
   2460  O2        59.2020   16.6840   34.8380 O.2   118  C118        0.0000
   2461  N3        58.6800   18.6200   35.9130 N.ar  118  C118        0.0000
   2462  C4        58.4900   19.9350   35.8340 C.ar  118  C118        0.0000
   2463  N4        58.1520   20.5720   36.9450 N.pl3 118  C118        0.0000
   2464  C5        58.6380   20.6510   34.6070 C.ar  118  C118        0.0000
   2465  C6        58.9750   19.9470   33.5170 C.ar  118  C118        0.0000
   2466  OP1       59.2690   22.8550   28.7370 O.2   118  C118       -0.5000
   2467  OP2       59.9260   22.7910   31.2180 O.co2 118  C118       -0.5000
   2468  P         55.3530   17.0690   30.2800 P.3   119  U119        0.0000
   2469  C5'       55.7920   14.6420   31.1850 C.3   119  U119        0.0000
   2470  O5'       55.3590   15.9700   31.4350 O.3   119  U119        0.0000
   2471  C4'       55.7060   13.8230   32.4450 C.3   119  U119        0.0000
   2472  O4'       56.5530   14.4370   33.4540 O.3   119  U119        0.0000
   2473  C3'       54.3470   13.7680   33.1190 C.3   119  U119        0.0000
   2474  O3'       53.5070   12.7800   32.5350 O.3   119  U119        0.0000
   2475  C2'       54.7300   13.4070   34.5480 C.3   119  U119        0.0000
   2476  O2'       55.1080   12.0560   34.6880 O.3   119  U119        0.0000
   2477  C1'       55.9860   14.2500   34.7400 C.3   119  U119        0.0000
   2478  N1        55.7140   15.5640   35.3470 N.ar  119  U119        0.0000
   2479  C2        55.3850   15.5900   36.6980 C.ar  119  U119        0.0000
   2480  O2        55.3180   14.5820   37.3890 O.2   119  U119        0.0000
   2481  N3        55.1360   16.8400   37.2080 N.ar  119  U119        0.0000
   2482  C4        55.1840   18.0400   36.5310 C.ar  119  U119        0.0000
   2483  O4        54.9290   19.0840   37.1370 O.2   119  U119        0.0000
   2484  C5        55.5320   17.9340   35.1450 C.ar  119  U119        0.0000
   2485  C6        55.7780   16.7330   34.6130 C.ar  119  U119        0.0000
   2486  OP1       54.7300   16.4970   29.0620 O.2   119  U119       -0.5000
   2487  OP2       54.7920   18.3190   30.8660 O.co2 119  U119       -0.5000
   2488  P         51.9100   12.9350   32.6380 P.3   120  G120        0.0000
   2489  C5'       51.6290   11.0470   34.4230 C.3   120  G120        0.0000
   2490  O5'       51.5600   12.4200   34.0970 O.3   120  G120        0.0000
   2491  C4'       51.1880   10.8490   35.8440 C.3   120  G120        0.0000
   2492  O4'       52.0780   11.5920   36.7180 O.3   120  G120        0.0000
   2493  C3'       49.8120   11.4020   36.1750 C.3   120  G120        0.0000
   2494  O3'       48.7990   10.4730   35.8090 O.3   120  G120        0.0000
   2495  C2'       49.9210   11.5980   37.6800 C.3   120  G120        0.0000
   2496  O2'       49.8540   10.3910   38.4090 O.3   120  G120        0.0000
   2497  C1'       51.3440   12.1360   37.7970 C.3   120  G120        0.0000
   2498  N1        50.8770   16.4920   40.3420 N.ar  120  G120        0.0000
   2499  C2        50.7340   15.2010   40.7860 C.ar  120  G120        0.0000
   2500  N2        50.4220   15.0430   42.0840 N.pl3 120  G120        0.0000
   2501  N3        50.8850   14.1390   40.0170 N.ar  120  G120        0.0000
   2502  C4        51.1920   14.4730   38.7510 C.ar  120  G120        0.0000
   2503  C5        51.3540   15.7260   38.2070 C.ar  120  G120        0.0000
   2504  C6        51.1940   16.8570   39.0390 C.ar  120  G120        0.0000
   2505  O6        51.3030   18.0550   38.7400 O.2   120  G120        0.0000
   2506  N7        51.6710   15.6420   36.8580 N.ar  120  G120        0.0000
   2507  C8        51.6910   14.3600   36.6090 C.ar  120  G120        0.0000
   2508  N9        51.4090   13.5930   37.7150 N.ar  120  G120        0.0000
   2509  OP1       51.2780   12.0220   31.6570 O.2   120  G120       -0.5000
   2510  OP2       51.5610   14.3780   32.6240 O.co2 120  G120       -0.5000
   2511  P         47.3600   11.0030   35.3340 P.3   121  U121        0.0000
   2512  C5'       46.2650   10.6980   37.7120 C.3   121  U121        0.0000
   2513  O5'       46.6750   11.5750   36.6590 O.3   121  U121        0.0000
   2514  C4'       46.0500   11.4610   39.0060 C.3   121  U121        0.0000
   2515  O4'       47.2500   12.2100   39.3470 O.3   121  U121        0.0000
   2516  C3'       44.9710   12.5260   39.0210 C.3   121  U121        0.0000
   2517  O3'       43.6820   11.9610   39.1780 O.3   121  U121        0.0000
   2518  C2'       45.3720   13.3490   40.2370 C.3   121  U121        0.0000
   2519  O2'       45.0400   12.7590   41.4850 O.3   121  U121        0.0000
   2520  C1'       46.8910   13.3800   40.0740 C.3   121  U121        0.0000
   2521  N1        47.3270   14.5750   39.3300 N.ar  121  U121        0.0000
   2522  C2        47.2710   15.7940   39.9860 C.ar  121  U121        0.0000
   2523  O2        46.9060   15.9040   41.1450 O.2   121  U121        0.0000
   2524  N3        47.6590   16.8780   39.2330 N.ar  121  U121        0.0000
   2525  C4        48.0970   16.8680   37.9240 C.ar  121  U121        0.0000
   2526  O4        48.4350   17.9190   37.3910 O.2   121  U121        0.0000
   2527  C5        48.1370   15.5780   37.3200 C.ar  121  U121        0.0000
   2528  C6        47.7620   14.5020   38.0230 C.ar  121  U121        0.0000
   2529  OP1       46.6010    9.8060   34.8810 O.3   121  U121       -0.5000
   2530  OP2       47.5630   12.1430   34.4080 O.co2 121  U121       -0.5000
   2531  P         42.3860   12.8020   38.7420 P.3   122  G122        0.0000
   2532  C5'       41.8720   13.6960   41.1500 C.3   122  G122        0.0000
   2533  O5'       42.2900   13.9720   39.8150 O.3   122  G122        0.0000
   2534  C4'       41.8080   14.9640   41.9580 C.3   122  G122        0.0000
   2535  O4'       43.1360   15.5470   42.0420 O.3   122  G122        0.0000
   2536  C3'       40.9630   16.0680   41.3600 C.3   122  G122        0.0000
   2537  O3'       39.5850   15.8880   41.6390 O.3   122  G122        0.0000
   2538  C2'       41.5580   17.3090   42.0120 C.3   122  G122        0.0000
   2539  O2'       41.1390   17.5210   43.3450 O.3   122  G122        0.0000
   2540  C1'       43.0450   16.9630   41.9830 C.3   122  G122        0.0000
   2541  N1        45.0130   20.8880   39.4380 N.ar  122  G122        0.0000
   2542  C2        44.5040   20.8420   40.7130 C.ar  122  G122        0.0000
   2543  N2        44.5030   21.9930   41.4010 N.pl3 122  G122        0.0000
   2544  N3        44.0280   19.7480   41.2760 N.ar  122  G122        0.0000
   2545  C4        44.1000   18.6850   40.4540 C.ar  122  G122        0.0000
   2546  C5        44.5900   18.6250   39.1690 C.ar  122  G122        0.0000
   2547  C6        45.0950   19.8050   38.5730 C.ar  122  G122        0.0000
   2548  O6        45.5620   19.9560   37.4390 O.2   122  G122        0.0000
   2549  N7        44.4890   17.3360   38.6640 N.ar  122  G122        0.0000
   2550  C8        43.9420   16.6500   39.6290 C.ar  122  G122        0.0000
   2551  N9        43.6740   17.4090   40.7430 N.ar  122  G122        0.0000
   2552  OP1       41.2130   11.9100   38.9070 O.3   122  G122       -0.5000
   2553  OP2       42.6730   13.4020   37.4160 O.co2 122  G122       -0.5000
   2554  P         38.4930   16.4480   40.6040 P.3   123  G123        0.0000
   2555  C5'       38.2610   18.6850   41.9720 C.3   123  G123        0.0000
   2556  O5'       38.5950   18.0300   40.7530 O.3   123  G123        0.0000
   2557  C4'       38.6420   20.1460   41.8950 C.3   123  G123        0.0000
   2558  O4'       40.0840   20.2600   41.7360 O.3   123  G123        0.0000
   2559  C3'       38.0790   20.9130   40.7080 C.3   123  G123        0.0000
   2560  O3'       36.7720   21.3980   40.9750 O.3   123  G123        0.0000
   2561  C2'       39.0640   22.0620   40.5790 C.3   123  G123        0.0000
   2562  O2'       38.8210   23.0760   41.5320 O.3   123  G123        0.0000
   2563  C1'       40.3860   21.3570   40.8860 C.3   123  G123        0.0000
   2564  N1        43.0400   22.4980   36.7100 N.ar  123  G123        0.0000
   2565  C2        42.6920   23.3010   37.7680 C.ar  123  G123        0.0000
   2566  N2        43.0740   24.5780   37.6860 N.pl3 123  G123        0.0000
   2567  N3        42.0190   22.8840   38.8260 N.ar  123  G123        0.0000
   2568  C4        41.7180   21.5740   38.7430 C.ar  123  G123        0.0000
   2569  C5        42.0230   20.6840   37.7360 C.ar  123  G123        0.0000
   2570  C6        42.7420   21.1440   36.6030 C.ar  123  G123        0.0000
   2571  O6        43.1040   20.4980   35.5990 O.2   123  G123        0.0000
   2572  N7        41.5370   19.4200   38.0330 N.ar  123  G123        0.0000
   2573  C8        40.9510   19.5610   39.1900 C.ar  123  G123        0.0000
   2574  N9        41.0040   20.8470   39.6670 N.ar  123  G123        0.0000
   2575  OP1       37.1610   15.9980   41.0810 O.3   123  G123       -0.5000
   2576  OP2       38.9250   16.1270   39.2130 O.co2 123  G123       -0.5000
   2577  P         35.7700   21.7070   39.7560 P.3   124  C124        0.0000
   2578  C5'       36.5780   24.1790   39.6510 C.3   124  C124        0.0000
   2579  O5'       36.4440   22.9360   38.9880 O.3   124  C124        0.0000
   2580  C4'       37.2670   25.2230   38.7920 C.3   124  C124        0.0000
   2581  O4'       38.6620   24.9160   38.5280 O.3   124  C124        0.0000
   2582  C3'       36.7780   25.5760   37.4020 C.3   124  C124        0.0000
   2583  O3'       35.5350   26.2660   37.4130 O.3   124  C124        0.0000
   2584  C2'       37.8920   26.5300   36.9780 C.3   124  C124        0.0000
   2585  O2'       37.7800   27.7960   37.5940 O.3   124  C124        0.0000
   2586  C1'       39.1280   25.8390   37.5570 C.3   124  C124        0.0000
   2587  N1        39.8970   25.1580   36.5050 N.ar  124  C124        0.0000
   2588  C2        40.8910   25.8940   35.8320 C.ar  124  C124        0.0000
   2589  O2        41.1200   27.0720   36.1820 O.2   124  C124        0.0000
   2590  N3        41.5750   25.3110   34.8230 N.ar  124  C124        0.0000
   2591  C4        41.3130   24.0530   34.4780 C.ar  124  C124        0.0000
   2592  N4        42.0100   23.5370   33.4690 N.pl3 124  C124        0.0000
   2593  C5        40.3260   23.2750   35.1520 C.ar  124  C124        0.0000
   2594  C6        39.6510   23.8590   36.1540 C.ar  124  C124        0.0000
   2595  OP1       34.5080   22.1690   40.3900 O.3   124  C124       -0.5000
   2596  OP2       35.7440   20.5270   38.8470 O.co2 124  C124       -0.5000
   2597  P         34.4990   26.0780   36.1860 P.3   125  A125        0.0000
   2598  C5'       34.8750   28.4620   35.1760 C.3   125  A125        0.0000
   2599  O5'       35.0320   27.0580   35.0490 O.3   125  A125        0.0000
   2600  C4'       35.5220   29.1690   34.0140 C.3   125  A125        0.0000
   2601  O4'       36.9390   28.8610   33.9840 O.3   125  A125        0.0000
   2602  C3'       35.0520   28.7800   32.6230 C.3   125  A125        0.0000
   2603  O3'       33.8450   29.4320   32.2740 O.3   125  A125        0.0000
   2604  C2'       36.2030   29.2790   31.7670 C.3   125  A125        0.0000
   2605  O2'       36.1810   30.6840   31.5910 O.3   125  A125        0.0000
   2606  C1'       37.3950   28.8890   32.6390 C.3   125  A125        0.0000
   2607  N1        40.2970   26.2420   29.3450 N.ar  125  A125        0.0000
   2608  C2        39.8350   27.5000   29.3250 C.ar  125  A125        0.0000
   2609  N3        39.0480   28.1180   30.1960 N.ar  125  A125        0.0000
   2610  C4        38.7200   27.2870   31.1990 C.ar  125  A125        0.0000
   2611  C5        39.1120   25.9670   31.3480 C.ar  125  A125        0.0000
   2612  C6        39.9430   25.4400   30.3670 C.ar  125  A125        0.0000
   2613  N6        40.4080   24.1960   30.3960 N.pl3 125  A125        0.0000
   2614  N7        38.5820   25.4210   32.5050 N.ar  125  A125        0.0000
   2615  C8        37.8970   26.4070   33.0310 C.ar  125  A125        0.0000
   2616  N9        37.9600   27.5780   32.3060 N.ar  125  A125        0.0000
   2617  OP1       33.1920   26.6080   36.6530 O.3   125  A125       -0.5000
   2618  OP2       34.5800   24.6850   35.6660 O.co2 125  A125       -0.5000
   2619  P         32.8000   28.7000   31.3010 P.3   126  U126        0.0000
   2620  C5'       33.7930   30.0490   29.2770 C.3   126  U126        0.0000
   2621  O5'       33.4910   28.7940   29.8650 O.3   126  U126        0.0000
   2622  C4'       34.6920   29.8640   28.0830 C.3   126  U126        0.0000
   2623  O4'       35.9520   29.2970   28.5170 O.3   126  U126        0.0000
   2624  C3'       34.2050   28.9080   27.0050 C.3   126  U126        0.0000
   2625  O3'       33.3320   29.5800   26.1070 O.3   126  U126        0.0000
   2626  C2'       35.5120   28.5180   26.3230 C.3   126  U126        0.0000
   2627  O2'       35.9950   29.5180   25.4350 O.3   126  U126        0.0000
   2628  C1'       36.4460   28.4070   27.5280 C.3   126  U126        0.0000
   2629  N1        36.4850   27.0570   28.1070 N.ar  126  U126        0.0000
   2630  C2        37.3400   26.1360   27.5430 C.ar  126  U126        0.0000
   2631  O2        38.0370   26.3870   26.5810 O.2   126  U126        0.0000
   2632  N3        37.3460   24.9080   28.1480 N.ar  126  U126        0.0000
   2633  C4        36.5890   24.5130   29.2290 C.ar  126  U126        0.0000
   2634  O4        36.7000   23.3680   29.6640 O.2   126  U126        0.0000
   2635  C5        35.7220   25.5130   29.7440 C.ar  126  U126        0.0000
   2636  C6        35.7000   26.7200   29.1830 C.ar  126  U126        0.0000
   2637  OP1       31.5560   29.5200   31.3300 O.2   126  U126       -0.5000
   2638  OP2       32.7230   27.2550   31.6370 O.co2 126  U126       -0.5000
   2639  P         32.2880   28.7390   25.2310 P.3   127  A127        0.0000
   2640  C5'       32.5630   27.5490   22.9220 C.3   127  A127        0.0000
   2641  O5'       33.1740   28.0960   24.0770 O.3   127  A127        0.0000
   2642  C4'       33.6080   27.2070   21.8950 C.3   127  A127        0.0000
   2643  O4'       34.5370   26.2450   22.4510 O.3   127  A127        0.0000
   2644  C3'       33.0490   26.5420   20.6470 C.3   127  A127        0.0000
   2645  O3'       32.6850   27.5500   19.7160 O.3   127  A127        0.0000
   2646  C2'       34.2130   25.6950   20.1510 C.3   127  A127        0.0000
   2647  O2'       35.1460   26.4200   19.3860 O.3   127  A127        0.0000
   2648  C1'       34.8690   25.2770   21.4660 C.3   127  A127        0.0000
   2649  N1        35.8350   20.2500   21.4050 N.ar  127  A127        0.0000
   2650  C2        36.3760   21.2780   20.7410 C.ar  127  A127        0.0000
   2651  N3        36.0540   22.5670   20.7810 N.ar  127  A127        0.0000
   2652  C4        35.0330   22.7710   21.6300 C.ar  127  A127        0.0000
   2653  C5        34.3700   21.8160   22.3740 C.ar  127  A127        0.0000
   2654  C6        34.8120   20.4900   22.2460 C.ar  127  A127        0.0000
   2655  N6        34.2800   19.4650   22.9100 N.pl3 127  A127        0.0000
   2656  N7        33.3610   22.3980   23.1320 N.ar  127  A127        0.0000
   2657  C8        33.4460   23.6700   22.8400 C.ar  127  A127        0.0000
   2658  N9        34.4510   23.9670   21.9550 N.ar  127  A127        0.0000
   2659  OP1       31.3570   29.7300   24.6350 O.2   127  A127       -0.5000
   2660  OP2       31.7430   27.6110   26.0380 O.co2 127  A127       -0.5000
   2661  P         31.2300   27.5220   19.0510 P.3   128  G128        0.0000
   2662  C5'       32.3250   26.8210   16.7750 C.3   128  G128        0.0000
   2663  O5'       31.3930   26.5370   17.8090 O.3   128  G128        0.0000
   2664  C4'       32.8720   25.5420   16.2030 C.3   128  G128        0.0000
   2665  O4'       33.6130   24.8100   17.2170 O.3   128  G128        0.0000
   2666  C3'       31.8370   24.5410   15.7230 C.3   128  G128        0.0000
   2667  O3'       31.3750   24.9100   14.4310 O.3   128  G128        0.0000
   2668  C2'       32.6480   23.2520   15.7070 C.3   128  G128        0.0000
   2669  O2'       33.5130   23.1920   14.5950 O.3   128  G128        0.0000
   2670  C1'       33.4890   23.4180   16.9760 C.3   128  G128        0.0000
   2671  N1        33.1050   19.2390   19.8220 N.ar  128  G128        0.0000
   2672  C2        33.9000   19.4840   18.7400 C.ar  128  G128        0.0000
   2673  N2        34.6900   18.4820   18.3620 N.pl3 128  G128        0.0000
   2674  N3        33.9220   20.6220   18.0800 N.ar  128  G128        0.0000
   2675  C4        33.0670   21.5220   18.6020 C.ar  128  G128        0.0000
   2676  C5        32.2300   21.3820   19.6820 C.ar  128  G128        0.0000
   2677  C6        32.2160   20.1440   20.3780 C.ar  128  G128        0.0000
   2678  O6        31.5390   19.8140   21.3590 O.2   128  G128        0.0000
   2679  N7        31.5100   22.5510   19.9040 N.ar  128  G128        0.0000
   2680  C8        31.9160   23.3660   18.9690 C.ar  128  G128        0.0000
   2681  N9        32.8540   22.8030   18.1370 N.ar  128  G128        0.0000
   2682  OP1       30.9600   28.9020   18.5630 O.2   128  G128       -0.5000
   2683  OP2       30.2880   26.8690   20.0010 O.co2 128  G128       -0.5000
   2684  P         29.9250   24.4340   13.9320 P.3   129  A129        0.0000
   2685  C5'       31.0260   22.6950   12.3150 C.3   129  A129        0.0000
   2686  O5'       30.1810   22.9440   13.4310 O.3   129  A129        0.0000
   2687  C4'       31.4140   21.2370   12.2580 C.3   129  A129        0.0000
   2688  O4'       32.1530   20.8750   13.4550 O.3   129  A129        0.0000
   2689  C3'       30.2780   20.2360   12.2310 C.3   129  A129        0.0000
   2690  O3'       29.7590   20.1110   10.9190 O.3   129  A129        0.0000
   2691  C2'       30.9840   18.9650   12.6760 C.3   129  A129        0.0000
   2692  O2'       31.7470   18.3780   11.6400 O.3   129  A129        0.0000
   2693  C1'       31.9170   19.5100   13.7580 C.3   129  A129        0.0000
   2694  N1        31.5630   16.6850   18.0150 N.ar  129  A129        0.0000
   2695  C2        32.2060   16.4950   16.8570 C.ar  129  A129        0.0000
   2696  N3        32.2510   17.2730   15.7830 N.ar  129  A129        0.0000
   2697  C4        31.5240   18.3870   15.9800 C.ar  129  A129        0.0000
   2698  C5        30.8070   18.7250   17.1170 C.ar  129  A129        0.0000
   2699  C6        30.8380   17.8110   18.1810 C.ar  129  A129        0.0000
   2700  N6        30.1910   17.9950   19.3380 N.pl3 129  A129        0.0000
   2701  N7        30.1820   19.9550   16.9590 N.ar  129  A129        0.0000
   2702  C8        30.5270   20.3290   15.7490 C.ar  129  A129        0.0000
   2703  N9        31.3410   19.4260   15.1000 N.ar  129  A129        0.0000
   2704  OP1       29.5800   25.2970   12.7690 O.2   129  A129       -0.5000
   2705  OP2       28.9990   24.3640   15.0890 O.co2 129  A129       -0.5000
   2706  P         28.3620   19.3500   10.6830 P.3   130  G130        0.0000
   2707  C5'       27.8220   16.8180   10.2010 C.3   130  G130        0.0000
   2708  O5'       28.7610   17.7950   10.6580 O.3   130  G130        0.0000
   2709  C4'       28.3840   15.3940   10.2150 C.3   130  G130        0.0000
   2710  O4'       29.3570   15.1750    9.1470 O.3   130  G130        0.0000
   2711  C3'       29.1230   15.0710   11.5120 C.3   130  G130        0.0000
   2712  O3'       28.6870   13.8500   12.0800 O.3   130  G130        0.0000
   2713  C2'       30.6180   15.1920   11.2050 C.3   130  G130        0.0000
   2714  O2'       31.3980   14.1780   11.8080 O.3   130  G130        0.0000
   2715  C1'       30.6150   14.8910    9.7130 C.3   130  G130        0.0000
   2716  N1        33.4590   18.5340    7.5260 N.ar  130  G130        0.0000
   2717  C2        32.3680   18.6750    8.3570 C.ar  130  G130        0.0000
   2718  N2        31.9960   19.9370    8.6480 N.pl3 130  G130        0.0000
   2719  N3        31.6900   17.6550    8.8660 N.ar  130  G130        0.0000
   2720  C4        32.1950   16.4660    8.4690 C.ar  130  G130        0.0000
   2721  C5        33.2750   16.2200    7.6400 C.ar  130  G130        0.0000
   2722  C6        33.9940   17.3170    7.1050 C.ar  130  G130        0.0000
   2723  O6        34.9830   17.2970    6.3570 O.2   130  G130        0.0000
   2724  N7        33.4680   14.8570    7.4720 N.ar  130  G130        0.0000
   2725  C8        32.5250   14.3080    8.1850 C.ar  130  G130        0.0000
   2726  N9        31.7220   15.2230    8.8230 N.ar  130  G130        0.0000
   2727  OP1       27.9230   19.7930    9.3330 O.2   130  G130       -0.5000
   2728  OP2       27.4810   19.5890   11.8490 O.co2 130  G130       -0.5000
   2729  P         27.5570   13.8590   13.2040 P.3   131  C131        0.0000
   2730  C5'       28.7110   13.4300   15.5220 C.3   131  C131        0.0000
   2731  O5'       28.3380   14.3460   14.5000 O.3   131  C131        0.0000
   2732  C4'       28.2580   13.9550   16.8540 C.3   131  C131        0.0000
   2733  O4'       28.8670   15.2560   17.0700 O.3   131  C131        0.0000
   2734  C3'       26.7710   14.2370   16.9250 C.3   131  C131        0.0000
   2735  O3'       26.0420   13.0550   17.2360 O.3   131  C131        0.0000
   2736  C2'       26.7000   15.2910   18.0180 C.3   131  C131        0.0000
   2737  O2'       26.8200   14.7490   19.3170 O.3   131  C131        0.0000
   2738  C1'       27.9420   16.1200   17.7000 C.3   131  C131        0.0000
   2739  N1        27.6790   17.2640   16.8080 N.ar  131  C131        0.0000
   2740  C2        27.0450   18.3900   17.3340 C.ar  131  C131        0.0000
   2741  O2        26.7000   18.3800   18.5190 O.2   131  C131        0.0000
   2742  N3        26.8200   19.4590   16.5380 N.ar  131  C131        0.0000
   2743  C4        27.1980   19.4310   15.2600 C.ar  131  C131        0.0000
   2744  N4        26.9650   20.5110   14.5180 N.pl3 131  C131        0.0000
   2745  C5        27.8340   18.2930   14.6890 C.ar  131  C131        0.0000
   2746  C6        28.0530   17.2390   15.4910 C.ar  131  C131        0.0000
   2747  OP1       27.1030   12.4590   13.4060 O.3   131  C131       -0.5000
   2748  OP2       26.5660   14.9100   12.8320 O.co2 131  C131       -0.5000
   2749  P         24.5590   12.8590   16.6410 P.3   132  A132        0.0000
   2750  C5'       23.5030   13.5990   18.9290 C.3   132  A132        0.0000
   2751  O5'       23.6600   13.8320   17.5310 O.3   132  A132        0.0000
   2752  C4'       22.6250   14.6590   19.5530 C.3   132  A132        0.0000
   2753  O4'       23.3050   15.9420   19.5680 O.3   132  A132        0.0000
   2754  C3'       21.3180   14.9530   18.8410 C.3   132  A132        0.0000
   2755  O3'       20.3220   13.9820   19.1390 O.3   132  A132        0.0000
   2756  C2'       20.9730   16.3330   19.3860 C.3   132  A132        0.0000
   2757  O2'       20.4410   16.2850   20.6950 O.3   132  A132        0.0000
   2758  C1'       22.3550   16.9880   19.4130 C.3   132  A132        0.0000
   2759  N1        21.6940   21.3320   16.6930 N.ar  132  A132        0.0000
   2760  C2        21.2080   20.9270   17.8740 C.ar  132  A132        0.0000
   2761  N3        21.4080   19.7750   18.5250 N.ar  132  A132        0.0000
   2762  C4        22.2210   18.9670   17.8250 C.ar  132  A132        0.0000
   2763  C5        22.7940   19.2400   16.5950 C.ar  132  A132        0.0000
   2764  C6        22.5050   20.4980   16.0130 C.ar  132  A132        0.0000
   2765  N6        22.9880   20.9030   14.8380 N.pl3 132  A132        0.0000
   2766  N7        23.5720   18.1690   16.1710 N.ar  132  A132        0.0000
   2767  C8        23.4600   17.2920   17.1390 C.ar  132  A132        0.0000
   2768  N9        22.6640   17.7110   18.1780 N.ar  132  A132        0.0000
   2769  OP1       24.1370   11.4600   16.8990 O.3   132  A132       -0.5000
   2770  OP2       24.5730   13.3780   15.2430 O.co2 132  A132       -0.5000
   2771  P         19.1480   13.7010   18.0770 P.3   133  G133        0.0000
   2772  C5'       17.4910   15.2660   19.3860 C.3   133  G133        0.0000
   2773  O5'       18.2190   14.9910   18.1910 O.3   133  G133        0.0000
   2774  C4'       16.7630   16.5820   19.2620 C.3   133  G133        0.0000
   2775  O4'       17.7300   17.6600   19.1230 O.3   133  G133        0.0000
   2776  C3'       15.8940   16.7260   18.0250 C.3   133  G133        0.0000
   2777  O3'       14.6250   16.1110   18.1790 O.3   133  G133        0.0000
   2778  C2'       15.7820   18.2370   17.8830 C.3   133  G133        0.0000
   2779  O2'       14.8140   18.8090   18.7380 O.3   133  G133        0.0000
   2780  C1'       17.1910   18.6770   18.2860 C.3   133  G133        0.0000
   2781  N1        18.5620   21.8390   14.5770 N.ar  133  G133        0.0000
   2782  C2        17.6460   22.0170   15.5840 C.ar  133  G133        0.0000
   2783  N2        17.0040   23.1910   15.6030 N.pl3 133  G133        0.0000
   2784  N3        17.3810   21.1090   16.5070 N.ar  133  G133        0.0000
   2785  C4        18.1150   19.9880   16.3360 C.ar  133  G133        0.0000
   2786  C5        19.0540   19.7110   15.3610 C.ar  133  G133        0.0000
   2787  C6        19.3280   20.6940   14.3830 C.ar  133  G133        0.0000
   2788  O6        20.1230   20.6390   13.4430 O.2   133  G133        0.0000
   2789  N7        19.5860   18.4400   15.5330 N.ar  133  G133        0.0000
   2790  C8        18.9740   17.9760   16.5900 C.ar  133  G133        0.0000
   2791  N9        18.0640   18.8640   17.1250 N.ar  133  G133        0.0000
   2792  OP1       18.3870   12.5200   18.5630 O.3   133  G133       -0.5000
   2793  OP2       19.7330   13.6870   16.7060 O.co2 133  G133       -0.5000
   2794  P         13.7470   15.7790   16.8740 P.3   134  U134        0.0000
   2795  C5'       12.3600   18.0120   16.8610 C.3   134  U134        0.0000
   2796  O5'       13.3800   17.2100   16.2720 O.3   134  U134        0.0000
   2797  C4'       12.1230   19.2570   16.0390 C.3   134  U134        0.0000
   2798  O4'       13.3450   20.0430   16.0130 O.3   134  U134        0.0000
   2799  C3'       11.8050   19.0290   14.5710 C.3   134  U134        0.0000
   2800  O3'       10.4330   18.7530   14.3430 O.3   134  U134        0.0000
   2801  C2'       12.2220   20.3510   13.9480 C.3   134  U134        0.0000
   2802  O2'       11.2760   21.3760   14.1620 O.3   134  U134        0.0000
   2803  C1'       13.4960   20.6510   14.7360 C.3   134  U134        0.0000
   2804  N1        14.7020   20.1050   14.0890 N.ar  134  U134        0.0000
   2805  C2        15.3430   20.8970   13.1540 C.ar  134  U134        0.0000
   2806  O2        14.9490   22.0080   12.8470 O.2   134  U134        0.0000
   2807  N3        16.4630   20.3380   12.5910 N.ar  134  U134        0.0000
   2808  C4        16.9960   19.0940   12.8560 C.ar  134  U134        0.0000
   2809  O4        18.0180   18.7330   12.2690 O.2   134  U134        0.0000
   2810  C5        16.2760   18.3330   13.8290 C.ar  134  U134        0.0000
   2811  C6        15.1830   18.8500   14.3970 C.ar  134  U134        0.0000
   2812  OP1       12.4940   15.1480   17.3590 O.3   134  U134       -0.5000
   2813  OP2       14.5930   15.0610   15.8830 O.co2 134  U134       -0.5000
   2814  P         10.0090   17.8670   13.0660 P.3   135  C135        0.0000
   2815  C5'        9.4840   20.0280   11.6790 C.3   135  C135        0.0000
   2816  O5'       10.2350   18.8300   11.8140 O.3   135  C135        0.0000
   2817  C4'       10.1310   20.9440   10.6730 C.3   135  C135        0.0000
   2818  O4'       11.4900   21.2340   11.0890 O.3   135  C135        0.0000
   2819  C3'       10.2980   20.3930    9.2670 C.3   135  C135        0.0000
   2820  O3'        9.1010   20.5490    8.5150 O.3   135  C135        0.0000
   2821  C2'       11.3990   21.2860    8.7140 C.3   135  C135        0.0000
   2822  O2'       10.9160   22.5530    8.3130 O.3   135  C135        0.0000
   2823  C1'       12.3020   21.4450    9.9400 C.3   135  C135        0.0000
   2824  N1        13.4250   20.4810    9.9470 N.ar  135  C135        0.0000
   2825  C2        14.5250   20.7240    9.1100 C.ar  135  C135        0.0000
   2826  O2        14.5310   21.7450    8.4140 O.2   135  C135        0.0000
   2827  N3        15.5490   19.8350    9.0860 N.ar  135  C135        0.0000
   2828  C4        15.5040   18.7450    9.8570 C.ar  135  C135        0.0000
   2829  N4        16.5240   17.8940    9.7990 N.pl3 135  C135        0.0000
   2830  C5        14.4060   18.4800   10.7240 C.ar  135  C135        0.0000
   2831  C6        13.3990   19.3640   10.7390 C.ar  135  C135        0.0000
   2832  OP1        8.5490   17.6020   13.1990 O.3   135  C135       -0.5000
   2833  OP2       10.9630   16.7260   12.9400 O.co2 135  C135       -0.5000
   2834  P          8.7300   19.4840    7.3680 P.3   136  C136        0.0000
   2835  C5'        9.3180   21.2190    5.4770 C.3   136  C136        0.0000
   2836  O5'        9.5660   19.9530    6.0900 O.3   136  C136        0.0000
   2837  C4'       10.4320   21.5800    4.5180 C.3   136  C136        0.0000
   2838  O4'       11.6840   21.7030    5.2440 O.3   136  C136        0.0000
   2839  C3'       10.7390   20.5660    3.4310 C.3   136  C136        0.0000
   2840  O3'        9.8610   20.6950    2.3230 O.3   136  C136        0.0000
   2841  C2'       12.1660   20.9310    3.0440 C.3   136  C136        0.0000
   2842  O2'       12.2410   22.0160    2.1360 O.3   136  C136        0.0000
   2843  C1'       12.7610   21.2990    4.4070 C.3   136  C136        0.0000
   2844  N1        13.4730   20.1660    5.0450 N.ar  136  C136        0.0000
   2845  C2        14.7770   19.8600    4.6140 C.ar  136  C136        0.0000
   2846  O2        15.2960   20.5570    3.7310 O.2   136  C136        0.0000
   2847  N3        15.4330   18.8150    5.1740 N.ar  136  C136        0.0000
   2848  C4        14.8420   18.0890    6.1280 C.ar  136  C136        0.0000
   2849  N4        15.5270   17.0690    6.6500 N.pl3 136  C136        0.0000
   2850  C5        13.5220   18.3780    6.5890 C.ar  136  C136        0.0000
   2851  C6        12.8810   19.4160    6.0280 C.ar  136  C136        0.0000
   2852  OP1        7.2810   19.6680    7.0910 O.2   136  C136       -0.5000
   2853  OP2        9.2350   18.1510    7.7840 O.co2 136  C136       -0.5000
   2854  P          9.2970   19.3750    1.6040 P.3   137  G137        0.0000
   2855  C5'       11.4020   19.3480    0.0380 C.3   137  G137        0.0000
   2856  O5'       10.5950   18.6750    1.0030 O.3   137  G137        0.0000
   2857  C4'       12.7380   18.6550   -0.1100 C.3   137  G137        0.0000
   2858  O4'       13.4640   18.7340    1.1450 O.3   137  G137        0.0000
   2859  C3'       12.6780   17.1670   -0.4130 C.3   137  G137        0.0000
   2860  O3'       12.4880   16.9340   -1.8060 O.3   137  G137        0.0000
   2861  C2'       14.0390   16.6950    0.0790 C.3   137  G137        0.0000
   2862  O2'       15.0860   17.0140   -0.8170 O.3   137  G137        0.0000
   2863  C1'       14.2000   17.5380    1.3450 C.3   137  G137        0.0000
   2864  N1        15.2740   14.2880    5.0940 N.ar  137  G137        0.0000
   2865  C2        16.0450   14.6740    4.0300 C.ar  137  G137        0.0000
   2866  N2        17.2690   14.1260    3.9600 N.pl3 137  G137        0.0000
   2867  N3        15.6490   15.5330    3.1040 N.ar  137  G137        0.0000
   2868  C4        14.3960   15.9810    3.3320 C.ar  137  G137        0.0000
   2869  C5        13.5430   15.6570    4.3610 C.ar  137  G137        0.0000
   2870  C6        13.9830   14.7340    5.3480 C.ar  137  G137        0.0000
   2871  O6        13.3770   14.3190    6.3400 O.2   137  G137        0.0000
   2872  N7        12.3400   16.3400    4.2390 N.ar  137  G137        0.0000
   2873  C8        12.4820   17.0540    3.1570 C.ar  137  G137        0.0000
   2874  N9        13.7070   16.8870    2.5580 N.ar  137  G137        0.0000
   2875  OP1        8.4580   19.8060    0.4590 O.2   137  G137       -0.5000
   2876  OP2        8.7150   18.5080    2.6670 O.co2 137  G137       -0.5000
   2877  P         11.1500   16.1950   -2.3170 P.3   138  G138        0.0000
   2878  C5'       12.2500   13.8120   -2.1060 C.3   138  G138        0.0000
   2879  O5'       11.6650   14.8140   -2.9380 O.3   138  G138        0.0000
   2880  C4'       12.6710   12.5990   -2.9170 C.3   138  G138        0.0000
   2881  O4'       13.3730   11.6840   -2.0420 O.3   138  G138        0.0000
   2882  C3'       11.4930   11.8080   -3.4920 C.3   138  G138        0.0000
   2883  O3'       11.7910   11.3630   -4.8240 O.3   138  G138        0.0000
   2884  C2'       11.2220   10.6870   -2.4880 C.3   138  G138        0.0000
   2885  O2'       10.8590    9.4710   -3.1090 O.3   138  G138        0.0000
   2886  C1'       12.6010   10.5260   -1.8430 C.3   138  G138        0.0000
   2887  N1        15.7570    8.2230    1.3150 N.ar  138  G138        0.0000
   2888  C2        15.9270    8.5880    0.0020 C.ar  138  G138        0.0000
   2889  N2        17.1030    8.2720   -0.5580 N.pl3 138  G138        0.0000
   2890  N3        15.0130    9.2150   -0.7090 N.ar  138  G138        0.0000
   2891  C4        13.8910    9.4470    0.0030 C.ar  138  G138        0.0000
   2892  C5        13.6160    9.1260    1.3110 C.ar  138  G138        0.0000
   2893  C6        14.6120    8.4560    2.0690 C.ar  138  G138        0.0000
   2894  O6        14.5690    8.0890    3.2480 O.2   138  G138        0.0000
   2895  N7        12.3410    9.5490    1.6650 N.ar  138  G138        0.0000
   2896  C8        11.8730   10.1070    0.5770 C.ar  138  G138        0.0000
   2897  N9        12.7630   10.0630   -0.4690 N.ar  138  G138        0.0000
   2898  OP1       10.5890   17.0260   -3.4180 O.2   138  G138       -0.5000
   2899  OP2       10.3110   15.8880   -1.1210 O.co2 138  G138       -0.5000
   2900  P         10.6200   11.1150   -5.8970 P.3   139  G139        0.0000
   2901  C5'       11.3810    8.5830   -5.7900 C.3   139  G139        0.0000
   2902  O5'       10.3310    9.5420   -5.9180 O.3   139  G139        0.0000
   2903  C4'       11.9060    8.1450   -7.1490 C.3   139  G139        0.0000
   2904  O4'       13.1530    7.4390   -6.9130 O.3   139  G139        0.0000
   2905  C3'       11.0750    7.1750   -7.9940 C.3   139  G139        0.0000
   2906  O3'       10.1670    7.8390   -8.8740 O.3   139  G139        0.0000
   2907  C2'       12.1480    6.4810   -8.8220 C.3   139  G139        0.0000
   2908  O2'       12.6150    7.2840   -9.8890 O.3   139  G139        0.0000
   2909  C1'       13.2640    6.3410   -7.7980 C.3   139  G139        0.0000
   2910  N1        14.5840    1.4610   -7.6050 N.ar  139  G139        0.0000
   2911  C2        14.8020    2.3890   -8.5900 C.ar  139  G139        0.0000
   2912  N2        15.4750    1.9670   -9.6610 N.pl3 139  G139        0.0000
   2913  N3        14.3920    3.6400   -8.5280 N.ar  139  G139        0.0000
   2914  C4        13.7290    3.8990   -7.3820 C.ar  139  G139        0.0000
   2915  C5        13.4530    3.0480   -6.3350 C.ar  139  G139        0.0000
   2916  C6        13.9070    1.7020   -6.4140 C.ar  139  G139        0.0000
   2917  O6        13.7720    0.7920   -5.5870 O.2   139  G139        0.0000
   2918  N7        12.7390    3.7050   -5.3390 N.ar  139  G139        0.0000
   2919  C8        12.6030    4.9200   -5.7910 C.ar  139  G139        0.0000
   2920  N9        13.1920    5.1080   -7.0210 N.ar  139  G139        0.0000
   2921  OP1       11.1990   11.5030   -7.2110 O.2   139  G139       -0.5000
   2922  OP2        9.3880   11.7850   -5.4060 O.co2 139  G139       -0.5000
   2923  P          9.0880    6.9800   -9.7190 P.3   140  C140        0.0000
   2924  C5'       10.2240    6.3640  -12.0160 C.3   140  C140        0.0000
   2925  O5'        9.9550    6.0270  -10.6590 O.3   140  C140        0.0000
   2926  C4'       10.7000    5.1410  -12.7680 C.3   140  C140        0.0000
   2927  O4'       11.8130    4.5440  -12.0360 O.3   140  C140        0.0000
   2928  C3'        9.7190    3.9820  -12.8710 C.3   140  C140        0.0000
   2929  O3'        8.7350    4.1510  -13.8830 O.3   140  C140        0.0000
   2930  C2'       10.6530    2.8160  -13.1670 C.3   140  C140        0.0000
   2931  O2'       11.1210    2.7760  -14.5040 O.3   140  C140        0.0000
   2932  C1'       11.8070    3.1300  -12.2190 C.3   140  C140        0.0000
   2933  N1        11.6050    2.4650  -10.9170 N.ar  140  C140        0.0000
   2934  C2        12.1000    1.1590  -10.7430 C.ar  140  C140        0.0000
   2935  O2        12.7250    0.6220  -11.6670 O.2   140  C140        0.0000
   2936  N3        11.8830    0.5190   -9.5740 N.ar  140  C140        0.0000
   2937  C4        11.2140    1.1290   -8.5950 C.ar  140  C140        0.0000
   2938  N4        11.0170    0.4530   -7.4630 N.pl3 140  C140        0.0000
   2939  C5        10.7160    2.4600   -8.7350 C.ar  140  C140        0.0000
   2940  C6        10.9330    3.0850   -9.9010 C.ar  140  C140        0.0000
   2941  OP1        8.3630    7.9510  -10.5800 O.2   140  C140       -0.5000
   2942  OP2        8.3260    6.0990   -8.7850 O.co2 140  C140       -0.5000
   2943  P          7.3730    3.2920  -13.8120 P.3   141  A141        0.0000
   2944  C5'        8.5110    1.4770  -15.3310 C.3   141  A141        0.0000
   2945  O5'        7.8440    1.7990  -14.1130 O.3   141  A141        0.0000
   2946  C4'        8.9960    0.0440  -15.3080 C.3   141  A141        0.0000
   2947  O4'       10.0110   -0.1200  -14.2820 O.3   141  A141        0.0000
   2948  C3'        7.9630   -1.0160  -14.9600 C.3   141  A141        0.0000
   2949  O3'        7.1610   -1.3610  -16.0810 O.3   141  A141        0.0000
   2950  C2'        8.8420   -2.1770  -14.5110 C.3   141  A141        0.0000
   2951  O2'        9.4020   -2.9150  -15.5820 O.3   141  A141        0.0000
   2952  C1'        9.9390   -1.4340  -13.7470 C.3   141  A141        0.0000
   2953  N1        10.1320   -3.8220   -9.2030 N.ar  141  A141        0.0000
   2954  C2        10.5240   -4.1860  -10.4310 C.ar  141  A141        0.0000
   2955  N3        10.4470   -3.5130  -11.5760 N.ar  141  A141        0.0000
   2956  C4         9.8830   -2.3080  -11.3790 C.ar  141  A141        0.0000
   2957  C5         9.4280   -1.7920  -10.1770 C.ar  141  A141        0.0000
   2958  C6         9.5710   -2.6050   -9.0390 C.ar  141  A141        0.0000
   2959  N6         9.1870   -2.2390   -7.8150 N.pl3 141  A141        0.0000
   2960  N7         8.9030   -0.5200  -10.3570 N.ar  141  A141        0.0000
   2961  C8         9.0530   -0.2970  -11.6410 C.ar  141  A141        0.0000
   2962  N9         9.6370   -1.3380  -12.3200 N.ar  141  A141        0.0000
   2963  OP1        6.5140    3.7680  -14.9240 O.2   141  A141       -0.5000
   2964  OP2        6.8490    3.3180  -12.4270 O.co2 141  A141       -0.5000
   2965  P          5.6310   -1.7990  -15.8580 P.3   142  G142        0.0000
   2966  C5'        6.1550   -4.3770  -15.8880 C.3   142  G142        0.0000
   2967  O5'        5.7270   -3.2310  -15.1540 O.3   142  G142        0.0000
   2968  C4'        6.3380   -5.5690  -14.9720 C.3   142  G142        0.0000
   2969  O4'        7.3720   -5.2770  -13.9910 O.3   142  G142        0.0000
   2970  C3'        5.1580   -6.0080  -14.1130 C.3   142  G142        0.0000
   2971  O3'        4.2040   -6.7910  -14.8360 O.3   142  G142        0.0000
   2972  C2'        5.8630   -6.8520  -13.0580 C.3   142  G142        0.0000
   2973  O2'        6.2160   -8.1360  -13.5340 O.3   142  G142        0.0000
   2974  C1'        7.1240   -6.0220  -12.8050 C.3   142  G142        0.0000
   2975  N1         7.0520   -5.5190   -7.7500 N.ar  142  G142        0.0000
   2976  C2         7.3590   -6.6150   -8.5130 C.ar  142  G142        0.0000
   2977  N2         7.6660   -7.7290   -7.8380 N.pl3 142  G142        0.0000
   2978  N3         7.3640   -6.6190   -9.8400 N.ar  142  G142        0.0000
   2979  C4         7.0340   -5.4130  -10.3500 C.ar  142  G142        0.0000
   2980  C5         6.7120   -4.2540   -9.6760 C.ar  142  G142        0.0000
   2981  C6         6.7070   -4.2700   -8.2510 C.ar  142  G142        0.0000
   2982  O6         6.4440   -3.3540   -7.4710 O.2   142  G142        0.0000
   2983  N7         6.4320   -3.2250  -10.5680 N.ar  142  G142        0.0000
   2984  C8         6.5820   -3.7680  -11.7470 C.ar  142  G142        0.0000
   2985  N9         6.9330   -5.0990  -11.6880 N.ar  142  G142        0.0000
   2986  OP1        5.0690   -1.9570  -17.2290 O.2   142  G142       -0.5000
   2987  OP2        4.9930   -0.8530  -14.9030 O.co2 142  G142       -0.5000
   2988  P          2.6740   -6.8880  -14.3150 P.3   143  G143        0.0000
   2989  C5'        3.0720   -9.0090  -12.8190 C.3   143  G143        0.0000
   2990  O5'        2.7680   -7.6190  -12.8950 O.3   143  G143        0.0000
   2991  C4'        3.3670   -9.4320  -11.3940 C.3   143  G143        0.0000
   2992  O4'        4.3380   -8.5280  -10.7990 O.3   143  G143        0.0000
   2993  C3'        2.2430   -9.4150  -10.3670 C.3   143  G143        0.0000
   2994  O3'        1.3730  -10.5390  -10.4800 O.3   143  G143        0.0000
   2995  C2'        3.0350   -9.5050   -9.0700 C.3   143  G143        0.0000
   2996  O2'        3.4970  -10.8120   -8.7910 O.3   143  G143        0.0000
   2997  C1'        4.2270   -8.6020   -9.3870 C.3   143  G143        0.0000
   2998  N1         3.8940   -5.9190   -5.1260 N.ar  143  G143        0.0000
   2999  C2         4.1190   -7.2650   -5.3070 C.ar  143  G143        0.0000
   3000  N2         4.2770   -8.0030   -4.1970 N.pl3 143  G143        0.0000
   3001  N3         4.1850   -7.8470   -6.4920 N.ar  143  G143        0.0000
   3002  C4         4.0080   -6.9650   -7.5010 C.ar  143  G143        0.0000
   3003  C5         3.7770   -5.6080   -7.4320 C.ar  143  G143        0.0000
   3004  C6         3.7080   -4.9910   -6.1490 C.ar  143  G143        0.0000
   3005  O6         3.5120   -3.8010   -5.8730 O.2   143  G143        0.0000
   3006  N7         3.6450   -5.0660   -8.7060 N.ar  143  G143        0.0000
   3007  C8         3.7990   -6.0870   -9.5080 C.ar  143  G143        0.0000
   3008  N9         4.0210   -7.2670   -8.8380 N.ar  143  G143        0.0000
   3009  OP1        1.9820   -7.8140  -15.2550 O.2   143  G143       -0.5000
   3010  OP2        2.1250   -5.5170  -14.0980 O.co2 143  G143       -0.5000
   3011  P         -0.1460  -10.4340   -9.9500 P.3   144  A144        0.0000
   3012  C5'        0.3990  -11.5290   -7.6220 C.3   144  A144        0.0000
   3013  O5'       -0.0220  -10.3840   -8.3600 O.3   144  A144        0.0000
   3014  C4'        0.5040  -11.2040   -6.1470 C.3   144  A144        0.0000
   3015  O4'        1.4030  -10.0750   -5.9720 O.3   144  A144        0.0000
   3016  C3'       -0.7730  -10.7740   -5.4340 C.3   144  A144        0.0000
   3017  O3'       -1.5400  -11.9160   -5.0280 O.3   144  A144        0.0000
   3018  C2'       -0.2200  -10.0100   -4.2300 C.3   144  A144        0.0000
   3019  O2'        0.1920  -10.8590   -3.1740 O.3   144  A144        0.0000
   3020  C1'        1.0100   -9.3250   -4.8340 C.3   144  A144        0.0000
   3021  N1         0.7300   -4.4370   -3.2520 N.ar  144  A144        0.0000
   3022  C2         0.9210   -5.5870   -2.5950 C.ar  144  A144        0.0000
   3023  N3         0.9740   -6.8310   -3.0680 N.ar  144  A144        0.0000
   3024  C4         0.7970   -6.8390   -4.4010 C.ar  144  A144        0.0000
   3025  C5         0.5830   -5.7390   -5.2140 C.ar  144  A144        0.0000
   3026  C6         0.5550   -4.4800   -4.5910 C.ar  144  A144        0.0000
   3027  N6         0.3670   -3.3360   -5.2470 N.pl3 144  A144        0.0000
   3028  N7         0.4360   -6.1270   -6.5400 N.ar  144  A144        0.0000
   3029  C8         0.5680   -7.4320   -6.5020 C.ar  144  A144        0.0000
   3030  N9         0.7950   -7.9310   -5.2380 N.ar  144  A144        0.0000
   3031  OP1       -0.8060  -11.7160  -10.3270 O.3   144  A144       -0.5000
   3032  OP2       -0.7310   -9.1420  -10.4080 O.co2 144  A144       -0.5000
   3033  P         -3.1390  -11.7890   -4.8020 P.3   145  A145        0.0000
   3034  C5'       -3.3060  -11.4640   -2.1880 C.3   145  A145        0.0000
   3035  O5'       -3.3010  -10.8790   -3.4960 O.3   145  A145        0.0000
   3036  C4'       -3.5770  -10.4150   -1.1290 C.3   145  A145        0.0000
   3037  O4'       -2.5390   -9.4010   -1.2000 O.3   145  A145        0.0000
   3038  C3'       -4.8850   -9.6370   -1.2420 C.3   145  A145        0.0000
   3039  O3'       -5.9500  -10.3130   -0.5870 O.3   145  A145        0.0000
   3040  C2'       -4.5520   -8.3510   -0.5030 C.3   145  A145        0.0000
   3041  O2'       -4.6480   -8.5110    0.9010 O.3   145  A145        0.0000
   3042  C1'       -3.0990   -8.1230   -0.9440 C.3   145  A145        0.0000
   3043  N1        -2.4300   -3.4370   -2.9890 N.ar  145  A145        0.0000
   3044  C2        -2.4050   -3.8750   -1.7250 C.ar  145  A145        0.0000
   3045  N3        -2.5620   -5.1130   -1.2570 N.ar  145  A145        0.0000
   3046  C4        -2.7690   -5.9770   -2.2650 C.ar  145  A145        0.0000
   3047  C5        -2.8160   -5.6770   -3.6150 C.ar  145  A145        0.0000
   3048  C6        -2.6370   -4.3320   -3.9780 C.ar  145  A145        0.0000
   3049  N6        -2.6620   -3.8990   -5.2370 N.pl3 145  A145        0.0000
   3050  N7        -3.0430   -6.8220   -4.3670 N.ar  145  A145        0.0000
   3051  C8        -3.1360   -7.7730   -3.4710 C.ar  145  A145        0.0000
   3052  N9        -2.9960   -7.3310   -2.1750 N.ar  145  A145        0.0000
   3053  OP1       -3.6120  -13.1650   -4.4800 O.3   145  A145       -0.5000
   3054  OP2       -3.7460  -11.0540   -5.9470 O.co2 145  A145       -0.5000
   3055  C5'       40.5910    7.5330   22.3510 C.3    -1  3AD-1       0.0000
   3056  O5'       39.6420    6.4790   22.4420 O.3    -1  3AD-1       0.0000
   3057  C4'       41.2510    7.5720   20.9980 C.3    -1  3AD-1       0.0000
   3058  O4'       41.9380    6.3230   20.7540 O.3    -1  3AD-1       0.0000
   3059  C3'       40.3270    7.6790   19.7930 C.3    -1  3AD-1       0.0000
   3060  C2'       41.2260    7.1980   18.6560 C.3    -1  3AD-1       0.0000
   3061  O2'       42.0830    8.2140   18.2050 O.3    -1  3AD-1       0.0000
   3062  C1'       42.1070    6.1650   19.3600 C.3    -1  3AD-1       0.0000
   3063  N1        44.3400    1.9650   17.5360 N.ar   -1  3AD-1       0.0000
   3064  C2        44.7800    3.2120   17.7390 C.ar   -1  3AD-1       0.0000
   3065  N3        44.1230    4.2670   18.2090 N.ar   -1  3AD-1       0.0000
   3066  C4        42.8450    3.9470   18.4850 C.ar   -1  3AD-1       0.0000
   3067  C5        42.2440    2.7140   18.3220 C.ar   -1  3AD-1       0.0000
   3068  C6        43.0520    1.6740   17.8270 C.ar   -1  3AD-1       0.0000
   3069  N6        42.6260    0.4250   17.6360 N.pl3  -1  3AD-1       0.0000
   3070  N7        40.9090    2.7670   18.7040 N.ar   -1  3AD-1       0.0000
   3071  C8        40.7430    4.0100   19.0970 C.ar   -1  3AD-1       0.0000
   3072  N9        41.8780    4.7730   19.0010 N.ar   -1  3AD-1       0.0000
   3073 MG         45.3140   12.9450   24.4320 Mg    301  MG301       0.0000
   3074 MG         38.1810   11.0000   23.6240 Mg    302  MG302       0.0000
   3075 MG         50.8190    8.6180   11.1140 Mg    303  MG303       0.0000
   3076  O         51.2440   16.5250   11.3530 O.3   401  HOH401      0.0000
   3077  O         48.9990    5.1530    9.7190 O.3   402  HOH402      0.0000
   3078  O         46.5220   12.0040   23.5860 O.3   403  HOH403      0.0000
   3079  O         45.0440   14.0320   23.1440 O.3   404  HOH404      0.0000
   3080  O         45.6700   12.2970   26.1930 O.3   405  HOH405      0.0000
@<TRIPOS>BOND
     1     1  3061    1
     2    43  3073    1
     3   715  3073    1
     4   738  3073    1
     5   760  3074    1
     6  3055  3057    1
     7  3055  3056    1
     8  3057  3058    1
     9  3057  3059    1
    10  3058  3062    1
    11  3059  3060    1
    12  3060  3061    1
    13  3060  3062    1
    14  3062  3072    1
    15  3063  3064   ar
    16  3063  3068   ar
    17  3064  3065   ar
    18  3065  3066   ar
    19  3066  3067   ar
    20  3066  3072   ar
    21  3067  3068   ar
    22  3067  3070   ar
    23  3068  3069    1
    24  3070  3071   ar
    25  3071  3072   ar
    26  3073  3080    1
    27  2986  2965    2
    28  2949  2965    1
    29  2949  2948    1
    30  2966  2967    1
    31  2966  2968    1
    32  2965  2967    1
    33  2965  2987    1
    34  2951  2950    1
    35  2944  2946    1
    36  2944  2945    1
    37  2946  2948    1
    38  2946  2947    1
    39  3009  2988    2
    40  2968  2970    1
    41  2968  2969    1
    42  2948  2950    1
    43  2963  2943    2
    44  2971  2988    1
    45  2971  2970    1
    46  2950  2952    1
    47  2931  2930    1
    48  2988  3010    1
    49  2988  2990    1
    50  2947  2952    1
    51  2945  2943    1
    52  2970  2972    1
    53  2969  2974    1
    54  2929  2943    1
    55  2929  2928    1
    56  2943  2964    1
    57  2952  2962    1
    58  2973  2972    1
    59  2930  2928    1
    60  2930  2932    1
    61  2972  2974    1
    62  2990  2989    1
    63  2928  2926    1
    64  2989  2991    1
    65  2974  2985    1
    66  2926  2927    1
    67  2926  2924    1
    68  1752  1751    1
    69  2962  2961   ar
    70  2962  2956   ar
    71  2932  2927    1
    72  2932  2933    1
    73  2924  2925    1
    74  2984  2985   ar
    75  2984  2983   ar
    76  1733  1732    1
    77  2985  2979   ar
    78  1729  1728    1
    79  2935  2934    2
    80  2961  2960   ar
    81  2955  2956   ar
    82  2955  2954   ar
    83  1747  1748    1
    84  1747  1745    1
    85  1747  1749    1
    86  1748  1753    1
    87  2991  2992    1
    88  2991  2993    1
    89  2956  2957   ar
    90  1751  1753    1
    91  1751  1749    1
    92  1753  1754    1
    93  1750  1749    1
    94  1750  1764    1
    95  1765  1767    1
    96  1765  1766    1
    97  1745  1746    1
    98  2933  2934   ar
    99  2933  2940   ar
   100  2992  2997    1
   101  1785  1764    2
   102  2934  2936   ar
   103  1767  1768    1
   104  1767  1769    1
   105  1734  1732   ar
   106  1734  1735   ar
   107  2925  2923    1
   108  1732  1731   ar
   109  1756  1755    2
   110  2941  2923    2
   111  2983  2980   ar
   112  2994  2993    1
   113  2994  3011    1
   114  2954  2953   ar
   115  3032  3011    2
   116  1768  1773    1
   117  2993  2995    1
   118  2960  2957   ar
   119  2979  2978   ar
   120  2979  2980   ar
   121  3031  3011    1
   122  1728  1730    1
   123  1728  1726    1
   124  2957  2958   ar
   125  1764  1766    1
   126  1764  1786    1
   127  1730  1725    1
   128  1730  1741    1
   129  1754  1755   ar
   130  1754  1761   ar
   131  3011  3013    1
   132  2940  2939   ar
   133  2908  2907    1
   134  1772  1771    1
   135  2978  2976   ar
   136  2923  2906    1
   137  2923  2942    1
   138  1755  1757   ar
   139  1727  1726    1
   140  1727  1744    1
   141  2980  2981   ar
   142  2912  2911    1
   143  1770  1769    1
   144  1770  1787    1
   145  1746  1744    1
   146  1725  1724    1
   147  2936  2937   ar
   148  3007  3008   ar
   149  3007  3006   ar
   150  1731  1737   ar
   151  1724  1726    1
   152  1724  1722    1
   153  1735  1741   ar
   154  1735  1736   ar
   155  1769  1771    1
   156  1773  1771    1
   157  1773  1784    1
   158  2997  2995    1
   159  2997  3008    1
   160  1762  1744    2
   161  2953  2958   ar
   162  1741  1740   ar
   163  2995  2996    1
   164  2958  2959    1
   165  1807  1787    2
   166  1761  1760   ar
   167  1744  1763    1
   168  2906  2905    1
   169  3008  3002   ar
   170  2907  2905    1
   171  2907  2909    1
   172  2939  2937   ar
   173  3006  3003   ar
   174  1713  1712    2
   175  2937  2938    1
   176  2911  2913   ar
   177  2911  2910   ar
   178  2913  2914   ar
   179  2976  2977    1
   180  2976  2975   ar
   181  1757  1758   ar
   182  1787  1808    1
   183  1787  1789    1
   184  3013  3012    1
   185  1722  1723    1
   186  1736  1737   ar
   187  1736  1739   ar
   188  2981  2975   ar
   189  2981  2982    2
   190  1737  1738    2
   191  1784  1783   ar
   192  1784  1778   ar
   193  1709  1708    1
   194  1788  1789    1
   195  1788  1790    1
   196  2905  2903    1
   197  1783  1782   ar
   198  1740  1739   ar
   199  2909  2920    1
   200  2909  2904    1
   201  1760  1758   ar
   202  3012  3014    1
   203  2910  2916   ar
   204  1758  1759    1
   205  3002  3003   ar
   206  3002  3001   ar
   207  1712  1714   ar
   208  1712  1711   ar
   209  3003  3004   ar
   210  2914  2920   ar
   211  2914  2915   ar
   212  1490  1472    2
   213  2921  2900    2
   214  1778  1777   ar
   215  1778  1779   ar
   216  2903  2904    1
   217  2903  2901    1
   218  1714  1715   ar
   219  1708  1710    1
   220  1708  1706    1
   221  1723  1721    1
   222  1636  1635    2
   223  2920  2919   ar
   224  1777  1775   ar
   225  1790  1791    1
   226  1790  1792    1
   227  1782  1779   ar
   228  1710  1711    1
   229  1710  1705    1
   230  1791  1796    1
   231  3028  3029   ar
   232  3028  3025   ar
   233  3029  3030   ar
   234  3001  2999   ar
   235  1711  1718   ar
   236  2916  2915   ar
   237  2916  2917    2
   238  1779  1780   ar
   239  2915  2918   ar
   240  3004  3005    2
   241  3004  2998   ar
   242  3014  3015    1
   243  3014  3016    1
   244  1458  1472    1
   245  1458  1457    1
   246  1635  1634   ar
   247  1635  1637   ar
   248  3015  3020    1
   249  3054  3033    2
   250  2902  2900    1
   251  2902  2901    1
   252  1470  1452    2
   253  2900  2922    1
   254  2900  2883    1
   255  1775  1776    1
   256  1775  1774   ar
   257  1472  1474    1
   258  1472  1491    1
   259  1715  1716    2
   260  1715  1717   ar
   261  1707  1706    1
   262  1707  1721    1
   263  2919  2918   ar
   264  1473  1474    1
   265  1473  1475    1
   266  1706  1704    1
   267  1453  1455    1
   268  1453  1454    1
   269  1705  1704    1
   270  1721  1742    2
   271  1721  1743    1
   272  1792  1793    1
   273  1792  1794    1
   274  1793  1809    1
   275  1513  1492    2
   276  1455  1457    1
   277  1455  1456    1
   278  3016  3017    1
   279  3016  3018    1
   280  1634  1632   ar
   281  1637  1638   ar
   282  1460  1459    1
   283  2999  2998   ar
   284  2999  3000    1
   285  1796  1806    1
   286  1796  1794    1
   287  1704  1702    1
   288  1693  1692    2
   289  3027  3026    1
   290  3030  3020    1
   291  3030  3024   ar
   292  3049  3048    1
   293  3025  3026   ar
   294  3025  3024   ar
   295  1718  1717   ar
   296  1780  1774   ar
   297  1780  1781    2
   298  1805  1806   ar
   299  1805  1804   ar
   300  3017  3033    1
   301  1457  1459    1
   302  1694  1692   ar
   303  1694  1695   ar
   304  3020  3018    1
   305  2883  2882    1
   306  1827  1809    2
   307  3033  3053    1
   308  3033  3035    1
   309  1795  1794    1
   310  1475  1477    1
   311  1475  1476    1
   312  1806  1800   ar
   313  1478  1492    1
   314  1478  1477    1
   315  1454  1452    1
   316  1452  1438    1
   317  1452  1471    1
   318  3026  3021   ar
   319  1828  1809    1
   320  1809  1811    1
   321  1438  1437    1
   322  1692  1691   ar
   323  1696  1695    1
   324  1456  1461    1
   325  1492  1514    1
   326  1492  1494    1
   327  3024  3023   ar
   328  1459  1461    1
   329  3050  3047   ar
   330  3050  3051   ar
   331  1440  1439    1
   332  1804  1801   ar
   333  1632  1633    2
   334  1632  1631   ar
   335  1638  1631   ar
   336  3018  3019    1
   337  1639  1621    2
   338  1695  1697   ar
   339  3048  3047   ar
   340  3048  3043   ar
   341  1477  1479    1
   342  1702  1703    1
   343  1476  1481    1
   344  1631  1630    1
   345  1461  1462    1
   346  1800  1801   ar
   347  1800  1799   ar
   348  1676  1675    1
   349  1656  1655    2
   350  3047  3046   ar
   351  3035  3034    1
   352  2882  2880    1
   353  2882  2884    1
   354  3051  3052   ar
   355  1801  1802   ar
   356  2898  2877    2
   357  1640  1621    1
   358  3021  3022   ar
   359  1437  1439    1
   360  1437  1435    1
   361  1613  1612    2
   362  1689  1688    1
   363  1439  1441    1
   364  1811  1810    1
   365  2885  2884    1
   366  1703  1701    1
   367  1691  1690    1
   368  1691  1698   ar
   369  3023  3022   ar
   370  1435  1433    1
   371  1435  1436    1
   372  1480  1479    1
   373  1494  1493    1
   374  3043  3044   ar
   375  1621  1623    1
   376  1621  1607    1
   377  1799  1798   ar
   378  2879  2877    1
   379  2879  2878    1
   380  2880  2878    1
   381  2880  2881    1
   382  1493  1495    1
   383  1688  1690    1
   384  1688  1686    1
   385  1674  1675   ar
   386  1674  1672   ar
   387  1810  1812    1
   388  1614  1612   ar
   389  1614  1615   ar
   390  1479  1481    1
   391  1609  1608    1
   392  1625  1630    1
   393  1625  1624    1
   394  1690  1685    1
   395  1433  1434    1
   396  1697  1698   ar
   397  1675  1677   ar
   398  1612  1611   ar
   399  1481  1482    1
   400  1630  1628    1
   401  2884  2886    1
   402  1802  1803    1
   403  1802  1797   ar
   404  1655  1654   ar
   405  1655  1657   ar
   406  2877  2860    1
   407  2877  2899    1
   408  1462  1469   ar
   409  1462  1463   ar
   410  1608  1606    1
   411  1608  1610    1
   412  3046  3052   ar
   413  3046  3045   ar
   414  1616  1615    1
   415  1623  1622    1
   416  3034  3036    1
   417  3052  3042    1
   418  1441  1436    1
   419  1441  1442    1
   420  2881  2886    1
   421  1798  1797   ar
   422  1615  1617   ar
   423  1469  1468   ar
   424  1489  1482   ar
   425  1489  1488   ar
   426  1673  1672    2
   427  1607  1606    1
   428  2886  2897    1
   429  2860  2859    1
   430   925   924    1
   431  1672  1671   ar
   432  3044  3045   ar
   433  1825  1826   ar
   434  1825  1823   ar
   435  1534  1515    2
   436  1654  1652   ar
   437  1657  1658   ar
   438  1450  1432    2
   439  1968  1969   ar
   440  1968  1967   ar
   441  1464  1463    2
   442  1482  1483   ar
   443  1611  1610    1
   444  1611  1618   ar
   445  1826  1819   ar
   446  1813  1812    1
   447  1813  1818    1
   448  1701  1687    1
   449  1701  1720    2
   450  1701  1719    1
   451  1434  1432    1
   452  1686  1687    1
   453  1686  1684    1
   454  1495  1496    1
   455  1495  1497    1
   456  1812  1814    1
   457  1533  1515    1
   458  1606  1604    1
   459  1624  1622    1
   460  1624  1626    1
   461  1610  1605    1
   462  1444  1443    2
   463  1463  1465   ar
   464  1685  1684    1
   465  1677  1678   ar
   466  3038  3036    1
   467  3038  3039    1
   468  3038  3040    1
   469  3037  3036    1
   470  3037  3042    1
   471  1946  1945    1
   472  1628  1629    1
   473  1628  1626    1
   474  1969  1970   ar
   475  1488  1486   ar
   476  1967  1972   ar
   477  1617  1618   ar
   478  3042  3040    1
   479  1515  1498    1
   480  1515  1517    1
   481  1498  1497    1
   482  1824  1823    1
   483  2862  2861    1
   484  1823  1822   ar
   485  1442  1443   ar
   486  1442  1449   ar
   487  1468  1466   ar
   488  1496  1501    1
   489  2890  2888   ar
   490  2890  2891   ar
   491   906   905    1
   492  1497  1499    1
   493  1432  1418    1
   494  1432  1451    1
   495   941   943    1
   496   941   942    1
   497  2889  2888    1
   498   920   921    1
   499   920   922    1
   500   920   918    1
   501  1684  1682    1
   502  3040  3041    1
   503  1965  1964    1
   504  1819  1818    1
   505  1819  1820   ar
   506  2897  2891   ar
   507  2897  2896   ar
   508  1443  1445   ar
   509  1671  1678   ar
   510  1671  1670    1
   511   921   926    1
   512   924   926    1
   513   924   922    1
   514  2859  2857    1
   515  2859  2861    1
   516   923   922    1
   517   923   940    1
   518  1626  1627    1
   519  1814  1815    1
   520  1814  1816    1
   521  1420  1419    1
   522   943   944    1
   523   943   945    1
   524  1596  1595    2
   525  1658  1651   ar
   526  1652  1653    2
   527  1652  1651   ar
   528   902   901    1
   529  1818  1816    1
   530  1987  1986    1
   531   926   937    1
   532  1483  1484    2
   533  1483  1485   ar
   534  1511  1510   ar
   535  1511  1512   ar
   536   883   882    1
   537  2857  2855    1
   538  2857  2858    1
   539   958   940    2
   540  1418  1417    1
   541  1604  1605    1
   542  1604  1602    1
   543  1465  1466   ar
   544  2888  2887   ar
   545  2891  2892   ar
   546  1945  1944   ar
   547  1945  1947   ar
   548  2855  2856    1
   549   944   949    1
   550  2861  2863    1
   551   918   919    1
   552  1970  1971   ar
   553  1970  1976   ar
   554  1944  1950   ar
   555  1449  1448   ar
   556  1815  1829    1
   557  1972  1973    1
   558  1972  1971   ar
   559  1822  1820   ar
   560   948   947    1
   561  1983  1982    1
   562  1983  1988    1
   563  1466  1467    1
   564  1486  1485   ar
   565  1486  1487    2
   566   946   945    1
   567   946   960    1
   568  1510  1507   ar
   569  1651  1650    1
   570  1820  1821    2
   571  1982  1980    1
   572  1982  1984    1
   573  1627  1641    1
   574  1594  1595   ar
   575  1594  1592   ar
   576  2875  2854    2
   577   905   907   ar
   578   905   904   ar
   579   978   960    2
   580   907   908   ar
   581  1595  1597   ar
   582  1964  1966    1
   583  1964  1962    1
   584  1966  1976    1
   585  1966  1961    1
   586  2896  2895   ar
   587  1517  1516    1
   588   940   942    1
   589   940   959    1
   590  1501  1499    1
   591  1501  1512    1
   592  1575  1574    2
   593  1988  1986    1
   594  1988  1999    1
   595  1816  1817    1
   596  1670  1668    1
   597  1670  1665    1
   598  1419  1417    1
   599  1419  1421    1
   600  1445  1446   ar
   601  1499  1500    1
   602   945   947    1
   603  1512  1506   ar
   604  1848  1829    2
   605  1971  1974   ar
   606  1668  1669    1
   607  1668  1666    1
   608  1683  1682    1
   609  1683  1681    1
   610  1980  1981    1
   611   930   928   ar
   612   930   931   ar
   613  1947  1948   ar
   614  1976  1975   ar
   615  1844  1843    1
   616  1986  1984    1
   617  2856  2854    1
   618   901   903    1
   619   901   899    1
   620   929   928    1
   621   949   947    1
   622   949   950    1
   623  1417  1415    1
   624  1593  1592    2
   625   937   931   ar
   626   937   936   ar
   627  2858  2863    1
   628  1602  1603    1
   629   961   962    1
   630   961   963    1
   631   882   881   ar
   632   882   884   ar
   633  1603  1601    1
   634   903   898    1
   635   903   914    1
   636  1829  1847    1
   637  1829  1831    1
   638  1950  1951    2
   639  1950  1949   ar
   640  1592  1591   ar
   641   960   962    1
   642   960   979    1
   643  2892  2895   ar
   644  2892  2893   ar
   645  2887  2893   ar
   646  1985  1984    1
   647  1985  2002    1
   648  1845  1843   ar
   649  1845  1846   ar
   650  2863  2874    1
   651  1531  1532   ar
   652  1531  1529   ar
   653  1552  1551    2
   654  1448  1446   ar
   655  1557  1535    2
   656   919   917    1
   657  1961  1960    1
   658  1516  1518    1
   659  1530  1529    1
   660   904   910   ar
   661   928   927   ar
   662   931   932   ar
   663  2854  2840    1
   664  2854  2876    1
   665   881   887   ar
   666  1843  1842   ar
   667  1424  1423    2
   668  1446  1447    1
   669  1597  1598   ar
   670  1507  1506   ar
   671  1507  1508   ar
   672  1574  1568   ar
   673  1574  1573   ar
   674  2003  2005    1
   675  2003  2004    1
   676   998   980    2
   677   908   914   ar
   678   908   909   ar
   679  1999  1993   ar
   680  1999  1998   ar
   681  1992  1993   ar
   682  1992  1990   ar
   683  1650  1645    1
   684  1650  1648    1
   685  1666  1667    1
   686  1666  1664    1
   687  1700  1681    2
   688  1665  1664    1
   689   898   897    1
   690  1641  1660    2
   691  1641  1643    1
   692  1641  1659    1
   693   900   899    1
   694   900   917    1
   695   884   885   ar
   696  1962  1963    1
   697  1962  1960    1
   698  2006  2005    1
   699  2006  2011    1
   700  1948  1949   ar
   701  1948  1954   ar
   702  1421  1416    1
   703  1421  1422    1
   704   963   964    1
   705   963   965    1
   706  1506  1505   ar
   707  1532  1525   ar
   708  1568  1569   ar
   709  1415  1416    1
   710  1415  1413    1
   711  1963  1979    1
   712  2005  2007    1
   713  2893  2894    2
   714  1975  1974   ar
   715  1846  1839   ar
   716   914   913   ar
   717  2842  2841    1
   718  1643  1642    1
   719  1680  1661    2
   720  1529  1528   ar
   721   938   917    2
   722  1960  1958    1
   723   899   897    1
   724  1620  1601    2
   725   897   895    1
   726  1681  1667    1
   727  1681  1699    1
   728   936   935   ar
   729  1981  1979    1
   730  1991  1990    1
   731  1949  1952   ar
   732   995   994    2
   733  2023  2002    2
   734  2840  2839    1
   735   950   957   ar
   736   950   951   ar
   737  1591  1598   ar
   738  1591  1590    1
   739  1993  1994   ar
   740  1645  1644    1
   741  1648  1646    1
   742  1648  1649    1
   743   917   939    1
   744  1601  1619    1
   745  1601  1587    1
   746  1551  1550   ar
   747  1551  1545   ar
   748  2874  2873   ar
   749  2874  2868   ar
   750  1831  1830    1
   751  1423  1422   ar
   752  1423  1425   ar
   753  1553  1550   ar
   754  1553  1554   ar
   755   957   956   ar
   756  1842  1840   ar
   757  1990  1989   ar
   758  2002  2004    1
   759  2002  2024    1
   760  2000  1979    2
   761  1509  1508    2
   762  1998  1997   ar
   763  1573  1576   ar
   764  1573  1572   ar
   765  1663  1661    1
   766  1663  1662    1
   767  1508  1502   ar
   768   964   969    1
   769  1646  1644    1
   770  1646  1647    1
   771  1664  1662    1
   772  1535  1556    1
   773  1535  1521    1
   774  1535  1537    1
   775  2010  2009    1
   776  1938  1943    1
   777  1938  1937    1
   778  1576  1577   ar
   779  1422  1429   ar
   780  1588  1589    1
   781  1588  1590    1
   782  1588  1586    1
   783   910   909   ar
   784   910   911    2
   785  1979  2001    1
   786   994   993   ar
   787   994   996   ar
   788   909   912   ar
   789  1518  1520    1
   790  1518  1519    1
   791   927   933   ar
   792  2011  2009    1
   793  2011  2022    1
   794   932   935   ar
   795   932   933   ar
   796   887   888    2
   797   887   886   ar
   798  1413  1414    1
   799   952   951    2
   800   993   991   ar
   801   966   965    1
   802   966   980    1
   803   965   967    1
   804  2841  2839    1
   805  2841  2843    1
   806  1520  1521    1
   807  1520  1522    1
   808  1839  1840   ar
   809  1839  1838    1
   810  2867  2868   ar
   811  2867  2865   ar
   812  1954  1943    1
   813  1954  1953   ar
   814   980   999    1
   815   980   982    1
   816  1866  1865    2
   817  1550  1549   ar
   818  2873  2872   ar
   819  1569  1570    1
   820  1569  1571   ar
   821  1505  1503   ar
   822   951   953   ar
   823  1519  1524    1
   824   885   886   ar
   825   885   891   ar
   826  1661  1647    1
   827  1661  1679    1
   828  1590  1585    1
   829  2868  2869   ar
   830  1425  1426   ar
   831  1943  1941    1
   832  1644  1642    1
   833  1833  1838    1
   834  1833  1832    1
   835  1840  1841    2
   836   859   860   ar
   837   859   864   ar
   838  1525  1524    1
   839  1525  1526   ar
   840  2839  2837    1
   841   895   896    1
   842  2007  2009    1
   843  2007  2008    1
   844  1545  1546   ar
   845  1586  1587    1
   846  1586  1584    1
   847   879   878    1
   848  1528  1526   ar
   849   913   912   ar
   850  1952  1953   ar
   851   996   997   ar
   852  1994  1997   ar
   853  1994  1995   ar
   854  1830  1832    1
   855  2008  2025    1
   856  1958  1959    1
   857  1554  1555   ar
   858   860   861   ar
   859  1937  1935    1
   860  1937  1939    1
   861  1021  1000    2
   862   991   992    2
   863   991   990   ar
   864   933   934    2
   865  1401  1400    1
   866  1414  1412    1
   867  2846  2845    2
   868   956   954   ar
   869  1580  1558    2
   870  1989  1995   ar
   871  1429  1428   ar
   872   886   889   ar
   873  1572  1571   ar
   874  1572  1578   ar
   875  1537  1536    1
   876  1838  1836    1
   877  2022  2021   ar
   878  2022  2016   ar
   879  2866  2865    1
   880  1577  1578   ar
   881  1502  1503   ar
   882  1600  1581    2
   883   982   981    1
   884  2865  2864   ar
   885  1524  1522    1
   886  1526  1527    2
   887   969   967    1
   888   969   970    1
   889  2021  2020   ar
   890   988   987    1
   891  1503  1504    1
   892   997   990   ar
   893   865   864    1
   894   878   880    1
   895   878   876    1
   896   987   989    1
   897   987   985    1
   898  2872  2869   ar
   899   880   891    1
   900   880   875    1
   901  1935  1936    1
   902   990   989    1
   903  1940  1939    1
   904  1940  1957    1
   905  1832  1834    1
   906  1426  1428   ar
   907  1426  1427    1
   908  1865  1859   ar
   909  1865  1864   ar
   910   891   890   ar
   911  1959  1957    1
   912   967   968    1
   913  1995  1996    2
   914  2869  2870   ar
   915  1522  1523    1
   916   953   954   ar
   917  2843  2844    1
   918  2843  2838    1
   919   864   863   ar
   920  1549  1555   ar
   921  1549  1548   ar
   922  1430  1412    2
   923  2837  2838    1
   924  2837  2835    1
   925  1585  1584    1
   926   896   894    1
   927  1583  1581    1
   928  1583  1582    1
   929  2845  2844   ar
   930  2845  2847   ar
   931  1939  1941    1
   932  1578  1567    1
   933  1400  1399   ar
   934  1400  1402   ar
   935  1942  1941    1
   936   954   955    2
   937   861   862   ar
   938  1555  1544    1
   939  1546  1548   ar
   940  1546  1547    1
   941  1584  1582    1
   942  2045  2025    2
   943  1867  1864   ar
   944  1867  1868   ar
   945  2016  2015   ar
   946  2016  2017   ar
   947  1020  1000    1
   948  1000   986    1
   949  1000  1002    1
   950  1412  1431    1
   951  1412  1395    1
   952  1399  1405   ar
   953   970   977   ar
   954   970   971   ar
   955  2015  2013   ar
   956   977   976   ar
   957  1859  1860   ar
   958  2025  2027    1
   959  2025  2046    1
   960  2844  2851   ar
   961   989   984    1
   962   985   986    1
   963   985   983    1
   964  2864  2870   ar
   965   844   843    1
   966  2026  2027    1
   967  2026  2028    1
   968  1581  1599    1
   969  1581  1564    1
   970  1864  1863   ar
   971  2020  2017   ar
   972  2847  2848   ar
   973   889   890   ar
   974  1558  1560    1
   975  1558  1579    1
   976  1558  1541    1
   977  1536  1538    1
   978  1936  1934    1
   979  1001  1002    1
   980  1001  1003    1
   981  1834  1836    1
   982  1834  1835    1
   983  1956  1934    2
   984  1402  1403   ar
   985  1957  1978    2
   986  1957  1977    1
   987  2870  2871    2
   988  1836  1837    1
   989   875   874    1
   990   981   983    1
   991  2835  2836    1
   992  1560  1559    1
   993  2017  2018   ar
   994  1540  1538    1
   995  1540  1541    1
   996  1540  1542    1
   997   876   877    1
   998   876   874    1
   999   863   862   ar
  1000   863   866   ar
  1001   972   971    2
  1002   971   973   ar
  1003   862   868   ar
  1004   976   974   ar
  1005  1565  1563    1
  1006  1565  1567    1
  1007  1565  1566    1
  1008  1397  1396    1
  1009  1563  1564    1
  1010  1563  1561    1
  1011  2029  2028    1
  1012  2029  2034    1
  1013  1405  1406    2
  1014  1405  1404   ar
  1015   877   894    1
  1016  2028  2030    1
  1017   983   984    1
  1018  1567  1562    1
  1019  1868  1869   ar
  1020  1539  1544    1
  1021  1539  1538    1
  1022  2013  2014    1
  1023  2013  2012   ar
  1024  2851  2850   ar
  1025   894   915    2
  1026   894   916    1
  1027  1395  1394    1
  1028  1544  1542    1
  1029  1396  1394    1
  1030  1396  1398    1
  1031  2836  2834    1
  1032  2848  2850   ar
  1033  2848  2849    1
  1034   874   872    1
  1035  1934  1918    1
  1036  1934  1955    1
  1037  1403  1404   ar
  1038  1403  1409   ar
  1039   843   842   ar
  1040   843   845   ar
  1041  1003  1004    1
  1042  1003  1005    1
  1043  1542  1543    1
  1044  1920  1919    1
  1045   842   840   ar
  1046  2723  2722    2
  1047  1298  1280    2
  1048  1860  1861    1
  1049  1860  1862   ar
  1050  1863  1869   ar
  1051  1863  1862   ar
  1052  1278  1257    2
  1053  1004  1009    1
  1054  1835  1849    1
  1055  1040  1022    2
  1056  1404  1407   ar
  1057   973   974   ar
  1058  1562  1561    1
  1059  1394  1392    1
  1060  1871  1849    2
  1061   974   975    2
  1062  2018  2012   ar
  1063  2018  2019    2
  1064  1559  1561    1
  1065  1918  1917    1
  1066   866   867   ar
  1067  1869  1858    1
  1068  2852  2834    2
  1069  2722  2716   ar
  1070  2722  2721   ar
  1071   868   858    1
  1072   868   867   ar
  1073  1409  1398    1
  1074  1409  1408   ar
  1075  2034  2044    1
  1076  2034  2032    1
  1077  1919  1917    1
  1078  1919  1921    1
  1079  1398  1393    1
  1080  2043  2044   ar
  1081  2043  2042   ar
  1082  2834  2853    1
  1083  2834  2820    1
  1084  1018  1017   ar
  1085  1018  1019   ar
  1086  2030  2031    1
  1087  2030  2032    1
  1088  2724  2721   ar
  1089  2724  2725   ar
  1090   845   846   ar
  1091  2716  2717   ar
  1092   840   841    2
  1093   840   839   ar
  1094  1849  1851    1
  1095  1849  1870    1
  1096   872   873    1
  1097  1407  1408   ar
  1098  2721  2720   ar
  1099  2031  2047    1
  1100  2044  2038   ar
  1101  1005  1006    1
  1102  1005  1007    1
  1103  1280  1299    1
  1104  1280  1263    1
  1105  1280  1282    1
  1106   858   856    1
  1107   858   853    1
  1108   857   856    1
  1109  1017  1014   ar
  1110  1917  1915    1
  1111   856   854    1
  1112  1321  1300    2
  1113  1009  1019    1
  1114  1009  1007    1
  1115  2033  2032    1
  1116  2042  2039   ar
  1117  1257  1240    1
  1118  1257  1259    1
  1119  1257  1279    1
  1120   873   871    1
  1121  1022  1006    1
  1122  1022  1024    1
  1123  1022  1041    1
  1124  1258  1259    1
  1125  1258  1260    1
  1126  1263  1262    1
  1127  1019  1013   ar
  1128  1392  1393    1
  1129  1392  1390    1
  1130  1851  1850    1
  1131  2725  2726   ar
  1132  1023  1024    1
  1133  1023  1025    1
  1134  1924  1923   ar
  1135  1924  1925   ar
  1136  1240  1239    1
  1137  2822  2821    1
  1138  1322  1300    1
  1139  2717  2718    1
  1140  2717  2719   ar
  1141  1858  1853    1
  1142  1858  1856    1
  1143  1923  1922   ar
  1144  1853  1852    1
  1145  1921  1931    1
  1146  1921  1916    1
  1147  2826  2825    2
  1148  2720  2726   ar
  1149  2720  2719   ar
  1150  2820  2819    1
  1151  1060  1042    2
  1152  2065  2047    2
  1153  1007  1008    1
  1154   846   839   ar
  1155  2038  2039   ar
  1156  2038  2037   ar
  1157  1255  1234    2
  1158   839   838    1
  1159  2821  2819    1
  1160  2821  2823    1
  1161  1014  1013   ar
  1162  1014  1015   ar
  1163  1391  1390    1
  1164  1391  1389    1
  1165  1363  1362    2
  1166  1282  1281    1
  1167  1925  1931   ar
  1168  1925  1926   ar
  1169  2726  2715    1
  1170  2039  2040   ar
  1171  2047  2066    1
  1172  2047  2049    1
  1173  1300  1286    1
  1174  1300  1302    1
  1175  1281  1283    1
  1176  1260  1262    1
  1177  1260  1261    1
  1178  1931  1930   ar
  1179  1922  1927   ar
  1180  1013  1012   ar
  1181  1850  1852    1
  1182  1915  1916    1
  1183  1915  1913    1
  1184   853   852    1
  1185  2827  2825   ar
  1186  2827  2828   ar
  1187  2825  2824   ar
  1188  1262  1264    1
  1189  2710  2715    1
  1190  2710  2709    1
  1191  1025  1027    1
  1192  1025  1026    1
  1193   854   855    1
  1194   854   852    1
  1195  1028  1042    1
  1196  1028  1027    1
  1197  2819  2817    1
  1198  1411  1389    2
  1199  2037  2036   ar
  1200  2727  2706    2
  1201  1235  1237    1
  1202  1235  1236    1
  1203  1856  1857    1
  1204  1856  1854    1
  1205  1926  1927   ar
  1206  1926  1929   ar
  1207  1016  1015    1
  1208  1286  1285    1
  1209  1927  1928    1
  1210  1852  1854    1
  1211  1015  1010   ar
  1212  1930  1929   ar
  1213  1887  1886    2
  1214  1042  1061    1
  1215  1042  1044    1
  1216   871   893    2
  1217   871   855    1
  1218   871   892    1
  1219  1239  1237    1
  1220  1239  1241    1
  1221  1237  1238    1
  1222  1242  1241    1
  1223  1362  1356   ar
  1224  1362  1361   ar
  1225  2715  2713    1
  1226  2829  2828    1
  1227  2040  2041    1
  1228  2040  2035   ar
  1229  1012  1011   ar
  1230  1345  1323    2
  1231   847   829    2
  1232  2828  2830   ar
  1233  1356  1357   ar
  1234  2823  2824    1
  1235  2823  2818    1
  1236  1389  1375    1
  1237  1389  1410    1
  1238  2824  2831   ar
  1239   852   850    1
  1240  1027  1029    1
  1241   838   836    1
  1242   838   833    1
  1243  1283  1285    1
  1244  1283  1284    1
  1245  1234  1236    1
  1246  1234  1220    1
  1247  1234  1256    1
  1248  1302  1301    1
  1249  1913  1914    1
  1250  2049  2048    1
  1251  1265  1264    1
  1252  1026  1031    1
  1253  1886  1888   ar
  1254  1886  1885   ar
  1255  2036  2035   ar
  1256  2707  2709    1
  1257  2707  2708    1
  1258  2709  2711    1
  1259  1261  1266    1
  1260  1285  1287    1
  1261  2048  2050    1
  1262  1854  1855    1
  1263  1344  1323    1
  1264  1932  1912    2
  1265  1241  1243    1
  1266  1264  1266    1
  1267  1888  1889   ar
  1268  1010  1011   ar
  1269  1388  1369    2
  1270   836   834    1
  1271   836   837    1
  1272  1914  1912    1
  1273  1361  1364   ar
  1274  1361  1360   ar
  1275  2708  2706    1
  1276  2817  2818    1
  1277  2817  2815    1
  1278  2706  2690    1
  1279  2706  2728    1
  1280  1220  1219    1
  1281  1375  1374    1
  1282  2830  2831   ar
  1283  1885  1883   ar
  1284  1301  1303    1
  1285  1364  1365   ar
  1286  1323  1306    1
  1287  1323  1325    1
  1288  2051  2050    1
  1289  2051  2056    1
  1290  1357  1358    1
  1291  1357  1359   ar
  1292   851   850    1
  1293   851   849    1
  1294  1030  1029    1
  1295  1222  1221    1
  1296  2690  2689    1
  1297  1238  1243    1
  1298   833   832    1
  1299  1044  1043    1
  1300  1370  1371    1
  1301  1370  1372    1
  1302  2063  2064   ar
  1303  2063  2061   ar
  1304  2064  2057   ar
  1305   831   829    1
  1306   831   830    1
  1307   829   848    1
  1308   829   812    1
  1309  1889  1882   ar
  1310  1043  1045    1
  1311  1368  1346    2
  1312  1029  1031    1
  1313  1266  1277    1
  1314  2713  2711    1
  1315  2713  2714    1
  1316  1912  1933    1
  1317  1912  1898    1
  1318   834   832    1
  1319   834   835    1
  1320  1284  1289    1
  1321  2050  2052    1
  1322  1031  1032    1
  1323   870   849    2
  1324  1883  1882   ar
  1325  1883  1884    2
  1326  1243  1254    1
  1327  1855  1872    1
  1328  1371  1369    1
  1329  2711  2712    1
  1330  1360  1359   ar
  1331  1360  1366   ar
  1332  1306  1305    1
  1333  1369  1387    1
  1334  1369  1352    1
  1335  1882  1881    1
  1336  2692  2691    1
  1337  1083  1062    2
  1338  2815  2816    1
  1339  1374  1372    1
  1340  1374  1376    1
  1341  1876  1881    1
  1342  1876  1875    1
  1343  1084  1062    1
  1344  1287  1288    1
  1345  1287  1289    1
  1346  1372  1373    1
  1347  1365  1366   ar
  1348  2816  2814    1
  1349  1297  1296   ar
  1350  1297  1290   ar
  1351  2057  2056    1
  1352  2057  2058   ar
  1353  1276  1277   ar
  1354  1276  1275   ar
  1355  1325  1324    1
  1356  2056  2054    1
  1357  2061  2062    1
  1358  2061  2060   ar
  1359   832   830    1
  1360  1221  1219    1
  1361  1221  1223    1
  1362  1340  1339    2
  1363   849   835    1
  1364   849   869    1
  1365  1039  1032   ar
  1366  1039  1038   ar
  1367  1219  1217    1
  1368  1305  1303    1
  1369  1305  1307    1
  1370  1277  1271   ar
  1371  2712  2729    1
  1372  1303  1304    1
  1373  1341  1342   ar
  1374  1341  1338   ar
  1375  1296  1294   ar
  1376   812   811    1
  1377  2689  2687    1
  1378  2689  2691    1
  1379  2687  2685    1
  1380  2687  2688    1
  1381  2809  2808    2
  1382  2685  2686    1
  1383  1289  1290    1
  1384  1366  1355    1
  1385  1890  1872    2
  1386  1881  1879    1
  1387  1032  1033   ar
  1388  1062  1048    1
  1389  1062  1064    1
  1390   127   126    1
  1391  1319  1318   ar
  1392  1319  1320   ar
  1393  1873  1875    1
  1394  1873  1874    1
  1395  1318  1315   ar
  1396  1346  1348    1
  1397  1346  1367    1
  1398  1346  1329    1
  1399  2807  2808   ar
  1400  2807  2805   ar
  1401  1898  1897    1
  1402  1045  1046    1
  1403  1045  1047    1
  1404  1254  1253   ar
  1405  1254  1248   ar
  1406  1875  1877    1
  1407  2691  2693    1
  1408  2052  2054    1
  1409  2052  2053    1
  1410  1290  1291   ar
  1411  2058  2060   ar
  1412  2058  2059    2
  1413  1872  1874    1
  1414  1872  1891    1
  1415  1342  1343   ar
  1416  1217  1215    1
  1417  1217  1218    1
  1418  2704  2684    2
  1419  1275  1272   ar
  1420  2748  2729    2
  1421  2806  2805    2
  1422  2808  2810   ar
  1423  1339  1338   ar
  1424  1339  1333   ar
  1425  1038  1036   ar
  1426   809   807    1
  1427   809   811    1
  1428   809   810    1
  1429  1304  1309    1
  1430  1348  1347    1
  1431  1232  1214    2
  1432  2833  2814    2
  1433  1351  1352    1
  1434  1351  1353    1
  1435  1351  1349    1
  1436   792   791    1
  1437  1338  1337   ar
  1438  1353  1355    1
  1439  1353  1354    1
  1440  1253  1252   ar
  1441   807   808    1
  1442    18    17    2
  1443  2814  2832    1
  1444  2814  2800    1
  1445  1376  1377    1
  1446  1376  1378    1
  1447  1324  1326    1
  1448   811   813    1
  1449  2805  2804   ar
  1450  1048  1047    1
  1451   131   130    1
  1452  1373  1378    1
  1453  2054  2055    1
  1454  2729  2747    1
  1455  2729  2731    1
  1456  1271  1272   ar
  1457  1271  1270   ar
  1458  1223  1218    1
  1459  1223  1224    1
  1460  1046  1051    1
  1461  1226  1225    2
  1462  1047  1049    1
  1463  1294  1295    1
  1464  1294  1293   ar
  1465  2686  2684    1
  1466  1355  1350    1
  1467  2788  2787    2
  1468  2688  2693    1
  1469  2053  2067    1
  1470  1215  1216    1
  1471  1307  1309    1
  1472  1307  1308    1
  1473  1328  1329    1
  1474  1328  1326    1
  1475  1328  1330    1
  1476  1248  1247   ar
  1477  1248  1249   ar
  1478  1320  1309    1
  1479  1320  1314   ar
  1480  1247  1245   ar
  1481  1897  1895    1
  1482  1897  1899    1
  1483  1064  1063    1
  1484   128   126    1
  1485   128   123    1
  1486   128   139    1
  1487  1272  1273   ar
  1488   827   806    2
  1489   132   130   ar
  1490   132   133   ar
  1491  1270  1268   ar
  1492  1033  1034    2
  1493  1033  1035   ar
  1494  1315  1316   ar
  1495  1315  1314   ar
  1496  2693  2703    1
  1497   126   124    1
  1498  2810  2811   ar
  1499  1059  1058   ar
  1500  1059  1052   ar
  1501   123   122    1
  1502  1879  1877    1
  1503  1879  1880    1
  1504  1343  1337   ar
  1505  1343  1332    1
  1506  1291  1293   ar
  1507  1291  1292    2
  1508   810   815    1
  1509  1333  1334   ar
  1510  1317  1316    2
  1511  2086  2067    2
  1512  1378  1379    1
  1513  2684  2667    1
  1514  2684  2705    1
  1515  2801  2802    1
  1516  2801  2799    1
  1517  2801  2803    1
  1518   130   129   ar
  1519   790   806    1
  1520   790   789    1
  1521  1058  1056   ar
  1522   690   689    1
  1523  1877  1878    1
  1524  1337  1336   ar
  1525  1326  1327    1
  1526  2804  2811   ar
  1527  2804  2803    1
  1528  1252  1249   ar
  1529    17    11   ar
  1530    17    16   ar
  1531  1347  1349    1
  1532  1349  1350    1
  1533  1900  1899    1
  1534  1225  1224   ar
  1535  1225  1227   ar
  1536   122   124    1
  1537   122   120    1
  1538  1214  1216    1
  1539  1214  1233    1
  1540  1214  1200    1
  1541  1036  1035   ar
  1542  1036  1037    2
  1543   143   145    1
  1544   143   144    1
  1545  1224  1231   ar
  1546   808   806    1
  1547  1316  1310   ar
  1548  2800  2799    1
  1549    11    12   ar
  1550   791   789    1
  1551   791   793    1
  1552  2787  2781   ar
  1553  2787  2786   ar
  1554   145   146    1
  1555   145   147    1
  1556  1314  1313   ar
  1557  1063  1065    1
  1558   146   151    1
  1559  2667  2666    1
  1560  1895  1893    1
  1561  1895  1896    1
  1562  1327  1332    1
  1563  2082  2081    2
  1564  1249  1250   ar
  1565  2731  2730    1
  1566  2744  2743    1
  1567  2067  2085    1
  1568  2067  2069    1
  1569  1330  1332    1
  1570  1330  1331    1
  1571   806   828    1
  1572  2799  2797    1
  1573  1878  1892    1
  1574  2781  2782   ar
  1575  2669  2668    1
  1576   813   814    1
  1577   813   815    1
  1578  1899  1901    1
  1579   139   133   ar
  1580   139   138   ar
  1581   133   134   ar
  1582  1893  1894    1
  1583  1245  1246    1
  1584  1245  1244   ar
  1585   125   124    1
  1586   125   142    1
  1587  1051  1049    1
  1588  1051  1052    1
  1589  2745  2743   ar
  1590  2745  2746   ar
  1591   787   789    1
  1592   787   788    1
  1593   787   785    1
  1594   115   114    1
  1595  2803  2798    1
  1596   815   826    1
  1597  1273  1267   ar
  1598  1273  1274    2
  1599  2083  2081   ar
  1600  2083  2084   ar
  1601  1268  1267   ar
  1602  1268  1269    1
  1603   150   149    1
  1604  1049  1050    1
  1605  2765  2764    1
  1606  1052  1053   ar
  1607  1334  1336   ar
  1608  1334  1335    1
  1609   793   788    1
  1610   793   803    1
  1611   818   817    1
  1612  2081  2080   ar
  1613   129   135   ar
  1614   684   689   ar
  1615   684   685   ar
  1616  2703  2702   ar
  1617  2703  2697   ar
  1618   689   688   ar
  1619  1227  1228   ar
  1620    16    19   ar
  1621    16    15   ar
  1622    39    38    1
  1623  2770  2749    2
  1624  1379  1386   ar
  1625  1379  1380   ar
  1626  2743  2742   ar
  1627  1182  1183   ar
  1628  1182  1187   ar
  1629   151   149    1
  1630   151   162    1
  1631   120   121    1
  1632   116   114    1
  1633   116   111    1
  1634  1200  1199    1
  1635   773   772    1
  1636   819   817   ar
  1637   819   820   ar
  1638   163   142    2
  1639  1231  1230   ar
  1640  2786  2789   ar
  1641  2786  2785   ar
  1642  1056  1057    1
  1643  1056  1055   ar
  1644   114   112    1
  1645    19    20   ar
  1646  1183  1184   ar
  1647  1386  1385   ar
  1648  1894  1892    1
  1649    12    13    1
  1650    12    14   ar
  1651  2746  2739   ar
  1652   148   147    1
  1653   148   165    1
  1654  2084  2077   ar
  1655   144   142    1
  1656  2730  2732    1
  1657  2789  2790   ar
  1658  1310  1311   ar
  1659   785   786    1
  1660  1313  1311   ar
  1661  1244  1250   ar
  1662  1250  1251    2
  1663  2782  2783    1
  1664  2782  2784   ar
  1665  1188  1187    1
  1666   147   149    1
  1667  1081  1080   ar
  1668  1081  1082   ar
  1669  1080  1077   ar
  1670  2668  2666    1
  1671  2668  2670    1
  1672   796   795   ar
  1673   796   797   ar
  1674   142   164    1
  1675  2666  2664    1
  1676   138   137   ar
  1677   134   135   ar
  1678   134   137   ar
  1679  1896  1901    1
  1680    23     1    2
  1681  1187  1186   ar
  1682  2702  2701   ar
  1683  2069  2068    1
  1684  2696  2697   ar
  1685  2696  2695   ar
  1686   817   816   ar
  1687  1901  1902    1
  1688  1065  1066    1
  1689  1065  1067    1
  1690  2813  2794    2
  1691  1892  1911    2
  1692  1892  1910    1
  1693   769   768    1
  1694  1184  1185   ar
  1695  2697  2698   ar
  1696  1066  1071    1
  1697  2764  2763   ar
  1698  2764  2759   ar
  1699  2798  2797    1
  1700   135   136    2
  1701  2080  2078   ar
  1702  2797  2795    1
  1703  1228  1230   ar
  1704  1228  1229    1
  1705   826   820   ar
  1706   826   825   ar
  1707  1193  1172    2
  1708  1311  1312    1
  1709   685   686   ar
  1710  1381  1380    2
  1711  2766  2763   ar
  1712  2766  2767   ar
  1713  1053  1055   ar
  1714  1053  1054    2
  1715  2664  2662    1
  1716  2664  2665    1
  1717  2104  2103    2
  1718    61    60    2
  1719  1164  1163    2
  1720  2796  2795    1
  1721  2796  2794    1
  1722   688   691   ar
  1723   688   687   ar
  1724   820   821   ar
  1725    15    14   ar
  1726    15    21   ar
  1727   803   797   ar
  1728   803   802   ar
  1729  1380  1382   ar
  1730  2785  2784   ar
  1731  2785  2791   ar
  1732  1186  1185   ar
  1733  1186  1189   ar
  1734  1176  1175    1
  1735  1176  1181    1
  1736   795   794   ar
  1737  1106  1085    2
  1738   185   165    2
  1739    38    37   ar
  1740    38    40   ar
  1741  1185  1191   ar
  1742   162   161   ar
  1743   162   156   ar
  1744   111   110    1
  1745   121   119    1
  1746  2068  2070    1
  1747  2077  2078   ar
  1748  2077  2076    1
  1749  2071  2076    1
  1750  2071  2070    1
  1751   772   774   ar
  1752   772   771   ar
  1753  2742  2740   ar
  1754  2790  2791   ar
  1755   797   798   ar
  1756  2763  2762   ar
  1757    20    21   ar
  1758    54    60   ar
  1759    54    55   ar
  1760    99    98    2
  1761  2749  2769    1
  1762  2749  2735    1
  1763  2749  2751    1
  1764   691   692   ar
  1765   774   775   ar
  1766  2759  2760   ar
  1767  1385  1383   ar
  1768  1202  1201    1
  1769  2793  2771    2
  1770  1199  1197    1
  1771  1199  1201    1
  1772    22     1    1
  1773  1067  1068    1
  1774  1067  1069    1
  1775  1160  1159    1
  1776  2078  2079    2
  1777  2662  2663    1
  1778    37    35   ar
  1779   165   186    1
  1780   165   167    1
  1781  2739  2740   ar
  1782  2739  2738    1
  1783    56    55    1
  1784     1     3    1
  1785   161   160   ar
  1786   522   504    2
  1787  2732  2734    1
  1788  2732  2733    1
  1789  2695  2694   ar
  1790  2794  2812    1
  1791  2794  2777    1
  1792  1082  1071    1
  1793  1082  1076   ar
  1794  1189  1190   ar
  1795  1192  1172    1
  1796   786   784    1
  1797  2734  2735    1
  1798  2734  2736    1
  1799   112   113    1
  1800   112   110    1
  1801  2701  2698   ar
  1802  1175  1173    1
  1803  1175  1177    1
  1804  2670  2665    1
  1805  2670  2681    1
  1806    60    59   ar
  1807  1191  1181    1
  1808  1191  1190   ar
  1809     3     2    1
  1810  1077  1078   ar
  1811  1077  1076   ar
  1812  2733  2738    1
  1813  2698  2699   ar
  1814  2791  2780    1
  1815  1068  1085    1
  1816  1173  1174    1
  1817  2767  2768   ar
  1818   768   770    1
  1819   768   766    1
  1820   816   822   ar
  1821  1902  1909   ar
  1822  1902  1903   ar
  1823    21    10    1
  1824  1172  1174    1
  1825  1172  1158    1
  1826  2103  2102   ar
  1827  2103  2097   ar
  1828  1071  1069    1
  1829   749   750   ar
  1830   749   754   ar
  1831    40    41   ar
  1832  1079  1078    2
  1833  2076  2074    1
  1834  1181  1179    1
  1835   155   156   ar
  1836   155   153   ar
  1837   687   686   ar
  1838   687   693   ar
  1839   113   119    1
  1840   156   157   ar
  1841   825   824   ar
  1842    55    57   ar
  1843  1904  1903    2
  1844  2740  2741    2
  1845   110   108    1
  1846  1163  1165   ar
  1847  1163  1162   ar
  1848  2070  2072    1
  1849  1197  1198    1
  1850  1197  1195    1
  1851  1085  1105    1
  1852  1085  1087    1
  1853   750   751   ar
  1854   166   167    1
  1855   166   168    1
  1856  2105  2102   ar
  1857  2105  2106   ar
  1858  2122  2121    1
  1859    79    78    2
  1860  1201  1203    1
  1861  2751  2750    1
  1862   802   801   ar
  1863  1382  1383   ar
  1864   771   777   ar
  1865    98   100   ar
  1866    98    97   ar
  1867  1165  1166   ar
  1868   100   101   ar
  1869   821   822   ar
  1870   821   824   ar
  1871   770   781    1
  1872   770   765    1
  1873   794   799   ar
  1874  2120  2121   ar
  1875  2120  2126   ar
  1876  2127  2126    2
  1877    95    94    1
  1878  2738  2736    1
  1879  1078  1072   ar
  1880  1140  1141   ar
  1881  1140  1145   ar
  1882  1909  1908   ar
  1883   502   484    2
  1884  1076  1075   ar
  1885  2102  2101   ar
  1886   119   140    2
  1887   119   141    1
  1888    80    78   ar
  1889    80    81   ar
  1890  2663  2661    1
  1891  1903  1905   ar
  1892  2762  2768   ar
  1893  2762  2761   ar
  1894  2097  2098   ar
  1895  1383  1384    2
  1896   804   784    2
  1897   692   693   ar
  1898   160   157   ar
  1899  2760  2761   ar
  1900  2778  2776    1
  1901  2778  2780    1
  1902  2778  2779    1
  1903   767   784    1
  1904   767   766    1
  1905  1069  1070    1
  1906   490   504    1
  1907   490   489    1
  1908    35    36    2
  1909    35    34   ar
  1910   775   781   ar
  1911   775   776   ar
  1912   798   799   ar
  1913   798   801   ar
  1914  1161  1159    1
  1915  1161  1162    1
  1916  1161  1156    1
  1917  2694  2699   ar
  1918  2736  2737    1
  1919  2776  2777    1
  1920  2776  2774    1
  1921   755   754    1
  1922  1159  1157    1
  1923  2771  2773    1
  1924  2771  2792    1
  1925  2771  2755    1
  1926  2674  2675   ar
  1927  2674  2672   ar
  1928   784   805    1
  1929  1101  1100    1
  1930  1141  1142   ar
  1931    82    81    1
  1932   485   487    1
  1933   485   486    1
  1934  2681  2675   ar
  1935  2681  2680   ar
  1936     5    10    1
  1937     5     4    1
  1938  1203  1198    1
  1939  1203  1204    1
  1940   504   506    1
  1941   504   523    1
  1942  2768  2758    1
  1943   822   823    2
  1944  2699  2700    1
  1945     2     4    1
  1946    59    58   ar
  1947    59    62   ar
  1948  2773  2772    1
  1949   157   158   ar
  1950  1178  1177    1
  1951  1178  1194    1
  1952    78    77   ar
  1953  2121  2123   ar
  1954   754   753   ar
  1955  1195  1196    1
  1956  1146  1145    1
  1957  2126  2125   ar
  1958   153   154    1
  1959   153   152   ar
  1960  2780  2775    1
  1961  1206  1205    2
  1962  1162  1169   ar
  1963   766   764    1
  1964  1177  1179    1
  1965   542   524    2
  1966   693   683    1
  1967   733   732    2
  1968  2072  2074    1
  1969  2072  2073    1
  1970  2673  2672    1
  1971  2106  2107   ar
  1972    41    34   ar
  1973  1158  1157    1
  1974  1102  1103   ar
  1975  1102  1099   ar
  1976   169   168    1
  1977   169   174    1
  1978   505   506    1
  1979   505   507    1
  1980    10     8    1
  1981   781   780   ar
  1982    57    58   ar
  1983   117   107    2
  1984   168   170    1
  1985   765   764    1
  1986   487   489    1
  1987   487   488    1
  1988   799   800    1
  1989  2682  2661    2
  1990   751   752   ar
  1991    81    83   ar
  1992    96    97    1
  1993    96    94    1
  1994    96    91    1
  1995  2675  2676   ar
  1996  2074  2075    1
  1997  1145  1144   ar
  1998  1179  1180    1
  1999    97   104   ar
  2000   102   101    1
  2001   101   103   ar
  2002   711   710    1
  2003   764   762    1
  2004  2672  2671   ar
  2005    94    92    1
  2006  1157  1155    1
  2007    34    33    1
  2008  1087  1086    1
  2009  1166  1167    1
  2010  1166  1168   ar
  2011   108   109    1
  2012   663   662    1
  2013    58    64   ar
  2014  2754  2755    1
  2015  2754  2756    1
  2016  2754  2752    1
  2017  1156  1155    1
  2018   659   658    1
  2019   470   484    1
  2020   470   469    1
  2021    62    63   ar
  2022  2101  2107   ar
  2023  2101  2100   ar
  2024   472   471    1
  2025  2750  2752    1
  2026   777   776   ar
  2027   777   778    2
  2028  2098  2099    1
  2029  2098  2100   ar
  2030  1908  1906   ar
  2031  2680  2679   ar
  2032   492   491    1
  2033   489   491    1
  2034     4     6    1
  2035   484   486    1
  2036   484   503    1
  2037  1905  1906   ar
  2038  2661  2645    1
  2039  2661  2683    1
  2040   726   732   ar
  2041   726   727   ar
  2042   776   779   ar
  2043  1072  1073   ar
  2044  1103  1104   ar
  2045   109   107    1
  2046  2775  2774    1
  2047  1075  1073   ar
  2048   152   158   ar
  2049  1196  1194    1
  2050   183   182   ar
  2051   183   184   ar
  2052  1100  1099   ar
  2053  1100  1095   ar
  2054   158   159    2
  2055  2107  2096    1
  2056   510   524    1
  2057   510   509    1
  2058  2774  2772    1
  2059   732   731   ar
  2060  1142  1143   ar
  2061  1205  1204   ar
  2062  1205  1207   ar
  2063  1099  1098   ar
  2064  2647  2646    1
  2065  2756  2758    1
  2066  2756  2757    1
  2067   524   543    1
  2068   524   526    1
  2069  1213  1194    2
  2070  2758  2753    1
  2071     8     6    1
  2072     8     9    1
  2073  1204  1211   ar
  2074   507   509    1
  2075   507   508    1
  2076  2123  2124   ar
  2077    77    76    1
  2078    77    84   ar
  2079  1155  1153    1
  2080  1169  1168   ar
  2081  1194  1212    1
  2082  2109  2087    2
  2083  2073  2087    1
  2084   753   752   ar
  2085   753   756   ar
  2086  2752  2753    1
  2087    91    90    1
  2088  2125  2124   ar
  2089  2125  2128   ar
  2090   488   493    1
  2091   752   758   ar
  2092   107    93    1
  2093   107   118    1
  2094   728   727    1
  2095   683   678    1
  2096   683   681    1
  2097  1906  1907    2
  2098   695   674    2
  2099  2676  2679   ar
  2100  2676  2677   ar
  2101   182   179   ar
  2102  2645  2644    1
  2103   174   184    1
  2104   174   172    1
  2105  1073  1074    1
  2106   104   103   ar
  2107   491   493    1
  2108   780   779   ar
  2109  2671  2677   ar
  2110   467   469    1
  2111   467   465    1
  2112   467   468    1
  2113    83    84   ar
  2114   662   664   ar
  2115   662   661   ar
  2116    76    74    1
  2117    76    71    1
  2118   170   171    1
  2119   170   172    1
  2120    63    64   ar
  2121    64    53    1
  2122  1144  1143   ar
  2123  1144  1147   ar
  2124   184   178   ar
  2125   469   471    1
  2126   664   665   ar
  2127  1086  1088    1
  2128   710   709   ar
  2129   710   712   ar
  2130    33    28    1
  2131    33    31    1
  2132   658   660    1
  2133   658   656    1
  2134  2124  2130   ar
  2135     6     7    1
  2136  1129  1107    2
  2137   727   729   ar
  2138   509   511    1
  2139   762   763    1
  2140   471   473    1
  2141    92    90    1
  2142    92    93    1
  2143    75    74    1
  2144  2646  2644    1
  2145  2646  2648    1
  2146   465   466    1
  2147  1143  1149   ar
  2148   171   187    1
  2149   657   674    1
  2150   657   656    1
  2151    90    88    1
  2152   678   677    1
  2153  2091  2096    1
  2154  2091  2090    1
  2155  1095  1096   ar
  2156  2096  2094    1
  2157  2677  2678    2
  2158  2087  2089    1
  2159  2087  2108    1
  2160   676   674    1
  2161   676   675    1
  2162   493   494    1
  2163  1104  1098   ar
  2164  1104  1094    1
  2165   681   682    1
  2166   681   679    1
  2167    74    72    1
  2168  2128  2129   ar
  2169    28    27    1
  2170   508   513    1
  2171  1207  1208   ar
  2172   709   707   ar
  2173  1128  1107    1
  2174  1098  1097   ar
  2175  1211  1210   ar
  2176  2644  2642    1
  2177   674   694    1
  2178   731   734   ar
  2179   731   730   ar
  2180   172   173    1
  2181   206   187    2
  2182  2650  2651   ar
  2183  2650  2649   ar
  2184   468   473    1
  2185   661   667   ar
  2186  2651  2652   ar
  2187   526   525    1
  2188   712   713   ar
  2189  2089  2088    1
  2190   756   757   ar
  2191   179   178   ar
  2192   179   180   ar
  2193   660   671    1
  2194   660   655    1
  2195    71    70    1
  2196   357   359    1
  2197   357   358    1
  2198   758   748    1
  2199   758   757   ar
  2200  1153  1154    1
  2201    53    48    1
  2202    53    51    1
  2203   364   363    1
  2204   344   343    1
  2205   359   360    1
  2206   359   361    1
  2207   656   654    1
  2208   525   527    1
  2209   473   474    1
  2210   178   177   ar
  2211   763   761    1
  2212  1107  1091    1
  2213  1107  1109    1
  2214  1089  1088    1
  2215  1089  1094    1
  2216   449   448    1
  2217    31    29    1
  2218    31    32    1
  2219  1090  1088    1
  2220  1090  1091    1
  2221  1090  1092    1
  2222   665   671   ar
  2223   665   666   ar
  2224  1147  1148   ar
  2225  1154  1152    1
  2226   187   205    1
  2227   187   189    1
  2228   362   361    1
  2229   362   376    1
  2230   396   376    2
  2231  2130  2129   ar
  2232  2130  2119    1
  2233   512   511    1
  2234   747   746    1
  2235   734   735   ar
  2236     7    24    1
  2237   746   748    1
  2238   746   744    1
  2239   377   379    1
  2240   377   378    1
  2241   729   730   ar
  2242   482   464    2
  2243  2649  2654   ar
  2244   511   513    1
  2245   675   677    1
  2246  2648  2658    1
  2247  2648  2643    1
  2248   748   743    1
  2249   466   464    1
  2250   374   356    2
  2251  1096  1097   ar
  2252  1094  1092    1
  2253   671   670   ar
  2254  1149  1148   ar
  2255  1149  1139    1
  2256   677   679    1
  2257   360   365    1
  2258   730   736   ar
  2259  2652  2658   ar
  2260  2652  2653   ar
  2261  2090  2088    1
  2262  2090  2092    1
  2263  2094  2092    1
  2264  2094  2095    1
  2265   513   514    1
  2266   654   655    1
  2267   654   652    1
  2268   181   180    1
  2269    88    89    1
  2270   494   501   ar
  2271   494   495   ar
  2272    27    29    1
  2273    27    25    1
  2274  1208  1210   ar
  2275  1208  1209    2
  2276    48    47    1
  2277    29    30    1
  2278   180   175   ar
  2279   361   363    1
  2280   679   680    1
  2281    25    26    1
  2282    26    24    1
  2283    51    52    1
  2284    51    49    1
  2285  2642  2643    1
  2286  2642  2640    1
  2287    89    87    1
  2288   707   708    2
  2289   707   706   ar
  2290   667   666   ar
  2291   667   668    2
  2292   379   380    1
  2293   379   381    1
  2294   342   356    1
  2295   342   341    1
  2296  2658  2657   ar
  2297  1137  1138    1
  2298  1137  1139    1
  2299  1137  1135    1
  2300    72    70    1
  2301    72    73    1
  2302  1092  1093    1
  2303   177   176   ar
  2304   501   500   ar
  2305   376   378    1
  2306   376   397    1
  2307   666   669   ar
  2308   363   365    1
  2309    42    24    2
  2310   713   706   ar
  2311    70    68    1
  2312   565   544    2
  2313   521   514   ar
  2314   521   520   ar
  2315  2119  2114    1
  2316  2119  2117    1
  2317   447   464    1
  2318   447   446    1
  2319   464   483    1
  2320   358   356    1
  2321  2654  2653   ar
  2322  2654  2655    1
  2323   453   452    1
  2324   416   398    2
  2325  1109  1108    1
  2326  2092  2093    1
  2327   476   475    2
  2328   365   366    1
  2329  1139  1134    1
  2330    24    43    1
  2331  2114  2113    1
  2332   382   381    1
  2333   382   398    1
  2334  2653  2656   ar
  2335   343   341    1
  2336   343   345    1
  2337   448   446    1
  2338   448   450    1
  2339   356   375    1
  2340   474   475   ar
  2341   474   481   ar
  2342   643   642    2
  2343   325   324    1
  2344   527   529    1
  2345   527   528    1
  2346   564   544    1
  2347   339   341    1
  2348   339   340    1
  2349   339   337    1
  2350   735   736   ar
  2351   761   782    2
  2352   761   745    1
  2353   761   783    1
  2354    66    44    2
  2355   496   495    2
  2356   189   188    1
  2357   380   385    1
  2358   744   745    1
  2359   744   742    1
  2360   514   515   ar
  2361  1171  1152    2
  2362   644   642   ar
  2363   644   645   ar
  2364  1152  1136    1
  2365  1152  1170    1
  2366   706   705    1
  2367   646   645    2
  2368   670   669   ar
  2369   203   204   ar
  2370   203   201   ar
  2371   495   497   ar
  2372  1108  1110    1
  2373   175   176   ar
  2374  1151  1130    2
  2375   736   725    1
  2376  2657  2656   ar
  2377    73    87    1
  2378   680   696    1
  2379   743   742    1
  2380   530   544    1
  2381   530   529    1
  2382  2155  2156   ar
  2383  2155  2160   ar
  2384   544   546    1
  2385  2640  2641    1
  2386    46    44    1
  2387    46    45    1
  2388  1135  1136    1
  2389  1135  1133    1
  2390   520   518   ar
  2391   381   383    1
  2392    49    47    1
  2393    49    50    1
  2394   345   340    1
  2395   345   346    1
  2396   475   477   ar
  2397   384   383    1
  2398  2161  2160    1
  2399   446   444    1
  2400   652   653    1
  2401   398   417    1
  2402   398   400    1
  2403   454   452   ar
  2404   454   455   ar
  2405    30    44    1
  2406   202   201    1
  2407    47    45    1
  2408   642   641   ar
  2409   529   531    1
  2410    87   106    2
  2411    87   105    1
  2412   337   338    1
  2413   481   480   ar
  2414   528   533    1
  2415   500   498   ar
  2416   204   197   ar
  2417   452   451   ar
  2418  2118  2117    1
  2419    68    69    1
  2420    69    67    1
  2421  2156  2157   ar
  2422   645   647   ar
  2423   188   190    1
  2424   450   445    1
  2425   450   461    1
  2426   348   347    2
  2427    44    65    1
  2428  2160  2159   ar
  2429   444   445    1
  2430   444   442    1
  2431  2117  2115    1
  2432   201   200   ar
  2433   541   540   ar
  2434   541   534   ar
  2435   742   740    1
  2436   321   320    1
  2437  1134  1133    1
  2438   383   385    1
  2439  2093  2110    1
  2440   385   395    1
  2441   540   538   ar
  2442  2113  2115    1
  2443  2113  2111    1
  2444   366   373   ar
  2445   366   367   ar
  2446   324   326   ar
  2447   324   323   ar
  2448   653   651    1
  2449   626   625    2
  2450  1132  1130    1
  2451  1132  1131    1
  2452   515   516    2
  2453   515   517   ar
  2454   191   190    1
  2455   191   196    1
  2456   497   498   ar
  2457  2641  2639    1
  2458    86    67    2
  2459   368   367    2
  2460  2132  2110    2
  2461  1110  1111    1
  2462  1110  1112    1
  2463  1130  1150    1
  2464  1130  1113    1
  2465   326   327   ar
  2466   725   723    1
  2467   725   720    1
  2468   705   700    1
  2469   705   703    1
  2470  1133  1131    1
  2471  2112  2111    1
  2472  2112  2110    1
  2473    50    67    1
  2474   430   429    1
  2475  2157  2158   ar
  2476   455   461   ar
  2477   455   456   ar
  2478   373   372   ar
  2479   696   698    1
  2480   696   714    2
  2481   696   715    1
  2482   477   478   ar
  2483   346   347   ar
  2484   346   353   ar
  2485   518   517   ar
  2486   518   519    2
  2487   698   697    1
  2488  2115  2116    1
  2489  2177  2178   ar
  2490  2177  2182   ar
  2491   498   499    2
  2492   399   400    1
  2493   399   401    1
  2494    67    85    1
  2495   461   460   ar
  2496   197   196    1
  2497   197   198   ar
  2498  2178  2179   ar
  2499   546   545    1
  2500   451   457   ar
  2501   723   721    1
  2502   723   724    1
  2503   347   349   ar
  2504  2159  2158   ar
  2505  2159  2162   ar
  2506   641   640    1
  2507   641   648   ar
  2508   190   192    1
  2509   605   604    2
  2510   639   638    1
  2511   741   740    1
  2512   741   739    1
  2513   533   531    1
  2514   533   534    1
  2515   480   478   ar
  2516  2110  2131    1
  2517   367   369   ar
  2518   442   443    1
  2519   638   640    1
  2520   638   636    1
  2521   531   532    1
  2522   338   336    1
  2523  2659  2639    2
  2524  1119  1118    1
  2525   200   198   ar
  2526  2116  2133    1
  2527   323   329   ar
  2528   700   699    1
  2529  1111  1116    1
  2530   647   648   ar
  2531   534   535   ar
  2532  2200  2199   ar
  2533  2200  2201   ar
  2534  2158  2164   ar
  2535   320   322    1
  2536   320   318    1
  2537   703   701    1
  2538   703   704    1
  2539   395   394   ar
  2540   395   389   ar
  2541   625   624   ar
  2542   625   627   ar
  2543   196   194    1
  2544   538   539    2
  2545   538   537   ar
  2546   354   336    2
  2547   760   739    1
  2548   624   622   ar
  2549   478   479    1
  2550   640   635    1
  2551  1112  1113    1
  2552  1112  1114    1
  2553   198   199    2
  2554   720   719    1
  2555  2199  2204   ar
  2556   394   393   ar
  2557   721   719    1
  2558   721   722    1
  2559  2183  2182    1
  2560  2639  2660    1
  2561  2639  2625    1
  2562  2162  2163   ar
  2563  2182  2181   ar
  2564  2179  2180   ar
  2565  2201  2202   ar
  2566   738   716    1
  2567   545   547    1
  2568  1118  1120   ar
  2569  1118  1117   ar
  2570   701   699    1
  2571   701   702    1
  2572  2627  2626    1
  2573   327   333   ar
  2574   327   328   ar
  2575   322   333    1
  2576   322   317    1
  2577   192   194    1
  2578   192   193    1
  2579   353   352   ar
  2580   651   637    1
  2581   651   673    2
  2582   651   672    1
  2583   456   457   ar
  2584   456   459   ar
  2585  2143  2133    2
  2586   429   431   ar
  2587   429   428   ar
  2588   319   336    1
  2589   319   318    1
  2590  1120  1121   ar
  2591   372   370   ar
  2592   587   566    2
  2593   336   355    1
  2594   697   699    1
  2595   302   301   ar
  2596   302   303   ar
  2597   457   458    2
  2598   739   722    1
  2599   739   759    2
  2600   443   441    1
  2601   636   637    1
  2602   636   634    1
  2603   349   350   ar
  2604   460   459   ar
  2605   604   598   ar
  2606   604   603   ar
  2607   401   402    1
  2608   401   403    1
  2609  2164  2163   ar
  2610  2164  2154    1
  2611   561   562   ar
  2612   561   558   ar
  2613   369   370   ar
  2614   222   221    2
  2615   301   306   ar
  2616  2133  2135    1
  2617  2133  2144    1
  2618   719   717    1
  2619   226   207    2
  2620   535   537   ar
  2621   535   536    2
  2622   318   316    1
  2623   426   425    1
  2624   329   328   ar
  2625   329   330    2
  2626  1117  1123   ar
  2627   431   432   ar
  2628  2135  2134    1
  2629  1116  1114    1
  2630  1116  1127    1
  2631   333   332   ar
  2632   562   563   ar
  2633  2625  2624    1
  2634   582   581    1
  2635   194   195    1
  2636   389   388   ar
  2637   389   390   ar
  2638  2180  2181   ar
  2639  2180  2186   ar
  2640   428   434   ar
  2641   623   622    2
  2642   627   628   ar
  2643   622   621   ar
  2644  2181  2184   ar
  2645   717   718    1
  2646  2626  2624    1
  2647  2626  2628    1
  2648   402   407    1
  2649   193   207    1
  2650   598   599   ar
  2651  1121  1127   ar
  2652  1121  1122   ar
  2653   370   371    1
  2654  2204  2205    1
  2655  2204  2203   ar
  2656   317   316    1
  2657   393   390   ar
  2658   606   603   ar
  2659   606   607   ar
  2660   316   314    1
  2661  2154  2149    1
  2662  2154  2152    1
  2663   328   331   ar
  2664   303   304   ar
  2665  1114  1115    1
  2666   388   387   ar
  2667   635   634    1
  2668  2202  2203   ar
  2669  2202  2208   ar
  2670   462   441    2
  2671  2631  2630    2
  2672   603   602   ar
  2673   223   221   ar
  2674   223   224   ar
  2675  2149  2148    1
  2676  1127  1126   ar
  2677   702   716    1
  2678   352   350   ar
  2679   404   403    1
  2680   716   718    1
  2681   716   737    2
  2682   560   559    1
  2683   221   220   ar
  2684   350   351    1
  2685   403   405    1
  2686   547   549    1
  2687   547   548    1
  2688  2134  2136    1
  2689   566   586    1
  2690   566   550    1
  2691   566   568    1
  2692  1123  1122   ar
  2693  1123  1124    2
  2694   425   427    1
  2695   425   423    1
  2696   634   632    1
  2697   441   424    1
  2698   441   463    1
  2699   583   580   ar
  2700   583   584   ar
  2701   207   225    1
  2702   207   209    1
  2703  2624  2622    1
  2704   549   550    1
  2705   549   551    1
  2706  1122  1125   ar
  2707   390   391   ar
  2708  2197  2196    1
  2709   558   559   ar
  2710   558   557   ar
  2711  2203  2206   ar
  2712   548   553    1
  2713   306   307    1
  2714   306   305   ar
  2715  2186  2176    1
  2716  2186  2185   ar
  2717   415   414   ar
  2718   415   408   ar
  2719  2184  2185   ar
  2720  2198  2208    1
  2721  2198  2196    1
  2722  2198  2193    1
  2723   628   621   ar
  2724   432   433   ar
  2725   432   438   ar
  2726   621   620    1
  2727   581   580   ar
  2728   581   576   ar
  2729   563   553    1
  2730   563   557   ar
  2731   332   331   ar
  2732   424   423    1
  2733  2208  2207   ar
  2734  2628  2629    1
  2735  2628  2623    1
  2736   434   435    2
  2737   434   433   ar
  2738  2630  2629   ar
  2739  2630  2632   ar
  2740  1126  1125   ar
  2741   559   554   ar
  2742   607   608   ar
  2743   414   412   ar
  2744  2153  2152    1
  2745  2176  2171    1
  2746  2176  2174    1
  2747   224   217   ar
  2748   279   280   ar
  2749   279   284   ar
  2750   599   600    1
  2751   599   601   ar
  2752   304   305   ar
  2753   304   310   ar
  2754  2152  2150    1
  2755   314   315    1
  2756   407   405    1
  2757   407   408    1
  2758   580   579   ar
  2759   387   386   ar
  2760   242   241    2
  2761   427   438    1
  2762   427   422    1
  2763   633   632    1
  2764   633   631    1
  2765  2196  2194    1
  2766   263   262    1
  2767   584   585   ar
  2768   602   601   ar
  2769   602   608   ar
  2770   299   298    1
  2771  2148  2146    1
  2772  2148  2150    1
  2773   423   421    1
  2774   220   218   ar
  2775  2136  2137    1
  2776  2136  2138    1
  2777   553   551    1
  2778   280   281   ar
  2779   568   567    1
  2780  2622  2623    1
  2781  2622  2620    1
  2782   557   556   ar
  2783  2629  2636   ar
  2784  2193  2192    1
  2785   405   406    1
  2786   433   436   ar
  2787   408   409   ar
  2788  2632  2633   ar
  2789   305   308   ar
  2790   209   208    1
  2791   438   437   ar
  2792   551   552    1
  2793   285   284    1
  2794  2175  2174    1
  2795   650   631    2
  2796   576   577   ar
  2797   391   386   ar
  2798   391   392    1
  2799  2206  2207   ar
  2800  2434  2433    1
  2801  2219  2218    1
  2802  2171  2170    1
  2803  2174  2172    1
  2804  2146  2147    1
  2805   608   597    1
  2806   620   618    1
  2807   620   615    1
  2808   298   300    1
  2809   298   296    1
  2810   284   283   ar
  2811   630   611    2
  2812   618   616    1
  2813   618   619    1
  2814   610   588    2
  2815  2466  2448    2
  2816  2150  2151    1
  2817   315   313    1
  2818   300   310    1
  2819   300   295    1
  2820   310   309   ar
  2821  2215  2220    1
  2822  2215  2214    1
  2823  2137  2142    1
  2824   217   218   ar
  2825   217   216    1
  2826   554   555   ar
  2827  2139  2138    1
  2828  2139  2145    1
  2829   412   413    2
  2830   412   411   ar
  2831  2138  2140    1
  2832   421   422    1
  2833   421   419    1
  2834   631   617    1
  2835   631   649    1
  2836  2220  2218    1
  2837  2220  2230    1
  2838   241   243   ar
  2839   241   240   ar
  2840  2147  2145    1
  2841  2486  2468    2
  2842   218   219    2
  2843   579   585   ar
  2844   579   578   ar
  2845  2214  2212    1
  2846  2214  2216    1
  2847  2192  2194    1
  2848  2192  2190    1
  2849   262   257   ar
  2850   262   261   ar
  2851   208   210    1
  2852   585   575    1
  2853  2636  2635   ar
  2854  2633  2634    2
  2855  2633  2635   ar
  2856   281   282   ar
  2857  2620  2621    1
  2858  2194  2195    1
  2859   616   617    1
  2860   616   614    1
  2861  2608  2607   ar
  2862  2608  2609   ar
  2863  2449  2450    1
  2864  2449  2451    1
  2865  2607  2612   ar
  2866   567   569    1
  2867   556   555   ar
  2868   437   436   ar
  2869   211   216    1
  2870   211   210    1
  2871   409   411   ar
  2872   409   410    2
  2873  2212  2213    1
  2874  2432  2448    1
  2875  2432  2431    1
  2876  2218  2216    1
  2877   257   258   ar
  2878   308   309   ar
  2879  2223  2222   ar
  2880  2223  2224   ar
  2881   577   578   ar
  2882  2433  2431    1
  2883  2433  2435    1
  2884   243   244   ar
  2885   615   614    1
  2886   613   611    1
  2887   613   612    1
  2888  2170  2172    1
  2889  2170  2168    1
  2890   240   238   ar
  2891  2195  2211    1
  2892  2621  2619    1
  2893  2172  2173    1
  2894  2151  2167    1
  2895  2448  2450    1
  2896  2448  2467    1
  2897  2145  2166    2
  2898  2145  2165    1
  2899  2454  2468    1
  2900  2454  2453    1
  2901   597   592    1
  2902   597   595    1
  2903   216   214    1
  2904   283   282   ar
  2905   283   286   ar
  2906   611   594    1
  2907   611   629    1
  2908  2230  2224   ar
  2909  2230  2229   ar
  2910   589   591    1
  2911   589   590    1
  2912   295   294    1
  2913   593   595    1
  2914   593   591    1
  2915   593   594    1
  2916  2142  2140    1
  2917   296   297    1
  2918   296   294    1
  2919   571   569    1
  2920   571   572    1
  2921   571   573    1
  2922  2216  2217    1
  2923   210   212    1
  2924  2222  2221   ar
  2925   264   261   ar
  2926   264   265   ar
  2927  2140  2141    1
  2928  2217  2233    1
  2929   570   569    1
  2930   570   575    1
  2931   592   591    1
  2932   261   260   ar
  2933  2451  2453    1
  2934  2451  2452    1
  2935   282   288   ar
  2936   588   572    1
  2937   588   590    1
  2938   588   609    1
  2939  2609  2610   ar
  2940  2224  2225   ar
  2941  2468  2487    1
  2942  2468  2470    1
  2943   297   313    1
  2944   313   334    2
  2945   313   335    1
  2946  2190  2191    1
  2947  2612  2613    1
  2948  2612  2611   ar
  2949   614   612    1
  2950   595   596    1
  2951   419   420    1
  2952   575   573    1
  2953  2431  2429    1
  2954  2169  2168    1
  2955  2169  2167    1
  2956  2435  2430    1
  2957  2435  2445    1
  2958  2213  2211    1
  2959   294   292    1
  2960   212   214    1
  2961   212   213    1
  2962   573   574    1
  2963  2438  2437   ar
  2964  2438  2439   ar
  2965   258   259   ar
  2966  2453  2455    1
  2967  2173  2189    1
  2968   420   418    1
  2969  2191  2189    1
  2970  2429  2430    1
  2971  2429  2427    1
  2972  2229  2228   ar
  2973   244   237   ar
  2974  2188  2167    2
  2975   246   227    2
  2976  2167  2187    1
  2977  2211  2231    2
  2978  2211  2232    1
  2979   214   215    1
  2980   238   237   ar
  2981   238   239    2
  2982   286   287   ar
  2983  2469  2470    1
  2984  2469  2471    1
  2985  2610  2611   ar
  2986  2610  2616   ar
  2987  2221  2226   ar
  2988  2437  2436   ar
  2989  2619  2637    2
  2990  2619  2638    1
  2991  2619  2603    1
  2992  2452  2457    1
  2993  2611  2614   ar
  2994  2225  2228   ar
  2995  2225  2226   ar
  2996  2251  2233    2
  2997  2456  2455    1
  2998   265   266   ar
  2999   260   259   ar
  3000   260   266   ar
  3001   288   287   ar
  3002   288   278    1
  3003  2233  2252    1
  3004  2233  2235    1
  3005  2605  2604    1
  3006  2445  2439   ar
  3007  2445  2444   ar
  3008  2509  2488    2
  3009  2439  2440   ar
  3010   237   236    1
  3011  2604  2602    1
  3012  2604  2606    1
  3013  2189  2210    2
  3014  2189  2209    1
  3015  2226  2227    1
  3016   213   227    1
  3017  2455  2457    1
  3018   439   418    1
  3019  2427  2428    1
  3020   418   440    1
  3021   292   293    1
  3022   227   229    1
  3023   227   245    1
  3024   278   276    1
  3025   278   273    1
  3026  2436  2441   ar
  3027  2603  2602    1
  3028   266   256    1
  3029  2616  2606    1
  3030  2616  2615   ar
  3031  2457  2458    1
  3032   276   277    1
  3033   276   274    1
  3034  2471  2473    1
  3035  2471  2472    1
  3036  2614  2615   ar
  3037  2474  2488    1
  3038  2474  2473    1
  3039   293   291    1
  3040  2235  2234    1
  3041  2234  2236    1
  3042  2602  2600    1
  3043  2510  2488    1
  3044  2488  2490    1
  3045  2606  2601    1
  3046  2415  2414    1
  3047  2444  2443   ar
  3048  2440  2441   ar
  3049  2440  2443   ar
  3050   229   228    1
  3051  2441  2442    1
  3052  2473  2475    1
  3053   236   231    1
  3054   236   234    1
  3055  2428  2426    1
  3056   231   230    1
  3057  2237  2236    1
  3058  2237  2242    1
  3059  2472  2477    1
  3060  2592  2591    1
  3061  2465  2458   ar
  3062  2465  2464   ar
  3063   273   272    1
  3064  2458  2459   ar
  3065  2411  2410    1
  3066  2249  2250   ar
  3067  2249  2247   ar
  3068  2236  2238    1
  3069  2414  2416   ar
  3070  2414  2413   ar
  3071  2250  2243   ar
  3072   274   275    1
  3073   274   272    1
  3074   256   251    1
  3075   256   254    1
  3076  2601  2600    1
  3077  2600  2598    1
  3078  2416  2417   ar
  3079   234   232    1
  3080   234   235    1
  3081   291   312    2
  3082   291   275    1
  3083   291   311    1
  3084  2490  2489    1
  3085   228   230    1
  3086   268   247    2
  3087  2248  2247    1
  3088   232   230    1
  3089   232   233    1
  3090   251   250    1
  3091  2247  2246   ar
  3092  2413  2419   ar
  3093  2530  2511    2
  3094  2489  2491    1
  3095   254   252    1
  3096   254   255    1
  3097  2591  2590   ar
  3098  2591  2593   ar
  3099  2446  2426    2
  3100  2243  2242    1
  3101  2243  2244   ar
  3102  2475  2476    1
  3103  2475  2477    1
  3104   272   270    1
  3105  2410  2412    1
  3106  2410  2408    1
  3107  2242  2240    1
  3108  2464  2462   ar
  3109  2485  2484   ar
  3110  2485  2478   ar
  3111  2426  2409    1
  3112  2426  2447    1
  3113  2477  2478    1
  3114  2459  2460    2
  3115  2459  2461   ar
  3116  2590  2588   ar
  3117  2529  2511    1
  3118  2599  2598    1
  3119  2599  2597    1
  3120   249   247    1
  3121   249   248    1
  3122  2238  2239    1
  3123  2238  2240    1
  3124   252   250    1
  3125   252   253    1
  3126  2417  2423   ar
  3127  2417  2418   ar
  3128  2484  2482   ar
  3129  2246  2244   ar
  3130  2593  2594   ar
  3131   271   270    1
  3132   271   269    1
  3133  2409  2408    1
  3134  2244  2245    2
  3135  2511  2494    1
  3136  2511  2513    1
  3137  2478  2479   ar
  3138   290   269    2
  3139   247   233    1
  3140   247   267    1
  3141  2412  2423    1
  3142  2412  2407    1
  3143  2419  2418   ar
  3144  2419  2420    2
  3145   250   248    1
  3146  2571  2570    2
  3147  2618  2597    2
  3148  2408  2406    1
  3149  2239  2253    1
  3150  2423  2422   ar
  3151  2372  2371    1
  3152  2240  2241    1
  3153  2494  2493    1
  3154  2588  2589    2
  3155  2588  2587   ar
  3156  2462  2461   ar
  3157  2462  2463    1
  3158  2491  2493    1
  3159  2491  2492    1
  3160  2418  2421   ar
  3161   269   253    1
  3162   269   289    1
  3163  2594  2587   ar
  3164  2493  2495    1
  3165  2597  2617    1
  3166  2597  2583    1
  3167  2272  2253    2
  3168  2398  2397    1
  3169  2587  2586    1
  3170  2482  2483    2
  3171  2482  2481   ar
  3172  2570  2564   ar
  3173  2570  2569   ar
  3174  2407  2406    1
  3175  2507  2506   ar
  3176  2507  2508   ar
  3177  2406  2404    1
  3178  2513  2512    1
  3179  2479  2481   ar
  3180  2479  2480    2
  3181  2564  2565   ar
  3182  2492  2497    1
  3183  2422  2421   ar
  3184  2253  2271    1
  3185  2253  2255    1
  3186  2506  2503   ar
  3187  2396  2397   ar
  3188  2396  2394   ar
  3189  2584  2582    1
  3190  2584  2586    1
  3191  2584  2585    1
  3192  2268  2267    1
  3193  2371  2373   ar
  3194  2371  2370   ar
  3195  2349  2348    1
  3196  2397  2399   ar
  3197  2269  2267   ar
  3198  2269  2270   ar
  3199  2527  2525   ar
  3200  2527  2528   ar
  3201  2526  2525    2
  3202  2582  2583    1
  3203  2582  2580    1
  3204  2553  2531    2
  3205  2548  2547    2
  3206  2586  2581    1
  3207  2395  2394    2
  3208  2373  2374   ar
  3209  2495  2497    1
  3210  2495  2496    1
  3211  2566  2565    1
  3212  2512  2514    1
  3213  2508  2497    1
  3214  2508  2502   ar
  3215  2370  2376   ar
  3216  2569  2572   ar
  3217  2569  2568   ar
  3218  2267  2266   ar
  3219  2565  2567   ar
  3220  2394  2393   ar
  3221  2525  2524   ar
  3222  2528  2521   ar
  3223  2572  2573   ar
  3224  2270  2263   ar
  3225  2404  2405    1
  3226  2255  2254    1
  3227  2503  2502   ar
  3228  2503  2504   ar
  3229  2348  2347   ar
  3230  2348  2350   ar
  3231  2399  2400   ar
  3232  2347  2353   ar
  3233  2581  2580    1
  3234  2547  2546   ar
  3235  2547  2541   ar
  3236  2405  2403    1
  3237  2549  2546   ar
  3238  2549  2550   ar
  3239  2368  2367    1
  3240  2505  2504    2
  3241  2531  2552    1
  3242  2531  2517    1
  3243  2531  2533    1
  3244  2568  2567   ar
  3245  2568  2574   ar
  3246  2502  2501   ar
  3247  2580  2578    1
  3248  2266  2264   ar
  3249  2596  2577    2
  3250  2254  2256    1
  3251  2289  2288    1
  3252  2374  2375   ar
  3253  2374  2380   ar
  3254  2393  2400   ar
  3255  2393  2392    1
  3256  2579  2578    1
  3257  2579  2577    1
  3258  2514  2516    1
  3259  2514  2515    1
  3260  2516  2517    1
  3261  2516  2518    1
  3262  2504  2498   ar
  3263  2376  2377    2
  3264  2376  2375   ar
  3265  2263  2264   ar
  3266  2263  2262    1
  3267  2546  2545   ar
  3268  2573  2574   ar
  3269  2257  2256    1
  3270  2257  2262    1
  3271  2576  2554    2
  3272  2524  2522   ar
  3273  2350  2351   ar
  3274  2521  2522   ar
  3275  2521  2520    1
  3276  2515  2520    1
  3277  2541  2542   ar
  3278  2369  2367    1
  3279  2369  2380    1
  3280  2369  2364    1
  3281  2390  2391    1
  3282  2390  2392    1
  3283  2390  2388    1
  3284  2264  2265    2
  3285  2354  2353    2
  3286  2353  2352   ar
  3287  2550  2551   ar
  3288  2574  2563    1
  3289  2367  2365    1
  3290  2375  2378   ar
  3291  2577  2595    1
  3292  2577  2560    1
  3293  2380  2379   ar
  3294  2533  2532    1
  3295  2325  2326   ar
  3296  2325  2330   ar
  3297  2256  2258    1
  3298  2392  2387    1
  3299  2262  2260    1
  3300  2522  2523    2
  3301  2501  2499   ar
  3302  2288  2283   ar
  3303  2288  2287   ar
  3304  2520  2518    1
  3305  2331  2330    1
  3306  2403  2425    2
  3307  2403  2424    1
  3308  2403  2389    1
  3309  2518  2519    1
  3310  2498  2499   ar
  3311  2326  2327   ar
  3312  2364  2363    1
  3313  2388  2389    1
  3314  2388  2386    1
  3315  2351  2352   ar
  3316  2351  2357   ar
  3317  2545  2551   ar
  3318  2545  2544   ar
  3319  2283  2284   ar
  3320  2561  2559    1
  3321  2561  2563    1
  3322  2561  2562    1
  3323  2554  2556    1
  3324  2554  2575    1
  3325  2554  2537    1
  3326  2352  2355   ar
  3327  2330  2329   ar
  3328  2290  2287   ar
  3329  2290  2291   ar
  3330  2559  2560    1
  3331  2559  2557    1
  3332  2542  2544   ar
  3333  2542  2543    1
  3334  2258  2260    1
  3335  2258  2259    1
  3336  2551  2540    1
  3337  2556  2555    1
  3338  2499  2500    1
  3339  2287  2286   ar
  3340  2310  2309    1
  3341  2563  2558    1
  3342  2378  2379   ar
  3343  2363  2365    1
  3344  2363  2361    1
  3345  2365  2366    1
  3346  2532  2534    1
  3347  2387  2386    1
  3348  2260  2261    1
  3349  2536  2537    1
  3350  2536  2534    1
  3351  2536  2538    1
  3352  2366  2383    1
  3353  2294  2273    2
  3354  2327  2328   ar
  3355  2357  2346    1
  3356  2357  2356   ar
  3357  2386  2384    1
  3358  2284  2285   ar
  3359  2558  2557    1
  3360  2291  2292   ar
  3361  2385  2383    1
  3362  2385  2384    1
  3363  2259  2273    1
  3364  2345  2344    1
  3365  2557  2555    1
  3366  2534  2535    1
  3367  2346  2344    1
  3368  2346  2341    1
  3369  2540  2538    1
  3370  2540  2535    1
  3371  2355  2356   ar
  3372  2329  2328   ar
  3373  2329  2332   ar
  3374  2538  2539    1
  3375  2309  2308   ar
  3376  2309  2311   ar
  3377  2286  2285   ar
  3378  2286  2292   ar
  3379  2308  2306   ar
  3380  2344  2342    1
  3381  2328  2334   ar
  3382  2361  2362    1
  3383  2383  2401    2
  3384  2383  2402    1
  3385  2273  2275    1
  3386  2273  2293    1
  3387  2292  2282    1
  3388  2332  2333   ar
  3389  2311  2312   ar
  3390  2341  2340    1
  3391  2275  2274    1
  3392  2362  2360    1
  3393  2306  2307    2
  3394  2306  2305   ar
  3395  2334  2333   ar
  3396  2334  2324    1
  3397  2342  2340    1
  3398  2342  2343    1
  3399  2277  2282    1
  3400  2277  2276    1
  3401  2282  2280    1
  3402  2340  2338    1
  3403  2312  2305   ar
  3404  2343  2360    1
  3405  2305  2304    1
  3406  2274  2276    1
  3407  2324  2322    1
  3408  2324  2319    1
  3409  2360  2381    2
  3410  2360  2382    1
  3411  2276  2278    1
  3412  2322  2323    1
  3413  2322  2320    1
  3414  2280  2278    1
  3415  2280  2281    1
  3416  2278  2279    1
  3417  2338  2339    1
  3418  2304  2299    1
  3419  2304  2302    1
  3420  2314  2295    2
  3421  2319  2318    1
  3422  2339  2337    1
  3423  2320  2318    1
  3424  2320  2321    1
  3425  2299  2298    1
  3426  2302  2300    1
  3427  2302  2303    1
  3428  2279  2295    1
  3429  2295  2297    1
  3430  2295  2313    1
  3431  2297  2296    1
  3432  2318  2316    1
  3433  2359  2337    2
  3434  2337  2321    1
  3435  2337  2358    1
  3436  2300  2298    1
  3437  2300  2301    1
  3438  2317  2316    1
  3439  2317  2315    1
  3440  2298  2296    1
  3441  2336  2315    2
  3442  2315  2301    1
  3443  2315  2335    1
