ligand
  PyMOL2.2          3D                             0

 16 16  0  0  0  0  0  0  0  0999 V2000
   52.1220   11.7700   15.1920 P   0  0  0  0  0  0  0  0  0  0  0  0
   52.4990   13.1950   15.0230 O   0  0  0  0  0  0  0  0  0  0  0  0
   53.1400   11.0630   16.2180 O   0  5  0  0  0  0  0  0  0  0  0  0
   52.2210   11.0280   13.7640 O   0  0  0  0  0  0  0  0  0  0  0  0
   46.7880   10.6660   17.2720 C   0  0  0  0  0  0  0  0  0  0  0  0
   46.1920    9.4300   16.8610 O   0  0  0  0  0  0  0  0  0  0  0  0
   46.1060   11.8650   16.5640 C   0  0  0  0  0  0  0  0  0  0  0  0
   44.6640   11.8740   16.8760 N   0  0  0  0  0  0  0  0  0  0  0  0
   46.3150   11.7220   15.0470 C   0  0  0  0  0  0  0  0  0  0  0  0
   45.7130   12.8230   14.3610 O   0  0  0  0  0  0  0  0  0  0  0  0
   47.8190   11.7150   14.7790 C   0  0  0  0  0  0  0  0  0  0  0  0
   48.0350   11.5810   13.3800 O   0  0  0  0  0  0  0  0  0  0  0  0
   48.4550   10.5160   15.5340 C   0  0  0  0  0  0  0  0  0  0  0  0
   48.2170   10.6370   16.9700 O   0  0  0  0  0  0  0  0  0  0  0  0
   49.9850   10.4710   15.2980 C   0  0  0  0  0  0  0  0  0  0  0  0
   50.6110   11.6780   15.7700 O   0  0  0  0  0  0  0  0  0  0  0  0
  1  2  1  0  0  0  0
  1  3  1  0  0  0  0
  1  4  2  0  0  0  0
  5  6  1  0  0  0  0
  5  7  1  0  0  0  0
  5 14  1  0  0  0  0
  7  8  1  0  0  0  0
  7  9  1  0  0  0  0
  9 10  1  0  0  0  0
  9 11  1  0  0  0  0
 11 12  1  0  0  0  0
 11 13  1  0  0  0  0
 13 14  1  0  0  0  0
 13 15  1  0  0  0  0
 15 16  1  0  0  0  0
  1 16  1  0  0  0  0
M  END
$$$$
