ligand
 OpenBabel11021811463D
libRbt.so/2013.1/901 2013/11/27
 16 16  0  0  0  0  0  0  0  0999 V2000
   52.0149   11.7328   15.2767 P   0  0  2  0  0  0  0  0  0  0  0  0
   52.7206   12.9686   15.6963 O   0  0  0  0  0  0  0  0  0  0  0  0
   52.6983   10.4582   15.9819 O   0  5  0  0  0  0  0  0  0  0  0  0
   52.1406   11.5740   13.6772 O   0  0  0  0  0  0  0  0  0  0  0  0
   46.7803   10.8620   17.6068 C   0  0  2  0  0  0  0  0  0  0  0  0
   46.1232    9.6411   17.2472 O   0  0  0  0  0  0  0  0  0  0  0  0
   46.0610   12.0791   16.9702 C   0  0  2  0  0  0  0  0  0  0  0  0
   44.6545   12.1155   17.4143 N   0  0  0  0  0  0  0  0  0  0  0  0
   46.1260   11.9415   15.4398 C   0  0  1  0  0  0  0  0  0  0  0  0
   45.4863   13.0589   14.8173 O   0  0  0  0  0  0  0  0  0  0  0  0
   47.5983   11.9056   15.0338 C   0  0  2  0  0  0  0  0  0  0  0  0
   47.6813   11.7761   13.6203 O   0  0  0  0  0  0  0  0  0  0  0  0
   48.2762   10.6892   15.7215 C   0  0  2  0  0  0  0  0  0  0  0  0
   48.1744   10.8059   17.1739 O   0  0  0  0  0  0  0  0  0  0  0  0
   49.7766   10.6145   15.3448 C   0  0  0  0  0  0  0  0  0  0  0  0
   50.4570   11.8286   15.7117 O   0  0  0  0  0  0  0  0  0  0  0  0
  1  2  1  1  0  0  0
  1  3  1  0  0  0  0
  1  4  2  0  0  0  0
  1 16  1  0  0  0  0
  5  6  1  6  0  0  0
  5  7  1  0  0  0  0
  5 14  1  0  0  0  0
  7  8  1  1  0  0  0
  7  9  1  0  0  0  0
  9 10  1  6  0  0  0
  9 11  1  0  0  0  0
 11 12  1  6  0  0  0
 11 13  1  0  0  0  0
 13 14  1  0  0  0  0
 13 15  1  1  0  0  0
 15 16  1  0  0  0  0
M  CHG  1   3  -1
M  END
>  <CHROM.1>
57.73265836,-178.78763727,-178.19426074,48.86856431,11.51942533,15.73455613
-0.16743895,-0.09897571,2.13687793

>  <Name>
ligand

>  <RI>
0

>  <Rbt.Current_Directory>
/home/itssahil/PROJECTS/Mol_Feturizer/New_Systems/rnas/3B4C

>  <Rbt.Executable>
rbdock ($Id: //depot/dev/client3/rdock/2013.1/src/exe/rbdock.cxx#4 $)

>  <Rbt.Library>
libRbt.so (2013.1, Build901 2013/11/27)

>  <Rbt.Parameter_File>
/export/apps/rDock/src/rDock_2013.1_src/data/scripts/dock_solv.prm

>  <Rbt.Receptor>
prm/pocket_docking_2.prm

>  <SCORE>
-12.107

>  <SCORE.INTER>
-10.6129

>  <SCORE.INTER.CONST>
1

>  <SCORE.INTER.POLAR>
-1.29867

>  <SCORE.INTER.ROT>
3

>  <SCORE.INTER.SOLV>
17.8865

>  <SCORE.INTER.VDW>
-14.3086

>  <SCORE.INTER.norm>
-0.663309

>  <SCORE.INTRA>
-1.49403

>  <SCORE.INTRA.DIHEDRAL>
-2.09831

>  <SCORE.INTRA.DIHEDRAL.0>
2.1318

>  <SCORE.INTRA.POLAR>
0

>  <SCORE.INTRA.POLAR.0>
0

>  <SCORE.INTRA.REPUL>
0

>  <SCORE.INTRA.REPUL.0>
0

>  <SCORE.INTRA.SOLV>
-0.171443

>  <SCORE.INTRA.SOLV.lig_0>
-58.6125

>  <SCORE.INTRA.VDW>
-0.359152

>  <SCORE.INTRA.VDW.0>
-0.432734

>  <SCORE.INTRA.norm>
-0.0933768

>  <SCORE.RESTR>
0

>  <SCORE.RESTR.CAVITY>
0

>  <SCORE.RESTR.norm>
0

>  <SCORE.SYSTEM>
0

>  <SCORE.SYSTEM.CONST>
0

>  <SCORE.SYSTEM.DIHEDRAL>
0

>  <SCORE.SYSTEM.SOLV>
0

>  <SCORE.SYSTEM.norm>
0

>  <SCORE.heavy>
16

>  <SCORE.norm>
-0.756685

>  <RMSD>
0.476

$$$$
ligand
 OpenBabel11021811463D
libRbt.so/2013.1/901 2013/11/27
 16 16  0  0  0  0  0  0  0  0999 V2000
   52.0371   11.7608   15.3967 P   0  0  2  0  0  0  0  0  0  0  0  0
   52.7355   12.9505   15.9429 O   0  0  0  0  0  0  0  0  0  0  0  0
   52.6768   10.4258   16.0271 O   0  5  0  0  0  0  0  0  0  0  0  0
   52.2312   11.7271   13.7964 O   0  0  0  0  0  0  0  0  0  0  0  0
   46.7561   10.7837   17.5493 C   0  0  2  0  0  0  0  0  0  0  0  0
   46.1192    9.5686   17.1373 O   0  0  0  0  0  0  0  0  0  0  0  0
   46.0377   12.0136   16.9368 C   0  0  2  0  0  0  0  0  0  0  0  0
   44.6219   12.0222   17.3521 N   0  0  0  0  0  0  0  0  0  0  0  0
   46.1357   11.9257   15.4044 C   0  0  1  0  0  0  0  0  0  0  0  0
   45.4976   13.0562   14.8045 O   0  0  0  0  0  0  0  0  0  0  0  0
   47.6164   11.9169   15.0286 C   0  0  2  0  0  0  0  0  0  0  0  0
   47.7300   11.8335   13.6137 O   0  0  0  0  0  0  0  0  0  0  0  0
   48.2924   10.6856   15.6912 C   0  0  2  0  0  0  0  0  0  0  0  0
   48.1594   10.7548   17.1441 O   0  0  0  0  0  0  0  0  0  0  0  0
   49.8009   10.6375   15.3440 C   0  0  0  0  0  0  0  0  0  0  0  0
   50.4626   11.8423   15.7706 O   0  0  0  0  0  0  0  0  0  0  0  0
  1  2  1  1  0  0  0
  1  3  1  0  0  0  0
  1  4  2  0  0  0  0
  1 16  1  0  0  0  0
  5  6  1  6  0  0  0
  5  7  1  0  0  0  0
  5 14  1  0  0  0  0
  7  8  1  6  0  0  0
  7  9  1  0  0  0  0
  9 10  1  6  0  0  0
  9 11  1  0  0  0  0
 11 12  1  6  0  0  0
 11 13  1  0  0  0  0
 13 14  1  0  0  0  0
 13 15  1  1  0  0  0
 15 16  1  0  0  0  0
M  CHG  1   3  -1
M  END
>  <CHROM.1>
58.07577862,179.89306700,-175.10090352,48.87894863,11.51413531,15.75716862
-0.14788787,-0.07756801,2.16722248

>  <Name>
ligand

>  <RI>
0

>  <Rbt.Current_Directory>
/home/itssahil/PROJECTS/Mol_Feturizer/New_Systems/rnas/3B4C

>  <Rbt.Executable>
rbdock ($Id: //depot/dev/client3/rdock/2013.1/src/exe/rbdock.cxx#4 $)

>  <Rbt.Library>
libRbt.so (2013.1, Build901 2013/11/27)

>  <Rbt.Parameter_File>
/export/apps/rDock/src/rDock_2013.1_src/data/scripts/dock_solv.prm

>  <Rbt.Receptor>
prm/pocket_docking_5.prm

>  <SCORE>
-12.0849

>  <SCORE.INTER>
-10.6181

>  <SCORE.INTER.CONST>
1

>  <SCORE.INTER.POLAR>
-1.29881

>  <SCORE.INTER.ROT>
3

>  <SCORE.INTER.SOLV>
17.7698

>  <SCORE.INTER.VDW>
-14.2726

>  <SCORE.INTER.norm>
-0.663633

>  <SCORE.INTRA>
-1.46682

>  <SCORE.INTRA.DIHEDRAL>
-2.07578

>  <SCORE.INTRA.DIHEDRAL.0>
2.1318

>  <SCORE.INTRA.POLAR>
0

>  <SCORE.INTRA.POLAR.0>
0

>  <SCORE.INTRA.REPUL>
0

>  <SCORE.INTRA.REPUL.0>
0

>  <SCORE.INTRA.SOLV>
-0.173341

>  <SCORE.INTRA.SOLV.lig_0>
-58.6125

>  <SCORE.INTRA.VDW>
-0.342259

>  <SCORE.INTRA.VDW.0>
-0.432734

>  <SCORE.INTRA.norm>
-0.0916762

>  <SCORE.RESTR>
0

>  <SCORE.RESTR.CAVITY>
0

>  <SCORE.RESTR.norm>
0

>  <SCORE.SYSTEM>
0

>  <SCORE.SYSTEM.CONST>
0

>  <SCORE.SYSTEM.DIHEDRAL>
0

>  <SCORE.SYSTEM.SOLV>
0

>  <SCORE.SYSTEM.norm>
0

>  <SCORE.heavy>
16

>  <SCORE.norm>
-0.755309

>  <RMSD>
0.491

$$$$
ligand
 OpenBabel11021811463D
libRbt.so/2013.1/901 2013/11/27
 16 16  0  0  0  0  0  0  0  0999 V2000
   51.9559   11.7141   15.3580 P   0  0  2  0  0  0  0  0  0  0  0  0
   52.6684   12.9163   15.8565 O   0  0  0  0  0  0  0  0  0  0  0  0
   52.5975   10.3959   16.0211 O   0  5  0  0  0  0  0  0  0  0  0  0
   52.1268   11.6290   13.7571 O   0  0  0  0  0  0  0  0  0  0  0  0
   46.6423   10.8744   17.5224 C   0  0  2  0  0  0  0  0  0  0  0  0
   45.9885    9.6589   17.1390 O   0  0  0  0  0  0  0  0  0  0  0  0
   45.9540   12.0978   16.8639 C   0  0  2  0  0  0  0  0  0  0  0  0
   44.5336   12.1442   17.2605 N   0  0  0  0  0  0  0  0  0  0  0  0
   46.0693   11.9617   15.3363 C   0  0  1  0  0  0  0  0  0  0  0  0
   45.4593   13.0847   14.6944 O   0  0  0  0  0  0  0  0  0  0  0  0
   47.5541   11.9152   14.9800 C   0  0  2  0  0  0  0  0  0  0  0  0
   47.6836   11.7870   13.5698 O   0  0  0  0  0  0  0  0  0  0  0  0
   48.1993   10.6927   15.6880 C   0  0  2  0  0  0  0  0  0  0  0  0
   48.0497   10.8083   17.1364 O   0  0  0  0  0  0  0  0  0  0  0  0
   49.7109   10.6072   15.3619 C   0  0  0  0  0  0  0  0  0  0  0  0
   50.3874   11.8164   15.7515 O   0  0  0  0  0  0  0  0  0  0  0  0
  1  2  1  1  0  0  0
  1  3  1  0  0  0  0
  1  4  2  0  0  0  0
  1 16  1  0  0  0  0
  5  6  1  6  0  0  0
  5  7  1  0  0  0  0
  5 14  1  0  0  0  0
  7  8  1  6  0  0  0
  7  9  1  0  0  0  0
  9 10  1  6  0  0  0
  9 11  1  0  0  0  0
 11 12  1  6  0  0  0
 11 13  1  0  0  0  0
 13 14  1  0  0  0  0
 13 15  1  1  0  0  0
 15 16  1  0  0  0  0
M  CHG  1   3  -1
M  END
>  <CHROM.1>
57.65091486,-178.32785826,-175.60112880,48.79608349,11.52070853,15.71725144
-0.13759820,-0.08803922,2.14387072

>  <Name>
ligand

>  <RI>
0

>  <Rbt.Current_Directory>
/home/itssahil/PROJECTS/Mol_Feturizer/New_Systems/rnas/3B4C

>  <Rbt.Executable>
rbdock ($Id: //depot/dev/client3/rdock/2013.1/src/exe/rbdock.cxx#4 $)

>  <Rbt.Library>
libRbt.so (2013.1, Build901 2013/11/27)

>  <Rbt.Parameter_File>
/export/apps/rDock/src/rDock_2013.1_src/data/scripts/dock_solv.prm

>  <Rbt.Receptor>
prm/pocket_docking_5.prm

>  <SCORE>
-12.0967

>  <SCORE.INTER>
-10.6315

>  <SCORE.INTER.CONST>
1

>  <SCORE.INTER.POLAR>
-1.29904

>  <SCORE.INTER.ROT>
3

>  <SCORE.INTER.SOLV>
17.4356

>  <SCORE.INTER.VDW>
-14.1694

>  <SCORE.INTER.norm>
-0.66447

>  <SCORE.INTRA>
-1.46522

>  <SCORE.INTRA.DIHEDRAL>
-2.06335

>  <SCORE.INTRA.DIHEDRAL.0>
2.1318

>  <SCORE.INTRA.POLAR>
0

>  <SCORE.INTRA.POLAR.0>
0

>  <SCORE.INTRA.REPUL>
0

>  <SCORE.INTRA.REPUL.0>
0

>  <SCORE.INTRA.SOLV>
-0.171802

>  <SCORE.INTRA.SOLV.lig_0>
-58.6125

>  <SCORE.INTRA.VDW>
-0.347637

>  <SCORE.INTRA.VDW.0>
-0.432734

>  <SCORE.INTRA.norm>
-0.091576

>  <SCORE.RESTR>
0

>  <SCORE.RESTR.CAVITY>
0

>  <SCORE.RESTR.norm>
0

>  <SCORE.SYSTEM>
0

>  <SCORE.SYSTEM.CONST>
0

>  <SCORE.SYSTEM.DIHEDRAL>
0

>  <SCORE.SYSTEM.SOLV>
0

>  <SCORE.SYSTEM.norm>
0

>  <SCORE.heavy>
16

>  <SCORE.norm>
-0.756046

>  <RMSD>
0.493

$$$$
ligand
 OpenBabel11021811463D
libRbt.so/2013.1/901 2013/11/27
 16 16  0  0  0  0  0  0  0  0999 V2000
   52.0723   11.7476   15.3519 P   0  0  2  0  0  0  0  0  0  0  0  0
   52.7253   12.9826   15.8516 O   0  0  0  0  0  0  0  0  0  0  0  0
   52.7718   10.4619   16.0202 O   0  5  0  0  0  0  0  0  0  0  0  0
   52.2542   11.6681   13.7519 O   0  0  0  0  0  0  0  0  0  0  0  0
   46.8904   10.7842   17.6979 C   0  0  2  0  0  0  0  0  0  0  0  0
   46.3451    9.4724   17.5145 O   0  0  0  0  0  0  0  0  0  0  0  0
   46.0718   11.8337   16.9027 C   0  0  2  0  0  0  0  0  0  0  0  0
   44.6645   11.8079   17.3450 N   0  0  0  0  0  0  0  0  0  0  0  0
   46.1589   11.4916   15.4058 C   0  0  1  0  0  0  0  0  0  0  0  0
   45.4282   12.4516   14.6379 O   0  0  0  0  0  0  0  0  0  0  0  0
   47.6315   11.5289   15.0007 C   0  0  2  0  0  0  0  0  0  0  0  0
   47.7351   11.2126   13.6183 O   0  0  0  0  0  0  0  0  0  0  0  0
   48.4085   10.4834   15.8466 C   0  0  2  0  0  0  0  0  0  0  0  0
   48.2870   10.7909   17.2694 O   0  0  0  0  0  0  0  0  0  0  0  0
   49.9122   10.4890   15.4758 C   0  0  0  0  0  0  0  0  0  0  0  0
   50.4989   11.7768   15.7382 O   0  0  0  0  0  0  0  0  0  0  0  0
  1  2  1  1  0  0  0
  1  3  1  0  0  0  0
  1  4  2  0  0  0  0
  1 16  1  0  0  0  0
  5  6  1  6  0  0  0
  5  7  1  0  0  0  0
  5 14  1  0  0  0  0
  7  8  1  1  0  0  0
  7  9  1  0  0  0  0
  9 10  1  6  0  0  0
  9 11  1  0  0  0  0
 11 12  1  6  0  0  0
 11 13  1  0  0  0  0
 13 14  1  0  0  0  0
 13 15  1  6  0  0  0
 15 16  1  0  0  0  0
M  CHG  1   3  -1
M  END
>  <CHROM.1>
60.96668498,179.55318103,-169.67204273,48.93600021,11.34501225,15.78168367
-0.18759281,-0.01708220,1.98893783

>  <Name>
ligand

>  <RI>
0

>  <Rbt.Current_Directory>
/home/itssahil/PROJECTS/Mol_Feturizer/New_Systems/rnas/3B4C

>  <Rbt.Executable>
rbdock ($Id: //depot/dev/client3/rdock/2013.1/src/exe/rbdock.cxx#4 $)

>  <Rbt.Library>
libRbt.so (2013.1, Build901 2013/11/27)

>  <Rbt.Parameter_File>
/export/apps/rDock/src/rDock_2013.1_src/data/scripts/dock_solv.prm

>  <Rbt.Receptor>
prm/pocket_docking_2.prm

>  <SCORE>
-11.9793

>  <SCORE.INTER>
-10.6148

>  <SCORE.INTER.CONST>
1

>  <SCORE.INTER.POLAR>
-1.29896

>  <SCORE.INTER.ROT>
3

>  <SCORE.INTER.SOLV>
18.4454

>  <SCORE.INTER.VDW>
-14.4951

>  <SCORE.INTER.norm>
-0.663422

>  <SCORE.INTRA>
-1.36454

>  <SCORE.INTRA.DIHEDRAL>
-1.95046

>  <SCORE.INTRA.DIHEDRAL.0>
2.1318

>  <SCORE.INTRA.POLAR>
0

>  <SCORE.INTRA.POLAR.0>
0

>  <SCORE.INTRA.REPUL>
0

>  <SCORE.INTRA.REPUL.0>
0

>  <SCORE.INTRA.SOLV>
-0.180843

>  <SCORE.INTRA.SOLV.lig_0>
-58.6125

>  <SCORE.INTRA.VDW>
-0.298887

>  <SCORE.INTRA.VDW.0>
-0.432734

>  <SCORE.INTRA.norm>
-0.0852837

>  <SCORE.RESTR>
0

>  <SCORE.RESTR.CAVITY>
0

>  <SCORE.RESTR.norm>
0

>  <SCORE.SYSTEM>
0

>  <SCORE.SYSTEM.CONST>
0

>  <SCORE.SYSTEM.DIHEDRAL>
0

>  <SCORE.SYSTEM.SOLV>
0

>  <SCORE.SYSTEM.norm>
0

>  <SCORE.heavy>
16

>  <SCORE.norm>
-0.748706

>  <RMSD>
0.496

$$$$
ligand
 OpenBabel11021811463D
libRbt.so/2013.1/901 2013/11/27
 16 16  0  0  0  0  0  0  0  0999 V2000
   51.9728   11.8154   15.0186 P   0  0  2  0  0  0  0  0  0  0  0  0
   52.6370   13.0946   15.3702 O   0  0  0  0  0  0  0  0  0  0  0  0
   52.7549   10.5945   15.7163 O   0  5  0  0  0  0  0  0  0  0  0  0
   52.0221   11.6207   13.4189 O   0  0  0  0  0  0  0  0  0  0  0  0
   46.9502   10.8084   17.6810 C   0  0  2  0  0  0  0  0  0  0  0  0
   46.3592    9.5233   17.4552 O   0  0  0  0  0  0  0  0  0  0  0  0
   46.1054   11.9245   17.0140 C   0  0  2  0  0  0  0  0  0  0  0  0
   44.7324   11.9006   17.5537 N   0  0  0  0  0  0  0  0  0  0  0  0
   46.0782   11.6779   15.4962 C   0  0  1  0  0  0  0  0  0  0  0  0
   45.3208   12.7010   14.8445 O   0  0  0  0  0  0  0  0  0  0  0  0
   47.5192   11.7094   14.9897 C   0  0  2  0  0  0  0  0  0  0  0  0
   47.5172   11.4807   13.5863 O   0  0  0  0  0  0  0  0  0  0  0  0
   48.3261   10.5950   15.7103 C   0  0  2  0  0  0  0  0  0  0  0  0
   48.3129   10.8126   17.1546 O   0  0  0  0  0  0  0  0  0  0  0  0
   49.7997   10.5920   15.2337 C   0  0  0  0  0  0  0  0  0  0  0  0
   50.4369   11.8470   15.5342 O   0  0  0  0  0  0  0  0  0  0  0  0
  1  2  1  1  0  0  0
  1  3  1  0  0  0  0
  1  4  2  0  0  0  0
  1 16  1  0  0  0  0
  5  6  1  6  0  0  0
  5  7  1  0  0  0  0
  5 14  1  0  0  0  0
  7  8  1  1  0  0  0
  7  9  1  0  0  0  0
  9 10  1  6  0  0  0
  9 11  1  0  0  0  0
 11 12  1  6  0  0  0
 11 13  1  0  0  0  0
 13 14  1  0  0  0  0
 13 15  1  6  0  0  0
 15 16  1  0  0  0  0
M  CHG  1   3  -1
M  END
>  <CHROM.1>
60.99175332,-179.75678585,-178.18331448,48.86844802,11.44928530,15.65689425
-0.24401487,-0.06933398,2.04834535

>  <Name>
ligand

>  <RI>
0

>  <Rbt.Current_Directory>
/home/itssahil/PROJECTS/Mol_Feturizer/New_Systems/rnas/3B4C

>  <Rbt.Executable>
rbdock ($Id: //depot/dev/client3/rdock/2013.1/src/exe/rbdock.cxx#4 $)

>  <Rbt.Library>
libRbt.so (2013.1, Build901 2013/11/27)

>  <Rbt.Parameter_File>
/export/apps/rDock/src/rDock_2013.1_src/data/scripts/dock_solv.prm

>  <Rbt.Receptor>
prm/pocket_docking_4.prm

>  <SCORE>
-12.1422

>  <SCORE.INTER>
-10.6251

>  <SCORE.INTER.CONST>
1

>  <SCORE.INTER.POLAR>
-1.29904

>  <SCORE.INTER.ROT>
3

>  <SCORE.INTER.SOLV>
17.7276

>  <SCORE.INTER.VDW>
-14.2625

>  <SCORE.INTER.norm>
-0.664068

>  <SCORE.INTRA>
-1.51711

>  <SCORE.INTRA.DIHEDRAL>
-2.11913

>  <SCORE.INTRA.DIHEDRAL.0>
2.1318

>  <SCORE.INTRA.POLAR>
0

>  <SCORE.INTRA.POLAR.0>
0

>  <SCORE.INTRA.REPUL>
0

>  <SCORE.INTRA.REPUL.0>
0

>  <SCORE.INTRA.SOLV>
-0.173862

>  <SCORE.INTRA.SOLV.lig_0>
-58.6125

>  <SCORE.INTRA.VDW>
-0.370617

>  <SCORE.INTRA.VDW.0>
-0.432734

>  <SCORE.INTRA.norm>
-0.0948195

>  <SCORE.RESTR>
0

>  <SCORE.RESTR.CAVITY>
0

>  <SCORE.RESTR.norm>
0

>  <SCORE.SYSTEM>
0

>  <SCORE.SYSTEM.CONST>
0

>  <SCORE.SYSTEM.DIHEDRAL>
0

>  <SCORE.SYSTEM.SOLV>
0

>  <SCORE.SYSTEM.norm>
0

>  <SCORE.heavy>
16

>  <SCORE.norm>
-0.758888

>  <RMSD>
0.501

$$$$
ligand
 OpenBabel11021811463D
libRbt.so/2013.1/901 2013/11/27
 16 16  0  0  0  0  0  0  0  0999 V2000
   51.8205   11.7706   14.8961 P   0  0  2  0  0  0  0  0  0  0  0  0
   52.5055   13.0780   15.0472 O   0  0  0  0  0  0  0  0  0  0  0  0
   52.6998   10.6193   15.5963 O   0  5  0  0  0  0  0  0  0  0  0  0
   51.6739   11.4333   13.3263 O   0  0  0  0  0  0  0  0  0  0  0  0
   46.6114   10.9745   17.5842 C   0  0  2  0  0  0  0  0  0  0  0  0
   45.9356    9.7621   17.2301 O   0  0  0  0  0  0  0  0  0  0  0  0
   45.9613   12.1908   16.8758 C   0  0  2  0  0  0  0  0  0  0  0  0
   44.5366   12.2821   17.2483 N   0  0  0  0  0  0  0  0  0  0  0  0
   46.0962   12.0023   15.3553 C   0  0  1  0  0  0  0  0  0  0  0  0
   45.5219   13.1171   14.6680 O   0  0  0  0  0  0  0  0  0  0  0  0
   47.5848   11.9107   15.0240 C   0  0  2  0  0  0  0  0  0  0  0  0
   47.7323   11.7336   13.6209 O   0  0  0  0  0  0  0  0  0  0  0  0
   48.1910   10.6979   15.7813 C   0  0  2  0  0  0  0  0  0  0  0  0
   48.0225   10.8641   17.2226 O   0  0  0  0  0  0  0  0  0  0  0  0
   49.7050   10.5678   15.4818 C   0  0  0  0  0  0  0  0  0  0  0  0
   50.3601   11.8444   15.5943 O   0  0  0  0  0  0  0  0  0  0  0  0
  1  2  1  1  0  0  0
  1  3  1  0  0  0  0
  1  4  2  0  0  0  0
  1 16  1  0  0  0  0
  5  6  1  6  0  0  0
  5  7  1  0  0  0  0
  5 14  1  0  0  0  0
  7  8  1  6  0  0  0
  7  9  1  0  0  0  0
  9 10  1  6  0  0  0
  9 11  1  0  0  0  0
 11 12  1  6  0  0  0
 11 13  1  0  0  0  0
 13 14  1  0  0  0  0
 13 15  1  1  0  0  0
 15 16  1  0  0  0  0
M  CHG  1   3  -1
M  END
>  <CHROM.1>
46.47775211,-164.59200371,-178.48503353,48.74826599,11.56777768,15.57555004
0.21706162,0.14198136,-0.98156177

>  <Name>
ligand

>  <RI>
0

>  <Rbt.Current_Directory>
/home/itssahil/PROJECTS/Mol_Feturizer/New_Systems/rnas/3B4C

>  <Rbt.Executable>
rbdock ($Id: //depot/dev/client3/rdock/2013.1/src/exe/rbdock.cxx#4 $)

>  <Rbt.Library>
libRbt.so (2013.1, Build901 2013/11/27)

>  <Rbt.Parameter_File>
/export/apps/rDock/src/rDock_2013.1_src/data/scripts/dock_solv.prm

>  <Rbt.Receptor>
prm/pocket_docking_2.prm

>  <SCORE>
-11.0646

>  <SCORE.INTER>
-10.7505

>  <SCORE.INTER.CONST>
1

>  <SCORE.INTER.POLAR>
-1.29759

>  <SCORE.INTER.ROT>
3

>  <SCORE.INTER.SOLV>
16.1547

>  <SCORE.INTER.VDW>
-13.8266

>  <SCORE.INTER.norm>
-0.671903

>  <SCORE.INTRA>
-0.31414

>  <SCORE.INTRA.DIHEDRAL>
-0.385872

>  <SCORE.INTRA.DIHEDRAL.0>
2.1318

>  <SCORE.INTRA.POLAR>
0

>  <SCORE.INTRA.POLAR.0>
0

>  <SCORE.INTRA.REPUL>
0

>  <SCORE.INTRA.REPUL.0>
0

>  <SCORE.INTRA.SOLV>
0.381698

>  <SCORE.INTRA.SOLV.lig_0>
-58.6125

>  <SCORE.INTRA.VDW>
-0.312053

>  <SCORE.INTRA.VDW.0>
-0.432734

>  <SCORE.INTRA.norm>
-0.0196337

>  <SCORE.RESTR>
0

>  <SCORE.RESTR.CAVITY>
0

>  <SCORE.RESTR.norm>
0

>  <SCORE.SYSTEM>
0

>  <SCORE.SYSTEM.CONST>
0

>  <SCORE.SYSTEM.DIHEDRAL>
0

>  <SCORE.SYSTEM.SOLV>
0

>  <SCORE.SYSTEM.norm>
0

>  <SCORE.heavy>
16

>  <SCORE.norm>
-0.691537

>  <RMSD>
0.502

$$$$
ligand
 OpenBabel11021811463D
libRbt.so/2013.1/901 2013/11/27
 16 16  0  0  0  0  0  0  0  0999 V2000
   52.0305   11.8447   15.1305 P   0  0  2  0  0  0  0  0  0  0  0  0
   52.7194   13.0857   15.5624 O   0  0  0  0  0  0  0  0  0  0  0  0
   52.7598   10.5692   15.7865 O   0  5  0  0  0  0  0  0  0  0  0  0
   52.1182   11.7273   13.5248 O   0  0  0  0  0  0  0  0  0  0  0  0
   46.9262   10.7926   17.6509 C   0  0  2  0  0  0  0  0  0  0  0  0
   46.2977    9.5505   17.3134 O   0  0  0  0  0  0  0  0  0  0  0  0
   46.1380   11.9858   17.0517 C   0  0  2  0  0  0  0  0  0  0  0  0
   44.7514   11.9708   17.5555 N   0  0  0  0  0  0  0  0  0  0  0  0
   46.1423   11.8561   15.5192 C   0  0  1  0  0  0  0  0  0  0  0  0
   45.4376   12.9523   14.9302 O   0  0  0  0  0  0  0  0  0  0  0  0
   47.5962   11.8737   15.0507 C   0  0  2  0  0  0  0  0  0  0  0  0
   47.6232   11.7522   13.6343 O   0  0  0  0  0  0  0  0  0  0  0  0
   48.3453   10.6795   15.7026 C   0  0  2  0  0  0  0  0  0  0  0  0
   48.3016   10.7873   17.1586 O   0  0  0  0  0  0  0  0  0  0  0  0
   49.8299   10.6593   15.2620 C   0  0  0  0  0  0  0  0  0  0  0  0
   50.4826   11.8948   15.6070 O   0  0  0  0  0  0  0  0  0  0  0  0
  1  2  1  1  0  0  0
  1  3  1  0  0  0  0
  1  4  2  0  0  0  0
  1 16  1  0  0  0  0
  5  6  1  6  0  0  0
  5  7  1  0  0  0  0
  5 14  1  0  0  0  0
  7  8  1  1  0  0  0
  7  9  1  0  0  0  0
  9 10  1  6  0  0  0
  9 11  1  0  0  0  0
 11 12  1  6  0  0  0
 11 13  1  0  0  0  0
 13 14  1  0  0  0  0
 13 15  1  6  0  0  0
 15 16  1  0  0  0  0
M  CHG  1   3  -1
M  END
>  <CHROM.1>
57.79347423,-179.85067830,-176.54531075,48.91106315,11.52586126,15.70438033
-0.21741046,-0.09076944,2.13391643

>  <Name>
ligand

>  <RI>
0

>  <Rbt.Current_Directory>
/home/itssahil/PROJECTS/Mol_Feturizer/New_Systems/rnas/3B4C

>  <Rbt.Executable>
rbdock ($Id: //depot/dev/client3/rdock/2013.1/src/exe/rbdock.cxx#4 $)

>  <Rbt.Library>
libRbt.so (2013.1, Build901 2013/11/27)

>  <Rbt.Parameter_File>
/export/apps/rDock/src/rDock_2013.1_src/data/scripts/dock_solv.prm

>  <Rbt.Receptor>
prm/pocket_docking_3.prm

>  <SCORE>
-12.1483

>  <SCORE.INTER>
-10.6662

>  <SCORE.INTER.CONST>
1

>  <SCORE.INTER.POLAR>
-1.29904

>  <SCORE.INTER.ROT>
3

>  <SCORE.INTER.SOLV>
17.7787

>  <SCORE.INTER.VDW>
-14.3069

>  <SCORE.INTER.norm>
-0.666637

>  <SCORE.INTRA>
-1.48207

>  <SCORE.INTRA.DIHEDRAL>
-2.09171

>  <SCORE.INTRA.DIHEDRAL.0>
2.1318

>  <SCORE.INTRA.POLAR>
0

>  <SCORE.INTRA.POLAR.0>
0

>  <SCORE.INTRA.REPUL>
0

>  <SCORE.INTRA.REPUL.0>
0

>  <SCORE.INTRA.SOLV>
-0.17238

>  <SCORE.INTRA.SOLV.lig_0>
-58.6125

>  <SCORE.INTRA.VDW>
-0.350019

>  <SCORE.INTRA.VDW.0>
-0.432734

>  <SCORE.INTRA.norm>
-0.0926291

>  <SCORE.RESTR>
0

>  <SCORE.RESTR.CAVITY>
0

>  <SCORE.RESTR.norm>
0

>  <SCORE.SYSTEM>
0

>  <SCORE.SYSTEM.CONST>
0

>  <SCORE.SYSTEM.DIHEDRAL>
0

>  <SCORE.SYSTEM.SOLV>
0

>  <SCORE.SYSTEM.norm>
0

>  <SCORE.heavy>
16

>  <SCORE.norm>
-0.759266

>  <RMSD>
0.502

$$$$
ligand
 OpenBabel11021811463D
libRbt.so/2013.1/901 2013/11/27
 16 16  0  0  0  0  0  0  0  0999 V2000
   52.1242   11.7588   15.3635 P   0  0  2  0  0  0  0  0  0  0  0  0
   52.8126   12.9990   15.7987 O   0  0  0  0  0  0  0  0  0  0  0  0
   52.8482   10.4825   16.0238 O   0  5  0  0  0  0  0  0  0  0  0  0
   52.2202   11.6408   13.7584 O   0  0  0  0  0  0  0  0  0  0  0  0
   46.8788   10.7324   17.6289 C   0  0  2  0  0  0  0  0  0  0  0  0
   46.2185    9.5434   17.1792 O   0  0  0  0  0  0  0  0  0  0  0  0
   46.1702   11.9953   17.0748 C   0  0  2  0  0  0  0  0  0  0  0  0
   44.7606   12.0077   17.5104 N   0  0  0  0  0  0  0  0  0  0  0  0
   46.2458   11.9658   15.5390 C   0  0  1  0  0  0  0  0  0  0  0  0
   45.6162   13.1277   14.9925 O   0  0  0  0  0  0  0  0  0  0  0  0
   47.7210   11.9507   15.1419 C   0  0  2  0  0  0  0  0  0  0  0  0
   47.8139   11.9210   13.7234 O   0  0  0  0  0  0  0  0  0  0  0  0
   48.3878   10.6851   15.7466 C   0  0  2  0  0  0  0  0  0  0  0  0
   48.2758   10.6995   17.2029 O   0  0  0  0  0  0  0  0  0  0  0  0
   49.8906   10.6292   15.3763 C   0  0  0  0  0  0  0  0  0  0  0  0
   50.5739   11.8112   15.8318 O   0  0  0  0  0  0  0  0  0  0  0  0
  1  2  1  1  0  0  0
  1  3  1  0  0  0  0
  1  4  2  0  0  0  0
  1 16  1  0  0  0  0
  5  6  1  6  0  0  0
  5  7  1  0  0  0  0
  5 14  1  0  0  0  0
  7  8  1  6  0  0  0
  7  9  1  0  0  0  0
  9 10  1  6  0  0  0
  9 11  1  0  0  0  0
 11 12  1  6  0  0  0
 11 13  1  0  0  0  0
 13 14  1  0  0  0  0
 13 15  1  1  0  0  0
 15 16  1  0  0  0  0
M  CHG  1   3  -1
M  END
>  <CHROM.1>
57.68329818,-177.09207808,178.22713352,48.98021594,11.51702334,15.80797533
-0.16660457,-0.10084064,2.21138698

>  <Name>
ligand

>  <RI>
0

>  <Rbt.Current_Directory>
/home/itssahil/PROJECTS/Mol_Feturizer/New_Systems/rnas/3B4C

>  <Rbt.Executable>
rbdock ($Id: //depot/dev/client3/rdock/2013.1/src/exe/rbdock.cxx#4 $)

>  <Rbt.Library>
libRbt.so (2013.1, Build901 2013/11/27)

>  <Rbt.Parameter_File>
/export/apps/rDock/src/rDock_2013.1_src/data/scripts/dock_solv.prm

>  <Rbt.Receptor>
prm/pocket_docking_2.prm

>  <SCORE>
-12.1179

>  <SCORE.INTER>
-10.6345

>  <SCORE.INTER.CONST>
1

>  <SCORE.INTER.POLAR>
-1.29817

>  <SCORE.INTER.ROT>
3

>  <SCORE.INTER.SOLV>
18.432

>  <SCORE.INTER.VDW>
-14.5064

>  <SCORE.INTER.norm>
-0.664654

>  <SCORE.INTRA>
-1.48342

>  <SCORE.INTRA.DIHEDRAL>
-2.06436

>  <SCORE.INTRA.DIHEDRAL.0>
2.1318

>  <SCORE.INTRA.POLAR>
0

>  <SCORE.INTRA.POLAR.0>
0

>  <SCORE.INTRA.REPUL>
0

>  <SCORE.INTRA.REPUL.0>
0

>  <SCORE.INTRA.SOLV>
-0.167805

>  <SCORE.INTRA.SOLV.lig_0>
-58.6125

>  <SCORE.INTRA.VDW>
-0.367337

>  <SCORE.INTRA.VDW.0>
-0.432734

>  <SCORE.INTRA.norm>
-0.0927137

>  <SCORE.RESTR>
0

>  <SCORE.RESTR.CAVITY>
0

>  <SCORE.RESTR.norm>
0

>  <SCORE.SYSTEM>
0

>  <SCORE.SYSTEM.CONST>
0

>  <SCORE.SYSTEM.DIHEDRAL>
0

>  <SCORE.SYSTEM.SOLV>
0

>  <SCORE.SYSTEM.norm>
0

>  <SCORE.heavy>
16

>  <SCORE.norm>
-0.757367

>  <RMSD>
0.504

$$$$
ligand
 OpenBabel11021811463D
libRbt.so/2013.1/901 2013/11/27
 16 16  0  0  0  0  0  0  0  0999 V2000
   51.9774   11.8159   15.0231 P   0  0  2  0  0  0  0  0  0  0  0  0
   52.6328   13.1283   15.2457 O   0  0  0  0  0  0  0  0  0  0  0  0
   52.8836   10.6482   15.6589 O   0  5  0  0  0  0  0  0  0  0  0  0
   51.8363   11.5620   13.4372 O   0  0  0  0  0  0  0  0  0  0  0  0
   46.8083   10.7155   17.6769 C   0  0  2  0  0  0  0  0  0  0  0  0
   46.1308    9.5449   17.2053 O   0  0  0  0  0  0  0  0  0  0  0  0
   46.1410   11.9978   17.1160 C   0  0  2  0  0  0  0  0  0  0  0  0
   44.7230   12.0402   17.5211 N   0  0  0  0  0  0  0  0  0  0  0  0
   46.2494   11.9759   15.5820 C   0  0  1  0  0  0  0  0  0  0  0  0
   45.6587   13.1554   15.0298 O   0  0  0  0  0  0  0  0  0  0  0  0
   47.7321   11.9292   15.2168 C   0  0  2  0  0  0  0  0  0  0  0  0
   47.8551   11.9060   13.8005 O   0  0  0  0  0  0  0  0  0  0  0  0
   48.3564   10.6448   15.8275 C   0  0  2  0  0  0  0  0  0  0  0  0
   48.2131   10.6529   17.2810 O   0  0  0  0  0  0  0  0  0  0  0  0
   49.8651   10.5565   15.4893 C   0  0  0  0  0  0  0  0  0  0  0  0
   50.5167   11.8181   15.7245 O   0  0  0  0  0  0  0  0  0  0  0  0
  1  2  1  1  0  0  0
  1  3  1  0  0  0  0
  1  4  2  0  0  0  0
  1 16  1  0  0  0  0
  5  6  1  6  0  0  0
  5  7  1  0  0  0  0
  5 14  1  0  0  0  0
  7  8  1  6  0  0  0
  7  9  1  0  0  0  0
  9 10  1  6  0  0  0
  9 11  1  0  0  0  0
 11 12  1  6  0  0  0
 11 13  1  0  0  0  0
 13 14  1  0  0  0  0
 13 15  1  1  0  0  0
 15 16  1  0  0  0  0
M  CHG  1   3  -1
M  END
>  <CHROM.1>
46.31631891,-165.77508766,178.87116948,48.91127666,11.53050122,15.71632897
0.22932100,0.14676982,-0.87845064

>  <Name>
ligand

>  <RI>
0

>  <Rbt.Current_Directory>
/home/itssahil/PROJECTS/Mol_Feturizer/New_Systems/rnas/3B4C

>  <Rbt.Executable>
rbdock ($Id: //depot/dev/client3/rdock/2013.1/src/exe/rbdock.cxx#4 $)

>  <Rbt.Library>
libRbt.so (2013.1, Build901 2013/11/27)

>  <Rbt.Parameter_File>
/export/apps/rDock/src/rDock_2013.1_src/data/scripts/dock_solv.prm

>  <Rbt.Receptor>
prm/pocket_docking_2.prm

>  <SCORE>
-11.2353

>  <SCORE.INTER>
-10.8048

>  <SCORE.INTER.CONST>
1

>  <SCORE.INTER.POLAR>
-1.29904

>  <SCORE.INTER.ROT>
3

>  <SCORE.INTER.SOLV>
17.5789

>  <SCORE.INTER.VDW>
-14.3327

>  <SCORE.INTER.norm>
-0.675302

>  <SCORE.INTRA>
-0.430425

>  <SCORE.INTRA.DIHEDRAL>
-0.52994

>  <SCORE.INTRA.DIHEDRAL.0>
2.1318

>  <SCORE.INTRA.POLAR>
0

>  <SCORE.INTRA.POLAR.0>
0

>  <SCORE.INTRA.REPUL>
0

>  <SCORE.INTRA.REPUL.0>
0

>  <SCORE.INTRA.SOLV>
0.317325

>  <SCORE.INTRA.SOLV.lig_0>
-58.6125

>  <SCORE.INTRA.VDW>
-0.324118

>  <SCORE.INTRA.VDW.0>
-0.432734

>  <SCORE.INTRA.norm>
-0.0269016

>  <SCORE.RESTR>
0

>  <SCORE.RESTR.CAVITY>
0

>  <SCORE.RESTR.norm>
0

>  <SCORE.SYSTEM>
0

>  <SCORE.SYSTEM.CONST>
0

>  <SCORE.SYSTEM.DIHEDRAL>
0

>  <SCORE.SYSTEM.SOLV>
0

>  <SCORE.SYSTEM.norm>
0

>  <SCORE.heavy>
16

>  <SCORE.norm>
-0.702204

>  <RMSD>
0.504

$$$$
ligand
 OpenBabel11021811463D
libRbt.so/2013.1/901 2013/11/27
 16 16  0  0  0  0  0  0  0  0999 V2000
   51.9894   11.8415   15.1273 P   0  0  2  0  0  0  0  0  0  0  0  0
   52.6879   13.0849   15.5363 O   0  0  0  0  0  0  0  0  0  0  0  0
   52.7369   10.5694   15.7691 O   0  5  0  0  0  0  0  0  0  0  0  0
   52.0353   11.7179   13.5204 O   0  0  0  0  0  0  0  0  0  0  0  0
   46.8341   10.8297   17.5862 C   0  0  2  0  0  0  0  0  0  0  0  0
   46.1722    9.6219   17.1924 O   0  0  0  0  0  0  0  0  0  0  0  0
   46.0918   12.0694   17.0240 C   0  0  2  0  0  0  0  0  0  0  0  0
   44.6984   12.0788   17.5089 N   0  0  0  0  0  0  0  0  0  0  0  0
   46.1137   11.9989   15.4878 C   0  0  1  0  0  0  0  0  0  0  0  0
   45.4518   13.1388   14.9331 O   0  0  0  0  0  0  0  0  0  0  0  0
   47.5740   11.9887   15.0391 C   0  0  2  0  0  0  0  0  0  0  0  0
   47.6172   11.9213   13.6195 O   0  0  0  0  0  0  0  0  0  0  0  0
   48.2763   10.7472   15.6535 C   0  0  2  0  0  0  0  0  0  0  0  0
   48.2155   10.8000   17.1119 O   0  0  0  0  0  0  0  0  0  0  0  0
   49.7656   10.6972   15.2316 C   0  0  0  0  0  0  0  0  0  0  0  0
   50.4543   11.8919   15.6438 O   0  0  0  0  0  0  0  0  0  0  0  0
  1  2  1  1  0  0  0
  1  3  1  0  0  0  0
  1  4  2  0  0  0  0
  1 16  1  0  0  0  0
  5  6  1  6  0  0  0
  5  7  1  0  0  0  0
  5 14  1  0  0  0  0
  7  8  1  1  0  0  0
  7  9  1  0  0  0  0
  9 10  1  6  0  0  0
  9 11  1  0  0  0  0
 11 12  1  6  0  0  0
 11 13  1  0  0  0  0
 13 14  1  0  0  0  0
 13 15  1  1  0  0  0
 15 16  1  0  0  0  0
M  CHG  1   3  -1
M  END
>  <CHROM.1>
58.32465779,-177.31283119,179.09711292,48.86273621,11.58370565,15.67808851
-0.19845740,-0.11157702,2.17927407

>  <Name>
ligand

>  <RI>
0

>  <Rbt.Current_Directory>
/home/itssahil/PROJECTS/Mol_Feturizer/New_Systems/rnas/3B4C

>  <Rbt.Executable>
rbdock ($Id: //depot/dev/client3/rdock/2013.1/src/exe/rbdock.cxx#4 $)

>  <Rbt.Library>
libRbt.so (2013.1, Build901 2013/11/27)

>  <Rbt.Parameter_File>
/export/apps/rDock/src/rDock_2013.1_src/data/scripts/dock_solv.prm

>  <Rbt.Receptor>
prm/pocket_docking_2.prm

>  <SCORE>
-12.1002

>  <SCORE.INTER>
-10.6029

>  <SCORE.INTER.CONST>
1

>  <SCORE.INTER.POLAR>
-1.29858

>  <SCORE.INTER.ROT>
3

>  <SCORE.INTER.SOLV>
17.4138

>  <SCORE.INTER.VDW>
-14.1446

>  <SCORE.INTER.norm>
-0.662683

>  <SCORE.INTRA>
-1.49722

>  <SCORE.INTRA.DIHEDRAL>
-2.08303

>  <SCORE.INTRA.DIHEDRAL.0>
2.1318

>  <SCORE.INTRA.POLAR>
0

>  <SCORE.INTRA.POLAR.0>
0

>  <SCORE.INTRA.REPUL>
0

>  <SCORE.INTRA.REPUL.0>
0

>  <SCORE.INTRA.SOLV>
-0.170393

>  <SCORE.INTRA.SOLV.lig_0>
-58.6125

>  <SCORE.INTRA.VDW>
-0.370514

>  <SCORE.INTRA.VDW.0>
-0.432734

>  <SCORE.INTRA.norm>
-0.0935766

>  <SCORE.RESTR>
0

>  <SCORE.RESTR.CAVITY>
0

>  <SCORE.RESTR.norm>
0

>  <SCORE.SYSTEM>
0

>  <SCORE.SYSTEM.CONST>
0

>  <SCORE.SYSTEM.DIHEDRAL>
0

>  <SCORE.SYSTEM.SOLV>
0

>  <SCORE.SYSTEM.norm>
0

>  <SCORE.heavy>
16

>  <SCORE.norm>
-0.75626

>  <RMSD>
0.511

$$$$
ligand
 OpenBabel11021811463D
libRbt.so/2013.1/901 2013/11/27
 16 16  0  0  0  0  0  0  0  0999 V2000
   51.9974   11.7922   15.0721 P   0  0  2  0  0  0  0  0  0  0  0  0
   52.6556   13.0997   15.3140 O   0  0  0  0  0  0  0  0  0  0  0  0
   52.8735   10.6184   15.7380 O   0  5  0  0  0  0  0  0  0  0  0  0
   51.9052   11.5371   13.4828 O   0  0  0  0  0  0  0  0  0  0  0  0
   46.7681   10.6510   17.5937 C   0  0  2  0  0  0  0  0  0  0  0  0
   46.0665    9.5345   17.0343 O   0  0  0  0  0  0  0  0  0  0  0  0
   46.1377   11.9864   17.1213 C   0  0  2  0  0  0  0  0  0  0  0  0
   44.7174   12.0353   17.5178 N   0  0  0  0  0  0  0  0  0  0  0  0
   46.2596   12.0716   15.5905 C   0  0  1  0  0  0  0  0  0  0  0  0
   45.7030   13.3021   15.1199 O   0  0  0  0  0  0  0  0  0  0  0  0
   47.7440   12.0140   15.2339 C   0  0  2  0  0  0  0  0  0  0  0  0
   47.8794   12.0890   13.8205 O   0  0  0  0  0  0  0  0  0  0  0  0
   48.3309   10.6740   15.7554 C   0  0  2  0  0  0  0  0  0  0  0  0
   48.1745   10.5816   17.2047 O   0  0  0  0  0  0  0  0  0  0  0  0
   49.8401   10.5722   15.4230 C   0  0  0  0  0  0  0  0  0  0  0  0
   50.5150   11.8067   15.7263 O   0  0  0  0  0  0  0  0  0  0  0  0
  1  2  1  1  0  0  0
  1  3  1  0  0  0  0
  1  4  2  0  0  0  0
  1 16  1  0  0  0  0
  5  6  1  6  0  0  0
  5  7  1  0  0  0  0
  5 14  1  0  0  0  0
  7  8  1  6  0  0  0
  7  9  1  0  0  0  0
  9 10  1  1  0  0  0
  9 11  1  0  0  0  0
 11 12  1  6  0  0  0
 11 13  1  0  0  0  0
 13 14  1  0  0  0  0
 13 15  1  1  0  0  0
 15 16  1  0  0  0  0
M  CHG  1   3  -1
M  END
>  <CHROM.1>
45.08874636,-167.44442571,176.42996374,48.91250336,11.54481185,15.71570185
0.20279836,0.15965334,-0.80611639

>  <Name>
ligand

>  <RI>
0

>  <Rbt.Current_Directory>
/home/itssahil/PROJECTS/Mol_Feturizer/New_Systems/rnas/3B4C

>  <Rbt.Executable>
rbdock ($Id: //depot/dev/client3/rdock/2013.1/src/exe/rbdock.cxx#4 $)

>  <Rbt.Library>
libRbt.so (2013.1, Build901 2013/11/27)

>  <Rbt.Parameter_File>
/export/apps/rDock/src/rDock_2013.1_src/data/scripts/dock_solv.prm

>  <Rbt.Receptor>
prm/pocket_docking_2.prm

>  <SCORE>
-11.2572

>  <SCORE.INTER>
-10.7854

>  <SCORE.INTER.CONST>
1

>  <SCORE.INTER.POLAR>
-1.29904

>  <SCORE.INTER.ROT>
3

>  <SCORE.INTER.SOLV>
17.7319

>  <SCORE.INTER.VDW>
-14.3708

>  <SCORE.INTER.norm>
-0.674086

>  <SCORE.INTRA>
-0.471834

>  <SCORE.INTRA.DIHEDRAL>
-0.599694

>  <SCORE.INTRA.DIHEDRAL.0>
2.1318

>  <SCORE.INTRA.POLAR>
0

>  <SCORE.INTRA.POLAR.0>
0

>  <SCORE.INTRA.REPUL>
0

>  <SCORE.INTRA.REPUL.0>
0

>  <SCORE.INTRA.SOLV>
0.239867

>  <SCORE.INTRA.SOLV.lig_0>
-58.6125

>  <SCORE.INTRA.VDW>
-0.291921

>  <SCORE.INTRA.VDW.0>
-0.432734

>  <SCORE.INTRA.norm>
-0.0294896

>  <SCORE.RESTR>
0

>  <SCORE.RESTR.CAVITY>
0

>  <SCORE.RESTR.norm>
0

>  <SCORE.SYSTEM>
0

>  <SCORE.SYSTEM.CONST>
0

>  <SCORE.SYSTEM.DIHEDRAL>
0

>  <SCORE.SYSTEM.SOLV>
0

>  <SCORE.SYSTEM.norm>
0

>  <SCORE.heavy>
16

>  <SCORE.norm>
-0.703576

>  <RMSD>
0.515

$$$$
ligand
 OpenBabel11021811463D
libRbt.so/2013.1/901 2013/11/27
 16 16  0  0  0  0  0  0  0  0999 V2000
   52.0672   11.7484   15.3381 P   0  0  2  0  0  0  0  0  0  0  0  0
   52.7776   12.9644   15.8051 O   0  0  0  0  0  0  0  0  0  0  0  0
   52.7246   10.4473   16.0192 O   0  5  0  0  0  0  0  0  0  0  0  0
   52.2205   11.6332   13.7372 O   0  0  0  0  0  0  0  0  0  0  0  0
   46.8358   10.7964   17.6357 C   0  0  2  0  0  0  0  0  0  0  0  0
   46.1709    9.5976   17.2201 O   0  0  0  0  0  0  0  0  0  0  0  0
   46.1197   12.0466   17.0628 C   0  0  2  0  0  0  0  0  0  0  0  0
   44.7154   12.0680   17.5149 N   0  0  0  0  0  0  0  0  0  0  0  0
   46.1770   11.9836   15.5272 C   0  0  1  0  0  0  0  0  0  0  0  0
   45.5401   13.1331   14.9631 O   0  0  0  0  0  0  0  0  0  0  0  0
   47.6472   11.9605   15.1129 C   0  0  2  0  0  0  0  0  0  0  0  0
   47.7232   11.8998   13.6943 O   0  0  0  0  0  0  0  0  0  0  0  0
   48.3221   10.7086   15.7370 C   0  0  2  0  0  0  0  0  0  0  0  0
   48.2275   10.7547   17.1939 O   0  0  0  0  0  0  0  0  0  0  0  0
   49.8204   10.6453   15.3500 C   0  0  0  0  0  0  0  0  0  0  0  0
   50.5026   11.8486   15.7475 O   0  0  0  0  0  0  0  0  0  0  0  0
  1  2  1  1  0  0  0
  1  3  1  0  0  0  0
  1  4  2  0  0  0  0
  1 16  1  0  0  0  0
  5  6  1  6  0  0  0
  5  7  1  0  0  0  0
  5 14  1  0  0  0  0
  7  8  1  6  0  0  0
  7  9  1  0  0  0  0
  9 10  1  6  0  0  0
  9 11  1  0  0  0  0
 11 12  1  6  0  0  0
 11 13  1  0  0  0  0
 13 14  1  0  0  0  0
 13 15  1  1  0  0  0
 15 16  1  0  0  0  0
M  CHG  1   3  -1
M  END
>  <CHROM.1>
56.52906954,179.64324303,-177.44821437,48.91996941,11.53197942,15.79250536
-0.16600932,-0.10503038,2.18412761

>  <Name>
ligand

>  <RI>
0

>  <Rbt.Current_Directory>
/home/itssahil/PROJECTS/Mol_Feturizer/New_Systems/rnas/3B4C

>  <Rbt.Executable>
rbdock ($Id: //depot/dev/client3/rdock/2013.1/src/exe/rbdock.cxx#4 $)

>  <Rbt.Library>
libRbt.so (2013.1, Build901 2013/11/27)

>  <Rbt.Parameter_File>
/export/apps/rDock/src/rDock_2013.1_src/data/scripts/dock_solv.prm

>  <Rbt.Receptor>
prm/pocket_docking_4.prm

>  <SCORE>
-12.128

>  <SCORE.INTER>
-10.6593

>  <SCORE.INTER.CONST>
1

>  <SCORE.INTER.POLAR>
-1.29812

>  <SCORE.INTER.ROT>
3

>  <SCORE.INTER.SOLV>
18.4069

>  <SCORE.INTER.VDW>
-14.5148

>  <SCORE.INTER.norm>
-0.666207

>  <SCORE.INTRA>
-1.4687

>  <SCORE.INTRA.DIHEDRAL>
-2.0749

>  <SCORE.INTRA.DIHEDRAL.0>
2.1318

>  <SCORE.INTRA.POLAR>
0

>  <SCORE.INTRA.POLAR.0>
0

>  <SCORE.INTRA.REPUL>
0

>  <SCORE.INTRA.REPUL.0>
0

>  <SCORE.INTRA.SOLV>
-0.17132

>  <SCORE.INTRA.SOLV.lig_0>
-58.6125

>  <SCORE.INTRA.VDW>
-0.345593

>  <SCORE.INTRA.VDW.0>
-0.432734

>  <SCORE.INTRA.norm>
-0.091794

>  <SCORE.RESTR>
0

>  <SCORE.RESTR.CAVITY>
0

>  <SCORE.RESTR.norm>
0

>  <SCORE.SYSTEM>
0

>  <SCORE.SYSTEM.CONST>
0

>  <SCORE.SYSTEM.DIHEDRAL>
0

>  <SCORE.SYSTEM.SOLV>
0

>  <SCORE.SYSTEM.norm>
0

>  <SCORE.heavy>
16

>  <SCORE.norm>
-0.758001

>  <RMSD>
0.520

$$$$
ligand
 OpenBabel11021811463D
libRbt.so/2013.1/901 2013/11/27
 16 16  0  0  0  0  0  0  0  0999 V2000
   51.9253   11.8223   15.1254 P   0  0  2  0  0  0  0  0  0  0  0  0
   52.6297   13.0593   15.5437 O   0  0  0  0  0  0  0  0  0  0  0  0
   52.6581   10.5428   15.7695 O   0  5  0  0  0  0  0  0  0  0  0  0
   51.9835   11.7030   13.5185 O   0  0  0  0  0  0  0  0  0  0  0  0
   46.7756   10.8588   17.6103 C   0  0  2  0  0  0  0  0  0  0  0  0
   46.1246    9.6317   17.2607 O   0  0  0  0  0  0  0  0  0  0  0  0
   46.0224   12.0706   17.0034 C   0  0  2  0  0  0  0  0  0  0  0  0
   44.6288   12.0851   17.4876 N   0  0  0  0  0  0  0  0  0  0  0  0
   46.0454   11.9445   15.4708 C   0  0  1  0  0  0  0  0  0  0  0  0
   45.3735   13.0575   14.8750 O   0  0  0  0  0  0  0  0  0  0  0  0
   47.5059   11.9311   15.0228 C   0  0  2  0  0  0  0  0  0  0  0  0
   47.5502   11.8126   13.6066 O   0  0  0  0  0  0  0  0  0  0  0  0
   48.2191   10.7191   15.6819 C   0  0  2  0  0  0  0  0  0  0  0  0
   48.1573   10.8243   17.1374 O   0  0  0  0  0  0  0  0  0  0  0  0
   49.7089   10.6671   15.2621 C   0  0  0  0  0  0  0  0  0  0  0  0
   50.3865   11.8826   15.6295 O   0  0  0  0  0  0  0  0  0  0  0  0
  1  2  1  1  0  0  0
  1  3  1  0  0  0  0
  1  4  2  0  0  0  0
  1 16  1  0  0  0  0
  5  6  1  6  0  0  0
  5  7  1  0  0  0  0
  5 14  1  0  0  0  0
  7  8  1  1  0  0  0
  7  9  1  0  0  0  0
  9 10  1  6  0  0  0
  9 11  1  0  0  0  0
 11 12  1  6  0  0  0
 11 13  1  0  0  0  0
 13 14  1  0  0  0  0
 13 15  1  6  0  0  0
 15 16  1  0  0  0  0
M  CHG  1   3  -1
M  END
>  <CHROM.1>
58.26671882,-177.75280528,-178.25080691,48.79900070,11.55962267,15.67919762
-0.20157523,-0.10383517,2.14252699

>  <Name>
ligand

>  <RI>
0

>  <Rbt.Current_Directory>
/home/itssahil/PROJECTS/Mol_Feturizer/New_Systems/rnas/3B4C

>  <Rbt.Executable>
rbdock ($Id: //depot/dev/client3/rdock/2013.1/src/exe/rbdock.cxx#4 $)

>  <Rbt.Library>
libRbt.so (2013.1, Build901 2013/11/27)

>  <Rbt.Parameter_File>
/export/apps/rDock/src/rDock_2013.1_src/data/scripts/dock_solv.prm

>  <Rbt.Receptor>
prm/pocket_docking_2.prm

>  <SCORE>
-12.1408

>  <SCORE.INTER>
-10.6463

>  <SCORE.INTER.CONST>
1

>  <SCORE.INTER.POLAR>
-1.29881

>  <SCORE.INTER.ROT>
3

>  <SCORE.INTER.SOLV>
17.4539

>  <SCORE.INTER.VDW>
-14.1862

>  <SCORE.INTER.norm>
-0.665397

>  <SCORE.INTRA>
-1.49446

>  <SCORE.INTRA.DIHEDRAL>
-2.08855

>  <SCORE.INTRA.DIHEDRAL.0>
2.1318

>  <SCORE.INTRA.POLAR>
0

>  <SCORE.INTRA.POLAR.0>
0

>  <SCORE.INTRA.REPUL>
0

>  <SCORE.INTRA.REPUL.0>
0

>  <SCORE.INTRA.SOLV>
-0.170669

>  <SCORE.INTRA.SOLV.lig_0>
-58.6125

>  <SCORE.INTRA.VDW>
-0.364851

>  <SCORE.INTRA.VDW.0>
-0.432734

>  <SCORE.INTRA.norm>
-0.0934038

>  <SCORE.RESTR>
0

>  <SCORE.RESTR.CAVITY>
0

>  <SCORE.RESTR.norm>
0

>  <SCORE.SYSTEM>
0

>  <SCORE.SYSTEM.CONST>
0

>  <SCORE.SYSTEM.DIHEDRAL>
0

>  <SCORE.SYSTEM.SOLV>
0

>  <SCORE.SYSTEM.norm>
0

>  <SCORE.heavy>
16

>  <SCORE.norm>
-0.7588

>  <RMSD>
0.521

$$$$
ligand
 OpenBabel11021811463D
libRbt.so/2013.1/901 2013/11/27
 16 16  0  0  0  0  0  0  0  0999 V2000
   51.9385   11.7840   15.2298 P   0  0  2  0  0  0  0  0  0  0  0  0
   52.6125   13.0160   15.7086 O   0  0  0  0  0  0  0  0  0  0  0  0
   52.6535   10.4951   15.8750 O   0  5  0  0  0  0  0  0  0  0  0  0
   52.0688   11.7044   13.6248 O   0  0  0  0  0  0  0  0  0  0  0  0
   46.8034   10.8656   17.6999 C   0  0  2  0  0  0  0  0  0  0  0  0
   46.2469    9.5558   17.5377 O   0  0  0  0  0  0  0  0  0  0  0  0
   45.9747   11.9140   16.9138 C   0  0  2  0  0  0  0  0  0  0  0  0
   44.5767   11.9000   17.3851 N   0  0  0  0  0  0  0  0  0  0  0  0
   46.0290   11.5604   15.4180 C   0  0  1  0  0  0  0  0  0  0  0  0
   45.2883   12.5190   14.6581 O   0  0  0  0  0  0  0  0  0  0  0  0
   47.4932   11.5858   14.9826 C   0  0  2  0  0  0  0  0  0  0  0  0
   47.5665   11.2586   13.6008 O   0  0  0  0  0  0  0  0  0  0  0  0
   48.2813   10.5421   15.8202 C   0  0  2  0  0  0  0  0  0  0  0  0
   48.1909   10.8608   17.2428 O   0  0  0  0  0  0  0  0  0  0  0  0
   49.7770   10.5359   15.4186 C   0  0  0  0  0  0  0  0  0  0  0  0
   50.3784   11.8198   15.6663 O   0  0  0  0  0  0  0  0  0  0  0  0
  1  2  1  1  0  0  0
  1  3  1  0  0  0  0
  1  4  2  0  0  0  0
  1 16  1  0  0  0  0
  5  6  1  6  0  0  0
  5  7  1  0  0  0  0
  5 14  1  0  0  0  0
  7  8  1  1  0  0  0
  7  9  1  0  0  0  0
  9 10  1  6  0  0  0
  9 11  1  0  0  0  0
 11 12  1  6  0  0  0
 11 13  1  0  0  0  0
 13 14  1  0  0  0  0
 13 15  1  6  0  0  0
 15 16  1  0  0  0  0
M  CHG  1   3  -1
M  END
>  <CHROM.1>
61.29596799,-179.71599450,-169.85208171,48.81124191,11.40127384,15.73376237
-0.20628807,-0.03123962,1.98225489

>  <Name>
ligand

>  <RI>
0

>  <Rbt.Current_Directory>
/home/itssahil/PROJECTS/Mol_Feturizer/New_Systems/rnas/3B4C

>  <Rbt.Executable>
rbdock ($Id: //depot/dev/client3/rdock/2013.1/src/exe/rbdock.cxx#4 $)

>  <Rbt.Library>
libRbt.so (2013.1, Build901 2013/11/27)

>  <Rbt.Parameter_File>
/export/apps/rDock/src/rDock_2013.1_src/data/scripts/dock_solv.prm

>  <Rbt.Receptor>
prm/pocket_docking_6.prm

>  <SCORE>
-12.0073

>  <SCORE.INTER>
-10.6363

>  <SCORE.INTER.CONST>
1

>  <SCORE.INTER.POLAR>
-1.29904

>  <SCORE.INTER.ROT>
3

>  <SCORE.INTER.SOLV>
18.217

>  <SCORE.INTER.VDW>
-14.4331

>  <SCORE.INTER.norm>
-0.664767

>  <SCORE.INTRA>
-1.37104

>  <SCORE.INTRA.DIHEDRAL>
-1.95407

>  <SCORE.INTRA.DIHEDRAL.0>
2.1318

>  <SCORE.INTRA.POLAR>
0

>  <SCORE.INTRA.POLAR.0>
0

>  <SCORE.INTRA.REPUL>
0

>  <SCORE.INTRA.REPUL.0>
0

>  <SCORE.INTRA.SOLV>
-0.180384

>  <SCORE.INTRA.SOLV.lig_0>
-58.6125

>  <SCORE.INTRA.VDW>
-0.303813

>  <SCORE.INTRA.VDW.0>
-0.432734

>  <SCORE.INTRA.norm>
-0.0856901

>  <SCORE.RESTR>
0

>  <SCORE.RESTR.CAVITY>
0

>  <SCORE.RESTR.norm>
0

>  <SCORE.SYSTEM>
0

>  <SCORE.SYSTEM.CONST>
0

>  <SCORE.SYSTEM.DIHEDRAL>
0

>  <SCORE.SYSTEM.SOLV>
0

>  <SCORE.SYSTEM.norm>
0

>  <SCORE.heavy>
16

>  <SCORE.norm>
-0.750457

>  <RMSD>
0.522

$$$$
ligand
 OpenBabel11021811463D
libRbt.so/2013.1/901 2013/11/27
 16 16  0  0  0  0  0  0  0  0999 V2000
   52.1079   11.7550   15.3789 P   0  0  2  0  0  0  0  0  0  0  0  0
   52.8094   12.9724   15.8557 O   0  0  0  0  0  0  0  0  0  0  0  0
   52.7811   10.4527   16.0419 O   0  5  0  0  0  0  0  0  0  0  0  0
   52.2537   11.6592   13.7760 O   0  0  0  0  0  0  0  0  0  0  0  0
   46.8582   10.7286   17.6097 C   0  0  2  0  0  0  0  0  0  0  0  0
   46.1927    9.5490   17.1433 O   0  0  0  0  0  0  0  0  0  0  0  0
   46.1508   12.0024   17.0797 C   0  0  2  0  0  0  0  0  0  0  0  0
   44.7431   12.0116   17.5214 N   0  0  0  0  0  0  0  0  0  0  0  0
   46.2199   11.9981   15.5433 C   0  0  1  0  0  0  0  0  0  0  0  0
   45.5912   13.1707   15.0188 O   0  0  0  0  0  0  0  0  0  0  0  0
   47.6933   11.9856   15.1397 C   0  0  2  0  0  0  0  0  0  0  0  0
   47.7801   11.9790   13.7205 O   0  0  0  0  0  0  0  0  0  0  0  0
   48.3591   10.7083   15.7205 C   0  0  2  0  0  0  0  0  0  0  0  0
   48.2533   10.6989   17.1773 O   0  0  0  0  0  0  0  0  0  0  0  0
   49.8601   10.6544   15.3428 C   0  0  0  0  0  0  0  0  0  0  0  0
   50.5446   11.8360   15.7976 O   0  0  0  0  0  0  0  0  0  0  0  0
  1  2  1  1  0  0  0
  1  3  1  0  0  0  0
  1  4  2  0  0  0  0
  1 16  1  0  0  0  0
  5  6  1  6  0  0  0
  5  7  1  0  0  0  0
  5 14  1  0  0  0  0
  7  8  1  6  0  0  0
  7  9  1  0  0  0  0
  9 10  1  6  0  0  0
  9 11  1  0  0  0  0
 11 12  1  6  0  0  0
 11 13  1  0  0  0  0
 13 14  1  0  0  0  0
 13 15  1  1  0  0  0
 15 16  1  0  0  0  0
M  CHG  1   3  -1
M  END
>  <CHROM.1>
56.83052428,-179.59395570,-179.73781941,48.95823255,11.52889730,15.80792815
-0.15995184,-0.10373277,2.22374493

>  <Name>
ligand

>  <RI>
0

>  <Rbt.Current_Directory>
/home/itssahil/PROJECTS/Mol_Feturizer/New_Systems/rnas/3B4C

>  <Rbt.Executable>
rbdock ($Id: //depot/dev/client3/rdock/2013.1/src/exe/rbdock.cxx#4 $)

>  <Rbt.Library>
libRbt.so (2013.1, Build901 2013/11/27)

>  <Rbt.Parameter_File>
/export/apps/rDock/src/rDock_2013.1_src/data/scripts/dock_solv.prm

>  <Rbt.Receptor>
prm/pocket_docking_4.prm

>  <SCORE>
-12.1318

>  <SCORE.INTER>
-10.6442

>  <SCORE.INTER.CONST>
1

>  <SCORE.INTER.POLAR>
-1.29904

>  <SCORE.INTER.ROT>
3

>  <SCORE.INTER.SOLV>
18.4794

>  <SCORE.INTER.VDW>
-14.5258

>  <SCORE.INTER.norm>
-0.665259

>  <SCORE.INTRA>
-1.4876

>  <SCORE.INTRA.DIHEDRAL>
-2.09307

>  <SCORE.INTRA.DIHEDRAL.0>
2.1318

>  <SCORE.INTRA.POLAR>
0

>  <SCORE.INTRA.POLAR.0>
0

>  <SCORE.INTRA.REPUL>
0

>  <SCORE.INTRA.REPUL.0>
0

>  <SCORE.INTRA.SOLV>
-0.171192

>  <SCORE.INTRA.SOLV.lig_0>
-58.6125

>  <SCORE.INTRA.VDW>
-0.355471

>  <SCORE.INTRA.VDW.0>
-0.432734

>  <SCORE.INTRA.norm>
-0.0929752

>  <SCORE.RESTR>
0

>  <SCORE.RESTR.CAVITY>
0

>  <SCORE.RESTR.norm>
0

>  <SCORE.SYSTEM>
0

>  <SCORE.SYSTEM.CONST>
0

>  <SCORE.SYSTEM.DIHEDRAL>
0

>  <SCORE.SYSTEM.SOLV>
0

>  <SCORE.SYSTEM.norm>
0

>  <SCORE.heavy>
16

>  <SCORE.norm>
-0.758235

>  <RMSD>
0.526

$$$$
ligand
 OpenBabel11021811463D
libRbt.so/2013.1/901 2013/11/27
 16 16  0  0  0  0  0  0  0  0999 V2000
   51.8858   11.7246   15.1641 P   0  0  2  0  0  0  0  0  0  0  0  0
   52.5818   12.9810   15.5359 O   0  0  0  0  0  0  0  0  0  0  0  0
   52.6113   10.4775   15.8763 O   0  5  0  0  0  0  0  0  0  0  0  0
   51.9677   11.5325   13.5654 O   0  0  0  0  0  0  0  0  0  0  0  0
   46.7578   10.8700   17.6820 C   0  0  2  0  0  0  0  0  0  0  0  0
   46.1279    9.6093   17.4257 O   0  0  0  0  0  0  0  0  0  0  0  0
   45.9737   12.0222   17.0026 C   0  0  2  0  0  0  0  0  0  0  0  0
   44.5855   12.0431   17.5019 N   0  0  0  0  0  0  0  0  0  0  0  0
   45.9823   11.7911   15.4821 C   0  0  1  0  0  0  0  0  0  0  0  0
   45.2816   12.8471   14.8195 O   0  0  0  0  0  0  0  0  0  0  0  0
   47.4377   11.7750   15.0180 C   0  0  2  0  0  0  0  0  0  0  0  0
   47.4687   11.5599   13.6128 O   0  0  0  0  0  0  0  0  0  0  0  0
   48.1825   10.6254   15.7500 C   0  0  2  0  0  0  0  0  0  0  0  0
   48.1347   10.8296   17.1955 O   0  0  0  0  0  0  0  0  0  0  0  0
   49.6683   10.5734   15.3163 C   0  0  0  0  0  0  0  0  0  0  0  0
   50.3397   11.8040   15.6425 O   0  0  0  0  0  0  0  0  0  0  0  0
  1  2  1  1  0  0  0
  1  3  1  0  0  0  0
  1  4  2  0  0  0  0
  1 16  1  0  0  0  0
  5  6  1  6  0  0  0
  5  7  1  0  0  0  0
  5 14  1  0  0  0  0
  7  8  1  1  0  0  0
  7  9  1  0  0  0  0
  9 10  1  6  0  0  0
  9 11  1  0  0  0  0
 11 12  1  6  0  0  0
 11 13  1  0  0  0  0
 13 14  1  0  0  0  0
 13 15  1  6  0  0  0
 15 16  1  0  0  0  0
M  CHG  1   3  -1
M  END
>  <CHROM.1>
60.71410436,-179.44493837,-178.47487539,48.75518483,11.46192476,15.71638068
-0.20383422,-0.08826578,2.06284679

>  <Name>
ligand

>  <RI>
0

>  <Rbt.Current_Directory>
/home/itssahil/PROJECTS/Mol_Feturizer/New_Systems/rnas/3B4C

>  <Rbt.Executable>
rbdock ($Id: //depot/dev/client3/rdock/2013.1/src/exe/rbdock.cxx#4 $)

>  <Rbt.Library>
libRbt.so (2013.1, Build901 2013/11/27)

>  <Rbt.Parameter_File>
/export/apps/rDock/src/rDock_2013.1_src/data/scripts/dock_solv.prm

>  <Rbt.Receptor>
prm/pocket_docking_4.prm

>  <SCORE>
-12.0858

>  <SCORE.INTER>
-10.567

>  <SCORE.INTER.CONST>
1

>  <SCORE.INTER.POLAR>
-1.29904

>  <SCORE.INTER.ROT>
3

>  <SCORE.INTER.SOLV>
18.2271

>  <SCORE.INTER.VDW>
-14.3902

>  <SCORE.INTER.norm>
-0.660439

>  <SCORE.INTRA>
-1.5188

>  <SCORE.INTRA.DIHEDRAL>
-2.12139

>  <SCORE.INTRA.DIHEDRAL.0>
2.1318

>  <SCORE.INTRA.POLAR>
0

>  <SCORE.INTRA.POLAR.0>
0

>  <SCORE.INTRA.REPUL>
0

>  <SCORE.INTRA.REPUL.0>
0

>  <SCORE.INTRA.SOLV>
-0.173495

>  <SCORE.INTRA.SOLV.lig_0>
-58.6125

>  <SCORE.INTRA.VDW>
-0.371353

>  <SCORE.INTRA.VDW.0>
-0.432734

>  <SCORE.INTRA.norm>
-0.0949248

>  <SCORE.RESTR>
0

>  <SCORE.RESTR.CAVITY>
0

>  <SCORE.RESTR.norm>
0

>  <SCORE.SYSTEM>
0

>  <SCORE.SYSTEM.CONST>
0

>  <SCORE.SYSTEM.DIHEDRAL>
0

>  <SCORE.SYSTEM.SOLV>
0

>  <SCORE.SYSTEM.norm>
0

>  <SCORE.heavy>
16

>  <SCORE.norm>
-0.755364

>  <RMSD>
0.526

$$$$
ligand
 OpenBabel11021811463D
libRbt.so/2013.1/901 2013/11/27
 16 16  0  0  0  0  0  0  0  0999 V2000
   52.1240   11.7657   15.3880 P   0  0  2  0  0  0  0  0  0  0  0  0
   52.8264   12.9706   15.8941 O   0  0  0  0  0  0  0  0  0  0  0  0
   52.7744   10.4489   16.0453 O   0  5  0  0  0  0  0  0  0  0  0  0
   52.2982   11.6903   13.7869 O   0  0  0  0  0  0  0  0  0  0  0  0
   46.8576   10.7232   17.6056 C   0  0  2  0  0  0  0  0  0  0  0  0
   46.1955    9.5452   17.1306 O   0  0  0  0  0  0  0  0  0  0  0  0
   46.1587   11.9987   17.0684 C   0  0  2  0  0  0  0  0  0  0  0  0
   44.7459   12.0100   17.4937 N   0  0  0  0  0  0  0  0  0  0  0  0
   46.2456   11.9954   15.5328 C   0  0  1  0  0  0  0  0  0  0  0  0
   45.6252   13.1695   15.0019 O   0  0  0  0  0  0  0  0  0  0  0  0
   47.7236   11.9806   15.1465 C   0  0  2  0  0  0  0  0  0  0  0  0
   47.8269   11.9750   13.7283 O   0  0  0  0  0  0  0  0  0  0  0  0
   48.3804   10.7017   15.7340 C   0  0  2  0  0  0  0  0  0  0  0  0
   48.2576   10.6914   17.1894 O   0  0  0  0  0  0  0  0  0  0  0  0
   49.8856   10.6455   15.3738 C   0  0  0  0  0  0  0  0  0  0  0  0
   50.5540   11.8539   15.7794 O   0  0  0  0  0  0  0  0  0  0  0  0
  1  2  1  1  0  0  0
  1  3  1  0  0  0  0
  1  4  2  0  0  0  0
  1 16  1  0  0  0  0
  5  6  1  6  0  0  0
  5  7  1  0  0  0  0
  5 14  1  0  0  0  0
  7  8  1  6  0  0  0
  7  9  1  0  0  0  0
  9 10  1  6  0  0  0
  9 11  1  0  0  0  0
 11 12  1  6  0  0  0
 11 13  1  0  0  0  0
 13 14  1  0  0  0  0
 13 15  1  1  0  0  0
 15 16  1  0  0  0  0
M  CHG  1   3  -1
M  END
>  <CHROM.1>
54.02639355,-179.92991469,-175.99682177,48.97581083,11.53012970,15.81054064
-0.15934924,-0.10102557,2.23130127

>  <Name>
ligand

>  <RI>
0

>  <Rbt.Current_Directory>
/home/itssahil/PROJECTS/Mol_Feturizer/New_Systems/rnas/3B4C

>  <Rbt.Executable>
rbdock ($Id: //depot/dev/client3/rdock/2013.1/src/exe/rbdock.cxx#4 $)

>  <Rbt.Library>
libRbt.so (2013.1, Build901 2013/11/27)

>  <Rbt.Parameter_File>
/export/apps/rDock/src/rDock_2013.1_src/data/scripts/dock_solv.prm

>  <Rbt.Receptor>
prm/pocket_docking_6.prm

>  <SCORE>
-12.1054

>  <SCORE.INTER>
-10.7109

>  <SCORE.INTER.CONST>
1

>  <SCORE.INTER.POLAR>
-1.29855

>  <SCORE.INTER.ROT>
3

>  <SCORE.INTER.SOLV>
18.4144

>  <SCORE.INTER.VDW>
-14.5502

>  <SCORE.INTER.norm>
-0.669429

>  <SCORE.INTRA>
-1.39453

>  <SCORE.INTRA.DIHEDRAL>
-1.97579

>  <SCORE.INTRA.DIHEDRAL.0>
2.1318

>  <SCORE.INTRA.POLAR>
0

>  <SCORE.INTRA.POLAR.0>
0

>  <SCORE.INTRA.REPUL>
0

>  <SCORE.INTRA.REPUL.0>
0

>  <SCORE.INTRA.SOLV>
-0.170898

>  <SCORE.INTRA.SOLV.lig_0>
-58.6125

>  <SCORE.INTRA.VDW>
-0.321181

>  <SCORE.INTRA.VDW.0>
-0.432734

>  <SCORE.INTRA.norm>
-0.0871579

>  <SCORE.RESTR>
0

>  <SCORE.RESTR.CAVITY>
0

>  <SCORE.RESTR.norm>
0

>  <SCORE.SYSTEM>
0

>  <SCORE.SYSTEM.CONST>
0

>  <SCORE.SYSTEM.DIHEDRAL>
0

>  <SCORE.SYSTEM.SOLV>
0

>  <SCORE.SYSTEM.norm>
0

>  <SCORE.heavy>
16

>  <SCORE.norm>
-0.756587

>  <RMSD>
0.526

$$$$
ligand
 OpenBabel11021811463D
libRbt.so/2013.1/901 2013/11/27
 16 16  0  0  0  0  0  0  0  0999 V2000
   52.0495   11.7536   15.3472 P   0  0  2  0  0  0  0  0  0  0  0  0
   52.7522   12.9706   15.8230 O   0  0  0  0  0  0  0  0  0  0  0  0
   52.7225   10.4510   16.0098 O   0  5  0  0  0  0  0  0  0  0  0  0
   52.1935   11.6573   13.7443 O   0  0  0  0  0  0  0  0  0  0  0  0
   46.8056   10.7113   17.5825 C   0  0  2  0  0  0  0  0  0  0  0  0
   46.1354    9.5396   17.1032 O   0  0  0  0  0  0  0  0  0  0  0  0
   46.0991   11.9936   17.0722 C   0  0  2  0  0  0  0  0  0  0  0  0
   44.6932   12.0002   17.5196 N   0  0  0  0  0  0  0  0  0  0  0  0
   46.1621   12.0095   15.5356 C   0  0  1  0  0  0  0  0  0  0  0  0
   45.5341   13.1904   15.0292 O   0  0  0  0  0  0  0  0  0  0  0  0
   47.6338   11.9989   15.1260 C   0  0  2  0  0  0  0  0  0  0  0  0
   47.7150   12.0110   13.7065 O   0  0  0  0  0  0  0  0  0  0  0  0
   48.2989   10.7125   15.6873 C   0  0  2  0  0  0  0  0  0  0  0  0
   48.1988   10.6841   17.1442 O   0  0  0  0  0  0  0  0  0  0  0  0
   49.7983   10.6602   15.3029 C   0  0  0  0  0  0  0  0  0  0  0  0
   50.4867   11.8356   15.7676 O   0  0  0  0  0  0  0  0  0  0  0  0
  1  2  1  1  0  0  0
  1  3  1  0  0  0  0
  1  4  2  0  0  0  0
  1 16  1  0  0  0  0
  5  6  1  6  0  0  0
  5  7  1  0  0  0  0
  5 14  1  0  0  0  0
  7  8  1  6  0  0  0
  7  9  1  0  0  0  0
  9 10  1  1  0  0  0
  9 11  1  0  0  0  0
 11 12  1  6  0  0  0
 11 13  1  0  0  0  0
 13 14  1  0  0  0  0
 13 15  1  1  0  0  0
 15 16  1  0  0  0  0
M  CHG  1   3  -1
M  END
>  <CHROM.1>
56.68364286,-179.83549849,179.72964929,48.90060008,11.52994976,15.78421605
-0.16107996,-0.10780370,2.23622720

>  <Name>
ligand

>  <RI>
0

>  <Rbt.Current_Directory>
/home/itssahil/PROJECTS/Mol_Feturizer/New_Systems/rnas/3B4C

>  <Rbt.Executable>
rbdock ($Id: //depot/dev/client3/rdock/2013.1/src/exe/rbdock.cxx#4 $)

>  <Rbt.Library>
libRbt.so (2013.1, Build901 2013/11/27)

>  <Rbt.Parameter_File>
/export/apps/rDock/src/rDock_2013.1_src/data/scripts/dock_solv.prm

>  <Rbt.Receptor>
prm/pocket_docking_4.prm

>  <SCORE>
-12.1037

>  <SCORE.INTER>
-10.6183

>  <SCORE.INTER.CONST>
1

>  <SCORE.INTER.POLAR>
-1.29904

>  <SCORE.INTER.ROT>
3

>  <SCORE.INTER.SOLV>
18.3298

>  <SCORE.INTER.VDW>
-14.4587

>  <SCORE.INTER.norm>
-0.663645

>  <SCORE.INTRA>
-1.48538

>  <SCORE.INTRA.DIHEDRAL>
-2.09052

>  <SCORE.INTRA.DIHEDRAL.0>
2.1318

>  <SCORE.INTRA.POLAR>
0

>  <SCORE.INTRA.POLAR.0>
0

>  <SCORE.INTRA.REPUL>
0

>  <SCORE.INTRA.REPUL.0>
0

>  <SCORE.INTRA.SOLV>
-0.171133

>  <SCORE.INTRA.SOLV.lig_0>
-58.6125

>  <SCORE.INTRA.VDW>
-0.354552

>  <SCORE.INTRA.VDW.0>
-0.432734

>  <SCORE.INTRA.norm>
-0.0928362

>  <SCORE.RESTR>
0

>  <SCORE.RESTR.CAVITY>
0

>  <SCORE.RESTR.norm>
0

>  <SCORE.SYSTEM>
0

>  <SCORE.SYSTEM.CONST>
0

>  <SCORE.SYSTEM.DIHEDRAL>
0

>  <SCORE.SYSTEM.SOLV>
0

>  <SCORE.SYSTEM.norm>
0

>  <SCORE.heavy>
16

>  <SCORE.norm>
-0.756481

>  <RMSD>
0.529

$$$$
ligand
 OpenBabel11021811463D
libRbt.so/2013.1/901 2013/11/27
 16 16  0  0  0  0  0  0  0  0999 V2000
   51.8954   11.7002   15.2789 P   0  0  2  0  0  0  0  0  0  0  0  0
   52.6263   12.9157   15.7142 O   0  0  0  0  0  0  0  0  0  0  0  0
   52.5475   10.4035   15.9733 O   0  5  0  0  0  0  0  0  0  0  0  0
   52.0242   11.5554   13.6782 O   0  0  0  0  0  0  0  0  0  0  0  0
   46.6233   10.9788   17.5615 C   0  0  2  0  0  0  0  0  0  0  0  0
   45.9494    9.7603   17.2256 O   0  0  0  0  0  0  0  0  0  0  0  0
   45.9295   12.1916   16.8894 C   0  0  2  0  0  0  0  0  0  0  0  0
   44.5200   12.2615   17.3200 N   0  0  0  0  0  0  0  0  0  0  0  0
   46.0051   12.0159   15.3633 C   0  0  1  0  0  0  0  0  0  0  0  0
   45.3891   13.1280   14.7084 O   0  0  0  0  0  0  0  0  0  0  0  0
   47.4800   11.9463   14.9714 C   0  0  2  0  0  0  0  0  0  0  0  0
   47.5728   11.7812   13.5621 O   0  0  0  0  0  0  0  0  0  0  0  0
   48.1320   10.7361   15.6941 C   0  0  2  0  0  0  0  0  0  0  0  0
   48.0199   10.8896   17.1423 O   0  0  0  0  0  0  0  0  0  0  0  0
   49.6341   10.6281   15.3326 C   0  0  0  0  0  0  0  0  0  0  0  0
   50.3381   11.8258   15.7086 O   0  0  0  0  0  0  0  0  0  0  0  0
  1  2  1  1  0  0  0
  1  3  1  0  0  0  0
  1  4  2  0  0  0  0
  1 16  1  0  0  0  0
  5  6  1  6  0  0  0
  5  7  1  0  0  0  0
  5 14  1  0  0  0  0
  7  8  1  1  0  0  0
  7  9  1  0  0  0  0
  9 10  1  6  0  0  0
  9 11  1  0  0  0  0
 11 12  1  6  0  0  0
 11 13  1  0  0  0  0
 13 14  1  0  0  0  0
 13 15  1  1  0  0  0
 15 16  1  0  0  0  0
M  CHG  1   3  -1
M  END
>  <CHROM.1>
59.26486825,-178.34280094,-177.89494650,48.73941504,11.55388873,15.70028574
-0.14744368,-0.10722760,2.11285104

>  <Name>
ligand

>  <RI>
0

>  <Rbt.Current_Directory>
/home/itssahil/PROJECTS/Mol_Feturizer/New_Systems/rnas/3B4C

>  <Rbt.Executable>
rbdock ($Id: //depot/dev/client3/rdock/2013.1/src/exe/rbdock.cxx#4 $)

>  <Rbt.Library>
libRbt.so (2013.1, Build901 2013/11/27)

>  <Rbt.Parameter_File>
/export/apps/rDock/src/rDock_2013.1_src/data/scripts/dock_solv.prm

>  <Rbt.Receptor>
prm/pocket_docking_6.prm

>  <SCORE>
-12.2194

>  <SCORE.INTER>
-10.7137

>  <SCORE.INTER.CONST>
1

>  <SCORE.INTER.POLAR>
-1.29888

>  <SCORE.INTER.ROT>
3

>  <SCORE.INTER.SOLV>
17.5854

>  <SCORE.INTER.VDW>
-14.2747

>  <SCORE.INTER.norm>
-0.669604

>  <SCORE.INTRA>
-1.50573

>  <SCORE.INTRA.DIHEDRAL>
-2.10611

>  <SCORE.INTRA.DIHEDRAL.0>
2.1318

>  <SCORE.INTRA.POLAR>
0

>  <SCORE.INTRA.POLAR.0>
0

>  <SCORE.INTRA.REPUL>
0

>  <SCORE.INTRA.REPUL.0>
0

>  <SCORE.INTRA.SOLV>
-0.171881

>  <SCORE.INTRA.SOLV.lig_0>
-58.6125

>  <SCORE.INTRA.VDW>
-0.366735

>  <SCORE.INTRA.VDW.0>
-0.432734

>  <SCORE.INTRA.norm>
-0.0941081

>  <SCORE.RESTR>
0

>  <SCORE.RESTR.CAVITY>
0

>  <SCORE.RESTR.norm>
0

>  <SCORE.SYSTEM>
0

>  <SCORE.SYSTEM.CONST>
0

>  <SCORE.SYSTEM.DIHEDRAL>
0

>  <SCORE.SYSTEM.SOLV>
0

>  <SCORE.SYSTEM.norm>
0

>  <SCORE.heavy>
16

>  <SCORE.norm>
-0.763713

>  <RMSD>
0.535

$$$$
ligand
 OpenBabel11021811463D
libRbt.so/2013.1/901 2013/11/27
 16 16  0  0  0  0  0  0  0  0999 V2000
   51.9484   11.7060   15.2834 P   0  0  2  0  0  0  0  0  0  0  0  0
   52.6714   12.9396   15.6795 O   0  0  0  0  0  0  0  0  0  0  0  0
   52.6345   10.4319   15.9868 O   0  5  0  0  0  0  0  0  0  0  0  0
   52.0434   11.5328   13.6832 O   0  0  0  0  0  0  0  0  0  0  0  0
   46.7436   10.9648   17.6563 C   0  0  2  0  0  0  0  0  0  0  0  0
   46.0779    9.7331   17.3535 O   0  0  0  0  0  0  0  0  0  0  0  0
   46.0093   12.1606   16.9969 C   0  0  2  0  0  0  0  0  0  0  0  0
   44.6138   12.2131   17.4732 N   0  0  0  0  0  0  0  0  0  0  0  0
   46.0374   11.9720   15.4708 C   0  0  1  0  0  0  0  0  0  0  0  0
   45.3830   13.0686   14.8269 O   0  0  0  0  0  0  0  0  0  0  0  0
   47.4995   11.9213   15.0310 C   0  0  2  0  0  0  0  0  0  0  0  0
   47.5485   11.7446   13.6209 O   0  0  0  0  0  0  0  0  0  0  0  0
   48.1936   10.7278   15.7423 C   0  0  2  0  0  0  0  0  0  0  0  0
   48.1268   10.8930   17.1920 O   0  0  0  0  0  0  0  0  0  0  0  0
   49.6845   10.6393   15.3324 C   0  0  0  0  0  0  0  0  0  0  0  0
   50.3995   11.8180   15.7459 O   0  0  0  0  0  0  0  0  0  0  0  0
  1  2  1  1  0  0  0
  1  3  1  0  0  0  0
  1  4  2  0  0  0  0
  1 16  1  0  0  0  0
  5  6  1  6  0  0  0
  5  7  1  0  0  0  0
  5 14  1  0  0  0  0
  7  8  1  1  0  0  0
  7  9  1  0  0  0  0
  9 10  1  6  0  0  0
  9 11  1  0  0  0  0
 11 12  1  6  0  0  0
 11 13  1  0  0  0  0
 13 14  1  0  0  0  0
 13 15  1  6  0  0  0
 15 16  1  0  0  0  0
M  CHG  1   3  -1
M  END
>  <CHROM.1>
62.70110267,-179.12784998,178.46039280,48.79664349,11.54001695,15.75476586
-0.16609778,-0.10683707,2.08997425

>  <Name>
ligand

>  <RI>
0

>  <Rbt.Current_Directory>
/home/itssahil/PROJECTS/Mol_Feturizer/New_Systems/rnas/3B4C

>  <Rbt.Executable>
rbdock ($Id: //depot/dev/client3/rdock/2013.1/src/exe/rbdock.cxx#4 $)

>  <Rbt.Library>
libRbt.so (2013.1, Build901 2013/11/27)

>  <Rbt.Parameter_File>
/export/apps/rDock/src/rDock_2013.1_src/data/scripts/dock_solv.prm

>  <Rbt.Receptor>
prm/pocket_docking_2.prm

>  <SCORE>
-12.1884

>  <SCORE.INTER>
-10.673

>  <SCORE.INTER.CONST>
1

>  <SCORE.INTER.POLAR>
-1.29904

>  <SCORE.INTER.ROT>
3

>  <SCORE.INTER.SOLV>
18.2859

>  <SCORE.INTER.VDW>
-14.4805

>  <SCORE.INTER.norm>
-0.667063

>  <SCORE.INTRA>
-1.51543

>  <SCORE.INTRA.DIHEDRAL>
-2.09484

>  <SCORE.INTRA.DIHEDRAL.0>
2.1318

>  <SCORE.INTRA.POLAR>
0

>  <SCORE.INTRA.POLAR.0>
0

>  <SCORE.INTRA.REPUL>
0

>  <SCORE.INTRA.REPUL.0>
0

>  <SCORE.INTRA.SOLV>
-0.174946

>  <SCORE.INTRA.SOLV.lig_0>
-58.6125

>  <SCORE.INTRA.VDW>
-0.380533

>  <SCORE.INTRA.VDW.0>
-0.432734

>  <SCORE.INTRA.norm>
-0.0947142

>  <SCORE.RESTR>
0

>  <SCORE.RESTR.CAVITY>
0

>  <SCORE.RESTR.norm>
0

>  <SCORE.SYSTEM>
0

>  <SCORE.SYSTEM.CONST>
0

>  <SCORE.SYSTEM.DIHEDRAL>
0

>  <SCORE.SYSTEM.SOLV>
0

>  <SCORE.SYSTEM.norm>
0

>  <SCORE.heavy>
16

>  <SCORE.norm>
-0.761777

>  <RMSD>
0.537

$$$$
ligand
 OpenBabel11021811463D
libRbt.so/2013.1/901 2013/11/27
 16 16  0  0  0  0  0  0  0  0999 V2000
   51.9551   11.7971   15.2825 P   0  0  2  0  0  0  0  0  0  0  0  0
   52.6410   13.0213   15.7643 O   0  0  0  0  0  0  0  0  0  0  0  0
   52.6835   10.4981   15.8914 O   0  5  0  0  0  0  0  0  0  0  0  0
   52.0485   11.7418   13.6738 O   0  0  0  0  0  0  0  0  0  0  0  0
   46.8303   10.8716   17.7068 C   0  0  2  0  0  0  0  0  0  0  0  0
   46.2575    9.5746   17.5026 O   0  0  0  0  0  0  0  0  0  0  0  0
   45.9960   11.9591   16.9821 C   0  0  2  0  0  0  0  0  0  0  0  0
   44.6079   11.9382   17.4817 N   0  0  0  0  0  0  0  0  0  0  0  0
   46.0159   11.6670   15.4722 C   0  0  1  0  0  0  0  0  0  0  0  0
   45.2692   12.6629   14.7681 O   0  0  0  0  0  0  0  0  0  0  0  0
   47.4709   11.6972   15.0075 C   0  0  2  0  0  0  0  0  0  0  0  0
   47.5125   11.4267   13.6121 O   0  0  0  0  0  0  0  0  0  0  0  0
   48.2658   10.6126   15.7847 C   0  0  2  0  0  0  0  0  0  0  0  0
   48.2079   10.8730   17.2207 O   0  0  0  0  0  0  0  0  0  0  0  0
   49.7528   10.6094   15.3518 C   0  0  0  0  0  0  0  0  0  0  0  0
   50.4054   11.8272   15.7551 O   0  0  0  0  0  0  0  0  0  0  0  0
  1  2  1  1  0  0  0
  1  3  1  0  0  0  0
  1  4  2  0  0  0  0
  1 16  1  0  0  0  0
  5  6  1  6  0  0  0
  5  7  1  0  0  0  0
  5 14  1  0  0  0  0
  7  8  1  1  0  0  0
  7  9  1  0  0  0  0
  9 10  1  6  0  0  0
  9 11  1  0  0  0  0
 11 12  1  6  0  0  0
 11 13  1  0  0  0  0
 13 14  1  0  0  0  0
 13 15  1  6  0  0  0
 15 16  1  0  0  0  0
M  CHG  1   3  -1
M  END
>  <CHROM.1>
66.84101178,-179.72450684,-176.96879633,48.81479160,11.45178051,15.76540244
-0.19756707,-0.04441180,2.00954910

>  <Name>
ligand

>  <RI>
0

>  <Rbt.Current_Directory>
/home/itssahil/PROJECTS/Mol_Feturizer/New_Systems/rnas/3B4C

>  <Rbt.Executable>
rbdock ($Id: //depot/dev/client3/rdock/2013.1/src/exe/rbdock.cxx#4 $)

>  <Rbt.Library>
libRbt.so (2013.1, Build901 2013/11/27)

>  <Rbt.Parameter_File>
/export/apps/rDock/src/rDock_2013.1_src/data/scripts/dock_solv.prm

>  <Rbt.Receptor>
prm/pocket_docking_3.prm

>  <SCORE>
-11.9868

>  <SCORE.INTER>
-10.5538

>  <SCORE.INTER.CONST>
1

>  <SCORE.INTER.POLAR>
-1.29904

>  <SCORE.INTER.ROT>
3

>  <SCORE.INTER.SOLV>
18.4254

>  <SCORE.INTER.VDW>
-14.4475

>  <SCORE.INTER.norm>
-0.659613

>  <SCORE.INTRA>
-1.43299

>  <SCORE.INTRA.DIHEDRAL>
-1.9433

>  <SCORE.INTRA.DIHEDRAL.0>
2.1318

>  <SCORE.INTRA.POLAR>
0

>  <SCORE.INTRA.POLAR.0>
0

>  <SCORE.INTRA.REPUL>
0

>  <SCORE.INTRA.REPUL.0>
0

>  <SCORE.INTRA.SOLV>
-0.179182

>  <SCORE.INTRA.SOLV.lig_0>
-58.6125

>  <SCORE.INTRA.VDW>
-0.37175

>  <SCORE.INTRA.VDW.0>
-0.432734

>  <SCORE.INTRA.norm>
-0.0895619

>  <SCORE.RESTR>
0

>  <SCORE.RESTR.CAVITY>
0

>  <SCORE.RESTR.norm>
0

>  <SCORE.SYSTEM>
0

>  <SCORE.SYSTEM.CONST>
0

>  <SCORE.SYSTEM.DIHEDRAL>
0

>  <SCORE.SYSTEM.SOLV>
0

>  <SCORE.SYSTEM.norm>
0

>  <SCORE.heavy>
16

>  <SCORE.norm>
-0.749175

>  <RMSD>
0.537

$$$$
ligand
 OpenBabel11021811463D
libRbt.so/2013.1/901 2013/11/27
 16 16  0  0  0  0  0  0  0  0999 V2000
   51.8895   11.6960   15.2583 P   0  0  2  0  0  0  0  0  0  0  0  0
   52.6237   12.9107   15.6904 O   0  0  0  0  0  0  0  0  0  0  0  0
   52.5311   10.4006   15.9649 O   0  5  0  0  0  0  0  0  0  0  0  0
   52.0273   11.5404   13.6595 O   0  0  0  0  0  0  0  0  0  0  0  0
   46.6263   10.9812   17.5682 C   0  0  2  0  0  0  0  0  0  0  0  0
   45.9493    9.7635   17.2353 O   0  0  0  0  0  0  0  0  0  0  0  0
   45.9317   12.1948   16.8984 C   0  0  2  0  0  0  0  0  0  0  0  0
   44.5240   12.2669   17.3343 N   0  0  0  0  0  0  0  0  0  0  0  0
   46.0012   12.0184   15.3721 C   0  0  1  0  0  0  0  0  0  0  0  0
   45.3844   13.1312   14.7192 O   0  0  0  0  0  0  0  0  0  0  0  0
   47.4746   11.9465   14.9746 C   0  0  2  0  0  0  0  0  0  0  0  0
   47.5618   11.7809   13.5650 O   0  0  0  0  0  0  0  0  0  0  0  0
   48.1275   10.7356   15.6952 C   0  0  2  0  0  0  0  0  0  0  0  0
   48.0212   10.8898   17.1438 O   0  0  0  0  0  0  0  0  0  0  0  0
   49.6281   10.6252   15.3281 C   0  0  0  0  0  0  0  0  0  0  0  0
   50.3303   11.8319   15.6778 O   0  0  0  0  0  0  0  0  0  0  0  0
  1  2  1  1  0  0  0
  1  3  1  0  0  0  0
  1  4  2  0  0  0  0
  1 16  1  0  0  0  0
  5  6  1  6  0  0  0
  5  7  1  0  0  0  0
  5 14  1  0  0  0  0
  7  8  1  1  0  0  0
  7  9  1  0  0  0  0
  9 10  1  6  0  0  0
  9 11  1  0  0  0  0
 11 12  1  6  0  0  0
 11 13  1  0  0  0  0
 13 14  1  0  0  0  0
 13 15  1  1  0  0  0
 15 16  1  0  0  0  0
M  CHG  1   3  -1
M  END
>  <CHROM.1>
58.17217813,-179.00790296,-176.81407360,48.73569671,11.55325673,15.69618127
-0.15120879,-0.11090738,2.11298976

>  <Name>
ligand

>  <RI>
0

>  <Rbt.Current_Directory>
/home/itssahil/PROJECTS/Mol_Feturizer/New_Systems/rnas/3B4C

>  <Rbt.Executable>
rbdock ($Id: //depot/dev/client3/rdock/2013.1/src/exe/rbdock.cxx#4 $)

>  <Rbt.Library>
libRbt.so (2013.1, Build901 2013/11/27)

>  <Rbt.Parameter_File>
/export/apps/rDock/src/rDock_2013.1_src/data/scripts/dock_solv.prm

>  <Rbt.Receptor>
prm/pocket_docking_4.prm

>  <SCORE>
-12.2231

>  <SCORE.INTER>
-10.734

>  <SCORE.INTER.CONST>
1

>  <SCORE.INTER.POLAR>
-1.29904

>  <SCORE.INTER.ROT>
3

>  <SCORE.INTER.SOLV>
17.6155

>  <SCORE.INTER.VDW>
-14.2977

>  <SCORE.INTER.norm>
-0.670873

>  <SCORE.INTRA>
-1.48912

>  <SCORE.INTRA.DIHEDRAL>
-2.09535

>  <SCORE.INTRA.DIHEDRAL.0>
2.1318

>  <SCORE.INTRA.POLAR>
0

>  <SCORE.INTRA.POLAR.0>
0

>  <SCORE.INTRA.REPUL>
0

>  <SCORE.INTRA.REPUL.0>
0

>  <SCORE.INTRA.SOLV>
-0.172145

>  <SCORE.INTRA.SOLV.lig_0>
-58.6125

>  <SCORE.INTRA.VDW>
-0.355376

>  <SCORE.INTRA.VDW.0>
-0.432734

>  <SCORE.INTRA.norm>
-0.0930703

>  <SCORE.RESTR>
0

>  <SCORE.RESTR.CAVITY>
0

>  <SCORE.RESTR.norm>
0

>  <SCORE.SYSTEM>
0

>  <SCORE.SYSTEM.CONST>
0

>  <SCORE.SYSTEM.DIHEDRAL>
0

>  <SCORE.SYSTEM.SOLV>
0

>  <SCORE.SYSTEM.norm>
0

>  <SCORE.heavy>
16

>  <SCORE.norm>
-0.763943

>  <RMSD>
0.540

$$$$
ligand
 OpenBabel11021811463D
libRbt.so/2013.1/901 2013/11/27
 16 16  0  0  0  0  0  0  0  0999 V2000
   51.9124   11.6977   15.3135 P   0  0  2  0  0  0  0  0  0  0  0  0
   52.6431   12.9093   15.7600 O   0  0  0  0  0  0  0  0  0  0  0  0
   52.5617   10.3953   15.9998 O   0  5  0  0  0  0  0  0  0  0  0  0
   52.0454   11.5649   13.7122 O   0  0  0  0  0  0  0  0  0  0  0  0
   46.6511   10.9754   17.5771 C   0  0  2  0  0  0  0  0  0  0  0  0
   45.9809    9.7532   17.2469 O   0  0  0  0  0  0  0  0  0  0  0  0
   45.9438   12.1846   16.9126 C   0  0  2  0  0  0  0  0  0  0  0  0
   44.5382   12.2462   17.3568 N   0  0  0  0  0  0  0  0  0  0  0  0
   46.0058   12.0104   15.3858 C   0  0  1  0  0  0  0  0  0  0  0  0
   45.3771   13.1194   14.7377 O   0  0  0  0  0  0  0  0  0  0  0  0
   47.4772   11.9495   14.9796 C   0  0  2  0  0  0  0  0  0  0  0  0
   47.5574   11.7859   13.5694 O   0  0  0  0  0  0  0  0  0  0  0  0
   48.1431   10.7425   15.6952 C   0  0  2  0  0  0  0  0  0  0  0  0
   48.0440   10.8945   17.1445 O   0  0  0  0  0  0  0  0  0  0  0  0
   49.6422   10.6434   15.3192 C   0  0  0  0  0  0  0  0  0  0  0  0
   50.3541   11.8214   15.7400 O   0  0  0  0  0  0  0  0  0  0  0  0
  1  2  1  1  0  0  0
  1  3  1  0  0  0  0
  1  4  2  0  0  0  0
  1 16  1  0  0  0  0
  5  6  1  6  0  0  0
  5  7  1  0  0  0  0
  5 14  1  0  0  0  0
  7  8  1  1  0  0  0
  7  9  1  0  0  0  0
  9 10  1  6  0  0  0
  9 11  1  0  0  0  0
 11 12  1  6  0  0  0
 11 13  1  0  0  0  0
 13 14  1  0  0  0  0
 13 15  1  1  0  0  0
 15 16  1  0  0  0  0
M  CHG  1   3  -1
M  END
>  <CHROM.1>
61.69572653,-179.15166960,-179.52189110,48.75173161,11.55228249,15.72203911
-0.14499037,-0.10433631,2.10501270

>  <Name>
ligand

>  <RI>
0

>  <Rbt.Current_Directory>
/home/itssahil/PROJECTS/Mol_Feturizer/New_Systems/rnas/3B4C

>  <Rbt.Executable>
rbdock ($Id: //depot/dev/client3/rdock/2013.1/src/exe/rbdock.cxx#4 $)

>  <Rbt.Library>
libRbt.so (2013.1, Build901 2013/11/27)

>  <Rbt.Parameter_File>
/export/apps/rDock/src/rDock_2013.1_src/data/scripts/dock_solv.prm

>  <Rbt.Receptor>
prm/pocket_docking_3.prm

>  <SCORE>
-12.183

>  <SCORE.INTER>
-10.6616

>  <SCORE.INTER.CONST>
1

>  <SCORE.INTER.POLAR>
-1.29839

>  <SCORE.INTER.ROT>
3

>  <SCORE.INTER.SOLV>
17.8127

>  <SCORE.INTER.VDW>
-14.3174

>  <SCORE.INTER.norm>
-0.666352

>  <SCORE.INTRA>
-1.52138

>  <SCORE.INTRA.DIHEDRAL>
-2.11425

>  <SCORE.INTRA.DIHEDRAL.0>
2.1318

>  <SCORE.INTRA.POLAR>
0

>  <SCORE.INTRA.POLAR.0>
0

>  <SCORE.INTRA.REPUL>
0

>  <SCORE.INTRA.REPUL.0>
0

>  <SCORE.INTRA.SOLV>
-0.173936

>  <SCORE.INTRA.SOLV.lig_0>
-58.6125

>  <SCORE.INTRA.VDW>
-0.377291

>  <SCORE.INTRA.VDW.0>
-0.432734

>  <SCORE.INTRA.norm>
-0.0950864

>  <SCORE.RESTR>
0

>  <SCORE.RESTR.CAVITY>
0

>  <SCORE.RESTR.norm>
0

>  <SCORE.SYSTEM>
0

>  <SCORE.SYSTEM.CONST>
0

>  <SCORE.SYSTEM.DIHEDRAL>
0

>  <SCORE.SYSTEM.SOLV>
0

>  <SCORE.SYSTEM.norm>
0

>  <SCORE.heavy>
16

>  <SCORE.norm>
-0.761438

>  <RMSD>
0.541

$$$$
ligand
 OpenBabel11021811463D
libRbt.so/2013.1/901 2013/11/27
 16 16  0  0  0  0  0  0  0  0999 V2000
   51.9251   11.7538   15.3672 P   0  0  2  0  0  0  0  0  0  0  0  0
   52.6312   12.9436   15.9032 O   0  0  0  0  0  0  0  0  0  0  0  0
   52.5874   10.4182   15.9725 O   0  5  0  0  0  0  0  0  0  0  0  0
   52.0783   11.7313   13.7624 O   0  0  0  0  0  0  0  0  0  0  0  0
   46.6654   10.7746   17.5398 C   0  0  2  0  0  0  0  0  0  0  0  0
   46.0185    9.5690   17.1155 O   0  0  0  0  0  0  0  0  0  0  0  0
   45.9410   12.0175   16.9615 C   0  0  2  0  0  0  0  0  0  0  0  0
   44.5321   12.0223   17.3992 N   0  0  0  0  0  0  0  0  0  0  0  0
   46.0147   11.9577   15.4264 C   0  0  1  0  0  0  0  0  0  0  0  0
   45.3706   13.1009   14.8576 O   0  0  0  0  0  0  0  0  0  0  0  0
   47.4893   11.9519   15.0271 C   0  0  2  0  0  0  0  0  0  0  0  0
   47.5804   11.8945   13.6093 O   0  0  0  0  0  0  0  0  0  0  0  0
   48.1719   10.7068   15.6562 C   0  0  2  0  0  0  0  0  0  0  0  0
   48.0620   10.7494   17.1121 O   0  0  0  0  0  0  0  0  0  0  0  0
   49.6747   10.6611   15.2844 C   0  0  0  0  0  0  0  0  0  0  0  0
   50.3603   11.8247   15.7818 O   0  0  0  0  0  0  0  0  0  0  0  0
  1  2  1  1  0  0  0
  1  3  1  0  0  0  0
  1  4  2  0  0  0  0
  1 16  1  0  0  0  0
  5  6  1  6  0  0  0
  5  7  1  0  0  0  0
  5 14  1  0  0  0  0
  7  8  1  6  0  0  0
  7  9  1  0  0  0  0
  9 10  1  6  0  0  0
  9 11  1  0  0  0  0
 11 12  1  6  0  0  0
 11 13  1  0  0  0  0
 13 14  1  0  0  0  0
 13 15  1  1  0  0  0
 15 16  1  0  0  0  0
M  CHG  1   3  -1
M  END
>  <CHROM.1>
60.98367725,-179.54174422,-179.00413903,48.76584342,11.52349516,15.74512482
-0.14997619,-0.08670057,2.17914549

>  <Name>
ligand

>  <RI>
0

>  <Rbt.Current_Directory>
/home/itssahil/PROJECTS/Mol_Feturizer/New_Systems/rnas/3B4C

>  <Rbt.Executable>
rbdock ($Id: //depot/dev/client3/rdock/2013.1/src/exe/rbdock.cxx#4 $)

>  <Rbt.Library>
libRbt.so (2013.1, Build901 2013/11/27)

>  <Rbt.Parameter_File>
/export/apps/rDock/src/rDock_2013.1_src/data/scripts/dock_solv.prm

>  <Rbt.Receptor>
prm/pocket_docking_7.prm

>  <SCORE>
-12.0102

>  <SCORE.INTER>
-10.4888

>  <SCORE.INTER.CONST>
1

>  <SCORE.INTER.POLAR>
-1.29904

>  <SCORE.INTER.ROT>
3

>  <SCORE.INTER.SOLV>
17.8109

>  <SCORE.INTER.VDW>
-14.1994

>  <SCORE.INTER.norm>
-0.655549

>  <SCORE.INTRA>
-1.52142

>  <SCORE.INTRA.DIHEDRAL>
-2.12248

>  <SCORE.INTRA.DIHEDRAL.0>
2.1318

>  <SCORE.INTRA.POLAR>
0

>  <SCORE.INTRA.POLAR.0>
0

>  <SCORE.INTRA.REPUL>
0

>  <SCORE.INTRA.REPUL.0>
0

>  <SCORE.INTRA.SOLV>
-0.173661

>  <SCORE.INTRA.SOLV.lig_0>
-58.6125

>  <SCORE.INTRA.VDW>
-0.373346

>  <SCORE.INTRA.VDW.0>
-0.432734

>  <SCORE.INTRA.norm>
-0.0950886

>  <SCORE.RESTR>
0

>  <SCORE.RESTR.CAVITY>
0

>  <SCORE.RESTR.norm>
0

>  <SCORE.SYSTEM>
0

>  <SCORE.SYSTEM.CONST>
0

>  <SCORE.SYSTEM.DIHEDRAL>
0

>  <SCORE.SYSTEM.SOLV>
0

>  <SCORE.SYSTEM.norm>
0

>  <SCORE.heavy>
16

>  <SCORE.norm>
-0.750638

>  <RMSD>
0.541

$$$$
ligand
 OpenBabel11021811463D
libRbt.so/2013.1/901 2013/11/27
 16 16  0  0  0  0  0  0  0  0999 V2000
   52.0022   11.7180   15.2658 P   0  0  2  0  0  0  0  0  0  0  0  0
   52.7045   12.9708   15.6381 O   0  0  0  0  0  0  0  0  0  0  0  0
   52.7206   10.4671   15.9785 O   0  5  0  0  0  0  0  0  0  0  0  0
   52.0842   11.5255   13.6671 O   0  0  0  0  0  0  0  0  0  0  0  0
   46.8182   10.7537   17.7156 C   0  0  2  0  0  0  0  0  0  0  0  0
   46.1409    9.5597   17.3064 O   0  0  0  0  0  0  0  0  0  0  0  0
   46.1019   12.0093   17.1549 C   0  0  2  0  0  0  0  0  0  0  0  0
   44.7039   12.0379   17.6258 N   0  0  0  0  0  0  0  0  0  0  0  0
   46.1382   11.9493   15.6185 C   0  0  1  0  0  0  0  0  0  0  0  0
   45.5005   13.1037   15.0654 O   0  0  0  0  0  0  0  0  0  0  0  0
   47.6026   11.9185   15.1845 C   0  0  2  0  0  0  0  0  0  0  0  0
   47.6592   11.8604   13.7649 O   0  0  0  0  0  0  0  0  0  0  0  0
   48.2785   10.6614   15.7969 C   0  0  2  0  0  0  0  0  0  0  0  0
   48.2037   10.7049   17.2550 O   0  0  0  0  0  0  0  0  0  0  0  0
   49.7710   10.5902   15.3897 C   0  0  0  0  0  0  0  0  0  0  0  0
   50.4561   11.8056   15.7430 O   0  0  0  0  0  0  0  0  0  0  0  0
  1  2  1  1  0  0  0
  1  3  1  0  0  0  0
  1  4  2  0  0  0  0
  1 16  1  0  0  0  0
  5  6  1  6  0  0  0
  5  7  1  0  0  0  0
  5 14  1  0  0  0  0
  7  8  1  6  0  0  0
  7  9  1  0  0  0  0
  9 10  1  6  0  0  0
  9 11  1  0  0  0  0
 11 12  1  6  0  0  0
 11 13  1  0  0  0  0
 13 14  1  0  0  0  0
 13 15  1  1  0  0  0
 15 16  1  0  0  0  0
M  CHG  1   3  -1
M  END
>  <CHROM.1>
54.73252908,-178.34107180,-179.74425834,48.87371654,11.49516507,15.81478797
-0.19006150,-0.12231881,2.19260087

>  <Name>
ligand

>  <RI>
0

>  <Rbt.Current_Directory>
/home/itssahil/PROJECTS/Mol_Feturizer/New_Systems/rnas/3B4C

>  <Rbt.Executable>
rbdock ($Id: //depot/dev/client3/rdock/2013.1/src/exe/rbdock.cxx#4 $)

>  <Rbt.Library>
libRbt.so (2013.1, Build901 2013/11/27)

>  <Rbt.Parameter_File>
/export/apps/rDock/src/rDock_2013.1_src/data/scripts/dock_solv.prm

>  <Rbt.Receptor>
prm/pocket_docking_2.prm

>  <SCORE>
-12.0967

>  <SCORE.INTER>
-10.6588

>  <SCORE.INTER.CONST>
1

>  <SCORE.INTER.POLAR>
-1.29904

>  <SCORE.INTER.ROT>
3

>  <SCORE.INTER.SOLV>
18.9036

>  <SCORE.INTER.VDW>
-14.6769

>  <SCORE.INTER.norm>
-0.666174

>  <SCORE.INTRA>
-1.43788

>  <SCORE.INTRA.DIHEDRAL>
-2.01756

>  <SCORE.INTRA.DIHEDRAL.0>
2.1318

>  <SCORE.INTRA.POLAR>
0

>  <SCORE.INTRA.POLAR.0>
0

>  <SCORE.INTRA.REPUL>
0

>  <SCORE.INTRA.REPUL.0>
0

>  <SCORE.INTRA.SOLV>
-0.169944

>  <SCORE.INTRA.SOLV.lig_0>
-58.6125

>  <SCORE.INTRA.VDW>
-0.34413

>  <SCORE.INTRA.VDW.0>
-0.432734

>  <SCORE.INTRA.norm>
-0.0898675

>  <SCORE.RESTR>
0

>  <SCORE.RESTR.CAVITY>
0

>  <SCORE.RESTR.norm>
0

>  <SCORE.SYSTEM>
0

>  <SCORE.SYSTEM.CONST>
0

>  <SCORE.SYSTEM.DIHEDRAL>
0

>  <SCORE.SYSTEM.SOLV>
0

>  <SCORE.SYSTEM.norm>
0

>  <SCORE.heavy>
16

>  <SCORE.norm>
-0.756041

>  <RMSD>
0.542

$$$$
ligand
 OpenBabel11021811463D
libRbt.so/2013.1/901 2013/11/27
 16 16  0  0  0  0  0  0  0  0999 V2000
   51.8710   11.7302   15.0150 P   0  0  2  0  0  0  0  0  0  0  0  0
   52.5486   13.0290   15.2505 O   0  0  0  0  0  0  0  0  0  0  0  0
   52.6853   10.5572   15.7567 O   0  5  0  0  0  0  0  0  0  0  0  0
   51.8490   11.4293   13.4312 O   0  0  0  0  0  0  0  0  0  0  0  0
   46.8170   10.9139   17.7152 C   0  0  2  0  0  0  0  0  0  0  0  0
   46.1675    9.6592   17.4788 O   0  0  0  0  0  0  0  0  0  0  0  0
   46.0283   12.0724   17.0520 C   0  0  2  0  0  0  0  0  0  0  0  0
   44.6534   12.1096   17.5858 N   0  0  0  0  0  0  0  0  0  0  0  0
   45.9963   11.8367   15.5325 C   0  0  1  0  0  0  0  0  0  0  0  0
   45.2904   12.8982   14.8843 O   0  0  0  0  0  0  0  0  0  0  0  0
   47.4394   11.8038   15.0321 C   0  0  2  0  0  0  0  0  0  0  0  0
   47.4328   11.5842   13.6273 O   0  0  0  0  0  0  0  0  0  0  0  0
   48.1900   10.6484   15.7489 C   0  0  2  0  0  0  0  0  0  0  0  0
   48.1807   10.8574   17.1945 O   0  0  0  0  0  0  0  0  0  0  0  0
   49.6639   10.5793   15.2783 C   0  0  0  0  0  0  0  0  0  0  0  0
   50.3598   11.7986   15.5956 O   0  0  0  0  0  0  0  0  0  0  0  0
  1  2  1  1  0  0  0
  1  3  1  0  0  0  0
  1  4  2  0  0  0  0
  1 16  1  0  0  0  0
  5  6  1  6  0  0  0
  5  7  1  0  0  0  0
  5 14  1  0  0  0  0
  7  8  1  1  0  0  0
  7  9  1  0  0  0  0
  9 10  1  6  0  0  0
  9 11  1  0  0  0  0
 11 12  1  6  0  0  0
 11 13  1  0  0  0  0
 13 14  1  0  0  0  0
 13 15  1  6  0  0  0
 15 16  1  0  0  0  0
M  CHG  1   3  -1
M  END
>  <CHROM.1>
61.28557900,-176.70431494,175.57270484,48.76400342,11.48743759,15.67930486
-0.23155124,-0.11113133,2.06150843

>  <Name>
ligand

>  <RI>
0

>  <Rbt.Current_Directory>
/home/itssahil/PROJECTS/Mol_Feturizer/New_Systems/rnas/3B4C

>  <Rbt.Executable>
rbdock ($Id: //depot/dev/client3/rdock/2013.1/src/exe/rbdock.cxx#4 $)

>  <Rbt.Library>
libRbt.so (2013.1, Build901 2013/11/27)

>  <Rbt.Parameter_File>
/export/apps/rDock/src/rDock_2013.1_src/data/scripts/dock_solv.prm

>  <Rbt.Receptor>
prm/pocket_docking_2.prm

>  <SCORE>
-12.1263

>  <SCORE.INTER>
-10.644

>  <SCORE.INTER.CONST>
1

>  <SCORE.INTER.POLAR>
-1.29904

>  <SCORE.INTER.ROT>
3

>  <SCORE.INTER.SOLV>
18.0379

>  <SCORE.INTER.VDW>
-14.3785

>  <SCORE.INTER.norm>
-0.665252

>  <SCORE.INTRA>
-1.48225

>  <SCORE.INTRA.DIHEDRAL>
-2.03859

>  <SCORE.INTRA.DIHEDRAL.0>
2.1318

>  <SCORE.INTRA.POLAR>
0

>  <SCORE.INTRA.POLAR.0>
0

>  <SCORE.INTRA.REPUL>
0

>  <SCORE.INTRA.REPUL.0>
0

>  <SCORE.INTRA.SOLV>
-0.172755

>  <SCORE.INTRA.SOLV.lig_0>
-58.6125

>  <SCORE.INTRA.VDW>
-0.376581

>  <SCORE.INTRA.VDW.0>
-0.432734

>  <SCORE.INTRA.norm>
-0.0926409

>  <SCORE.RESTR>
0

>  <SCORE.RESTR.CAVITY>
0

>  <SCORE.RESTR.norm>
0

>  <SCORE.SYSTEM>
0

>  <SCORE.SYSTEM.CONST>
0

>  <SCORE.SYSTEM.DIHEDRAL>
0

>  <SCORE.SYSTEM.SOLV>
0

>  <SCORE.SYSTEM.norm>
0

>  <SCORE.heavy>
16

>  <SCORE.norm>
-0.757893

>  <RMSD>
0.543

$$$$
ligand
 OpenBabel11021811463D
libRbt.so/2013.1/901 2013/11/27
 16 16  0  0  0  0  0  0  0  0999 V2000
   51.8782   11.8135   15.0195 P   0  0  2  0  0  0  0  0  0  0  0  0
   52.5561   13.0907   15.3518 O   0  0  0  0  0  0  0  0  0  0  0  0
   52.6921   10.5879   15.6710 O   0  5  0  0  0  0  0  0  0  0  0  0
   51.8560   11.6324   13.4176 O   0  0  0  0  0  0  0  0  0  0  0  0
   46.8399   10.8775   17.7381 C   0  0  2  0  0  0  0  0  0  0  0  0
   46.2371    9.5951   17.5291 O   0  0  0  0  0  0  0  0  0  0  0  0
   46.0203   11.9894   17.0339 C   0  0  2  0  0  0  0  0  0  0  0  0
   44.6383   11.9934   17.5505 N   0  0  0  0  0  0  0  0  0  0  0  0
   46.0155   11.7113   15.5212 C   0  0  1  0  0  0  0  0  0  0  0  0
   45.2817   12.7295   14.8357 O   0  0  0  0  0  0  0  0  0  0  0  0
   47.4650   11.7148   15.0388 C   0  0  2  0  0  0  0  0  0  0  0  0
   47.4837   11.4568   13.6406 O   0  0  0  0  0  0  0  0  0  0  0  0
   48.2459   10.6063   15.7960 C   0  0  2  0  0  0  0  0  0  0  0  0
   48.2112   10.8542   17.2350 O   0  0  0  0  0  0  0  0  0  0  0  0
   49.7271   10.5756   15.3446 C   0  0  0  0  0  0  0  0  0  0  0  0
   50.3670   11.8385   15.6037 O   0  0  0  0  0  0  0  0  0  0  0  0
  1  2  1  1  0  0  0
  1  3  1  0  0  0  0
  1  4  2  0  0  0  0
  1 16  1  0  0  0  0
  5  6  1  6  0  0  0
  5  7  1  0  0  0  0
  5 14  1  0  0  0  0
  7  8  1  1  0  0  0
  7  9  1  0  0  0  0
  9 10  1  6  0  0  0
  9 11  1  0  0  0  0
 11 12  1  6  0  0  0
 11 13  1  0  0  0  0
 13 14  1  0  0  0  0
 13 15  1  6  0  0  0
 15 16  1  0  0  0  0
M  CHG  1   3  -1
M  END
>  <CHROM.1>
59.76178361,-175.70837510,-177.05695499,48.78437495,11.46983727,15.68818044
-0.24818225,-0.07869304,2.04177520

>  <Name>
ligand

>  <RI>
0

>  <Rbt.Current_Directory>
/home/itssahil/PROJECTS/Mol_Feturizer/New_Systems/rnas/3B4C

>  <Rbt.Executable>
rbdock ($Id: //depot/dev/client3/rdock/2013.1/src/exe/rbdock.cxx#4 $)

>  <Rbt.Library>
libRbt.so (2013.1, Build901 2013/11/27)

>  <Rbt.Parameter_File>
/export/apps/rDock/src/rDock_2013.1_src/data/scripts/dock_solv.prm

>  <Rbt.Receptor>
prm/pocket_docking_5.prm

>  <SCORE>
-12.1743

>  <SCORE.INTER>
-10.7199

>  <SCORE.INTER.CONST>
1

>  <SCORE.INTER.POLAR>
-1.29904

>  <SCORE.INTER.ROT>
3

>  <SCORE.INTER.SOLV>
17.926

>  <SCORE.INTER.VDW>
-14.3918

>  <SCORE.INTER.norm>
-0.669993

>  <SCORE.INTRA>
-1.45445

>  <SCORE.INTRA.DIHEDRAL>
-2.02355

>  <SCORE.INTRA.DIHEDRAL.0>
2.1318

>  <SCORE.INTRA.POLAR>
0

>  <SCORE.INTRA.POLAR.0>
0

>  <SCORE.INTRA.REPUL>
0

>  <SCORE.INTRA.REPUL.0>
0

>  <SCORE.INTRA.SOLV>
-0.139545

>  <SCORE.INTRA.SOLV.lig_0>
-58.6125

>  <SCORE.INTRA.VDW>
-0.372906

>  <SCORE.INTRA.VDW.0>
-0.432734

>  <SCORE.INTRA.norm>
-0.0909033

>  <SCORE.RESTR>
0

>  <SCORE.RESTR.CAVITY>
0

>  <SCORE.RESTR.norm>
0

>  <SCORE.SYSTEM>
0

>  <SCORE.SYSTEM.CONST>
0

>  <SCORE.SYSTEM.DIHEDRAL>
0

>  <SCORE.SYSTEM.SOLV>
0

>  <SCORE.SYSTEM.norm>
0

>  <SCORE.heavy>
16

>  <SCORE.norm>
-0.760896

>  <RMSD>
0.545

$$$$
ligand
 OpenBabel11021811463D
libRbt.so/2013.1/901 2013/11/27
 16 16  0  0  0  0  0  0  0  0999 V2000
   51.8801   11.7002   15.2711 P   0  0  2  0  0  0  0  0  0  0  0  0
   52.6159   12.9099   15.7142 O   0  0  0  0  0  0  0  0  0  0  0  0
   52.5236   10.3970   15.9614 O   0  5  0  0  0  0  0  0  0  0  0  0
   52.0130   11.5621   13.6702 O   0  0  0  0  0  0  0  0  0  0  0  0
   46.6251   10.9827   17.5722 C   0  0  2  0  0  0  0  0  0  0  0  0
   45.9494    9.7637   17.2412 O   0  0  0  0  0  0  0  0  0  0  0  0
   45.9224   12.1956   16.9095 C   0  0  2  0  0  0  0  0  0  0  0  0
   44.5175   12.2627   17.3550 N   0  0  0  0  0  0  0  0  0  0  0  0
   45.9823   12.0227   15.3825 C   0  0  1  0  0  0  0  0  0  0  0  0
   45.3578   13.1351   14.7360 O   0  0  0  0  0  0  0  0  0  0  0  0
   47.4532   11.9560   14.9750 C   0  0  2  0  0  0  0  0  0  0  0  0
   47.5314   11.7935   13.5646 O   0  0  0  0  0  0  0  0  0  0  0  0
   48.1145   10.7454   15.6887 C   0  0  2  0  0  0  0  0  0  0  0  0
   48.0173   10.8963   17.1382 O   0  0  0  0  0  0  0  0  0  0  0  0
   49.6128   10.6403   15.3113 C   0  0  0  0  0  0  0  0  0  0  0  0
   50.3222   11.8318   15.6968 O   0  0  0  0  0  0  0  0  0  0  0  0
  1  2  1  1  0  0  0
  1  3  1  0  0  0  0
  1  4  2  0  0  0  0
  1 16  1  0  0  0  0
  5  6  1  6  0  0  0
  5  7  1  0  0  0  0
  5 14  1  0  0  0  0
  7  8  1  1  0  0  0
  7  9  1  0  0  0  0
  9 10  1  6  0  0  0
  9 11  1  0  0  0  0
 11 12  1  6  0  0  0
 11 13  1  0  0  0  0
 13 14  1  0  0  0  0
 13 15  1  1  0  0  0
 15 16  1  0  0  0  0
M  CHG  1   3  -1
M  END
>  <CHROM.1>
59.96696171,-179.22200066,-177.98547179,48.72379548,11.55828006,15.70319950
-0.15023522,-0.10984371,2.10994258

>  <Name>
ligand

>  <RI>
0

>  <Rbt.Current_Directory>
/home/itssahil/PROJECTS/Mol_Feturizer/New_Systems/rnas/3B4C

>  <Rbt.Executable>
rbdock ($Id: //depot/dev/client3/rdock/2013.1/src/exe/rbdock.cxx#4 $)

>  <Rbt.Library>
libRbt.so (2013.1, Build901 2013/11/27)

>  <Rbt.Parameter_File>
/export/apps/rDock/src/rDock_2013.1_src/data/scripts/dock_solv.prm

>  <Rbt.Receptor>
prm/pocket_docking_2.prm

>  <SCORE>
-12.2031

>  <SCORE.INTER>
-10.6894

>  <SCORE.INTER.CONST>
1

>  <SCORE.INTER.POLAR>
-1.29904

>  <SCORE.INTER.ROT>
3

>  <SCORE.INTER.SOLV>
17.6966

>  <SCORE.INTER.VDW>
-14.295

>  <SCORE.INTER.norm>
-0.668089

>  <SCORE.INTRA>
-1.51369

>  <SCORE.INTRA.DIHEDRAL>
-2.11902

>  <SCORE.INTRA.DIHEDRAL.0>
2.1318

>  <SCORE.INTRA.POLAR>
0

>  <SCORE.INTRA.POLAR.0>
0

>  <SCORE.INTRA.REPUL>
0

>  <SCORE.INTRA.REPUL.0>
0

>  <SCORE.INTRA.SOLV>
-0.172979

>  <SCORE.INTRA.SOLV.lig_0>
-58.6125

>  <SCORE.INTRA.VDW>
-0.367692

>  <SCORE.INTRA.VDW.0>
-0.432734

>  <SCORE.INTRA.norm>
-0.0946058

>  <SCORE.RESTR>
0

>  <SCORE.RESTR.CAVITY>
0

>  <SCORE.RESTR.norm>
0

>  <SCORE.SYSTEM>
0

>  <SCORE.SYSTEM.CONST>
0

>  <SCORE.SYSTEM.DIHEDRAL>
0

>  <SCORE.SYSTEM.SOLV>
0

>  <SCORE.SYSTEM.norm>
0

>  <SCORE.heavy>
16

>  <SCORE.norm>
-0.762695

>  <RMSD>
0.554

$$$$
ligand
 OpenBabel11021811463D
libRbt.so/2013.1/901 2013/11/27
 16 16  0  0  0  0  0  0  0  0999 V2000
   51.9025   11.8244   15.0330 P   0  0  2  0  0  0  0  0  0  0  0  0
   52.5944   13.0765   15.4266 O   0  0  0  0  0  0  0  0  0  0  0  0
   52.6492   10.5652   15.7006 O   0  5  0  0  0  0  0  0  0  0  0  0
   51.9602   11.6750   13.4287 O   0  0  0  0  0  0  0  0  0  0  0  0
   46.8749   10.8796   17.7263 C   0  0  2  0  0  0  0  0  0  0  0  0
   46.2723    9.5978   17.5120 O   0  0  0  0  0  0  0  0  0  0  0  0
   46.0422   11.9968   17.0462 C   0  0  2  0  0  0  0  0  0  0  0  0
   44.6679   11.9913   17.5828 N   0  0  0  0  0  0  0  0  0  0  0  0
   46.0162   11.7352   15.5309 C   0  0  1  0  0  0  0  0  0  0  0  0
   45.2699   12.7588   14.8672 O   0  0  0  0  0  0  0  0  0  0  0  0
   47.4586   11.7480   15.0275 C   0  0  2  0  0  0  0  0  0  0  0  0
   47.4576   11.5053   13.6265 O   0  0  0  0  0  0  0  0  0  0  0  0
   48.2532   10.6334   15.7612 C   0  0  2  0  0  0  0  0  0  0  0  0
   48.2388   10.8655   17.2032 O   0  0  0  0  0  0  0  0  0  0  0  0
   49.7278   10.6116   15.2882 C   0  0  0  0  0  0  0  0  0  0  0  0
   50.3637   11.8785   15.5378 O   0  0  0  0  0  0  0  0  0  0  0  0
  1  2  1  1  0  0  0
  1  3  1  0  0  0  0
  1  4  2  0  0  0  0
  1 16  1  0  0  0  0
  5  6  1  6  0  0  0
  5  7  1  0  0  0  0
  5 14  1  0  0  0  0
  7  8  1  1  0  0  0
  7  9  1  0  0  0  0
  9 10  1  6  0  0  0
  9 11  1  0  0  0  0
 11 12  1  6  0  0  0
 11 13  1  0  0  0  0
 13 14  1  0  0  0  0
 13 15  1  6  0  0  0
 15 16  1  0  0  0  0
M  CHG  1   3  -1
M  END
>  <CHROM.1>
59.10318492,179.99786012,-173.81407700,48.79974477,11.48663899,15.68779744
-0.24440489,-0.07869135,2.04341859

>  <Name>
ligand

>  <RI>
0

>  <Rbt.Current_Directory>
/home/itssahil/PROJECTS/Mol_Feturizer/New_Systems/rnas/3B4C

>  <Rbt.Executable>
rbdock ($Id: //depot/dev/client3/rdock/2013.1/src/exe/rbdock.cxx#4 $)

>  <Rbt.Library>
libRbt.so (2013.1, Build901 2013/11/27)

>  <Rbt.Parameter_File>
/export/apps/rDock/src/rDock_2013.1_src/data/scripts/dock_solv.prm

>  <Rbt.Receptor>
prm/pocket_docking_4.prm

>  <SCORE>
-12.1481

>  <SCORE.INTER>
-10.6918

>  <SCORE.INTER.CONST>
1

>  <SCORE.INTER.POLAR>
-1.29904

>  <SCORE.INTER.ROT>
3

>  <SCORE.INTER.SOLV>
17.9889

>  <SCORE.INTER.VDW>
-14.394

>  <SCORE.INTER.norm>
-0.668239

>  <SCORE.INTRA>
-1.4563

>  <SCORE.INTRA.DIHEDRAL>
-2.06247

>  <SCORE.INTRA.DIHEDRAL.0>
2.1318

>  <SCORE.INTRA.POLAR>
0

>  <SCORE.INTRA.POLAR.0>
0

>  <SCORE.INTRA.REPUL>
0

>  <SCORE.INTRA.REPUL.0>
0

>  <SCORE.INTRA.SOLV>
-0.17487

>  <SCORE.INTRA.SOLV.lig_0>
-58.6125

>  <SCORE.INTRA.VDW>
-0.33763

>  <SCORE.INTRA.VDW.0>
-0.432734

>  <SCORE.INTRA.norm>
-0.0910187

>  <SCORE.RESTR>
0

>  <SCORE.RESTR.CAVITY>
0

>  <SCORE.RESTR.norm>
0

>  <SCORE.SYSTEM>
0

>  <SCORE.SYSTEM.CONST>
0

>  <SCORE.SYSTEM.DIHEDRAL>
0

>  <SCORE.SYSTEM.SOLV>
0

>  <SCORE.SYSTEM.norm>
0

>  <SCORE.heavy>
16

>  <SCORE.norm>
-0.759258

>  <RMSD>
0.555

$$$$
ligand
 OpenBabel11021811463D
libRbt.so/2013.1/901 2013/11/27
 16 16  0  0  0  0  0  0  0  0999 V2000
   51.9031   11.8077   15.1213 P   0  0  2  0  0  0  0  0  0  0  0  0
   52.6263   13.0424   15.5134 O   0  0  0  0  0  0  0  0  0  0  0  0
   52.6284   10.5294   15.7761 O   0  5  0  0  0  0  0  0  0  0  0  0
   51.9417   11.6643   13.5159 O   0  0  0  0  0  0  0  0  0  0  0  0
   46.7507   10.9765   17.6448 C   0  0  2  0  0  0  0  0  0  0  0  0
   46.0843    9.7476   17.3324 O   0  0  0  0  0  0  0  0  0  0  0  0
   46.0096   12.1792   17.0059 C   0  0  2  0  0  0  0  0  0  0  0  0
   44.6179   12.2238   17.4940 N   0  0  0  0  0  0  0  0  0  0  0  0
   46.0257   12.0092   15.4774 C   0  0  1  0  0  0  0  0  0  0  0  0
   45.3647   13.1125   14.8522 O   0  0  0  0  0  0  0  0  0  0  0  0
   47.4843   11.9659   15.0253 C   0  0  2  0  0  0  0  0  0  0  0  0
   47.5222   11.8064   13.6129 O   0  0  0  0  0  0  0  0  0  0  0  0
   48.1857   10.7648   15.7165 C   0  0  2  0  0  0  0  0  0  0  0  0
   48.1303   10.9123   17.1686 O   0  0  0  0  0  0  0  0  0  0  0  0
   49.6734   10.6835   15.2936 C   0  0  0  0  0  0  0  0  0  0  0  0
   50.3709   11.8934   15.6416 O   0  0  0  0  0  0  0  0  0  0  0  0
  1  2  1  1  0  0  0
  1  3  1  0  0  0  0
  1  4  2  0  0  0  0
  1 16  1  0  0  0  0
  5  6  1  6  0  0  0
  5  7  1  0  0  0  0
  5 14  1  0  0  0  0
  7  8  1  1  0  0  0
  7  9  1  0  0  0  0
  9 10  1  6  0  0  0
  9 11  1  0  0  0  0
 11 12  1  6  0  0  0
 11 13  1  0  0  0  0
 13 14  1  0  0  0  0
 13 15  1  6  0  0  0
 15 16  1  0  0  0  0
M  CHG  1   3  -1
M  END
>  <CHROM.1>
59.10936287,-177.19319349,-178.55027115,48.77554705,11.59797599,15.68956269
-0.19754146,-0.11516013,2.11414880

>  <Name>
ligand

>  <RI>
0

>  <Rbt.Current_Directory>
/home/itssahil/PROJECTS/Mol_Feturizer/New_Systems/rnas/3B4C

>  <Rbt.Executable>
rbdock ($Id: //depot/dev/client3/rdock/2013.1/src/exe/rbdock.cxx#4 $)

>  <Rbt.Library>
libRbt.so (2013.1, Build901 2013/11/27)

>  <Rbt.Parameter_File>
/export/apps/rDock/src/rDock_2013.1_src/data/scripts/dock_solv.prm

>  <Rbt.Receptor>
prm/pocket_docking_2.prm

>  <SCORE>
-12.1855

>  <SCORE.INTER>
-10.6871

>  <SCORE.INTER.CONST>
1

>  <SCORE.INTER.POLAR>
-1.29867

>  <SCORE.INTER.ROT>
3

>  <SCORE.INTER.SOLV>
17.5808

>  <SCORE.INTER.VDW>
-14.2561

>  <SCORE.INTER.norm>
-0.667946

>  <SCORE.INTRA>
-1.49836

>  <SCORE.INTRA.DIHEDRAL>
-2.084

>  <SCORE.INTRA.DIHEDRAL.0>
2.1318

>  <SCORE.INTRA.POLAR>
0

>  <SCORE.INTRA.POLAR.0>
0

>  <SCORE.INTRA.REPUL>
0

>  <SCORE.INTRA.REPUL.0>
0

>  <SCORE.INTRA.SOLV>
-0.170201

>  <SCORE.INTRA.SOLV.lig_0>
-58.6125

>  <SCORE.INTRA.VDW>
-0.371261

>  <SCORE.INTRA.VDW.0>
-0.432734

>  <SCORE.INTRA.norm>
-0.0936477

>  <SCORE.RESTR>
0

>  <SCORE.RESTR.CAVITY>
0

>  <SCORE.RESTR.norm>
0

>  <SCORE.SYSTEM>
0

>  <SCORE.SYSTEM.CONST>
0

>  <SCORE.SYSTEM.DIHEDRAL>
0

>  <SCORE.SYSTEM.SOLV>
0

>  <SCORE.SYSTEM.norm>
0

>  <SCORE.heavy>
16

>  <SCORE.norm>
-0.761594

>  <RMSD>
0.557

$$$$
ligand
 OpenBabel11021811463D
libRbt.so/2013.1/901 2013/11/27
 16 16  0  0  0  0  0  0  0  0999 V2000
   51.9291   11.8314   15.0952 P   0  0  2  0  0  0  0  0  0  0  0  0
   52.6481   13.0595   15.5149 O   0  0  0  0  0  0  0  0  0  0  0  0
   52.6386   10.5436   15.7488 O   0  5  0  0  0  0  0  0  0  0  0  0
   51.9977   11.7061   13.4892 O   0  0  0  0  0  0  0  0  0  0  0  0
   46.7743   10.8881   17.5260 C   0  0  2  0  0  0  0  0  0  0  0  0
   46.0945    9.6921   17.1269 O   0  0  0  0  0  0  0  0  0  0  0  0
   46.0359   12.1422   16.9913 C   0  0  2  0  0  0  0  0  0  0  0  0
   44.6502   12.1589   17.4975 N   0  0  0  0  0  0  0  0  0  0  0  0
   46.0337   12.0915   15.4541 C   0  0  1  0  0  0  0  0  0  0  0  0
   45.3749   13.2449   14.9242 O   0  0  0  0  0  0  0  0  0  0  0  0
   47.4869   12.0729   14.9830 C   0  0  2  0  0  0  0  0  0  0  0  0
   47.5078   12.0235   13.5621 O   0  0  0  0  0  0  0  0  0  0  0  0
   48.1861   10.8167   15.5705 C   0  0  2  0  0  0  0  0  0  0  0  0
   48.1480   10.8512   17.0303 O   0  0  0  0  0  0  0  0  0  0  0  0
   49.6682   10.7577   15.1252 C   0  0  0  0  0  0  0  0  0  0  0  0
   50.3876   11.9154   15.5874 O   0  0  0  0  0  0  0  0  0  0  0  0
  1  2  1  1  0  0  0
  1  3  1  0  0  0  0
  1  4  2  0  0  0  0
  1 16  1  0  0  0  0
  5  6  1  6  0  0  0
  5  7  1  0  0  0  0
  5 14  1  0  0  0  0
  7  8  1  1  0  0  0
  7  9  1  0  0  0  0
  9 10  1  6  0  0  0
  9 11  1  0  0  0  0
 11 12  1  6  0  0  0
 11 13  1  0  0  0  0
 13 14  1  0  0  0  0
 13 15  1  1  0  0  0
 15 16  1  0  0  0  0
M  CHG  1   3  -1
M  END
>  <CHROM.1>
60.58418083,-179.48986394,177.13868926,48.79155100,11.62819067,15.63212097
-0.18597219,-0.12347335,2.18086086

>  <Name>
ligand

>  <RI>
0

>  <Rbt.Current_Directory>
/home/itssahil/PROJECTS/Mol_Feturizer/New_Systems/rnas/3B4C

>  <Rbt.Executable>
rbdock ($Id: //depot/dev/client3/rdock/2013.1/src/exe/rbdock.cxx#4 $)

>  <Rbt.Library>
libRbt.so (2013.1, Build901 2013/11/27)

>  <Rbt.Parameter_File>
/export/apps/rDock/src/rDock_2013.1_src/data/scripts/dock_solv.prm

>  <Rbt.Receptor>
prm/pocket_docking_3.prm

>  <SCORE>
-12.1657

>  <SCORE.INTER>
-10.6495

>  <SCORE.INTER.CONST>
1

>  <SCORE.INTER.POLAR>
-1.29904

>  <SCORE.INTER.ROT>
3

>  <SCORE.INTER.SOLV>
17.0892

>  <SCORE.INTER.VDW>
-14.0659

>  <SCORE.INTER.norm>
-0.665594

>  <SCORE.INTRA>
-1.51615

>  <SCORE.INTRA.DIHEDRAL>
-2.11395

>  <SCORE.INTRA.DIHEDRAL.0>
2.1318

>  <SCORE.INTRA.POLAR>
0

>  <SCORE.INTRA.POLAR.0>
0

>  <SCORE.INTRA.REPUL>
0

>  <SCORE.INTRA.REPUL.0>
0

>  <SCORE.INTRA.SOLV>
-0.17406

>  <SCORE.INTRA.SOLV.lig_0>
-58.6125

>  <SCORE.INTRA.VDW>
-0.372149

>  <SCORE.INTRA.VDW.0>
-0.432734

>  <SCORE.INTRA.norm>
-0.0947596

>  <SCORE.RESTR>
0

>  <SCORE.RESTR.CAVITY>
0

>  <SCORE.RESTR.norm>
0

>  <SCORE.SYSTEM>
0

>  <SCORE.SYSTEM.CONST>
0

>  <SCORE.SYSTEM.DIHEDRAL>
0

>  <SCORE.SYSTEM.SOLV>
0

>  <SCORE.SYSTEM.norm>
0

>  <SCORE.heavy>
16

>  <SCORE.norm>
-0.760354

>  <RMSD>
0.559

$$$$
ligand
 OpenBabel11021811463D
libRbt.so/2013.1/901 2013/11/27
 16 16  0  0  0  0  0  0  0  0999 V2000
   51.8761   11.7872   15.1049 P   0  0  2  0  0  0  0  0  0  0  0  0
   52.5951   13.0194   15.5124 O   0  0  0  0  0  0  0  0  0  0  0  0
   52.5777   10.5071   15.7817 O   0  5  0  0  0  0  0  0  0  0  0  0
   51.9558   11.6390   13.5014 O   0  0  0  0  0  0  0  0  0  0  0  0
   46.7586   10.9440   17.6902 C   0  0  2  0  0  0  0  0  0  0  0  0
   46.1135    9.6933   17.4227 O   0  0  0  0  0  0  0  0  0  0  0  0
   45.9886   12.1116   17.0210 C   0  0  2  0  0  0  0  0  0  0  0  0
   44.6007   12.1449   17.5204 N   0  0  0  0  0  0  0  0  0  0  0  0
   45.9946   11.8938   15.4985 C   0  0  1  0  0  0  0  0  0  0  0  0
   45.3068   12.9640   14.8452 O   0  0  0  0  0  0  0  0  0  0  0  0
   47.4497   11.8642   15.0343 C   0  0  2  0  0  0  0  0  0  0  0  0
   47.4783   11.6611   13.6272 O   0  0  0  0  0  0  0  0  0  0  0  0
   48.1804   10.6993   15.7561 C   0  0  2  0  0  0  0  0  0  0  0  0
   48.1349   10.8913   17.2033 O   0  0  0  0  0  0  0  0  0  0  0  0
   49.6656   10.6331   15.3220 C   0  0  0  0  0  0  0  0  0  0  0  0
   50.3313   11.8818   15.5848 O   0  0  0  0  0  0  0  0  0  0  0  0
  1  2  1  1  0  0  0
  1  3  1  0  0  0  0
  1  4  2  0  0  0  0
  1 16  1  0  0  0  0
  5  6  1  6  0  0  0
  5  7  1  0  0  0  0
  5 14  1  0  0  0  0
  7  8  1  1  0  0  0
  7  9  1  0  0  0  0
  9 10  1  6  0  0  0
  9 11  1  0  0  0  0
 11 12  1  6  0  0  0
 11 13  1  0  0  0  0
 13 14  1  0  0  0  0
 13 15  1  6  0  0  0
 15 16  1  0  0  0  0
M  CHG  1   3  -1
M  END
>  <CHROM.1>
57.20532191,-179.34592628,-173.82113206,48.75536381,11.53986572,15.70147559
-0.21280597,-0.10300113,2.08076340

>  <Name>
ligand

>  <RI>
0

>  <Rbt.Current_Directory>
/home/itssahil/PROJECTS/Mol_Feturizer/New_Systems/rnas/3B4C

>  <Rbt.Executable>
rbdock ($Id: //depot/dev/client3/rdock/2013.1/src/exe/rbdock.cxx#4 $)

>  <Rbt.Library>
libRbt.so (2013.1, Build901 2013/11/27)

>  <Rbt.Parameter_File>
/export/apps/rDock/src/rDock_2013.1_src/data/scripts/dock_solv.prm

>  <Rbt.Receptor>
prm/pocket_docking_3.prm

>  <SCORE>
-12.1276

>  <SCORE.INTER>
-10.6934

>  <SCORE.INTER.CONST>
1

>  <SCORE.INTER.POLAR>
-1.29904

>  <SCORE.INTER.ROT>
3

>  <SCORE.INTER.SOLV>
17.8936

>  <SCORE.INTER.VDW>
-14.3633

>  <SCORE.INTER.norm>
-0.668335

>  <SCORE.INTRA>
-1.43423

>  <SCORE.INTRA.DIHEDRAL>
-2.03585

>  <SCORE.INTRA.DIHEDRAL.0>
2.1318

>  <SCORE.INTRA.POLAR>
0

>  <SCORE.INTRA.POLAR.0>
0

>  <SCORE.INTRA.REPUL>
0

>  <SCORE.INTRA.REPUL.0>
0

>  <SCORE.INTRA.SOLV>
-0.173517

>  <SCORE.INTRA.SOLV.lig_0>
-58.6125

>  <SCORE.INTRA.VDW>
-0.329545

>  <SCORE.INTRA.VDW.0>
-0.432734

>  <SCORE.INTRA.norm>
-0.0896393

>  <SCORE.RESTR>
0

>  <SCORE.RESTR.CAVITY>
0

>  <SCORE.RESTR.norm>
0

>  <SCORE.SYSTEM>
0

>  <SCORE.SYSTEM.CONST>
0

>  <SCORE.SYSTEM.DIHEDRAL>
0

>  <SCORE.SYSTEM.SOLV>
0

>  <SCORE.SYSTEM.norm>
0

>  <SCORE.heavy>
16

>  <SCORE.norm>
-0.757975

>  <RMSD>
0.560

$$$$
ligand
 OpenBabel11021811463D
libRbt.so/2013.1/901 2013/11/27
 16 16  0  0  0  0  0  0  0  0999 V2000
   51.8775   11.7725   15.1033 P   0  0  2  0  0  0  0  0  0  0  0  0
   52.5864   13.0231   15.4703 O   0  0  0  0  0  0  0  0  0  0  0  0
   52.6119   10.5170   15.7913 O   0  5  0  0  0  0  0  0  0  0  0  0
   51.9261   11.5922   13.5018 O   0  0  0  0  0  0  0  0  0  0  0  0
   46.7978   10.9418   17.7154 C   0  0  2  0  0  0  0  0  0  0  0  0
   46.1626    9.6796   17.4803 O   0  0  0  0  0  0  0  0  0  0  0  0
   45.9998   12.0898   17.0450 C   0  0  2  0  0  0  0  0  0  0  0  0
   44.6223   12.1141   17.5729 N   0  0  0  0  0  0  0  0  0  0  0  0
   45.9768   11.8489   15.5262 C   0  0  1  0  0  0  0  0  0  0  0  0
   45.2626   12.9008   14.8715 O   0  0  0  0  0  0  0  0  0  0  0  0
   47.4223   11.8297   15.0321 C   0  0  2  0  0  0  0  0  0  0  0  0
   47.4242   11.6055   13.6280 O   0  0  0  0  0  0  0  0  0  0  0  0
   48.1820   10.6846   15.7559 C   0  0  2  0  0  0  0  0  0  0  0  0
   48.1642   10.8981   17.2007 O   0  0  0  0  0  0  0  0  0  0  0  0
   49.6586   10.6296   15.2918 C   0  0  0  0  0  0  0  0  0  0  0  0
   50.3418   11.8548   15.6136 O   0  0  0  0  0  0  0  0  0  0  0  0
  1  2  1  1  0  0  0
  1  3  1  0  0  0  0
  1  4  2  0  0  0  0
  1 16  1  0  0  0  0
  5  6  1  6  0  0  0
  5  7  1  0  0  0  0
  5 14  1  0  0  0  0
  7  8  1  1  0  0  0
  7  9  1  0  0  0  0
  9 10  1  6  0  0  0
  9 11  1  0  0  0  0
 11 12  1  6  0  0  0
 11 13  1  0  0  0  0
 13 14  1  0  0  0  0
 13 15  1  6  0  0  0
 15 16  1  0  0  0  0
M  CHG  1   3  -1
M  END
>  <CHROM.1>
61.55129618,-179.43928456,-178.47945027,48.75584040,11.51824837,15.71136701
-0.21881374,-0.09735618,2.05323419

>  <Name>
ligand

>  <RI>
0

>  <Rbt.Current_Directory>
/home/itssahil/PROJECTS/Mol_Feturizer/New_Systems/rnas/3B4C

>  <Rbt.Executable>
rbdock ($Id: //depot/dev/client3/rdock/2013.1/src/exe/rbdock.cxx#4 $)

>  <Rbt.Library>
libRbt.so (2013.1, Build901 2013/11/27)

>  <Rbt.Parameter_File>
/export/apps/rDock/src/rDock_2013.1_src/data/scripts/dock_solv.prm

>  <Rbt.Receptor>
prm/pocket_docking_3.prm

>  <SCORE>
-12.2012

>  <SCORE.INTER>
-10.6832

>  <SCORE.INTER.CONST>
1

>  <SCORE.INTER.POLAR>
-1.29825

>  <SCORE.INTER.ROT>
3

>  <SCORE.INTER.SOLV>
18.1854

>  <SCORE.INTER.VDW>
-14.4565

>  <SCORE.INTER.norm>
-0.667701

>  <SCORE.INTRA>
-1.51803

>  <SCORE.INTRA.DIHEDRAL>
-2.11425

>  <SCORE.INTRA.DIHEDRAL.0>
2.1318

>  <SCORE.INTRA.POLAR>
0

>  <SCORE.INTRA.POLAR.0>
0

>  <SCORE.INTRA.REPUL>
0

>  <SCORE.INTRA.REPUL.0>
0

>  <SCORE.INTRA.SOLV>
-0.174073

>  <SCORE.INTRA.SOLV.lig_0>
-58.6125

>  <SCORE.INTRA.VDW>
-0.373861

>  <SCORE.INTRA.VDW.0>
-0.432734

>  <SCORE.INTRA.norm>
-0.0948766

>  <SCORE.RESTR>
0

>  <SCORE.RESTR.CAVITY>
0

>  <SCORE.RESTR.norm>
0

>  <SCORE.SYSTEM>
0

>  <SCORE.SYSTEM.CONST>
0

>  <SCORE.SYSTEM.DIHEDRAL>
0

>  <SCORE.SYSTEM.SOLV>
0

>  <SCORE.SYSTEM.norm>
0

>  <SCORE.heavy>
16

>  <SCORE.norm>
-0.762578

>  <RMSD>
0.566

$$$$
ligand
 OpenBabel11021811463D
libRbt.so/2013.1/901 2013/11/27
 16 16  0  0  0  0  0  0  0  0999 V2000
   51.9605   11.8425   15.1700 P   0  0  2  0  0  0  0  0  0  0  0  0
   52.6899   13.0363   15.6639 O   0  0  0  0  0  0  0  0  0  0  0  0
   52.6148   10.5144   15.8001 O   0  5  0  0  0  0  0  0  0  0  0  0
   52.0889   11.7762   13.5642 O   0  0  0  0  0  0  0  0  0  0  0  0
   46.7760   10.8793   17.5261 C   0  0  2  0  0  0  0  0  0  0  0  0
   46.0992    9.6892   17.1047 O   0  0  0  0  0  0  0  0  0  0  0  0
   46.0455   12.1409   16.9981 C   0  0  2  0  0  0  0  0  0  0  0  0
   44.6541   12.1534   17.4886 N   0  0  0  0  0  0  0  0  0  0  0  0
   46.0609   12.1087   15.4605 C   0  0  1  0  0  0  0  0  0  0  0  0
   45.4097   13.2694   14.9371 O   0  0  0  0  0  0  0  0  0  0  0  0
   47.5193   12.0937   15.0059 C   0  0  2  0  0  0  0  0  0  0  0  0
   47.5565   12.0615   13.5849 O   0  0  0  0  0  0  0  0  0  0  0  0
   48.2100   10.8294   15.5862 C   0  0  2  0  0  0  0  0  0  0  0  0
   48.1552   10.8463   17.0457 O   0  0  0  0  0  0  0  0  0  0  0  0
   49.6971   10.7736   15.1572 C   0  0  0  0  0  0  0  0  0  0  0  0
   50.4032   11.9448   15.6059 O   0  0  0  0  0  0  0  0  0  0  0  0
  1  2  1  1  0  0  0
  1  3  1  0  0  0  0
  1  4  2  0  0  0  0
  1 16  1  0  0  0  0
  5  6  1  6  0  0  0
  5  7  1  0  0  0  0
  5 14  1  0  0  0  0
  7  8  1  1  0  0  0
  7  9  1  0  0  0  0
  9 10  1  6  0  0  0
  9 11  1  0  0  0  0
 11 12  1  6  0  0  0
 11 13  1  0  0  0  0
 13 14  1  0  0  0  0
 13 15  1  1  0  0  0
 15 16  1  0  0  0  0
M  CHG  1   3  -1
M  END
>  <CHROM.1>
58.79052387,178.80763439,-178.62210783,48.81610143,11.63869456,15.66573556
-0.17501456,-0.11798127,2.19495630

>  <Name>
ligand

>  <RI>
0

>  <Rbt.Current_Directory>
/home/itssahil/PROJECTS/Mol_Feturizer/New_Systems/rnas/3B4C

>  <Rbt.Executable>
rbdock ($Id: //depot/dev/client3/rdock/2013.1/src/exe/rbdock.cxx#4 $)

>  <Rbt.Library>
libRbt.so (2013.1, Build901 2013/11/27)

>  <Rbt.Parameter_File>
/export/apps/rDock/src/rDock_2013.1_src/data/scripts/dock_solv.prm

>  <Rbt.Receptor>
prm/pocket_docking_4.prm

>  <SCORE>
-12.1066

>  <SCORE.INTER>
-10.6034

>  <SCORE.INTER.CONST>
1

>  <SCORE.INTER.POLAR>
-1.29806

>  <SCORE.INTER.ROT>
3

>  <SCORE.INTER.SOLV>
17.2862

>  <SCORE.INTER.VDW>
-14.1042

>  <SCORE.INTER.norm>
-0.662714

>  <SCORE.INTRA>
-1.50317

>  <SCORE.INTRA.DIHEDRAL>
-2.11384

>  <SCORE.INTRA.DIHEDRAL.0>
2.1318

>  <SCORE.INTRA.POLAR>
0

>  <SCORE.INTRA.POLAR.0>
0

>  <SCORE.INTRA.REPUL>
0

>  <SCORE.INTRA.REPUL.0>
0

>  <SCORE.INTRA.SOLV>
-0.171972

>  <SCORE.INTRA.SOLV.lig_0>
-58.6125

>  <SCORE.INTRA.VDW>
-0.360268

>  <SCORE.INTRA.VDW.0>
-0.432734

>  <SCORE.INTRA.norm>
-0.0939483

>  <SCORE.RESTR>
0

>  <SCORE.RESTR.CAVITY>
0

>  <SCORE.RESTR.norm>
0

>  <SCORE.SYSTEM>
0

>  <SCORE.SYSTEM.CONST>
0

>  <SCORE.SYSTEM.DIHEDRAL>
0

>  <SCORE.SYSTEM.SOLV>
0

>  <SCORE.SYSTEM.norm>
0

>  <SCORE.heavy>
16

>  <SCORE.norm>
-0.756662

>  <RMSD>
0.569

$$$$
ligand
 OpenBabel11021811463D
libRbt.so/2013.1/901 2013/11/27
 16 16  0  0  0  0  0  0  0  0999 V2000
   51.8784   11.7829   15.0868 P   0  0  2  0  0  0  0  0  0  0  0  0
   52.5870   13.0308   15.4634 O   0  0  0  0  0  0  0  0  0  0  0  0
   52.6082   10.5231   15.7718 O   0  5  0  0  0  0  0  0  0  0  0  0
   51.9342   11.6107   13.4847 O   0  0  0  0  0  0  0  0  0  0  0  0
   46.8132   10.9435   17.7167 C   0  0  2  0  0  0  0  0  0  0  0  0
   46.1857    9.6751   17.4947 O   0  0  0  0  0  0  0  0  0  0  0  0
   46.0039   12.0806   17.0413 C   0  0  2  0  0  0  0  0  0  0  0  0
   44.6288   12.0995   17.5758 N   0  0  0  0  0  0  0  0  0  0  0  0
   45.9751   11.8276   15.5245 C   0  0  1  0  0  0  0  0  0  0  0  0
   45.2503   12.8692   14.8651 O   0  0  0  0  0  0  0  0  0  0  0  0
   47.4182   11.8144   15.0234 C   0  0  2  0  0  0  0  0  0  0  0  0
   47.4147   11.5792   13.6211 O   0  0  0  0  0  0  0  0  0  0  0  0
   48.1895   10.6805   15.7523 C   0  0  2  0  0  0  0  0  0  0  0  0
   48.1774   10.9053   17.1955 O   0  0  0  0  0  0  0  0  0  0  0  0
   49.6641   10.6321   15.2813 C   0  0  0  0  0  0  0  0  0  0  0  0
   50.3404   11.8643   15.5905 O   0  0  0  0  0  0  0  0  0  0  0  0
  1  2  1  1  0  0  0
  1  3  1  0  0  0  0
  1  4  2  0  0  0  0
  1 16  1  0  0  0  0
  5  6  1  6  0  0  0
  5  7  1  0  0  0  0
  5 14  1  0  0  0  0
  7  8  1  1  0  0  0
  7  9  1  0  0  0  0
  9 10  1  6  0  0  0
  9 11  1  0  0  0  0
 11 12  1  6  0  0  0
 11 13  1  0  0  0  0
 13 14  1  0  0  0  0
 13 15  1  6  0  0  0
 15 16  1  0  0  0  0
M  CHG  1   3  -1
M  END
>  <CHROM.1>
61.57221253,179.98137795,-177.42696388,48.75884407,11.51551908,15.70356985
-0.22364755,-0.09293274,2.04354658

>  <Name>
ligand

>  <RI>
0

>  <Rbt.Current_Directory>
/home/itssahil/PROJECTS/Mol_Feturizer/New_Systems/rnas/3B4C

>  <Rbt.Executable>
rbdock ($Id: //depot/dev/client3/rdock/2013.1/src/exe/rbdock.cxx#4 $)

>  <Rbt.Library>
libRbt.so (2013.1, Build901 2013/11/27)

>  <Rbt.Parameter_File>
/export/apps/rDock/src/rDock_2013.1_src/data/scripts/dock_solv.prm

>  <Rbt.Receptor>
prm/pocket_docking_4.prm

>  <SCORE>
-12.2628

>  <SCORE.INTER>
-10.7525

>  <SCORE.INTER.CONST>
1

>  <SCORE.INTER.POLAR>
-1.29904

>  <SCORE.INTER.ROT>
3

>  <SCORE.INTER.SOLV>
18.1546

>  <SCORE.INTER.VDW>
-14.4898

>  <SCORE.INTER.norm>
-0.672034

>  <SCORE.INTRA>
-1.51027

>  <SCORE.INTRA.DIHEDRAL>
-2.10818

>  <SCORE.INTRA.DIHEDRAL.0>
2.1318

>  <SCORE.INTRA.POLAR>
0

>  <SCORE.INTRA.POLAR.0>
0

>  <SCORE.INTRA.REPUL>
0

>  <SCORE.INTRA.REPUL.0>
0

>  <SCORE.INTRA.SOLV>
-0.174562

>  <SCORE.INTRA.SOLV.lig_0>
-58.6125

>  <SCORE.INTRA.VDW>
-0.368899

>  <SCORE.INTRA.VDW.0>
-0.432734

>  <SCORE.INTRA.norm>
-0.0943919

>  <SCORE.RESTR>
0

>  <SCORE.RESTR.CAVITY>
0

>  <SCORE.RESTR.norm>
0

>  <SCORE.SYSTEM>
0

>  <SCORE.SYSTEM.CONST>
0

>  <SCORE.SYSTEM.DIHEDRAL>
0

>  <SCORE.SYSTEM.SOLV>
0

>  <SCORE.SYSTEM.norm>
0

>  <SCORE.heavy>
16

>  <SCORE.norm>
-0.766426

>  <RMSD>
0.569

$$$$
ligand
 OpenBabel11021811463D
libRbt.so/2013.1/901 2013/11/27
 16 16  0  0  0  0  0  0  0  0999 V2000
   51.8649   11.8012   15.0512 P   0  0  2  0  0  0  0  0  0  0  0  0
   52.5574   13.0599   15.4218 O   0  0  0  0  0  0  0  0  0  0  0  0
   52.6284   10.5516   15.7179 O   0  5  0  0  0  0  0  0  0  0  0  0
   51.8969   11.6372   13.4475 O   0  0  0  0  0  0  0  0  0  0  0  0
   46.8345   10.8668   17.7203 C   0  0  2  0  0  0  0  0  0  0  0  0
   46.2202    9.5938   17.4882 O   0  0  0  0  0  0  0  0  0  0  0  0
   46.0064   12.0021   17.0651 C   0  0  2  0  0  0  0  0  0  0  0  0
   44.6357   11.9984   17.6108 N   0  0  0  0  0  0  0  0  0  0  0  0
   45.9682   11.7668   15.5457 C   0  0  1  0  0  0  0  0  0  0  0  0
   45.2259   12.8076   14.9047 O   0  0  0  0  0  0  0  0  0  0  0  0
   47.4073   11.7767   15.0329 C   0  0  2  0  0  0  0  0  0  0  0  0
   47.3951   11.5582   13.6279 O   0  0  0  0  0  0  0  0  0  0  0  0
   48.1977   10.6434   15.7420 C   0  0  2  0  0  0  0  0  0  0  0  0
   48.1947   10.8509   17.1878 O   0  0  0  0  0  0  0  0  0  0  0  0
   49.6689   10.6181   15.2586 C   0  0  0  0  0  0  0  0  0  0  0  0
   50.3344   11.8529   15.5808 O   0  0  0  0  0  0  0  0  0  0  0  0
  1  2  1  1  0  0  0
  1  3  1  0  0  0  0
  1  4  2  0  0  0  0
  1 16  1  0  0  0  0
  5  6  1  6  0  0  0
  5  7  1  0  0  0  0
  5 14  1  0  0  0  0
  7  8  1  1  0  0  0
  7  9  1  0  0  0  0
  9 10  1  6  0  0  0
  9 11  1  0  0  0  0
 11 12  1  6  0  0  0
 11 13  1  0  0  0  0
 13 14  1  0  0  0  0
 13 15  1  6  0  0  0
 15 16  1  0  0  0  0
M  CHG  1   3  -1
M  END
>  <CHROM.1>
61.74955440,-179.48024206,-178.31450618,48.75573014,11.48710398,15.69535983
-0.23813992,-0.08652183,2.05502338

>  <Name>
ligand

>  <RI>
0

>  <Rbt.Current_Directory>
/home/itssahil/PROJECTS/Mol_Feturizer/New_Systems/rnas/3B4C

>  <Rbt.Executable>
rbdock ($Id: //depot/dev/client3/rdock/2013.1/src/exe/rbdock.cxx#4 $)

>  <Rbt.Library>
libRbt.so (2013.1, Build901 2013/11/27)

>  <Rbt.Parameter_File>
/export/apps/rDock/src/rDock_2013.1_src/data/scripts/dock_solv.prm

>  <Rbt.Receptor>
prm/pocket_docking_2.prm

>  <SCORE>
-12.2914

>  <SCORE.INTER>
-10.7749

>  <SCORE.INTER.CONST>
1

>  <SCORE.INTER.POLAR>
-1.29904

>  <SCORE.INTER.ROT>
3

>  <SCORE.INTER.SOLV>
18.1287

>  <SCORE.INTER.VDW>
-14.4961

>  <SCORE.INTER.norm>
-0.673434

>  <SCORE.INTRA>
-1.51648

>  <SCORE.INTRA.DIHEDRAL>
-2.11113

>  <SCORE.INTRA.DIHEDRAL.0>
2.1318

>  <SCORE.INTRA.POLAR>
0

>  <SCORE.INTRA.POLAR.0>
0

>  <SCORE.INTRA.REPUL>
0

>  <SCORE.INTRA.REPUL.0>
0

>  <SCORE.INTRA.SOLV>
-0.174264

>  <SCORE.INTRA.SOLV.lig_0>
-58.6125

>  <SCORE.INTRA.VDW>
-0.373787

>  <SCORE.INTRA.VDW.0>
-0.432734

>  <SCORE.INTRA.norm>
-0.0947802

>  <SCORE.RESTR>
0

>  <SCORE.RESTR.CAVITY>
0

>  <SCORE.RESTR.norm>
0

>  <SCORE.SYSTEM>
0

>  <SCORE.SYSTEM.CONST>
0

>  <SCORE.SYSTEM.DIHEDRAL>
0

>  <SCORE.SYSTEM.SOLV>
0

>  <SCORE.SYSTEM.norm>
0

>  <SCORE.heavy>
16

>  <SCORE.norm>
-0.768214

>  <RMSD>
0.571

$$$$
ligand
 OpenBabel11021811463D
libRbt.so/2013.1/901 2013/11/27
 16 16  0  0  0  0  0  0  0  0999 V2000
   51.9107   11.8206   15.0860 P   0  0  2  0  0  0  0  0  0  0  0  0
   52.6376   13.0429   15.5090 O   0  0  0  0  0  0  0  0  0  0  0  0
   52.6003   10.5281   15.7513 O   0  5  0  0  0  0  0  0  0  0  0  0
   51.9947   11.6891   13.4812 O   0  0  0  0  0  0  0  0  0  0  0  0
   46.7645   10.8870   17.5390 C   0  0  2  0  0  0  0  0  0  0  0  0
   46.0787    9.6946   17.1395 O   0  0  0  0  0  0  0  0  0  0  0  0
   46.0278   12.1452   17.0115 C   0  0  2  0  0  0  0  0  0  0  0  0
   44.6446   12.1650   17.5243 N   0  0  0  0  0  0  0  0  0  0  0  0
   46.0182   12.0992   15.4743 C   0  0  1  0  0  0  0  0  0  0  0  0
   45.3608   13.2564   14.9510 O   0  0  0  0  0  0  0  0  0  0  0  0
   47.4691   12.0771   14.9963 C   0  0  2  0  0  0  0  0  0  0  0  0
   47.4832   12.0319   13.5751 O   0  0  0  0  0  0  0  0  0  0  0  0
   48.1667   10.8167   15.5767 C   0  0  2  0  0  0  0  0  0  0  0  0
   48.1356   10.8469   17.0367 O   0  0  0  0  0  0  0  0  0  0  0  0
   49.6466   10.7540   15.1243 C   0  0  0  0  0  0  0  0  0  0  0  0
   50.3651   11.9218   15.5618 O   0  0  0  0  0  0  0  0  0  0  0  0
  1  2  1  1  0  0  0
  1  3  1  0  0  0  0
  1  4  2  0  0  0  0
  1 16  1  0  0  0  0
  5  6  1  6  0  0  0
  5  7  1  0  0  0  0
  5 14  1  0  0  0  0
  7  8  1  1  0  0  0
  7  9  1  0  0  0  0
  9 10  1  6  0  0  0
  9 11  1  0  0  0  0
 11 12  1  6  0  0  0
 11 13  1  0  0  0  0
 13 14  1  0  0  0  0
 13 15  1  1  0  0  0
 15 16  1  0  0  0  0
M  CHG  1   3  -1
M  END
>  <CHROM.1>
59.34220502,179.47854540,178.53905526,48.77516819,11.62616789,15.63757051
-0.18803815,-0.12901812,2.18386385

>  <Name>
ligand

>  <RI>
0

>  <Rbt.Current_Directory>
/home/itssahil/PROJECTS/Mol_Feturizer/New_Systems/rnas/3B4C

>  <Rbt.Executable>
rbdock ($Id: //depot/dev/client3/rdock/2013.1/src/exe/rbdock.cxx#4 $)

>  <Rbt.Library>
libRbt.so (2013.1, Build901 2013/11/27)

>  <Rbt.Parameter_File>
/export/apps/rDock/src/rDock_2013.1_src/data/scripts/dock_solv.prm

>  <Rbt.Receptor>
prm/pocket_docking_2.prm

>  <SCORE>
-12.1763

>  <SCORE.INTER>
-10.6611

>  <SCORE.INTER.CONST>
1

>  <SCORE.INTER.POLAR>
-1.29904

>  <SCORE.INTER.ROT>
3

>  <SCORE.INTER.SOLV>
17.2029

>  <SCORE.INTER.VDW>
-14.1116

>  <SCORE.INTER.norm>
-0.666322

>  <SCORE.INTRA>
-1.51517

>  <SCORE.INTRA.DIHEDRAL>
-2.1235

>  <SCORE.INTRA.DIHEDRAL.0>
2.1318

>  <SCORE.INTRA.POLAR>
0

>  <SCORE.INTRA.POLAR.0>
0

>  <SCORE.INTRA.REPUL>
0

>  <SCORE.INTRA.REPUL.0>
0

>  <SCORE.INTRA.SOLV>
-0.172665

>  <SCORE.INTRA.SOLV.lig_0>
-58.6125

>  <SCORE.INTRA.VDW>
-0.367092

>  <SCORE.INTRA.VDW.0>
-0.432734

>  <SCORE.INTRA.norm>
-0.0946983

>  <SCORE.RESTR>
0

>  <SCORE.RESTR.CAVITY>
0

>  <SCORE.RESTR.norm>
0

>  <SCORE.SYSTEM>
0

>  <SCORE.SYSTEM.CONST>
0

>  <SCORE.SYSTEM.DIHEDRAL>
0

>  <SCORE.SYSTEM.SOLV>
0

>  <SCORE.SYSTEM.norm>
0

>  <SCORE.heavy>
16

>  <SCORE.norm>
-0.76102

>  <RMSD>
0.576

$$$$
ligand
 OpenBabel11021811463D
libRbt.so/2013.1/901 2013/11/27
 16 16  0  0  0  0  0  0  0  0999 V2000
   51.9223   11.8529   15.1594 P   0  0  2  0  0  0  0  0  0  0  0  0
   52.6340   13.0582   15.6516 O   0  0  0  0  0  0  0  0  0  0  0  0
   52.6218   10.5337   15.7588 O   0  5  0  0  0  0  0  0  0  0  0  0
   52.0164   11.8083   13.5505 O   0  0  0  0  0  0  0  0  0  0  0  0
   46.8476   10.8867   17.7005 C   0  0  2  0  0  0  0  0  0  0  0  0
   46.2366    9.6184   17.4357 O   0  0  0  0  0  0  0  0  0  0  0  0
   46.0258   12.0348   17.0599 C   0  0  2  0  0  0  0  0  0  0  0  0
   44.6493   12.0193   17.5906 N   0  0  0  0  0  0  0  0  0  0  0  0
   46.0041   11.8307   15.5356 C   0  0  1  0  0  0  0  0  0  0  0  0
   45.2679   12.8841   14.9082 O   0  0  0  0  0  0  0  0  0  0  0  0
   47.4485   11.8518   15.0386 C   0  0  2  0  0  0  0  0  0  0  0  0
   47.4515   11.6621   13.6294 O   0  0  0  0  0  0  0  0  0  0  0  0
   48.2321   10.7045   15.7328 C   0  0  2  0  0  0  0  0  0  0  0  0
   48.2134   10.8823   17.1824 O   0  0  0  0  0  0  0  0  0  0  0  0
   49.7084   10.6898   15.2648 C   0  0  0  0  0  0  0  0  0  0  0  0
   50.3731   11.9128   15.6307 O   0  0  0  0  0  0  0  0  0  0  0  0
  1  2  1  1  0  0  0
  1  3  1  0  0  0  0
  1  4  2  0  0  0  0
  1 16  1  0  0  0  0
  5  6  1  6  0  0  0
  5  7  1  0  0  0  0
  5 14  1  0  0  0  0
  7  8  1  1  0  0  0
  7  9  1  0  0  0  0
  9 10  1  6  0  0  0
  9 11  1  0  0  0  0
 11 12  1  6  0  0  0
 11 13  1  0  0  0  0
 13 14  1  0  0  0  0
 13 15  1  6  0  0  0
 15 16  1  0  0  0  0
M  CHG  1   3  -1
M  END
>  <CHROM.1>
62.30376955,178.67253892,-174.65948277,48.79612438,11.54010199,15.72942006
-0.21789051,-0.07899367,2.07216550

>  <Name>
ligand

>  <RI>
0

>  <Rbt.Current_Directory>
/home/itssahil/PROJECTS/Mol_Feturizer/New_Systems/rnas/3B4C

>  <Rbt.Executable>
rbdock ($Id: //depot/dev/client3/rdock/2013.1/src/exe/rbdock.cxx#4 $)

>  <Rbt.Library>
libRbt.so (2013.1, Build901 2013/11/27)

>  <Rbt.Parameter_File>
/export/apps/rDock/src/rDock_2013.1_src/data/scripts/dock_solv.prm

>  <Rbt.Receptor>
prm/pocket_docking_2.prm

>  <SCORE>
-12.1927

>  <SCORE.INTER>
-10.7454

>  <SCORE.INTER.CONST>
1

>  <SCORE.INTER.POLAR>
-1.29904

>  <SCORE.INTER.ROT>
3

>  <SCORE.INTER.SOLV>
18.1888

>  <SCORE.INTER.VDW>
-14.4964

>  <SCORE.INTER.norm>
-0.671589

>  <SCORE.INTRA>
-1.44722

>  <SCORE.INTRA.DIHEDRAL>
-2.05248

>  <SCORE.INTRA.DIHEDRAL.0>
2.1318

>  <SCORE.INTRA.POLAR>
0

>  <SCORE.INTRA.POLAR.0>
0

>  <SCORE.INTRA.REPUL>
0

>  <SCORE.INTRA.REPUL.0>
0

>  <SCORE.INTRA.SOLV>
-0.17664

>  <SCORE.INTRA.SOLV.lig_0>
-58.6125

>  <SCORE.INTRA.VDW>
-0.332662

>  <SCORE.INTRA.VDW.0>
-0.432734

>  <SCORE.INTRA.norm>
-0.0904515

>  <SCORE.RESTR>
0

>  <SCORE.RESTR.CAVITY>
0

>  <SCORE.RESTR.norm>
0

>  <SCORE.SYSTEM>
0

>  <SCORE.SYSTEM.CONST>
0

>  <SCORE.SYSTEM.DIHEDRAL>
0

>  <SCORE.SYSTEM.SOLV>
0

>  <SCORE.SYSTEM.norm>
0

>  <SCORE.heavy>
16

>  <SCORE.norm>
-0.762041

>  <RMSD>
0.577

$$$$
ligand
 OpenBabel11021811463D
libRbt.so/2013.1/901 2013/11/27
 16 16  0  0  0  0  0  0  0  0999 V2000
   51.8936   11.6807   15.4138 P   0  0  2  0  0  0  0  0  0  0  0  0
   52.6296   12.8523   15.9496 O   0  0  0  0  0  0  0  0  0  0  0  0
   52.4920   10.3315   16.0543 O   0  5  0  0  0  0  0  0  0  0  0  0
   52.0843   11.6281   13.8137 O   0  0  0  0  0  0  0  0  0  0  0  0
   46.5929   10.9539   17.5525 C   0  0  2  0  0  0  0  0  0  0  0  0
   45.9286    9.7345   17.2010 O   0  0  0  0  0  0  0  0  0  0  0  0
   45.8937   12.1690   16.8902 C   0  0  2  0  0  0  0  0  0  0  0  0
   44.4820   12.2249   17.3153 N   0  0  0  0  0  0  0  0  0  0  0  0
   45.9771   12.0099   15.3627 C   0  0  1  0  0  0  0  0  0  0  0  0
   45.3564   13.1247   14.7168 O   0  0  0  0  0  0  0  0  0  0  0  0
   47.4541   11.9543   14.9765 C   0  0  2  0  0  0  0  0  0  0  0  0
   47.5541   11.8047   13.5660 O   0  0  0  0  0  0  0  0  0  0  0  0
   48.1112   10.7409   15.6894 C   0  0  2  0  0  0  0  0  0  0  0  0
   47.9918   10.8785   17.1386 O   0  0  0  0  0  0  0  0  0  0  0  0
   49.6155   10.6468   15.3333 C   0  0  0  0  0  0  0  0  0  0  0  0
   50.3229   11.8145   15.7889 O   0  0  0  0  0  0  0  0  0  0  0  0
  1  2  1  1  0  0  0
  1  3  1  0  0  0  0
  1  4  2  0  0  0  0
  1 16  1  0  0  0  0
  5  6  1  6  0  0  0
  5  7  1  0  0  0  0
  5 14  1  0  0  0  0
  7  8  1  1  0  0  0
  7  9  1  0  0  0  0
  9 10  1  6  0  0  0
  9 11  1  0  0  0  0
 11 12  1  6  0  0  0
 11 13  1  0  0  0  0
 13 14  1  0  0  0  0
 13 15  1  1  0  0  0
 15 16  1  0  0  0  0
M  CHG  1   3  -1
M  END
>  <CHROM.1>
62.33854809,179.51081471,-176.98251582,48.72193963,11.54266708,15.74896630
-0.12454892,-0.09510769,2.11240562

>  <Name>
ligand

>  <RI>
0

>  <Rbt.Current_Directory>
/home/itssahil/PROJECTS/Mol_Feturizer/New_Systems/rnas/3B4C

>  <Rbt.Executable>
rbdock ($Id: //depot/dev/client3/rdock/2013.1/src/exe/rbdock.cxx#4 $)

>  <Rbt.Library>
libRbt.so (2013.1, Build901 2013/11/27)

>  <Rbt.Parameter_File>
/export/apps/rDock/src/rDock_2013.1_src/data/scripts/dock_solv.prm

>  <Rbt.Receptor>
prm/pocket_docking_4.prm

>  <SCORE>
-12.0613

>  <SCORE.INTER>
-10.56

>  <SCORE.INTER.CONST>
1

>  <SCORE.INTER.POLAR>
-1.29904

>  <SCORE.INTER.ROT>
3

>  <SCORE.INTER.SOLV>
17.9089

>  <SCORE.INTER.VDW>
-14.2795

>  <SCORE.INTER.norm>
-0.660002

>  <SCORE.INTRA>
-1.50131

>  <SCORE.INTRA.DIHEDRAL>
-2.09173

>  <SCORE.INTRA.DIHEDRAL.0>
2.1318

>  <SCORE.INTRA.POLAR>
0

>  <SCORE.INTRA.POLAR.0>
0

>  <SCORE.INTRA.REPUL>
0

>  <SCORE.INTRA.REPUL.0>
0

>  <SCORE.INTRA.SOLV>
-0.175405

>  <SCORE.INTRA.SOLV.lig_0>
-58.6125

>  <SCORE.INTRA.VDW>
-0.367746

>  <SCORE.INTRA.VDW.0>
-0.432734

>  <SCORE.INTRA.norm>
-0.0938321

>  <SCORE.RESTR>
0

>  <SCORE.RESTR.CAVITY>
0

>  <SCORE.RESTR.norm>
0

>  <SCORE.SYSTEM>
0

>  <SCORE.SYSTEM.CONST>
0

>  <SCORE.SYSTEM.DIHEDRAL>
0

>  <SCORE.SYSTEM.SOLV>
0

>  <SCORE.SYSTEM.norm>
0

>  <SCORE.heavy>
16

>  <SCORE.norm>
-0.753834

>  <RMSD>
0.577

$$$$
ligand
 OpenBabel11021811463D
libRbt.so/2013.1/901 2013/11/27
 16 16  0  0  0  0  0  0  0  0999 V2000
   51.8615   11.8245   15.0387 P   0  0  2  0  0  0  0  0  0  0  0  0
   52.5610   13.0695   15.4413 O   0  0  0  0  0  0  0  0  0  0  0  0
   52.6071   10.5553   15.6884 O   0  5  0  0  0  0  0  0  0  0  0  0
   51.9089   11.6918   13.4326 O   0  0  0  0  0  0  0  0  0  0  0  0
   46.8316   10.8696   17.7157 C   0  0  2  0  0  0  0  0  0  0  0  0
   46.2174    9.5979   17.4761 O   0  0  0  0  0  0  0  0  0  0  0  0
   46.0058   12.0083   17.0633 C   0  0  2  0  0  0  0  0  0  0  0  0
   44.6335   12.0027   17.6052 N   0  0  0  0  0  0  0  0  0  0  0  0
   45.9718   11.7799   15.5428 C   0  0  1  0  0  0  0  0  0  0  0  0
   45.2316   12.8239   14.9044 O   0  0  0  0  0  0  0  0  0  0  0  0
   47.4122   11.7915   15.0340 C   0  0  2  0  0  0  0  0  0  0  0  0
   47.4038   11.5793   13.6281 O   0  0  0  0  0  0  0  0  0  0  0  0
   48.2002   10.6546   15.7402 C   0  0  2  0  0  0  0  0  0  0  0  0
   48.1933   10.8555   17.1869 O   0  0  0  0  0  0  0  0  0  0  0  0
   49.6727   10.6308   15.2608 C   0  0  0  0  0  0  0  0  0  0  0  0
   50.3260   11.8794   15.5534 O   0  0  0  0  0  0  0  0  0  0  0  0
  1  2  1  1  0  0  0
  1  3  1  0  0  0  0
  1  4  2  0  0  0  0
  1 16  1  0  0  0  0
  5  6  1  6  0  0  0
  5  7  1  0  0  0  0
  5 14  1  0  0  0  0
  7  8  1  1  0  0  0
  7  9  1  0  0  0  0
  9 10  1  6  0  0  0
  9 11  1  0  0  0  0
 11 12  1  6  0  0  0
 11 13  1  0  0  0  0
 13 14  1  0  0  0  0
 13 15  1  6  0  0  0
 15 16  1  0  0  0  0
M  CHG  1   3  -1
M  END
>  <CHROM.1>
59.96754086,-179.90891763,-175.39497397,48.75555142,11.50231937,15.68897755
-0.24082265,-0.08706600,2.06315313

>  <Name>
ligand

>  <RI>
0

>  <Rbt.Current_Directory>
/home/itssahil/PROJECTS/Mol_Feturizer/New_Systems/rnas/3B4C

>  <Rbt.Executable>
rbdock ($Id: //depot/dev/client3/rdock/2013.1/src/exe/rbdock.cxx#4 $)

>  <Rbt.Library>
libRbt.so (2013.1, Build901 2013/11/27)

>  <Rbt.Parameter_File>
/export/apps/rDock/src/rDock_2013.1_src/data/scripts/dock_solv.prm

>  <Rbt.Receptor>
prm/pocket_docking_4.prm

>  <SCORE>
-12.2666

>  <SCORE.INTER>
-10.7797

>  <SCORE.INTER.CONST>
1

>  <SCORE.INTER.POLAR>
-1.29904

>  <SCORE.INTER.ROT>
3

>  <SCORE.INTER.SOLV>
18.0638

>  <SCORE.INTER.VDW>
-14.4776

>  <SCORE.INTER.norm>
-0.673734

>  <SCORE.INTRA>
-1.4869

>  <SCORE.INTRA.DIHEDRAL>
-2.09317

>  <SCORE.INTRA.DIHEDRAL.0>
2.1318

>  <SCORE.INTRA.POLAR>
0

>  <SCORE.INTRA.POLAR.0>
0

>  <SCORE.INTRA.REPUL>
0

>  <SCORE.INTRA.REPUL.0>
0

>  <SCORE.INTRA.SOLV>
-0.174305

>  <SCORE.INTRA.SOLV.lig_0>
-58.6125

>  <SCORE.INTRA.VDW>
-0.353156

>  <SCORE.INTRA.VDW.0>
-0.432734

>  <SCORE.INTRA.norm>
-0.0929309

>  <SCORE.RESTR>
0

>  <SCORE.RESTR.CAVITY>
0

>  <SCORE.RESTR.norm>
0

>  <SCORE.SYSTEM>
0

>  <SCORE.SYSTEM.CONST>
0

>  <SCORE.SYSTEM.DIHEDRAL>
0

>  <SCORE.SYSTEM.SOLV>
0

>  <SCORE.SYSTEM.norm>
0

>  <SCORE.heavy>
16

>  <SCORE.norm>
-0.766665

>  <RMSD>
0.578

$$$$
ligand
 OpenBabel11021811463D
libRbt.so/2013.1/901 2013/11/27
 16 16  0  0  0  0  0  0  0  0999 V2000
   51.8889   11.7799   15.1559 P   0  0  2  0  0  0  0  0  0  0  0  0
   52.6010   12.9964   15.6189 O   0  0  0  0  0  0  0  0  0  0  0  0
   52.5575   10.4785   15.8254 O   0  5  0  0  0  0  0  0  0  0  0  0
   52.0248   11.6703   13.5530 O   0  0  0  0  0  0  0  0  0  0  0  0
   46.8135   10.8818   17.7102 C   0  0  2  0  0  0  0  0  0  0  0  0
   46.1929    9.6149   17.4620 O   0  0  0  0  0  0  0  0  0  0  0  0
   45.9977   12.0282   17.0589 C   0  0  2  0  0  0  0  0  0  0  0  0
   44.6229   12.0285   17.5941 N   0  0  0  0  0  0  0  0  0  0  0  0
   45.9697   11.8067   15.5372 C   0  0  1  0  0  0  0  0  0  0  0  0
   45.2389   12.8579   14.8999 O   0  0  0  0  0  0  0  0  0  0  0  0
   47.4126   11.8119   15.0354 C   0  0  2  0  0  0  0  0  0  0  0  0
   47.4098   11.6059   13.6285 O   0  0  0  0  0  0  0  0  0  0  0  0
   48.1904   10.6672   15.7404 C   0  0  2  0  0  0  0  0  0  0  0  0
   48.1777   10.8618   17.1879 O   0  0  0  0  0  0  0  0  0  0  0  0
   49.6650   10.6366   15.2680 C   0  0  0  0  0  0  0  0  0  0  0  0
   50.3287   11.8743   15.5829 O   0  0  0  0  0  0  0  0  0  0  0  0
  1  2  1  1  0  0  0
  1  3  1  0  0  0  0
  1  4  2  0  0  0  0
  1 16  1  0  0  0  0
  5  6  1  6  0  0  0
  5  7  1  0  0  0  0
  5 14  1  0  0  0  0
  7  8  1  1  0  0  0
  7  9  1  0  0  0  0
  9 10  1  6  0  0  0
  9 11  1  0  0  0  0
 11 12  1  6  0  0  0
 11 13  1  0  0  0  0
 13 14  1  0  0  0  0
 13 15  1  6  0  0  0
 15 16  1  0  0  0  0
M  CHG  1   3  -1
M  END
>  <CHROM.1>
60.62713451,176.70608677,-173.72777132,48.76115058,11.49744392,15.73082513
-0.21477781,-0.08566742,2.05909495

>  <Name>
ligand

>  <RI>
0

>  <Rbt.Current_Directory>
/home/itssahil/PROJECTS/Mol_Feturizer/New_Systems/rnas/3B4C

>  <Rbt.Executable>
rbdock ($Id: //depot/dev/client3/rdock/2013.1/src/exe/rbdock.cxx#4 $)

>  <Rbt.Library>
libRbt.so (2013.1, Build901 2013/11/27)

>  <Rbt.Parameter_File>
/export/apps/rDock/src/rDock_2013.1_src/data/scripts/dock_solv.prm

>  <Rbt.Receptor>
prm/pocket_docking_5.prm

>  <SCORE>
-12.1529

>  <SCORE.INTER>
-10.7434

>  <SCORE.INTER.CONST>
1

>  <SCORE.INTER.POLAR>
-1.29904

>  <SCORE.INTER.ROT>
3

>  <SCORE.INTER.SOLV>
18.4044

>  <SCORE.INTER.VDW>
-14.567

>  <SCORE.INTER.norm>
-0.671465

>  <SCORE.INTRA>
-1.4095

>  <SCORE.INTRA.DIHEDRAL>
-2.00828

>  <SCORE.INTRA.DIHEDRAL.0>
2.1318

>  <SCORE.INTRA.POLAR>
0

>  <SCORE.INTRA.POLAR.0>
0

>  <SCORE.INTRA.REPUL>
0

>  <SCORE.INTRA.REPUL.0>
0

>  <SCORE.INTRA.SOLV>
-0.174205

>  <SCORE.INTRA.SOLV.lig_0>
-58.6125

>  <SCORE.INTRA.VDW>
-0.318258

>  <SCORE.INTRA.VDW.0>
-0.432734

>  <SCORE.INTRA.norm>
-0.0880937

>  <SCORE.RESTR>
0

>  <SCORE.RESTR.CAVITY>
0

>  <SCORE.RESTR.norm>
0

>  <SCORE.SYSTEM>
0

>  <SCORE.SYSTEM.CONST>
0

>  <SCORE.SYSTEM.DIHEDRAL>
0

>  <SCORE.SYSTEM.SOLV>
0

>  <SCORE.SYSTEM.norm>
0

>  <SCORE.heavy>
16

>  <SCORE.norm>
-0.759559

>  <RMSD>
0.578

$$$$
ligand
 OpenBabel11021811463D
libRbt.so/2013.1/901 2013/11/27
 16 16  0  0  0  0  0  0  0  0999 V2000
   51.8678   11.7580   15.2613 P   0  0  2  0  0  0  0  0  0  0  0  0
   52.6064   12.9435   15.7617 O   0  0  0  0  0  0  0  0  0  0  0  0
   52.5025   10.4225   15.8955 O   0  5  0  0  0  0  0  0  0  0  0  0
   52.0079   11.6913   13.6565 O   0  0  0  0  0  0  0  0  0  0  0  0
   46.6238   10.9768   17.5514 C   0  0  2  0  0  0  0  0  0  0  0  0
   45.9548    9.7590   17.2031 O   0  0  0  0  0  0  0  0  0  0  0  0
   45.9095   12.1960   16.9131 C   0  0  2  0  0  0  0  0  0  0  0  0
   44.5064   12.2457   17.3666 N   0  0  0  0  0  0  0  0  0  0  0  0
   45.9628   12.0495   15.3830 C   0  0  1  0  0  0  0  0  0  0  0  0
   45.3275   13.1684   14.7588 O   0  0  0  0  0  0  0  0  0  0  0  0
   47.4320   12.0000   14.9672 C   0  0  2  0  0  0  0  0  0  0  0  0
   47.5043   11.8621   13.5538 O   0  0  0  0  0  0  0  0  0  0  0  0
   48.1052   10.7820   15.6568 C   0  0  2  0  0  0  0  0  0  0  0  0
   48.0144   10.9074   17.1092 O   0  0  0  0  0  0  0  0  0  0  0  0
   49.6023   10.6936   15.2703 C   0  0  0  0  0  0  0  0  0  0  0  0
   50.3084   11.8772   15.6852 O   0  0  0  0  0  0  0  0  0  0  0  0
  1  2  1  1  0  0  0
  1  3  1  0  0  0  0
  1  4  2  0  0  0  0
  1 16  1  0  0  0  0
  5  6  1  6  0  0  0
  5  7  1  0  0  0  0
  5 14  1  0  0  0  0
  7  8  1  1  0  0  0
  7  9  1  0  0  0  0
  9 10  1  6  0  0  0
  9 11  1  0  0  0  0
 11 12  1  6  0  0  0
 11 13  1  0  0  0  0
 13 14  1  0  0  0  0
 13 15  1  1  0  0  0
 15 16  1  0  0  0  0
M  CHG  1   3  -1
M  END
>  <CHROM.1>
60.57945123,-179.73373484,-176.68593583,48.71113695,11.59438589,15.69118492
-0.15328877,-0.10569041,2.12427621

>  <Name>
ligand

>  <RI>
0

>  <Rbt.Current_Directory>
/home/itssahil/PROJECTS/Mol_Feturizer/New_Systems/rnas/3B4C

>  <Rbt.Executable>
rbdock ($Id: //depot/dev/client3/rdock/2013.1/src/exe/rbdock.cxx#4 $)

>  <Rbt.Library>
libRbt.so (2013.1, Build901 2013/11/27)

>  <Rbt.Parameter_File>
/export/apps/rDock/src/rDock_2013.1_src/data/scripts/dock_solv.prm

>  <Rbt.Receptor>
prm/pocket_docking_3.prm

>  <SCORE>
-12.121

>  <SCORE.INTER>
-10.6165

>  <SCORE.INTER.CONST>
1

>  <SCORE.INTER.POLAR>
-1.29904

>  <SCORE.INTER.ROT>
3

>  <SCORE.INTER.SOLV>
17.4479

>  <SCORE.INTER.VDW>
-14.1635

>  <SCORE.INTER.norm>
-0.663533

>  <SCORE.INTRA>
-1.50445

>  <SCORE.INTRA.DIHEDRAL>
-2.10852

>  <SCORE.INTRA.DIHEDRAL.0>
2.1318

>  <SCORE.INTRA.POLAR>
0

>  <SCORE.INTRA.POLAR.0>
0

>  <SCORE.INTRA.REPUL>
0

>  <SCORE.INTRA.REPUL.0>
0

>  <SCORE.INTRA.SOLV>
-0.174019

>  <SCORE.INTRA.SOLV.lig_0>
-58.6125

>  <SCORE.INTRA.VDW>
-0.363178

>  <SCORE.INTRA.VDW.0>
-0.432734

>  <SCORE.INTRA.norm>
-0.0940279

>  <SCORE.RESTR>
0

>  <SCORE.RESTR.CAVITY>
0

>  <SCORE.RESTR.norm>
0

>  <SCORE.SYSTEM>
0

>  <SCORE.SYSTEM.CONST>
0

>  <SCORE.SYSTEM.DIHEDRAL>
0

>  <SCORE.SYSTEM.SOLV>
0

>  <SCORE.SYSTEM.norm>
0

>  <SCORE.heavy>
16

>  <SCORE.norm>
-0.757561

>  <RMSD>
0.579

$$$$
ligand
 OpenBabel11021811463D
libRbt.so/2013.1/901 2013/11/27
 16 16  0  0  0  0  0  0  0  0999 V2000
   51.8472   11.7974   15.0838 P   0  0  2  0  0  0  0  0  0  0  0  0
   52.5578   13.0384   15.4791 O   0  0  0  0  0  0  0  0  0  0  0  0
   52.5817   10.5254   15.7404 O   0  5  0  0  0  0  0  0  0  0  0  0
   51.8930   11.6552   13.4784 O   0  0  0  0  0  0  0  0  0  0  0  0
   46.7809   10.9356   17.7125 C   0  0  2  0  0  0  0  0  0  0  0  0
   46.1555    9.6673   17.4839 O   0  0  0  0  0  0  0  0  0  0  0  0
   45.9721   12.0743   17.0395 C   0  0  2  0  0  0  0  0  0  0  0  0
   44.5957   12.0896   17.5705 N   0  0  0  0  0  0  0  0  0  0  0  0
   45.9475   11.8273   15.5217 C   0  0  1  0  0  0  0  0  0  0  0  0
   45.2232   12.8707   14.8646 O   0  0  0  0  0  0  0  0  0  0  0  0
   47.3919   11.8178   15.0243 C   0  0  2  0  0  0  0  0  0  0  0  0
   47.3923   11.5881   13.6210 O   0  0  0  0  0  0  0  0  0  0  0  0
   48.1626   10.6818   15.7507 C   0  0  2  0  0  0  0  0  0  0  0  0
   48.1465   10.9009   17.1947 O   0  0  0  0  0  0  0  0  0  0  0  0
   49.6385   10.6369   15.2834 C   0  0  0  0  0  0  0  0  0  0  0  0
   50.3124   11.8689   15.5985 O   0  0  0  0  0  0  0  0  0  0  0  0
  1  2  1  1  0  0  0
  1  3  1  0  0  0  0
  1  4  2  0  0  0  0
  1 16  1  0  0  0  0
  5  6  1  6  0  0  0
  5  7  1  0  0  0  0
  5 14  1  0  0  0  0
  7  8  1  1  0  0  0
  7  9  1  0  0  0  0
  9 10  1  6  0  0  0
  9 11  1  0  0  0  0
 11 12  1  6  0  0  0
 11 13  1  0  0  0  0
 13 14  1  0  0  0  0
 13 15  1  6  0  0  0
 15 16  1  0  0  0  0
M  CHG  1   3  -1
M  END
>  <CHROM.1>
61.54217665,-179.39218786,-176.81788457,48.72933673,11.52014310,15.70087944
-0.22503235,-0.09150317,2.04960358

>  <Name>
ligand

>  <RI>
0

>  <Rbt.Current_Directory>
/home/itssahil/PROJECTS/Mol_Feturizer/New_Systems/rnas/3B4C

>  <Rbt.Executable>
rbdock ($Id: //depot/dev/client3/rdock/2013.1/src/exe/rbdock.cxx#4 $)

>  <Rbt.Library>
libRbt.so (2013.1, Build901 2013/11/27)

>  <Rbt.Parameter_File>
/export/apps/rDock/src/rDock_2013.1_src/data/scripts/dock_solv.prm

>  <Rbt.Receptor>
prm/pocket_docking_3.prm

>  <SCORE>
-12.2589

>  <SCORE.INTER>
-10.7538

>  <SCORE.INTER.CONST>
1

>  <SCORE.INTER.POLAR>
-1.29904

>  <SCORE.INTER.ROT>
3

>  <SCORE.INTER.SOLV>
18.1016

>  <SCORE.INTER.VDW>
-14.4729

>  <SCORE.INTER.norm>
-0.672113

>  <SCORE.INTRA>
-1.50514

>  <SCORE.INTRA.DIHEDRAL>
-2.10079

>  <SCORE.INTRA.DIHEDRAL.0>
2.1318

>  <SCORE.INTRA.POLAR>
0

>  <SCORE.INTRA.POLAR.0>
0

>  <SCORE.INTRA.REPUL>
0

>  <SCORE.INTRA.REPUL.0>
0

>  <SCORE.INTRA.SOLV>
-0.174463

>  <SCORE.INTRA.SOLV.lig_0>
-58.6125

>  <SCORE.INTRA.VDW>
-0.367514

>  <SCORE.INTRA.VDW.0>
-0.432734

>  <SCORE.INTRA.norm>
-0.0940711

>  <SCORE.RESTR>
0

>  <SCORE.RESTR.CAVITY>
0

>  <SCORE.RESTR.norm>
0

>  <SCORE.SYSTEM>
0

>  <SCORE.SYSTEM.CONST>
0

>  <SCORE.SYSTEM.DIHEDRAL>
0

>  <SCORE.SYSTEM.SOLV>
0

>  <SCORE.SYSTEM.norm>
0

>  <SCORE.heavy>
16

>  <SCORE.norm>
-0.766184

>  <RMSD>
0.584

$$$$
ligand
 OpenBabel11021811463D
libRbt.so/2013.1/901 2013/11/27
 16 16  0  0  0  0  0  0  0  0999 V2000
   51.9625   11.7273   15.3253 P   0  0  2  0  0  0  0  0  0  0  0  0
   52.6940   12.9242   15.8085 O   0  0  0  0  0  0  0  0  0  0  0  0
   52.5882   10.4069   15.9991 O   0  5  0  0  0  0  0  0  0  0  0  0
   52.1252   11.6235   13.7246 O   0  0  0  0  0  0  0  0  0  0  0  0
   46.7003   10.7812   17.5609 C   0  0  2  0  0  0  0  0  0  0  0  0
   46.0004    9.6332   17.0670 O   0  0  0  0  0  0  0  0  0  0  0  0
   46.0243   12.0876   17.0706 C   0  0  2  0  0  0  0  0  0  0  0  0
   44.6200   12.1223   17.5218 N   0  0  0  0  0  0  0  0  0  0  0  0
   46.0841   12.1237   15.5342 C   0  0  1  0  0  0  0  0  0  0  0  0
   45.4841   13.3266   15.0461 O   0  0  0  0  0  0  0  0  0  0  0  0
   47.5542   12.0828   15.1206 C   0  0  2  0  0  0  0  0  0  0  0  0
   47.6323   12.1129   13.7011 O   0  0  0  0  0  0  0  0  0  0  0  0
   48.1888   10.7727   15.6619 C   0  0  2  0  0  0  0  0  0  0  0  0
   48.0914   10.7261   17.1185 O   0  0  0  0  0  0  0  0  0  0  0  0
   49.6855   10.6890   15.2728 C   0  0  0  0  0  0  0  0  0  0  0  0
   50.3973   11.8557   15.7242 O   0  0  0  0  0  0  0  0  0  0  0  0
  1  2  1  1  0  0  0
  1  3  1  0  0  0  0
  1  4  2  0  0  0  0
  1 16  1  0  0  0  0
  5  6  1  6  0  0  0
  5  7  1  0  0  0  0
  5 14  1  0  0  0  0
  7  8  1  6  0  0  0
  7  9  1  0  0  0  0
  9 10  1  1  0  0  0
  9 11  1  0  0  0  0
 11 12  1  6  0  0  0
 11 13  1  0  0  0  0
 13 14  1  0  0  0  0
 13 15  1  1  0  0  0
 15 16  1  0  0  0  0
M  CHG  1   3  -1
M  END
>  <CHROM.1>
55.30626075,179.04128971,-179.26965015,48.81041484,11.57399982,15.76828845
-0.14789166,-0.12853993,2.25196926

>  <Name>
ligand

>  <RI>
0

>  <Rbt.Current_Directory>
/home/itssahil/PROJECTS/Mol_Feturizer/New_Systems/rnas/3B4C

>  <Rbt.Executable>
rbdock ($Id: //depot/dev/client3/rdock/2013.1/src/exe/rbdock.cxx#4 $)

>  <Rbt.Library>
libRbt.so (2013.1, Build901 2013/11/27)

>  <Rbt.Parameter_File>
/export/apps/rDock/src/rDock_2013.1_src/data/scripts/dock_solv.prm

>  <Rbt.Receptor>
prm/pocket_docking_3.prm

>  <SCORE>
-12.0542

>  <SCORE.INTER>
-10.6049

>  <SCORE.INTER.CONST>
1

>  <SCORE.INTER.POLAR>
-1.29847

>  <SCORE.INTER.ROT>
3

>  <SCORE.INTER.SOLV>
18.2734

>  <SCORE.INTER.VDW>
-14.4328

>  <SCORE.INTER.norm>
-0.662806

>  <SCORE.INTRA>
-1.44931

>  <SCORE.INTRA.DIHEDRAL>
-2.04593

>  <SCORE.INTRA.DIHEDRAL.0>
2.1318

>  <SCORE.INTRA.POLAR>
0

>  <SCORE.INTRA.POLAR.0>
0

>  <SCORE.INTRA.REPUL>
0

>  <SCORE.INTRA.REPUL.0>
0

>  <SCORE.INTRA.SOLV>
-0.169942

>  <SCORE.INTRA.SOLV.lig_0>
-58.6125

>  <SCORE.INTRA.VDW>
-0.341372

>  <SCORE.INTRA.VDW.0>
-0.432734

>  <SCORE.INTRA.norm>
-0.0905817

>  <SCORE.RESTR>
0

>  <SCORE.RESTR.CAVITY>
0

>  <SCORE.RESTR.norm>
0

>  <SCORE.SYSTEM>
0

>  <SCORE.SYSTEM.CONST>
0

>  <SCORE.SYSTEM.DIHEDRAL>
0

>  <SCORE.SYSTEM.SOLV>
0

>  <SCORE.SYSTEM.norm>
0

>  <SCORE.heavy>
16

>  <SCORE.norm>
-0.753387

>  <RMSD>
0.584

$$$$
ligand
 OpenBabel11021811463D
libRbt.so/2013.1/901 2013/11/27
 16 16  0  0  0  0  0  0  0  0999 V2000
   51.8480   11.7057   15.2338 P   0  0  2  0  0  0  0  0  0  0  0  0
   52.5965   12.8982   15.7020 O   0  0  0  0  0  0  0  0  0  0  0  0
   52.4541   10.3854   15.9254 O   0  5  0  0  0  0  0  0  0  0  0  0
   52.0104   11.5786   13.6347 O   0  0  0  0  0  0  0  0  0  0  0  0
   46.6025   10.9903   17.5603 C   0  0  2  0  0  0  0  0  0  0  0  0
   45.9144    9.7830   17.2125 O   0  0  0  0  0  0  0  0  0  0  0  0
   45.9062   12.2205   16.9233 C   0  0  2  0  0  0  0  0  0  0  0  0
   44.5047   12.2917   17.3786 N   0  0  0  0  0  0  0  0  0  0  0  0
   45.9553   12.0737   15.3931 C   0  0  1  0  0  0  0  0  0  0  0  0
   45.3365   13.2024   14.7700 O   0  0  0  0  0  0  0  0  0  0  0  0
   47.4230   12.0016   14.9753 C   0  0  2  0  0  0  0  0  0  0  0  0
   47.4913   11.8631   13.5618 O   0  0  0  0  0  0  0  0  0  0  0  0
   48.0782   10.7733   15.6638 C   0  0  2  0  0  0  0  0  0  0  0  0
   47.9912   10.8996   17.1163 O   0  0  0  0  0  0  0  0  0  0  0  0
   49.5733   10.6620   15.2752 C   0  0  0  0  0  0  0  0  0  0  0  0
   50.2846   11.8620   15.6297 O   0  0  0  0  0  0  0  0  0  0  0  0
  1  2  1  1  0  0  0
  1  3  1  0  0  0  0
  1  4  2  0  0  0  0
  1 16  1  0  0  0  0
  5  6  1  6  0  0  0
  5  7  1  0  0  0  0
  5 14  1  0  0  0  0
  7  8  1  1  0  0  0
  7  9  1  0  0  0  0
  9 10  1  6  0  0  0
  9 11  1  0  0  0  0
 11 12  1  6  0  0  0
 11 13  1  0  0  0  0
 13 14  1  0  0  0  0
 13 15  1  1  0  0  0
 15 16  1  0  0  0  0
M  CHG  1   3  -1
M  END
>  <CHROM.1>
57.71024056,179.06979207,-175.37294996,48.69415030,11.58149035,15.68649793
-0.15211386,-0.12062801,2.12812034

>  <Name>
ligand

>  <RI>
0

>  <Rbt.Current_Directory>
/home/itssahil/PROJECTS/Mol_Feturizer/New_Systems/rnas/3B4C

>  <Rbt.Executable>
rbdock ($Id: //depot/dev/client3/rdock/2013.1/src/exe/rbdock.cxx#4 $)

>  <Rbt.Library>
libRbt.so (2013.1, Build901 2013/11/27)

>  <Rbt.Parameter_File>
/export/apps/rDock/src/rDock_2013.1_src/data/scripts/dock_solv.prm

>  <Rbt.Receptor>
prm/pocket_docking_4.prm

>  <SCORE>
-12.1702

>  <SCORE.INTER>
-10.7083

>  <SCORE.INTER.CONST>
1

>  <SCORE.INTER.POLAR>
-1.29904

>  <SCORE.INTER.ROT>
3

>  <SCORE.INTER.SOLV>
17.6052

>  <SCORE.INTER.VDW>
-14.2771

>  <SCORE.INTER.norm>
-0.669269

>  <SCORE.INTRA>
-1.46195

>  <SCORE.INTRA.DIHEDRAL>
-2.07043

>  <SCORE.INTRA.DIHEDRAL.0>
2.1318

>  <SCORE.INTRA.POLAR>
0

>  <SCORE.INTRA.POLAR.0>
0

>  <SCORE.INTRA.REPUL>
0

>  <SCORE.INTRA.REPUL.0>
0

>  <SCORE.INTRA.SOLV>
-0.172819

>  <SCORE.INTRA.SOLV.lig_0>
-58.6125

>  <SCORE.INTRA.VDW>
-0.340326

>  <SCORE.INTRA.VDW.0>
-0.432734

>  <SCORE.INTRA.norm>
-0.0913718

>  <SCORE.RESTR>
0

>  <SCORE.RESTR.CAVITY>
0

>  <SCORE.RESTR.norm>
0

>  <SCORE.SYSTEM>
0

>  <SCORE.SYSTEM.CONST>
0

>  <SCORE.SYSTEM.DIHEDRAL>
0

>  <SCORE.SYSTEM.SOLV>
0

>  <SCORE.SYSTEM.norm>
0

>  <SCORE.heavy>
16

>  <SCORE.norm>
-0.760641

>  <RMSD>
0.589

$$$$
ligand
 OpenBabel11021811463D
libRbt.so/2013.1/901 2013/11/27
 16 16  0  0  0  0  0  0  0  0999 V2000
   51.8549   11.8173   15.1653 P   0  0  2  0  0  0  0  0  0  0  0  0
   52.5817   13.0151   15.6535 O   0  0  0  0  0  0  0  0  0  0  0  0
   52.5332   10.4918   15.7751 O   0  5  0  0  0  0  0  0  0  0  0  0
   51.9549   11.7621   13.5570 O   0  0  0  0  0  0  0  0  0  0  0  0
   46.6679   10.8522   17.5372 C   0  0  2  0  0  0  0  0  0  0  0  0
   45.9947    9.6573   17.1237 O   0  0  0  0  0  0  0  0  0  0  0  0
   45.9387   12.1078   16.9933 C   0  0  2  0  0  0  0  0  0  0  0  0
   44.5447   12.1233   17.4762 N   0  0  0  0  0  0  0  0  0  0  0  0
   45.9623   12.0609   15.4562 C   0  0  1  0  0  0  0  0  0  0  0  0
   45.3125   13.2157   14.9183 O   0  0  0  0  0  0  0  0  0  0  0  0
   47.4231   12.0433   15.0095 C   0  0  2  0  0  0  0  0  0  0  0  0
   47.4679   11.9975   13.5891 O   0  0  0  0  0  0  0  0  0  0  0  0
   48.1122   10.7855   15.6055 C   0  0  2  0  0  0  0  0  0  0  0  0
   48.0497   10.8163   17.0645 O   0  0  0  0  0  0  0  0  0  0  0  0
   49.6017   10.7274   15.1850 C   0  0  0  0  0  0  0  0  0  0  0  0
   50.3049   11.9018   15.6298 O   0  0  0  0  0  0  0  0  0  0  0  0
  1  2  1  1  0  0  0
  1  3  1  0  0  0  0
  1  4  2  0  0  0  0
  1 16  1  0  0  0  0
  5  6  1  6  0  0  0
  5  7  1  0  0  0  0
  5 14  1  0  0  0  0
  7  8  1  1  0  0  0
  7  9  1  0  0  0  0
  9 10  1  6  0  0  0
  9 11  1  0  0  0  0
 11 12  1  6  0  0  0
 11 13  1  0  0  0  0
 13 14  1  0  0  0  0
 13 15  1  1  0  0  0
 15 16  1  0  0  0  0
M  CHG  1   3  -1
M  END
>  <CHROM.1>
58.96979589,-179.54659397,-178.69769302,48.71361821,11.60310912,15.66760408
-0.17844113,-0.11564272,2.18968142

>  <Name>
ligand

>  <RI>
0

>  <Rbt.Current_Directory>
/home/itssahil/PROJECTS/Mol_Feturizer/New_Systems/rnas/3B4C

>  <Rbt.Executable>
rbdock ($Id: //depot/dev/client3/rdock/2013.1/src/exe/rbdock.cxx#4 $)

>  <Rbt.Library>
libRbt.so (2013.1, Build901 2013/11/27)

>  <Rbt.Parameter_File>
/export/apps/rDock/src/rDock_2013.1_src/data/scripts/dock_solv.prm

>  <Rbt.Receptor>
prm/pocket_docking_2.prm

>  <SCORE>
-12.0895

>  <SCORE.INTER>
-10.5776

>  <SCORE.INTER.CONST>
1

>  <SCORE.INTER.POLAR>
-1.29904

>  <SCORE.INTER.ROT>
3

>  <SCORE.INTER.SOLV>
17.3692

>  <SCORE.INTER.VDW>
-14.1113

>  <SCORE.INTER.norm>
-0.661101

>  <SCORE.INTRA>
-1.51191

>  <SCORE.INTRA.DIHEDRAL>
-2.12158

>  <SCORE.INTRA.DIHEDRAL.0>
2.1318

>  <SCORE.INTRA.POLAR>
0

>  <SCORE.INTRA.POLAR.0>
0

>  <SCORE.INTRA.REPUL>
0

>  <SCORE.INTRA.REPUL.0>
0

>  <SCORE.INTRA.SOLV>
-0.172398

>  <SCORE.INTRA.SOLV.lig_0>
-58.6125

>  <SCORE.INTRA.VDW>
-0.364924

>  <SCORE.INTRA.VDW.0>
-0.432734

>  <SCORE.INTRA.norm>
-0.0944947

>  <SCORE.RESTR>
0

>  <SCORE.RESTR.CAVITY>
0

>  <SCORE.RESTR.norm>
0

>  <SCORE.SYSTEM>
0

>  <SCORE.SYSTEM.CONST>
0

>  <SCORE.SYSTEM.DIHEDRAL>
0

>  <SCORE.SYSTEM.SOLV>
0

>  <SCORE.SYSTEM.norm>
0

>  <SCORE.heavy>
16

>  <SCORE.norm>
-0.755596

>  <RMSD>
0.591

$$$$
ligand
 OpenBabel11021811463D
libRbt.so/2013.1/901 2013/11/27
 16 16  0  0  0  0  0  0  0  0999 V2000
   51.9668   11.7399   15.3373 P   0  0  2  0  0  0  0  0  0  0  0  0
   52.6984   12.9193   15.8619 O   0  0  0  0  0  0  0  0  0  0  0  0
   52.5662   10.3995   15.9953 O   0  5  0  0  0  0  0  0  0  0  0  0
   52.1627   11.6692   13.7385 O   0  0  0  0  0  0  0  0  0  0  0  0
   46.7073   10.7709   17.5788 C   0  0  2  0  0  0  0  0  0  0  0  0
   46.0136    9.6178   17.0878 O   0  0  0  0  0  0  0  0  0  0  0  0
   46.0268   12.0723   17.0816 C   0  0  2  0  0  0  0  0  0  0  0  0
   44.6213   12.1027   17.5293 N   0  0  0  0  0  0  0  0  0  0  0  0
   46.0902   12.1024   15.5452 C   0  0  1  0  0  0  0  0  0  0  0  0
   45.4862   13.3007   15.0508 O   0  0  0  0  0  0  0  0  0  0  0  0
   47.5614   12.0662   15.1353 C   0  0  2  0  0  0  0  0  0  0  0  0
   47.6428   12.0909   13.7159 O   0  0  0  0  0  0  0  0  0  0  0  0
   48.2004   10.7611   15.6834 C   0  0  2  0  0  0  0  0  0  0  0  0
   48.0997   10.7200   17.1399 O   0  0  0  0  0  0  0  0  0  0  0  0
   49.6984   10.6824   15.2982 C   0  0  0  0  0  0  0  0  0  0  0  0
   50.3946   11.8743   15.7058 O   0  0  0  0  0  0  0  0  0  0  0  0
  1  2  1  1  0  0  0
  1  3  1  0  0  0  0
  1  4  2  0  0  0  0
  1 16  1  0  0  0  0
  5  6  1  6  0  0  0
  5  7  1  0  0  0  0
  5 14  1  0  0  0  0
  7  8  1  6  0  0  0
  7  9  1  0  0  0  0
  9 10  1  1  0  0  0
  9 11  1  0  0  0  0
 11 12  1  6  0  0  0
 11 13  1  0  0  0  0
 13 14  1  0  0  0  0
 13 15  1  1  0  0  0
 15 16  1  0  0  0  0
M  CHG  1   3  -1
M  END
>  <CHROM.1>
53.32378864,177.99599232,-175.24185652,48.81677355,11.56911286,15.78231894
-0.15192424,-0.12451408,2.25050038

>  <Name>
ligand

>  <RI>
0

>  <Rbt.Current_Directory>
/home/itssahil/PROJECTS/Mol_Feturizer/New_Systems/rnas/3B4C

>  <Rbt.Executable>
rbdock ($Id: //depot/dev/client3/rdock/2013.1/src/exe/rbdock.cxx#4 $)

>  <Rbt.Library>
libRbt.so (2013.1, Build901 2013/11/27)

>  <Rbt.Parameter_File>
/export/apps/rDock/src/rDock_2013.1_src/data/scripts/dock_solv.prm

>  <Rbt.Receptor>
prm/pocket_docking_3.prm

>  <SCORE>
-12.0138

>  <SCORE.INTER>
-10.6661

>  <SCORE.INTER.CONST>
1

>  <SCORE.INTER.POLAR>
-1.29893

>  <SCORE.INTER.ROT>
3

>  <SCORE.INTER.SOLV>
18.3577

>  <SCORE.INTER.VDW>
-14.5002

>  <SCORE.INTER.norm>
-0.666634

>  <SCORE.INTRA>
-1.34763

>  <SCORE.INTRA.DIHEDRAL>
-1.91369

>  <SCORE.INTRA.DIHEDRAL.0>
2.1318

>  <SCORE.INTRA.POLAR>
0

>  <SCORE.INTRA.POLAR.0>
0

>  <SCORE.INTRA.REPUL>
0

>  <SCORE.INTRA.REPUL.0>
0

>  <SCORE.INTRA.SOLV>
-0.169574

>  <SCORE.INTRA.SOLV.lig_0>
-58.6125

>  <SCORE.INTRA.VDW>
-0.306

>  <SCORE.INTRA.VDW.0>
-0.432734

>  <SCORE.INTRA.norm>
-0.0842269

>  <SCORE.RESTR>
0

>  <SCORE.RESTR.CAVITY>
0

>  <SCORE.RESTR.norm>
0

>  <SCORE.SYSTEM>
0

>  <SCORE.SYSTEM.CONST>
0

>  <SCORE.SYSTEM.DIHEDRAL>
0

>  <SCORE.SYSTEM.SOLV>
0

>  <SCORE.SYSTEM.norm>
0

>  <SCORE.heavy>
16

>  <SCORE.norm>
-0.750861

>  <RMSD>
0.591

$$$$
ligand
 OpenBabel11021811463D
libRbt.so/2013.1/901 2013/11/27
 16 16  0  0  0  0  0  0  0  0999 V2000
   51.8548   11.7930   15.0936 P   0  0  2  0  0  0  0  0  0  0  0  0
   52.5757   13.0253   15.4976 O   0  0  0  0  0  0  0  0  0  0  0  0
   52.5656   10.5121   15.7592 O   0  5  0  0  0  0  0  0  0  0  0  0
   51.9184   11.6500   13.4889 O   0  0  0  0  0  0  0  0  0  0  0  0
   46.7871   11.0157   17.7380 C   0  0  2  0  0  0  0  0  0  0  0  0
   46.1671    9.7371   17.5576 O   0  0  0  0  0  0  0  0  0  0  0  0
   45.9736   12.1247   17.0222 C   0  0  2  0  0  0  0  0  0  0  0  0
   44.5970   12.1543   17.5522 N   0  0  0  0  0  0  0  0  0  0  0  0
   45.9504   11.8201   15.5148 C   0  0  1  0  0  0  0  0  0  0  0  0
   45.2218   12.8348   14.8185 O   0  0  0  0  0  0  0  0  0  0  0  0
   47.3950   11.7978   15.0182 C   0  0  2  0  0  0  0  0  0  0  0  0
   47.3966   11.5150   13.6247 O   0  0  0  0  0  0  0  0  0  0  0  0
   48.1703   10.6935   15.7873 C   0  0  2  0  0  0  0  0  0  0  0  0
   48.1529   10.9672   17.2220 O   0  0  0  0  0  0  0  0  0  0  0  0
   49.6464   10.6372   15.3221 C   0  0  0  0  0  0  0  0  0  0  0  0
   50.3149   11.8834   15.5896 O   0  0  0  0  0  0  0  0  0  0  0  0
  1  2  1  1  0  0  0
  1  3  1  0  0  0  0
  1  4  2  0  0  0  0
  1 16  1  0  0  0  0
  5  6  1  6  0  0  0
  5  7  1  0  0  0  0
  5 14  1  0  0  0  0
  7  8  1  1  0  0  0
  7  9  1  0  0  0  0
  9 10  1  6  0  0  0
  9 11  1  0  0  0  0
 11 12  1  6  0  0  0
 11 13  1  0  0  0  0
 13 14  1  0  0  0  0
 13 15  1  6  0  0  0
 15 16  1  0  0  0  0
M  CHG  1   3  -1
M  END
>  <CHROM.1>
61.51250604,179.95921574,-174.18080196,48.73509381,11.52977847,15.71104807
-0.22392723,-0.08724229,2.01104350

>  <Name>
ligand

>  <RI>
0

>  <Rbt.Current_Directory>
/home/itssahil/PROJECTS/Mol_Feturizer/New_Systems/rnas/3B4C

>  <Rbt.Executable>
rbdock ($Id: //depot/dev/client3/rdock/2013.1/src/exe/rbdock.cxx#4 $)

>  <Rbt.Library>
libRbt.so (2013.1, Build901 2013/11/27)

>  <Rbt.Parameter_File>
/export/apps/rDock/src/rDock_2013.1_src/data/scripts/dock_solv.prm

>  <Rbt.Receptor>
prm/pocket_docking_2.prm

>  <SCORE>
-12.1048

>  <SCORE.INTER>
-10.6358

>  <SCORE.INTER.CONST>
1

>  <SCORE.INTER.POLAR>
-1.29798

>  <SCORE.INTER.ROT>
3

>  <SCORE.INTER.SOLV>
18.2073

>  <SCORE.INTER.VDW>
-14.433

>  <SCORE.INTER.norm>
-0.664737

>  <SCORE.INTRA>
-1.46896

>  <SCORE.INTRA.DIHEDRAL>
-2.06353

>  <SCORE.INTRA.DIHEDRAL.0>
2.1318

>  <SCORE.INTRA.POLAR>
0

>  <SCORE.INTRA.POLAR.0>
0

>  <SCORE.INTRA.REPUL>
0

>  <SCORE.INTRA.REPUL.0>
0

>  <SCORE.INTRA.SOLV>
-0.176267

>  <SCORE.INTRA.SOLV.lig_0>
-58.6125

>  <SCORE.INTRA.VDW>
-0.349057

>  <SCORE.INTRA.VDW.0>
-0.432734

>  <SCORE.INTRA.norm>
-0.0918097

>  <SCORE.RESTR>
0

>  <SCORE.RESTR.CAVITY>
0

>  <SCORE.RESTR.norm>
0

>  <SCORE.SYSTEM>
0

>  <SCORE.SYSTEM.CONST>
0

>  <SCORE.SYSTEM.DIHEDRAL>
0

>  <SCORE.SYSTEM.SOLV>
0

>  <SCORE.SYSTEM.norm>
0

>  <SCORE.heavy>
16

>  <SCORE.norm>
-0.756547

>  <RMSD>
0.596

$$$$
ligand
 OpenBabel11021811463D
libRbt.so/2013.1/901 2013/11/27
 16 16  0  0  0  0  0  0  0  0999 V2000
   51.8513   11.8684   15.0851 P   0  0  2  0  0  0  0  0  0  0  0  0
   52.5688   13.0886   15.5297 O   0  0  0  0  0  0  0  0  0  0  0  0
   52.6021   10.5653   15.6571 O   0  5  0  0  0  0  0  0  0  0  0  0
   51.8614   11.8114   13.4738 O   0  0  0  0  0  0  0  0  0  0  0  0
   46.7800   10.9337   17.6904 C   0  0  2  0  0  0  0  0  0  0  0  0
   46.1525    9.6740   17.4236 O   0  0  0  0  0  0  0  0  0  0  0  0
   45.9768   12.0930   17.0464 C   0  0  2  0  0  0  0  0  0  0  0  0
   44.5982   12.0968   17.5720 N   0  0  0  0  0  0  0  0  0  0  0  0
   45.9580   11.8888   15.5222 C   0  0  1  0  0  0  0  0  0  0  0  0
   45.2390   12.9522   14.8917 O   0  0  0  0  0  0  0  0  0  0  0  0
   47.4045   11.8897   15.0306 C   0  0  2  0  0  0  0  0  0  0  0  0
   47.4102   11.6996   13.6215 O   0  0  0  0  0  0  0  0  0  0  0  0
   48.1693   10.7317   15.7280 C   0  0  2  0  0  0  0  0  0  0  0  0
   48.1477   10.9101   17.1775 O   0  0  0  0  0  0  0  0  0  0  0  0
   49.6470   10.6963   15.2656 C   0  0  0  0  0  0  0  0  0  0  0  0
   50.3283   11.9085   15.6369 O   0  0  0  0  0  0  0  0  0  0  0  0
  1  2  1  1  0  0  0
  1  3  1  0  0  0  0
  1  4  2  0  0  0  0
  1 16  1  0  0  0  0
  5  6  1  6  0  0  0
  5  7  1  0  0  0  0
  5 14  1  0  0  0  0
  7  8  1  1  0  0  0
  7  9  1  0  0  0  0
  9 10  1  6  0  0  0
  9 11  1  0  0  0  0
 11 12  1  6  0  0  0
 11 13  1  0  0  0  0
 13 14  1  0  0  0  0
 13 15  1  6  0  0  0
 15 16  1  0  0  0  0
M  CHG  1   3  -1
M  END
>  <CHROM.1>
62.45604122,-177.59289723,-177.13579443,48.73520714,11.57430183,15.69543372
-0.22512887,-0.09261817,2.08107551

>  <Name>
ligand

>  <RI>
0

>  <Rbt.Current_Directory>
/home/itssahil/PROJECTS/Mol_Feturizer/New_Systems/rnas/3B4C

>  <Rbt.Executable>
rbdock ($Id: //depot/dev/client3/rdock/2013.1/src/exe/rbdock.cxx#4 $)

>  <Rbt.Library>
libRbt.so (2013.1, Build901 2013/11/27)

>  <Rbt.Parameter_File>
/export/apps/rDock/src/rDock_2013.1_src/data/scripts/dock_solv.prm

>  <Rbt.Receptor>
prm/pocket_docking_3.prm

>  <SCORE>
-12.0689

>  <SCORE.INTER>
-10.575

>  <SCORE.INTER.CONST>
1

>  <SCORE.INTER.POLAR>
-1.29668

>  <SCORE.INTER.ROT>
3

>  <SCORE.INTER.SOLV>
17.9375

>  <SCORE.INTER.VDW>
-14.3069

>  <SCORE.INTER.norm>
-0.660936

>  <SCORE.INTRA>
-1.49396

>  <SCORE.INTRA.DIHEDRAL>
-2.06381

>  <SCORE.INTRA.DIHEDRAL.0>
2.1318

>  <SCORE.INTRA.POLAR>
0

>  <SCORE.INTRA.POLAR.0>
0

>  <SCORE.INTRA.REPUL>
0

>  <SCORE.INTRA.REPUL.0>
0

>  <SCORE.INTRA.SOLV>
-0.172841

>  <SCORE.INTRA.SOLV.lig_0>
-58.6125

>  <SCORE.INTRA.VDW>
-0.375636

>  <SCORE.INTRA.VDW.0>
-0.432734

>  <SCORE.INTRA.norm>
-0.0933725

>  <SCORE.RESTR>
0

>  <SCORE.RESTR.CAVITY>
0

>  <SCORE.RESTR.norm>
0

>  <SCORE.SYSTEM>
0

>  <SCORE.SYSTEM.CONST>
0

>  <SCORE.SYSTEM.DIHEDRAL>
0

>  <SCORE.SYSTEM.SOLV>
0

>  <SCORE.SYSTEM.norm>
0

>  <SCORE.heavy>
16

>  <SCORE.norm>
-0.754309

>  <RMSD>
0.599

$$$$
ligand
 OpenBabel11021811463D
libRbt.so/2013.1/901 2013/11/27
 16 16  0  0  0  0  0  0  0  0999 V2000
   52.0582   11.7222   15.3951 P   0  0  2  0  0  0  0  0  0  0  0  0
   52.6924   13.0001   15.8024 O   0  0  0  0  0  0  0  0  0  0  0  0
   52.8797   10.4902   16.0246 O   0  5  0  0  0  0  0  0  0  0  0  0
   52.0951   11.6069   13.7874 O   0  0  0  0  0  0  0  0  0  0  0  0
   46.6806   10.3025   17.3978 C   0  0  2  0  0  0  0  0  0  0  0  0
   45.9959    9.3096   16.6250 O   0  0  0  0  0  0  0  0  0  0  0  0
   46.0892   11.7102   17.1284 C   0  0  2  0  0  0  0  0  0  0  0  0
   44.6514   11.7188   17.4594 N   0  0  0  0  0  0  0  0  0  0  0  0
   46.2886   12.0493   15.6416 C   0  0  1  0  0  0  0  0  0  0  0  0
   45.7697   13.3518   15.3597 O   0  0  0  0  0  0  0  0  0  0  0  0
   47.7883   12.0241   15.3514 C   0  0  2  0  0  0  0  0  0  0  0  0
   47.9952   12.3332   13.9790 O   0  0  0  0  0  0  0  0  0  0  0  0
   48.3338   10.6045   15.6663 C   0  0  2  0  0  0  0  0  0  0  0  0
   48.1039   10.2726   17.0700 O   0  0  0  0  0  0  0  0  0  0  0  0
   49.8566   10.5312   15.3936 C   0  0  0  0  0  0  0  0  0  0  0  0
   50.5278   11.6876   15.9265 O   0  0  0  0  0  0  0  0  0  0  0  0
  1  2  1  1  0  0  0
  1  3  1  0  0  0  0
  1  4  2  0  0  0  0
  1 16  1  0  0  0  0
  5  6  1  6  0  0  0
  5  7  1  0  0  0  0
  5 14  1  0  0  0  0
  7  8  1  6  0  0  0
  7  9  1  0  0  0  0
  9 10  1  1  0  0  0
  9 11  1  0  0  0  0
 11 12  1  6  0  0  0
 11 13  1  0  0  0  0
 13 14  1  0  0  0  0
 13 15  1  1  0  0  0
 15 16  1  0  0  0  0
M  CHG  1   3  -1
M  END
>  <CHROM.1>
44.77057247,-169.61298350,172.80149992,48.93233519,11.44705627,15.81685722
0.14991850,0.12896355,-0.63517525

>  <Name>
ligand

>  <RI>
0

>  <Rbt.Current_Directory>
/home/itssahil/PROJECTS/Mol_Feturizer/New_Systems/rnas/3B4C

>  <Rbt.Executable>
rbdock ($Id: //depot/dev/client3/rdock/2013.1/src/exe/rbdock.cxx#4 $)

>  <Rbt.Library>
libRbt.so (2013.1, Build901 2013/11/27)

>  <Rbt.Parameter_File>
/export/apps/rDock/src/rDock_2013.1_src/data/scripts/dock_solv.prm

>  <Rbt.Receptor>
prm/pocket_docking_3.prm

>  <SCORE>
-11.0516

>  <SCORE.INTER>
-10.49

>  <SCORE.INTER.CONST>
1

>  <SCORE.INTER.POLAR>
-1.29884

>  <SCORE.INTER.ROT>
3

>  <SCORE.INTER.SOLV>
18.6473

>  <SCORE.INTER.VDW>
-14.4796

>  <SCORE.INTER.norm>
-0.655627

>  <SCORE.INTRA>
-0.561539

>  <SCORE.INTRA.DIHEDRAL>
-0.737176

>  <SCORE.INTRA.DIHEDRAL.0>
2.1318

>  <SCORE.INTRA.POLAR>
0

>  <SCORE.INTRA.POLAR.0>
0

>  <SCORE.INTRA.REPUL>
0

>  <SCORE.INTRA.REPUL.0>
0

>  <SCORE.INTRA.SOLV>
0.126676

>  <SCORE.INTRA.SOLV.lig_0>
-58.6125

>  <SCORE.INTRA.VDW>
-0.256289

>  <SCORE.INTRA.VDW.0>
-0.432734

>  <SCORE.INTRA.norm>
-0.0350962

>  <SCORE.RESTR>
0

>  <SCORE.RESTR.CAVITY>
0

>  <SCORE.RESTR.norm>
0

>  <SCORE.SYSTEM>
0

>  <SCORE.SYSTEM.CONST>
0

>  <SCORE.SYSTEM.DIHEDRAL>
0

>  <SCORE.SYSTEM.SOLV>
0

>  <SCORE.SYSTEM.norm>
0

>  <SCORE.heavy>
16

>  <SCORE.norm>
-0.690723

>  <RMSD>
0.604

$$$$
ligand
 OpenBabel11021811463D
libRbt.so/2013.1/901 2013/11/27
 16 16  0  0  0  0  0  0  0  0999 V2000
   51.9223   11.8140   15.0129 P   0  0  2  0  0  0  0  0  0  0  0  0
   52.5606   13.1344   15.2374 O   0  0  0  0  0  0  0  0  0  0  0  0
   52.8576   10.6547   15.6212 O   0  5  0  0  0  0  0  0  0  0  0  0
   51.7578   11.5736   13.4271 O   0  0  0  0  0  0  0  0  0  0  0  0
   46.7603   10.6317   17.6151 C   0  0  2  0  0  0  0  0  0  0  0  0
   46.0208    9.5534   17.0301 O   0  0  0  0  0  0  0  0  0  0  0  0
   46.1362   11.9972   17.2280 C   0  0  2  0  0  0  0  0  0  0  0  0
   44.7318   12.0490   17.6770 N   0  0  0  0  0  0  0  0  0  0  0  0
   46.2058   12.1523   15.6994 C   0  0  1  0  0  0  0  0  0  0  0  0
   45.6539   13.4117   15.3065 O   0  0  0  0  0  0  0  0  0  0  0  0
   47.6756   12.0889   15.2876 C   0  0  2  0  0  0  0  0  0  0  0  0
   47.7626   12.2281   13.8752 O   0  0  0  0  0  0  0  0  0  0  0  0
   48.2578   10.7171   15.7251 C   0  0  2  0  0  0  0  0  0  0  0  0
   48.1508   10.5593   17.1732 O   0  0  0  0  0  0  0  0  0  0  0  0
   49.7526   10.6082   15.3345 C   0  0  0  0  0  0  0  0  0  0  0  0
   50.4741   11.7859   15.7392 O   0  0  0  0  0  0  0  0  0  0  0  0
  1  2  1  1  0  0  0
  1  3  1  0  0  0  0
  1  4  2  0  0  0  0
  1 16  1  0  0  0  0
  5  6  1  6  0  0  0
  5  7  1  0  0  0  0
  5 14  1  0  0  0  0
  7  8  1  6  0  0  0
  7  9  1  0  0  0  0
  9 10  1  1  0  0  0
  9 11  1  0  0  0  0
 11 12  1  6  0  0  0
 11 13  1  0  0  0  0
 13 14  1  0  0  0  0
 13 15  1  1  0  0  0
 15 16  1  0  0  0  0
M  CHG  1   3  -1
M  END
>  <CHROM.1>
48.37139738,-166.20499871,169.99541678,48.85471693,11.58117121,15.72386042
0.21121386,0.18882828,-0.76459219

>  <Name>
ligand

>  <RI>
0

>  <Rbt.Current_Directory>
/home/itssahil/PROJECTS/Mol_Feturizer/New_Systems/rnas/3B4C

>  <Rbt.Executable>
rbdock ($Id: //depot/dev/client3/rdock/2013.1/src/exe/rbdock.cxx#4 $)

>  <Rbt.Library>
libRbt.so (2013.1, Build901 2013/11/27)

>  <Rbt.Parameter_File>
/export/apps/rDock/src/rDock_2013.1_src/data/scripts/dock_solv.prm

>  <Rbt.Receptor>
prm/pocket_docking_2.prm

>  <SCORE>
-11.1486

>  <SCORE.INTER>
-10.6639

>  <SCORE.INTER.CONST>
1

>  <SCORE.INTER.POLAR>
-1.29904

>  <SCORE.INTER.ROT>
3

>  <SCORE.INTER.SOLV>
18.0479

>  <SCORE.INTER.VDW>
-14.3951

>  <SCORE.INTER.norm>
-0.666496

>  <SCORE.INTRA>
-0.484684

>  <SCORE.INTRA.DIHEDRAL>
-0.601841

>  <SCORE.INTRA.DIHEDRAL.0>
2.1318

>  <SCORE.INTRA.POLAR>
0

>  <SCORE.INTRA.POLAR.0>
0

>  <SCORE.INTRA.REPUL>
0

>  <SCORE.INTRA.REPUL.0>
0

>  <SCORE.INTRA.SOLV>
0.230857

>  <SCORE.INTRA.SOLV.lig_0>
-58.6125

>  <SCORE.INTRA.VDW>
-0.299192

>  <SCORE.INTRA.VDW.0>
-0.432734

>  <SCORE.INTRA.norm>
-0.0302927

>  <SCORE.RESTR>
0

>  <SCORE.RESTR.CAVITY>
0

>  <SCORE.RESTR.norm>
0

>  <SCORE.SYSTEM>
0

>  <SCORE.SYSTEM.CONST>
0

>  <SCORE.SYSTEM.DIHEDRAL>
0

>  <SCORE.SYSTEM.SOLV>
0

>  <SCORE.SYSTEM.norm>
0

>  <SCORE.heavy>
16

>  <SCORE.norm>
-0.696789

>  <RMSD>
0.611

$$$$
ligand
 OpenBabel11021811463D
libRbt.so/2013.1/901 2013/11/27
 16 16  0  0  0  0  0  0  0  0999 V2000
   51.9367   11.8122   15.3067 P   0  0  2  0  0  0  0  0  0  0  0  0
   52.6720   12.9842   15.8423 O   0  0  0  0  0  0  0  0  0  0  0  0
   52.5821   10.4596   15.8923 O   0  5  0  0  0  0  0  0  0  0  0  0
   52.0679   11.7999   13.6997 O   0  0  0  0  0  0  0  0  0  0  0  0
   46.7041   10.7756   17.5682 C   0  0  2  0  0  0  0  0  0  0  0  0
   46.0082    9.6336   17.0549 O   0  0  0  0  0  0  0  0  0  0  0  0
   46.0128   12.0874   17.1152 C   0  0  2  0  0  0  0  0  0  0  0  0
   44.6131   12.1003   17.5814 N   0  0  0  0  0  0  0  0  0  0  0  0
   46.0564   12.1595   15.5795 C   0  0  1  0  0  0  0  0  0  0  0  0
   45.4421   13.3685   15.1256 O   0  0  0  0  0  0  0  0  0  0  0  0
   47.5224   12.1400   15.1502 C   0  0  2  0  0  0  0  0  0  0  0  0
   47.5856   12.2036   13.7311 O   0  0  0  0  0  0  0  0  0  0  0  0
   48.1728   10.8229   15.6544 C   0  0  2  0  0  0  0  0  0  0  0  0
   48.0910   10.7419   17.1105 O   0  0  0  0  0  0  0  0  0  0  0  0
   49.6661   10.7604   15.2484 C   0  0  0  0  0  0  0  0  0  0  0  0
   50.3792   11.9085   15.7430 O   0  0  0  0  0  0  0  0  0  0  0  0
  1  2  1  1  0  0  0
  1  3  1  0  0  0  0
  1  4  2  0  0  0  0
  1 16  1  0  0  0  0
  5  6  1  6  0  0  0
  5  7  1  0  0  0  0
  5 14  1  0  0  0  0
  7  8  1  6  0  0  0
  7  9  1  0  0  0  0
  9 10  1  1  0  0  0
  9 11  1  0  0  0  0
 11 12  1  6  0  0  0
 11 13  1  0  0  0  0
 13 14  1  0  0  0  0
 13 15  1  1  0  0  0
 15 16  1  0  0  0  0
M  CHG  1   3  -1
M  END
>  <CHROM.1>
56.48847421,179.82828857,-178.87531896,48.78976631,11.62543371,15.77478086
-0.15998610,-0.12884951,2.27348380

>  <Name>
ligand

>  <RI>
0

>  <Rbt.Current_Directory>
/home/itssahil/PROJECTS/Mol_Feturizer/New_Systems/rnas/3B4C

>  <Rbt.Executable>
rbdock ($Id: //depot/dev/client3/rdock/2013.1/src/exe/rbdock.cxx#4 $)

>  <Rbt.Library>
libRbt.so (2013.1, Build901 2013/11/27)

>  <Rbt.Parameter_File>
/export/apps/rDock/src/rDock_2013.1_src/data/scripts/dock_solv.prm

>  <Rbt.Receptor>
prm/pocket_docking_3.prm

>  <SCORE>
-11.929

>  <SCORE.INTER>
-10.4514

>  <SCORE.INTER.CONST>
1

>  <SCORE.INTER.POLAR>
-1.29828

>  <SCORE.INTER.ROT>
3

>  <SCORE.INTER.SOLV>
18.2189

>  <SCORE.INTER.VDW>
-14.313

>  <SCORE.INTER.norm>
-0.653212

>  <SCORE.INTRA>
-1.47757

>  <SCORE.INTRA.DIHEDRAL>
-2.08341

>  <SCORE.INTRA.DIHEDRAL.0>
2.1318

>  <SCORE.INTRA.POLAR>
0

>  <SCORE.INTRA.POLAR.0>
0

>  <SCORE.INTRA.REPUL>
0

>  <SCORE.INTRA.REPUL.0>
0

>  <SCORE.INTRA.SOLV>
-0.171014

>  <SCORE.INTRA.SOLV.lig_0>
-58.6125

>  <SCORE.INTRA.VDW>
-0.35036

>  <SCORE.INTRA.VDW.0>
-0.432734

>  <SCORE.INTRA.norm>
-0.0923483

>  <SCORE.RESTR>
0

>  <SCORE.RESTR.CAVITY>
0

>  <SCORE.RESTR.norm>
0

>  <SCORE.SYSTEM>
0

>  <SCORE.SYSTEM.CONST>
0

>  <SCORE.SYSTEM.DIHEDRAL>
0

>  <SCORE.SYSTEM.SOLV>
0

>  <SCORE.SYSTEM.norm>
0

>  <SCORE.heavy>
16

>  <SCORE.norm>
-0.745561

>  <RMSD>
0.636

$$$$
ligand
 OpenBabel11021811463D
libRbt.so/2013.1/901 2013/11/27
 16 16  0  0  0  0  0  0  0  0999 V2000
   52.0108   11.7140   15.2836 P   0  0  2  0  0  0  0  0  0  0  0  0
   52.6801   12.9942   15.6220 O   0  0  0  0  0  0  0  0  0  0  0  0
   52.8024   10.4951   15.9737 O   0  5  0  0  0  0  0  0  0  0  0  0
   52.0376   11.5147   13.6839 O   0  0  0  0  0  0  0  0  0  0  0  0
   46.6403   10.4468   17.4038 C   0  0  2  0  0  0  0  0  0  0  0  0
   45.9069    9.4817   16.6406 O   0  0  0  0  0  0  0  0  0  0  0  0
   46.0831   11.8736   17.1629 C   0  0  2  0  0  0  0  0  0  0  0  0
   44.6554   11.9204   17.5321 N   0  0  0  0  0  0  0  0  0  0  0  0
   46.2532   12.2214   15.6745 C   0  0  1  0  0  0  0  0  0  0  0  0
   45.7652   13.5410   15.4182 O   0  0  0  0  0  0  0  0  0  0  0  0
   47.7434   12.1557   15.3444 C   0  0  2  0  0  0  0  0  0  0  0  0
   47.9231   12.4722   13.9699 O   0  0  0  0  0  0  0  0  0  0  0  0
   48.2555   10.7180   15.6319 C   0  0  2  0  0  0  0  0  0  0  0  0
   48.0530   10.3792   17.0382 O   0  0  0  0  0  0  0  0  0  0  0  0
   49.7678   10.6035   15.3183 C   0  0  0  0  0  0  0  0  0  0  0  0
   50.4823   11.7475   15.8205 O   0  0  0  0  0  0  0  0  0  0  0  0
  1  2  1  1  0  0  0
  1  3  1  0  0  0  0
  1  4  2  0  0  0  0
  1 16  1  0  0  0  0
  5  6  1  6  0  0  0
  5  7  1  0  0  0  0
  5 14  1  0  0  0  0
  7  8  1  6  0  0  0
  7  9  1  0  0  0  0
  9 10  1  1  0  0  0
  9 11  1  0  0  0  0
 11 12  1  6  0  0  0
 11 13  1  0  0  0  0
 13 14  1  0  0  0  0
 13 15  1  1  0  0  0
 15 16  1  0  0  0  0
M  CHG  1   3  -1
M  END
>  <CHROM.1>
43.63728032,-171.32734702,171.12937090,48.88525261,11.53511793,15.77878811
0.13813146,0.16665769,-0.62701922

>  <Name>
ligand

>  <RI>
0

>  <Rbt.Current_Directory>
/home/itssahil/PROJECTS/Mol_Feturizer/New_Systems/rnas/3B4C

>  <Rbt.Executable>
rbdock ($Id: //depot/dev/client3/rdock/2013.1/src/exe/rbdock.cxx#4 $)

>  <Rbt.Library>
libRbt.so (2013.1, Build901 2013/11/27)

>  <Rbt.Parameter_File>
/export/apps/rDock/src/rDock_2013.1_src/data/scripts/dock_solv.prm

>  <Rbt.Receptor>
prm/pocket_docking_4.prm

>  <SCORE>
-11.1643

>  <SCORE.INTER>
-10.6073

>  <SCORE.INTER.CONST>
1

>  <SCORE.INTER.POLAR>
-1.29904

>  <SCORE.INTER.ROT>
3

>  <SCORE.INTER.SOLV>
18.7021

>  <SCORE.INTER.VDW>
-14.5754

>  <SCORE.INTER.norm>
-0.662957

>  <SCORE.INTRA>
-0.557017

>  <SCORE.INTRA.DIHEDRAL>
-0.734408

>  <SCORE.INTRA.DIHEDRAL.0>
2.1318

>  <SCORE.INTRA.POLAR>
0

>  <SCORE.INTRA.POLAR.0>
0

>  <SCORE.INTRA.REPUL>
0

>  <SCORE.INTRA.REPUL.0>
0

>  <SCORE.INTRA.SOLV>
0.0528533

>  <SCORE.INTRA.SOLV.lig_0>
-58.6125

>  <SCORE.INTRA.VDW>
-0.21624

>  <SCORE.INTRA.VDW.0>
-0.432734

>  <SCORE.INTRA.norm>
-0.0348136

>  <SCORE.RESTR>
0

>  <SCORE.RESTR.CAVITY>
0

>  <SCORE.RESTR.norm>
0

>  <SCORE.SYSTEM>
0

>  <SCORE.SYSTEM.CONST>
0

>  <SCORE.SYSTEM.DIHEDRAL>
0

>  <SCORE.SYSTEM.SOLV>
0

>  <SCORE.SYSTEM.norm>
0

>  <SCORE.heavy>
16

>  <SCORE.norm>
-0.697771

>  <RMSD>
0.636

$$$$
ligand
 OpenBabel11021811463D
libRbt.so/2013.1/901 2013/11/27
 16 16  0  0  0  0  0  0  0  0999 V2000
   51.8129   11.8336   15.0505 P   0  0  2  0  0  0  0  0  0  0  0  0
   52.5527   13.0509   15.4656 O   0  0  0  0  0  0  0  0  0  0  0  0
   52.5304   10.5324   15.6676 O   0  5  0  0  0  0  0  0  0  0  0  0
   51.8358   11.7287   13.4417 O   0  0  0  0  0  0  0  0  0  0  0  0
   46.6891   10.9676   17.5972 C   0  0  2  0  0  0  0  0  0  0  0  0
   46.0002    9.7633   17.2410 O   0  0  0  0  0  0  0  0  0  0  0  0
   45.9515   12.2084   17.0312 C   0  0  2  0  0  0  0  0  0  0  0  0
   44.5706   12.2471   17.5494 N   0  0  0  0  0  0  0  0  0  0  0  0
   45.9347   12.1110   15.4964 C   0  0  1  0  0  0  0  0  0  0  0  0
   45.2762   13.2509   14.9377 O   0  0  0  0  0  0  0  0  0  0  0  0
   47.3833   12.0710   15.0128 C   0  0  2  0  0  0  0  0  0  0  0  0
   47.3908   11.9784   13.5940 O   0  0  0  0  0  0  0  0  0  0  0  0
   48.0822   10.8299   15.6320 C   0  0  2  0  0  0  0  0  0  0  0  0
   48.0579   10.9090   17.0902 O   0  0  0  0  0  0  0  0  0  0  0  0
   49.5599   10.7502   15.1751 C   0  0  0  0  0  0  0  0  0  0  0  0
   50.2864   11.9226   15.5866 O   0  0  0  0  0  0  0  0  0  0  0  0
  1  2  1  1  0  0  0
  1  3  1  0  0  0  0
  1  4  2  0  0  0  0
  1 16  1  0  0  0  0
  5  6  1  6  0  0  0
  5  7  1  0  0  0  0
  5 14  1  0  0  0  0
  7  8  1  1  0  0  0
  7  9  1  0  0  0  0
  9 10  1  6  0  0  0
  9 11  1  0  0  0  0
 11 12  1  6  0  0  0
 11 13  1  0  0  0  0
 13 14  1  0  0  0  0
 13 15  1  6  0  0  0
 15 16  1  0  0  0  0
M  CHG  1   3  -1
M  END
>  <CHROM.1>
60.15776718,-178.04192918,179.42076788,48.68722378,11.64842118,15.64749604
-0.19962910,-0.13465479,2.15528902

>  <Name>
ligand

>  <RI>
0

>  <Rbt.Current_Directory>
/home/itssahil/PROJECTS/Mol_Feturizer/New_Systems/rnas/3B4C

>  <Rbt.Executable>
rbdock ($Id: //depot/dev/client3/rdock/2013.1/src/exe/rbdock.cxx#4 $)

>  <Rbt.Library>
libRbt.so (2013.1, Build901 2013/11/27)

>  <Rbt.Parameter_File>
/export/apps/rDock/src/rDock_2013.1_src/data/scripts/dock_solv.prm

>  <Rbt.Receptor>
prm/pocket_docking_3.prm

>  <SCORE>
-12.1147

>  <SCORE.INTER>
-10.5974

>  <SCORE.INTER.CONST>
1

>  <SCORE.INTER.POLAR>
-1.29901

>  <SCORE.INTER.ROT>
3

>  <SCORE.INTER.SOLV>
17.4401

>  <SCORE.INTER.VDW>
-14.1483

>  <SCORE.INTER.norm>
-0.662337

>  <SCORE.INTRA>
-1.51736

>  <SCORE.INTRA.DIHEDRAL>
-2.10984

>  <SCORE.INTRA.DIHEDRAL.0>
2.1318

>  <SCORE.INTRA.POLAR>
0

>  <SCORE.INTRA.POLAR.0>
0

>  <SCORE.INTRA.REPUL>
0

>  <SCORE.INTRA.REPUL.0>
0

>  <SCORE.INTRA.SOLV>
-0.172109

>  <SCORE.INTRA.SOLV.lig_0>
-58.6125

>  <SCORE.INTRA.VDW>
-0.376386

>  <SCORE.INTRA.VDW.0>
-0.432734

>  <SCORE.INTRA.norm>
-0.0948349

>  <SCORE.RESTR>
0

>  <SCORE.RESTR.CAVITY>
0

>  <SCORE.RESTR.norm>
0

>  <SCORE.SYSTEM>
0

>  <SCORE.SYSTEM.CONST>
0

>  <SCORE.SYSTEM.DIHEDRAL>
0

>  <SCORE.SYSTEM.SOLV>
0

>  <SCORE.SYSTEM.norm>
0

>  <SCORE.heavy>
16

>  <SCORE.norm>
-0.757172

>  <RMSD>
0.639

$$$$
ligand
 OpenBabel11021811463D
libRbt.so/2013.1/901 2013/11/27
 16 16  0  0  0  0  0  0  0  0999 V2000
   51.7662   11.6676   15.1479 P   0  0  2  0  0  0  0  0  0  0  0  0
   52.5312   12.8738   15.5492 O   0  0  0  0  0  0  0  0  0  0  0  0
   52.3839   10.3727   15.8763 O   0  5  0  0  0  0  0  0  0  0  0  0
   51.8877   11.4761   13.5516 O   0  0  0  0  0  0  0  0  0  0  0  0
   46.5334   11.0214   17.5232 C   0  0  2  0  0  0  0  0  0  0  0  0
   45.8120    9.8400   17.1549 O   0  0  0  0  0  0  0  0  0  0  0  0
   45.8596   12.2834   16.9253 C   0  0  2  0  0  0  0  0  0  0  0  0
   44.4659   12.3769   17.4001 N   0  0  0  0  0  0  0  0  0  0  0  0
   45.8864   12.1732   15.3915 C   0  0  1  0  0  0  0  0  0  0  0  0
   45.2877   13.3315   14.8041 O   0  0  0  0  0  0  0  0  0  0  0  0
   47.3467   12.0763   14.9533 C   0  0  2  0  0  0  0  0  0  0  0  0
   47.3944   11.9711   13.5361 O   0  0  0  0  0  0  0  0  0  0  0  0
   47.9802   10.8159   15.6032 C   0  0  2  0  0  0  0  0  0  0  0  0
   47.9141   10.9084   17.0593 O   0  0  0  0  0  0  0  0  0  0  0  0
   49.4673   10.6784   15.1929 C   0  0  0  0  0  0  0  0  0  0  0  0
   50.2138   11.8477   15.5762 O   0  0  0  0  0  0  0  0  0  0  0  0
  1  2  1  1  0  0  0
  1  3  1  0  0  0  0
  1  4  2  0  0  0  0
  1 16  1  0  0  0  0
  5  6  1  6  0  0  0
  5  7  1  0  0  0  0
  5 14  1  0  0  0  0
  7  8  1  1  0  0  0
  7  9  1  0  0  0  0
  9 10  1  6  0  0  0
  9 11  1  0  0  0  0
 11 12  1  6  0  0  0
 11 13  1  0  0  0  0
 13 14  1  0  0  0  0
 13 15  1  1  0  0  0
 15 16  1  0  0  0  0
M  CHG  1   3  -1
M  END
>  <CHROM.1>
58.13332443,179.42418813,-179.82265806,48.61598114,11.60797700,15.63819216
-0.14943869,-0.14745160,2.15113885

>  <Name>
ligand

>  <RI>
0

>  <Rbt.Current_Directory>
/home/itssahil/PROJECTS/Mol_Feturizer/New_Systems/rnas/3B4C

>  <Rbt.Executable>
rbdock ($Id: //depot/dev/client3/rdock/2013.1/src/exe/rbdock.cxx#4 $)

>  <Rbt.Library>
libRbt.so (2013.1, Build901 2013/11/27)

>  <Rbt.Parameter_File>
/export/apps/rDock/src/rDock_2013.1_src/data/scripts/dock_solv.prm

>  <Rbt.Receptor>
prm/pocket_docking_8.prm

>  <SCORE>
-12.1273

>  <SCORE.INTER>
-10.623

>  <SCORE.INTER.CONST>
1

>  <SCORE.INTER.POLAR>
-1.29904

>  <SCORE.INTER.ROT>
3

>  <SCORE.INTER.SOLV>
17.3732

>  <SCORE.INTER.VDW>
-14.1429

>  <SCORE.INTER.norm>
-0.663935

>  <SCORE.INTRA>
-1.50436

>  <SCORE.INTRA.DIHEDRAL>
-2.11556

>  <SCORE.INTRA.DIHEDRAL.0>
2.1318

>  <SCORE.INTRA.POLAR>
0

>  <SCORE.INTRA.POLAR.0>
0

>  <SCORE.INTRA.REPUL>
0

>  <SCORE.INTRA.REPUL.0>
0

>  <SCORE.INTRA.SOLV>
-0.171726

>  <SCORE.INTRA.SOLV.lig_0>
-58.6125

>  <SCORE.INTRA.VDW>
-0.360716

>  <SCORE.INTRA.VDW.0>
-0.432734

>  <SCORE.INTRA.norm>
-0.0940223

>  <SCORE.RESTR>
0

>  <SCORE.RESTR.CAVITY>
0

>  <SCORE.RESTR.norm>
0

>  <SCORE.SYSTEM>
0

>  <SCORE.SYSTEM.CONST>
0

>  <SCORE.SYSTEM.DIHEDRAL>
0

>  <SCORE.SYSTEM.SOLV>
0

>  <SCORE.SYSTEM.norm>
0

>  <SCORE.heavy>
16

>  <SCORE.norm>
-0.757957

>  <RMSD>
0.651

$$$$
ligand
 OpenBabel11021811463D
libRbt.so/2013.1/901 2013/11/27
 16 16  0  0  0  0  0  0  0  0999 V2000
   51.7731   11.7027   15.2473 P   0  0  2  0  0  0  0  0  0  0  0  0
   52.5336   12.8669   15.7645 O   0  0  0  0  0  0  0  0  0  0  0  0
   52.3558   10.3498   15.8947 O   0  5  0  0  0  0  0  0  0  0  0  0
   51.9466   11.6319   13.6459 O   0  0  0  0  0  0  0  0  0  0  0  0
   46.5000   10.9739   17.5048 C   0  0  2  0  0  0  0  0  0  0  0  0
   45.7985    9.7901   17.1070 O   0  0  0  0  0  0  0  0  0  0  0  0
   45.8253   12.2365   16.9092 C   0  0  2  0  0  0  0  0  0  0  0  0
   44.4213   12.3098   17.3567 N   0  0  0  0  0  0  0  0  0  0  0  0
   45.8843   12.1463   15.3750 C   0  0  1  0  0  0  0  0  0  0  0  0
   45.2855   13.3059   14.7902 O   0  0  0  0  0  0  0  0  0  0  0  0
   47.3541   12.0698   14.9655 C   0  0  2  0  0  0  0  0  0  0  0  0
   47.4314   11.9833   13.5483 O   0  0  0  0  0  0  0  0  0  0  0  0
   47.9874   10.8077   15.6122 C   0  0  2  0  0  0  0  0  0  0  0  0
   47.8908   10.8810   17.0678 O   0  0  0  0  0  0  0  0  0  0  0  0
   49.4838   10.6906   15.2306 C   0  0  0  0  0  0  0  0  0  0  0  0
   50.2087   11.8658   15.6368 O   0  0  0  0  0  0  0  0  0  0  0  0
  1  2  1  1  0  0  0
  1  3  1  0  0  0  0
  1  4  2  0  0  0  0
  1 16  1  0  0  0  0
  5  6  1  6  0  0  0
  5  7  1  0  0  0  0
  5 14  1  0  0  0  0
  7  8  1  6  0  0  0
  7  9  1  0  0  0  0
  9 10  1  6  0  0  0
  9 11  1  0  0  0  0
 11 12  1  6  0  0  0
 11 13  1  0  0  0  0
 13 14  1  0  0  0  0
 13 15  1  1  0  0  0
 15 16  1  0  0  0  0
M  CHG  1   3  -1
M  END
>  <CHROM.1>
57.80039271,179.03894898,-175.49727181,48.61407763,11.60559571,15.67058907
-0.13782718,-0.12776610,2.16692471

>  <Name>
ligand

>  <RI>
0

>  <Rbt.Current_Directory>
/home/itssahil/PROJECTS/Mol_Feturizer/New_Systems/rnas/3B4C

>  <Rbt.Executable>
rbdock ($Id: //depot/dev/client3/rdock/2013.1/src/exe/rbdock.cxx#4 $)

>  <Rbt.Library>
libRbt.so (2013.1, Build901 2013/11/27)

>  <Rbt.Parameter_File>
/export/apps/rDock/src/rDock_2013.1_src/data/scripts/dock_solv.prm

>  <Rbt.Receptor>
prm/pocket_docking_3.prm

>  <SCORE>
-12.1198

>  <SCORE.INTER>
-10.6551

>  <SCORE.INTER.CONST>
1

>  <SCORE.INTER.POLAR>
-1.29904

>  <SCORE.INTER.ROT>
3

>  <SCORE.INTER.SOLV>
17.3553

>  <SCORE.INTER.VDW>
-14.1584

>  <SCORE.INTER.norm>
-0.665946

>  <SCORE.INTRA>
-1.46467

>  <SCORE.INTRA.DIHEDRAL>
-2.07345

>  <SCORE.INTRA.DIHEDRAL.0>
2.1318

>  <SCORE.INTRA.POLAR>
0

>  <SCORE.INTRA.POLAR.0>
0

>  <SCORE.INTRA.REPUL>
0

>  <SCORE.INTRA.REPUL.0>
0

>  <SCORE.INTRA.SOLV>
-0.172783

>  <SCORE.INTRA.SOLV.lig_0>
-58.6125

>  <SCORE.INTRA.VDW>
-0.341553

>  <SCORE.INTRA.VDW.0>
-0.432734

>  <SCORE.INTRA.norm>
-0.0915419

>  <SCORE.RESTR>
0

>  <SCORE.RESTR.CAVITY>
0

>  <SCORE.RESTR.norm>
0

>  <SCORE.SYSTEM>
0

>  <SCORE.SYSTEM.CONST>
0

>  <SCORE.SYSTEM.DIHEDRAL>
0

>  <SCORE.SYSTEM.SOLV>
0

>  <SCORE.SYSTEM.norm>
0

>  <SCORE.heavy>
16

>  <SCORE.norm>
-0.757488

>  <RMSD>
0.655

$$$$
ligand
 OpenBabel11021811463D
libRbt.so/2013.1/901 2013/11/27
 16 16  0  0  0  0  0  0  0  0999 V2000
   52.1476   11.7526   15.4233 P   0  0  2  0  0  0  0  0  0  0  0  0
   52.7140   13.0040   15.9841 O   0  0  0  0  0  0  0  0  0  0  0  0
   52.9190   10.4865   16.0483 O   0  5  0  0  0  0  0  0  0  0  0  0
   52.3550   11.7529   13.8244 O   0  0  0  0  0  0  0  0  0  0  0  0
   46.9231   10.6434   17.5499 C   0  0  2  0  0  0  0  0  0  0  0  0
   46.5135    9.2708   17.5427 O   0  0  0  0  0  0  0  0  0  0  0  0
   46.0623   11.4770   16.5660 C   0  0  2  0  0  0  0  0  0  0  0  0
   44.6386   11.3753   16.9394 N   0  0  0  0  0  0  0  0  0  0  0  0
   46.2736   10.9292   15.1445 C   0  0  1  0  0  0  0  0  0  0  0  0
   45.5068   11.6876   14.2054 O   0  0  0  0  0  0  0  0  0  0  0  0
   47.7589   11.0543   14.8093 C   0  0  2  0  0  0  0  0  0  0  0  0
   47.9771   10.5504   13.4977 O   0  0  0  0  0  0  0  0  0  0  0  0
   48.5747   10.2280   15.8406 C   0  0  2  0  0  0  0  0  0  0  0  0
   48.3371   10.7274   17.1925 O   0  0  0  0  0  0  0  0  0  0  0  0
   50.0916   10.3301   15.5455 C   0  0  0  0  0  0  0  0  0  0  0  0
   50.5706   11.6659   15.7858 O   0  0  0  0  0  0  0  0  0  0  0  0
  1  2  1  1  0  0  0
  1  3  1  0  0  0  0
  1  4  2  0  0  0  0
  1 16  1  0  0  0  0
  5  6  1  6  0  0  0
  5  7  1  0  0  0  0
  5 14  1  0  0  0  0
  7  8  1  1  0  0  0
  7  9  1  0  0  0  0
  9 10  1  6  0  0  0
  9 11  1  0  0  0  0
 11 12  1  6  0  0  0
 11 13  1  0  0  0  0
 13 14  1  0  0  0  0
 13 15  1  6  0  0  0
 15 16  1  0  0  0  0
M  CHG  1   3  -1
M  END
>  <CHROM.1>
67.58529174,-178.19344844,-165.82997990,49.02987066,11.11424648,15.70269326
-0.15122406,0.09492057,1.83253036

>  <Name>
ligand

>  <RI>
0

>  <Rbt.Current_Directory>
/home/itssahil/PROJECTS/Mol_Feturizer/New_Systems/rnas/3B4C

>  <Rbt.Executable>
rbdock ($Id: //depot/dev/client3/rdock/2013.1/src/exe/rbdock.cxx#4 $)

>  <Rbt.Library>
libRbt.so (2013.1, Build901 2013/11/27)

>  <Rbt.Parameter_File>
/export/apps/rDock/src/rDock_2013.1_src/data/scripts/dock_solv.prm

>  <Rbt.Receptor>
prm/pocket_docking_6.prm

>  <SCORE>
-11.9696

>  <SCORE.INTER>
-10.8324

>  <SCORE.INTER.CONST>
1

>  <SCORE.INTER.POLAR>
-1.29904

>  <SCORE.INTER.ROT>
3

>  <SCORE.INTER.SOLV>
17.6646

>  <SCORE.INTER.VDW>
-14.3797

>  <SCORE.INTER.norm>
-0.677028

>  <SCORE.INTRA>
-1.13712

>  <SCORE.INTRA.DIHEDRAL>
-1.58622

>  <SCORE.INTRA.DIHEDRAL.0>
2.1318

>  <SCORE.INTRA.POLAR>
0

>  <SCORE.INTRA.POLAR.0>
0

>  <SCORE.INTRA.REPUL>
0

>  <SCORE.INTRA.REPUL.0>
0

>  <SCORE.INTRA.SOLV>
-0.189347

>  <SCORE.INTRA.SOLV.lig_0>
-58.6125

>  <SCORE.INTRA.VDW>
-0.249337

>  <SCORE.INTRA.VDW.0>
-0.432734

>  <SCORE.INTRA.norm>
-0.0710699

>  <SCORE.RESTR>
0

>  <SCORE.RESTR.CAVITY>
0

>  <SCORE.RESTR.norm>
0

>  <SCORE.SYSTEM>
0

>  <SCORE.SYSTEM.CONST>
0

>  <SCORE.SYSTEM.DIHEDRAL>
0

>  <SCORE.SYSTEM.SOLV>
0

>  <SCORE.SYSTEM.norm>
0

>  <SCORE.heavy>
16

>  <SCORE.norm>
-0.748098

>  <RMSD>
0.661

$$$$
ligand
 OpenBabel11021811463D
libRbt.so/2013.1/901 2013/11/27
 16 16  0  0  0  0  0  0  0  0999 V2000
   51.7883   11.6903   15.2509 P   0  0  2  0  0  0  0  0  0  0  0  0
   52.5550   12.8703   15.7211 O   0  0  0  0  0  0  0  0  0  0  0  0
   52.3910   10.3568   15.9196 O   0  5  0  0  0  0  0  0  0  0  0  0
   51.9267   11.5791   13.6484 O   0  0  0  0  0  0  0  0  0  0  0  0
   46.5107   11.0077   17.4974 C   0  0  2  0  0  0  0  0  0  0  0  0
   45.7920    9.8395   17.0841 O   0  0  0  0  0  0  0  0  0  0  0  0
   45.8501   12.2882   16.9248 C   0  0  2  0  0  0  0  0  0  0  0  0
   44.4491   12.3728   17.3797 N   0  0  0  0  0  0  0  0  0  0  0  0
   45.9013   12.2215   15.3891 C   0  0  1  0  0  0  0  0  0  0  0  0
   45.3154   13.3979   14.8253 O   0  0  0  0  0  0  0  0  0  0  0  0
   47.3682   12.1323   14.9719 C   0  0  2  0  0  0  0  0  0  0  0  0
   47.4385   12.0672   13.5532 O   0  0  0  0  0  0  0  0  0  0  0  0
   47.9877   10.8520   15.5958 C   0  0  2  0  0  0  0  0  0  0  0  0
   47.8983   10.9034   17.0527 O   0  0  0  0  0  0  0  0  0  0  0  0
   49.4808   10.7213   15.2057 C   0  0  0  0  0  0  0  0  0  0  0  0
   50.2322   11.8575   15.6707 O   0  0  0  0  0  0  0  0  0  0  0  0
  1  2  1  1  0  0  0
  1  3  1  0  0  0  0
  1  4  2  0  0  0  0
  1 16  1  0  0  0  0
  5  6  1  6  0  0  0
  5  7  1  0  0  0  0
  5 14  1  0  0  0  0
  7  8  1  6  0  0  0
  7  9  1  0  0  0  0
  9 10  1  6  0  0  0
  9 11  1  0  0  0  0
 11 12  1  6  0  0  0
 11 13  1  0  0  0  0
 13 14  1  0  0  0  0
 13 15  1  1  0  0  0
 15 16  1  0  0  0  0
M  CHG  1   3  -1
M  END
>  <CHROM.1>
59.93504334,179.87868063,179.45008377,48.62699148,11.63560243,15.67284163
-0.12923418,-0.13990250,2.17919842

>  <Name>
ligand

>  <RI>
0

>  <Rbt.Current_Directory>
/home/itssahil/PROJECTS/Mol_Feturizer/New_Systems/rnas/3B4C

>  <Rbt.Executable>
rbdock ($Id: //depot/dev/client3/rdock/2013.1/src/exe/rbdock.cxx#4 $)

>  <Rbt.Library>
libRbt.so (2013.1, Build901 2013/11/27)

>  <Rbt.Parameter_File>
/export/apps/rDock/src/rDock_2013.1_src/data/scripts/dock_solv.prm

>  <Rbt.Receptor>
prm/pocket_docking_5.prm

>  <SCORE>
-12.1514

>  <SCORE.INTER>
-10.63

>  <SCORE.INTER.CONST>
1

>  <SCORE.INTER.POLAR>
-1.29815

>  <SCORE.INTER.ROT>
3

>  <SCORE.INTER.SOLV>
17.44

>  <SCORE.INTER.VDW>
-14.1728

>  <SCORE.INTER.norm>
-0.664376

>  <SCORE.INTRA>
-1.52143

>  <SCORE.INTRA.DIHEDRAL>
-2.12886

>  <SCORE.INTRA.DIHEDRAL.0>
2.1318

>  <SCORE.INTRA.POLAR>
0

>  <SCORE.INTRA.POLAR.0>
0

>  <SCORE.INTRA.REPUL>
0

>  <SCORE.INTRA.REPUL.0>
0

>  <SCORE.INTRA.SOLV>
-0.17304

>  <SCORE.INTRA.SOLV.lig_0>
-58.6125

>  <SCORE.INTRA.VDW>
-0.37048

>  <SCORE.INTRA.VDW.0>
-0.432734

>  <SCORE.INTRA.norm>
-0.0950894

>  <SCORE.RESTR>
0

>  <SCORE.RESTR.CAVITY>
0

>  <SCORE.RESTR.norm>
0

>  <SCORE.SYSTEM>
0

>  <SCORE.SYSTEM.CONST>
0

>  <SCORE.SYSTEM.DIHEDRAL>
0

>  <SCORE.SYSTEM.SOLV>
0

>  <SCORE.SYSTEM.norm>
0

>  <SCORE.heavy>
16

>  <SCORE.norm>
-0.759466

>  <RMSD>
0.667

$$$$
ligand
 OpenBabel11021811463D
libRbt.so/2013.1/901 2013/11/27
 16 16  0  0  0  0  0  0  0  0999 V2000
   52.0812   11.7630   15.0563 P   0  0  2  0  0  0  0  0  0  0  0  0
   52.3689   13.0080   14.3023 O   0  0  0  0  0  0  0  0  0  0  0  0
   52.9743   11.7266   16.3942 O   0  5  0  0  0  0  0  0  0  0  0  0
   52.4635   10.4935   14.1388 O   0  0  0  0  0  0  0  0  0  0  0  0
   46.8851   10.7318   17.6505 C   0  0  2  0  0  0  0  0  0  0  0  0
   46.4768    9.3588   17.6617 O   0  0  0  0  0  0  0  0  0  0  0  0
   46.0619   11.5395   16.6142 C   0  0  2  0  0  0  0  0  0  0  0  0
   44.6250   11.4450   16.9357 N   0  0  0  0  0  0  0  0  0  0  0  0
   46.3273   10.9570   15.2158 C   0  0  1  0  0  0  0  0  0  0  0  0
   45.5963   11.6908   14.2297 O   0  0  0  0  0  0  0  0  0  0  0  0
   47.8241   11.0759   14.9342 C   0  0  2  0  0  0  0  0  0  0  0  0
   48.0923   10.5399   13.6447 O   0  0  0  0  0  0  0  0  0  0  0  0
   48.6006   10.2765   16.0159 C   0  0  2  0  0  0  0  0  0  0  0  0
   48.3116   10.8088   17.3450 O   0  0  0  0  0  0  0  0  0  0  0  0
   50.1276   10.3734   15.7761 C   0  0  0  0  0  0  0  0  0  0  0  0
   50.5091   11.7216   15.4468 O   0  0  0  0  0  0  0  0  0  0  0  0
  1  2  1  6  0  0  0
  1  3  1  0  0  0  0
  1  4  2  0  0  0  0
  1 16  1  0  0  0  0
  5  6  1  6  0  0  0
  5  7  1  0  0  0  0
  5 14  1  0  0  0  0
  7  8  1  1  0  0  0
  7  9  1  0  0  0  0
  9 10  1  6  0  0  0
  9 11  1  0  0  0  0
 11 12  1  6  0  0  0
 11 13  1  0  0  0  0
 13 14  1  0  0  0  0
 13 15  1  6  0  0  0
 15 16  1  0  0  0  0
M  CHG  1   3  -1
M  END
>  <CHROM.1>
43.50248394,-174.32653939,161.41801175,49.02208341,11.14750767,15.63884488
0.23145097,-0.06820680,-1.29862806

>  <Name>
ligand

>  <RI>
0

>  <Rbt.Current_Directory>
/home/itssahil/PROJECTS/Mol_Feturizer/New_Systems/rnas/3B4C

>  <Rbt.Executable>
rbdock ($Id: //depot/dev/client3/rdock/2013.1/src/exe/rbdock.cxx#4 $)

>  <Rbt.Library>
libRbt.so (2013.1, Build901 2013/11/27)

>  <Rbt.Parameter_File>
/export/apps/rDock/src/rDock_2013.1_src/data/scripts/dock_solv.prm

>  <Rbt.Receptor>
prm/pocket_docking_3.prm

>  <SCORE>
-10.5962

>  <SCORE.INTER>
-10.1934

>  <SCORE.INTER.CONST>
1

>  <SCORE.INTER.POLAR>
-1.29904

>  <SCORE.INTER.ROT>
3

>  <SCORE.INTER.SOLV>
17.3849

>  <SCORE.INTER.VDW>
-13.8604

>  <SCORE.INTER.norm>
-0.637085

>  <SCORE.INTRA>
-0.402815

>  <SCORE.INTRA.DIHEDRAL>
-0.532184

>  <SCORE.INTRA.DIHEDRAL.0>
2.1318

>  <SCORE.INTRA.POLAR>
0

>  <SCORE.INTRA.POLAR.0>
0

>  <SCORE.INTRA.REPUL>
0

>  <SCORE.INTRA.REPUL.0>
0

>  <SCORE.INTRA.SOLV>
-0.11455

>  <SCORE.INTRA.SOLV.lig_0>
-58.6125

>  <SCORE.INTRA.VDW>
-0.0794478

>  <SCORE.INTRA.VDW.0>
-0.432734

>  <SCORE.INTRA.norm>
-0.0251759

>  <SCORE.RESTR>
0

>  <SCORE.RESTR.CAVITY>
0

>  <SCORE.RESTR.norm>
0

>  <SCORE.SYSTEM>
0

>  <SCORE.SYSTEM.CONST>
0

>  <SCORE.SYSTEM.DIHEDRAL>
0

>  <SCORE.SYSTEM.SOLV>
0

>  <SCORE.SYSTEM.norm>
0

>  <SCORE.heavy>
16

>  <SCORE.norm>
-0.662261

>  <RMSD>
0.668

$$$$
ligand
 OpenBabel11021811463D
libRbt.so/2013.1/901 2013/11/27
 16 16  0  0  0  0  0  0  0  0999 V2000
   51.8264   11.6497   15.2898 P   0  0  2  0  0  0  0  0  0  0  0  0
   52.5353   12.9100   15.6221 O   0  0  0  0  0  0  0  0  0  0  0  0
   52.5792   10.4101   15.9866 O   0  5  0  0  0  0  0  0  0  0  0  0
   51.8478   11.4415   13.6911 O   0  0  0  0  0  0  0  0  0  0  0  0
   46.4304   10.5477   17.4413 C   0  0  2  0  0  0  0  0  0  0  0  0
   45.6702    9.5932   16.6911 O   0  0  0  0  0  0  0  0  0  0  0  0
   45.9099   11.9855   17.1849 C   0  0  2  0  0  0  0  0  0  0  0  0
   44.4849   12.0738   17.5568 N   0  0  0  0  0  0  0  0  0  0  0  0
   46.0851   12.3114   15.6921 C   0  0  1  0  0  0  0  0  0  0  0  0
   45.6309   13.6402   15.4215 O   0  0  0  0  0  0  0  0  0  0  0  0
   47.5722   12.2031   15.3594 C   0  0  2  0  0  0  0  0  0  0  0  0
   47.7565   12.4988   13.9808 O   0  0  0  0  0  0  0  0  0  0  0  0
   48.0475   10.7560   15.6626 C   0  0  2  0  0  0  0  0  0  0  0  0
   47.8399   10.4390   17.0732 O   0  0  0  0  0  0  0  0  0  0  0  0
   49.5555   10.5985   15.3468 C   0  0  0  0  0  0  0  0  0  0  0  0
   50.2995   11.7337   15.8256 O   0  0  0  0  0  0  0  0  0  0  0  0
  1  2  1  1  0  0  0
  1  3  1  0  0  0  0
  1  4  2  0  0  0  0
  1 16  1  0  0  0  0
  5  6  1  6  0  0  0
  5  7  1  0  0  0  0
  5 14  1  0  0  0  0
  7  8  1  6  0  0  0
  7  9  1  0  0  0  0
  9 10  1  1  0  0  0
  9 11  1  0  0  0  0
 11 12  1  6  0  0  0
 11 13  1  0  0  0  0
 13 14  1  0  0  0  0
 13 15  1  1  0  0  0
 15 16  1  0  0  0  0
M  CHG  1   3  -1
M  END
>  <CHROM.1>
43.23192815,-171.54506068,172.06837370,48.69861700,11.55810829,15.79678187
0.11868760,0.18460995,-0.63496538

>  <Name>
ligand

>  <RI>
0

>  <Rbt.Current_Directory>
/home/itssahil/PROJECTS/Mol_Feturizer/New_Systems/rnas/3B4C

>  <Rbt.Executable>
rbdock ($Id: //depot/dev/client3/rdock/2013.1/src/exe/rbdock.cxx#4 $)

>  <Rbt.Library>
libRbt.so (2013.1, Build901 2013/11/27)

>  <Rbt.Parameter_File>
/export/apps/rDock/src/rDock_2013.1_src/data/scripts/dock_solv.prm

>  <Rbt.Receptor>
prm/pocket_docking_7.prm

>  <SCORE>
-11.0749

>  <SCORE.INTER>
-10.5172

>  <SCORE.INTER.CONST>
1

>  <SCORE.INTER.POLAR>
-1.29803

>  <SCORE.INTER.ROT>
3

>  <SCORE.INTER.SOLV>
18.8929

>  <SCORE.INTER.VDW>
-14.5823

>  <SCORE.INTER.norm>
-0.657322

>  <SCORE.INTRA>
-0.557757

>  <SCORE.INTRA.DIHEDRAL>
-0.734467

>  <SCORE.INTRA.DIHEDRAL.0>
2.1318

>  <SCORE.INTRA.POLAR>
0

>  <SCORE.INTRA.POLAR.0>
0

>  <SCORE.INTRA.REPUL>
0

>  <SCORE.INTRA.REPUL.0>
0

>  <SCORE.INTRA.SOLV>
0.0527084

>  <SCORE.INTRA.SOLV.lig_0>
-58.6125

>  <SCORE.INTRA.VDW>
-0.216878

>  <SCORE.INTRA.VDW.0>
-0.432734

>  <SCORE.INTRA.norm>
-0.0348598

>  <SCORE.RESTR>
0

>  <SCORE.RESTR.CAVITY>
0

>  <SCORE.RESTR.norm>
0

>  <SCORE.SYSTEM>
0

>  <SCORE.SYSTEM.CONST>
0

>  <SCORE.SYSTEM.DIHEDRAL>
0

>  <SCORE.SYSTEM.SOLV>
0

>  <SCORE.SYSTEM.norm>
0

>  <SCORE.heavy>
16

>  <SCORE.norm>
-0.692182

>  <RMSD>
0.725

$$$$
ligand
 OpenBabel11021811463D
libRbt.so/2013.1/901 2013/11/27
 16 16  0  0  0  0  0  0  0  0999 V2000
   51.8174   11.7455   14.6772 P   0  0  2  0  0  0  0  0  0  0  0  0
   51.8954   13.0497   15.3803 O   0  0  0  0  0  0  0  0  0  0  0  0
   52.7094   10.6590   15.4600 O   0  5  0  0  0  0  0  0  0  0  0  0
   52.3985   11.9191   13.1833 O   0  0  0  0  0  0  0  0  0  0  0  0
   46.3973   10.4337   17.4572 C   0  0  2  0  0  0  0  0  0  0  0  0
   45.9861    9.3126   16.6661 O   0  0  0  0  0  0  0  0  0  0  0  0
   45.6795   11.7263   16.9903 C   0  0  2  0  0  0  0  0  0  0  0  0
   44.2182   11.5493   17.0906 N   0  0  0  0  0  0  0  0  0  0  0  0
   46.0762   12.0076   15.5312 C   0  0  1  0  0  0  0  0  0  0  0  0
   45.4452   13.2058   15.0716 O   0  0  0  0  0  0  0  0  0  0  0  0
   47.5935   12.1793   15.4821 C   0  0  2  0  0  0  0  0  0  0  0  0
   47.9826   12.4383   14.1393 O   0  0  0  0  0  0  0  0  0  0  0  0
   48.2605   10.8709   15.9876 C   0  0  2  0  0  0  0  0  0  0  0  0
   47.8467   10.5879   17.3595 O   0  0  0  0  0  0  0  0  0  0  0  0
   49.8037   10.9994   15.9631 C   0  0  0  0  0  0  0  0  0  0  0  0
   50.2746   11.2528   14.6268 O   0  0  0  0  0  0  0  0  0  0  0  0
  1  2  1  1  0  0  0
  1  3  1  0  0  0  0
  1  4  2  0  0  0  0
  1 16  1  0  0  0  0
  5  6  1  6  0  0  0
  5  7  1  0  0  0  0
  5 14  1  0  0  0  0
  7  8  1  6  0  0  0
  7  9  1  0  0  0  0
  9 10  1  1  0  0  0
  9 11  1  0  0  0  0
 11 12  1  6  0  0  0
 11 13  1  0  0  0  0
 13 14  1  0  0  0  0
 13 15  1  1  0  0  0
 15 16  1  0  0  0  0
M  CHG  1   3  -1
M  END
>  <CHROM.1>
-60.14696026,165.95030613,-64.70023591,48.71860396,11.51747225,15.58283704
0.23775579,0.18147842,-0.73147993

>  <Name>
ligand

>  <RI>
0

>  <Rbt.Current_Directory>
/home/itssahil/PROJECTS/Mol_Feturizer/New_Systems/rnas/3B4C

>  <Rbt.Executable>
rbdock ($Id: //depot/dev/client3/rdock/2013.1/src/exe/rbdock.cxx#4 $)

>  <Rbt.Library>
libRbt.so (2013.1, Build901 2013/11/27)

>  <Rbt.Parameter_File>
/export/apps/rDock/src/rDock_2013.1_src/data/scripts/dock_solv.prm

>  <Rbt.Receptor>
prm/pocket_docking_3.prm

>  <SCORE>
-11.6241

>  <SCORE.INTER>
-10.7574

>  <SCORE.INTER.CONST>
1

>  <SCORE.INTER.POLAR>
-1.29904

>  <SCORE.INTER.ROT>
3

>  <SCORE.INTER.SOLV>
15.9896

>  <SCORE.INTER.VDW>
-13.7714

>  <SCORE.INTER.norm>
-0.672339

>  <SCORE.INTRA>
-0.866686

>  <SCORE.INTRA.DIHEDRAL>
-1.16349

>  <SCORE.INTRA.DIHEDRAL.0>
2.1318

>  <SCORE.INTRA.POLAR>
0

>  <SCORE.INTRA.POLAR.0>
0

>  <SCORE.INTRA.REPUL>
0

>  <SCORE.INTRA.REPUL.0>
0

>  <SCORE.INTRA.SOLV>
-0.415376

>  <SCORE.INTRA.SOLV.lig_0>
-58.6125

>  <SCORE.INTRA.VDW>
-0.077251

>  <SCORE.INTRA.VDW.0>
-0.432734

>  <SCORE.INTRA.norm>
-0.0541679

>  <SCORE.RESTR>
0

>  <SCORE.RESTR.CAVITY>
0

>  <SCORE.RESTR.norm>
0

>  <SCORE.SYSTEM>
0

>  <SCORE.SYSTEM.CONST>
0

>  <SCORE.SYSTEM.DIHEDRAL>
0

>  <SCORE.SYSTEM.SOLV>
0

>  <SCORE.SYSTEM.norm>
0

>  <SCORE.heavy>
16

>  <SCORE.norm>
-0.726507

>  <RMSD>
0.799

$$$$
ligand
 OpenBabel11021811463D
libRbt.so/2013.1/901 2013/11/27
 16 16  0  0  0  0  0  0  0  0999 V2000
   51.9394   12.1544   15.1186 P   0  0  2  0  0  0  0  0  0  0  0  0
   52.7599   12.9467   16.0674 O   0  0  0  0  0  0  0  0  0  0  0  0
   52.5415   10.6671   14.9997 O   0  5  0  0  0  0  0  0  0  0  0  0
   51.9907   12.8558   13.6678 O   0  0  0  0  0  0  0  0  0  0  0  0
   46.8407   10.7891   17.4229 C   0  0  2  0  0  0  0  0  0  0  0  0
   46.2246    9.5909   16.9365 O   0  0  0  0  0  0  0  0  0  0  0  0
   46.0314   12.0373   16.9857 C   0  0  2  0  0  0  0  0  0  0  0  0
   44.6502   11.9397   17.4951 N   0  0  0  0  0  0  0  0  0  0  0  0
   46.0220   12.1020   15.4491 C   0  0  1  0  0  0  0  0  0  0  0  0
   45.2977   13.2539   15.0092 O   0  0  0  0  0  0  0  0  0  0  0  0
   47.4709   12.1987   14.9746 C   0  0  2  0  0  0  0  0  0  0  0  0
   47.4853   12.2573   13.5539 O   0  0  0  0  0  0  0  0  0  0  0  0
   48.2415   10.9423   15.4642 C   0  0  2  0  0  0  0  0  0  0  0  0
   48.2111   10.8649   16.9225 O   0  0  0  0  0  0  0  0  0  0  0  0
   49.7218   10.9983   15.0123 C   0  0  0  0  0  0  0  0  0  0  0  0
   50.4122   12.0849   15.6559 O   0  0  0  0  0  0  0  0  0  0  0  0
  1  2  1  1  0  0  0
  1  3  1  0  0  0  0
  1  4  2  0  0  0  0
  1 16  1  0  0  0  0
  5  6  1  6  0  0  0
  5  7  1  0  0  0  0
  5 14  1  0  0  0  0
  7  8  1  6  0  0  0
  7  9  1  0  0  0  0
  9 10  1  1  0  0  0
  9 11  1  0  0  0  0
 11 12  1  6  0  0  0
 11 13  1  0  0  0  0
 13 14  1  0  0  0  0
 13 15  1  1  0  0  0
 15 16  1  0  0  0  0
M  CHG  1   3  -1
M  END
>  <CHROM.1>
65.90129902,-177.72630524,-161.56852281,48.80840647,11.76633921,15.60591945
-0.21078976,-0.08133273,2.25625282

>  <Name>
ligand

>  <RI>
0

>  <Rbt.Current_Directory>
/home/itssahil/PROJECTS/Mol_Feturizer/New_Systems/rnas/3B4C

>  <Rbt.Executable>
rbdock ($Id: //depot/dev/client3/rdock/2013.1/src/exe/rbdock.cxx#4 $)

>  <Rbt.Library>
libRbt.so (2013.1, Build901 2013/11/27)

>  <Rbt.Parameter_File>
/export/apps/rDock/src/rDock_2013.1_src/data/scripts/dock_solv.prm

>  <Rbt.Receptor>
prm/pocket_docking_2.prm

>  <SCORE>
-10.8466

>  <SCORE.INTER>
-9.83469

>  <SCORE.INTER.CONST>
1

>  <SCORE.INTER.POLAR>
-1.29537

>  <SCORE.INTER.ROT>
3

>  <SCORE.INTER.SOLV>
17.2936

>  <SCORE.INTER.VDW>
-13.6031

>  <SCORE.INTER.norm>
-0.614668

>  <SCORE.INTRA>
-1.0121

>  <SCORE.INTRA.DIHEDRAL>
-1.45556

>  <SCORE.INTRA.DIHEDRAL.0>
2.1318

>  <SCORE.INTRA.POLAR>
0

>  <SCORE.INTRA.POLAR.0>
0

>  <SCORE.INTRA.REPUL>
0

>  <SCORE.INTRA.REPUL.0>
0

>  <SCORE.INTRA.SOLV>
-0.195405

>  <SCORE.INTRA.SOLV.lig_0>
-58.6125

>  <SCORE.INTRA.VDW>
-0.186612

>  <SCORE.INTRA.VDW.0>
-0.432734

>  <SCORE.INTRA.norm>
-0.063256

>  <SCORE.RESTR>
0.000230334

>  <SCORE.RESTR.CAVITY>
0.000230334

>  <SCORE.RESTR.norm>
1.43959e-05

>  <SCORE.SYSTEM>
0

>  <SCORE.SYSTEM.CONST>
0

>  <SCORE.SYSTEM.DIHEDRAL>
0

>  <SCORE.SYSTEM.SOLV>
0

>  <SCORE.SYSTEM.norm>
0

>  <SCORE.heavy>
16

>  <SCORE.norm>
-0.677909

>  <RMSD>
0.820

$$$$
ligand
 OpenBabel11021811463D
libRbt.so/2013.1/901 2013/11/27
 16 16  0  0  0  0  0  0  0  0999 V2000
   51.7263   11.6978   15.4934 P   0  0  2  0  0  0  0  0  0  0  0  0
   51.5487   12.9283   14.6837 O   0  0  0  0  0  0  0  0  0  0  0  0
   52.7853   11.9782   16.6718 O   0  5  0  0  0  0  0  0  0  0  0  0
   52.2977   10.5245   14.5465 O   0  0  0  0  0  0  0  0  0  0  0  0
   46.4352   10.4360   17.3131 C   0  0  2  0  0  0  0  0  0  0  0  0
   45.6745    9.4919   16.5504 O   0  0  0  0  0  0  0  0  0  0  0  0
   45.8658   11.8674   17.1377 C   0  0  2  0  0  0  0  0  0  0  0  0
   44.4537   11.8982   17.5639 N   0  0  0  0  0  0  0  0  0  0  0  0
   45.9763   12.2606   15.6549 C   0  0  1  0  0  0  0  0  0  0  0  0
   45.4757   13.5857   15.4582 O   0  0  0  0  0  0  0  0  0  0  0  0
   47.4525   12.2101   15.2647 C   0  0  2  0  0  0  0  0  0  0  0  0
   47.5772   12.5685   13.8943 O   0  0  0  0  0  0  0  0  0  0  0  0
   47.9787   10.7660   15.4881 C   0  0  2  0  0  0  0  0  0  0  0  0
   47.8326   10.3842   16.8903 O   0  0  0  0  0  0  0  0  0  0  0  0
   49.4778   10.6663   15.1119 C   0  0  0  0  0  0  0  0  0  0  0  0
   50.3015   11.2625   16.1305 O   0  0  0  0  0  0  0  0  0  0  0  0
  1  2  1  6  0  0  0
  1  3  1  0  0  0  0
  1  4  2  0  0  0  0
  1 16  1  0  0  0  0
  5  6  1  6  0  0  0
  5  7  1  0  0  0  0
  5 14  1  0  0  0  0
  7  8  1  6  0  0  0
  7  9  1  0  0  0  0
  9 10  1  1  0  0  0
  9 11  1  0  0  0  0
 11 12  1  6  0  0  0
 11 13  1  0  0  0  0
 13 14  1  0  0  0  0
 13 15  1  1  0  0  0
 15 16  1  0  0  0  0
M  CHG  1   3  -1
M  END
>  <CHROM.1>
75.78101662,-156.91966793,75.47502671,48.62062057,11.54804137,15.81811353
-0.10242463,-0.13461264,2.51855947

>  <Name>
ligand

>  <RI>
0

>  <Rbt.Current_Directory>
/home/itssahil/PROJECTS/Mol_Feturizer/New_Systems/rnas/3B4C

>  <Rbt.Executable>
rbdock ($Id: //depot/dev/client3/rdock/2013.1/src/exe/rbdock.cxx#4 $)

>  <Rbt.Library>
libRbt.so (2013.1, Build901 2013/11/27)

>  <Rbt.Parameter_File>
/export/apps/rDock/src/rDock_2013.1_src/data/scripts/dock_solv.prm

>  <Rbt.Receptor>
prm/pocket_docking_2.prm

>  <SCORE>
-10.3536

>  <SCORE.INTER>
-10.4828

>  <SCORE.INTER.CONST>
1

>  <SCORE.INTER.POLAR>
-1.29904

>  <SCORE.INTER.ROT>
3

>  <SCORE.INTER.SOLV>
19.2922

>  <SCORE.INTER.VDW>
-14.6891

>  <SCORE.INTER.norm>
-0.655173

>  <SCORE.INTRA>
0.128509

>  <SCORE.INTRA.DIHEDRAL>
1.42663

>  <SCORE.INTRA.DIHEDRAL.0>
2.1318

>  <SCORE.INTRA.POLAR>
0

>  <SCORE.INTRA.POLAR.0>
0

>  <SCORE.INTRA.REPUL>
0

>  <SCORE.INTRA.REPUL.0>
0

>  <SCORE.INTRA.SOLV>
-0.634881

>  <SCORE.INTRA.SOLV.lig_0>
-58.6125

>  <SCORE.INTRA.VDW>
-0.267367

>  <SCORE.INTRA.VDW.0>
-0.432734

>  <SCORE.INTRA.norm>
0.00803182

>  <SCORE.RESTR>
0.000629568

>  <SCORE.RESTR.CAVITY>
0.000629568

>  <SCORE.RESTR.norm>
3.9348e-05

>  <SCORE.SYSTEM>
0

>  <SCORE.SYSTEM.CONST>
0

>  <SCORE.SYSTEM.DIHEDRAL>
0

>  <SCORE.SYSTEM.SOLV>
0

>  <SCORE.SYSTEM.norm>
0

>  <SCORE.heavy>
16

>  <SCORE.norm>
-0.647102

>  <RMSD>
0.820

$$$$
ligand
 OpenBabel11021811463D
libRbt.so/2013.1/901 2013/11/27
 16 16  0  0  0  0  0  0  0  0999 V2000
   51.9947   12.1728   15.0669 P   0  0  2  0  0  0  0  0  0  0  0  0
   52.8344   12.9740   15.9911 O   0  0  0  0  0  0  0  0  0  0  0  0
   52.6045   10.6896   14.9361 O   0  5  0  0  0  0  0  0  0  0  0  0
   52.0020   12.8702   13.6132 O   0  0  0  0  0  0  0  0  0  0  0  0
   46.8881   10.8029   17.4033 C   0  0  2  0  0  0  0  0  0  0  0  0
   46.2372    9.6429   16.8716 O   0  0  0  0  0  0  0  0  0  0  0  0
   46.1154   12.0902   17.0164 C   0  0  2  0  0  0  0  0  0  0  0  0
   44.7321   12.0131   17.5238 N   0  0  0  0  0  0  0  0  0  0  0  0
   46.1071   12.2150   15.4835 C   0  0  1  0  0  0  0  0  0  0  0  0
   45.4165   13.4038   15.0899 O   0  0  0  0  0  0  0  0  0  0  0  0
   47.5580   12.2879   15.0107 C   0  0  2  0  0  0  0  0  0  0  0  0
   47.5734   12.4013   13.5934 O   0  0  0  0  0  0  0  0  0  0  0  0
   48.2919   10.9914   15.4498 C   0  0  2  0  0  0  0  0  0  0  0  0
   48.2599   10.8583   16.9040 O   0  0  0  0  0  0  0  0  0  0  0  0
   49.7729   11.0220   14.9980 C   0  0  0  0  0  0  0  0  0  0  0  0
   50.4830   12.0938   15.6450 O   0  0  0  0  0  0  0  0  0  0  0  0
  1  2  1  1  0  0  0
  1  3  1  0  0  0  0
  1  4  2  0  0  0  0
  1 16  1  0  0  0  0
  5  6  1  6  0  0  0
  5  7  1  0  0  0  0
  5 14  1  0  0  0  0
  7  8  1  6  0  0  0
  7  9  1  0  0  0  0
  9 10  1  1  0  0  0
  9 11  1  0  0  0  0
 11 12  1  6  0  0  0
 11 13  1  0  0  0  0
 13 14  1  0  0  0  0
 13 15  1  1  0  0  0
 15 16  1  0  0  0  0
M  CHG  1   3  -1
M  END
>  <CHROM.1>
63.75353765,-175.59249472,-163.04379529,48.87183199,11.81660959,15.59314839
-0.21147954,-0.10748315,2.30602618

>  <Name>
ligand

>  <RI>
0

>  <Rbt.Current_Directory>
/home/itssahil/PROJECTS/Mol_Feturizer/New_Systems/rnas/3B4C

>  <Rbt.Executable>
rbdock ($Id: //depot/dev/client3/rdock/2013.1/src/exe/rbdock.cxx#4 $)

>  <Rbt.Library>
libRbt.so (2013.1, Build901 2013/11/27)

>  <Rbt.Parameter_File>
/export/apps/rDock/src/rDock_2013.1_src/data/scripts/dock_solv.prm

>  <Rbt.Receptor>
prm/pocket_docking_2.prm

>  <SCORE>
-10.8133

>  <SCORE.INTER>
-9.75207

>  <SCORE.INTER.CONST>
1

>  <SCORE.INTER.POLAR>
-1.29904

>  <SCORE.INTER.ROT>
3

>  <SCORE.INTER.SOLV>
17.2477

>  <SCORE.INTER.VDW>
-13.5205

>  <SCORE.INTER.norm>
-0.609504

>  <SCORE.INTRA>
-1.06281

>  <SCORE.INTRA.DIHEDRAL>
-1.53478

>  <SCORE.INTRA.DIHEDRAL.0>
2.1318

>  <SCORE.INTRA.POLAR>
0

>  <SCORE.INTRA.POLAR.0>
0

>  <SCORE.INTRA.REPUL>
0

>  <SCORE.INTRA.REPUL.0>
0

>  <SCORE.INTRA.SOLV>
-0.181519

>  <SCORE.INTRA.SOLV.lig_0>
-58.6125

>  <SCORE.INTRA.VDW>
-0.204666

>  <SCORE.INTRA.VDW.0>
-0.432734

>  <SCORE.INTRA.norm>
-0.0664259

>  <SCORE.RESTR>
0.00155895

>  <SCORE.RESTR.CAVITY>
0.00155895

>  <SCORE.RESTR.norm>
9.74346e-05

>  <SCORE.SYSTEM>
0

>  <SCORE.SYSTEM.CONST>
0

>  <SCORE.SYSTEM.DIHEDRAL>
0

>  <SCORE.SYSTEM.SOLV>
0

>  <SCORE.SYSTEM.norm>
0

>  <SCORE.heavy>
16

>  <SCORE.norm>
-0.675833

>  <RMSD>
0.844

$$$$
ligand
 OpenBabel11021811463D
libRbt.so/2013.1/901 2013/11/27
 16 16  0  0  0  0  0  0  0  0999 V2000
   51.8651   11.8044   14.7175 P   0  0  2  0  0  0  0  0  0  0  0  0
   51.9263   13.0651   15.4973 O   0  0  0  0  0  0  0  0  0  0  0  0
   52.7827   10.6890   15.4266 O   0  5  0  0  0  0  0  0  0  0  0  0
   52.4300   12.0779   13.2324 O   0  0  0  0  0  0  0  0  0  0  0  0
   46.4856   10.3363   17.4821 C   0  0  2  0  0  0  0  0  0  0  0  0
   46.0411    9.2780   16.6252 O   0  0  0  0  0  0  0  0  0  0  0  0
   45.7843   11.6695   17.1150 C   0  0  2  0  0  0  0  0  0  0  0  0
   44.3218   11.5114   17.2285 N   0  0  0  0  0  0  0  0  0  0  0  0
   46.1628   12.0411   15.6714 C   0  0  1  0  0  0  0  0  0  0  0  0
   45.5466   13.2782   15.3037 O   0  0  0  0  0  0  0  0  0  0  0  0
   47.6819   12.1894   15.6078 C   0  0  2  0  0  0  0  0  0  0  0  0
   48.0542   12.5311   14.2787 O   0  0  0  0  0  0  0  0  0  0  0  0
   48.3327   10.8387   16.0132 C   0  0  2  0  0  0  0  0  0  0  0  0
   47.9358   10.4716   17.3701 O   0  0  0  0  0  0  0  0  0  0  0  0
   49.8774   10.9418   15.9707 C   0  0  0  0  0  0  0  0  0  0  0  0
   50.3308   11.2878   14.6493 O   0  0  0  0  0  0  0  0  0  0  0  0
  1  2  1  1  0  0  0
  1  3  1  0  0  0  0
  1  4  2  0  0  0  0
  1 16  1  0  0  0  0
  5  6  1  6  0  0  0
  5  7  1  0  0  0  0
  5 14  1  0  0  0  0
  7  8  1  6  0  0  0
  7  9  1  0  0  0  0
  9 10  1  1  0  0  0
  9 11  1  0  0  0  0
 11 12  1  6  0  0  0
 11 13  1  0  0  0  0
 13 14  1  0  0  0  0
 13 15  1  1  0  0  0
 15 16  1  0  0  0  0
M  CHG  1   3  -1
M  END
>  <CHROM.1>
-59.63219352,163.71844896,-64.89145516,48.78936718,11.52808542,15.65016836
0.24321286,0.19834381,-0.66165520

>  <Name>
ligand

>  <RI>
0

>  <Rbt.Current_Directory>
/home/itssahil/PROJECTS/Mol_Feturizer/New_Systems/rnas/3B4C

>  <Rbt.Executable>
rbdock ($Id: //depot/dev/client3/rdock/2013.1/src/exe/rbdock.cxx#4 $)

>  <Rbt.Library>
libRbt.so (2013.1, Build901 2013/11/27)

>  <Rbt.Parameter_File>
/export/apps/rDock/src/rDock_2013.1_src/data/scripts/dock_solv.prm

>  <Rbt.Receptor>
prm/pocket_docking_4.prm

>  <SCORE>
-11.6252

>  <SCORE.INTER>
-10.9251

>  <SCORE.INTER.CONST>
1

>  <SCORE.INTER.POLAR>
-1.29904

>  <SCORE.INTER.ROT>
3

>  <SCORE.INTER.SOLV>
16.5905

>  <SCORE.INTER.VDW>
-14.0835

>  <SCORE.INTER.norm>
-0.68282

>  <SCORE.INTRA>
-0.700123

>  <SCORE.INTRA.DIHEDRAL>
-0.860106

>  <SCORE.INTRA.DIHEDRAL.0>
2.1318

>  <SCORE.INTRA.POLAR>
0

>  <SCORE.INTRA.POLAR.0>
0

>  <SCORE.INTRA.REPUL>
0

>  <SCORE.INTRA.REPUL.0>
0

>  <SCORE.INTRA.SOLV>
-0.386305

>  <SCORE.INTRA.SOLV.lig_0>
-58.6125

>  <SCORE.INTRA.VDW>
-0.0769168

>  <SCORE.INTRA.VDW.0>
-0.432734

>  <SCORE.INTRA.norm>
-0.0437577

>  <SCORE.RESTR>
0

>  <SCORE.RESTR.CAVITY>
0

>  <SCORE.RESTR.norm>
0

>  <SCORE.SYSTEM>
0

>  <SCORE.SYSTEM.CONST>
0

>  <SCORE.SYSTEM.DIHEDRAL>
0

>  <SCORE.SYSTEM.SOLV>
0

>  <SCORE.SYSTEM.norm>
0

>  <SCORE.heavy>
16

>  <SCORE.norm>
-0.726577

>  <RMSD>
0.845

$$$$
ligand
 OpenBabel11021811463D
libRbt.so/2013.1/901 2013/11/27
 16 16  0  0  0  0  0  0  0  0999 V2000
   51.8846   11.8032   14.8009 P   0  0  2  0  0  0  0  0  0  0  0  0
   51.9706   13.0588   15.5866 O   0  0  0  0  0  0  0  0  0  0  0  0
   52.7536   10.6573   15.5224 O   0  5  0  0  0  0  0  0  0  0  0  0
   52.4852   12.0638   13.3275 O   0  0  0  0  0  0  0  0  0  0  0  0
   46.4477   10.3165   17.4515 C   0  0  2  0  0  0  0  0  0  0  0  0
   46.0167    9.2762   16.5661 O   0  0  0  0  0  0  0  0  0  0  0  0
   45.7525   11.6572   17.1007 C   0  0  2  0  0  0  0  0  0  0  0  0
   44.2883   11.4976   17.1879 N   0  0  0  0  0  0  0  0  0  0  0  0
   46.1536   12.0581   15.6711 C   0  0  1  0  0  0  0  0  0  0  0  0
   45.5435   13.3027   15.3191 O   0  0  0  0  0  0  0  0  0  0  0  0
   47.6736   12.2070   15.6344 C   0  0  2  0  0  0  0  0  0  0  0  0
   48.0668   12.5756   14.3186 O   0  0  0  0  0  0  0  0  0  0  0  0
   48.3178   10.8480   16.0223 C   0  0  2  0  0  0  0  0  0  0  0  0
   47.8996   10.4534   17.3650 O   0  0  0  0  0  0  0  0  0  0  0  0
   49.8630   10.9512   16.0062 C   0  0  0  0  0  0  0  0  0  0  0  0
   50.3364   11.3351   14.7024 O   0  0  0  0  0  0  0  0  0  0  0  0
  1  2  1  1  0  0  0
  1  3  1  0  0  0  0
  1  4  2  0  0  0  0
  1 16  1  0  0  0  0
  5  6  1  6  0  0  0
  5  7  1  0  0  0  0
  5 14  1  0  0  0  0
  7  8  1  6  0  0  0
  7  9  1  0  0  0  0
  9 10  1  1  0  0  0
  9 11  1  0  0  0  0
 11 12  1  6  0  0  0
 11 13  1  0  0  0  0
 13 14  1  0  0  0  0
 13 15  1  1  0  0  0
 15 16  1  0  0  0  0
M  CHG  1   3  -1
M  END
>  <CHROM.1>
-59.14118226,165.53159646,-67.03297323,48.78540373,11.53112921,15.68021019
0.22782577,0.18888826,-0.64066111

>  <Name>
ligand

>  <RI>
0

>  <Rbt.Current_Directory>
/home/itssahil/PROJECTS/Mol_Feturizer/New_Systems/rnas/3B4C

>  <Rbt.Executable>
rbdock ($Id: //depot/dev/client3/rdock/2013.1/src/exe/rbdock.cxx#4 $)

>  <Rbt.Library>
libRbt.so (2013.1, Build901 2013/11/27)

>  <Rbt.Parameter_File>
/export/apps/rDock/src/rDock_2013.1_src/data/scripts/dock_solv.prm

>  <Rbt.Receptor>
prm/pocket_docking_7.prm

>  <SCORE>
-11.6323

>  <SCORE.INTER>
-10.8656

>  <SCORE.INTER.CONST>
1

>  <SCORE.INTER.POLAR>
-1.29836

>  <SCORE.INTER.ROT>
3

>  <SCORE.INTER.SOLV>
16.7995

>  <SCORE.INTER.VDW>
-14.1157

>  <SCORE.INTER.norm>
-0.679098

>  <SCORE.INTRA>
-0.766749

>  <SCORE.INTRA.DIHEDRAL>
-1.06334

>  <SCORE.INTRA.DIHEDRAL.0>
2.1318

>  <SCORE.INTRA.POLAR>
0

>  <SCORE.INTRA.POLAR.0>
0

>  <SCORE.INTRA.REPUL>
0

>  <SCORE.INTRA.REPUL.0>
0

>  <SCORE.INTRA.SOLV>
-0.381053

>  <SCORE.INTRA.SOLV.lig_0>
-58.6125

>  <SCORE.INTRA.VDW>
-0.0445551

>  <SCORE.INTRA.VDW.0>
-0.432734

>  <SCORE.INTRA.norm>
-0.0479218

>  <SCORE.RESTR>
0

>  <SCORE.RESTR.CAVITY>
0

>  <SCORE.RESTR.norm>
0

>  <SCORE.SYSTEM>
0

>  <SCORE.SYSTEM.CONST>
0

>  <SCORE.SYSTEM.DIHEDRAL>
0

>  <SCORE.SYSTEM.SOLV>
0

>  <SCORE.SYSTEM.norm>
0

>  <SCORE.heavy>
16

>  <SCORE.norm>
-0.72702

>  <RMSD>
0.848

$$$$
ligand
 OpenBabel11021811463D
libRbt.so/2013.1/901 2013/11/27
 16 16  0  0  0  0  0  0  0  0999 V2000
   51.7477   11.8931   15.0175 P   0  0  2  0  0  0  0  0  0  0  0  0
   51.5665   12.8465   13.8952 O   0  0  0  0  0  0  0  0  0  0  0  0
   52.8477   12.4699   16.0402 O   0  5  0  0  0  0  0  0  0  0  0  0
   52.2685   10.4845   14.4307 O   0  0  0  0  0  0  0  0  0  0  0  0
   46.6173   10.6939   17.4582 C   0  0  2  0  0  0  0  0  0  0  0  0
   45.8460    9.6505   16.8514 O   0  0  0  0  0  0  0  0  0  0  0  0
   45.9878   12.0805   17.1670 C   0  0  2  0  0  0  0  0  0  0  0  0
   44.6038   12.1170   17.6770 N   0  0  0  0  0  0  0  0  0  0  0  0
   45.9943   12.3124   15.6466 C   0  0  1  0  0  0  0  0  0  0  0  0
   45.4358   13.5930   15.3414 O   0  0  0  0  0  0  0  0  0  0  0  0
   47.4450   12.2621   15.1704 C   0  0  2  0  0  0  0  0  0  0  0  0
   47.4738   12.4721   13.7644 O   0  0  0  0  0  0  0  0  0  0  0  0
   48.0349   10.8669   15.5133 C   0  0  2  0  0  0  0  0  0  0  0  0
   47.9875   10.6365   16.9549 O   0  0  0  0  0  0  0  0  0  0  0  0
   49.5110   10.7699   15.0548 C   0  0  0  0  0  0  0  0  0  0  0  0
   50.3360   11.6940   15.7877 O   0  0  0  0  0  0  0  0  0  0  0  0
  1  2  1  6  0  0  0
  1  3  1  0  0  0  0
  1  4  2  0  0  0  0
  1 16  1  0  0  0  0
  5  6  1  6  0  0  0
  5  7  1  0  0  0  0
  5 14  1  0  0  0  0
  7  8  1  6  0  0  0
  7  9  1  0  0  0  0
  9 10  1  1  0  0  0
  9 11  1  0  0  0  0
 11 12  1  6  0  0  0
 11 13  1  0  0  0  0
 13 14  1  0  0  0  0
 13 15  1  1  0  0  0
 15 16  1  0  0  0  0
M  CHG  1   3  -1
M  END
>  <CHROM.1>
64.82178928,-163.46207929,80.00391838,48.66961417,11.69613811,15.65607039
0.18282114,0.18519281,-0.72701031

>  <Name>
ligand

>  <RI>
0

>  <Rbt.Current_Directory>
/home/itssahil/PROJECTS/Mol_Feturizer/New_Systems/rnas/3B4C

>  <Rbt.Executable>
rbdock ($Id: //depot/dev/client3/rdock/2013.1/src/exe/rbdock.cxx#4 $)

>  <Rbt.Library>
libRbt.so (2013.1, Build901 2013/11/27)

>  <Rbt.Parameter_File>
/export/apps/rDock/src/rDock_2013.1_src/data/scripts/dock_solv.prm

>  <Rbt.Receptor>
prm/pocket_docking_2.prm

>  <SCORE>
-10.2395

>  <SCORE.INTER>
-9.65425

>  <SCORE.INTER.CONST>
1

>  <SCORE.INTER.POLAR>
-1.29904

>  <SCORE.INTER.ROT>
3

>  <SCORE.INTER.SOLV>
18.6855

>  <SCORE.INTER.VDW>
-13.9346

>  <SCORE.INTER.norm>
-0.603391

>  <SCORE.INTRA>
-0.585204

>  <SCORE.INTRA.DIHEDRAL>
-0.171568

>  <SCORE.INTRA.DIHEDRAL.0>
2.1318

>  <SCORE.INTRA.POLAR>
0

>  <SCORE.INTRA.POLAR.0>
0

>  <SCORE.INTRA.REPUL>
0

>  <SCORE.INTRA.REPUL.0>
0

>  <SCORE.INTRA.SOLV>
-0.601374

>  <SCORE.INTRA.SOLV.lig_0>
-58.6125

>  <SCORE.INTRA.VDW>
-0.198733

>  <SCORE.INTRA.VDW.0>
-0.432734

>  <SCORE.INTRA.norm>
-0.0365752

>  <SCORE.RESTR>
0

>  <SCORE.RESTR.CAVITY>
0

>  <SCORE.RESTR.norm>
0

>  <SCORE.SYSTEM>
0

>  <SCORE.SYSTEM.CONST>
0

>  <SCORE.SYSTEM.DIHEDRAL>
0

>  <SCORE.SYSTEM.SOLV>
0

>  <SCORE.SYSTEM.norm>
0

>  <SCORE.heavy>
16

>  <SCORE.norm>
-0.639966

>  <RMSD>
0.857

$$$$
ligand
 OpenBabel11021811463D
libRbt.so/2013.1/901 2013/11/27
 16 16  0  0  0  0  0  0  0  0999 V2000
   51.7658   12.0586   15.1535 P   0  0  2  0  0  0  0  0  0  0  0  0
   52.5660   12.7437   16.1984 O   0  0  0  0  0  0  0  0  0  0  0  0
   52.2618   10.5348   15.0099 O   0  5  0  0  0  0  0  0  0  0  0  0
   51.9846   12.8136   13.7458 O   0  0  0  0  0  0  0  0  0  0  0  0
   46.7082   11.0048   17.6351 C   0  0  2  0  0  0  0  0  0  0  0  0
   46.1607    9.6975   17.4279 O   0  0  0  0  0  0  0  0  0  0  0  0
   45.8328   12.0812   16.9428 C   0  0  2  0  0  0  0  0  0  0  0  0
   44.4574   12.0223   17.4734 N   0  0  0  0  0  0  0  0  0  0  0  0
   45.8249   11.8075   15.4294 C   0  0  1  0  0  0  0  0  0  0  0  0
   45.0397   12.7941   14.7546 O   0  0  0  0  0  0  0  0  0  0  0  0
   47.2678   11.8768   14.9323 C   0  0  2  0  0  0  0  0  0  0  0  0
   47.2836   11.6238   13.5332 O   0  0  0  0  0  0  0  0  0  0  0  0
   48.1048   10.8018   15.6780 C   0  0  2  0  0  0  0  0  0  0  0  0
   48.0739   11.0439   17.1181 O   0  0  0  0  0  0  0  0  0  0  0  0
   49.5812   10.8382   15.2116 C   0  0  0  0  0  0  0  0  0  0  0  0
   50.2000   12.0873   15.5696 O   0  0  0  0  0  0  0  0  0  0  0  0
  1  2  1  1  0  0  0
  1  3  1  0  0  0  0
  1  4  2  0  0  0  0
  1 16  1  0  0  0  0
  5  6  1  6  0  0  0
  5  7  1  0  0  0  0
  5 14  1  0  0  0  0
  7  8  1  1  0  0  0
  7  9  1  0  0  0  0
  9 10  1  6  0  0  0
  9 11  1  0  0  0  0
 11 12  1  6  0  0  0
 11 13  1  0  0  0  0
 13 14  1  0  0  0  0
 13 15  1  6  0  0  0
 15 16  1  0  0  0  0
M  CHG  1   3  -1
M  END
>  <CHROM.1>
64.61444549,176.42904083,-141.59532314,48.63786344,11.64951826,15.67123371
-0.22084067,-0.03306933,2.02662320

>  <Name>
ligand

>  <RI>
0

>  <Rbt.Current_Directory>
/home/itssahil/PROJECTS/Mol_Feturizer/New_Systems/rnas/3B4C

>  <Rbt.Executable>
rbdock ($Id: //depot/dev/client3/rdock/2013.1/src/exe/rbdock.cxx#4 $)

>  <Rbt.Library>
libRbt.so (2013.1, Build901 2013/11/27)

>  <Rbt.Parameter_File>
/export/apps/rDock/src/rDock_2013.1_src/data/scripts/dock_solv.prm

>  <Rbt.Receptor>
prm/pocket_docking_2.prm

>  <SCORE>
-10.2862

>  <SCORE.INTER>
-10.4302

>  <SCORE.INTER.CONST>
1

>  <SCORE.INTER.POLAR>
-1.29904

>  <SCORE.INTER.ROT>
3

>  <SCORE.INTER.SOLV>
18.1185

>  <SCORE.INTER.VDW>
-14.2629

>  <SCORE.INTER.norm>
-0.65189

>  <SCORE.INTRA>
0.14401

>  <SCORE.INTRA.DIHEDRAL>
-0.272133

>  <SCORE.INTRA.DIHEDRAL.0>
2.1318

>  <SCORE.INTRA.POLAR>
0

>  <SCORE.INTRA.POLAR.0>
0

>  <SCORE.INTRA.REPUL>
0

>  <SCORE.INTRA.REPUL.0>
0

>  <SCORE.INTRA.SOLV>
-0.245237

>  <SCORE.INTRA.SOLV.lig_0>
-58.6125

>  <SCORE.INTRA.VDW>
0.402695

>  <SCORE.INTRA.VDW.0>
-0.432734

>  <SCORE.INTRA.norm>
0.00900065

>  <SCORE.RESTR>
0

>  <SCORE.RESTR.CAVITY>
0

>  <SCORE.RESTR.norm>
0

>  <SCORE.SYSTEM>
0

>  <SCORE.SYSTEM.CONST>
0

>  <SCORE.SYSTEM.DIHEDRAL>
0

>  <SCORE.SYSTEM.SOLV>
0

>  <SCORE.SYSTEM.norm>
0

>  <SCORE.heavy>
16

>  <SCORE.norm>
-0.64289

>  <RMSD>
0.864

$$$$
ligand
 OpenBabel11021811463D
libRbt.so/2013.1/901 2013/11/27
 16 16  0  0  0  0  0  0  0  0999 V2000
   51.8164   11.7384   14.8919 P   0  0  2  0  0  0  0  0  0  0  0  0
   51.8787   12.9937   15.6803 O   0  0  0  0  0  0  0  0  0  0  0  0
   52.6715   10.5951   15.6337 O   0  5  0  0  0  0  0  0  0  0  0  0
   52.4520   12.0023   13.4338 O   0  0  0  0  0  0  0  0  0  0  0  0
   46.3296   10.1278   17.3761 C   0  0  2  0  0  0  0  0  0  0  0  0
   45.9480    9.1040   16.4497 O   0  0  0  0  0  0  0  0  0  0  0  0
   45.6128   11.4619   17.0438 C   0  0  2  0  0  0  0  0  0  0  0  0
   44.1510   11.2664   17.0847 N   0  0  0  0  0  0  0  0  0  0  0  0
   46.0440   11.9132   15.6381 C   0  0  1  0  0  0  0  0  0  0  0  0
   45.4146   13.1532   15.3043 O   0  0  0  0  0  0  0  0  0  0  0  0
   47.5605   12.0977   15.6490 C   0  0  2  0  0  0  0  0  0  0  0  0
   47.9813   12.5132   14.3559 O   0  0  0  0  0  0  0  0  0  0  0  0
   48.2256   10.7431   16.0164 C   0  0  2  0  0  0  0  0  0  0  0  0
   47.7796   10.3003   17.3349 O   0  0  0  0  0  0  0  0  0  0  0  0
   49.7678   10.8820   16.0473 C   0  0  0  0  0  0  0  0  0  0  0  0
   50.2728   11.2649   14.7551 O   0  0  0  0  0  0  0  0  0  0  0  0
  1  2  1  1  0  0  0
  1  3  1  0  0  0  0
  1  4  2  0  0  0  0
  1 16  1  0  0  0  0
  5  6  1  6  0  0  0
  5  7  1  0  0  0  0
  5 14  1  0  0  0  0
  7  8  1  6  0  0  0
  7  9  1  0  0  0  0
  9 10  1  1  0  0  0
  9 11  1  0  0  0  0
 11 12  1  6  0  0  0
 11 13  1  0  0  0  0
 13 14  1  0  0  0  0
 13 15  1  1  0  0  0
 15 16  1  0  0  0  0
M  CHG  1   3  -1
M  END
>  <CHROM.1>
-61.32977062,166.78595202,-66.87329311,48.69175342,11.41756305,15.69511836
0.22188891,0.16264578,-0.61584737

>  <Name>
ligand

>  <RI>
0

>  <Rbt.Current_Directory>
/home/itssahil/PROJECTS/Mol_Feturizer/New_Systems/rnas/3B4C

>  <Rbt.Executable>
rbdock ($Id: //depot/dev/client3/rdock/2013.1/src/exe/rbdock.cxx#4 $)

>  <Rbt.Library>
libRbt.so (2013.1, Build901 2013/11/27)

>  <Rbt.Parameter_File>
/export/apps/rDock/src/rDock_2013.1_src/data/scripts/dock_solv.prm

>  <Rbt.Receptor>
prm/pocket_docking_2.prm

>  <SCORE>
-11.6546

>  <SCORE.INTER>
-10.7609

>  <SCORE.INTER.CONST>
1

>  <SCORE.INTER.POLAR>
-1.29904

>  <SCORE.INTER.ROT>
3

>  <SCORE.INTER.SOLV>
17.2852

>  <SCORE.INTER.VDW>
-14.2056

>  <SCORE.INTER.norm>
-0.672558

>  <SCORE.INTRA>
-0.893689

>  <SCORE.INTRA.DIHEDRAL>
-1.22058

>  <SCORE.INTRA.DIHEDRAL.0>
2.1318

>  <SCORE.INTRA.POLAR>
0

>  <SCORE.INTRA.POLAR.0>
0

>  <SCORE.INTRA.REPUL>
0

>  <SCORE.INTRA.REPUL.0>
0

>  <SCORE.INTRA.SOLV>
-0.408094

>  <SCORE.INTRA.SOLV.lig_0>
-58.6125

>  <SCORE.INTRA.VDW>
-0.0793511

>  <SCORE.INTRA.VDW.0>
-0.432734

>  <SCORE.INTRA.norm>
-0.0558555

>  <SCORE.RESTR>
0

>  <SCORE.RESTR.CAVITY>
0

>  <SCORE.RESTR.norm>
0

>  <SCORE.SYSTEM>
0

>  <SCORE.SYSTEM.CONST>
0

>  <SCORE.SYSTEM.DIHEDRAL>
0

>  <SCORE.SYSTEM.SOLV>
0

>  <SCORE.SYSTEM.norm>
0

>  <SCORE.heavy>
16

>  <SCORE.norm>
-0.728413

>  <RMSD>
0.877

$$$$
ligand
 OpenBabel11021811463D
libRbt.so/2013.1/901 2013/11/27
 16 16  0  0  0  0  0  0  0  0999 V2000
   51.8460   11.7803   14.8602 P   0  0  2  0  0  0  0  0  0  0  0  0
   51.9611   13.0340   15.6453 O   0  0  0  0  0  0  0  0  0  0  0  0
   52.6736   10.6104   15.5917 O   0  5  0  0  0  0  0  0  0  0  0  0
   52.4689   12.0211   13.3927 O   0  0  0  0  0  0  0  0  0  0  0  0
   46.3849   10.1308   17.3903 C   0  0  2  0  0  0  0  0  0  0  0  0
   46.0176    9.1001   16.4658 O   0  0  0  0  0  0  0  0  0  0  0  0
   45.6395   11.4505   17.0638 C   0  0  2  0  0  0  0  0  0  0  0  0
   44.1822   11.2259   17.1143 N   0  0  0  0  0  0  0  0  0  0  0  0
   46.0522   11.9111   15.6556 C   0  0  1  0  0  0  0  0  0  0  0  0
   45.3960   13.1385   15.3268 O   0  0  0  0  0  0  0  0  0  0  0  0
   47.5647   12.1258   15.6564 C   0  0  2  0  0  0  0  0  0  0  0  0
   47.9685   12.5504   14.3608 O   0  0  0  0  0  0  0  0  0  0  0  0
   48.2591   10.7845   16.0184 C   0  0  2  0  0  0  0  0  0  0  0  0
   47.8309   10.3321   17.3395 O   0  0  0  0  0  0  0  0  0  0  0  0
   49.7984   10.9541   16.0391 C   0  0  0  0  0  0  0  0  0  0  0  0
   50.2858   11.3579   14.7465 O   0  0  0  0  0  0  0  0  0  0  0  0
  1  2  1  1  0  0  0
  1  3  1  0  0  0  0
  1  4  2  0  0  0  0
  1 16  1  0  0  0  0
  5  6  1  6  0  0  0
  5  7  1  0  0  0  0
  5 14  1  0  0  0  0
  7  8  1  6  0  0  0
  7  9  1  0  0  0  0
  9 10  1  1  0  0  0
  9 11  1  0  0  0  0
 11 12  1  6  0  0  0
 11 13  1  0  0  0  0
 13 14  1  0  0  0  0
 13 15  1  1  0  0  0
 15 16  1  0  0  0  0
M  CHG  1   3  -1
M  END
>  <CHROM.1>
-60.87921682,170.01940556,-68.63587466,48.71838866,11.44134271,15.69055114
0.23199247,0.16363475,-0.62052629

>  <Name>
ligand

>  <RI>
0

>  <Rbt.Current_Directory>
/home/itssahil/PROJECTS/Mol_Feturizer/New_Systems/rnas/3B4C

>  <Rbt.Executable>
rbdock ($Id: //depot/dev/client3/rdock/2013.1/src/exe/rbdock.cxx#4 $)

>  <Rbt.Library>
libRbt.so (2013.1, Build901 2013/11/27)

>  <Rbt.Parameter_File>
/export/apps/rDock/src/rDock_2013.1_src/data/scripts/dock_solv.prm

>  <Rbt.Receptor>
prm/pocket_docking_4.prm

>  <SCORE>
-11.6859

>  <SCORE.INTER>
-10.6722

>  <SCORE.INTER.CONST>
1

>  <SCORE.INTER.POLAR>
-1.29904

>  <SCORE.INTER.ROT>
3

>  <SCORE.INTER.SOLV>
17.241

>  <SCORE.INTER.VDW>
-14.1317

>  <SCORE.INTER.norm>
-0.66701

>  <SCORE.INTRA>
-1.01377

>  <SCORE.INTRA.DIHEDRAL>
-1.52814

>  <SCORE.INTRA.DIHEDRAL.0>
2.1318

>  <SCORE.INTRA.POLAR>
0

>  <SCORE.INTRA.POLAR.0>
0

>  <SCORE.INTRA.REPUL>
0

>  <SCORE.INTRA.REPUL.0>
0

>  <SCORE.INTRA.SOLV>
-0.417948

>  <SCORE.INTRA.SOLV.lig_0>
-58.6125

>  <SCORE.INTRA.VDW>
-0.0407286

>  <SCORE.INTRA.VDW.0>
-0.432734

>  <SCORE.INTRA.norm>
-0.0633608

>  <SCORE.RESTR>
0

>  <SCORE.RESTR.CAVITY>
0

>  <SCORE.RESTR.norm>
0

>  <SCORE.SYSTEM>
0

>  <SCORE.SYSTEM.CONST>
0

>  <SCORE.SYSTEM.DIHEDRAL>
0

>  <SCORE.SYSTEM.SOLV>
0

>  <SCORE.SYSTEM.norm>
0

>  <SCORE.heavy>
16

>  <SCORE.norm>
-0.730371

>  <RMSD>
0.877

$$$$
ligand
 OpenBabel11021811463D
libRbt.so/2013.1/901 2013/11/27
 16 16  0  0  0  0  0  0  0  0999 V2000
   51.7923   11.8563   14.6378 P   0  0  2  0  0  0  0  0  0  0  0  0
   51.9040   13.0842   15.4630 O   0  0  0  0  0  0  0  0  0  0  0  0
   52.6919   10.6901   15.2856 O   0  5  0  0  0  0  0  0  0  0  0  0
   52.3359   12.1707   13.1528 O   0  0  0  0  0  0  0  0  0  0  0  0
   46.4157   10.3774   17.4191 C   0  0  2  0  0  0  0  0  0  0  0  0
   45.9793    9.3226   16.5538 O   0  0  0  0  0  0  0  0  0  0  0  0
   45.6999   11.7067   17.0663 C   0  0  2  0  0  0  0  0  0  0  0  0
   44.2394   11.5329   17.1826 N   0  0  0  0  0  0  0  0  0  0  0  0
   46.0702   12.0953   15.6250 C   0  0  1  0  0  0  0  0  0  0  0  0
   45.4405   13.3294   15.2705 O   0  0  0  0  0  0  0  0  0  0  0  0
   47.5876   12.2595   15.5583 C   0  0  2  0  0  0  0  0  0  0  0  0
   47.9524   12.6171   14.2313 O   0  0  0  0  0  0  0  0  0  0  0  0
   48.2532   10.9118   15.9494 C   0  0  2  0  0  0  0  0  0  0  0  0
   47.8642   10.5283   17.3040 O   0  0  0  0  0  0  0  0  0  0  0  0
   49.7967   11.0309   15.9033 C   0  0  0  0  0  0  0  0  0  0  0  0
   50.2431   11.3848   14.5816 O   0  0  0  0  0  0  0  0  0  0  0  0
  1  2  1  1  0  0  0
  1  3  1  0  0  0  0
  1  4  2  0  0  0  0
  1 16  1  0  0  0  0
  5  6  1  6  0  0  0
  5  7  1  0  0  0  0
  5 14  1  0  0  0  0
  7  8  1  6  0  0  0
  7  9  1  0  0  0  0
  9 10  1  1  0  0  0
  9 11  1  0  0  0  0
 11 12  1  6  0  0  0
 11 13  1  0  0  0  0
 13 14  1  0  0  0  0
 13 15  1  1  0  0  0
 15 16  1  0  0  0  0
M  CHG  1   3  -1
M  END
>  <CHROM.1>
-60.01619999,166.14325640,-63.55798884,48.70925736,11.58333102,15.58573757
0.24424400,0.20207497,-0.65638060

>  <Name>
ligand

>  <RI>
0

>  <Rbt.Current_Directory>
/home/itssahil/PROJECTS/Mol_Feturizer/New_Systems/rnas/3B4C

>  <Rbt.Executable>
rbdock ($Id: //depot/dev/client3/rdock/2013.1/src/exe/rbdock.cxx#4 $)

>  <Rbt.Library>
libRbt.so (2013.1, Build901 2013/11/27)

>  <Rbt.Parameter_File>
/export/apps/rDock/src/rDock_2013.1_src/data/scripts/dock_solv.prm

>  <Rbt.Receptor>
prm/pocket_docking_5.prm

>  <SCORE>
-11.6088

>  <SCORE.INTER>
-10.7202

>  <SCORE.INTER.CONST>
1

>  <SCORE.INTER.POLAR>
-1.29876

>  <SCORE.INTER.ROT>
3

>  <SCORE.INTER.SOLV>
16.2721

>  <SCORE.INTER.VDW>
-13.8416

>  <SCORE.INTER.norm>
-0.670013

>  <SCORE.INTRA>
-0.888575

>  <SCORE.INTRA.DIHEDRAL>
-1.20286

>  <SCORE.INTRA.DIHEDRAL.0>
2.1318

>  <SCORE.INTRA.POLAR>
0

>  <SCORE.INTRA.POLAR.0>
0

>  <SCORE.INTRA.REPUL>
0

>  <SCORE.INTRA.REPUL.0>
0

>  <SCORE.INTRA.SOLV>
-0.428546

>  <SCORE.INTRA.SOLV.lig_0>
-58.6125

>  <SCORE.INTRA.VDW>
-0.0728705

>  <SCORE.INTRA.VDW.0>
-0.432734

>  <SCORE.INTRA.norm>
-0.0555359

>  <SCORE.RESTR>
0

>  <SCORE.RESTR.CAVITY>
0

>  <SCORE.RESTR.norm>
0

>  <SCORE.SYSTEM>
0

>  <SCORE.SYSTEM.CONST>
0

>  <SCORE.SYSTEM.DIHEDRAL>
0

>  <SCORE.SYSTEM.SOLV>
0

>  <SCORE.SYSTEM.norm>
0

>  <SCORE.heavy>
16

>  <SCORE.norm>
-0.725549

>  <RMSD>
0.885

$$$$
ligand
 OpenBabel11021811463D
libRbt.so/2013.1/901 2013/11/27
 16 16  0  0  0  0  0  0  0  0999 V2000
   52.1760   11.4711   16.1359 P   0  0  2  0  0  0  0  0  0  0  0  0
   52.0372   12.9234   15.8662 O   0  0  0  0  0  0  0  0  0  0  0  0
   53.1436   11.2499   17.4023 O   0  5  0  0  0  0  0  0  0  0  0  0
   52.8320   10.7583   14.8471 O   0  0  0  0  0  0  0  0  0  0  0  0
   46.7338   10.9131   17.5521 C   0  0  2  0  0  0  0  0  0  0  0  0
   46.6078    9.4866   17.5824 O   0  0  0  0  0  0  0  0  0  0  0  0
   45.6776   11.5362   16.6033 C   0  0  2  0  0  0  0  0  0  0  0  0
   44.3225   11.1606   17.0500 N   0  0  0  0  0  0  0  0  0  0  0  0
   45.9266   11.0102   15.1796 C   0  0  1  0  0  0  0  0  0  0  0  0
   44.9796   11.5794   14.2717 O   0  0  0  0  0  0  0  0  0  0  0  0
   47.3390   11.4218   14.7676 C   0  0  2  0  0  0  0  0  0  0  0  0
   47.5912   10.9427   13.4528 O   0  0  0  0  0  0  0  0  0  0  0  0
   48.3520   10.7980   15.7660 C   0  0  2  0  0  0  0  0  0  0  0  0
   48.0836   11.2696   17.1220 O   0  0  0  0  0  0  0  0  0  0  0  0
   49.8019   11.1942   15.3926 C   0  0  0  0  0  0  0  0  0  0  0  0
   50.7164   10.8393   16.4459 O   0  0  0  0  0  0  0  0  0  0  0  0
  1  2  1  6  0  0  0
  1  3  1  0  0  0  0
  1  4  2  0  0  0  0
  1 16  1  0  0  0  0
  5  6  1  6  0  0  0
  5  7  1  0  0  0  0
  5 14  1  0  0  0  0
  7  8  1  1  0  0  0
  7  9  1  0  0  0  0
  9 10  1  6  0  0  0
  9 11  1  0  0  0  0
 11 12  1  6  0  0  0
 11 13  1  0  0  0  0
 13 14  1  0  0  0  0
 13 15  1  6  0  0  0
 15 16  1  0  0  0  0
M  CHG  1   3  -1
M  END
>  <CHROM.1>
168.98006322,-171.08401561,52.11665781,48.86170365,11.17926645,15.97036851
0.01364818,0.06514980,1.74360196

>  <Name>
ligand

>  <RI>
0

>  <Rbt.Current_Directory>
/home/itssahil/PROJECTS/Mol_Feturizer/New_Systems/rnas/3B4C

>  <Rbt.Executable>
rbdock ($Id: //depot/dev/client3/rdock/2013.1/src/exe/rbdock.cxx#4 $)

>  <Rbt.Library>
libRbt.so (2013.1, Build901 2013/11/27)

>  <Rbt.Parameter_File>
/export/apps/rDock/src/rDock_2013.1_src/data/scripts/dock_solv.prm

>  <Rbt.Receptor>
prm/pocket_docking_5.prm

>  <SCORE>
-11.1149

>  <SCORE.INTER>
-9.96175

>  <SCORE.INTER.CONST>
1

>  <SCORE.INTER.POLAR>
-1.299

>  <SCORE.INTER.ROT>
3

>  <SCORE.INTER.SOLV>
20.2972

>  <SCORE.INTER.VDW>
-14.6769

>  <SCORE.INTER.norm>
-0.622609

>  <SCORE.INTRA>
-1.15317

>  <SCORE.INTRA.DIHEDRAL>
-1.22197

>  <SCORE.INTRA.DIHEDRAL.0>
2.1318

>  <SCORE.INTRA.POLAR>
0

>  <SCORE.INTRA.POLAR.0>
0

>  <SCORE.INTRA.REPUL>
0

>  <SCORE.INTRA.REPUL.0>
0

>  <SCORE.INTRA.SOLV>
-1.0504

>  <SCORE.INTRA.SOLV.lig_0>
-58.6125

>  <SCORE.INTRA.VDW>
-0.0169781

>  <SCORE.INTRA.VDW.0>
-0.432734

>  <SCORE.INTRA.norm>
-0.0720728

>  <SCORE.RESTR>
0

>  <SCORE.RESTR.CAVITY>
0

>  <SCORE.RESTR.norm>
0

>  <SCORE.SYSTEM>
0

>  <SCORE.SYSTEM.CONST>
0

>  <SCORE.SYSTEM.DIHEDRAL>
0

>  <SCORE.SYSTEM.SOLV>
0

>  <SCORE.SYSTEM.norm>
0

>  <SCORE.heavy>
16

>  <SCORE.norm>
-0.694682

>  <RMSD>
0.896

$$$$
ligand
 OpenBabel11021811463D
libRbt.so/2013.1/901 2013/11/27
 16 16  0  0  0  0  0  0  0  0999 V2000
   51.8989   11.3667   16.1109 P   0  0  2  0  0  0  0  0  0  0  0  0
   51.9185   12.8361   15.9068 O   0  0  0  0  0  0  0  0  0  0  0  0
   52.8161   10.9879   17.3775 O   0  5  0  0  0  0  0  0  0  0  0  0
   52.4981   10.6465   14.7987 O   0  0  0  0  0  0  0  0  0  0  0  0
   46.4494   11.0232   17.5447 C   0  0  2  0  0  0  0  0  0  0  0  0
   46.1537    9.6559   17.2367 O   0  0  0  0  0  0  0  0  0  0  0  0
   45.4643   11.9739   16.8170 C   0  0  2  0  0  0  0  0  0  0  0  0
   44.0794   11.6571   17.2151 N   0  0  0  0  0  0  0  0  0  0  0  0
   45.6316   11.7853   15.2998 C   0  0  1  0  0  0  0  0  0  0  0  0
   44.7488   12.6618   14.5943 O   0  0  0  0  0  0  0  0  0  0  0  0
   47.0781   12.1219   14.9417 C   0  0  2  0  0  0  0  0  0  0  0  0
   47.2554   11.9515   13.5412 O   0  0  0  0  0  0  0  0  0  0  0  0
   48.0208   11.1632   15.7191 C   0  0  2  0  0  0  0  0  0  0  0  0
   47.8270   11.3181   17.1585 O   0  0  0  0  0  0  0  0  0  0  0  0
   49.5032   11.4713   15.3933 C   0  0  0  0  0  0  0  0  0  0  0  0
   50.3758   10.8801   16.3734 O   0  0  0  0  0  0  0  0  0  0  0  0
  1  2  1  6  0  0  0
  1  3  1  0  0  0  0
  1  4  2  0  0  0  0
  1 16  1  0  0  0  0
  5  6  1  6  0  0  0
  5  7  1  0  0  0  0
  5 14  1  0  0  0  0
  7  8  1  1  0  0  0
  7  9  1  0  0  0  0
  9 10  1  6  0  0  0
  9 11  1  0  0  0  0
 11 12  1  6  0  0  0
 11 13  1  0  0  0  0
 13 14  1  0  0  0  0
 13 15  1  1  0  0  0
 15 16  1  0  0  0  0
M  CHG  1   3  -1
M  END
>  <CHROM.1>
163.13772256,-173.17115941,47.15154206,48.57382144,11.45265335,15.99973259
0.02162887,-0.04215327,1.98299164

>  <Name>
ligand

>  <RI>
0

>  <Rbt.Current_Directory>
/home/itssahil/PROJECTS/Mol_Feturizer/New_Systems/rnas/3B4C

>  <Rbt.Executable>
rbdock ($Id: //depot/dev/client3/rdock/2013.1/src/exe/rbdock.cxx#4 $)

>  <Rbt.Library>
libRbt.so (2013.1, Build901 2013/11/27)

>  <Rbt.Parameter_File>
/export/apps/rDock/src/rDock_2013.1_src/data/scripts/dock_solv.prm

>  <Rbt.Receptor>
prm/pocket_docking_3.prm

>  <SCORE>
-11.5666

>  <SCORE.INTER>
-10.8071

>  <SCORE.INTER.CONST>
1

>  <SCORE.INTER.POLAR>
-1.29904

>  <SCORE.INTER.ROT>
3

>  <SCORE.INTER.SOLV>
20.855

>  <SCORE.INTER.VDW>
-15.4263

>  <SCORE.INTER.norm>
-0.675442

>  <SCORE.INTRA>
-0.759487

>  <SCORE.INTRA.DIHEDRAL>
-0.685599

>  <SCORE.INTRA.DIHEDRAL.0>
2.1318

>  <SCORE.INTRA.POLAR>
0

>  <SCORE.INTRA.POLAR.0>
0

>  <SCORE.INTRA.REPUL>
0

>  <SCORE.INTRA.REPUL.0>
0

>  <SCORE.INTRA.SOLV>
-1.08701

>  <SCORE.INTRA.SOLV.lig_0>
-58.6125

>  <SCORE.INTRA.VDW>
0.126819

>  <SCORE.INTRA.VDW.0>
-0.432734

>  <SCORE.INTRA.norm>
-0.0474679

>  <SCORE.RESTR>
0

>  <SCORE.RESTR.CAVITY>
0

>  <SCORE.RESTR.norm>
0

>  <SCORE.SYSTEM>
0

>  <SCORE.SYSTEM.CONST>
0

>  <SCORE.SYSTEM.DIHEDRAL>
0

>  <SCORE.SYSTEM.SOLV>
0

>  <SCORE.SYSTEM.norm>
0

>  <SCORE.heavy>
16

>  <SCORE.norm>
-0.72291

>  <RMSD>
0.908

$$$$
ligand
 OpenBabel11021811463D
libRbt.so/2013.1/901 2013/11/27
 16 16  0  0  0  0  0  0  0  0999 V2000
   51.8758   11.4369   15.9134 P   0  0  2  0  0  0  0  0  0  0  0  0
   51.8388   12.8786   15.5650 O   0  0  0  0  0  0  0  0  0  0  0  0
   52.8661   11.2110   17.1613 O   0  5  0  0  0  0  0  0  0  0  0  0
   52.4317   10.6054   14.6489 O   0  0  0  0  0  0  0  0  0  0  0  0
   46.4657   11.1696   17.6307 C   0  0  2  0  0  0  0  0  0  0  0  0
   46.2633    9.7528   17.5700 O   0  0  0  0  0  0  0  0  0  0  0  0
   45.4015   11.9118   16.7819 C   0  0  2  0  0  0  0  0  0  0  0  0
   44.0506   11.5755   17.2705 N   0  0  0  0  0  0  0  0  0  0  0  0
   45.5537   11.4761   15.3148 C   0  0  1  0  0  0  0  0  0  0  0  0
   44.5972   12.1560   14.4974 O   0  0  0  0  0  0  0  0  0  0  0  0
   46.9653   11.8428   14.8602 C   0  0  2  0  0  0  0  0  0  0  0  0
   47.1284   11.4457   13.5047 O   0  0  0  0  0  0  0  0  0  0  0  0
   47.9888   11.0985   15.7606 C   0  0  2  0  0  0  0  0  0  0  0  0
   47.8112   11.4859   17.1577 O   0  0  0  0  0  0  0  0  0  0  0  0
   49.4389   11.4452   15.3417 C   0  0  0  0  0  0  0  0  0  0  0  0
   50.3837   10.9387   16.3021 O   0  0  0  0  0  0  0  0  0  0  0  0
  1  2  1  6  0  0  0
  1  3  1  0  0  0  0
  1  4  2  0  0  0  0
  1 16  1  0  0  0  0
  5  6  1  6  0  0  0
  5  7  1  0  0  0  0
  5 14  1  0  0  0  0
  7  8  1  1  0  0  0
  7  9  1  0  0  0  0
  9 10  1  6  0  0  0
  9 11  1  0  0  0  0
 11 12  1  6  0  0  0
 11 13  1  0  0  0  0
 13 14  1  0  0  0  0
 13 15  1  6  0  0  0
 15 16  1  0  0  0  0
M  CHG  1   3  -1
M  END
>  <CHROM.1>
170.52251197,-174.62336614,45.13099215,48.53457658,11.39649053,15.94020796
-0.02982112,-0.01620561,1.81603539

>  <Name>
ligand

>  <RI>
0

>  <Rbt.Current_Directory>
/home/itssahil/PROJECTS/Mol_Feturizer/New_Systems/rnas/3B4C

>  <Rbt.Executable>
rbdock ($Id: //depot/dev/client3/rdock/2013.1/src/exe/rbdock.cxx#4 $)

>  <Rbt.Library>
libRbt.so (2013.1, Build901 2013/11/27)

>  <Rbt.Parameter_File>
/export/apps/rDock/src/rDock_2013.1_src/data/scripts/dock_solv.prm

>  <Rbt.Receptor>
prm/pocket_docking_4.prm

>  <SCORE>
-11.5323

>  <SCORE.INTER>
-10.4361

>  <SCORE.INTER.CONST>
1

>  <SCORE.INTER.POLAR>
-1.29904

>  <SCORE.INTER.ROT>
3

>  <SCORE.INTER.SOLV>
20.948

>  <SCORE.INTER.VDW>
-15.21

>  <SCORE.INTER.norm>
-0.652259

>  <SCORE.INTRA>
-1.0962

>  <SCORE.INTRA.DIHEDRAL>
-1.33071

>  <SCORE.INTRA.DIHEDRAL.0>
2.1318

>  <SCORE.INTRA.POLAR>
0

>  <SCORE.INTRA.POLAR.0>
0

>  <SCORE.INTRA.REPUL>
0

>  <SCORE.INTRA.REPUL.0>
0

>  <SCORE.INTRA.SOLV>
-1.12613

>  <SCORE.INTRA.SOLV.lig_0>
-58.6125

>  <SCORE.INTRA.VDW>
0.132217

>  <SCORE.INTRA.VDW.0>
-0.432734

>  <SCORE.INTRA.norm>
-0.0685126

>  <SCORE.RESTR>
0

>  <SCORE.RESTR.CAVITY>
0

>  <SCORE.RESTR.norm>
0

>  <SCORE.SYSTEM>
0

>  <SCORE.SYSTEM.CONST>
0

>  <SCORE.SYSTEM.DIHEDRAL>
0

>  <SCORE.SYSTEM.SOLV>
0

>  <SCORE.SYSTEM.norm>
0

>  <SCORE.heavy>
16

>  <SCORE.norm>
-0.720772

>  <RMSD>
0.917

$$$$
ligand
 OpenBabel11021811463D
libRbt.so/2013.1/901 2013/11/27
 16 16  0  0  0  0  0  0  0  0999 V2000
   51.8167   11.8013   14.7815 P   0  0  2  0  0  0  0  0  0  0  0  0
   51.9437   13.0516   15.5700 O   0  0  0  0  0  0  0  0  0  0  0  0
   52.6332   10.6216   15.5099 O   0  5  0  0  0  0  0  0  0  0  0  0
   52.4419   12.0401   13.3146 O   0  0  0  0  0  0  0  0  0  0  0  0
   46.3666   10.0788   17.2882 C   0  0  2  0  0  0  0  0  0  0  0  0
   45.9663    9.1310   16.2916 O   0  0  0  0  0  0  0  0  0  0  0  0
   45.6405   11.4327   17.0794 C   0  0  2  0  0  0  0  0  0  0  0  0
   44.1803   11.2295   17.1367 N   0  0  0  0  0  0  0  0  0  0  0  0
   46.0396   11.9962   15.7052 C   0  0  1  0  0  0  0  0  0  0  0  0
   45.4009   13.2568   15.4854 O   0  0  0  0  0  0  0  0  0  0  0  0
   47.5556   12.1845   15.6974 C   0  0  2  0  0  0  0  0  0  0  0  0
   47.9469   12.7034   14.4327 O   0  0  0  0  0  0  0  0  0  0  0  0
   48.2309   10.8072   15.9406 C   0  0  2  0  0  0  0  0  0  0  0  0
   47.8151   10.2590   17.2290 O   0  0  0  0  0  0  0  0  0  0  0  0
   49.7732   10.9485   15.9486 C   0  0  0  0  0  0  0  0  0  0  0  0
   50.2526   11.3939   14.6667 O   0  0  0  0  0  0  0  0  0  0  0  0
  1  2  1  1  0  0  0
  1  3  1  0  0  0  0
  1  4  2  0  0  0  0
  1 16  1  0  0  0  0
  5  6  1  6  0  0  0
  5  7  1  0  0  0  0
  5 14  1  0  0  0  0
  7  8  1  6  0  0  0
  7  9  1  0  0  0  0
  9 10  1  1  0  0  0
  9 11  1  0  0  0  0
 11 12  1  6  0  0  0
 11 13  1  0  0  0  0
 13 14  1  0  0  0  0
 13 15  1  1  0  0  0
 15 16  1  0  0  0  0
M  CHG  1   3  -1
M  END
>  <CHROM.1>
-63.18469049,169.32140531,-70.55757314,48.69699312,11.46864682,15.64985634
0.22365658,0.19166744,-0.54298401

>  <Name>
ligand

>  <RI>
0

>  <Rbt.Current_Directory>
/home/itssahil/PROJECTS/Mol_Feturizer/New_Systems/rnas/3B4C

>  <Rbt.Executable>
rbdock ($Id: //depot/dev/client3/rdock/2013.1/src/exe/rbdock.cxx#4 $)

>  <Rbt.Library>
libRbt.so (2013.1, Build901 2013/11/27)

>  <Rbt.Parameter_File>
/export/apps/rDock/src/rDock_2013.1_src/data/scripts/dock_solv.prm

>  <Rbt.Receptor>
prm/pocket_docking_3.prm

>  <SCORE>
-11.6588

>  <SCORE.INTER>
-10.6836

>  <SCORE.INTER.CONST>
1

>  <SCORE.INTER.POLAR>
-1.29904

>  <SCORE.INTER.ROT>
3

>  <SCORE.INTER.SOLV>
17.1167

>  <SCORE.INTER.VDW>
-14.0978

>  <SCORE.INTER.norm>
-0.667725

>  <SCORE.INTRA>
-0.975225

>  <SCORE.INTRA.DIHEDRAL>
-1.36974

>  <SCORE.INTRA.DIHEDRAL.0>
2.1318

>  <SCORE.INTRA.POLAR>
0

>  <SCORE.INTRA.POLAR.0>
0

>  <SCORE.INTRA.REPUL>
0

>  <SCORE.INTRA.REPUL.0>
0

>  <SCORE.INTRA.SOLV>
-0.406343

>  <SCORE.INTRA.SOLV.lig_0>
-58.6125

>  <SCORE.INTRA.VDW>
-0.0871813

>  <SCORE.INTRA.VDW.0>
-0.432734

>  <SCORE.INTRA.norm>
-0.0609515

>  <SCORE.RESTR>
0

>  <SCORE.RESTR.CAVITY>
0

>  <SCORE.RESTR.norm>
0

>  <SCORE.SYSTEM>
0

>  <SCORE.SYSTEM.CONST>
0

>  <SCORE.SYSTEM.DIHEDRAL>
0

>  <SCORE.SYSTEM.SOLV>
0

>  <SCORE.SYSTEM.norm>
0

>  <SCORE.heavy>
16

>  <SCORE.norm>
-0.728676

>  <RMSD>
0.933

$$$$
ligand
 OpenBabel11021811463D
libRbt.so/2013.1/901 2013/11/27
 16 16  0  0  0  0  0  0  0  0999 V2000
   51.7699   11.4774   15.3947 P   0  0  2  0  0  0  0  0  0  0  0  0
   51.9187   12.8258   15.9954 O   0  0  0  0  0  0  0  0  0  0  0  0
   52.8668   10.4839   16.0262 O   0  5  0  0  0  0  0  0  0  0  0  0
   52.0141   11.5814   13.8044 O   0  0  0  0  0  0  0  0  0  0  0  0
   46.3847   10.8834   17.2707 C   0  0  2  0  0  0  0  0  0  0  0  0
   46.1977    9.5213   16.8686 O   0  0  0  0  0  0  0  0  0  0  0  0
   45.2939   11.7928   16.6486 C   0  0  2  0  0  0  0  0  0  0  0  0
   43.9578   11.3249   17.0642 N   0  0  0  0  0  0  0  0  0  0  0  0
   45.4196   11.7316   15.1170 C   0  0  1  0  0  0  0  0  0  0  0  0
   44.4380   12.5748   14.5082 O   0  0  0  0  0  0  0  0  0  0  0  0
   46.8168   12.2217   14.7408 C   0  0  2  0  0  0  0  0  0  0  0  0
   46.9554   12.1709   13.3265 O   0  0  0  0  0  0  0  0  0  0  0  0
   47.8680   11.2970   15.4131 C   0  0  2  0  0  0  0  0  0  0  0  0
   47.7159   11.3281   16.8654 O   0  0  0  0  0  0  0  0  0  0  0  0
   49.3047   11.7597   15.0658 C   0  0  0  0  0  0  0  0  0  0  0  0
   50.2816   10.9137   15.6994 O   0  0  0  0  0  0  0  0  0  0  0  0
  1  2  1  1  0  0  0
  1  3  1  0  0  0  0
  1  4  2  0  0  0  0
  1 16  1  0  0  0  0
  5  6  1  6  0  0  0
  5  7  1  0  0  0  0
  5 14  1  0  0  0  0
  7  8  1  6  0  0  0
  7  9  1  0  0  0  0
  9 10  1  6  0  0  0
  9 11  1  0  0  0  0
 11 12  1  6  0  0  0
 11 13  1  0  0  0  0
 13 14  1  0  0  0  0
 13 15  1  1  0  0  0
 15 16  1  0  0  0  0
M  CHG  1   3  -1
M  END
>  <CHROM.1>
179.35889569,-176.44566235,63.27100533,48.41922509,11.48586486,15.57960646
-0.06754130,-0.04889468,2.07636433

>  <Name>
ligand

>  <RI>
0

>  <Rbt.Current_Directory>
/home/itssahil/PROJECTS/Mol_Feturizer/New_Systems/rnas/3B4C

>  <Rbt.Executable>
rbdock ($Id: //depot/dev/client3/rdock/2013.1/src/exe/rbdock.cxx#4 $)

>  <Rbt.Library>
libRbt.so (2013.1, Build901 2013/11/27)

>  <Rbt.Parameter_File>
/export/apps/rDock/src/rDock_2013.1_src/data/scripts/dock_solv.prm

>  <Rbt.Receptor>
prm/pocket_docking_2.prm

>  <SCORE>
-11.652

>  <SCORE.INTER>
-9.9887

>  <SCORE.INTER.CONST>
1

>  <SCORE.INTER.POLAR>
-1.29871

>  <SCORE.INTER.ROT>
3

>  <SCORE.INTER.SOLV>
17.7619

>  <SCORE.INTER.VDW>
-13.8508

>  <SCORE.INTER.norm>
-0.624294

>  <SCORE.INTRA>
-1.66828

>  <SCORE.INTRA.DIHEDRAL>
-2.04731

>  <SCORE.INTRA.DIHEDRAL.0>
2.1318

>  <SCORE.INTRA.POLAR>
0

>  <SCORE.INTRA.POLAR.0>
0

>  <SCORE.INTRA.REPUL>
0

>  <SCORE.INTRA.REPUL.0>
0

>  <SCORE.INTRA.SOLV>
-0.982166

>  <SCORE.INTRA.SOLV.lig_0>
-58.6125

>  <SCORE.INTRA.VDW>
-0.153538

>  <SCORE.INTRA.VDW.0>
-0.432734

>  <SCORE.INTRA.norm>
-0.104267

>  <SCORE.RESTR>
0.00497148

>  <SCORE.RESTR.CAVITY>
0.00497148

>  <SCORE.RESTR.norm>
0.000310718

>  <SCORE.SYSTEM>
0

>  <SCORE.SYSTEM.CONST>
0

>  <SCORE.SYSTEM.DIHEDRAL>
0

>  <SCORE.SYSTEM.SOLV>
0

>  <SCORE.SYSTEM.norm>
0

>  <SCORE.heavy>
16

>  <SCORE.norm>
-0.728251

>  <RMSD>
0.938

$$$$
ligand
 OpenBabel11021811463D
libRbt.so/2013.1/901 2013/11/27
 16 16  0  0  0  0  0  0  0  0999 V2000
   51.7332   11.6763   15.5664 P   0  0  2  0  0  0  0  0  0  0  0  0
   51.6635   12.9435   14.7977 O   0  0  0  0  0  0  0  0  0  0  0  0
   52.7871   11.8364   16.7716 O   0  5  0  0  0  0  0  0  0  0  0  0
   52.2339   10.4962   14.5886 O   0  0  0  0  0  0  0  0  0  0  0  0
   46.3550   10.4740   17.2574 C   0  0  2  0  0  0  0  0  0  0  0  0
   45.5646    9.6471   16.3953 O   0  0  0  0  0  0  0  0  0  0  0  0
   45.8512   11.9400   17.2232 C   0  0  2  0  0  0  0  0  0  0  0  0
   44.4359   11.9907   17.6368 N   0  0  0  0  0  0  0  0  0  0  0  0
   45.9996   12.4760   15.7893 C   0  0  1  0  0  0  0  0  0  0  0  0
   45.5601   13.8353   15.7238 O   0  0  0  0  0  0  0  0  0  0  0  0
   47.4775   12.3991   15.4102 C   0  0  2  0  0  0  0  0  0  0  0  0
   47.6371   12.8885   14.0847 O   0  0  0  0  0  0  0  0  0  0  0  0
   47.9370   10.9176   15.4904 C   0  0  2  0  0  0  0  0  0  0  0  0
   47.7546   10.4027   16.8450 O   0  0  0  0  0  0  0  0  0  0  0  0
   49.4354   10.7893   15.1204 C   0  0  0  0  0  0  0  0  0  0  0  0
   50.2678   11.3280   16.1638 O   0  0  0  0  0  0  0  0  0  0  0  0
  1  2  1  6  0  0  0
  1  3  1  0  0  0  0
  1  4  2  0  0  0  0
  1 16  1  0  0  0  0
  5  6  1  6  0  0  0
  5  7  1  0  0  0  0
  5 14  1  0  0  0  0
  7  8  1  6  0  0  0
  7  9  1  0  0  0  0
  9 10  1  1  0  0  0
  9 11  1  0  0  0  0
 11 12  1  6  0  0  0
 11 13  1  0  0  0  0
 13 14  1  0  0  0  0
 13 15  1  1  0  0  0
 15 16  1  0  0  0  0
M  CHG  1   3  -1
M  END
>  <CHROM.1>
71.75520250,-159.72346070,77.33551253,48.61198914,11.63331623,15.88229409
-0.06276836,-0.15684957,2.63227505

>  <Name>
ligand

>  <RI>
0

>  <Rbt.Current_Directory>
/home/itssahil/PROJECTS/Mol_Feturizer/New_Systems/rnas/3B4C

>  <Rbt.Executable>
rbdock ($Id: //depot/dev/client3/rdock/2013.1/src/exe/rbdock.cxx#4 $)

>  <Rbt.Library>
libRbt.so (2013.1, Build901 2013/11/27)

>  <Rbt.Parameter_File>
/export/apps/rDock/src/rDock_2013.1_src/data/scripts/dock_solv.prm

>  <Rbt.Receptor>
prm/pocket_docking_8.prm

>  <SCORE>
-10.6777

>  <SCORE.INTER>
-10.4492

>  <SCORE.INTER.CONST>
1

>  <SCORE.INTER.POLAR>
-1.29904

>  <SCORE.INTER.ROT>
3

>  <SCORE.INTER.SOLV>
19.9514

>  <SCORE.INTER.VDW>
-14.8865

>  <SCORE.INTER.norm>
-0.653077

>  <SCORE.INTRA>
-0.228459

>  <SCORE.INTRA.DIHEDRAL>
0.669484

>  <SCORE.INTRA.DIHEDRAL.0>
2.1318

>  <SCORE.INTRA.POLAR>
0

>  <SCORE.INTRA.POLAR.0>
0

>  <SCORE.INTRA.REPUL>
0

>  <SCORE.INTRA.REPUL.0>
0

>  <SCORE.INTRA.SOLV>
-0.63112

>  <SCORE.INTRA.SOLV.lig_0>
-58.6125

>  <SCORE.INTRA.VDW>
-0.247641

>  <SCORE.INTRA.VDW.0>
-0.432734

>  <SCORE.INTRA.norm>
-0.0142787

>  <SCORE.RESTR>
0

>  <SCORE.RESTR.CAVITY>
0

>  <SCORE.RESTR.norm>
0

>  <SCORE.SYSTEM>
0

>  <SCORE.SYSTEM.CONST>
0

>  <SCORE.SYSTEM.DIHEDRAL>
0

>  <SCORE.SYSTEM.SOLV>
0

>  <SCORE.SYSTEM.norm>
0

>  <SCORE.heavy>
16

>  <SCORE.norm>
-0.667355

>  <RMSD>
0.941

$$$$
ligand
 OpenBabel11021811463D
libRbt.so/2013.1/901 2013/11/27
 16 16  0  0  0  0  0  0  0  0999 V2000
   51.8321   11.4947   15.5103 P   0  0  2  0  0  0  0  0  0  0  0  0
   52.0294   12.8232   16.1408 O   0  0  0  0  0  0  0  0  0  0  0  0
   52.9126   10.4563   16.0961 O   0  5  0  0  0  0  0  0  0  0  0  0
   52.0495   11.6316   13.9186 O   0  0  0  0  0  0  0  0  0  0  0  0
   46.4768   11.1425   17.4849 C   0  0  2  0  0  0  0  0  0  0  0  0
   46.2354    9.7699   17.1541 O   0  0  0  0  0  0  0  0  0  0  0  0
   45.4024   12.0577   16.8431 C   0  0  2  0  0  0  0  0  0  0  0  0
   44.0617   11.6563   17.3101 N   0  0  0  0  0  0  0  0  0  0  0  0
   45.4901   11.9187   15.3139 C   0  0  1  0  0  0  0  0  0  0  0  0
   44.5229   12.7647   14.6862 O   0  0  0  0  0  0  0  0  0  0  0  0
   46.8936   12.3421   14.8838 C   0  0  2  0  0  0  0  0  0  0  0  0
   46.9972   12.2186   13.4711 O   0  0  0  0  0  0  0  0  0  0  0  0
   47.9290   11.4153   15.5774 C   0  0  2  0  0  0  0  0  0  0  0  0
   47.8121   11.5215   17.0295 O   0  0  0  0  0  0  0  0  0  0  0  0
   49.3717   11.8114   15.1767 C   0  0  0  0  0  0  0  0  0  0  0  0
   50.3347   10.9644   15.8299 O   0  0  0  0  0  0  0  0  0  0  0  0
  1  2  1  1  0  0  0
  1  3  1  0  0  0  0
  1  4  2  0  0  0  0
  1 16  1  0  0  0  0
  5  6  1  6  0  0  0
  5  7  1  0  0  0  0
  5 14  1  0  0  0  0
  7  8  1  1  0  0  0
  7  9  1  0  0  0  0
  9 10  1  6  0  0  0
  9 11  1  0  0  0  0
 11 12  1  6  0  0  0
 11 13  1  0  0  0  0
 13 14  1  0  0  0  0
 13 15  1  6  0  0  0
 15 16  1  0  0  0  0
M  CHG  1   3  -1
M  END
>  <CHROM.1>
179.33410966,-174.35322815,66.31535149,48.48956425,11.60596641,15.73897567
-0.06774738,-0.08142581,2.02815732

>  <Name>
ligand

>  <RI>
0

>  <Rbt.Current_Directory>
/home/itssahil/PROJECTS/Mol_Feturizer/New_Systems/rnas/3B4C

>  <Rbt.Executable>
rbdock ($Id: //depot/dev/client3/rdock/2013.1/src/exe/rbdock.cxx#4 $)

>  <Rbt.Library>
libRbt.so (2013.1, Build901 2013/11/27)

>  <Rbt.Parameter_File>
/export/apps/rDock/src/rDock_2013.1_src/data/scripts/dock_solv.prm

>  <Rbt.Receptor>
prm/pocket_docking_8.prm

>  <SCORE>
-12.1666

>  <SCORE.INTER>
-10.5846

>  <SCORE.INTER.CONST>
1

>  <SCORE.INTER.POLAR>
-1.29904

>  <SCORE.INTER.ROT>
3

>  <SCORE.INTER.SOLV>
18.5662

>  <SCORE.INTER.VDW>
-14.515

>  <SCORE.INTER.norm>
-0.66154

>  <SCORE.INTRA>
-1.58194

>  <SCORE.INTRA.DIHEDRAL>
-1.90484

>  <SCORE.INTRA.DIHEDRAL.0>
2.1318

>  <SCORE.INTRA.POLAR>
0

>  <SCORE.INTRA.POLAR.0>
0

>  <SCORE.INTRA.REPUL>
0

>  <SCORE.INTRA.REPUL.0>
0

>  <SCORE.INTRA.SOLV>
-0.947785

>  <SCORE.INTRA.SOLV.lig_0>
-58.6125

>  <SCORE.INTRA.VDW>
-0.15563

>  <SCORE.INTRA.VDW.0>
-0.432734

>  <SCORE.INTRA.norm>
-0.0988714

>  <SCORE.RESTR>
0

>  <SCORE.RESTR.CAVITY>
0

>  <SCORE.RESTR.norm>
0

>  <SCORE.SYSTEM>
0

>  <SCORE.SYSTEM.CONST>
0

>  <SCORE.SYSTEM.DIHEDRAL>
0

>  <SCORE.SYSTEM.SOLV>
0

>  <SCORE.SYSTEM.norm>
0

>  <SCORE.heavy>
16

>  <SCORE.norm>
-0.760412

>  <RMSD>
0.948

$$$$
ligand
 OpenBabel11021811463D
libRbt.so/2013.1/901 2013/11/27
 16 16  0  0  0  0  0  0  0  0999 V2000
   52.3363   11.8812   16.0513 P   0  0  2  0  0  0  0  0  0  0  0  0
   52.1424   13.0746   15.1914 O   0  0  0  0  0  0  0  0  0  0  0  0
   53.1282   12.3041   17.3865 O   0  5  0  0  0  0  0  0  0  0  0  0
   53.2124   10.7920   15.2478 O   0  0  0  0  0  0  0  0  0  0  0  0
   47.0031    9.9887   17.0062 C   0  0  2  0  0  0  0  0  0  0  0  0
   46.4307    9.0941   16.0449 O   0  0  0  0  0  0  0  0  0  0  0  0
   46.3310   11.3835   16.9245 C   0  0  2  0  0  0  0  0  0  0  0  0
   44.8805   11.2528   17.1607 N   0  0  0  0  0  0  0  0  0  0  0  0
   46.5853   11.9690   15.5252 C   0  0  1  0  0  0  0  0  0  0  0  0
   45.9934   13.2666   15.4193 O   0  0  0  0  0  0  0  0  0  0  0  0
   48.0965   12.0804   15.3306 C   0  0  2  0  0  0  0  0  0  0  0  0
   48.3543   12.6184   14.0399 O   0  0  0  0  0  0  0  0  0  0  0  0
   48.7213   10.6638   15.4524 C   0  0  2  0  0  0  0  0  0  0  0  0
   48.4405   10.0971   16.7690 O   0  0  0  0  0  0  0  0  0  0  0  0
   50.2578   10.7265   15.2690 C   0  0  0  0  0  0  0  0  0  0  0  0
   50.8919   11.2613   16.4452 O   0  0  0  0  0  0  0  0  0  0  0  0
  1  2  1  6  0  0  0
  1  3  1  0  0  0  0
  1  4  2  0  0  0  0
  1 16  1  0  0  0  0
  5  6  1  6  0  0  0
  5  7  1  0  0  0  0
  5 14  1  0  0  0  0
  7  8  1  6  0  0  0
  7  9  1  0  0  0  0
  9 10  1  1  0  0  0
  9 11  1  0  0  0  0
 11 12  1  6  0  0  0
 11 13  1  0  0  0  0
 13 14  1  0  0  0  0
 13 15  1  1  0  0  0
 15 16  1  0  0  0  0
M  CHG  1   3  -1
M  END
>  <CHROM.1>
75.22601294,-156.80661567,67.21541279,49.24279140,11.44927205,15.95004694
-0.10871645,0.01773621,2.64757069

>  <Name>
ligand

>  <RI>
0

>  <Rbt.Current_Directory>
/home/itssahil/PROJECTS/Mol_Feturizer/New_Systems/rnas/3B4C

>  <Rbt.Executable>
rbdock ($Id: //depot/dev/client3/rdock/2013.1/src/exe/rbdock.cxx#4 $)

>  <Rbt.Library>
libRbt.so (2013.1, Build901 2013/11/27)

>  <Rbt.Parameter_File>
/export/apps/rDock/src/rDock_2013.1_src/data/scripts/dock_solv.prm

>  <Rbt.Receptor>
prm/pocket_docking_4.prm

>  <SCORE>
-10.2968

>  <SCORE.INTER>
-10.136

>  <SCORE.INTER.CONST>
1

>  <SCORE.INTER.POLAR>
-1.29904

>  <SCORE.INTER.ROT>
3

>  <SCORE.INTER.SOLV>
18.7892

>  <SCORE.INTER.VDW>
-14.2902

>  <SCORE.INTER.norm>
-0.633497

>  <SCORE.INTRA>
-0.160812

>  <SCORE.INTRA.DIHEDRAL>
1.10064

>  <SCORE.INTRA.DIHEDRAL.0>
2.1318

>  <SCORE.INTRA.POLAR>
0

>  <SCORE.INTRA.POLAR.0>
0

>  <SCORE.INTRA.REPUL>
0

>  <SCORE.INTRA.REPUL.0>
0

>  <SCORE.INTRA.SOLV>
-0.723156

>  <SCORE.INTRA.SOLV.lig_0>
-58.6125

>  <SCORE.INTRA.VDW>
-0.349556

>  <SCORE.INTRA.VDW.0>
-0.432734

>  <SCORE.INTRA.norm>
-0.0100508

>  <SCORE.RESTR>
0

>  <SCORE.RESTR.CAVITY>
0

>  <SCORE.RESTR.norm>
0

>  <SCORE.SYSTEM>
0

>  <SCORE.SYSTEM.CONST>
0

>  <SCORE.SYSTEM.DIHEDRAL>
0

>  <SCORE.SYSTEM.SOLV>
0

>  <SCORE.SYSTEM.norm>
0

>  <SCORE.heavy>
16

>  <SCORE.norm>
-0.643548

>  <RMSD>
0.957

$$$$
ligand
 OpenBabel11021811463D
libRbt.so/2013.1/901 2013/11/27
 16 16  0  0  0  0  0  0  0  0999 V2000
   51.7251   11.4525   15.4919 P   0  0  2  0  0  0  0  0  0  0  0  0
   51.9285   12.7969   16.0857 O   0  0  0  0  0  0  0  0  0  0  0  0
   52.8079   10.4281   16.0978 O   0  5  0  0  0  0  0  0  0  0  0  0
   51.9322   11.5470   13.8957 O   0  0  0  0  0  0  0  0  0  0  0  0
   46.3271   10.9890   17.3311 C   0  0  2  0  0  0  0  0  0  0  0  0
   46.1220    9.6105   17.0003 O   0  0  0  0  0  0  0  0  0  0  0  0
   45.2515   11.8798   16.6576 C   0  0  2  0  0  0  0  0  0  0  0  0
   43.9074   11.4532   17.0916 N   0  0  0  0  0  0  0  0  0  0  0  0
   45.3816   11.7364   15.1318 C   0  0  1  0  0  0  0  0  0  0  0  0
   44.4142   12.5602   14.4755 O   0  0  0  0  0  0  0  0  0  0  0  0
   46.7869   12.1863   14.7362 C   0  0  2  0  0  0  0  0  0  0  0  0
   46.9296   12.0594   13.3272 O   0  0  0  0  0  0  0  0  0  0  0  0
   47.8225   11.2835   15.4605 C   0  0  2  0  0  0  0  0  0  0  0  0
   47.6658   11.3931   16.9086 O   0  0  0  0  0  0  0  0  0  0  0  0
   49.2668   11.7070   15.0955 C   0  0  0  0  0  0  0  0  0  0  0  0
   50.2290   10.9334   15.8351 O   0  0  0  0  0  0  0  0  0  0  0  0
  1  2  1  1  0  0  0
  1  3  1  0  0  0  0
  1  4  2  0  0  0  0
  1 16  1  0  0  0  0
  5  6  1  6  0  0  0
  5  7  1  0  0  0  0
  5 14  1  0  0  0  0
  7  8  1  1  0  0  0
  7  9  1  0  0  0  0
  9 10  1  6  0  0  0
  9 11  1  0  0  0  0
 11 12  1  6  0  0  0
 11 13  1  0  0  0  0
 13 14  1  0  0  0  0
 13 15  1  1  0  0  0
 15 16  1  0  0  0  0
M  CHG  1   3  -1
M  END
>  <CHROM.1>
176.04172401,-176.98257166,70.16868297,48.37498398,11.49017205,15.63502221
-0.05450720,-0.05061012,2.02420197

>  <Name>
ligand

>  <RI>
0

>  <Rbt.Current_Directory>
/home/itssahil/PROJECTS/Mol_Feturizer/New_Systems/rnas/3B4C

>  <Rbt.Executable>
rbdock ($Id: //depot/dev/client3/rdock/2013.1/src/exe/rbdock.cxx#4 $)

>  <Rbt.Library>
libRbt.so (2013.1, Build901 2013/11/27)

>  <Rbt.Parameter_File>
/export/apps/rDock/src/rDock_2013.1_src/data/scripts/dock_solv.prm

>  <Rbt.Receptor>
prm/pocket_docking_2.prm

>  <SCORE>
-11.6812

>  <SCORE.INTER>
-10.2024

>  <SCORE.INTER.CONST>
1

>  <SCORE.INTER.POLAR>
-1.29904

>  <SCORE.INTER.ROT>
3

>  <SCORE.INTER.SOLV>
18.3552

>  <SCORE.INTER.VDW>
-14.1899

>  <SCORE.INTER.norm>
-0.637651

>  <SCORE.INTRA>
-1.48526

>  <SCORE.INTRA.DIHEDRAL>
-1.86033

>  <SCORE.INTRA.DIHEDRAL.0>
2.1318

>  <SCORE.INTRA.POLAR>
0

>  <SCORE.INTRA.POLAR.0>
0

>  <SCORE.INTRA.REPUL>
0

>  <SCORE.INTRA.REPUL.0>
0

>  <SCORE.INTRA.SOLV>
-0.903455

>  <SCORE.INTRA.SOLV.lig_0>
-58.6125

>  <SCORE.INTRA.VDW>
-0.103374

>  <SCORE.INTRA.VDW.0>
-0.432734

>  <SCORE.INTRA.norm>
-0.092829

>  <SCORE.RESTR>
0.00653095

>  <SCORE.RESTR.CAVITY>
0.00653095

>  <SCORE.RESTR.norm>
0.000408184

>  <SCORE.SYSTEM>
0

>  <SCORE.SYSTEM.CONST>
0

>  <SCORE.SYSTEM.DIHEDRAL>
0

>  <SCORE.SYSTEM.SOLV>
0

>  <SCORE.SYSTEM.norm>
0

>  <SCORE.heavy>
16

>  <SCORE.norm>
-0.730072

>  <RMSD>
0.963

$$$$
ligand
 OpenBabel11021811463D
libRbt.so/2013.1/901 2013/11/27
 16 16  0  0  0  0  0  0  0  0999 V2000
   51.7086   11.3696   15.8241 P   0  0  2  0  0  0  0  0  0  0  0  0
   51.7493   12.8065   15.4566 O   0  0  0  0  0  0  0  0  0  0  0  0
   52.6732   11.1102   17.0855 O   0  5  0  0  0  0  0  0  0  0  0  0
   52.2337   10.4937   14.5766 O   0  0  0  0  0  0  0  0  0  0  0  0
   46.2459   11.0829   17.4238 C   0  0  2  0  0  0  0  0  0  0  0  0
   46.0257    9.6808   17.2300 O   0  0  0  0  0  0  0  0  0  0  0  0
   45.2135   11.9156   16.6208 C   0  0  2  0  0  0  0  0  0  0  0  0
   43.8463   11.5581   17.0447 N   0  0  0  0  0  0  0  0  0  0  0  0
   45.3964   11.6118   15.1242 C   0  0  1  0  0  0  0  0  0  0  0  0
   44.4702   12.3779   14.3494 O   0  0  0  0  0  0  0  0  0  0  0  0
   46.8239   11.9955   14.7384 C   0  0  2  0  0  0  0  0  0  0  0  0
   47.0154   11.7200   13.3566 O   0  0  0  0  0  0  0  0  0  0  0  0
   47.8142   11.1568   15.5916 C   0  0  2  0  0  0  0  0  0  0  0  0
   47.6070   11.4192   17.0134 O   0  0  0  0  0  0  0  0  0  0  0  0
   49.2790   11.5168   15.2403 C   0  0  0  0  0  0  0  0  0  0  0  0
   50.1889   10.9540   16.2030 O   0  0  0  0  0  0  0  0  0  0  0  0
  1  2  1  6  0  0  0
  1  3  1  0  0  0  0
  1  4  2  0  0  0  0
  1 16  1  0  0  0  0
  5  6  1  6  0  0  0
  5  7  1  0  0  0  0
  5 14  1  0  0  0  0
  7  8  1  1  0  0  0
  7  9  1  0  0  0  0
  9 10  1  6  0  0  0
  9 11  1  0  0  0  0
 11 12  1  6  0  0  0
 11 13  1  0  0  0  0
 13 14  1  0  0  0  0
 13 15  1  6  0  0  0
 15 16  1  0  0  0  0
M  CHG  1   3  -1
M  END
>  <CHROM.1>
168.27105913,-178.98792528,44.03250598,48.36215891,11.41045814,15.79508971
-0.00606830,-0.03271161,1.90783487

>  <Name>
ligand

>  <RI>
0

>  <Rbt.Current_Directory>
/home/itssahil/PROJECTS/Mol_Feturizer/New_Systems/rnas/3B4C

>  <Rbt.Executable>
rbdock ($Id: //depot/dev/client3/rdock/2013.1/src/exe/rbdock.cxx#4 $)

>  <Rbt.Library>
libRbt.so (2013.1, Build901 2013/11/27)

>  <Rbt.Parameter_File>
/export/apps/rDock/src/rDock_2013.1_src/data/scripts/dock_solv.prm

>  <Rbt.Receptor>
prm/pocket_docking_2.prm

>  <SCORE>
-11.1239

>  <SCORE.INTER>
-10.1284

>  <SCORE.INTER.CONST>
1

>  <SCORE.INTER.POLAR>
-1.29904

>  <SCORE.INTER.ROT>
3

>  <SCORE.INTER.SOLV>
20.5523

>  <SCORE.INTER.VDW>
-14.8729

>  <SCORE.INTER.norm>
-0.633024

>  <SCORE.INTRA>
-0.995519

>  <SCORE.INTRA.DIHEDRAL>
-1.25459

>  <SCORE.INTRA.DIHEDRAL.0>
2.1318

>  <SCORE.INTRA.POLAR>
0

>  <SCORE.INTRA.POLAR.0>
0

>  <SCORE.INTRA.REPUL>
0

>  <SCORE.INTRA.REPUL.0>
0

>  <SCORE.INTRA.SOLV>
-1.13218

>  <SCORE.INTRA.SOLV.lig_0>
-58.6125

>  <SCORE.INTRA.VDW>
0.197863

>  <SCORE.INTRA.VDW.0>
-0.432734

>  <SCORE.INTRA.norm>
-0.06222

>  <SCORE.RESTR>
0

>  <SCORE.RESTR.CAVITY>
0

>  <SCORE.RESTR.norm>
0

>  <SCORE.SYSTEM>
0

>  <SCORE.SYSTEM.CONST>
0

>  <SCORE.SYSTEM.DIHEDRAL>
0

>  <SCORE.SYSTEM.SOLV>
0

>  <SCORE.SYSTEM.norm>
0

>  <SCORE.heavy>
16

>  <SCORE.norm>
-0.695244

>  <RMSD>
0.965

$$$$
ligand
 OpenBabel11021811463D
libRbt.so/2013.1/901 2013/11/27
 16 16  0  0  0  0  0  0  0  0999 V2000
   51.7561   11.4716   15.4610 P   0  0  2  0  0  0  0  0  0  0  0  0
   51.9007   12.7966   16.1129 O   0  0  0  0  0  0  0  0  0  0  0  0
   52.8364   10.4498   16.0755 O   0  5  0  0  0  0  0  0  0  0  0  0
   52.0294   11.6318   13.8802 O   0  0  0  0  0  0  0  0  0  0  0  0
   46.3938   10.9324   17.3270 C   0  0  2  0  0  0  0  0  0  0  0  0
   46.1517    9.5901   16.8893 O   0  0  0  0  0  0  0  0  0  0  0  0
   45.3234   11.8968   16.7540 C   0  0  2  0  0  0  0  0  0  0  0  0
   43.9802   11.4627   17.1830 N   0  0  0  0  0  0  0  0  0  0  0  0
   45.4173   11.8770   15.2190 C   0  0  1  0  0  0  0  0  0  0  0  0
   44.4540   12.7711   14.6552 O   0  0  0  0  0  0  0  0  0  0  0  0
   46.8231   12.3300   14.8288 C   0  0  2  0  0  0  0  0  0  0  0  0
   46.9324   12.3167   13.4112 O   0  0  0  0  0  0  0  0  0  0  0  0
   47.8543   11.3502   15.4523 C   0  0  2  0  0  0  0  0  0  0  0  0
   47.7315   11.3432   16.9078 O   0  0  0  0  0  0  0  0  0  0  0  0
   49.2992   11.7736   15.0895 C   0  0  0  0  0  0  0  0  0  0  0  0
   50.2597   10.9057   15.7185 O   0  0  0  0  0  0  0  0  0  0  0  0
  1  2  1  1  0  0  0
  1  3  1  0  0  0  0
  1  4  2  0  0  0  0
  1 16  1  0  0  0  0
  5  6  1  6  0  0  0
  5  7  1  0  0  0  0
  5 14  1  0  0  0  0
  7  8  1  6  0  0  0
  7  9  1  0  0  0  0
  9 10  1  6  0  0  0
  9 11  1  0  0  0  0
 11 12  1  6  0  0  0
 11 13  1  0  0  0  0
 13 14  1  0  0  0  0
 13 15  1  1  0  0  0
 15 16  1  0  0  0  0
M  CHG  1   3  -1
M  END
>  <CHROM.1>
177.22921433,-173.55756630,63.73299685,48.41407514,11.54306204,15.65117063
-0.05913473,-0.07050100,2.10349473

>  <Name>
ligand

>  <RI>
0

>  <Rbt.Current_Directory>
/home/itssahil/PROJECTS/Mol_Feturizer/New_Systems/rnas/3B4C

>  <Rbt.Executable>
rbdock ($Id: //depot/dev/client3/rdock/2013.1/src/exe/rbdock.cxx#4 $)

>  <Rbt.Library>
libRbt.so (2013.1, Build901 2013/11/27)

>  <Rbt.Parameter_File>
/export/apps/rDock/src/rDock_2013.1_src/data/scripts/dock_solv.prm

>  <Rbt.Receptor>
prm/pocket_docking_2.prm

>  <SCORE>
-11.6397

>  <SCORE.INTER>
-10.106

>  <SCORE.INTER.CONST>
1

>  <SCORE.INTER.POLAR>
-1.29904

>  <SCORE.INTER.ROT>
3

>  <SCORE.INTER.SOLV>
18.0974

>  <SCORE.INTER.VDW>
-14.0397

>  <SCORE.INTER.norm>
-0.631627

>  <SCORE.INTRA>
-1.57312

>  <SCORE.INTRA.DIHEDRAL>
-1.87565

>  <SCORE.INTRA.DIHEDRAL.0>
2.1318

>  <SCORE.INTRA.POLAR>
0

>  <SCORE.INTRA.POLAR.0>
0

>  <SCORE.INTRA.REPUL>
0

>  <SCORE.INTRA.REPUL.0>
0

>  <SCORE.INTRA.SOLV>
-0.965251

>  <SCORE.INTRA.SOLV.lig_0>
-58.6125

>  <SCORE.INTRA.VDW>
-0.152671

>  <SCORE.INTRA.VDW.0>
-0.432734

>  <SCORE.INTRA.norm>
-0.09832

>  <SCORE.RESTR>
0.0394842

>  <SCORE.RESTR.CAVITY>
0.0394842

>  <SCORE.RESTR.norm>
0.00246776

>  <SCORE.SYSTEM>
0

>  <SCORE.SYSTEM.CONST>
0

>  <SCORE.SYSTEM.DIHEDRAL>
0

>  <SCORE.SYSTEM.SOLV>
0

>  <SCORE.SYSTEM.norm>
0

>  <SCORE.heavy>
16

>  <SCORE.norm>
-0.727479

>  <RMSD>
0.966

$$$$
ligand
 OpenBabel11021811463D
libRbt.so/2013.1/901 2013/11/27
 16 16  0  0  0  0  0  0  0  0999 V2000
   51.7648   11.4580   15.5421 P   0  0  2  0  0  0  0  0  0  0  0  0
   51.9741   12.7795   16.1834 O   0  0  0  0  0  0  0  0  0  0  0  0
   52.8063   10.3940   16.1518 O   0  5  0  0  0  0  0  0  0  0  0  0
   52.0274   11.5963   13.9573 O   0  0  0  0  0  0  0  0  0  0  0  0
   46.3290   11.0337   17.2725 C   0  0  2  0  0  0  0  0  0  0  0  0
   46.0840    9.6922   16.8341 O   0  0  0  0  0  0  0  0  0  0  0  0
   45.2927   12.0089   16.6570 C   0  0  2  0  0  0  0  0  0  0  0  0
   43.9294   11.5956   17.0410 N   0  0  0  0  0  0  0  0  0  0  0  0
   45.4399   11.9786   15.1263 C   0  0  1  0  0  0  0  0  0  0  0  0
   44.5093   12.8822   14.5241 O   0  0  0  0  0  0  0  0  0  0  0  0
   46.8646   12.4102   14.7832 C   0  0  2  0  0  0  0  0  0  0  0  0
   47.0233   12.3869   13.3704 O   0  0  0  0  0  0  0  0  0  0  0  0
   47.8598   11.4203   15.4479 C   0  0  2  0  0  0  0  0  0  0  0  0
   47.6861   11.4238   16.8982 O   0  0  0  0  0  0  0  0  0  0  0  0
   49.3222   11.8220   15.1336 C   0  0  0  0  0  0  0  0  0  0  0  0
   50.2481   10.9595   15.8194 O   0  0  0  0  0  0  0  0  0  0  0  0
  1  2  1  1  0  0  0
  1  3  1  0  0  0  0
  1  4  2  0  0  0  0
  1 16  1  0  0  0  0
  5  6  1  6  0  0  0
  5  7  1  0  0  0  0
  5 14  1  0  0  0  0
  7  8  1  6  0  0  0
  7  9  1  0  0  0  0
  9 10  1  6  0  0  0
  9 11  1  0  0  0  0
 11 12  1  6  0  0  0
 11 13  1  0  0  0  0
 13 14  1  0  0  0  0
 13 15  1  1  0  0  0
 15 16  1  0  0  0  0
M  CHG  1   3  -1
M  END
>  <CHROM.1>
176.22133910,-176.65389048,66.89060580,48.41626180,11.59512596,15.64609573
-0.02683271,-0.07281461,2.10167609

>  <Name>
ligand

>  <RI>
0

>  <Rbt.Current_Directory>
/home/itssahil/PROJECTS/Mol_Feturizer/New_Systems/rnas/3B4C

>  <Rbt.Executable>
rbdock ($Id: //depot/dev/client3/rdock/2013.1/src/exe/rbdock.cxx#4 $)

>  <Rbt.Library>
libRbt.so (2013.1, Build901 2013/11/27)

>  <Rbt.Parameter_File>
/export/apps/rDock/src/rDock_2013.1_src/data/scripts/dock_solv.prm

>  <Rbt.Receptor>
prm/pocket_docking_2.prm

>  <SCORE>
-11.5586

>  <SCORE.INTER>
-10.0172

>  <SCORE.INTER.CONST>
1

>  <SCORE.INTER.POLAR>
-1.29904

>  <SCORE.INTER.ROT>
3

>  <SCORE.INTER.SOLV>
17.9497

>  <SCORE.INTER.VDW>
-13.9313

>  <SCORE.INTER.norm>
-0.626075

>  <SCORE.INTRA>
-1.58154

>  <SCORE.INTRA.DIHEDRAL>
-1.9447

>  <SCORE.INTRA.DIHEDRAL.0>
2.1318

>  <SCORE.INTRA.POLAR>
0

>  <SCORE.INTRA.POLAR.0>
0

>  <SCORE.INTRA.REPUL>
0

>  <SCORE.INTRA.REPUL.0>
0

>  <SCORE.INTRA.SOLV>
-0.936271

>  <SCORE.INTRA.SOLV.lig_0>
-58.6125

>  <SCORE.INTRA.VDW>
-0.141054

>  <SCORE.INTRA.VDW.0>
-0.432734

>  <SCORE.INTRA.norm>
-0.0988463

>  <SCORE.RESTR>
0.0401136

>  <SCORE.RESTR.CAVITY>
0.0401136

>  <SCORE.RESTR.norm>
0.0025071

>  <SCORE.SYSTEM>
0

>  <SCORE.SYSTEM.CONST>
0

>  <SCORE.SYSTEM.DIHEDRAL>
0

>  <SCORE.SYSTEM.SOLV>
0

>  <SCORE.SYSTEM.norm>
0

>  <SCORE.heavy>
16

>  <SCORE.norm>
-0.722415

>  <RMSD>
0.977

$$$$
ligand
 OpenBabel11021811463D
libRbt.so/2013.1/901 2013/11/27
 16 16  0  0  0  0  0  0  0  0999 V2000
   51.7644   11.4732   15.4377 P   0  0  2  0  0  0  0  0  0  0  0  0
   51.9705   12.8302   16.0011 O   0  0  0  0  0  0  0  0  0  0  0  0
   52.8503   10.4624   16.0605 O   0  5  0  0  0  0  0  0  0  0  0  0
   51.9636   11.5329   13.8389 O   0  0  0  0  0  0  0  0  0  0  0  0
   46.4495   11.1967   17.5084 C   0  0  2  0  0  0  0  0  0  0  0  0
   46.1860    9.8202   17.2123 O   0  0  0  0  0  0  0  0  0  0  0  0
   45.3715   12.1103   16.8704 C   0  0  2  0  0  0  0  0  0  0  0  0
   44.0369   11.7342   17.3748 N   0  0  0  0  0  0  0  0  0  0  0  0
   45.4243   11.9380   15.3430 C   0  0  1  0  0  0  0  0  0  0  0  0
   44.4529   12.7815   14.7184 O   0  0  0  0  0  0  0  0  0  0  0  0
   46.8226   12.3361   14.8738 C   0  0  2  0  0  0  0  0  0  0  0  0
   46.8940   12.1816   13.4621 O   0  0  0  0  0  0  0  0  0  0  0  0
   47.8627   11.4125   15.5646 C   0  0  2  0  0  0  0  0  0  0  0  0
   47.7787   11.5506   17.0162 O   0  0  0  0  0  0  0  0  0  0  0  0
   49.3005   11.7835   15.1245 C   0  0  0  0  0  0  0  0  0  0  0  0
   50.2701   10.9616   15.7996 O   0  0  0  0  0  0  0  0  0  0  0  0
  1  2  1  1  0  0  0
  1  3  1  0  0  0  0
  1  4  2  0  0  0  0
  1 16  1  0  0  0  0
  5  6  1  6  0  0  0
  5  7  1  0  0  0  0
  5 14  1  0  0  0  0
  7  8  1  1  0  0  0
  7  9  1  0  0  0  0
  9 10  1  6  0  0  0
  9 11  1  0  0  0  0
 11 12  1  6  0  0  0
 11 13  1  0  0  0  0
 13 14  1  0  0  0  0
 13 15  1  6  0  0  0
 15 16  1  0  0  0  0
M  CHG  1   3  -1
M  END
>  <CHROM.1>
177.91697295,-174.15972134,65.93138206,48.42892810,11.61031272,15.71992160
-0.08044923,-0.09516370,2.00425984

>  <Name>
ligand

>  <RI>
0

>  <Rbt.Current_Directory>
/home/itssahil/PROJECTS/Mol_Feturizer/New_Systems/rnas/3B4C

>  <Rbt.Executable>
rbdock ($Id: //depot/dev/client3/rdock/2013.1/src/exe/rbdock.cxx#4 $)

>  <Rbt.Library>
libRbt.so (2013.1, Build901 2013/11/27)

>  <Rbt.Parameter_File>
/export/apps/rDock/src/rDock_2013.1_src/data/scripts/dock_solv.prm

>  <Rbt.Receptor>
prm/pocket_docking_3.prm

>  <SCORE>
-12.2326

>  <SCORE.INTER>
-10.6624

>  <SCORE.INTER.CONST>
1

>  <SCORE.INTER.POLAR>
-1.29904

>  <SCORE.INTER.ROT>
3

>  <SCORE.INTER.SOLV>
18.7537

>  <SCORE.INTER.VDW>
-14.6293

>  <SCORE.INTER.norm>
-0.666397

>  <SCORE.INTRA>
-1.57024

>  <SCORE.INTRA.DIHEDRAL>
-1.88814

>  <SCORE.INTRA.DIHEDRAL.0>
2.1318

>  <SCORE.INTRA.POLAR>
0

>  <SCORE.INTRA.POLAR.0>
0

>  <SCORE.INTRA.REPUL>
0

>  <SCORE.INTRA.REPUL.0>
0

>  <SCORE.INTRA.SOLV>
-0.946697

>  <SCORE.INTRA.SOLV.lig_0>
-58.6125

>  <SCORE.INTRA.VDW>
-0.152817

>  <SCORE.INTRA.VDW.0>
-0.432734

>  <SCORE.INTRA.norm>
-0.0981398

>  <SCORE.RESTR>
0

>  <SCORE.RESTR.CAVITY>
0

>  <SCORE.RESTR.norm>
0

>  <SCORE.SYSTEM>
0

>  <SCORE.SYSTEM.CONST>
0

>  <SCORE.SYSTEM.DIHEDRAL>
0

>  <SCORE.SYSTEM.SOLV>
0

>  <SCORE.SYSTEM.norm>
0

>  <SCORE.heavy>
16

>  <SCORE.norm>
-0.764537

>  <RMSD>
0.977

$$$$
ligand
 OpenBabel11021811463D
libRbt.so/2013.1/901 2013/11/27
 16 16  0  0  0  0  0  0  0  0999 V2000
   52.0859   11.6813   15.3000 P   0  0  2  0  0  0  0  0  0  0  0  0
   52.1479   11.4555   13.8349 O   0  0  0  0  0  0  0  0  0  0  0  0
   52.8479   13.0505   15.6653 O   0  5  0  0  0  0  0  0  0  0  0  0
   52.8210   10.4586   16.0511 O   0  0  0  0  0  0  0  0  0  0  0  0
   46.7557   10.7243   17.5603 C   0  0  2  0  0  0  0  0  0  0  0  0
   46.0658    9.5783   17.0478 O   0  0  0  0  0  0  0  0  0  0  0  0
   46.1266   12.0319   17.0141 C   0  0  2  0  0  0  0  0  0  0  0  0
   44.7010   12.0941   17.3893 N   0  0  0  0  0  0  0  0  0  0  0  0
   46.2684   12.0417   15.4827 C   0  0  1  0  0  0  0  0  0  0  0  0
   45.7135   13.2449   14.9445 O   0  0  0  0  0  0  0  0  0  0  0  0
   47.7575   11.9730   15.1488 C   0  0  2  0  0  0  0  0  0  0  0  0
   47.9114   11.9786   13.7352 O   0  0  0  0  0  0  0  0  0  0  0  0
   48.3426   10.6631   15.7436 C   0  0  2  0  0  0  0  0  0  0  0  0
   48.1674   10.6419   17.1936 O   0  0  0  0  0  0  0  0  0  0  0  0
   49.8565   10.5516   15.4363 C   0  0  0  0  0  0  0  0  0  0  0  0
   50.5366   11.7768   15.7647 O   0  0  0  0  0  0  0  0  0  0  0  0
  1  2  1  6  0  0  0
  1  3  1  0  0  0  0
  1  4  2  0  0  0  0
  1 16  1  0  0  0  0
  5  6  1  6  0  0  0
  5  7  1  0  0  0  0
  5 14  1  0  0  0  0
  7  8  1  6  0  0  0
  7  9  1  0  0  0  0
  9 10  1  1  0  0  0
  9 11  1  0  0  0  0
 11 12  1  6  0  0  0
 11 13  1  0  0  0  0
 13 14  1  0  0  0  0
 13 15  1  1  0  0  0
 15 16  1  0  0  0  0
M  CHG  1   3  -1
M  END
>  <CHROM.1>
48.63487053,-174.53275303,59.80328919,48.95177189,11.51085193,15.77003929
0.14749553,0.12176231,-0.85153583

>  <Name>
ligand

>  <RI>
0

>  <Rbt.Current_Directory>
/home/itssahil/PROJECTS/Mol_Feturizer/New_Systems/rnas/3B4C

>  <Rbt.Executable>
rbdock ($Id: //depot/dev/client3/rdock/2013.1/src/exe/rbdock.cxx#4 $)

>  <Rbt.Library>
libRbt.so (2013.1, Build901 2013/11/27)

>  <Rbt.Parameter_File>
/export/apps/rDock/src/rDock_2013.1_src/data/scripts/dock_solv.prm

>  <Rbt.Receptor>
prm/pocket_docking_5.prm

>  <SCORE>
-11.3772

>  <SCORE.INTER>
-10.0208

>  <SCORE.INTER.CONST>
1

>  <SCORE.INTER.POLAR>
-1.29904

>  <SCORE.INTER.ROT>
3

>  <SCORE.INTER.SOLV>
19.6376

>  <SCORE.INTER.VDW>
-14.4963

>  <SCORE.INTER.norm>
-0.626303

>  <SCORE.INTRA>
-1.35633

>  <SCORE.INTRA.DIHEDRAL>
-1.53294

>  <SCORE.INTRA.DIHEDRAL.0>
2.1318

>  <SCORE.INTRA.POLAR>
0

>  <SCORE.INTRA.POLAR.0>
0

>  <SCORE.INTRA.REPUL>
0

>  <SCORE.INTRA.REPUL.0>
0

>  <SCORE.INTRA.SOLV>
-0.801665

>  <SCORE.INTRA.SOLV.lig_0>
-58.6125

>  <SCORE.INTRA.VDW>
-0.189026

>  <SCORE.INTRA.VDW.0>
-0.432734

>  <SCORE.INTRA.norm>
-0.0847706

>  <SCORE.RESTR>
0

>  <SCORE.RESTR.CAVITY>
0

>  <SCORE.RESTR.norm>
0

>  <SCORE.SYSTEM>
0

>  <SCORE.SYSTEM.CONST>
0

>  <SCORE.SYSTEM.DIHEDRAL>
0

>  <SCORE.SYSTEM.SOLV>
0

>  <SCORE.SYSTEM.norm>
0

>  <SCORE.heavy>
16

>  <SCORE.norm>
-0.711074

>  <RMSD>
0.985

$$$$
ligand
 OpenBabel11021811463D
libRbt.so/2013.1/901 2013/11/27
 16 16  0  0  0  0  0  0  0  0999 V2000
   51.8179   11.4883   15.5103 P   0  0  2  0  0  0  0  0  0  0  0  0
   51.9926   12.8058   16.1698 O   0  0  0  0  0  0  0  0  0  0  0  0
   52.8824   10.4417   16.1105 O   0  5  0  0  0  0  0  0  0  0  0  0
   52.0836   11.6538   13.9286 O   0  0  0  0  0  0  0  0  0  0  0  0
   46.4627   10.7502   17.3110 C   0  0  2  0  0  0  0  0  0  0  0  0
   46.1818    9.4975   16.6755 O   0  0  0  0  0  0  0  0  0  0  0  0
   45.4109   11.8161   16.9093 C   0  0  2  0  0  0  0  0  0  0  0  0
   44.0619   11.3526   17.2862 N   0  0  0  0  0  0  0  0  0  0  0  0
   45.4872   12.0312   15.3883 C   0  0  1  0  0  0  0  0  0  0  0  0
   44.5407   13.0238   14.9832 O   0  0  0  0  0  0  0  0  0  0  0  0
   46.8997   12.5060   15.0517 C   0  0  2  0  0  0  0  0  0  0  0  0
   46.9929   12.7090   13.6474 O   0  0  0  0  0  0  0  0  0  0  0  0
   47.9125   11.4179   15.5015 C   0  0  2  0  0  0  0  0  0  0  0  0
   47.8057   11.1893   16.9402 O   0  0  0  0  0  0  0  0  0  0  0  0
   49.3636   11.8583   15.1868 C   0  0  0  0  0  0  0  0  0  0  0  0
   50.3126   10.9497   15.7743 O   0  0  0  0  0  0  0  0  0  0  0  0
  1  2  1  1  0  0  0
  1  3  1  0  0  0  0
  1  4  2  0  0  0  0
  1 16  1  0  0  0  0
  5  6  1  6  0  0  0
  5  7  1  0  0  0  0
  5 14  1  0  0  0  0
  7  8  1  6  0  0  0
  7  9  1  0  0  0  0
  9 10  1  1  0  0  0
  9 11  1  0  0  0  0
 11 12  1  6  0  0  0
 11 13  1  0  0  0  0
 13 14  1  0  0  0  0
 13 15  1  1  0  0  0
 15 16  1  0  0  0  0
M  CHG  1   3  -1
M  END
>  <CHROM.1>
171.56879933,-176.34547125,62.28440811,48.47994666,11.58023319,15.73511296
-0.05508620,-0.08864866,2.25404552

>  <Name>
ligand

>  <RI>
0

>  <Rbt.Current_Directory>
/home/itssahil/PROJECTS/Mol_Feturizer/New_Systems/rnas/3B4C

>  <Rbt.Executable>
rbdock ($Id: //depot/dev/client3/rdock/2013.1/src/exe/rbdock.cxx#4 $)

>  <Rbt.Library>
libRbt.so (2013.1, Build901 2013/11/27)

>  <Rbt.Parameter_File>
/export/apps/rDock/src/rDock_2013.1_src/data/scripts/dock_solv.prm

>  <Rbt.Receptor>
prm/pocket_docking_2.prm

>  <SCORE>
-11.5539

>  <SCORE.INTER>
-10.0472

>  <SCORE.INTER.CONST>
1

>  <SCORE.INTER.POLAR>
-1.29904

>  <SCORE.INTER.ROT>
3

>  <SCORE.INTER.SOLV>
18.3899

>  <SCORE.INTER.VDW>
-14.098

>  <SCORE.INTER.norm>
-0.627952

>  <SCORE.INTRA>
-1.50853

>  <SCORE.INTRA.DIHEDRAL>
-1.80417

>  <SCORE.INTRA.DIHEDRAL.0>
2.1318

>  <SCORE.INTRA.POLAR>
0

>  <SCORE.INTRA.POLAR.0>
0

>  <SCORE.INTRA.REPUL>
0

>  <SCORE.INTRA.REPUL.0>
0

>  <SCORE.INTRA.SOLV>
-0.967529

>  <SCORE.INTRA.SOLV.lig_0>
-58.6125

>  <SCORE.INTRA.VDW>
-0.122685

>  <SCORE.INTRA.VDW.0>
-0.432734

>  <SCORE.INTRA.norm>
-0.0942833

>  <SCORE.RESTR>
0.00190246

>  <SCORE.RESTR.CAVITY>
0.00190246

>  <SCORE.RESTR.norm>
0.000118904

>  <SCORE.SYSTEM>
0

>  <SCORE.SYSTEM.CONST>
0

>  <SCORE.SYSTEM.DIHEDRAL>
0

>  <SCORE.SYSTEM.SOLV>
0

>  <SCORE.SYSTEM.norm>
0

>  <SCORE.heavy>
16

>  <SCORE.norm>
-0.722116

>  <RMSD>
0.989

$$$$
ligand
 OpenBabel11021811463D
libRbt.so/2013.1/901 2013/11/27
 16 16  0  0  0  0  0  0  0  0999 V2000
   52.0528   11.6819   15.3226 P   0  0  2  0  0  0  0  0  0  0  0  0
   52.6373   10.4615   15.9312 O   0  0  0  0  0  0  0  0  0  0  0  0
   52.1848   11.5996   13.7211 O   0  5  0  0  0  0  0  0  0  0  0  0
   52.8659   12.9713   15.8478 O   0  0  0  0  0  0  0  0  0  0  0  0
   46.7726   10.8104   17.5342 C   0  0  2  0  0  0  0  0  0  0  0  0
   46.0912    9.6283   17.0982 O   0  0  0  0  0  0  0  0  0  0  0  0
   46.0878   12.0792   16.9640 C   0  0  2  0  0  0  0  0  0  0  0  0
   44.6782   12.1227   17.3976 N   0  0  0  0  0  0  0  0  0  0  0  0
   46.1644   12.0296   15.4287 C   0  0  1  0  0  0  0  0  0  0  0  0
   45.5567   13.1961   14.8673 O   0  0  0  0  0  0  0  0  0  0  0  0
   47.6394   11.9827   15.0336 C   0  0  2  0  0  0  0  0  0  0  0  0
   47.7332   11.9340   13.6156 O   0  0  0  0  0  0  0  0  0  0  0  0
   48.2824   10.7126   15.6545 C   0  0  2  0  0  0  0  0  0  0  0  0
   48.1692   10.7467   17.1103 O   0  0  0  0  0  0  0  0  0  0  0  0
   49.7842   10.6247   15.2866 C   0  0  0  0  0  0  0  0  0  0  0  0
   50.4906   11.7948   15.7376 O   0  0  0  0  0  0  0  0  0  0  0  0
  1  2  1  1  0  0  0
  1  3  1  0  0  0  0
  1  4  2  0  0  0  0
  1 16  1  0  0  0  0
  5  6  1  6  0  0  0
  5  7  1  0  0  0  0
  5 14  1  0  0  0  0
  7  8  1  6  0  0  0
  7  9  1  0  0  0  0
  9 10  1  6  0  0  0
  9 11  1  0  0  0  0
 11 12  1  6  0  0  0
 11 13  1  0  0  0  0
 13 14  1  0  0  0  0
 13 15  1  1  0  0  0
 15 16  1  0  0  0  0
M  CHG  1   3  -1
M  END
>  <CHROM.1>
58.12387975,-179.30214517,-58.92413897,48.89607641,11.53524147,15.72813193
-0.14830541,-0.10478126,2.19089540

>  <Name>
ligand

>  <RI>
0

>  <Rbt.Current_Directory>
/home/itssahil/PROJECTS/Mol_Feturizer/New_Systems/rnas/3B4C

>  <Rbt.Executable>
rbdock ($Id: //depot/dev/client3/rdock/2013.1/src/exe/rbdock.cxx#4 $)

>  <Rbt.Library>
libRbt.so (2013.1, Build901 2013/11/27)

>  <Rbt.Parameter_File>
/export/apps/rDock/src/rDock_2013.1_src/data/scripts/dock_solv.prm

>  <Rbt.Receptor>
prm/pocket_docking_2.prm

>  <SCORE>
-11.1235

>  <SCORE.INTER>
-9.4199

>  <SCORE.INTER.CONST>
1

>  <SCORE.INTER.POLAR>
-1.03923

>  <SCORE.INTER.ROT>
3

>  <SCORE.INTER.SOLV>
17.5208

>  <SCORE.INTER.VDW>
-14.2561

>  <SCORE.INTER.norm>
-0.588744

>  <SCORE.INTRA>
-1.70364

>  <SCORE.INTRA.DIHEDRAL>
-2.11255

>  <SCORE.INTRA.DIHEDRAL.0>
2.1318

>  <SCORE.INTRA.POLAR>
0

>  <SCORE.INTRA.POLAR.0>
0

>  <SCORE.INTRA.REPUL>
0

>  <SCORE.INTRA.REPUL.0>
0

>  <SCORE.INTRA.SOLV>
-0.817812

>  <SCORE.INTRA.SOLV.lig_0>
-58.6125

>  <SCORE.INTRA.VDW>
-0.238457

>  <SCORE.INTRA.VDW.0>
-0.432734

>  <SCORE.INTRA.norm>
-0.106477

>  <SCORE.RESTR>
0

>  <SCORE.RESTR.CAVITY>
0

>  <SCORE.RESTR.norm>
0

>  <SCORE.SYSTEM>
0

>  <SCORE.SYSTEM.CONST>
0

>  <SCORE.SYSTEM.DIHEDRAL>
0

>  <SCORE.SYSTEM.SOLV>
0

>  <SCORE.SYSTEM.norm>
0

>  <SCORE.heavy>
16

>  <SCORE.norm>
-0.695221

>  <RMSD>
0.990

$$$$
ligand
 OpenBabel11021811463D
libRbt.so/2013.1/901 2013/11/27
 16 16  0  0  0  0  0  0  0  0999 V2000
   51.6597   11.6707   15.5543 P   0  0  2  0  0  0  0  0  0  0  0  0
   51.5603   12.9225   14.7640 O   0  0  0  0  0  0  0  0  0  0  0  0
   52.6780   11.8892   16.7808 O   0  5  0  0  0  0  0  0  0  0  0  0
   52.2278   10.4959   14.6074 O   0  0  0  0  0  0  0  0  0  0  0  0
   46.2525   10.2843   17.0835 C   0  0  2  0  0  0  0  0  0  0  0  0
   45.4789    9.5366   16.1379 O   0  0  0  0  0  0  0  0  0  0  0  0
   45.7589   11.7524   17.1561 C   0  0  2  0  0  0  0  0  0  0  0  0
   44.3340   11.7813   17.5374 N   0  0  0  0  0  0  0  0  0  0  0  0
   45.9469   12.4015   15.7745 C   0  0  1  0  0  0  0  0  0  0  0  0
   45.5177   13.7653   15.8087 O   0  0  0  0  0  0  0  0  0  0  0  0
   47.4334   12.3433   15.4268 C   0  0  2  0  0  0  0  0  0  0  0  0
   47.6294   12.9371   14.1499 O   0  0  0  0  0  0  0  0  0  0  0  0
   47.8813   10.8565   15.3979 C   0  0  2  0  0  0  0  0  0  0  0  0
   47.6616   10.2350   16.7013 O   0  0  0  0  0  0  0  0  0  0  0  0
   49.3878   10.7461   15.0557 C   0  0  0  0  0  0  0  0  0  0  0  0
   50.1948   11.2757   16.1233 O   0  0  0  0  0  0  0  0  0  0  0  0
  1  2  1  6  0  0  0
  1  3  1  0  0  0  0
  1  4  2  0  0  0  0
  1 16  1  0  0  0  0
  5  6  1  6  0  0  0
  5  7  1  0  0  0  0
  5 14  1  0  0  0  0
  7  8  1  6  0  0  0
  7  9  1  0  0  0  0
  9 10  1  1  0  0  0
  9 11  1  0  0  0  0
 11 12  1  6  0  0  0
 11 13  1  0  0  0  0
 13 14  1  0  0  0  0
 13 15  1  1  0  0  0
 15 16  1  0  0  0  0
M  CHG  1   3  -1
M  END
>  <CHROM.1>
67.85038593,-158.67800584,74.73323086,48.54370172,11.56888518,15.83569499
0.06530324,0.14393582,-0.40846031

>  <Name>
ligand

>  <RI>
0

>  <Rbt.Current_Directory>
/home/itssahil/PROJECTS/Mol_Feturizer/New_Systems/rnas/3B4C

>  <Rbt.Executable>
rbdock ($Id: //depot/dev/client3/rdock/2013.1/src/exe/rbdock.cxx#4 $)

>  <Rbt.Library>
libRbt.so (2013.1, Build901 2013/11/27)

>  <Rbt.Parameter_File>
/export/apps/rDock/src/rDock_2013.1_src/data/scripts/dock_solv.prm

>  <Rbt.Receptor>
prm/pocket_docking_5.prm

>  <SCORE>
-10.5977

>  <SCORE.INTER>
-10.2108

>  <SCORE.INTER.CONST>
1

>  <SCORE.INTER.POLAR>
-1.29904

>  <SCORE.INTER.ROT>
3

>  <SCORE.INTER.SOLV>
19.7302

>  <SCORE.INTER.VDW>
-14.6538

>  <SCORE.INTER.norm>
-0.638175

>  <SCORE.INTRA>
-0.386884

>  <SCORE.INTRA.DIHEDRAL>
0.456523

>  <SCORE.INTRA.DIHEDRAL.0>
2.1318

>  <SCORE.INTRA.POLAR>
0

>  <SCORE.INTRA.POLAR.0>
0

>  <SCORE.INTRA.REPUL>
0

>  <SCORE.INTRA.REPUL.0>
0

>  <SCORE.INTRA.SOLV>
-0.612138

>  <SCORE.INTRA.SOLV.lig_0>
-58.6125

>  <SCORE.INTRA.VDW>
-0.309076

>  <SCORE.INTRA.VDW.0>
-0.432734

>  <SCORE.INTRA.norm>
-0.0241803

>  <SCORE.RESTR>
0

>  <SCORE.RESTR.CAVITY>
0

>  <SCORE.RESTR.norm>
0

>  <SCORE.SYSTEM>
0

>  <SCORE.SYSTEM.CONST>
0

>  <SCORE.SYSTEM.DIHEDRAL>
0

>  <SCORE.SYSTEM.SOLV>
0

>  <SCORE.SYSTEM.norm>
0

>  <SCORE.heavy>
16

>  <SCORE.norm>
-0.662356

>  <RMSD>
0.994

$$$$
ligand
 OpenBabel11021811463D
libRbt.so/2013.1/901 2013/11/27
 16 16  0  0  0  0  0  0  0  0999 V2000
   51.9468   11.7077   15.0631 P   0  0  2  0  0  0  0  0  0  0  0  0
   51.9142   11.3891   13.6144 O   0  0  0  0  0  0  0  0  0  0  0  0
   52.7086   13.1068   15.2886 O   0  5  0  0  0  0  0  0  0  0  0  0
   52.7510   10.5448   15.8382 O   0  0  0  0  0  0  0  0  0  0  0  0
   46.7392   10.9478   17.6348 C   0  0  2  0  0  0  0  0  0  0  0  0
   46.0488    9.7402   17.2928 O   0  0  0  0  0  0  0  0  0  0  0  0
   46.0615   12.1733   16.9695 C   0  0  2  0  0  0  0  0  0  0  0  0
   44.6533   12.2600   17.4010 N   0  0  0  0  0  0  0  0  0  0  0  0
   46.1342   12.0047   15.4425 C   0  0  1  0  0  0  0  0  0  0  0  0
   45.5330   13.1285   14.7937 O   0  0  0  0  0  0  0  0  0  0  0  0
   47.6079   11.9173   15.0495 C   0  0  2  0  0  0  0  0  0  0  0  0
   47.6980   11.7585   13.6394 O   0  0  0  0  0  0  0  0  0  0  0  0
   48.2438   10.6946   15.7655 C   0  0  2  0  0  0  0  0  0  0  0  0
   48.1343   10.8419   17.2146 O   0  0  0  0  0  0  0  0  0  0  0  0
   49.7442   10.5682   15.4028 C   0  0  0  0  0  0  0  0  0  0  0  0
   50.4307   11.8135   15.6251 O   0  0  0  0  0  0  0  0  0  0  0  0
  1  2  1  6  0  0  0
  1  3  1  0  0  0  0
  1  4  2  0  0  0  0
  1 16  1  0  0  0  0
  5  6  1  6  0  0  0
  5  7  1  0  0  0  0
  5 14  1  0  0  0  0
  7  8  1  1  0  0  0
  7  9  1  0  0  0  0
  9 10  1  6  0  0  0
  9 11  1  0  0  0  0
 11 12  1  6  0  0  0
 11 13  1  0  0  0  0
 13 14  1  0  0  0  0
 13 15  1  1  0  0  0
 15 16  1  0  0  0  0
M  CHG  1   3  -1
M  END
>  <CHROM.1>
51.86295019,-172.86656945,58.91340577,48.83881098,11.54870819,15.67614610
0.18972156,0.13326996,-0.97695921

>  <Name>
ligand

>  <RI>
0

>  <Rbt.Current_Directory>
/home/itssahil/PROJECTS/Mol_Feturizer/New_Systems/rnas/3B4C

>  <Rbt.Executable>
rbdock ($Id: //depot/dev/client3/rdock/2013.1/src/exe/rbdock.cxx#4 $)

>  <Rbt.Library>
libRbt.so (2013.1, Build901 2013/11/27)

>  <Rbt.Parameter_File>
/export/apps/rDock/src/rDock_2013.1_src/data/scripts/dock_solv.prm

>  <Rbt.Receptor>
prm/pocket_docking_4.prm

>  <SCORE>
-11.3758

>  <SCORE.INTER>
-9.91762

>  <SCORE.INTER.CONST>
1

>  <SCORE.INTER.POLAR>
-1.29862

>  <SCORE.INTER.ROT>
3

>  <SCORE.INTER.SOLV>
18.828

>  <SCORE.INTER.VDW>
-14.159

>  <SCORE.INTER.norm>
-0.619852

>  <SCORE.INTRA>
-1.45817

>  <SCORE.INTRA.DIHEDRAL>
-1.64627

>  <SCORE.INTRA.DIHEDRAL.0>
2.1318

>  <SCORE.INTRA.POLAR>
0

>  <SCORE.INTRA.POLAR.0>
0

>  <SCORE.INTRA.REPUL>
0

>  <SCORE.INTRA.REPUL.0>
0

>  <SCORE.INTRA.SOLV>
-0.820247

>  <SCORE.INTRA.SOLV.lig_0>
-58.6125

>  <SCORE.INTRA.VDW>
-0.22491

>  <SCORE.INTRA.VDW.0>
-0.432734

>  <SCORE.INTRA.norm>
-0.0911356

>  <SCORE.RESTR>
0

>  <SCORE.RESTR.CAVITY>
0

>  <SCORE.RESTR.norm>
0

>  <SCORE.SYSTEM>
0

>  <SCORE.SYSTEM.CONST>
0

>  <SCORE.SYSTEM.DIHEDRAL>
0

>  <SCORE.SYSTEM.SOLV>
0

>  <SCORE.SYSTEM.norm>
0

>  <SCORE.heavy>
16

>  <SCORE.norm>
-0.710987

>  <RMSD>
0.998

$$$$
ligand
 OpenBabel11021811463D
libRbt.so/2013.1/901 2013/11/27
 16 16  0  0  0  0  0  0  0  0999 V2000
   52.0271   11.6983   15.1642 P   0  0  2  0  0  0  0  0  0  0  0  0
   52.0166   11.4096   13.7089 O   0  0  0  0  0  0  0  0  0  0  0  0
   52.7637   13.1043   15.4276 O   0  5  0  0  0  0  0  0  0  0  0  0
   52.8406   10.5323   15.9247 O   0  0  0  0  0  0  0  0  0  0  0  0
   46.8497   10.7676   17.7520 C   0  0  2  0  0  0  0  0  0  0  0  0
   46.1912    9.5463   17.3962 O   0  0  0  0  0  0  0  0  0  0  0  0
   46.1374   11.9828   17.1040 C   0  0  2  0  0  0  0  0  0  0  0  0
   44.7285   12.0258   17.5400 N   0  0  0  0  0  0  0  0  0  0  0  0
   46.2105   11.8356   15.5748 C   0  0  1  0  0  0  0  0  0  0  0  0
   45.5774   12.9509   14.9420 O   0  0  0  0  0  0  0  0  0  0  0  0
   47.6849   11.7931   15.1773 C   0  0  2  0  0  0  0  0  0  0  0  0
   47.7754   11.6548   13.7650 O   0  0  0  0  0  0  0  0  0  0  0  0
   48.3555   10.5790   15.8761 C   0  0  2  0  0  0  0  0  0  0  0  0
   48.2460   10.7049   17.3272 O   0  0  0  0  0  0  0  0  0  0  0  0
   49.8578   10.4979   15.5083 C   0  0  0  0  0  0  0  0  0  0  0  0
   50.5030   11.7685   15.7099 O   0  0  0  0  0  0  0  0  0  0  0  0
  1  2  1  6  0  0  0
  1  3  1  0  0  0  0
  1  4  2  0  0  0  0
  1 16  1  0  0  0  0
  5  6  1  6  0  0  0
  5  7  1  0  0  0  0
  5 14  1  0  0  0  0
  7  8  1  1  0  0  0
  7  9  1  0  0  0  0
  9 10  1  6  0  0  0
  9 11  1  0  0  0  0
 11 12  1  6  0  0  0
 11 13  1  0  0  0  0
 13 14  1  0  0  0  0
 13 15  1  1  0  0  0
 15 16  1  0  0  0  0
M  CHG  1   3  -1
M  END
>  <CHROM.1>
50.27782133,-173.77380599,61.48759502,48.92660715,11.44899079,15.79108848
0.20888888,0.11416557,-0.96574878

>  <Name>
ligand

>  <RI>
0

>  <Rbt.Current_Directory>
/home/itssahil/PROJECTS/Mol_Feturizer/New_Systems/rnas/3B4C

>  <Rbt.Executable>
rbdock ($Id: //depot/dev/client3/rdock/2013.1/src/exe/rbdock.cxx#4 $)

>  <Rbt.Library>
libRbt.so (2013.1, Build901 2013/11/27)

>  <Rbt.Parameter_File>
/export/apps/rDock/src/rDock_2013.1_src/data/scripts/dock_solv.prm

>  <Rbt.Receptor>
prm/pocket_docking_2.prm

>  <SCORE>
-11.3886

>  <SCORE.INTER>
-9.97089

>  <SCORE.INTER.CONST>
1

>  <SCORE.INTER.POLAR>
-1.29438

>  <SCORE.INTER.ROT>
3

>  <SCORE.INTER.SOLV>
19.9815

>  <SCORE.INTER.VDW>
-14.5932

>  <SCORE.INTER.norm>
-0.62318

>  <SCORE.INTRA>
-1.41768

>  <SCORE.INTRA.DIHEDRAL>
-1.60425

>  <SCORE.INTRA.DIHEDRAL.0>
2.1318

>  <SCORE.INTRA.POLAR>
0

>  <SCORE.INTRA.POLAR.0>
0

>  <SCORE.INTRA.REPUL>
0

>  <SCORE.INTRA.REPUL.0>
0

>  <SCORE.INTRA.SOLV>
-0.790867

>  <SCORE.INTRA.SOLV.lig_0>
-58.6125

>  <SCORE.INTRA.VDW>
-0.220122

>  <SCORE.INTRA.VDW.0>
-0.432734

>  <SCORE.INTRA.norm>
-0.088605

>  <SCORE.RESTR>
0

>  <SCORE.RESTR.CAVITY>
0

>  <SCORE.RESTR.norm>
0

>  <SCORE.SYSTEM>
0

>  <SCORE.SYSTEM.CONST>
0

>  <SCORE.SYSTEM.DIHEDRAL>
0

>  <SCORE.SYSTEM.SOLV>
0

>  <SCORE.SYSTEM.norm>
0

>  <SCORE.heavy>
16

>  <SCORE.norm>
-0.711785

>  <RMSD>
0.999

$$$$
ligand
 OpenBabel11021811463D
libRbt.so/2013.1/901 2013/11/27
 16 16  0  0  0  0  0  0  0  0999 V2000
   51.9643   11.6749   15.1957 P   0  0  2  0  0  0  0  0  0  0  0  0
   52.0099   11.4143   13.7358 O   0  0  0  0  0  0  0  0  0  0  0  0
   52.7363   13.0487   15.5206 O   0  5  0  0  0  0  0  0  0  0  0  0
   52.7016   10.4667   15.9678 O   0  0  0  0  0  0  0  0  0  0  0  0
   46.7796   10.9282   17.6737 C   0  0  2  0  0  0  0  0  0  0  0  0
   46.1126    9.6938   17.3853 O   0  0  0  0  0  0  0  0  0  0  0  0
   46.0490   12.1167   16.9972 C   0  0  2  0  0  0  0  0  0  0  0  0
   44.6525   12.1776   17.4694 N   0  0  0  0  0  0  0  0  0  0  0  0
   46.0804   11.9083   15.4737 C   0  0  1  0  0  0  0  0  0  0  0  0
   45.4294   12.9975   14.8142 O   0  0  0  0  0  0  0  0  0  0  0  0
   47.5435   11.8494   15.0381 C   0  0  2  0  0  0  0  0  0  0  0  0
   47.5955   11.6544   13.6306 O   0  0  0  0  0  0  0  0  0  0  0  0
   48.2338   10.6640   15.7665 C   0  0  2  0  0  0  0  0  0  0  0  0
   48.1639   10.8480   17.2138 O   0  0  0  0  0  0  0  0  0  0  0  0
   49.7255   10.5677   15.3613 C   0  0  0  0  0  0  0  0  0  0  0  0
   50.4203   11.7888   15.6740 O   0  0  0  0  0  0  0  0  0  0  0  0
  1  2  1  6  0  0  0
  1  3  1  0  0  0  0
  1  4  2  0  0  0  0
  1 16  1  0  0  0  0
  5  6  1  6  0  0  0
  5  7  1  0  0  0  0
  5 14  1  0  0  0  0
  7  8  1  1  0  0  0
  7  9  1  0  0  0  0
  9 10  1  6  0  0  0
  9 11  1  0  0  0  0
 11 12  1  6  0  0  0
 11 13  1  0  0  0  0
 13 14  1  0  0  0  0
 13 15  1  6  0  0  0
 15 16  1  0  0  0  0
M  CHG  1   3  -1
M  END
>  <CHROM.1>
58.53917579,-178.18528516,58.84486148,48.83156955,11.49996043,15.73876332
-0.17934364,-0.10754483,2.10512418

>  <Name>
ligand

>  <RI>
0

>  <Rbt.Current_Directory>
/home/itssahil/PROJECTS/Mol_Feturizer/New_Systems/rnas/3B4C

>  <Rbt.Executable>
rbdock ($Id: //depot/dev/client3/rdock/2013.1/src/exe/rbdock.cxx#4 $)

>  <Rbt.Library>
libRbt.so (2013.1, Build901 2013/11/27)

>  <Rbt.Parameter_File>
/export/apps/rDock/src/rDock_2013.1_src/data/scripts/dock_solv.prm

>  <Rbt.Receptor>
prm/pocket_docking_4.prm

>  <SCORE>
-11.6355

>  <SCORE.INTER>
-9.91101

>  <SCORE.INTER.CONST>
1

>  <SCORE.INTER.POLAR>
-1.29874

>  <SCORE.INTER.ROT>
3

>  <SCORE.INTER.SOLV>
19.7801

>  <SCORE.INTER.VDW>
-14.4716

>  <SCORE.INTER.norm>
-0.619438

>  <SCORE.INTRA>
-1.72447

>  <SCORE.INTRA.DIHEDRAL>
-2.10394

>  <SCORE.INTRA.DIHEDRAL.0>
2.1318

>  <SCORE.INTRA.POLAR>
0

>  <SCORE.INTRA.POLAR.0>
0

>  <SCORE.INTRA.REPUL>
0

>  <SCORE.INTRA.REPUL.0>
0

>  <SCORE.INTRA.SOLV>
-0.834216

>  <SCORE.INTRA.SOLV.lig_0>
-58.6125

>  <SCORE.INTRA.VDW>
-0.255385

>  <SCORE.INTRA.VDW.0>
-0.432734

>  <SCORE.INTRA.norm>
-0.107779

>  <SCORE.RESTR>
0

>  <SCORE.RESTR.CAVITY>
0

>  <SCORE.RESTR.norm>
0

>  <SCORE.SYSTEM>
0

>  <SCORE.SYSTEM.CONST>
0

>  <SCORE.SYSTEM.DIHEDRAL>
0

>  <SCORE.SYSTEM.SOLV>
0

>  <SCORE.SYSTEM.norm>
0

>  <SCORE.heavy>
16

>  <SCORE.norm>
-0.727217

>  <RMSD>
1.000

$$$$
ligand
 OpenBabel11021811463D
libRbt.so/2013.1/901 2013/11/27
 16 16  0  0  0  0  0  0  0  0999 V2000
   52.1142   11.7119   15.3273 P   0  0  2  0  0  0  0  0  0  0  0  0
   52.2098   11.5339   13.8574 O   0  0  0  0  0  0  0  0  0  0  0  0
   52.8846   13.0577   15.7566 O   0  5  0  0  0  0  0  0  0  0  0  0
   52.8144   10.4550   16.0548 O   0  0  0  0  0  0  0  0  0  0  0  0
   46.8541   10.7303   17.6243 C   0  0  2  0  0  0  0  0  0  0  0  0
   46.1687    9.5660   17.1485 O   0  0  0  0  0  0  0  0  0  0  0  0
   46.1753   12.0199   17.0949 C   0  0  2  0  0  0  0  0  0  0  0  0
   44.7652   12.0549   17.5274 N   0  0  0  0  0  0  0  0  0  0  0  0
   46.2546   12.0206   15.5590 C   0  0  1  0  0  0  0  0  0  0  0  0
   45.6526   13.2074   15.0353 O   0  0  0  0  0  0  0  0  0  0  0  0
   47.7302   11.9807   15.1652 C   0  0  2  0  0  0  0  0  0  0  0  0
   47.8263   11.9783   13.7465 O   0  0  0  0  0  0  0  0  0  0  0  0
   48.3669   10.6883   15.7450 C   0  0  2  0  0  0  0  0  0  0  0  0
   48.2511   10.6750   17.2010 O   0  0  0  0  0  0  0  0  0  0  0  0
   49.8690   10.6064   15.3771 C   0  0  0  0  0  0  0  0  0  0  0  0
   50.5551   11.8134   15.7568 O   0  0  0  0  0  0  0  0  0  0  0  0
  1  2  1  6  0  0  0
  1  3  1  0  0  0  0
  1  4  2  0  0  0  0
  1 16  1  0  0  0  0
  5  6  1  6  0  0  0
  5  7  1  0  0  0  0
  5 14  1  0  0  0  0
  7  8  1  6  0  0  0
  7  9  1  0  0  0  0
  9 10  1  1  0  0  0
  9 11  1  0  0  0  0
 11 12  1  6  0  0  0
 11 13  1  0  0  0  0
 13 14  1  0  0  0  0
 13 15  1  1  0  0  0
 15 16  1  0  0  0  0
M  CHG  1   3  -1
M  END
>  <CHROM.1>
52.75451618,-178.64074231,60.09118982,48.97582955,11.52223156,15.81039836
-0.15825462,-0.11694190,2.25885986

>  <Name>
ligand

>  <RI>
0

>  <Rbt.Current_Directory>
/home/itssahil/PROJECTS/Mol_Feturizer/New_Systems/rnas/3B4C

>  <Rbt.Executable>
rbdock ($Id: //depot/dev/client3/rdock/2013.1/src/exe/rbdock.cxx#4 $)

>  <Rbt.Library>
libRbt.so (2013.1, Build901 2013/11/27)

>  <Rbt.Parameter_File>
/export/apps/rDock/src/rDock_2013.1_src/data/scripts/dock_solv.prm

>  <Rbt.Receptor>
prm/pocket_docking_3.prm

>  <SCORE>
-11.524

>  <SCORE.INTER>
-9.92501

>  <SCORE.INTER.CONST>
1

>  <SCORE.INTER.POLAR>
-1.29904

>  <SCORE.INTER.ROT>
3

>  <SCORE.INTER.SOLV>
20.2111

>  <SCORE.INTER.VDW>
-14.6236

>  <SCORE.INTER.norm>
-0.620313

>  <SCORE.INTRA>
-1.59899

>  <SCORE.INTRA.DIHEDRAL>
-1.93492

>  <SCORE.INTRA.DIHEDRAL.0>
2.1318

>  <SCORE.INTRA.POLAR>
0

>  <SCORE.INTRA.POLAR.0>
0

>  <SCORE.INTRA.REPUL>
0

>  <SCORE.INTRA.REPUL.0>
0

>  <SCORE.INTRA.SOLV>
-0.818468

>  <SCORE.INTRA.SOLV.lig_0>
-58.6125

>  <SCORE.INTRA.VDW>
-0.222294

>  <SCORE.INTRA.VDW.0>
-0.432734

>  <SCORE.INTRA.norm>
-0.0999369

>  <SCORE.RESTR>
0

>  <SCORE.RESTR.CAVITY>
0

>  <SCORE.RESTR.norm>
0

>  <SCORE.SYSTEM>
0

>  <SCORE.SYSTEM.CONST>
0

>  <SCORE.SYSTEM.DIHEDRAL>
0

>  <SCORE.SYSTEM.SOLV>
0

>  <SCORE.SYSTEM.norm>
0

>  <SCORE.heavy>
16

>  <SCORE.norm>
-0.72025

>  <RMSD>
1.002

$$$$
ligand
 OpenBabel11021811463D
libRbt.so/2013.1/901 2013/11/27
 16 16  0  0  0  0  0  0  0  0999 V2000
   51.7387   11.4803   15.4204 P   0  0  2  0  0  0  0  0  0  0  0  0
   51.9613   12.8397   15.9717 O   0  0  0  0  0  0  0  0  0  0  0  0
   52.8203   10.4645   16.0426 O   0  5  0  0  0  0  0  0  0  0  0  0
   51.9259   11.5259   13.8197 O   0  0  0  0  0  0  0  0  0  0  0  0
   46.4821   11.1649   17.5246 C   0  0  2  0  0  0  0  0  0  0  0  0
   46.1424    9.8243   17.1515 O   0  0  0  0  0  0  0  0  0  0  0  0
   45.4287   12.1670   16.9859 C   0  0  2  0  0  0  0  0  0  0  0  0
   44.0952   11.8208   17.5140 N   0  0  0  0  0  0  0  0  0  0  0  0
   45.4217   12.0923   15.4497 C   0  0  1  0  0  0  0  0  0  0  0  0
   44.4718   13.0186   14.9160 O   0  0  0  0  0  0  0  0  0  0  0  0
   46.8210   12.4551   14.9558 C   0  0  2  0  0  0  0  0  0  0  0  0
   46.8373   12.3899   13.5355 O   0  0  0  0  0  0  0  0  0  0  0  0
   47.8379   11.4415   15.5479 C   0  0  2  0  0  0  0  0  0  0  0  0
   47.8095   11.4885   17.0074 O   0  0  0  0  0  0  0  0  0  0  0  0
   49.2763   11.7736   15.0797 C   0  0  0  0  0  0  0  0  0  0  0  0
   50.2427   10.9850   15.7978 O   0  0  0  0  0  0  0  0  0  0  0  0
  1  2  1  1  0  0  0
  1  3  1  0  0  0  0
  1  4  2  0  0  0  0
  1 16  1  0  0  0  0
  5  6  1  6  0  0  0
  5  7  1  0  0  0  0
  5 14  1  0  0  0  0
  7  8  1  1  0  0  0
  7  9  1  0  0  0  0
  9 10  1  6  0  0  0
  9 11  1  0  0  0  0
 11 12  1  6  0  0  0
 11 13  1  0  0  0  0
 13 14  1  0  0  0  0
 13 15  1  6  0  0  0
 15 16  1  0  0  0  0
M  CHG  1   3  -1
M  END
>  <CHROM.1>
170.28485739,-173.09821232,68.36141410,48.42096549,11.65869632,15.74716415
-0.08247719,-0.12181344,2.06228945

>  <Name>
ligand

>  <RI>
0

>  <Rbt.Current_Directory>
/home/itssahil/PROJECTS/Mol_Feturizer/New_Systems/rnas/3B4C

>  <Rbt.Executable>
rbdock ($Id: //depot/dev/client3/rdock/2013.1/src/exe/rbdock.cxx#4 $)

>  <Rbt.Library>
libRbt.so (2013.1, Build901 2013/11/27)

>  <Rbt.Parameter_File>
/export/apps/rDock/src/rDock_2013.1_src/data/scripts/dock_solv.prm

>  <Rbt.Receptor>
prm/pocket_docking_3.prm

>  <SCORE>
-12.0937

>  <SCORE.INTER>
-10.8046

>  <SCORE.INTER.CONST>
1

>  <SCORE.INTER.POLAR>
-1.29778

>  <SCORE.INTER.ROT>
3

>  <SCORE.INTER.SOLV>
18.8791

>  <SCORE.INTER.VDW>
-14.7702

>  <SCORE.INTER.norm>
-0.675289

>  <SCORE.INTRA>
-1.28913

>  <SCORE.INTRA.DIHEDRAL>
-1.45033

>  <SCORE.INTRA.DIHEDRAL.0>
2.1318

>  <SCORE.INTRA.POLAR>
0

>  <SCORE.INTRA.POLAR.0>
0

>  <SCORE.INTRA.REPUL>
0

>  <SCORE.INTRA.REPUL.0>
0

>  <SCORE.INTRA.SOLV>
-0.897394

>  <SCORE.INTRA.SOLV.lig_0>
-58.6125

>  <SCORE.INTRA.VDW>
-0.11527

>  <SCORE.INTRA.VDW.0>
-0.432734

>  <SCORE.INTRA.norm>
-0.0805707

>  <SCORE.RESTR>
0

>  <SCORE.RESTR.CAVITY>
0

>  <SCORE.RESTR.norm>
0

>  <SCORE.SYSTEM>
0

>  <SCORE.SYSTEM.CONST>
0

>  <SCORE.SYSTEM.DIHEDRAL>
0

>  <SCORE.SYSTEM.SOLV>
0

>  <SCORE.SYSTEM.norm>
0

>  <SCORE.heavy>
16

>  <SCORE.norm>
-0.755859

>  <RMSD>
1.006

$$$$
ligand
 OpenBabel11021811463D
libRbt.so/2013.1/901 2013/11/27
 16 16  0  0  0  0  0  0  0  0999 V2000
   51.9277   11.6869   15.1448 P   0  0  2  0  0  0  0  0  0  0  0  0
   51.9872   11.4342   13.6840 O   0  0  0  0  0  0  0  0  0  0  0  0
   52.6869   13.0645   15.4831 O   0  5  0  0  0  0  0  0  0  0  0  0
   52.6676   10.4801   15.9167 O   0  0  0  0  0  0  0  0  0  0  0  0
   46.8048   10.9227   17.7143 C   0  0  2  0  0  0  0  0  0  0  0  0
   46.1766    9.6517   17.5096 O   0  0  0  0  0  0  0  0  0  0  0  0
   46.0199   12.0450   16.9874 C   0  0  2  0  0  0  0  0  0  0  0  0
   44.6312   12.0847   17.4843 N   0  0  0  0  0  0  0  0  0  0  0  0
   46.0301   11.7514   15.4777 C   0  0  1  0  0  0  0  0  0  0  0  0
   45.3287   12.7784   14.7716 O   0  0  0  0  0  0  0  0  0  0  0  0
   47.4859   11.7181   15.0158 C   0  0  2  0  0  0  0  0  0  0  0  0
   47.5184   11.4453   13.6207 O   0  0  0  0  0  0  0  0  0  0  0  0
   48.2314   10.6005   15.7952 C   0  0  2  0  0  0  0  0  0  0  0  0
   48.1821   10.8640   17.2310 O   0  0  0  0  0  0  0  0  0  0  0  0
   49.7177   10.5325   15.3652 C   0  0  0  0  0  0  0  0  0  0  0  0
   50.3791   11.7870   15.6110 O   0  0  0  0  0  0  0  0  0  0  0  0
  1  2  1  6  0  0  0
  1  3  1  0  0  0  0
  1  4  2  0  0  0  0
  1 16  1  0  0  0  0
  5  6  1  6  0  0  0
  5  7  1  0  0  0  0
  5 14  1  0  0  0  0
  7  8  1  1  0  0  0
  7  9  1  0  0  0  0
  9 10  1  6  0  0  0
  9 11  1  0  0  0  0
 11 12  1  6  0  0  0
 11 13  1  0  0  0  0
 13 14  1  0  0  0  0
 13 15  1  6  0  0  0
 15 16  1  0  0  0  0
M  CHG  1   3  -1
M  END
>  <CHROM.1>
59.31348181,-179.71725600,62.52906668,48.80411251,11.44633191,15.72840788
-0.20300793,-0.08367233,2.03881450

>  <Name>
ligand

>  <RI>
0

>  <Rbt.Current_Directory>
/home/itssahil/PROJECTS/Mol_Feturizer/New_Systems/rnas/3B4C

>  <Rbt.Executable>
rbdock ($Id: //depot/dev/client3/rdock/2013.1/src/exe/rbdock.cxx#4 $)

>  <Rbt.Library>
libRbt.so (2013.1, Build901 2013/11/27)

>  <Rbt.Parameter_File>
/export/apps/rDock/src/rDock_2013.1_src/data/scripts/dock_solv.prm

>  <Rbt.Receptor>
prm/pocket_docking_4.prm

>  <SCORE>
-11.5674

>  <SCORE.INTER>
-9.83857

>  <SCORE.INTER.CONST>
1

>  <SCORE.INTER.POLAR>
-1.29904

>  <SCORE.INTER.ROT>
3

>  <SCORE.INTER.SOLV>
20.0061

>  <SCORE.INTER.VDW>
-14.4976

>  <SCORE.INTER.norm>
-0.61491

>  <SCORE.INTRA>
-1.72884

>  <SCORE.INTRA.DIHEDRAL>
-2.11615

>  <SCORE.INTRA.DIHEDRAL.0>
2.1318

>  <SCORE.INTRA.POLAR>
0

>  <SCORE.INTRA.POLAR.0>
0

>  <SCORE.INTRA.REPUL>
0

>  <SCORE.INTRA.REPUL.0>
0

>  <SCORE.INTRA.SOLV>
-0.793347

>  <SCORE.INTRA.SOLV.lig_0>
-58.6125

>  <SCORE.INTRA.VDW>
-0.27409

>  <SCORE.INTRA.VDW.0>
-0.432734

>  <SCORE.INTRA.norm>
-0.108052

>  <SCORE.RESTR>
0

>  <SCORE.RESTR.CAVITY>
0

>  <SCORE.RESTR.norm>
0

>  <SCORE.SYSTEM>
0

>  <SCORE.SYSTEM.CONST>
0

>  <SCORE.SYSTEM.DIHEDRAL>
0

>  <SCORE.SYSTEM.SOLV>
0

>  <SCORE.SYSTEM.norm>
0

>  <SCORE.heavy>
16

>  <SCORE.norm>
-0.722963

>  <RMSD>
1.007

$$$$
ligand
 OpenBabel11021811463D
libRbt.so/2013.1/901 2013/11/27
 16 16  0  0  0  0  0  0  0  0999 V2000
   51.9258   11.8278   15.0264 P   0  0  2  0  0  0  0  0  0  0  0  0
   51.9125   11.6536   13.5530 O   0  0  0  0  0  0  0  0  0  0  0  0
   52.6901   13.1938   15.3990 O   0  5  0  0  0  0  0  0  0  0  0  0
   52.7140   10.5899   15.6942 O   0  0  0  0  0  0  0  0  0  0  0  0
   46.8144   10.8844   17.6078 C   0  0  2  0  0  0  0  0  0  0  0  0
   46.1515    9.6609   17.2682 O   0  0  0  0  0  0  0  0  0  0  0  0
   46.0595   12.1002   17.0113 C   0  0  2  0  0  0  0  0  0  0  0  0
   44.6732   12.1229   17.5156 N   0  0  0  0  0  0  0  0  0  0  0  0
   46.0596   11.9734   15.4785 C   0  0  1  0  0  0  0  0  0  0  0  0
   45.3855   13.0900   14.8920 O   0  0  0  0  0  0  0  0  0  0  0  0
   47.5133   11.9514   15.0094 C   0  0  2  0  0  0  0  0  0  0  0  0
   47.5364   11.8320   13.5927 O   0  0  0  0  0  0  0  0  0  0  0  0
   48.2290   10.7356   15.6587 C   0  0  2  0  0  0  0  0  0  0  0  0
   48.1890   10.8418   17.1149 O   0  0  0  0  0  0  0  0  0  0  0  0
   49.7123   10.6749   15.2174 C   0  0  0  0  0  0  0  0  0  0  0  0
   50.4023   11.8862   15.5752 O   0  0  0  0  0  0  0  0  0  0  0  0
  1  2  1  6  0  0  0
  1  3  1  0  0  0  0
  1  4  2  0  0  0  0
  1 16  1  0  0  0  0
  5  6  1  6  0  0  0
  5  7  1  0  0  0  0
  5 14  1  0  0  0  0
  7  8  1  1  0  0  0
  7  9  1  0  0  0  0
  9 10  1  6  0  0  0
  9 11  1  0  0  0  0
 11 12  1  6  0  0  0
 11 13  1  0  0  0  0
 13 14  1  0  0  0  0
 13 15  1  6  0  0  0
 15 16  1  0  0  0  0
M  CHG  1   3  -1
M  END
>  <CHROM.1>
58.30984569,-176.77607417,58.69159168,48.81477139,11.58395698,15.64892815
-0.20991534,-0.11370225,2.16010930

>  <Name>
ligand

>  <RI>
0

>  <Rbt.Current_Directory>
/home/itssahil/PROJECTS/Mol_Feturizer/New_Systems/rnas/3B4C

>  <Rbt.Executable>
rbdock ($Id: //depot/dev/client3/rdock/2013.1/src/exe/rbdock.cxx#4 $)

>  <Rbt.Library>
libRbt.so (2013.1, Build901 2013/11/27)

>  <Rbt.Parameter_File>
/export/apps/rDock/src/rDock_2013.1_src/data/scripts/dock_solv.prm

>  <Rbt.Receptor>
prm/pocket_docking_4.prm

>  <SCORE>
-11.6039

>  <SCORE.INTER>
-9.89412

>  <SCORE.INTER.CONST>
1

>  <SCORE.INTER.POLAR>
-1.29904

>  <SCORE.INTER.ROT>
3

>  <SCORE.INTER.SOLV>
18.8373

>  <SCORE.INTER.VDW>
-14.1451

>  <SCORE.INTER.norm>
-0.618383

>  <SCORE.INTRA>
-1.7098

>  <SCORE.INTRA.DIHEDRAL>
-2.0659

>  <SCORE.INTRA.DIHEDRAL.0>
2.1318

>  <SCORE.INTRA.POLAR>
0

>  <SCORE.INTRA.POLAR.0>
0

>  <SCORE.INTRA.REPUL>
0

>  <SCORE.INTRA.REPUL.0>
0

>  <SCORE.INTRA.SOLV>
-0.839568

>  <SCORE.INTRA.SOLV.lig_0>
-58.6125

>  <SCORE.INTRA.VDW>
-0.257062

>  <SCORE.INTRA.VDW.0>
-0.432734

>  <SCORE.INTRA.norm>
-0.106862

>  <SCORE.RESTR>
0

>  <SCORE.RESTR.CAVITY>
0

>  <SCORE.RESTR.norm>
0

>  <SCORE.SYSTEM>
0

>  <SCORE.SYSTEM.CONST>
0

>  <SCORE.SYSTEM.DIHEDRAL>
0

>  <SCORE.SYSTEM.SOLV>
0

>  <SCORE.SYSTEM.norm>
0

>  <SCORE.heavy>
16

>  <SCORE.norm>
-0.725245

>  <RMSD>
1.007

$$$$
ligand
 OpenBabel11021811463D
libRbt.so/2013.1/901 2013/11/27
 16 16  0  0  0  0  0  0  0  0999 V2000
   51.7721   11.3440   15.9881 P   0  0  2  0  0  0  0  0  0  0  0  0
   51.8437   12.8015   15.7202 O   0  0  0  0  0  0  0  0  0  0  0  0
   52.7122   10.9815   17.2426 O   0  5  0  0  0  0  0  0  0  0  0  0
   52.3013   10.5454   14.6914 O   0  0  0  0  0  0  0  0  0  0  0  0
   46.3914   11.1903   17.6369 C   0  0  2  0  0  0  0  0  0  0  0  0
   45.9913    9.8594   17.2901 O   0  0  0  0  0  0  0  0  0  0  0  0
   45.4368   12.2327   16.9996 C   0  0  2  0  0  0  0  0  0  0  0  0
   44.0551   11.9882   17.4557 N   0  0  0  0  0  0  0  0  0  0  0  0
   45.5168   12.0997   15.4695 C   0  0  1  0  0  0  0  0  0  0  0  0
   44.6605   13.0606   14.8461 O   0  0  0  0  0  0  0  0  0  0  0  0
   46.9632   12.3583   15.0509 C   0  0  2  0  0  0  0  0  0  0  0  0
   47.0601   12.2377   13.6374 O   0  0  0  0  0  0  0  0  0  0  0  0
   47.8774   11.3085   15.7395 C   0  0  2  0  0  0  0  0  0  0  0  0
   47.7649   11.4131   17.1921 O   0  0  0  0  0  0  0  0  0  0  0  0
   49.3592   11.5350   15.3502 C   0  0  0  0  0  0  0  0  0  0  0  0
   50.2397   10.9317   16.3158 O   0  0  0  0  0  0  0  0  0  0  0  0
  1  2  1  6  0  0  0
  1  3  1  0  0  0  0
  1  4  2  0  0  0  0
  1 16  1  0  0  0  0
  5  6  1  6  0  0  0
  5  7  1  0  0  0  0
  5 14  1  0  0  0  0
  7  8  1  1  0  0  0
  7  9  1  0  0  0  0
  9 10  1  6  0  0  0
  9 11  1  0  0  0  0
 11 12  1  6  0  0  0
 11 13  1  0  0  0  0
 13 14  1  0  0  0  0
 13 15  1  1  0  0  0
 15 16  1  0  0  0  0
M  CHG  1   3  -1
M  END
>  <CHROM.1>
158.81747135,-172.81534090,46.18358109,48.46049262,11.58641965,16.02200877
0.00326072,-0.10508739,2.01919563

>  <Name>
ligand

>  <RI>
0

>  <Rbt.Current_Directory>
/home/itssahil/PROJECTS/Mol_Feturizer/New_Systems/rnas/3B4C

>  <Rbt.Executable>
rbdock ($Id: //depot/dev/client3/rdock/2013.1/src/exe/rbdock.cxx#4 $)

>  <Rbt.Library>
libRbt.so (2013.1, Build901 2013/11/27)

>  <Rbt.Parameter_File>
/export/apps/rDock/src/rDock_2013.1_src/data/scripts/dock_solv.prm

>  <Rbt.Receptor>
prm/pocket_docking_4.prm

>  <SCORE>
-11.4382

>  <SCORE.INTER>
-10.9995

>  <SCORE.INTER.CONST>
1

>  <SCORE.INTER.POLAR>
-1.29904

>  <SCORE.INTER.ROT>
3

>  <SCORE.INTER.SOLV>
21.6017

>  <SCORE.INTER.VDW>
-15.8035

>  <SCORE.INTER.norm>
-0.687471

>  <SCORE.INTRA>
-0.438623

>  <SCORE.INTRA.DIHEDRAL>
-0.12377

>  <SCORE.INTRA.DIHEDRAL.0>
2.1318

>  <SCORE.INTRA.POLAR>
0

>  <SCORE.INTRA.POLAR.0>
0

>  <SCORE.INTRA.REPUL>
0

>  <SCORE.INTRA.REPUL.0>
0

>  <SCORE.INTRA.SOLV>
-1.0862

>  <SCORE.INTRA.SOLV.lig_0>
-58.6125

>  <SCORE.INTRA.VDW>
0.166364

>  <SCORE.INTRA.VDW.0>
-0.432734

>  <SCORE.INTRA.norm>
-0.0274139

>  <SCORE.RESTR>
0

>  <SCORE.RESTR.CAVITY>
0

>  <SCORE.RESTR.norm>
0

>  <SCORE.SYSTEM>
0

>  <SCORE.SYSTEM.CONST>
0

>  <SCORE.SYSTEM.DIHEDRAL>
0

>  <SCORE.SYSTEM.SOLV>
0

>  <SCORE.SYSTEM.norm>
0

>  <SCORE.heavy>
16

>  <SCORE.norm>
-0.714885

>  <RMSD>
1.007

$$$$
ligand
 OpenBabel11021811463D
libRbt.so/2013.1/901 2013/11/27
 16 16  0  0  0  0  0  0  0  0999 V2000
   51.9766   11.8172   15.0811 P   0  0  2  0  0  0  0  0  0  0  0  0
   51.9486   11.6327   13.6092 O   0  0  0  0  0  0  0  0  0  0  0  0
   52.7319   13.1929   15.4358 O   0  5  0  0  0  0  0  0  0  0  0  0
   52.7838   10.5914   15.7485 O   0  0  0  0  0  0  0  0  0  0  0  0
   46.8450   10.7706   17.7100 C   0  0  2  0  0  0  0  0  0  0  0  0
   46.1814    9.5644   17.3143 O   0  0  0  0  0  0  0  0  0  0  0  0
   46.1193   12.0111   17.1282 C   0  0  2  0  0  0  0  0  0  0  0  0
   44.7188   12.0327   17.5917 N   0  0  0  0  0  0  0  0  0  0  0  0
   46.1641   11.9300   15.5930 C   0  0  1  0  0  0  0  0  0  0  0  0
   45.5180   13.0703   15.0206 O   0  0  0  0  0  0  0  0  0  0  0  0
   47.6309   11.9075   15.1667 C   0  0  2  0  0  0  0  0  0  0  0  0
   47.6952   11.8302   13.7484 O   0  0  0  0  0  0  0  0  0  0  0  0
   48.3158   10.6658   15.8001 C   0  0  2  0  0  0  0  0  0  0  0  0
   48.2332   10.7289   17.2570 O   0  0  0  0  0  0  0  0  0  0  0  0
   49.8110   10.6034   15.4012 C   0  0  0  0  0  0  0  0  0  0  0  0
   50.4587   11.8651   15.6465 O   0  0  0  0  0  0  0  0  0  0  0  0
  1  2  1  6  0  0  0
  1  3  1  0  0  0  0
  1  4  2  0  0  0  0
  1 16  1  0  0  0  0
  5  6  1  6  0  0  0
  5  7  1  0  0  0  0
  5 14  1  0  0  0  0
  7  8  1  1  0  0  0
  7  9  1  0  0  0  0
  9 10  1  6  0  0  0
  9 11  1  0  0  0  0
 11 12  1  6  0  0  0
 11 13  1  0  0  0  0
 13 14  1  0  0  0  0
 13 15  1  1  0  0  0
 15 16  1  0  0  0  0
M  CHG  1   3  -1
M  END
>  <CHROM.1>
50.32897891,-174.24552143,63.36881052,48.88578720,11.53778716,15.74661046
0.22254857,0.12287102,-0.92588740

>  <Name>
ligand

>  <RI>
0

>  <Rbt.Current_Directory>
/home/itssahil/PROJECTS/Mol_Feturizer/New_Systems/rnas/3B4C

>  <Rbt.Executable>
rbdock ($Id: //depot/dev/client3/rdock/2013.1/src/exe/rbdock.cxx#4 $)

>  <Rbt.Library>
libRbt.so (2013.1, Build901 2013/11/27)

>  <Rbt.Parameter_File>
/export/apps/rDock/src/rDock_2013.1_src/data/scripts/dock_solv.prm

>  <Rbt.Receptor>
prm/pocket_docking_3.prm

>  <SCORE>
-11.3636

>  <SCORE.INTER>
-9.94142

>  <SCORE.INTER.CONST>
1

>  <SCORE.INTER.POLAR>
-1.29904

>  <SCORE.INTER.ROT>
3

>  <SCORE.INTER.SOLV>
19.5983

>  <SCORE.INTER.VDW>
-14.4303

>  <SCORE.INTER.norm>
-0.621339

>  <SCORE.INTRA>
-1.42216

>  <SCORE.INTRA.DIHEDRAL>
-1.61957

>  <SCORE.INTRA.DIHEDRAL.0>
2.1318

>  <SCORE.INTRA.POLAR>
0

>  <SCORE.INTRA.POLAR.0>
0

>  <SCORE.INTRA.REPUL>
0

>  <SCORE.INTRA.REPUL.0>
0

>  <SCORE.INTRA.SOLV>
-0.77603

>  <SCORE.INTRA.SOLV.lig_0>
-58.6125

>  <SCORE.INTRA.VDW>
-0.224355

>  <SCORE.INTRA.VDW.0>
-0.432734

>  <SCORE.INTRA.norm>
-0.0888848

>  <SCORE.RESTR>
0

>  <SCORE.RESTR.CAVITY>
0

>  <SCORE.RESTR.norm>
0

>  <SCORE.SYSTEM>
0

>  <SCORE.SYSTEM.CONST>
0

>  <SCORE.SYSTEM.DIHEDRAL>
0

>  <SCORE.SYSTEM.SOLV>
0

>  <SCORE.SYSTEM.norm>
0

>  <SCORE.heavy>
16

>  <SCORE.norm>
-0.710224

>  <RMSD>
1.010

$$$$
ligand
 OpenBabel11021811463D
libRbt.so/2013.1/901 2013/11/27
 16 16  0  0  0  0  0  0  0  0999 V2000
   51.7586   11.4548   15.5591 P   0  0  2  0  0  0  0  0  0  0  0  0
   51.9720   12.7804   16.1905 O   0  0  0  0  0  0  0  0  0  0  0  0
   52.8208   10.4008   16.1504 O   0  5  0  0  0  0  0  0  0  0  0  0
   51.9859   11.5883   13.9685 O   0  0  0  0  0  0  0  0  0  0  0  0
   46.4302   11.0122   17.4894 C   0  0  2  0  0  0  0  0  0  0  0  0
   46.1179    9.6944   17.0228 O   0  0  0  0  0  0  0  0  0  0  0  0
   45.3871   12.0372   16.9742 C   0  0  2  0  0  0  0  0  0  0  0  0
   44.0388   11.6488   17.4303 N   0  0  0  0  0  0  0  0  0  0  0  0
   45.4370   12.0568   15.4371 C   0  0  1  0  0  0  0  0  0  0  0  0
   44.4981   13.0068   14.9261 O   0  0  0  0  0  0  0  0  0  0  0  0
   46.8497   12.4603   15.0185 C   0  0  2  0  0  0  0  0  0  0  0  0
   46.9186   12.4824   13.5984 O   0  0  0  0  0  0  0  0  0  0  0  0
   47.8544   11.4202   15.5849 C   0  0  2  0  0  0  0  0  0  0  0  0
   47.7723   11.3772   17.0426 O   0  0  0  0  0  0  0  0  0  0  0  0
   49.3056   11.7916   15.1916 C   0  0  0  0  0  0  0  0  0  0  0  0
   50.2519   10.9465   15.8712 O   0  0  0  0  0  0  0  0  0  0  0  0
  1  2  1  1  0  0  0
  1  3  1  0  0  0  0
  1  4  2  0  0  0  0
  1 16  1  0  0  0  0
  5  6  1  6  0  0  0
  5  7  1  0  0  0  0
  5 14  1  0  0  0  0
  7  8  1  6  0  0  0
  7  9  1  0  0  0  0
  9 10  1  1  0  0  0
  9 11  1  0  0  0  0
 11 12  1  6  0  0  0
 11 13  1  0  0  0  0
 13 14  1  0  0  0  0
 13 15  1  1  0  0  0
 15 16  1  0  0  0  0
M  CHG  1   3  -1
M  END
>  <CHROM.1>
171.66810788,-174.25009959,67.44336553,48.42821974,11.61329031,15.80138778
-0.05759132,-0.10512508,2.12780543

>  <Name>
ligand

>  <RI>
0

>  <Rbt.Current_Directory>
/home/itssahil/PROJECTS/Mol_Feturizer/New_Systems/rnas/3B4C

>  <Rbt.Executable>
rbdock ($Id: //depot/dev/client3/rdock/2013.1/src/exe/rbdock.cxx#4 $)

>  <Rbt.Library>
libRbt.so (2013.1, Build901 2013/11/27)

>  <Rbt.Parameter_File>
/export/apps/rDock/src/rDock_2013.1_src/data/scripts/dock_solv.prm

>  <Rbt.Receptor>
prm/pocket_docking_4.prm

>  <SCORE>
-12.0288

>  <SCORE.INTER>
-10.6326

>  <SCORE.INTER.CONST>
1

>  <SCORE.INTER.POLAR>
-1.2977

>  <SCORE.INTER.ROT>
3

>  <SCORE.INTER.SOLV>
19.2188

>  <SCORE.INTER.VDW>
-14.769

>  <SCORE.INTER.norm>
-0.664539

>  <SCORE.INTRA>
-1.39615

>  <SCORE.INTRA.DIHEDRAL>
-1.63087

>  <SCORE.INTRA.DIHEDRAL.0>
2.1318

>  <SCORE.INTRA.POLAR>
0

>  <SCORE.INTRA.POLAR.0>
0

>  <SCORE.INTRA.REPUL>
0

>  <SCORE.INTRA.REPUL.0>
0

>  <SCORE.INTRA.SOLV>
-0.912974

>  <SCORE.INTRA.SOLV.lig_0>
-58.6125

>  <SCORE.INTRA.VDW>
-0.124232

>  <SCORE.INTRA.VDW.0>
-0.432734

>  <SCORE.INTRA.norm>
-0.0872596

>  <SCORE.RESTR>
0

>  <SCORE.RESTR.CAVITY>
0

>  <SCORE.RESTR.norm>
0

>  <SCORE.SYSTEM>
0

>  <SCORE.SYSTEM.CONST>
0

>  <SCORE.SYSTEM.DIHEDRAL>
0

>  <SCORE.SYSTEM.SOLV>
0

>  <SCORE.SYSTEM.norm>
0

>  <SCORE.heavy>
16

>  <SCORE.norm>
-0.751799

>  <RMSD>
1.011

$$$$
ligand
 OpenBabel11021811463D
libRbt.so/2013.1/901 2013/11/27
 16 16  0  0  0  0  0  0  0  0999 V2000
   52.1043   11.6746   15.3243 P   0  0  2  0  0  0  0  0  0  0  0  0
   52.1575   11.4469   13.8592 O   0  0  0  0  0  0  0  0  0  0  0  0
   52.8695   13.0436   15.6834 O   0  5  0  0  0  0  0  0  0  0  0  0
   52.8427   10.4521   16.0726 O   0  0  0  0  0  0  0  0  0  0  0  0
   46.7893   10.6787   17.6123 C   0  0  2  0  0  0  0  0  0  0  0  0
   46.0859    9.5561   17.0677 O   0  0  0  0  0  0  0  0  0  0  0  0
   46.1652   12.0088   17.1171 C   0  0  2  0  0  0  0  0  0  0  0  0
   44.7437   12.0687   17.5076 N   0  0  0  0  0  0  0  0  0  0  0  0
   46.2930   12.0699   15.5856 C   0  0  1  0  0  0  0  0  0  0  0  0
   45.7424   13.2948   15.0940 O   0  0  0  0  0  0  0  0  0  0  0  0
   47.7784   12.0016   15.2354 C   0  0  2  0  0  0  0  0  0  0  0  0
   47.9192   12.0543   13.8214 O   0  0  0  0  0  0  0  0  0  0  0  0
   48.3588   10.6679   15.7797 C   0  0  2  0  0  0  0  0  0  0  0  0
   48.1969   10.5985   17.2297 O   0  0  0  0  0  0  0  0  0  0  0  0
   49.8689   10.5558   15.4544 C   0  0  0  0  0  0  0  0  0  0  0  0
   50.5577   11.7720   15.7980 O   0  0  0  0  0  0  0  0  0  0  0  0
  1  2  1  6  0  0  0
  1  3  1  0  0  0  0
  1  4  2  0  0  0  0
  1 16  1  0  0  0  0
  5  6  1  6  0  0  0
  5  7  1  0  0  0  0
  5 14  1  0  0  0  0
  7  8  1  6  0  0  0
  7  9  1  0  0  0  0
  9 10  1  1  0  0  0
  9 11  1  0  0  0  0
 11 12  1  6  0  0  0
 11 13  1  0  0  0  0
 13 14  1  0  0  0  0
 13 15  1  1  0  0  0
 15 16  1  0  0  0  0
M  CHG  1   3  -1
M  END
>  <CHROM.1>
47.70745801,-174.91760132,58.82258792,48.97417308,11.51059184,15.82494598
0.15115898,0.13473878,-0.81702744

>  <Name>
ligand

>  <RI>
0

>  <Rbt.Current_Directory>
/home/itssahil/PROJECTS/Mol_Feturizer/New_Systems/rnas/3B4C

>  <Rbt.Executable>
rbdock ($Id: //depot/dev/client3/rdock/2013.1/src/exe/rbdock.cxx#4 $)

>  <Rbt.Library>
libRbt.so (2013.1, Build901 2013/11/27)

>  <Rbt.Parameter_File>
/export/apps/rDock/src/rDock_2013.1_src/data/scripts/dock_solv.prm

>  <Rbt.Receptor>
prm/pocket_docking_2.prm

>  <SCORE>
-11.3715

>  <SCORE.INTER>
-10.0606

>  <SCORE.INTER.CONST>
1

>  <SCORE.INTER.POLAR>
-1.29904

>  <SCORE.INTER.ROT>
3

>  <SCORE.INTER.SOLV>
20.3415

>  <SCORE.INTER.VDW>
-14.7575

>  <SCORE.INTER.norm>
-0.628789

>  <SCORE.INTRA>
-1.31088

>  <SCORE.INTRA.DIHEDRAL>
-1.4767

>  <SCORE.INTRA.DIHEDRAL.0>
2.1318

>  <SCORE.INTRA.POLAR>
0

>  <SCORE.INTRA.POLAR.0>
0

>  <SCORE.INTRA.REPUL>
0

>  <SCORE.INTRA.REPUL.0>
0

>  <SCORE.INTRA.SOLV>
-0.807552

>  <SCORE.INTRA.SOLV.lig_0>
-58.6125

>  <SCORE.INTRA.VDW>
-0.168751

>  <SCORE.INTRA.VDW.0>
-0.432734

>  <SCORE.INTRA.norm>
-0.08193

>  <SCORE.RESTR>
0

>  <SCORE.RESTR.CAVITY>
0

>  <SCORE.RESTR.norm>
0

>  <SCORE.SYSTEM>
0

>  <SCORE.SYSTEM.CONST>
0

>  <SCORE.SYSTEM.DIHEDRAL>
0

>  <SCORE.SYSTEM.SOLV>
0

>  <SCORE.SYSTEM.norm>
0

>  <SCORE.heavy>
16

>  <SCORE.norm>
-0.710719

>  <RMSD>
1.013

$$$$
ligand
 OpenBabel11021811463D
libRbt.so/2013.1/901 2013/11/27
 16 16  0  0  0  0  0  0  0  0999 V2000
   51.9799   11.6687   15.1235 P   0  0  2  0  0  0  0  0  0  0  0  0
   52.6689   10.5371   15.7913 O   0  0  0  0  0  0  0  0  0  0  0  0
   51.9952   11.4423   13.5306 O   0  5  0  0  0  0  0  0  0  0  0  0
   52.7645   13.0355   15.4640 O   0  0  0  0  0  0  0  0  0  0  0  0
   46.8874   10.8750   17.7323 C   0  0  2  0  0  0  0  0  0  0  0  0
   46.2453    9.6158   17.5000 O   0  0  0  0  0  0  0  0  0  0  0  0
   46.1004   12.0248   17.0522 C   0  0  2  0  0  0  0  0  0  0  0  0
   44.7203   12.0607   17.5726 N   0  0  0  0  0  0  0  0  0  0  0  0
   46.0838   11.7767   15.5344 C   0  0  1  0  0  0  0  0  0  0  0  0
   45.3798   12.8299   14.8709 O   0  0  0  0  0  0  0  0  0  0  0  0
   47.5317   11.7457   15.0480 C   0  0  2  0  0  0  0  0  0  0  0  0
   47.5394   11.5146   13.6451 O   0  0  0  0  0  0  0  0  0  0  0  0
   48.2801   10.5993   15.7814 C   0  0  2  0  0  0  0  0  0  0  0  0
   48.2562   10.8200   17.2250 O   0  0  0  0  0  0  0  0  0  0  0  0
   49.7587   10.5325   15.3253 C   0  0  0  0  0  0  0  0  0  0  0  0
   50.4495   11.7529   15.6493 O   0  0  0  0  0  0  0  0  0  0  0  0
  1  2  1  1  0  0  0
  1  3  1  0  0  0  0
  1  4  2  0  0  0  0
  1 16  1  0  0  0  0
  5  6  1  6  0  0  0
  5  7  1  0  0  0  0
  5 14  1  0  0  0  0
  7  8  1  1  0  0  0
  7  9  1  0  0  0  0
  9 10  1  6  0  0  0
  9 11  1  0  0  0  0
 11 12  1  6  0  0  0
 11 13  1  0  0  0  0
 13 14  1  0  0  0  0
 13 15  1  6  0  0  0
 15 16  1  0  0  0  0
M  CHG  1   3  -1
M  END
>  <CHROM.1>
61.77036148,-178.41912228,-60.73945991,48.85747060,11.44465045,15.72702832
-0.22037171,-0.09306761,2.04525535

>  <Name>
ligand

>  <RI>
0

>  <Rbt.Current_Directory>
/home/itssahil/PROJECTS/Mol_Feturizer/New_Systems/rnas/3B4C

>  <Rbt.Executable>
rbdock ($Id: //depot/dev/client3/rdock/2013.1/src/exe/rbdock.cxx#4 $)

>  <Rbt.Library>
libRbt.so (2013.1, Build901 2013/11/27)

>  <Rbt.Parameter_File>
/export/apps/rDock/src/rDock_2013.1_src/data/scripts/dock_solv.prm

>  <Rbt.Receptor>
prm/pocket_docking_3.prm

>  <SCORE>
-11.1915

>  <SCORE.INTER>
-9.47551

>  <SCORE.INTER.CONST>
1

>  <SCORE.INTER.POLAR>
-1.03923

>  <SCORE.INTER.ROT>
3

>  <SCORE.INTER.SOLV>
18.1414

>  <SCORE.INTER.VDW>
-14.5

>  <SCORE.INTER.norm>
-0.59222

>  <SCORE.INTRA>
-1.71601

>  <SCORE.INTRA.DIHEDRAL>
-2.10435

>  <SCORE.INTRA.DIHEDRAL.0>
2.1318

>  <SCORE.INTRA.POLAR>
0

>  <SCORE.INTRA.POLAR.0>
0

>  <SCORE.INTRA.REPUL>
0

>  <SCORE.INTRA.REPUL.0>
0

>  <SCORE.INTRA.SOLV>
-0.79839

>  <SCORE.INTRA.SOLV.lig_0>
-58.6125

>  <SCORE.INTRA.VDW>
-0.264642

>  <SCORE.INTRA.VDW.0>
-0.432734

>  <SCORE.INTRA.norm>
-0.107251

>  <SCORE.RESTR>
0

>  <SCORE.RESTR.CAVITY>
0

>  <SCORE.RESTR.norm>
0

>  <SCORE.SYSTEM>
0

>  <SCORE.SYSTEM.CONST>
0

>  <SCORE.SYSTEM.DIHEDRAL>
0

>  <SCORE.SYSTEM.SOLV>
0

>  <SCORE.SYSTEM.norm>
0

>  <SCORE.heavy>
16

>  <SCORE.norm>
-0.69947

>  <RMSD>
1.013

$$$$
ligand
 OpenBabel11021811463D
libRbt.so/2013.1/901 2013/11/27
 16 16  0  0  0  0  0  0  0  0999 V2000
   51.7432   11.4839   15.4349 P   0  0  2  0  0  0  0  0  0  0  0  0
   51.9519   12.8294   16.0244 O   0  0  0  0  0  0  0  0  0  0  0  0
   52.8133   10.4542   16.0541 O   0  5  0  0  0  0  0  0  0  0  0  0
   51.9638   11.5697   13.8401 O   0  0  0  0  0  0  0  0  0  0  0  0
   46.4411   11.1319   17.4873 C   0  0  2  0  0  0  0  0  0  0  0  0
   46.1328    9.7955   17.0740 O   0  0  0  0  0  0  0  0  0  0  0  0
   45.3851   12.1299   16.9461 C   0  0  2  0  0  0  0  0  0  0  0  0
   44.0448   11.7500   17.4318 N   0  0  0  0  0  0  0  0  0  0  0  0
   45.4176   12.0922   15.4089 C   0  0  1  0  0  0  0  0  0  0  0  0
   44.4664   13.0160   14.8734 O   0  0  0  0  0  0  0  0  0  0  0  0
   46.8227   12.4889   14.9593 C   0  0  2  0  0  0  0  0  0  0  0  0
   46.8755   12.4582   13.5387 O   0  0  0  0  0  0  0  0  0  0  0  0
   47.8410   11.4775   15.5527 C   0  0  2  0  0  0  0  0  0  0  0  0
   47.7755   11.4887   17.0118 O   0  0  0  0  0  0  0  0  0  0  0  0
   49.2851   11.8435   15.1292 C   0  0  0  0  0  0  0  0  0  0  0  0
   50.2406   10.9775   15.7684 O   0  0  0  0  0  0  0  0  0  0  0  0
  1  2  1  1  0  0  0
  1  3  1  0  0  0  0
  1  4  2  0  0  0  0
  1 16  1  0  0  0  0
  5  6  1  6  0  0  0
  5  7  1  0  0  0  0
  5 14  1  0  0  0  0
  7  8  1  1  0  0  0
  7  9  1  0  0  0  0
  9 10  1  6  0  0  0
  9 11  1  0  0  0  0
 11 12  1  6  0  0  0
 11 13  1  0  0  0  0
 13 14  1  0  0  0  0
 13 15  1  1  0  0  0
 15 16  1  0  0  0  0
M  CHG  1   3  -1
M  END
>  <CHROM.1>
175.10926541,-173.89203403,64.14185632,48.41542832,11.66242017,15.73784007
-0.07309414,-0.11589096,2.09037960

>  <Name>
ligand

>  <RI>
0

>  <Rbt.Current_Directory>
/home/itssahil/PROJECTS/Mol_Feturizer/New_Systems/rnas/3B4C

>  <Rbt.Executable>
rbdock ($Id: //depot/dev/client3/rdock/2013.1/src/exe/rbdock.cxx#4 $)

>  <Rbt.Library>
libRbt.so (2013.1, Build901 2013/11/27)

>  <Rbt.Parameter_File>
/export/apps/rDock/src/rDock_2013.1_src/data/scripts/dock_solv.prm

>  <Rbt.Receptor>
prm/pocket_docking_3.prm

>  <SCORE>
-12.1441

>  <SCORE.INTER>
-10.6048

>  <SCORE.INTER.CONST>
1

>  <SCORE.INTER.POLAR>
-1.29904

>  <SCORE.INTER.ROT>
3

>  <SCORE.INTER.SOLV>
18.6932

>  <SCORE.INTER.VDW>
-14.5708

>  <SCORE.INTER.norm>
-0.662803

>  <SCORE.INTRA>
-1.5393

>  <SCORE.INTRA.DIHEDRAL>
-1.83301

>  <SCORE.INTRA.DIHEDRAL.0>
2.1318

>  <SCORE.INTRA.POLAR>
0

>  <SCORE.INTRA.POLAR.0>
0

>  <SCORE.INTRA.REPUL>
0

>  <SCORE.INTRA.REPUL.0>
0

>  <SCORE.INTRA.SOLV>
-0.955446

>  <SCORE.INTRA.SOLV.lig_0>
-58.6125

>  <SCORE.INTRA.VDW>
-0.145075

>  <SCORE.INTRA.VDW.0>
-0.432734

>  <SCORE.INTRA.norm>
-0.0962063

>  <SCORE.RESTR>
0

>  <SCORE.RESTR.CAVITY>
0

>  <SCORE.RESTR.norm>
0

>  <SCORE.SYSTEM>
0

>  <SCORE.SYSTEM.CONST>
0

>  <SCORE.SYSTEM.DIHEDRAL>
0

>  <SCORE.SYSTEM.SOLV>
0

>  <SCORE.SYSTEM.norm>
0

>  <SCORE.heavy>
16

>  <SCORE.norm>
-0.759009

>  <RMSD>
1.017

$$$$
ligand
 OpenBabel11021811463D
libRbt.so/2013.1/901 2013/11/27
 16 16  0  0  0  0  0  0  0  0999 V2000
   51.8119   11.7753   14.9694 P   0  0  2  0  0  0  0  0  0  0  0  0
   51.7521   11.5341   13.5067 O   0  0  0  0  0  0  0  0  0  0  0  0
   52.5869   13.1562   15.2549 O   0  5  0  0  0  0  0  0  0  0  0  0
   52.6215   10.5684   15.6676 O   0  0  0  0  0  0  0  0  0  0  0  0
   46.6116   10.9834   17.5551 C   0  0  2  0  0  0  0  0  0  0  0  0
   45.9278    9.7719   17.2136 O   0  0  0  0  0  0  0  0  0  0  0  0
   45.9300   12.2044   16.8854 C   0  0  2  0  0  0  0  0  0  0  0  0
   44.5202   12.2852   17.3127 N   0  0  0  0  0  0  0  0  0  0  0  0
   46.0078   12.0331   15.3589 C   0  0  1  0  0  0  0  0  0  0  0  0
   45.4032   13.1527   14.7062 O   0  0  0  0  0  0  0  0  0  0  0  0
   47.4831   11.9519   14.9704 C   0  0  2  0  0  0  0  0  0  0  0  0
   47.5779   11.7906   13.5608 O   0  0  0  0  0  0  0  0  0  0  0  0
   48.1227   10.7336   15.6907 C   0  0  2  0  0  0  0  0  0  0  0  0
   48.0083   10.8834   17.1391 O   0  0  0  0  0  0  0  0  0  0  0  0
   49.6247   10.6136   15.3325 C   0  0  0  0  0  0  0  0  0  0  0  0
   50.3065   11.8601   15.5628 O   0  0  0  0  0  0  0  0  0  0  0  0
  1  2  1  6  0  0  0
  1  3  1  0  0  0  0
  1  4  2  0  0  0  0
  1 16  1  0  0  0  0
  5  6  1  6  0  0  0
  5  7  1  0  0  0  0
  5 14  1  0  0  0  0
  7  8  1  1  0  0  0
  7  9  1  0  0  0  0
  9 10  1  6  0  0  0
  9 11  1  0  0  0  0
 11 12  1  6  0  0  0
 11 13  1  0  0  0  0
 13 14  1  0  0  0  0
 13 15  1  1  0  0  0
 15 16  1  0  0  0  0
M  CHG  1   3  -1
M  END
>  <CHROM.1>
52.25621590,-171.33427435,61.09846589,48.70991466,11.59464799,15.59097979
0.19542669,0.12964984,-0.97616371

>  <Name>
ligand

>  <RI>
0

>  <Rbt.Current_Directory>
/home/itssahil/PROJECTS/Mol_Feturizer/New_Systems/rnas/3B4C

>  <Rbt.Executable>
rbdock ($Id: //depot/dev/client3/rdock/2013.1/src/exe/rbdock.cxx#4 $)

>  <Rbt.Library>
libRbt.so (2013.1, Build901 2013/11/27)

>  <Rbt.Parameter_File>
/export/apps/rDock/src/rDock_2013.1_src/data/scripts/dock_solv.prm

>  <Rbt.Receptor>
prm/pocket_docking_2.prm

>  <SCORE>
-11.4329

>  <SCORE.INTER>
-10.0152

>  <SCORE.INTER.CONST>
1

>  <SCORE.INTER.POLAR>
-1.29814

>  <SCORE.INTER.ROT>
3

>  <SCORE.INTER.SOLV>
18.0405

>  <SCORE.INTER.VDW>
-13.9632

>  <SCORE.INTER.norm>
-0.625949

>  <SCORE.INTRA>
-1.4177

>  <SCORE.INTRA.DIHEDRAL>
-1.55134

>  <SCORE.INTRA.DIHEDRAL.0>
2.1318

>  <SCORE.INTRA.POLAR>
0

>  <SCORE.INTRA.POLAR.0>
0

>  <SCORE.INTRA.REPUL>
0

>  <SCORE.INTRA.REPUL.0>
0

>  <SCORE.INTRA.SOLV>
-0.786735

>  <SCORE.INTRA.SOLV.lig_0>
-58.6125

>  <SCORE.INTRA.VDW>
-0.248656

>  <SCORE.INTRA.VDW.0>
-0.432734

>  <SCORE.INTRA.norm>
-0.088606

>  <SCORE.RESTR>
0

>  <SCORE.RESTR.CAVITY>
0

>  <SCORE.RESTR.norm>
0

>  <SCORE.SYSTEM>
0

>  <SCORE.SYSTEM.CONST>
0

>  <SCORE.SYSTEM.DIHEDRAL>
0

>  <SCORE.SYSTEM.SOLV>
0

>  <SCORE.SYSTEM.norm>
0

>  <SCORE.heavy>
16

>  <SCORE.norm>
-0.714554

>  <RMSD>
1.018

$$$$
ligand
 OpenBabel11021811463D
libRbt.so/2013.1/901 2013/11/27
 16 16  0  0  0  0  0  0  0  0999 V2000
   51.8369   11.7262   14.8790 P   0  0  2  0  0  0  0  0  0  0  0  0
   51.7087   11.3657   13.4455 O   0  0  0  0  0  0  0  0  0  0  0  0
   52.5280   13.1734   15.0093 O   0  5  0  0  0  0  0  0  0  0  0  0
   52.7691   10.6347   15.6134 O   0  0  0  0  0  0  0  0  0  0  0  0
   46.7776   10.9466   17.6993 C   0  0  2  0  0  0  0  0  0  0  0  0
   46.1811    9.6509   17.5688 O   0  0  0  0  0  0  0  0  0  0  0  0
   45.9871   11.9986   16.8792 C   0  0  2  0  0  0  0  0  0  0  0  0
   44.5865   12.0412   17.3410 N   0  0  0  0  0  0  0  0  0  0  0  0
   46.0393   11.6026   15.3940 C   0  0  1  0  0  0  0  0  0  0  0  0
   45.3338   12.5628   14.6032 O   0  0  0  0  0  0  0  0  0  0  0  0
   47.5062   11.5702   14.9682 C   0  0  2  0  0  0  0  0  0  0  0  0
   47.5775   11.2032   13.5963 O   0  0  0  0  0  0  0  0  0  0  0  0
   48.2559   10.5256   15.8393 C   0  0  2  0  0  0  0  0  0  0  0  0
   48.1670   10.8858   17.2520 O   0  0  0  0  0  0  0  0  0  0  0  0
   49.7531   10.4616   15.4484 C   0  0  0  0  0  0  0  0  0  0  0  0
   50.3666   11.7589   15.5592 O   0  0  0  0  0  0  0  0  0  0  0  0
  1  2  1  6  0  0  0
  1  3  1  0  0  0  0
  1  4  2  0  0  0  0
  1 16  1  0  0  0  0
  5  6  1  6  0  0  0
  5  7  1  0  0  0  0
  5 14  1  0  0  0  0
  7  8  1  1  0  0  0
  7  9  1  0  0  0  0
  9 10  1  6  0  0  0
  9 11  1  0  0  0  0
 11 12  1  6  0  0  0
 11 13  1  0  0  0  0
 13 14  1  0  0  0  0
 13 15  1  6  0  0  0
 15 16  1  0  0  0  0
M  CHG  1   3  -1
M  END
>  <CHROM.1>
56.50657712,-169.13460762,60.16648143,48.77343754,11.40733914,15.60668581
0.25385320,0.07350621,-1.13740966

>  <Name>
ligand

>  <RI>
0

>  <Rbt.Current_Directory>
/home/itssahil/PROJECTS/Mol_Feturizer/New_Systems/rnas/3B4C

>  <Rbt.Executable>
rbdock ($Id: //depot/dev/client3/rdock/2013.1/src/exe/rbdock.cxx#4 $)

>  <Rbt.Library>
libRbt.so (2013.1, Build901 2013/11/27)

>  <Rbt.Parameter_File>
/export/apps/rDock/src/rDock_2013.1_src/data/scripts/dock_solv.prm

>  <Rbt.Receptor>
prm/pocket_docking_4.prm

>  <SCORE>
-11.2996

>  <SCORE.INTER>
-9.84958

>  <SCORE.INTER.CONST>
1

>  <SCORE.INTER.POLAR>
-1.29904

>  <SCORE.INTER.ROT>
3

>  <SCORE.INTER.SOLV>
18.6141

>  <SCORE.INTER.VDW>
-14.041

>  <SCORE.INTER.norm>
-0.615599

>  <SCORE.INTRA>
-1.45003

>  <SCORE.INTRA.DIHEDRAL>
-1.51928

>  <SCORE.INTRA.DIHEDRAL.0>
2.1318

>  <SCORE.INTRA.POLAR>
0

>  <SCORE.INTRA.POLAR.0>
0

>  <SCORE.INTRA.REPUL>
0

>  <SCORE.INTRA.REPUL.0>
0

>  <SCORE.INTRA.SOLV>
-0.807152

>  <SCORE.INTRA.SOLV.lig_0>
-58.6125

>  <SCORE.INTRA.VDW>
-0.286815

>  <SCORE.INTRA.VDW.0>
-0.432734

>  <SCORE.INTRA.norm>
-0.090627

>  <SCORE.RESTR>
0

>  <SCORE.RESTR.CAVITY>
0

>  <SCORE.RESTR.norm>
0

>  <SCORE.SYSTEM>
0

>  <SCORE.SYSTEM.CONST>
0

>  <SCORE.SYSTEM.DIHEDRAL>
0

>  <SCORE.SYSTEM.SOLV>
0

>  <SCORE.SYSTEM.norm>
0

>  <SCORE.heavy>
16

>  <SCORE.norm>
-0.706226

>  <RMSD>
1.018

$$$$
ligand
 OpenBabel11021811463D
libRbt.so/2013.1/901 2013/11/27
 16 16  0  0  0  0  0  0  0  0999 V2000
   51.8646   11.6307   15.0984 P   0  0  2  0  0  0  0  0  0  0  0  0
   51.8574   11.2857   13.6554 O   0  0  0  0  0  0  0  0  0  0  0  0
   52.6441   13.0216   15.3144 O   0  5  0  0  0  0  0  0  0  0  0  0
   52.6331   10.4699   15.9117 O   0  0  0  0  0  0  0  0  0  0  0  0
   46.6193   11.0021   17.5754 C   0  0  2  0  0  0  0  0  0  0  0  0
   45.9067    9.8062   17.2382 O   0  0  0  0  0  0  0  0  0  0  0  0
   45.9641   12.2374   16.9057 C   0  0  2  0  0  0  0  0  0  0  0  0
   44.5579   12.3516   17.3373 N   0  0  0  0  0  0  0  0  0  0  0  0
   46.0331   12.0617   15.3793 C   0  0  1  0  0  0  0  0  0  0  0  0
   45.4524   13.1939   14.7265 O   0  0  0  0  0  0  0  0  0  0  0  0
   47.5048   11.9457   14.9862 C   0  0  2  0  0  0  0  0  0  0  0  0
   47.5914   11.7799   13.5767 O   0  0  0  0  0  0  0  0  0  0  0  0
   48.1183   10.7142   15.7067 C   0  0  2  0  0  0  0  0  0  0  0  0
   48.0121   10.8690   17.1552 O   0  0  0  0  0  0  0  0  0  0  0  0
   49.6160   10.5588   15.3440 C   0  0  0  0  0  0  0  0  0  0  0  0
   50.3388   11.7711   15.6257 O   0  0  0  0  0  0  0  0  0  0  0  0
  1  2  1  6  0  0  0
  1  3  1  0  0  0  0
  1  4  2  0  0  0  0
  1 16  1  0  0  0  0
  5  6  1  6  0  0  0
  5  7  1  0  0  0  0
  5 14  1  0  0  0  0
  7  8  1  1  0  0  0
  7  9  1  0  0  0  0
  9 10  1  6  0  0  0
  9 11  1  0  0  0  0
 11 12  1  6  0  0  0
 11 13  1  0  0  0  0
 13 14  1  0  0  0  0
 13 15  1  1  0  0  0
 15 16  1  0  0  0  0
M  CHG  1   3  -1
M  END
>  <CHROM.1>
54.80400727,-174.28947175,55.72502850,48.73832396,11.54734470,15.65120250
-0.16221027,-0.14071063,2.15295196

>  <Name>
ligand

>  <RI>
0

>  <Rbt.Current_Directory>
/home/itssahil/PROJECTS/Mol_Feturizer/New_Systems/rnas/3B4C

>  <Rbt.Executable>
rbdock ($Id: //depot/dev/client3/rdock/2013.1/src/exe/rbdock.cxx#4 $)

>  <Rbt.Library>
libRbt.so (2013.1, Build901 2013/11/27)

>  <Rbt.Parameter_File>
/export/apps/rDock/src/rDock_2013.1_src/data/scripts/dock_solv.prm

>  <Rbt.Receptor>
prm/pocket_docking_5.prm

>  <SCORE>
-11.5727

>  <SCORE.INTER>
-9.99989

>  <SCORE.INTER.CONST>
1

>  <SCORE.INTER.POLAR>
-1.29904

>  <SCORE.INTER.ROT>
3

>  <SCORE.INTER.SOLV>
18.7609

>  <SCORE.INTER.VDW>
-14.1901

>  <SCORE.INTER.norm>
-0.624993

>  <SCORE.INTRA>
-1.57282

>  <SCORE.INTRA.DIHEDRAL>
-1.84554

>  <SCORE.INTRA.DIHEDRAL.0>
2.1318

>  <SCORE.INTRA.POLAR>
0

>  <SCORE.INTRA.POLAR.0>
0

>  <SCORE.INTRA.REPUL>
0

>  <SCORE.INTRA.REPUL.0>
0

>  <SCORE.INTRA.SOLV>
-0.873001

>  <SCORE.INTRA.SOLV.lig_0>
-58.6125

>  <SCORE.INTRA.VDW>
-0.213546

>  <SCORE.INTRA.VDW.0>
-0.432734

>  <SCORE.INTRA.norm>
-0.0983011

>  <SCORE.RESTR>
0

>  <SCORE.RESTR.CAVITY>
0

>  <SCORE.RESTR.norm>
0

>  <SCORE.SYSTEM>
0

>  <SCORE.SYSTEM.CONST>
0

>  <SCORE.SYSTEM.DIHEDRAL>
0

>  <SCORE.SYSTEM.SOLV>
0

>  <SCORE.SYSTEM.norm>
0

>  <SCORE.heavy>
16

>  <SCORE.norm>
-0.723294

>  <RMSD>
1.018

$$$$
ligand
 OpenBabel11021811463D
libRbt.so/2013.1/901 2013/11/27
 16 16  0  0  0  0  0  0  0  0999 V2000
   51.9581   11.7736   15.1031 P   0  0  2  0  0  0  0  0  0  0  0  0
   51.9196   11.5550   13.6361 O   0  0  0  0  0  0  0  0  0  0  0  0
   52.6916   13.1703   15.4191 O   0  5  0  0  0  0  0  0  0  0  0  0
   52.7937   10.5781   15.7902 O   0  0  0  0  0  0  0  0  0  0  0  0
   46.8716   10.7930   17.8235 C   0  0  2  0  0  0  0  0  0  0  0  0
   46.2589    9.5256   17.5589 O   0  0  0  0  0  0  0  0  0  0  0  0
   46.0935   11.9349   17.1203 C   0  0  2  0  0  0  0  0  0  0  0  0
   44.6939   11.9459   17.5871 N   0  0  0  0  0  0  0  0  0  0  0  0
   46.1395   11.6966   15.6016 C   0  0  1  0  0  0  0  0  0  0  0  0
   45.4453   12.7432   14.9176 O   0  0  0  0  0  0  0  0  0  0  0  0
   47.6055   11.6913   15.1715 C   0  0  2  0  0  0  0  0  0  0  0  0
   47.6711   11.4697   13.7685 O   0  0  0  0  0  0  0  0  0  0  0  0
   48.3429   10.5518   15.9264 C   0  0  2  0  0  0  0  0  0  0  0  0
   48.2597   10.7625   17.3693 O   0  0  0  0  0  0  0  0  0  0  0  0
   49.8389   10.5109   15.5277 C   0  0  0  0  0  0  0  0  0  0  0  0
   50.4450   11.8071   15.6821 O   0  0  0  0  0  0  0  0  0  0  0  0
  1  2  1  6  0  0  0
  1  3  1  0  0  0  0
  1  4  2  0  0  0  0
  1 16  1  0  0  0  0
  5  6  1  6  0  0  0
  5  7  1  0  0  0  0
  5 14  1  0  0  0  0
  7  8  1  1  0  0  0
  7  9  1  0  0  0  0
  9 10  1  6  0  0  0
  9 11  1  0  0  0  0
 11 12  1  6  0  0  0
 11 13  1  0  0  0  0
 13 14  1  0  0  0  0
 13 15  1  6  0  0  0
 15 16  1  0  0  0  0
M  CHG  1   3  -1
M  END
>  <CHROM.1>
52.36149305,-173.70529456,65.99769120,48.87834947,11.43570694,15.79170215
0.24365681,0.08672341,-1.03549089

>  <Name>
ligand

>  <RI>
0

>  <Rbt.Current_Directory>
/home/itssahil/PROJECTS/Mol_Feturizer/New_Systems/rnas/3B4C

>  <Rbt.Executable>
rbdock ($Id: //depot/dev/client3/rdock/2013.1/src/exe/rbdock.cxx#4 $)

>  <Rbt.Library>
libRbt.so (2013.1, Build901 2013/11/27)

>  <Rbt.Parameter_File>
/export/apps/rDock/src/rDock_2013.1_src/data/scripts/dock_solv.prm

>  <Rbt.Receptor>
prm/pocket_docking_5.prm

>  <SCORE>
-11.4764

>  <SCORE.INTER>
-10.0151

>  <SCORE.INTER.CONST>
1

>  <SCORE.INTER.POLAR>
-1.29796

>  <SCORE.INTER.ROT>
3

>  <SCORE.INTER.SOLV>
20.1774

>  <SCORE.INTER.VDW>
-14.676

>  <SCORE.INTER.norm>
-0.625941

>  <SCORE.INTRA>
-1.46136

>  <SCORE.INTRA.DIHEDRAL>
-1.66939

>  <SCORE.INTRA.DIHEDRAL.0>
2.1318

>  <SCORE.INTRA.POLAR>
0

>  <SCORE.INTRA.POLAR.0>
0

>  <SCORE.INTRA.REPUL>
0

>  <SCORE.INTRA.REPUL.0>
0

>  <SCORE.INTRA.SOLV>
-0.759992

>  <SCORE.INTRA.SOLV.lig_0>
-58.6125

>  <SCORE.INTRA.VDW>
-0.246668

>  <SCORE.INTRA.VDW.0>
-0.432734

>  <SCORE.INTRA.norm>
-0.0913349

>  <SCORE.RESTR>
0

>  <SCORE.RESTR.CAVITY>
0

>  <SCORE.RESTR.norm>
0

>  <SCORE.SYSTEM>
0

>  <SCORE.SYSTEM.CONST>
0

>  <SCORE.SYSTEM.DIHEDRAL>
0

>  <SCORE.SYSTEM.SOLV>
0

>  <SCORE.SYSTEM.norm>
0

>  <SCORE.heavy>
16

>  <SCORE.norm>
-0.717276

>  <RMSD>
1.019

$$$$
ligand
 OpenBabel11021811463D
libRbt.so/2013.1/901 2013/11/27
 16 16  0  0  0  0  0  0  0  0999 V2000
   51.9104   11.7971   15.0284 P   0  0  2  0  0  0  0  0  0  0  0  0
   51.7683   11.5592   13.5709 O   0  0  0  0  0  0  0  0  0  0  0  0
   52.6210   13.2197   15.2738 O   0  5  0  0  0  0  0  0  0  0  0  0
   52.8332   10.6367   15.6621 O   0  0  0  0  0  0  0  0  0  0  0  0
   46.8435   10.7992   17.7791 C   0  0  2  0  0  0  0  0  0  0  0  0
   46.1977    9.5592   17.4671 O   0  0  0  0  0  0  0  0  0  0  0  0
   46.0900   11.9879   17.1286 C   0  0  2  0  0  0  0  0  0  0  0  0
   44.6940   12.0144   17.6052 N   0  0  0  0  0  0  0  0  0  0  0  0
   46.1211   11.8111   15.6011 C   0  0  1  0  0  0  0  0  0  0  0  0
   45.4491   12.9018   14.9653 O   0  0  0  0  0  0  0  0  0  0  0  0
   47.5838   11.7871   15.1610 C   0  0  2  0  0  0  0  0  0  0  0  0
   47.6355   11.6217   13.7497 O   0  0  0  0  0  0  0  0  0  0  0  0
   48.2970   10.5997   15.8635 C   0  0  2  0  0  0  0  0  0  0  0  0
   48.2277   10.7530   17.3144 O   0  0  0  0  0  0  0  0  0  0  0  0
   49.7891   10.5381   15.4530 C   0  0  0  0  0  0  0  0  0  0  0  0
   50.4451   11.7910   15.7202 O   0  0  0  0  0  0  0  0  0  0  0  0
  1  2  1  6  0  0  0
  1  3  1  0  0  0  0
  1  4  2  0  0  0  0
  1 16  1  0  0  0  0
  5  6  1  6  0  0  0
  5  7  1  0  0  0  0
  5 14  1  0  0  0  0
  7  8  1  1  0  0  0
  7  9  1  0  0  0  0
  9 10  1  6  0  0  0
  9 11  1  0  0  0  0
 11 12  1  6  0  0  0
 11 13  1  0  0  0  0
 13 14  1  0  0  0  0
 13 15  1  6  0  0  0
 15 16  1  0  0  0  0
M  CHG  1   3  -1
M  END
>  <CHROM.1>
55.31805054,-169.20471224,57.50001381,48.84415788,11.48765314,15.74714204
0.24596030,0.11218026,-0.98761999

>  <Name>
ligand

>  <RI>
0

>  <Rbt.Current_Directory>
/home/itssahil/PROJECTS/Mol_Feturizer/New_Systems/rnas/3B4C

>  <Rbt.Executable>
rbdock ($Id: //depot/dev/client3/rdock/2013.1/src/exe/rbdock.cxx#4 $)

>  <Rbt.Library>
libRbt.so (2013.1, Build901 2013/11/27)

>  <Rbt.Parameter_File>
/export/apps/rDock/src/rDock_2013.1_src/data/scripts/dock_solv.prm

>  <Rbt.Receptor>
prm/pocket_docking_2.prm

>  <SCORE>
-11.3592

>  <SCORE.INTER>
-9.9475

>  <SCORE.INTER.CONST>
1

>  <SCORE.INTER.POLAR>
-1.29801

>  <SCORE.INTER.ROT>
3

>  <SCORE.INTER.SOLV>
19.6765

>  <SCORE.INTER.VDW>
-14.4638

>  <SCORE.INTER.norm>
-0.621719

>  <SCORE.INTRA>
-1.41174

>  <SCORE.INTRA.DIHEDRAL>
-1.48247

>  <SCORE.INTRA.DIHEDRAL.0>
2.1318

>  <SCORE.INTRA.POLAR>
0

>  <SCORE.INTRA.POLAR.0>
0

>  <SCORE.INTRA.REPUL>
0

>  <SCORE.INTRA.REPUL.0>
0

>  <SCORE.INTRA.SOLV>
-0.825332

>  <SCORE.INTRA.SOLV.lig_0>
-58.6125

>  <SCORE.INTRA.VDW>
-0.257834

>  <SCORE.INTRA.VDW.0>
-0.432734

>  <SCORE.INTRA.norm>
-0.0882335

>  <SCORE.RESTR>
0

>  <SCORE.RESTR.CAVITY>
0

>  <SCORE.RESTR.norm>
0

>  <SCORE.SYSTEM>
0

>  <SCORE.SYSTEM.CONST>
0

>  <SCORE.SYSTEM.DIHEDRAL>
0

>  <SCORE.SYSTEM.SOLV>
0

>  <SCORE.SYSTEM.norm>
0

>  <SCORE.heavy>
16

>  <SCORE.norm>
-0.709952

>  <RMSD>
1.020

$$$$
ligand
 OpenBabel11021811463D
libRbt.so/2013.1/901 2013/11/27
 16 16  0  0  0  0  0  0  0  0999 V2000
   51.9886   11.6776   15.1114 P   0  0  2  0  0  0  0  0  0  0  0  0
   51.9936   11.3570   13.6627 O   0  0  0  0  0  0  0  0  0  0  0  0
   52.7294   13.0854   15.3525 O   0  5  0  0  0  0  0  0  0  0  0  0
   52.7872   10.5247   15.9068 O   0  0  0  0  0  0  0  0  0  0  0  0
   46.8671   10.8254   17.8282 C   0  0  2  0  0  0  0  0  0  0  0  0
   46.2258    9.5728   17.5608 O   0  0  0  0  0  0  0  0  0  0  0  0
   46.1206   11.9851   17.1199 C   0  0  2  0  0  0  0  0  0  0  0  0
   44.7190   12.0300   17.5787 N   0  0  0  0  0  0  0  0  0  0  0  0
   46.1696   11.7448   15.6016 C   0  0  1  0  0  0  0  0  0  0  0  0
   45.5045   12.8072   14.9131 O   0  0  0  0  0  0  0  0  0  0  0  0
   47.6374   11.7040   15.1800 C   0  0  2  0  0  0  0  0  0  0  0  0
   47.7057   11.4799   13.7775 O   0  0  0  0  0  0  0  0  0  0  0  0
   48.3431   10.5477   15.9397 C   0  0  2  0  0  0  0  0  0  0  0  0
   48.2567   10.7614   17.3820 O   0  0  0  0  0  0  0  0  0  0  0  0
   49.8399   10.4708   15.5496 C   0  0  0  0  0  0  0  0  0  0  0  0
   50.4586   11.7673   15.6374 O   0  0  0  0  0  0  0  0  0  0  0  0
  1  2  1  6  0  0  0
  1  3  1  0  0  0  0
  1  4  2  0  0  0  0
  1 16  1  0  0  0  0
  5  6  1  6  0  0  0
  5  7  1  0  0  0  0
  5 14  1  0  0  0  0
  7  8  1  1  0  0  0
  7  9  1  0  0  0  0
  9 10  1  6  0  0  0
  9 11  1  0  0  0  0
 11 12  1  6  0  0  0
 11 13  1  0  0  0  0
 13 14  1  0  0  0  0
 13 15  1  6  0  0  0
 15 16  1  0  0  0  0
M  CHG  1   3  -1
M  END
>  <CHROM.1>
49.25227762,-175.50902128,65.77650428,48.89915082,11.41732534,15.79807118
0.22999793,0.10733798,-1.03284012

>  <Name>
ligand

>  <RI>
0

>  <Rbt.Current_Directory>
/home/itssahil/PROJECTS/Mol_Feturizer/New_Systems/rnas/3B4C

>  <Rbt.Executable>
rbdock ($Id: //depot/dev/client3/rdock/2013.1/src/exe/rbdock.cxx#4 $)

>  <Rbt.Library>
libRbt.so (2013.1, Build901 2013/11/27)

>  <Rbt.Parameter_File>
/export/apps/rDock/src/rDock_2013.1_src/data/scripts/dock_solv.prm

>  <Rbt.Receptor>
prm/pocket_docking_3.prm

>  <SCORE>
-11.4344

>  <SCORE.INTER>
-10.0649

>  <SCORE.INTER.CONST>
1

>  <SCORE.INTER.POLAR>
-1.29785

>  <SCORE.INTER.ROT>
3

>  <SCORE.INTER.SOLV>
20.2364

>  <SCORE.INTER.VDW>
-14.7292

>  <SCORE.INTER.norm>
-0.629056

>  <SCORE.INTRA>
-1.36951

>  <SCORE.INTRA.DIHEDRAL>
-1.57071

>  <SCORE.INTRA.DIHEDRAL.0>
2.1318

>  <SCORE.INTRA.POLAR>
0

>  <SCORE.INTRA.POLAR.0>
0

>  <SCORE.INTRA.REPUL>
0

>  <SCORE.INTRA.REPUL.0>
0

>  <SCORE.INTRA.SOLV>
-0.753295

>  <SCORE.INTRA.SOLV.lig_0>
-58.6125

>  <SCORE.INTRA.VDW>
-0.207506

>  <SCORE.INTRA.VDW.0>
-0.432734

>  <SCORE.INTRA.norm>
-0.0855942

>  <SCORE.RESTR>
0

>  <SCORE.RESTR.CAVITY>
0

>  <SCORE.RESTR.norm>
0

>  <SCORE.SYSTEM>
0

>  <SCORE.SYSTEM.CONST>
0

>  <SCORE.SYSTEM.DIHEDRAL>
0

>  <SCORE.SYSTEM.SOLV>
0

>  <SCORE.SYSTEM.norm>
0

>  <SCORE.heavy>
16

>  <SCORE.norm>
-0.71465

>  <RMSD>
1.020

$$$$
ligand
 OpenBabel11021811463D
libRbt.so/2013.1/901 2013/11/27
 16 16  0  0  0  0  0  0  0  0999 V2000
   51.9488   11.6497   15.2341 P   0  0  2  0  0  0  0  0  0  0  0  0
   52.5799   10.4681   15.8720 O   0  0  0  0  0  0  0  0  0  0  0  0
   52.0203   11.4986   13.6339 O   0  5  0  0  0  0  0  0  0  0  0  0
   52.7564   12.9754   15.6698 O   0  0  0  0  0  0  0  0  0  0  0  0
   46.8298   10.8906   17.7240 C   0  0  2  0  0  0  0  0  0  0  0  0
   46.1935    9.6282   17.4928 O   0  0  0  0  0  0  0  0  0  0  0  0
   46.0341   12.0369   17.0481 C   0  0  2  0  0  0  0  0  0  0  0  0
   44.6559   12.0649   17.5739 N   0  0  0  0  0  0  0  0  0  0  0  0
   46.0131   11.7903   15.5302 C   0  0  1  0  0  0  0  0  0  0  0  0
   45.3010   12.8405   14.8705 O   0  0  0  0  0  0  0  0  0  0  0  0
   47.4592   11.7674   15.0382 C   0  0  2  0  0  0  0  0  0  0  0  0
   47.4628   11.5379   13.6350 O   0  0  0  0  0  0  0  0  0  0  0  0
   48.2165   10.6243   15.7675 C   0  0  2  0  0  0  0  0  0  0  0  0
   48.1969   10.8433   17.2114 O   0  0  0  0  0  0  0  0  0  0  0  0
   49.6937   10.5658   15.3057 C   0  0  0  0  0  0  0  0  0  0  0  0
   50.4018   11.7534   15.7051 O   0  0  0  0  0  0  0  0  0  0  0  0
  1  2  1  1  0  0  0
  1  3  1  0  0  0  0
  1  4  2  0  0  0  0
  1 16  1  0  0  0  0
  5  6  1  6  0  0  0
  5  7  1  0  0  0  0
  5 14  1  0  0  0  0
  7  8  1  1  0  0  0
  7  9  1  0  0  0  0
  9 10  1  6  0  0  0
  9 11  1  0  0  0  0
 11 12  1  6  0  0  0
 11 13  1  0  0  0  0
 13 14  1  0  0  0  0
 13 15  1  6  0  0  0
 15 16  1  0  0  0  0
M  CHG  1   3  -1
M  END
>  <CHROM.1>
65.50682974,178.89256127,-60.29250067,48.80487088,11.44878837,15.76382137
-0.19768698,-0.08485235,2.02885098

>  <Name>
ligand

>  <RI>
0

>  <Rbt.Current_Directory>
/home/itssahil/PROJECTS/Mol_Feturizer/New_Systems/rnas/3B4C

>  <Rbt.Executable>
rbdock ($Id: //depot/dev/client3/rdock/2013.1/src/exe/rbdock.cxx#4 $)

>  <Rbt.Library>
libRbt.so (2013.1, Build901 2013/11/27)

>  <Rbt.Parameter_File>
/export/apps/rDock/src/rDock_2013.1_src/data/scripts/dock_solv.prm

>  <Rbt.Receptor>
prm/pocket_docking_2.prm

>  <SCORE>
-11.1075

>  <SCORE.INTER>
-9.43165

>  <SCORE.INTER.CONST>
1

>  <SCORE.INTER.POLAR>
-1.03917

>  <SCORE.INTER.ROT>
3

>  <SCORE.INTER.SOLV>
18.555

>  <SCORE.INTER.VDW>
-14.6089

>  <SCORE.INTER.norm>
-0.589478

>  <SCORE.INTRA>
-1.67589

>  <SCORE.INTRA.DIHEDRAL>
-2.01248

>  <SCORE.INTRA.DIHEDRAL.0>
2.1318

>  <SCORE.INTRA.POLAR>
0

>  <SCORE.INTRA.POLAR.0>
0

>  <SCORE.INTRA.REPUL>
0

>  <SCORE.INTRA.REPUL.0>
0

>  <SCORE.INTRA.SOLV>
-0.817232

>  <SCORE.INTRA.SOLV.lig_0>
-58.6125

>  <SCORE.INTRA.VDW>
-0.261038

>  <SCORE.INTRA.VDW.0>
-0.432734

>  <SCORE.INTRA.norm>
-0.104743

>  <SCORE.RESTR>
0

>  <SCORE.RESTR.CAVITY>
0

>  <SCORE.RESTR.norm>
0

>  <SCORE.SYSTEM>
0

>  <SCORE.SYSTEM.CONST>
0

>  <SCORE.SYSTEM.DIHEDRAL>
0

>  <SCORE.SYSTEM.SOLV>
0

>  <SCORE.SYSTEM.norm>
0

>  <SCORE.heavy>
16

>  <SCORE.norm>
-0.694222

>  <RMSD>
1.024

$$$$
ligand
 OpenBabel11021811463D
libRbt.so/2013.1/901 2013/11/27
 16 16  0  0  0  0  0  0  0  0999 V2000
   51.9076   11.7447   14.9754 P   0  0  2  0  0  0  0  0  0  0  0  0
   51.8703   11.4494   13.5219 O   0  0  0  0  0  0  0  0  0  0  0  0
   52.6351   13.1592   15.2177 O   0  5  0  0  0  0  0  0  0  0  0  0
   52.7482   10.5904   15.7240 O   0  0  0  0  0  0  0  0  0  0  0  0
   46.8916   10.8838   17.7391 C   0  0  2  0  0  0  0  0  0  0  0  0
   46.2669    9.6109   17.5357 O   0  0  0  0  0  0  0  0  0  0  0  0
   46.0748   12.0102   17.0549 C   0  0  2  0  0  0  0  0  0  0  0  0
   44.7028   12.0311   17.5970 N   0  0  0  0  0  0  0  0  0  0  0  0
   46.0382   11.7391   15.5414 C   0  0  1  0  0  0  0  0  0  0  0  0
   45.3063   12.7706   14.8740 O   0  0  0  0  0  0  0  0  0  0  0  0
   47.4785   11.7246   15.0323 C   0  0  2  0  0  0  0  0  0  0  0  0
   47.4678   11.4727   13.6329 O   0  0  0  0  0  0  0  0  0  0  0  0
   48.2575   10.6017   15.7702 C   0  0  2  0  0  0  0  0  0  0  0  0
   48.2529   10.8436   17.2106 O   0  0  0  0  0  0  0  0  0  0  0  0
   49.7296   10.5524   15.2913 C   0  0  0  0  0  0  0  0  0  0  0  0
   50.3943   11.8021   15.5519 O   0  0  0  0  0  0  0  0  0  0  0  0
  1  2  1  6  0  0  0
  1  3  1  0  0  0  0
  1  4  2  0  0  0  0
  1 16  1  0  0  0  0
  5  6  1  6  0  0  0
  5  7  1  0  0  0  0
  5 14  1  0  0  0  0
  7  8  1  1  0  0  0
  7  9  1  0  0  0  0
  9 10  1  6  0  0  0
  9 11  1  0  0  0  0
 11 12  1  6  0  0  0
 11 13  1  0  0  0  0
 13 14  1  0  0  0  0
 13 15  1  6  0  0  0
 15 16  1  0  0  0  0
M  CHG  1   3  -1
M  END
>  <CHROM.1>
60.13741713,-177.23981565,57.79733869,48.81596262,11.45983430,15.68189574
-0.24426469,-0.09357912,2.05611817

>  <Name>
ligand

>  <RI>
0

>  <Rbt.Current_Directory>
/home/itssahil/PROJECTS/Mol_Feturizer/New_Systems/rnas/3B4C

>  <Rbt.Executable>
rbdock ($Id: //depot/dev/client3/rdock/2013.1/src/exe/rbdock.cxx#4 $)

>  <Rbt.Library>
libRbt.so (2013.1, Build901 2013/11/27)

>  <Rbt.Parameter_File>
/export/apps/rDock/src/rDock_2013.1_src/data/scripts/dock_solv.prm

>  <Rbt.Receptor>
prm/pocket_docking_8.prm

>  <SCORE>
-11.6198

>  <SCORE.INTER>
-9.89779

>  <SCORE.INTER.CONST>
1

>  <SCORE.INTER.POLAR>
-1.29833

>  <SCORE.INTER.ROT>
3

>  <SCORE.INTER.SOLV>
19.542

>  <SCORE.INTER.VDW>
-14.3848

>  <SCORE.INTER.norm>
-0.618612

>  <SCORE.INTRA>
-1.72202

>  <SCORE.INTRA.DIHEDRAL>
-2.08429

>  <SCORE.INTRA.DIHEDRAL.0>
2.1318

>  <SCORE.INTRA.POLAR>
0

>  <SCORE.INTRA.POLAR.0>
0

>  <SCORE.INTRA.REPUL>
0

>  <SCORE.INTRA.REPUL.0>
0

>  <SCORE.INTRA.SOLV>
-0.847916

>  <SCORE.INTRA.SOLV.lig_0>
-58.6125

>  <SCORE.INTRA.VDW>
-0.255917

>  <SCORE.INTRA.VDW.0>
-0.432734

>  <SCORE.INTRA.norm>
-0.107626

>  <SCORE.RESTR>
0

>  <SCORE.RESTR.CAVITY>
0

>  <SCORE.RESTR.norm>
0

>  <SCORE.SYSTEM>
0

>  <SCORE.SYSTEM.CONST>
0

>  <SCORE.SYSTEM.DIHEDRAL>
0

>  <SCORE.SYSTEM.SOLV>
0

>  <SCORE.SYSTEM.norm>
0

>  <SCORE.heavy>
16

>  <SCORE.norm>
-0.726238

>  <RMSD>
1.024

$$$$
ligand
 OpenBabel11021811463D
libRbt.so/2013.1/901 2013/11/27
 16 16  0  0  0  0  0  0  0  0999 V2000
   51.8457   11.8028   15.0210 P   0  0  2  0  0  0  0  0  0  0  0  0
   51.8308   11.6324   13.5472 O   0  0  0  0  0  0  0  0  0  0  0  0
   52.5957   13.1762   15.3954 O   0  5  0  0  0  0  0  0  0  0  0  0
   52.6492   10.5720   15.6836 O   0  0  0  0  0  0  0  0  0  0  0  0
   46.8103   10.8863   17.7113 C   0  0  2  0  0  0  0  0  0  0  0  0
   46.2054    9.6044   17.5048 O   0  0  0  0  0  0  0  0  0  0  0  0
   45.9824   12.0002   17.0201 C   0  0  2  0  0  0  0  0  0  0  0  0
   44.6064   12.0021   17.5524 N   0  0  0  0  0  0  0  0  0  0  0  0
   45.9606   11.7273   15.5067 C   0  0  1  0  0  0  0  0  0  0  0  0
   45.2188   12.7476   14.8329 O   0  0  0  0  0  0  0  0  0  0  0  0
   47.4045   11.7328   15.0078 C   0  0  2  0  0  0  0  0  0  0  0  0
   47.4074   11.4796   13.6087 O   0  0  0  0  0  0  0  0  0  0  0  0
   48.1942   10.6220   15.7525 C   0  0  2  0  0  0  0  0  0  0  0  0
   48.1758   10.8651   17.1926 O   0  0  0  0  0  0  0  0  0  0  0  0
   49.6702   10.5932   15.2842 C   0  0  0  0  0  0  0  0  0  0  0  0
   50.3230   11.8429   15.5735 O   0  0  0  0  0  0  0  0  0  0  0  0
  1  2  1  6  0  0  0
  1  3  1  0  0  0  0
  1  4  2  0  0  0  0
  1 16  1  0  0  0  0
  5  6  1  6  0  0  0
  5  7  1  0  0  0  0
  5 14  1  0  0  0  0
  7  8  1  1  0  0  0
  7  9  1  0  0  0  0
  9 10  1  6  0  0  0
  9 11  1  0  0  0  0
 11 12  1  6  0  0  0
 11 13  1  0  0  0  0
 13 14  1  0  0  0  0
 13 15  1  6  0  0  0
 15 16  1  0  0  0  0
M  CHG  1   3  -1
M  END
>  <CHROM.1>
61.33660368,-177.80592005,62.10817185,48.74563895,11.48212635,15.68186226
-0.23674047,-0.07545376,2.05001416

>  <Name>
ligand

>  <RI>
0

>  <Rbt.Current_Directory>
/home/itssahil/PROJECTS/Mol_Feturizer/New_Systems/rnas/3B4C

>  <Rbt.Executable>
rbdock ($Id: //depot/dev/client3/rdock/2013.1/src/exe/rbdock.cxx#4 $)

>  <Rbt.Library>
libRbt.so (2013.1, Build901 2013/11/27)

>  <Rbt.Parameter_File>
/export/apps/rDock/src/rDock_2013.1_src/data/scripts/dock_solv.prm

>  <Rbt.Receptor>
prm/pocket_docking_4.prm

>  <SCORE>
-11.6099

>  <SCORE.INTER>
-9.87741

>  <SCORE.INTER.CONST>
1

>  <SCORE.INTER.POLAR>
-1.29904

>  <SCORE.INTER.ROT>
3

>  <SCORE.INTER.SOLV>
19.6772

>  <SCORE.INTER.VDW>
-14.4139

>  <SCORE.INTER.norm>
-0.617338

>  <SCORE.INTRA>
-1.73253

>  <SCORE.INTRA.DIHEDRAL>
-2.09071

>  <SCORE.INTRA.DIHEDRAL.0>
2.1318

>  <SCORE.INTRA.POLAR>
0

>  <SCORE.INTRA.POLAR.0>
0

>  <SCORE.INTRA.REPUL>
0

>  <SCORE.INTRA.REPUL.0>
0

>  <SCORE.INTRA.SOLV>
-0.804772

>  <SCORE.INTRA.SOLV.lig_0>
-58.6125

>  <SCORE.INTRA.VDW>
-0.284791

>  <SCORE.INTRA.VDW.0>
-0.432734

>  <SCORE.INTRA.norm>
-0.108283

>  <SCORE.RESTR>
0

>  <SCORE.RESTR.CAVITY>
0

>  <SCORE.RESTR.norm>
0

>  <SCORE.SYSTEM>
0

>  <SCORE.SYSTEM.CONST>
0

>  <SCORE.SYSTEM.DIHEDRAL>
0

>  <SCORE.SYSTEM.SOLV>
0

>  <SCORE.SYSTEM.norm>
0

>  <SCORE.heavy>
16

>  <SCORE.norm>
-0.725622

>  <RMSD>
1.028

$$$$
ligand
 OpenBabel11021811463D
libRbt.so/2013.1/901 2013/11/27
 16 16  0  0  0  0  0  0  0  0999 V2000
   51.8299   11.7648   14.8807 P   0  0  2  0  0  0  0  0  0  0  0  0
   51.7275   11.4497   13.4345 O   0  0  0  0  0  0  0  0  0  0  0  0
   52.5868   13.1717   15.0718 O   0  5  0  0  0  0  0  0  0  0  0  0
   52.6848   10.6089   15.6105 O   0  0  0  0  0  0  0  0  0  0  0  0
   46.6875   11.0276   17.5763 C   0  0  2  0  0  0  0  0  0  0  0  0
   45.9903    9.8152   17.2668 O   0  0  0  0  0  0  0  0  0  0  0  0
   45.9940   12.2436   16.9097 C   0  0  2  0  0  0  0  0  0  0  0  0
   44.5959   12.3356   17.3720 N   0  0  0  0  0  0  0  0  0  0  0  0
   46.0321   12.0539   15.3839 C   0  0  1  0  0  0  0  0  0  0  0  0
   45.4155   13.1684   14.7336 O   0  0  0  0  0  0  0  0  0  0  0  0
   47.4965   11.9617   14.9588 C   0  0  2  0  0  0  0  0  0  0  0  0
   47.5546   11.7835   13.5493 O   0  0  0  0  0  0  0  0  0  0  0  0
   48.1494   10.7492   15.6769 C   0  0  2  0  0  0  0  0  0  0  0  0
   48.0728   10.9165   17.1259 O   0  0  0  0  0  0  0  0  0  0  0  0
   49.6412   10.6185   15.2820 C   0  0  0  0  0  0  0  0  0  0  0  0
   50.3430   11.8525   15.5189 O   0  0  0  0  0  0  0  0  0  0  0  0
  1  2  1  6  0  0  0
  1  3  1  0  0  0  0
  1  4  2  0  0  0  0
  1 16  1  0  0  0  0
  5  6  1  6  0  0  0
  5  7  1  0  0  0  0
  5 14  1  0  0  0  0
  7  8  1  1  0  0  0
  7  9  1  0  0  0  0
  9 10  1  6  0  0  0
  9 11  1  0  0  0  0
 11 12  1  6  0  0  0
 11 13  1  0  0  0  0
 13 14  1  0  0  0  0
 13 15  1  6  0  0  0
 15 16  1  0  0  0  0
M  CHG  1   3  -1
M  END
>  <CHROM.1>
54.03444570,-170.96095114,56.69115293,48.73993399,11.60624345,15.56381922
0.20981912,0.14390015,-0.99270962

>  <Name>
ligand

>  <RI>
0

>  <Rbt.Current_Directory>
/home/itssahil/PROJECTS/Mol_Feturizer/New_Systems/rnas/3B4C

>  <Rbt.Executable>
rbdock ($Id: //depot/dev/client3/rdock/2013.1/src/exe/rbdock.cxx#4 $)

>  <Rbt.Library>
libRbt.so (2013.1, Build901 2013/11/27)

>  <Rbt.Parameter_File>
/export/apps/rDock/src/rDock_2013.1_src/data/scripts/dock_solv.prm

>  <Rbt.Receptor>
prm/pocket_docking_2.prm

>  <SCORE>
-11.3908

>  <SCORE.INTER>
-9.94371

>  <SCORE.INTER.CONST>
1

>  <SCORE.INTER.POLAR>
-1.29904

>  <SCORE.INTER.ROT>
3

>  <SCORE.INTER.SOLV>
17.8594

>  <SCORE.INTER.VDW>
-13.8521

>  <SCORE.INTER.norm>
-0.621482

>  <SCORE.INTRA>
-1.4471

>  <SCORE.INTRA.DIHEDRAL>
-1.59087

>  <SCORE.INTRA.DIHEDRAL.0>
2.1318

>  <SCORE.INTRA.POLAR>
0

>  <SCORE.INTRA.POLAR.0>
0

>  <SCORE.INTRA.REPUL>
0

>  <SCORE.INTRA.REPUL.0>
0

>  <SCORE.INTRA.SOLV>
-0.839775

>  <SCORE.INTRA.SOLV.lig_0>
-58.6125

>  <SCORE.INTRA.VDW>
-0.231773

>  <SCORE.INTRA.VDW.0>
-0.432734

>  <SCORE.INTRA.norm>
-0.0904435

>  <SCORE.RESTR>
0

>  <SCORE.RESTR.CAVITY>
0

>  <SCORE.RESTR.norm>
0

>  <SCORE.SYSTEM>
0

>  <SCORE.SYSTEM.CONST>
0

>  <SCORE.SYSTEM.DIHEDRAL>
0

>  <SCORE.SYSTEM.SOLV>
0

>  <SCORE.SYSTEM.norm>
0

>  <SCORE.heavy>
16

>  <SCORE.norm>
-0.711925

>  <RMSD>
1.029

$$$$
ligand
 OpenBabel11021811463D
libRbt.so/2013.1/901 2013/11/27
 16 16  0  0  0  0  0  0  0  0999 V2000
   51.9459   11.6479   15.2877 P   0  0  2  0  0  0  0  0  0  0  0  0
   52.5021   10.4183   15.9042 O   0  0  0  0  0  0  0  0  0  0  0  0
   52.0673   11.5482   13.6864 O   0  5  0  0  0  0  0  0  0  0  0  0
   52.7946   12.9205   15.7972 O   0  0  0  0  0  0  0  0  0  0  0  0
   46.7299   10.9832   17.6443 C   0  0  2  0  0  0  0  0  0  0  0  0
   46.0427    9.7660   17.3313 O   0  0  0  0  0  0  0  0  0  0  0  0
   46.0142   12.1977   16.9987 C   0  0  2  0  0  0  0  0  0  0  0  0
   44.6212   12.2690   17.4794 N   0  0  0  0  0  0  0  0  0  0  0  0
   46.0351   12.0237   15.4708 C   0  0  1  0  0  0  0  0  0  0  0  0
   45.3977   13.1374   14.8395 O   0  0  0  0  0  0  0  0  0  0  0  0
   47.4950   11.9525   15.0264 C   0  0  2  0  0  0  0  0  0  0  0  0
   47.5373   11.7890   13.6146 O   0  0  0  0  0  0  0  0  0  0  0  0
   48.1707   10.7406   15.7240 C   0  0  2  0  0  0  0  0  0  0  0  0
   48.1105   10.8926   17.1755 O   0  0  0  0  0  0  0  0  0  0  0  0
   49.6588   10.6309   15.3091 C   0  0  0  0  0  0  0  0  0  0  0  0
   50.3892   11.8046   15.7096 O   0  0  0  0  0  0  0  0  0  0  0  0
  1  2  1  1  0  0  0
  1  3  1  0  0  0  0
  1  4  2  0  0  0  0
  1 16  1  0  0  0  0
  5  6  1  6  0  0  0
  5  7  1  0  0  0  0
  5 14  1  0  0  0  0
  7  8  1  1  0  0  0
  7  9  1  0  0  0  0
  9 10  1  6  0  0  0
  9 11  1  0  0  0  0
 11 12  1  6  0  0  0
 11 13  1  0  0  0  0
 13 14  1  0  0  0  0
 13 15  1  6  0  0  0
 15 16  1  0  0  0  0
M  CHG  1   3  -1
M  END
>  <CHROM.1>
61.59815629,178.91718482,-57.16858015,48.79055854,11.55062838,15.75070559
-0.16057700,-0.11382199,2.09127666

>  <Name>
ligand

>  <RI>
0

>  <Rbt.Current_Directory>
/home/itssahil/PROJECTS/Mol_Feturizer/New_Systems/rnas/3B4C

>  <Rbt.Executable>
rbdock ($Id: //depot/dev/client3/rdock/2013.1/src/exe/rbdock.cxx#4 $)

>  <Rbt.Library>
libRbt.so (2013.1, Build901 2013/11/27)

>  <Rbt.Parameter_File>
/export/apps/rDock/src/rDock_2013.1_src/data/scripts/dock_solv.prm

>  <Rbt.Receptor>
prm/pocket_docking_5.prm

>  <SCORE>
-11.2057

>  <SCORE.INTER>
-9.49998

>  <SCORE.INTER.CONST>
1

>  <SCORE.INTER.POLAR>
-1.03923

>  <SCORE.INTER.ROT>
3

>  <SCORE.INTER.SOLV>
18.002

>  <SCORE.INTER.VDW>
-14.4699

>  <SCORE.INTER.norm>
-0.593749

>  <SCORE.INTRA>
-1.70571

>  <SCORE.INTRA.DIHEDRAL>
-2.09973

>  <SCORE.INTRA.DIHEDRAL.0>
2.1318

>  <SCORE.INTRA.POLAR>
0

>  <SCORE.INTRA.POLAR.0>
0

>  <SCORE.INTRA.REPUL>
0

>  <SCORE.INTRA.REPUL.0>
0

>  <SCORE.INTRA.SOLV>
-0.844067

>  <SCORE.INTRA.SOLV.lig_0>
-58.6125

>  <SCORE.INTRA.VDW>
-0.233814

>  <SCORE.INTRA.VDW.0>
-0.432734

>  <SCORE.INTRA.norm>
-0.106607

>  <SCORE.RESTR>
0

>  <SCORE.RESTR.CAVITY>
0

>  <SCORE.RESTR.norm>
0

>  <SCORE.SYSTEM>
0

>  <SCORE.SYSTEM.CONST>
0

>  <SCORE.SYSTEM.DIHEDRAL>
0

>  <SCORE.SYSTEM.SOLV>
0

>  <SCORE.SYSTEM.norm>
0

>  <SCORE.heavy>
16

>  <SCORE.norm>
-0.700356

>  <RMSD>
1.030

$$$$
ligand
 OpenBabel11021811463D
libRbt.so/2013.1/901 2013/11/27
 16 16  0  0  0  0  0  0  0  0999 V2000
   51.8989   11.6486   15.1293 P   0  0  2  0  0  0  0  0  0  0  0  0
   52.5203   10.4776   15.7955 O   0  0  0  0  0  0  0  0  0  0  0  0
   51.9411   11.4440   13.5339 O   0  5  0  0  0  0  0  0  0  0  0  0
   52.7364   12.9734   15.5078 O   0  0  0  0  0  0  0  0  0  0  0  0
   46.7262   10.9773   17.6478 C   0  0  2  0  0  0  0  0  0  0  0  0
   46.0225    9.7693   17.3356 O   0  0  0  0  0  0  0  0  0  0  0  0
   46.0189   12.2026   17.0136 C   0  0  2  0  0  0  0  0  0  0  0  0
   44.6309   12.2877   17.5066 N   0  0  0  0  0  0  0  0  0  0  0  0
   46.0247   12.0350   15.4848 C   0  0  1  0  0  0  0  0  0  0  0  0
   45.3946   13.1586   14.8638 O   0  0  0  0  0  0  0  0  0  0  0  0
   47.4798   11.9492   15.0275 C   0  0  2  0  0  0  0  0  0  0  0  0
   47.5080   11.7912   13.6146 O   0  0  0  0  0  0  0  0  0  0  0  0
   48.1476   10.7266   15.7141 C   0  0  2  0  0  0  0  0  0  0  0  0
   48.1016   10.8730   17.1666 O   0  0  0  0  0  0  0  0  0  0  0  0
   49.6307   10.6018   15.2858 C   0  0  0  0  0  0  0  0  0  0  0  0
   50.3621   11.7950   15.6215 O   0  0  0  0  0  0  0  0  0  0  0  0
  1  2  1  1  0  0  0
  1  3  1  0  0  0  0
  1  4  2  0  0  0  0
  1 16  1  0  0  0  0
  5  6  1  6  0  0  0
  5  7  1  0  0  0  0
  5 14  1  0  0  0  0
  7  8  1  1  0  0  0
  7  9  1  0  0  0  0
  9 10  1  6  0  0  0
  9 11  1  0  0  0  0
 11 12  1  6  0  0  0
 11 13  1  0  0  0  0
 13 14  1  0  0  0  0
 13 15  1  6  0  0  0
 15 16  1  0  0  0  0
M  CHG  1   3  -1
M  END
>  <CHROM.1>
58.54299163,-178.62309702,-59.68052885,48.76512771,11.55013138,15.69338783
-0.18619734,-0.13379246,2.11057155

>  <Name>
ligand

>  <RI>
0

>  <Rbt.Current_Directory>
/home/itssahil/PROJECTS/Mol_Feturizer/New_Systems/rnas/3B4C

>  <Rbt.Executable>
rbdock ($Id: //depot/dev/client3/rdock/2013.1/src/exe/rbdock.cxx#4 $)

>  <Rbt.Library>
libRbt.so (2013.1, Build901 2013/11/27)

>  <Rbt.Parameter_File>
/export/apps/rDock/src/rDock_2013.1_src/data/scripts/dock_solv.prm

>  <Rbt.Receptor>
prm/pocket_docking_2.prm

>  <SCORE>
-11.2233

>  <SCORE.INTER>
-9.51622

>  <SCORE.INTER.CONST>
1

>  <SCORE.INTER.POLAR>
-1.03923

>  <SCORE.INTER.ROT>
3

>  <SCORE.INTER.SOLV>
17.5959

>  <SCORE.INTER.VDW>
-14.3454

>  <SCORE.INTER.norm>
-0.594764

>  <SCORE.INTRA>
-1.70712

>  <SCORE.INTRA.DIHEDRAL>
-2.11246

>  <SCORE.INTRA.DIHEDRAL.0>
2.1318

>  <SCORE.INTRA.POLAR>
0

>  <SCORE.INTRA.POLAR.0>
0

>  <SCORE.INTRA.REPUL>
0

>  <SCORE.INTRA.REPUL.0>
0

>  <SCORE.INTRA.SOLV>
-0.807776

>  <SCORE.INTRA.SOLV.lig_0>
-58.6125

>  <SCORE.INTRA.VDW>
-0.247004

>  <SCORE.INTRA.VDW.0>
-0.432734

>  <SCORE.INTRA.norm>
-0.106695

>  <SCORE.RESTR>
0

>  <SCORE.RESTR.CAVITY>
0

>  <SCORE.RESTR.norm>
0

>  <SCORE.SYSTEM>
0

>  <SCORE.SYSTEM.CONST>
0

>  <SCORE.SYSTEM.DIHEDRAL>
0

>  <SCORE.SYSTEM.SOLV>
0

>  <SCORE.SYSTEM.norm>
0

>  <SCORE.heavy>
16

>  <SCORE.norm>
-0.701459

>  <RMSD>
1.035

$$$$
ligand
 OpenBabel11021811463D
libRbt.so/2013.1/901 2013/11/27
 16 16  0  0  0  0  0  0  0  0999 V2000
   52.1651   11.6106   15.7263 P   0  0  2  0  0  0  0  0  0  0  0  0
   52.6366   11.0368   17.0107 O   0  0  0  0  0  0  0  0  0  0  0  0
   52.6295   10.6628   14.5118 O   0  5  0  0  0  0  0  0  0  0  0  0
   52.8225   13.0697   15.5304 O   0  0  0  0  0  0  0  0  0  0  0  0
   46.7349   10.9365   17.5479 C   0  0  2  0  0  0  0  0  0  0  0  0
   46.1665    9.6312   17.3904 O   0  0  0  0  0  0  0  0  0  0  0  0
   46.0487   11.9510   16.5971 C   0  0  2  0  0  0  0  0  0  0  0  0
   44.6008   11.9962   16.8769 N   0  0  0  0  0  0  0  0  0  0  0  0
   46.2903   11.5033   15.1457 C   0  0  1  0  0  0  0  0  0  0  0  0
   45.6851   12.4279   14.2379 O   0  0  0  0  0  0  0  0  0  0  0  0
   47.7993   11.4703   14.9096 C   0  0  2  0  0  0  0  0  0  0  0  0
   48.0453   11.0558   13.5719 O   0  0  0  0  0  0  0  0  0  0  0  0
   48.4385   10.4646   15.9056 C   0  0  2  0  0  0  0  0  0  0  0  0
   48.1700   10.8736   17.2818 O   0  0  0  0  0  0  0  0  0  0  0  0
   49.9734   10.4015   15.7090 C   0  0  0  0  0  0  0  0  0  0  0  0
   50.5485   11.7203   15.7472 O   0  0  0  0  0  0  0  0  0  0  0  0
  1  2  1  1  0  0  0
  1  3  1  0  0  0  0
  1  4  2  0  0  0  0
  1 16  1  0  0  0  0
  5  6  1  6  0  0  0
  5  7  1  0  0  0  0
  5 14  1  0  0  0  0
  7  8  1  1  0  0  0
  7  9  1  0  0  0  0
  9 10  1  6  0  0  0
  9 11  1  0  0  0  0
 11 12  1  6  0  0  0
 11 13  1  0  0  0  0
 13 14  1  0  0  0  0
 13 15  1  1  0  0  0
 15 16  1  0  0  0  0
M  CHG  1   3  -1
M  END
>  <CHROM.1>
52.09446314,172.93710000,-69.15617934,48.99682507,11.32279636,15.83188171
-0.08059856,0.00294774,1.92280636

>  <Name>
ligand

>  <RI>
0

>  <Rbt.Current_Directory>
/home/itssahil/PROJECTS/Mol_Feturizer/New_Systems/rnas/3B4C

>  <Rbt.Executable>
rbdock ($Id: //depot/dev/client3/rdock/2013.1/src/exe/rbdock.cxx#4 $)

>  <Rbt.Library>
libRbt.so (2013.1, Build901 2013/11/27)

>  <Rbt.Parameter_File>
/export/apps/rDock/src/rDock_2013.1_src/data/scripts/dock_solv.prm

>  <Rbt.Receptor>
prm/pocket_docking_4.prm

>  <SCORE>
-11.8375

>  <SCORE.INTER>
-10.5263

>  <SCORE.INTER.CONST>
1

>  <SCORE.INTER.POLAR>
-1.29904

>  <SCORE.INTER.ROT>
3

>  <SCORE.INTER.SOLV>
17.898

>  <SCORE.INTER.VDW>
-14.2534

>  <SCORE.INTER.norm>
-0.657894

>  <SCORE.INTRA>
-1.31118

>  <SCORE.INTRA.DIHEDRAL>
-1.533

>  <SCORE.INTRA.DIHEDRAL.0>
2.1318

>  <SCORE.INTRA.POLAR>
0

>  <SCORE.INTRA.POLAR.0>
0

>  <SCORE.INTRA.REPUL>
0

>  <SCORE.INTRA.REPUL.0>
0

>  <SCORE.INTRA.SOLV>
-0.727339

>  <SCORE.INTRA.SOLV.lig_0>
-58.6125

>  <SCORE.INTRA.VDW>
-0.181009

>  <SCORE.INTRA.VDW.0>
-0.432734

>  <SCORE.INTRA.norm>
-0.0819488

>  <SCORE.RESTR>
0

>  <SCORE.RESTR.CAVITY>
0

>  <SCORE.RESTR.norm>
0

>  <SCORE.SYSTEM>
0

>  <SCORE.SYSTEM.CONST>
0

>  <SCORE.SYSTEM.DIHEDRAL>
0

>  <SCORE.SYSTEM.SOLV>
0

>  <SCORE.SYSTEM.norm>
0

>  <SCORE.heavy>
16

>  <SCORE.norm>
-0.739843

>  <RMSD>
1.035

$$$$
ligand
 OpenBabel11021811463D
libRbt.so/2013.1/901 2013/11/27
 16 16  0  0  0  0  0  0  0  0999 V2000
   51.8563   11.7940   15.0508 P   0  0  2  0  0  0  0  0  0  0  0  0
   51.8830   11.6287   13.5766 O   0  0  0  0  0  0  0  0  0  0  0  0
   52.6385   13.1408   15.4546 O   0  5  0  0  0  0  0  0  0  0  0  0
   52.5974   10.5354   15.7336 O   0  0  0  0  0  0  0  0  0  0  0  0
   46.7940   10.9532   17.7145 C   0  0  2  0  0  0  0  0  0  0  0  0
   46.1571    9.6915   17.4813 O   0  0  0  0  0  0  0  0  0  0  0  0
   45.9953   12.1017   17.0459 C   0  0  2  0  0  0  0  0  0  0  0  0
   44.6191   12.1274   17.5771 N   0  0  0  0  0  0  0  0  0  0  0  0
   45.9684   11.8606   15.5271 C   0  0  1  0  0  0  0  0  0  0  0  0
   45.2534   12.9129   14.8740 O   0  0  0  0  0  0  0  0  0  0  0  0
   47.4126   11.8399   15.0295 C   0  0  2  0  0  0  0  0  0  0  0  0
   47.4107   11.6154   13.6254 O   0  0  0  0  0  0  0  0  0  0  0  0
   48.1731   10.6943   15.7516 C   0  0  2  0  0  0  0  0  0  0  0  0
   48.1591   10.9082   17.1964 O   0  0  0  0  0  0  0  0  0  0  0  0
   49.6484   10.6379   15.2839 C   0  0  0  0  0  0  0  0  0  0  0  0
   50.3188   11.8824   15.5547 O   0  0  0  0  0  0  0  0  0  0  0  0
  1  2  1  6  0  0  0
  1  3  1  0  0  0  0
  1  4  2  0  0  0  0
  1 16  1  0  0  0  0
  5  6  1  6  0  0  0
  5  7  1  0  0  0  0
  5 14  1  0  0  0  0
  7  8  1  1  0  0  0
  7  9  1  0  0  0  0
  9 10  1  6  0  0  0
  9 11  1  0  0  0  0
 11 12  1  6  0  0  0
 11 13  1  0  0  0  0
 13 14  1  0  0  0  0
 13 15  1  6  0  0  0
 15 16  1  0  0  0  0
M  CHG  1   3  -1
M  END
>  <CHROM.1>
59.21469863,-179.82731816,64.20202979,48.74674236,11.54043065,15.70053903
-0.22296384,-0.09722735,2.07118209

>  <Name>
ligand

>  <RI>
0

>  <Rbt.Current_Directory>
/home/itssahil/PROJECTS/Mol_Feturizer/New_Systems/rnas/3B4C

>  <Rbt.Executable>
rbdock ($Id: //depot/dev/client3/rdock/2013.1/src/exe/rbdock.cxx#4 $)

>  <Rbt.Library>
libRbt.so (2013.1, Build901 2013/11/27)

>  <Rbt.Parameter_File>
/export/apps/rDock/src/rDock_2013.1_src/data/scripts/dock_solv.prm

>  <Rbt.Receptor>
prm/pocket_docking_2.prm

>  <SCORE>
-11.6919

>  <SCORE.INTER>
-9.97926

>  <SCORE.INTER.CONST>
1

>  <SCORE.INTER.POLAR>
-1.29639

>  <SCORE.INTER.ROT>
3

>  <SCORE.INTER.SOLV>
19.7268

>  <SCORE.INTER.VDW>
-14.5071

>  <SCORE.INTER.norm>
-0.623704

>  <SCORE.INTRA>
-1.71267

>  <SCORE.INTRA.DIHEDRAL>
-2.09699

>  <SCORE.INTRA.DIHEDRAL.0>
2.1318

>  <SCORE.INTRA.POLAR>
0

>  <SCORE.INTRA.POLAR.0>
0

>  <SCORE.INTRA.REPUL>
0

>  <SCORE.INTRA.REPUL.0>
0

>  <SCORE.INTRA.SOLV>
-0.776422

>  <SCORE.INTRA.SOLV.lig_0>
-58.6125

>  <SCORE.INTRA.VDW>
-0.275961

>  <SCORE.INTRA.VDW.0>
-0.432734

>  <SCORE.INTRA.norm>
-0.107042

>  <SCORE.RESTR>
0

>  <SCORE.RESTR.CAVITY>
0

>  <SCORE.RESTR.norm>
0

>  <SCORE.SYSTEM>
0

>  <SCORE.SYSTEM.CONST>
0

>  <SCORE.SYSTEM.DIHEDRAL>
0

>  <SCORE.SYSTEM.SOLV>
0

>  <SCORE.SYSTEM.norm>
0

>  <SCORE.heavy>
16

>  <SCORE.norm>
-0.730746

>  <RMSD>
1.036

$$$$
ligand
 OpenBabel11021811463D
libRbt.so/2013.1/901 2013/11/27
 16 16  0  0  0  0  0  0  0  0999 V2000
   51.8640   11.7254   15.0712 P   0  0  2  0  0  0  0  0  0  0  0  0
   51.8509   11.4714   13.6094 O   0  0  0  0  0  0  0  0  0  0  0  0
   52.6276   13.1099   15.3691 O   0  5  0  0  0  0  0  0  0  0  0  0
   52.6526   10.5259   15.8052 O   0  0  0  0  0  0  0  0  0  0  0  0
   46.7922   10.9656   17.7191 C   0  0  2  0  0  0  0  0  0  0  0  0
   46.1464    9.7054   17.5032 O   0  0  0  0  0  0  0  0  0  0  0  0
   45.9994   12.1110   17.0383 C   0  0  2  0  0  0  0  0  0  0  0  0
   44.6249   12.1525   17.5728 N   0  0  0  0  0  0  0  0  0  0  0  0
   45.9667   11.8511   15.5227 C   0  0  1  0  0  0  0  0  0  0  0  0
   45.2570   12.9000   14.8584 O   0  0  0  0  0  0  0  0  0  0  0  0
   47.4094   11.8146   15.0215 C   0  0  2  0  0  0  0  0  0  0  0  0
   47.4022   11.5728   13.6204 O   0  0  0  0  0  0  0  0  0  0  0  0
   48.1642   10.6731   15.7559 C   0  0  2  0  0  0  0  0  0  0  0  0
   48.1556   10.9050   17.1979 O   0  0  0  0  0  0  0  0  0  0  0  0
   49.6379   10.6010   15.2850 C   0  0  0  0  0  0  0  0  0  0  0  0
   50.3404   11.8129   15.6158 O   0  0  0  0  0  0  0  0  0  0  0  0
  1  2  1  6  0  0  0
  1  3  1  0  0  0  0
  1  4  2  0  0  0  0
  1 16  1  0  0  0  0
  5  6  1  6  0  0  0
  5  7  1  0  0  0  0
  5 14  1  0  0  0  0
  7  8  1  1  0  0  0
  7  9  1  0  0  0  0
  9 10  1  6  0  0  0
  9 11  1  0  0  0  0
 11 12  1  6  0  0  0
 11 13  1  0  0  0  0
 13 14  1  0  0  0  0
 13 15  1  6  0  0  0
 15 16  1  0  0  0  0
M  CHG  1   3  -1
M  END
>  <CHROM.1>
62.90407400,-178.27808746,56.79069080,48.74776044,11.50976936,15.70754267
-0.21465647,-0.10216092,2.05521306

>  <Name>
ligand

>  <RI>
0

>  <Rbt.Current_Directory>
/home/itssahil/PROJECTS/Mol_Feturizer/New_Systems/rnas/3B4C

>  <Rbt.Executable>
rbdock ($Id: //depot/dev/client3/rdock/2013.1/src/exe/rbdock.cxx#4 $)

>  <Rbt.Library>
libRbt.so (2013.1, Build901 2013/11/27)

>  <Rbt.Parameter_File>
/export/apps/rDock/src/rDock_2013.1_src/data/scripts/dock_solv.prm

>  <Rbt.Receptor>
prm/pocket_docking_4.prm

>  <SCORE>
-11.6661

>  <SCORE.INTER>
-9.95369

>  <SCORE.INTER.CONST>
1

>  <SCORE.INTER.POLAR>
-1.29904

>  <SCORE.INTER.ROT>
3

>  <SCORE.INTER.SOLV>
19.8219

>  <SCORE.INTER.VDW>
-14.513

>  <SCORE.INTER.norm>
-0.622106

>  <SCORE.INTRA>
-1.71243

>  <SCORE.INTRA.DIHEDRAL>
-2.06729

>  <SCORE.INTRA.DIHEDRAL.0>
2.1318

>  <SCORE.INTRA.POLAR>
0

>  <SCORE.INTRA.POLAR.0>
0

>  <SCORE.INTRA.REPUL>
0

>  <SCORE.INTRA.REPUL.0>
0

>  <SCORE.INTRA.SOLV>
-0.856501

>  <SCORE.INTRA.SOLV.lig_0>
-58.6125

>  <SCORE.INTRA.VDW>
-0.25054

>  <SCORE.INTRA.VDW.0>
-0.432734

>  <SCORE.INTRA.norm>
-0.107027

>  <SCORE.RESTR>
0

>  <SCORE.RESTR.CAVITY>
0

>  <SCORE.RESTR.norm>
0

>  <SCORE.SYSTEM>
0

>  <SCORE.SYSTEM.CONST>
0

>  <SCORE.SYSTEM.DIHEDRAL>
0

>  <SCORE.SYSTEM.SOLV>
0

>  <SCORE.SYSTEM.norm>
0

>  <SCORE.heavy>
16

>  <SCORE.norm>
-0.729133

>  <RMSD>
1.036

$$$$
ligand
 OpenBabel11021811463D
libRbt.so/2013.1/901 2013/11/27
 16 16  0  0  0  0  0  0  0  0999 V2000
   51.5720   11.5676   15.5693 P   0  0  2  0  0  0  0  0  0  0  0  0
   51.3925   12.8330   14.8156 O   0  0  0  0  0  0  0  0  0  0  0  0
   52.6326   11.7959   16.7575 O   0  5  0  0  0  0  0  0  0  0  0  0
   52.1427   10.4381   14.5702 O   0  0  0  0  0  0  0  0  0  0  0  0
   46.1643   10.3349   17.1920 C   0  0  2  0  0  0  0  0  0  0  0  0
   45.3433    9.6205   16.2606 O   0  0  0  0  0  0  0  0  0  0  0  0
   45.7535   11.8288   17.2506 C   0  0  2  0  0  0  0  0  0  0  0  0
   44.3353   11.9412   17.6414 N   0  0  0  0  0  0  0  0  0  0  0  0
   45.9667   12.4507   15.8601 C   0  0  1  0  0  0  0  0  0  0  0  0
   45.6141   13.8365   15.8812 O   0  0  0  0  0  0  0  0  0  0  0  0
   47.4450   12.3060   15.5029 C   0  0  2  0  0  0  0  0  0  0  0  0
   47.6639   12.8734   14.2176 O   0  0  0  0  0  0  0  0  0  0  0  0
   47.8096   10.7964   15.4884 C   0  0  2  0  0  0  0  0  0  0  0  0
   47.5656   10.2030   16.8006 O   0  0  0  0  0  0  0  0  0  0  0  0
   49.3050   10.5986   15.1371 C   0  0  0  0  0  0  0  0  0  0  0  0
   50.1484   11.1034   16.1885 O   0  0  0  0  0  0  0  0  0  0  0  0
  1  2  1  6  0  0  0
  1  3  1  0  0  0  0
  1  4  2  0  0  0  0
  1 16  1  0  0  0  0
  5  6  1  6  0  0  0
  5  7  1  0  0  0  0
  5 14  1  0  0  0  0
  7  8  1  6  0  0  0
  7  9  1  0  0  0  0
  9 10  1  1  0  0  0
  9 11  1  0  0  0  0
 11 12  1  6  0  0  0
 11 13  1  0  0  0  0
 13 14  1  0  0  0  0
 13 15  1  1  0  0  0
 15 16  1  0  0  0  0
M  CHG  1   3  -1
M  END
>  <CHROM.1>
67.43928600,-152.22738528,73.35080882,48.49322315,11.53852936,15.89791251
0.04690082,0.17096408,-0.39320811

>  <Name>
ligand

>  <RI>
0

>  <Rbt.Current_Directory>
/home/itssahil/PROJECTS/Mol_Feturizer/New_Systems/rnas/3B4C

>  <Rbt.Executable>
rbdock ($Id: //depot/dev/client3/rdock/2013.1/src/exe/rbdock.cxx#4 $)

>  <Rbt.Library>
libRbt.so (2013.1, Build901 2013/11/27)

>  <Rbt.Parameter_File>
/export/apps/rDock/src/rDock_2013.1_src/data/scripts/dock_solv.prm

>  <Rbt.Receptor>
prm/pocket_docking_4.prm

>  <SCORE>
-10.5294

>  <SCORE.INTER>
-10.6631

>  <SCORE.INTER.CONST>
1

>  <SCORE.INTER.POLAR>
-1.29904

>  <SCORE.INTER.ROT>
3

>  <SCORE.INTER.SOLV>
20.5436

>  <SCORE.INTER.VDW>
-15.2265

>  <SCORE.INTER.norm>
-0.666447

>  <SCORE.INTRA>
0.133723

>  <SCORE.INTRA.DIHEDRAL>
1.53688

>  <SCORE.INTRA.DIHEDRAL.0>
2.1318

>  <SCORE.INTRA.POLAR>
0

>  <SCORE.INTRA.POLAR.0>
0

>  <SCORE.INTRA.REPUL>
0

>  <SCORE.INTRA.REPUL.0>
0

>  <SCORE.INTRA.SOLV>
-0.514066

>  <SCORE.INTRA.SOLV.lig_0>
-58.6125

>  <SCORE.INTRA.VDW>
-0.377684

>  <SCORE.INTRA.VDW.0>
-0.432734

>  <SCORE.INTRA.norm>
0.00835767

>  <SCORE.RESTR>
0

>  <SCORE.RESTR.CAVITY>
0

>  <SCORE.RESTR.norm>
0

>  <SCORE.SYSTEM>
0

>  <SCORE.SYSTEM.CONST>
0

>  <SCORE.SYSTEM.DIHEDRAL>
0

>  <SCORE.SYSTEM.SOLV>
0

>  <SCORE.SYSTEM.norm>
0

>  <SCORE.heavy>
16

>  <SCORE.norm>
-0.658089

>  <RMSD>
1.044

$$$$
ligand
 OpenBabel11021811463D
libRbt.so/2013.1/901 2013/11/27
 16 16  0  0  0  0  0  0  0  0999 V2000
   51.8658   11.7623   15.0007 P   0  0  2  0  0  0  0  0  0  0  0  0
   51.8733   11.5248   13.5362 O   0  0  0  0  0  0  0  0  0  0  0  0
   52.6411   13.1341   15.3264 O   0  5  0  0  0  0  0  0  0  0  0  0
   52.6282   10.5453   15.7337 O   0  0  0  0  0  0  0  0  0  0  0  0
   46.8398   10.9699   17.7002 C   0  0  2  0  0  0  0  0  0  0  0  0
   46.1959    9.7086   17.4848 O   0  0  0  0  0  0  0  0  0  0  0  0
   46.0267   12.1182   17.0488 C   0  0  2  0  0  0  0  0  0  0  0  0
   44.6638   12.1467   17.6131 N   0  0  0  0  0  0  0  0  0  0  0  0
   45.9629   11.8742   15.5316 C   0  0  1  0  0  0  0  0  0  0  0  0
   45.2337   12.9262   14.8939 O   0  0  0  0  0  0  0  0  0  0  0  0
   47.3946   11.8507   14.9993 C   0  0  2  0  0  0  0  0  0  0  0  0
   47.3586   11.6235   13.5961 O   0  0  0  0  0  0  0  0  0  0  0  0
   48.1709   10.7055   15.7051 C   0  0  2  0  0  0  0  0  0  0  0  0
   48.1920   10.9221   17.1494 O   0  0  0  0  0  0  0  0  0  0  0  0
   49.6344   10.6462   15.2020 C   0  0  0  0  0  0  0  0  0  0  0  0
   50.3348   11.8622   15.5219 O   0  0  0  0  0  0  0  0  0  0  0  0
  1  2  1  6  0  0  0
  1  3  1  0  0  0  0
  1  4  2  0  0  0  0
  1 16  1  0  0  0  0
  5  6  1  6  0  0  0
  5  7  1  0  0  0  0
  5 14  1  0  0  0  0
  7  8  1  1  0  0  0
  7  9  1  0  0  0  0
  9 10  1  6  0  0  0
  9 11  1  0  0  0  0
 11 12  1  6  0  0  0
 11 13  1  0  0  0  0
 13 14  1  0  0  0  0
 13 15  1  6  0  0  0
 15 16  1  0  0  0  0
M  CHG  1   3  -1
M  END
>  <CHROM.1>
62.47599499,179.27133914,58.52288717,48.75479648,11.53725848,15.67135857
-0.22617117,-0.10537900,2.05782893

>  <Name>
ligand

>  <RI>
0

>  <Rbt.Current_Directory>
/home/itssahil/PROJECTS/Mol_Feturizer/New_Systems/rnas/3B4C

>  <Rbt.Executable>
rbdock ($Id: //depot/dev/client3/rdock/2013.1/src/exe/rbdock.cxx#4 $)

>  <Rbt.Library>
libRbt.so (2013.1, Build901 2013/11/27)

>  <Rbt.Parameter_File>
/export/apps/rDock/src/rDock_2013.1_src/data/scripts/dock_solv.prm

>  <Rbt.Receptor>
prm/pocket_docking_4.prm

>  <SCORE>
-11.6207

>  <SCORE.INTER>
-9.89487

>  <SCORE.INTER.CONST>
1

>  <SCORE.INTER.POLAR>
-1.29904

>  <SCORE.INTER.ROT>
3

>  <SCORE.INTER.SOLV>
19.5485

>  <SCORE.INTER.VDW>
-14.3826

>  <SCORE.INTER.norm>
-0.61843

>  <SCORE.INTRA>
-1.72587

>  <SCORE.INTRA.DIHEDRAL>
-2.10054

>  <SCORE.INTRA.DIHEDRAL.0>
2.1318

>  <SCORE.INTRA.POLAR>
0

>  <SCORE.INTRA.POLAR.0>
0

>  <SCORE.INTRA.REPUL>
0

>  <SCORE.INTRA.REPUL.0>
0

>  <SCORE.INTRA.SOLV>
-0.83092

>  <SCORE.INTRA.SOLV.lig_0>
-58.6125

>  <SCORE.INTRA.VDW>
-0.26014

>  <SCORE.INTRA.VDW.0>
-0.432734

>  <SCORE.INTRA.norm>
-0.107867

>  <SCORE.RESTR>
0

>  <SCORE.RESTR.CAVITY>
0

>  <SCORE.RESTR.norm>
0

>  <SCORE.SYSTEM>
0

>  <SCORE.SYSTEM.CONST>
0

>  <SCORE.SYSTEM.DIHEDRAL>
0

>  <SCORE.SYSTEM.SOLV>
0

>  <SCORE.SYSTEM.norm>
0

>  <SCORE.heavy>
16

>  <SCORE.norm>
-0.726297

>  <RMSD>
1.044

$$$$
ligand
 OpenBabel11021811463D
libRbt.so/2013.1/901 2013/11/27
 16 16  0  0  0  0  0  0  0  0999 V2000
   51.8551   11.7709   15.0368 P   0  0  2  0  0  0  0  0  0  0  0  0
   51.8767   11.5658   13.5675 O   0  0  0  0  0  0  0  0  0  0  0  0
   52.6613   13.1142   15.4036 O   0  5  0  0  0  0  0  0  0  0  0  0
   52.5751   10.5182   15.7522 O   0  0  0  0  0  0  0  0  0  0  0  0
   46.7273   10.9996   17.6125 C   0  0  2  0  0  0  0  0  0  0  0  0
   46.0302    9.7918   17.2856 O   0  0  0  0  0  0  0  0  0  0  0  0
   45.9983   12.2313   17.0163 C   0  0  2  0  0  0  0  0  0  0  0  0
   44.6177   12.2921   17.5331 N   0  0  0  0  0  0  0  0  0  0  0  0
   45.9810   12.0965   15.4843 C   0  0  1  0  0  0  0  0  0  0  0  0
   45.3303   13.2270   14.8979 O   0  0  0  0  0  0  0  0  0  0  0  0
   47.4293   12.0349   15.0022 C   0  0  2  0  0  0  0  0  0  0  0  0
   47.4362   11.9076   13.5860 O   0  0  0  0  0  0  0  0  0  0  0  0
   48.1196   10.8045   15.6515 C   0  0  2  0  0  0  0  0  0  0  0  0
   48.0957   10.9192   17.1074 O   0  0  0  0  0  0  0  0  0  0  0  0
   49.5967   10.7035   15.1971 C   0  0  0  0  0  0  0  0  0  0  0  0
   50.3201   11.8997   15.5396 O   0  0  0  0  0  0  0  0  0  0  0  0
  1  2  1  6  0  0  0
  1  3  1  0  0  0  0
  1  4  2  0  0  0  0
  1 16  1  0  0  0  0
  5  6  1  6  0  0  0
  5  7  1  0  0  0  0
  5 14  1  0  0  0  0
  7  8  1  1  0  0  0
  7  9  1  0  0  0  0
  9 10  1  6  0  0  0
  9 11  1  0  0  0  0
 11 12  1  6  0  0  0
 11 13  1  0  0  0  0
 13 14  1  0  0  0  0
 13 15  1  6  0  0  0
 15 16  1  0  0  0  0
M  CHG  1   3  -1
M  END
>  <CHROM.1>
58.19705612,-179.34374833,59.19465381,48.73325066,11.62729488,15.65331075
-0.19184491,-0.13676277,2.14905653

>  <Name>
ligand

>  <RI>
0

>  <Rbt.Current_Directory>
/home/itssahil/PROJECTS/Mol_Feturizer/New_Systems/rnas/3B4C

>  <Rbt.Executable>
rbdock ($Id: //depot/dev/client3/rdock/2013.1/src/exe/rbdock.cxx#4 $)

>  <Rbt.Library>
libRbt.so (2013.1, Build901 2013/11/27)

>  <Rbt.Parameter_File>
/export/apps/rDock/src/rDock_2013.1_src/data/scripts/dock_solv.prm

>  <Rbt.Receptor>
prm/pocket_docking_2.prm

>  <SCORE>
-11.6066

>  <SCORE.INTER>
-9.88236

>  <SCORE.INTER.CONST>
1

>  <SCORE.INTER.POLAR>
-1.29904

>  <SCORE.INTER.ROT>
3

>  <SCORE.INTER.SOLV>
19.0307

>  <SCORE.INTER.VDW>
-14.2017

>  <SCORE.INTER.norm>
-0.617647

>  <SCORE.INTRA>
-1.72426

>  <SCORE.INTRA.DIHEDRAL>
-2.11516

>  <SCORE.INTRA.DIHEDRAL.0>
2.1318

>  <SCORE.INTRA.POLAR>
0

>  <SCORE.INTRA.POLAR.0>
0

>  <SCORE.INTRA.REPUL>
0

>  <SCORE.INTRA.REPUL.0>
0

>  <SCORE.INTRA.SOLV>
-0.826712

>  <SCORE.INTRA.SOLV.lig_0>
-58.6125

>  <SCORE.INTRA.VDW>
-0.25332

>  <SCORE.INTRA.VDW.0>
-0.432734

>  <SCORE.INTRA.norm>
-0.107766

>  <SCORE.RESTR>
0

>  <SCORE.RESTR.CAVITY>
0

>  <SCORE.RESTR.norm>
0

>  <SCORE.SYSTEM>
0

>  <SCORE.SYSTEM.CONST>
0

>  <SCORE.SYSTEM.DIHEDRAL>
0

>  <SCORE.SYSTEM.SOLV>
0

>  <SCORE.SYSTEM.norm>
0

>  <SCORE.heavy>
16

>  <SCORE.norm>
-0.725414

>  <RMSD>
1.049

$$$$
ligand
 OpenBabel11021811463D
libRbt.so/2013.1/901 2013/11/27
 16 16  0  0  0  0  0  0  0  0999 V2000
   51.8689   11.8115   15.0017 P   0  0  2  0  0  0  0  0  0  0  0  0
   51.8292   11.6078   13.5326 O   0  0  0  0  0  0  0  0  0  0  0  0
   52.6743   13.1639   15.3350 O   0  5  0  0  0  0  0  0  0  0  0  0
   52.6339   10.5669   15.6837 O   0  0  0  0  0  0  0  0  0  0  0  0
   46.6724   10.9876   17.5857 C   0  0  2  0  0  0  0  0  0  0  0  0
   45.9526    9.8211   17.1697 O   0  0  0  0  0  0  0  0  0  0  0  0
   46.0150   12.2699   17.0133 C   0  0  2  0  0  0  0  0  0  0  0  0
   44.6133   12.3563   17.4656 N   0  0  0  0  0  0  0  0  0  0  0  0
   46.0691   12.2049   15.4777 C   0  0  1  0  0  0  0  0  0  0  0  0
   45.4862   13.3830   14.9141 O   0  0  0  0  0  0  0  0  0  0  0  0
   47.5367   12.1138   15.0631 C   0  0  2  0  0  0  0  0  0  0  0  0
   47.6095   12.0502   13.6445 O   0  0  0  0  0  0  0  0  0  0  0  0
   48.1528   10.8317   15.6867 C   0  0  2  0  0  0  0  0  0  0  0  0
   48.0607   10.8816   17.1436 O   0  0  0  0  0  0  0  0  0  0  0  0
   49.6465   10.6990   15.2994 C   0  0  0  0  0  0  0  0  0  0  0  0
   50.3557   11.9217   15.5707 O   0  0  0  0  0  0  0  0  0  0  0  0
  1  2  1  6  0  0  0
  1  3  1  0  0  0  0
  1  4  2  0  0  0  0
  1 16  1  0  0  0  0
  5  6  1  6  0  0  0
  5  7  1  0  0  0  0
  5 14  1  0  0  0  0
  7  8  1  6  0  0  0
  7  9  1  0  0  0  0
  9 10  1  6  0  0  0
  9 11  1  0  0  0  0
 11 12  1  6  0  0  0
 11 13  1  0  0  0  0
 13 14  1  0  0  0  0
 13 15  1  1  0  0  0
 15 16  1  0  0  0  0
M  CHG  1   3  -1
M  END
>  <CHROM.1>
50.57265836,-173.57642813,61.18776300,48.76484671,11.67677587,15.64475739
0.18707418,0.15824793,-0.90724042

>  <Name>
ligand

>  <RI>
0

>  <Rbt.Current_Directory>
/home/itssahil/PROJECTS/Mol_Feturizer/New_Systems/rnas/3B4C

>  <Rbt.Executable>
rbdock ($Id: //depot/dev/client3/rdock/2013.1/src/exe/rbdock.cxx#4 $)

>  <Rbt.Library>
libRbt.so (2013.1, Build901 2013/11/27)

>  <Rbt.Parameter_File>
/export/apps/rDock/src/rDock_2013.1_src/data/scripts/dock_solv.prm

>  <Rbt.Receptor>
prm/pocket_docking_3.prm

>  <SCORE>
-11.2868

>  <SCORE.INTER>
-9.86026

>  <SCORE.INTER.CONST>
1

>  <SCORE.INTER.POLAR>
-1.29904

>  <SCORE.INTER.ROT>
3

>  <SCORE.INTER.SOLV>
18.5772

>  <SCORE.INTER.VDW>
-14.0358

>  <SCORE.INTER.norm>
-0.616266

>  <SCORE.INTRA>
-1.42651

>  <SCORE.INTRA.DIHEDRAL>
-1.61304

>  <SCORE.INTRA.DIHEDRAL.0>
2.1318

>  <SCORE.INTRA.POLAR>
0

>  <SCORE.INTRA.POLAR.0>
0

>  <SCORE.INTRA.REPUL>
0

>  <SCORE.INTRA.REPUL.0>
0

>  <SCORE.INTRA.SOLV>
-0.794403

>  <SCORE.INTRA.SOLV.lig_0>
-58.6125

>  <SCORE.INTRA.VDW>
-0.222791

>  <SCORE.INTRA.VDW.0>
-0.432734

>  <SCORE.INTRA.norm>
-0.0891571

>  <SCORE.RESTR>
0

>  <SCORE.RESTR.CAVITY>
0

>  <SCORE.RESTR.norm>
0

>  <SCORE.SYSTEM>
0

>  <SCORE.SYSTEM.CONST>
0

>  <SCORE.SYSTEM.DIHEDRAL>
0

>  <SCORE.SYSTEM.SOLV>
0

>  <SCORE.SYSTEM.norm>
0

>  <SCORE.heavy>
16

>  <SCORE.norm>
-0.705424

>  <RMSD>
1.049

$$$$
ligand
 OpenBabel11021811463D
libRbt.so/2013.1/901 2013/11/27
 16 16  0  0  0  0  0  0  0  0999 V2000
   52.1614   11.6066   15.7303 P   0  0  2  0  0  0  0  0  0  0  0  0
   52.6180   11.0236   17.0160 O   0  0  0  0  0  0  0  0  0  0  0  0
   52.6393   10.6671   14.5146 O   0  5  0  0  0  0  0  0  0  0  0  0
   52.8217   13.0667   15.5522 O   0  0  0  0  0  0  0  0  0  0  0  0
   46.7184   11.0164   17.5142 C   0  0  2  0  0  0  0  0  0  0  0  0
   46.1547    9.7029   17.4209 O   0  0  0  0  0  0  0  0  0  0  0  0
   46.0351   11.9783   16.5083 C   0  0  2  0  0  0  0  0  0  0  0  0
   44.5854   12.0332   16.7767 N   0  0  0  0  0  0  0  0  0  0  0  0
   46.2868   11.4571   15.0834 C   0  0  1  0  0  0  0  0  0  0  0  0
   45.6846   12.3317   14.1255 O   0  0  0  0  0  0  0  0  0  0  0  0
   47.7973   11.4168   14.8583 C   0  0  2  0  0  0  0  0  0  0  0  0
   48.0527   10.9346   13.5452 O   0  0  0  0  0  0  0  0  0  0  0  0
   48.4333   10.4659   15.9086 C   0  0  2  0  0  0  0  0  0  0  0  0
   48.1552   10.9444   17.2603 O   0  0  0  0  0  0  0  0  0  0  0  0
   49.9696   10.3977   15.7248 C   0  0  0  0  0  0  0  0  0  0  0  0
   50.5448   11.7170   15.7335 O   0  0  0  0  0  0  0  0  0  0  0  0
  1  2  1  1  0  0  0
  1  3  1  0  0  0  0
  1  4  2  0  0  0  0
  1 16  1  0  0  0  0
  5  6  1  6  0  0  0
  5  7  1  0  0  0  0
  5 14  1  0  0  0  0
  7  8  1  1  0  0  0
  7  9  1  0  0  0  0
  9 10  1  6  0  0  0
  9 11  1  0  0  0  0
 11 12  1  6  0  0  0
 11 13  1  0  0  0  0
 13 14  1  0  0  0  0
 13 15  1  6  0  0  0
 15 16  1  0  0  0  0
M  CHG  1   3  -1
M  END
>  <CHROM.1>
53.60753422,172.81348057,-67.24333517,48.99110378,11.31887787,15.80840865
-0.06851935,0.00927166,1.86540277

>  <Name>
ligand

>  <RI>
0

>  <Rbt.Current_Directory>
/home/itssahil/PROJECTS/Mol_Feturizer/New_Systems/rnas/3B4C

>  <Rbt.Executable>
rbdock ($Id: //depot/dev/client3/rdock/2013.1/src/exe/rbdock.cxx#4 $)

>  <Rbt.Library>
libRbt.so (2013.1, Build901 2013/11/27)

>  <Rbt.Parameter_File>
/export/apps/rDock/src/rDock_2013.1_src/data/scripts/dock_solv.prm

>  <Rbt.Receptor>
prm/pocket_docking_4.prm

>  <SCORE>
-11.837

>  <SCORE.INTER>
-10.4312

>  <SCORE.INTER.CONST>
1

>  <SCORE.INTER.POLAR>
-1.29904

>  <SCORE.INTER.ROT>
3

>  <SCORE.INTER.SOLV>
17.7244

>  <SCORE.INTER.VDW>
-14.1321

>  <SCORE.INTER.norm>
-0.651952

>  <SCORE.INTRA>
-1.40579

>  <SCORE.INTRA.DIHEDRAL>
-1.64992

>  <SCORE.INTRA.DIHEDRAL.0>
2.1318

>  <SCORE.INTRA.POLAR>
0

>  <SCORE.INTRA.POLAR.0>
0

>  <SCORE.INTRA.REPUL>
0

>  <SCORE.INTRA.REPUL.0>
0

>  <SCORE.INTRA.SOLV>
-0.747958

>  <SCORE.INTRA.SOLV.lig_0>
-58.6125

>  <SCORE.INTRA.VDW>
-0.206851

>  <SCORE.INTRA.VDW.0>
-0.432734

>  <SCORE.INTRA.norm>
-0.0878619

>  <SCORE.RESTR>
0

>  <SCORE.RESTR.CAVITY>
0

>  <SCORE.RESTR.norm>
0

>  <SCORE.SYSTEM>
0

>  <SCORE.SYSTEM.CONST>
0

>  <SCORE.SYSTEM.DIHEDRAL>
0

>  <SCORE.SYSTEM.SOLV>
0

>  <SCORE.SYSTEM.norm>
0

>  <SCORE.heavy>
16

>  <SCORE.norm>
-0.739814

>  <RMSD>
1.051

$$$$
ligand
 OpenBabel11021811463D
libRbt.so/2013.1/901 2013/11/27
 16 16  0  0  0  0  0  0  0  0999 V2000
   52.2293   11.5762   15.8958 P   0  0  2  0  0  0  0  0  0  0  0  0
   52.6244   10.8824   17.1463 O   0  0  0  0  0  0  0  0  0  0  0  0
   52.6938   10.7026   14.6270 O   0  5  0  0  0  0  0  0  0  0  0  0
   52.9621   13.0112   15.8379 O   0  0  0  0  0  0  0  0  0  0  0  0
   46.6995   10.9681   17.4619 C   0  0  2  0  0  0  0  0  0  0  0  0
   46.0736    9.7258   17.1203 O   0  0  0  0  0  0  0  0  0  0  0  0
   46.1082   12.1287   16.6208 C   0  0  2  0  0  0  0  0  0  0  0  0
   44.6534   12.2193   16.8491 N   0  0  0  0  0  0  0  0  0  0  0  0
   46.3912   11.8509   15.1348 C   0  0  1  0  0  0  0  0  0  0  0  0
   45.8743   12.9127   14.3282 O   0  0  0  0  0  0  0  0  0  0  0  0
   47.9056   11.7636   14.9537 C   0  0  2  0  0  0  0  0  0  0  0  0
   48.1896   11.5044   13.5848 O   0  0  0  0  0  0  0  0  0  0  0  0
   48.4485   10.6087   15.8389 C   0  0  2  0  0  0  0  0  0  0  0  0
   48.1400   10.8590   17.2445 O   0  0  0  0  0  0  0  0  0  0  0  0
   49.9855   10.4853   15.6942 C   0  0  0  0  0  0  0  0  0  0  0  0
   50.6202   11.7650   15.8704 O   0  0  0  0  0  0  0  0  0  0  0  0
  1  2  1  1  0  0  0
  1  3  1  0  0  0  0
  1  4  2  0  0  0  0
  1 16  1  0  0  0  0
  5  6  1  6  0  0  0
  5  7  1  0  0  0  0
  5 14  1  0  0  0  0
  7  8  1  6  0  0  0
  7  9  1  0  0  0  0
  9 10  1  6  0  0  0
  9 11  1  0  0  0  0
 11 12  1  6  0  0  0
 11 13  1  0  0  0  0
 13 14  1  0  0  0  0
 13 15  1  1  0  0  0
 15 16  1  0  0  0  0
M  CHG  1   3  -1
M  END
>  <CHROM.1>
49.96092408,173.07467316,-69.79121961,49.05086787,11.44315386,15.87569387
-0.03122340,-0.03084605,2.05571740

>  <Name>
ligand

>  <RI>
0

>  <Rbt.Current_Directory>
/home/itssahil/PROJECTS/Mol_Feturizer/New_Systems/rnas/3B4C

>  <Rbt.Executable>
rbdock ($Id: //depot/dev/client3/rdock/2013.1/src/exe/rbdock.cxx#4 $)

>  <Rbt.Library>
libRbt.so (2013.1, Build901 2013/11/27)

>  <Rbt.Parameter_File>
/export/apps/rDock/src/rDock_2013.1_src/data/scripts/dock_solv.prm

>  <Rbt.Receptor>
prm/pocket_docking_4.prm

>  <SCORE>
-11.7728

>  <SCORE.INTER>
-10.5646

>  <SCORE.INTER.CONST>
1

>  <SCORE.INTER.POLAR>
-1.2981

>  <SCORE.INTER.ROT>
3

>  <SCORE.INTER.SOLV>
17.689

>  <SCORE.INTER.VDW>
-14.2124

>  <SCORE.INTER.norm>
-0.660288

>  <SCORE.INTRA>
-1.20816

>  <SCORE.INTRA.DIHEDRAL>
-1.39078

>  <SCORE.INTRA.DIHEDRAL.0>
2.1318

>  <SCORE.INTRA.POLAR>
0

>  <SCORE.INTRA.POLAR.0>
0

>  <SCORE.INTRA.REPUL>
0

>  <SCORE.INTRA.REPUL.0>
0

>  <SCORE.INTRA.SOLV>
-0.719443

>  <SCORE.INTRA.SOLV.lig_0>
-58.6125

>  <SCORE.INTRA.VDW>
-0.153044

>  <SCORE.INTRA.VDW.0>
-0.432734

>  <SCORE.INTRA.norm>
-0.0755098

>  <SCORE.RESTR>
0

>  <SCORE.RESTR.CAVITY>
0

>  <SCORE.RESTR.norm>
0

>  <SCORE.SYSTEM>
0

>  <SCORE.SYSTEM.CONST>
0

>  <SCORE.SYSTEM.DIHEDRAL>
0

>  <SCORE.SYSTEM.SOLV>
0

>  <SCORE.SYSTEM.norm>
0

>  <SCORE.heavy>
16

>  <SCORE.norm>
-0.735798

>  <RMSD>
1.060

$$$$
ligand
 OpenBabel11021811463D
libRbt.so/2013.1/901 2013/11/27
 16 16  0  0  0  0  0  0  0  0999 V2000
   52.0340   11.5531   15.7409 P   0  0  2  0  0  0  0  0  0  0  0  0
   52.4570   10.9327   17.0206 O   0  0  0  0  0  0  0  0  0  0  0  0
   52.4185   10.5796   14.5189 O   0  5  0  0  0  0  0  0  0  0  0  0
   52.8094   12.9545   15.5556 O   0  0  0  0  0  0  0  0  0  0  0  0
   46.5956   11.0011   17.5512 C   0  0  2  0  0  0  0  0  0  0  0  0
   45.9134    9.7990   17.1751 O   0  0  0  0  0  0  0  0  0  0  0  0
   45.9880   12.2268   16.8215 C   0  0  2  0  0  0  0  0  0  0  0  0
   44.5534   12.3402   17.1468 N   0  0  0  0  0  0  0  0  0  0  0  0
   46.1702   12.0353   15.3064 C   0  0  1  0  0  0  0  0  0  0  0  0
   45.6361   13.1584   14.6003 O   0  0  0  0  0  0  0  0  0  0  0  0
   47.6673   11.9207   15.0245 C   0  0  2  0  0  0  0  0  0  0  0  0
   47.8585   11.7404   13.6271 O   0  0  0  0  0  0  0  0  0  0  0  0
   48.2296   10.6992   15.8016 C   0  0  2  0  0  0  0  0  0  0  0  0
   48.0160   10.8689   17.2365 O   0  0  0  0  0  0  0  0  0  0  0  0
   49.7504   10.5457   15.5523 C   0  0  0  0  0  0  0  0  0  0  0  0
   50.4321   11.7955   15.7641 O   0  0  0  0  0  0  0  0  0  0  0  0
  1  2  1  1  0  0  0
  1  3  1  0  0  0  0
  1  4  2  0  0  0  0
  1 16  1  0  0  0  0
  5  6  1  6  0  0  0
  5  7  1  0  0  0  0
  5 14  1  0  0  0  0
  7  8  1  6  0  0  0
  7  9  1  0  0  0  0
  9 10  1  6  0  0  0
  9 11  1  0  0  0  0
 11 12  1  6  0  0  0
 11 13  1  0  0  0  0
 13 14  1  0  0  0  0
 13 15  1  1  0  0  0
 15 16  1  0  0  0  0
M  CHG  1   3  -1
M  END
>  <CHROM.1>
49.90340925,170.58942243,-76.13392735,48.85774897,11.50905252,15.87428402
-0.06101751,-0.08216473,2.11210675

>  <Name>
ligand

>  <RI>
0

>  <Rbt.Current_Directory>
/home/itssahil/PROJECTS/Mol_Feturizer/New_Systems/rnas/3B4C

>  <Rbt.Executable>
rbdock ($Id: //depot/dev/client3/rdock/2013.1/src/exe/rbdock.cxx#4 $)

>  <Rbt.Library>
libRbt.so (2013.1, Build901 2013/11/27)

>  <Rbt.Parameter_File>
/export/apps/rDock/src/rDock_2013.1_src/data/scripts/dock_solv.prm

>  <Rbt.Receptor>
prm/pocket_docking_4.prm

>  <SCORE>
-11.6696

>  <SCORE.INTER>
-10.7959

>  <SCORE.INTER.CONST>
1

>  <SCORE.INTER.POLAR>
-1.29833

>  <SCORE.INTER.ROT>
3

>  <SCORE.INTER.SOLV>
18.4607

>  <SCORE.INTER.VDW>
-14.6231

>  <SCORE.INTER.norm>
-0.674742

>  <SCORE.INTRA>
-0.873735

>  <SCORE.INTRA.DIHEDRAL>
-0.945052

>  <SCORE.INTRA.DIHEDRAL.0>
2.1318

>  <SCORE.INTRA.POLAR>
0

>  <SCORE.INTRA.POLAR.0>
0

>  <SCORE.INTRA.REPUL>
0

>  <SCORE.INTRA.REPUL.0>
0

>  <SCORE.INTRA.SOLV>
-0.652415

>  <SCORE.INTRA.SOLV.lig_0>
-58.6125

>  <SCORE.INTRA.VDW>
-0.0750012

>  <SCORE.INTRA.VDW.0>
-0.432734

>  <SCORE.INTRA.norm>
-0.0546084

>  <SCORE.RESTR>
0

>  <SCORE.RESTR.CAVITY>
0

>  <SCORE.RESTR.norm>
0

>  <SCORE.SYSTEM>
0

>  <SCORE.SYSTEM.CONST>
0

>  <SCORE.SYSTEM.DIHEDRAL>
0

>  <SCORE.SYSTEM.SOLV>
0

>  <SCORE.SYSTEM.norm>
0

>  <SCORE.heavy>
16

>  <SCORE.norm>
-0.72935

>  <RMSD>
1.061

$$$$
ligand
 OpenBabel11021811463D
libRbt.so/2013.1/901 2013/11/27
 16 16  0  0  0  0  0  0  0  0999 V2000
   52.1731   11.6161   15.6981 P   0  0  2  0  0  0  0  0  0  0  0  0
   52.6904   11.0648   16.9748 O   0  0  0  0  0  0  0  0  0  0  0  0
   52.5850   10.6415   14.4860 O   0  5  0  0  0  0  0  0  0  0  0  0
   52.8309   13.0668   15.4481 O   0  0  0  0  0  0  0  0  0  0  0  0
   46.8910   10.7752   17.8188 C   0  0  2  0  0  0  0  0  0  0  0  0
   46.2902    9.5009   17.5595 O   0  0  0  0  0  0  0  0  0  0  0  0
   46.1518   11.8969   17.0447 C   0  0  2  0  0  0  0  0  0  0  0  0
   44.7303   11.9217   17.4391 N   0  0  0  0  0  0  0  0  0  0  0  0
   46.2746   11.6154   15.5377 C   0  0  1  0  0  0  0  0  0  0  0  0
   45.6179   12.6423   14.7897 O   0  0  0  0  0  0  0  0  0  0  0  0
   47.7605   11.5972   15.1831 C   0  0  2  0  0  0  0  0  0  0  0  0
   47.8970   11.3357   13.7922 O   0  0  0  0  0  0  0  0  0  0  0  0
   48.4565   10.4794   16.0067 C   0  0  2  0  0  0  0  0  0  0  0  0
   48.3004   10.7312   17.4369 O   0  0  0  0  0  0  0  0  0  0  0  0
   49.9708   10.4266   15.6859 C   0  0  0  0  0  0  0  0  0  0  0  0
   50.5592   11.7368   15.7788 O   0  0  0  0  0  0  0  0  0  0  0  0
  1  2  1  1  0  0  0
  1  3  1  0  0  0  0
  1  4  2  0  0  0  0
  1 16  1  0  0  0  0
  5  6  1  6  0  0  0
  5  7  1  0  0  0  0
  5 14  1  0  0  0  0
  7  8  1  1  0  0  0
  7  9  1  0  0  0  0
  9 10  1  6  0  0  0
  9 11  1  0  0  0  0
 11 12  1  6  0  0  0
 11 13  1  0  0  0  0
 13 14  1  0  0  0  0
 13 15  1  6  0  0  0
 15 16  1  0  0  0  0
M  CHG  1   3  -1
M  END
>  <CHROM.1>
49.92184880,170.08599869,-73.53365567,49.02061405,11.33808290,15.99750436
-0.14215048,-0.03668309,2.03711114

>  <Name>
ligand

>  <RI>
0

>  <Rbt.Current_Directory>
/home/itssahil/PROJECTS/Mol_Feturizer/New_Systems/rnas/3B4C

>  <Rbt.Executable>
rbdock ($Id: //depot/dev/client3/rdock/2013.1/src/exe/rbdock.cxx#4 $)

>  <Rbt.Library>
libRbt.so (2013.1, Build901 2013/11/27)

>  <Rbt.Parameter_File>
/export/apps/rDock/src/rDock_2013.1_src/data/scripts/dock_solv.prm

>  <Rbt.Receptor>
prm/pocket_docking_2.prm

>  <SCORE>
-11.6629

>  <SCORE.INTER>
-10.7029

>  <SCORE.INTER.CONST>
1

>  <SCORE.INTER.POLAR>
-1.29904

>  <SCORE.INTER.ROT>
3

>  <SCORE.INTER.SOLV>
19.9904

>  <SCORE.INTER.VDW>
-15.0686

>  <SCORE.INTER.norm>
-0.668931

>  <SCORE.INTRA>
-0.959988

>  <SCORE.INTRA.DIHEDRAL>
-1.01423

>  <SCORE.INTRA.DIHEDRAL.0>
2.1318

>  <SCORE.INTRA.POLAR>
0

>  <SCORE.INTRA.POLAR.0>
0

>  <SCORE.INTRA.REPUL>
0

>  <SCORE.INTRA.REPUL.0>
0

>  <SCORE.INTRA.SOLV>
-0.678203

>  <SCORE.INTRA.SOLV.lig_0>
-58.6125

>  <SCORE.INTRA.VDW>
-0.113773

>  <SCORE.INTRA.VDW.0>
-0.432734

>  <SCORE.INTRA.norm>
-0.0599992

>  <SCORE.RESTR>
0

>  <SCORE.RESTR.CAVITY>
0

>  <SCORE.RESTR.norm>
0

>  <SCORE.SYSTEM>
0

>  <SCORE.SYSTEM.CONST>
0

>  <SCORE.SYSTEM.DIHEDRAL>
0

>  <SCORE.SYSTEM.SOLV>
0

>  <SCORE.SYSTEM.norm>
0

>  <SCORE.heavy>
16

>  <SCORE.norm>
-0.728931

>  <RMSD>
1.065

$$$$
ligand
 OpenBabel11021811463D
libRbt.so/2013.1/901 2013/11/27
 16 16  0  0  0  0  0  0  0  0999 V2000
   52.0402   11.5833   15.5957 P   0  0  2  0  0  0  0  0  0  0  0  0
   52.5440   11.0717   16.8941 O   0  0  0  0  0  0  0  0  0  0  0  0
   52.4973   10.5919   14.4138 O   0  5  0  0  0  0  0  0  0  0  0  0
   52.6709   13.0425   15.3262 O   0  0  0  0  0  0  0  0  0  0  0  0
   46.7208   10.9629   17.6173 C   0  0  2  0  0  0  0  0  0  0  0  0
   46.1846    9.6347   17.6126 O   0  0  0  0  0  0  0  0  0  0  0  0
   45.9524   11.8673   16.6194 C   0  0  2  0  0  0  0  0  0  0  0  0
   44.5215   11.9016   16.9774 N   0  0  0  0  0  0  0  0  0  0  0  0
   46.1267   11.2932   15.2033 C   0  0  1  0  0  0  0  0  0  0  0  0
   45.4443   12.1142   14.2517 O   0  0  0  0  0  0  0  0  0  0  0  0
   47.6206   11.2767   14.8841 C   0  0  2  0  0  0  0  0  0  0  0  0
   47.8047   10.7463   13.5777 O   0  0  0  0  0  0  0  0  0  0  0  0
   48.3444   10.3841   15.9289 C   0  0  2  0  0  0  0  0  0  0  0  0
   48.1402   10.9119   17.2754 O   0  0  0  0  0  0  0  0  0  0  0  0
   49.8673   10.3419   15.6503 C   0  0  0  0  0  0  0  0  0  0  0  0
   50.4228   11.6697   15.6424 O   0  0  0  0  0  0  0  0  0  0  0  0
  1  2  1  1  0  0  0
  1  3  1  0  0  0  0
  1  4  2  0  0  0  0
  1 16  1  0  0  0  0
  5  6  1  6  0  0  0
  5  7  1  0  0  0  0
  5 14  1  0  0  0  0
  7  8  1  1  0  0  0
  7  9  1  0  0  0  0
  9 10  1  6  0  0  0
  9 11  1  0  0  0  0
 11 12  1  6  0  0  0
 11 13  1  0  0  0  0
 13 14  1  0  0  0  0
 13 15  1  6  0  0  0
 15 16  1  0  0  0  0
M  CHG  1   3  -1
M  END
>  <CHROM.1>
56.75856953,170.66535647,-70.02016680,48.87977016,11.23879139,15.80745198
-0.11104999,0.01894872,1.81189017

>  <Name>
ligand

>  <RI>
0

>  <Rbt.Current_Directory>
/home/itssahil/PROJECTS/Mol_Feturizer/New_Systems/rnas/3B4C

>  <Rbt.Executable>
rbdock ($Id: //depot/dev/client3/rdock/2013.1/src/exe/rbdock.cxx#4 $)

>  <Rbt.Library>
libRbt.so (2013.1, Build901 2013/11/27)

>  <Rbt.Parameter_File>
/export/apps/rDock/src/rDock_2013.1_src/data/scripts/dock_solv.prm

>  <Rbt.Receptor>
prm/pocket_docking_2.prm

>  <SCORE>
-11.7569

>  <SCORE.INTER>
-10.4268

>  <SCORE.INTER.CONST>
1

>  <SCORE.INTER.POLAR>
-1.29904

>  <SCORE.INTER.ROT>
3

>  <SCORE.INTER.SOLV>
18.7376

>  <SCORE.INTER.VDW>
-14.4669

>  <SCORE.INTER.norm>
-0.651673

>  <SCORE.INTRA>
-1.33011

>  <SCORE.INTRA.DIHEDRAL>
-1.51235

>  <SCORE.INTRA.DIHEDRAL.0>
2.1318

>  <SCORE.INTRA.POLAR>
0

>  <SCORE.INTRA.POLAR.0>
0

>  <SCORE.INTRA.REPUL>
0

>  <SCORE.INTRA.REPUL.0>
0

>  <SCORE.INTRA.SOLV>
-0.72175

>  <SCORE.INTRA.SOLV.lig_0>
-58.6125

>  <SCORE.INTRA.VDW>
-0.213056

>  <SCORE.INTRA.VDW.0>
-0.432734

>  <SCORE.INTRA.norm>
-0.0831316

>  <SCORE.RESTR>
0

>  <SCORE.RESTR.CAVITY>
0

>  <SCORE.RESTR.norm>
0

>  <SCORE.SYSTEM>
0

>  <SCORE.SYSTEM.CONST>
0

>  <SCORE.SYSTEM.DIHEDRAL>
0

>  <SCORE.SYSTEM.SOLV>
0

>  <SCORE.SYSTEM.norm>
0

>  <SCORE.heavy>
16

>  <SCORE.norm>
-0.734805

>  <RMSD>
1.066

$$$$
ligand
 OpenBabel11021811463D
libRbt.so/2013.1/901 2013/11/27
 16 16  0  0  0  0  0  0  0  0999 V2000
   51.9849   11.5579   15.6689 P   0  0  2  0  0  0  0  0  0  0  0  0
   52.3993   10.9728   16.9678 O   0  0  0  0  0  0  0  0  0  0  0  0
   52.3636   10.5445   14.4779 O   0  5  0  0  0  0  0  0  0  0  0  0
   52.7732   12.9462   15.4432 O   0  0  0  0  0  0  0  0  0  0  0  0
   46.5382   11.0630   17.5071 C   0  0  2  0  0  0  0  0  0  0  0  0
   45.8392    9.8720   17.1263 O   0  0  0  0  0  0  0  0  0  0  0  0
   45.9517   12.2991   16.7778 C   0  0  2  0  0  0  0  0  0  0  0  0
   44.5179   12.4335   17.0983 N   0  0  0  0  0  0  0  0  0  0  0  0
   46.1363   12.1078   15.2629 C   0  0  1  0  0  0  0  0  0  0  0  0
   45.6216   13.2401   14.5572 O   0  0  0  0  0  0  0  0  0  0  0  0
   47.6325   11.9711   14.9859 C   0  0  2  0  0  0  0  0  0  0  0  0
   47.8257   11.7906   13.5888 O   0  0  0  0  0  0  0  0  0  0  0  0
   48.1735   10.7397   15.7625 C   0  0  2  0  0  0  0  0  0  0  0  0
   47.9576   10.9099   17.1970 O   0  0  0  0  0  0  0  0  0  0  0  0
   49.6927   10.5638   15.5182 C   0  0  0  0  0  0  0  0  0  0  0  0
   50.3851   11.8151   15.6804 O   0  0  0  0  0  0  0  0  0  0  0  0
  1  2  1  1  0  0  0
  1  3  1  0  0  0  0
  1  4  2  0  0  0  0
  1 16  1  0  0  0  0
  5  6  1  6  0  0  0
  5  7  1  0  0  0  0
  5 14  1  0  0  0  0
  7  8  1  6  0  0  0
  7  9  1  0  0  0  0
  9 10  1  6  0  0  0
  9 11  1  0  0  0  0
 11 12  1  6  0  0  0
 11 13  1  0  0  0  0
 13 14  1  0  0  0  0
 13 15  1  1  0  0  0
 15 16  1  0  0  0  0
M  CHG  1   3  -1
M  END
>  <CHROM.1>
47.50863227,170.45845476,-75.56200146,48.81139414,11.54782829,15.82088503
-0.05951598,-0.09500685,2.12175847

>  <Name>
ligand

>  <RI>
0

>  <Rbt.Current_Directory>
/home/itssahil/PROJECTS/Mol_Feturizer/New_Systems/rnas/3B4C

>  <Rbt.Executable>
rbdock ($Id: //depot/dev/client3/rdock/2013.1/src/exe/rbdock.cxx#4 $)

>  <Rbt.Library>
libRbt.so (2013.1, Build901 2013/11/27)

>  <Rbt.Parameter_File>
/export/apps/rDock/src/rDock_2013.1_src/data/scripts/dock_solv.prm

>  <Rbt.Receptor>
prm/pocket_docking_2.prm

>  <SCORE>
-11.537

>  <SCORE.INTER>
-10.7668

>  <SCORE.INTER.CONST>
1

>  <SCORE.INTER.POLAR>
-1.29904

>  <SCORE.INTER.ROT>
3

>  <SCORE.INTER.SOLV>
17.9461

>  <SCORE.INTER.VDW>
-14.4298

>  <SCORE.INTER.norm>
-0.672928

>  <SCORE.INTRA>
-0.770176

>  <SCORE.INTRA.DIHEDRAL>
-0.77611

>  <SCORE.INTRA.DIHEDRAL.0>
2.1318

>  <SCORE.INTRA.POLAR>
0

>  <SCORE.INTRA.POLAR.0>
0

>  <SCORE.INTRA.REPUL>
0

>  <SCORE.INTRA.REPUL.0>
0

>  <SCORE.INTRA.SOLV>
-0.656281

>  <SCORE.INTRA.SOLV.lig_0>
-58.6125

>  <SCORE.INTRA.VDW>
-0.0539804

>  <SCORE.INTRA.VDW.0>
-0.432734

>  <SCORE.INTRA.norm>
-0.048136

>  <SCORE.RESTR>
0

>  <SCORE.RESTR.CAVITY>
0

>  <SCORE.RESTR.norm>
0

>  <SCORE.SYSTEM>
0

>  <SCORE.SYSTEM.CONST>
0

>  <SCORE.SYSTEM.DIHEDRAL>
0

>  <SCORE.SYSTEM.SOLV>
0

>  <SCORE.SYSTEM.norm>
0

>  <SCORE.heavy>
16

>  <SCORE.norm>
-0.721064

>  <RMSD>
1.066

$$$$
ligand
 OpenBabel11021811463D
libRbt.so/2013.1/901 2013/11/27
 16 16  0  0  0  0  0  0  0  0999 V2000
   52.0537   11.6599   15.0754 P   0  0  2  0  0  0  0  0  0  0  0  0
   52.0870   11.3393   13.6272 O   0  0  0  0  0  0  0  0  0  0  0  0
   52.6685   13.1274   15.3151 O   0  5  0  0  0  0  0  0  0  0  0  0
   52.9497   10.5821   15.8723 O   0  0  0  0  0  0  0  0  0  0  0  0
   46.9451   10.7591   17.6054 C   0  0  2  0  0  0  0  0  0  0  0  0
   46.4952    9.4005   17.6646 O   0  0  0  0  0  0  0  0  0  0  0  0
   46.0618   11.5868   16.6365 C   0  0  2  0  0  0  0  0  0  0  0  0
   44.6558   11.5417   17.0816 N   0  0  0  0  0  0  0  0  0  0  0  0
   46.1864   10.9868   15.2259 C   0  0  1  0  0  0  0  0  0  0  0  0
   45.3969   11.7379   14.2998 O   0  0  0  0  0  0  0  0  0  0  0  0
   47.6563   11.0545   14.8152 C   0  0  2  0  0  0  0  0  0  0  0  0
   47.7945   10.5016   13.5125 O   0  0  0  0  0  0  0  0  0  0  0  0
   48.4972   10.2370   15.8334 C   0  0  2  0  0  0  0  0  0  0  0  0
   48.3415   10.7872   17.1774 O   0  0  0  0  0  0  0  0  0  0  0  0
   50.0001   10.2820   15.4619 C   0  0  0  0  0  0  0  0  0  0  0  0
   50.5216   11.6162   15.6012 O   0  0  0  0  0  0  0  0  0  0  0  0
  1  2  1  6  0  0  0
  1  3  1  0  0  0  0
  1  4  2  0  0  0  0
  1 16  1  0  0  0  0
  5  6  1  6  0  0  0
  5  7  1  0  0  0  0
  5 14  1  0  0  0  0
  7  8  1  1  0  0  0
  7  9  1  0  0  0  0
  9 10  1  6  0  0  0
  9 11  1  0  0  0  0
 11 12  1  6  0  0  0
 11 13  1  0  0  0  0
 13 14  1  0  0  0  0
 13 15  1  6  0  0  0
 15 16  1  0  0  0  0
M  CHG  1   3  -1
M  END
>  <CHROM.1>
66.14503175,-174.75543984,63.36174158,48.96100737,11.12113339,15.60967284
-0.20998736,0.05604408,1.81886682

>  <Name>
ligand

>  <RI>
0

>  <Rbt.Current_Directory>
/home/itssahil/PROJECTS/Mol_Feturizer/New_Systems/rnas/3B4C

>  <Rbt.Executable>
rbdock ($Id: //depot/dev/client3/rdock/2013.1/src/exe/rbdock.cxx#4 $)

>  <Rbt.Library>
libRbt.so (2013.1, Build901 2013/11/27)

>  <Rbt.Parameter_File>
/export/apps/rDock/src/rDock_2013.1_src/data/scripts/dock_solv.prm

>  <Rbt.Receptor>
prm/pocket_docking_5.prm

>  <SCORE>
-11.3781

>  <SCORE.INTER>
-9.75739

>  <SCORE.INTER.CONST>
1

>  <SCORE.INTER.POLAR>
-1.29705

>  <SCORE.INTER.ROT>
3

>  <SCORE.INTER.SOLV>
19.1497

>  <SCORE.INTER.VDW>
-14.1647

>  <SCORE.INTER.norm>
-0.609837

>  <SCORE.INTRA>
-1.62075

>  <SCORE.INTRA.DIHEDRAL>
-1.8375

>  <SCORE.INTRA.DIHEDRAL.0>
2.1318

>  <SCORE.INTRA.POLAR>
0

>  <SCORE.INTRA.POLAR.0>
0

>  <SCORE.INTRA.REPUL>
0

>  <SCORE.INTRA.REPUL.0>
0

>  <SCORE.INTRA.SOLV>
-0.800761

>  <SCORE.INTRA.SOLV.lig_0>
-58.6125

>  <SCORE.INTRA.VDW>
-0.301618

>  <SCORE.INTRA.VDW.0>
-0.432734

>  <SCORE.INTRA.norm>
-0.101297

>  <SCORE.RESTR>
0

>  <SCORE.RESTR.CAVITY>
0

>  <SCORE.RESTR.norm>
0

>  <SCORE.SYSTEM>
0

>  <SCORE.SYSTEM.CONST>
0

>  <SCORE.SYSTEM.DIHEDRAL>
0

>  <SCORE.SYSTEM.SOLV>
0

>  <SCORE.SYSTEM.norm>
0

>  <SCORE.heavy>
16

>  <SCORE.norm>
-0.711134

>  <RMSD>
1.069

$$$$
ligand
 OpenBabel11021811463D
libRbt.so/2013.1/901 2013/11/27
 16 16  0  0  0  0  0  0  0  0999 V2000
   51.8153   11.6591   15.0914 P   0  0  2  0  0  0  0  0  0  0  0  0
   51.8812   11.3939   13.6331 O   0  0  0  0  0  0  0  0  0  0  0  0
   52.6467   12.9937   15.4328 O   0  5  0  0  0  0  0  0  0  0  0  0
   52.4743   10.4174   15.8809 O   0  0  0  0  0  0  0  0  0  0  0  0
   46.6392   11.0146   17.6045 C   0  0  2  0  0  0  0  0  0  0  0  0
   45.9078    9.8341   17.2535 O   0  0  0  0  0  0  0  0  0  0  0  0
   45.9557   12.2768   17.0184 C   0  0  2  0  0  0  0  0  0  0  0  0
   44.5723   12.3743   17.5219 N   0  0  0  0  0  0  0  0  0  0  0  0
   45.9503   12.1639   15.4845 C   0  0  1  0  0  0  0  0  0  0  0  0
   45.3419   13.3223   14.9075 O   0  0  0  0  0  0  0  0  0  0  0  0
   47.4010   12.0630   15.0162 C   0  0  2  0  0  0  0  0  0  0  0  0
   47.4189   11.9551   13.5986 O   0  0  0  0  0  0  0  0  0  0  0  0
   48.0453   10.8024   15.6551 C   0  0  2  0  0  0  0  0  0  0  0  0
   48.0096   10.8978   17.1122 O   0  0  0  0  0  0  0  0  0  0  0  0
   49.5232   10.6610   15.2143 C   0  0  0  0  0  0  0  0  0  0  0  0
   50.2684   11.8500   15.5343 O   0  0  0  0  0  0  0  0  0  0  0  0
  1  2  1  6  0  0  0
  1  3  1  0  0  0  0
  1  4  2  0  0  0  0
  1 16  1  0  0  0  0
  5  6  1  6  0  0  0
  5  7  1  0  0  0  0
  5 14  1  0  0  0  0
  7  8  1  1  0  0  0
  7  9  1  0  0  0  0
  9 10  1  6  0  0  0
  9 11  1  0  0  0  0
 11 12  1  6  0  0  0
 11 13  1  0  0  0  0
 13 14  1  0  0  0  0
 13 15  1  6  0  0  0
 15 16  1  0  0  0  0
M  CHG  1   3  -1
M  END
>  <CHROM.1>
55.95234520,178.76063850,59.19945352,48.68419928,11.60598358,15.67447823
-0.16566863,-0.15713664,2.16707064

>  <Name>
ligand

>  <RI>
0

>  <Rbt.Current_Directory>
/home/itssahil/PROJECTS/Mol_Feturizer/New_Systems/rnas/3B4C

>  <Rbt.Executable>
rbdock ($Id: //depot/dev/client3/rdock/2013.1/src/exe/rbdock.cxx#4 $)

>  <Rbt.Library>
libRbt.so (2013.1, Build901 2013/11/27)

>  <Rbt.Parameter_File>
/export/apps/rDock/src/rDock_2013.1_src/data/scripts/dock_solv.prm

>  <Rbt.Receptor>
prm/pocket_docking_3.prm

>  <SCORE>
-11.6001

>  <SCORE.INTER>
-9.92409

>  <SCORE.INTER.CONST>
1

>  <SCORE.INTER.POLAR>
-1.29904

>  <SCORE.INTER.ROT>
3

>  <SCORE.INTER.SOLV>
19.3849

>  <SCORE.INTER.VDW>
-14.3476

>  <SCORE.INTER.norm>
-0.620256

>  <SCORE.INTRA>
-1.67605

>  <SCORE.INTRA.DIHEDRAL>
-2.06319

>  <SCORE.INTRA.DIHEDRAL.0>
2.1318

>  <SCORE.INTRA.POLAR>
0

>  <SCORE.INTRA.POLAR.0>
0

>  <SCORE.INTRA.REPUL>
0

>  <SCORE.INTRA.REPUL.0>
0

>  <SCORE.INTRA.SOLV>
-0.81756

>  <SCORE.INTRA.SOLV.lig_0>
-58.6125

>  <SCORE.INTRA.VDW>
-0.235672

>  <SCORE.INTRA.VDW.0>
-0.432734

>  <SCORE.INTRA.norm>
-0.104753

>  <SCORE.RESTR>
0

>  <SCORE.RESTR.CAVITY>
0

>  <SCORE.RESTR.norm>
0

>  <SCORE.SYSTEM>
0

>  <SCORE.SYSTEM.CONST>
0

>  <SCORE.SYSTEM.DIHEDRAL>
0

>  <SCORE.SYSTEM.SOLV>
0

>  <SCORE.SYSTEM.norm>
0

>  <SCORE.heavy>
16

>  <SCORE.norm>
-0.725009

>  <RMSD>
1.071

$$$$
ligand
 OpenBabel11021811463D
libRbt.so/2013.1/901 2013/11/27
 16 16  0  0  0  0  0  0  0  0999 V2000
   51.7740   11.8084   14.6662 P   0  0  2  0  0  0  0  0  0  0  0  0
   51.6261   11.4906   13.2245 O   0  0  0  0  0  0  0  0  0  0  0  0
   52.5061   13.2318   14.8302 O   0  5  0  0  0  0  0  0  0  0  0  0
   52.6801   10.6719   15.3639 O   0  0  0  0  0  0  0  0  0  0  0  0
   46.8491   10.9291   17.7072 C   0  0  2  0  0  0  0  0  0  0  0  0
   46.2013    9.6701   17.4903 O   0  0  0  0  0  0  0  0  0  0  0  0
   46.0503   12.0783   17.0399 C   0  0  2  0  0  0  0  0  0  0  0  0
   44.6807   12.1169   17.5870 N   0  0  0  0  0  0  0  0  0  0  0  0
   46.0039   11.8268   15.5233 C   0  0  1  0  0  0  0  0  0  0  0  0
   45.2883   12.8793   14.8712 O   0  0  0  0  0  0  0  0  0  0  0  0
   47.4421   11.7930   15.0089 C   0  0  2  0  0  0  0  0  0  0  0  0
   47.4222   11.5588   13.6066 O   0  0  0  0  0  0  0  0  0  0  0  0
   48.2034   10.6474   15.7301 C   0  0  2  0  0  0  0  0  0  0  0  0
   48.2078   10.8713   17.1735 O   0  0  0  0  0  0  0  0  0  0  0  0
   49.6727   10.5778   15.2456 C   0  0  0  0  0  0  0  0  0  0  0  0
   50.3097   11.8635   15.3580 O   0  0  0  0  0  0  0  0  0  0  0  0
  1  2  1  6  0  0  0
  1  3  1  0  0  0  0
  1  4  2  0  0  0  0
  1 16  1  0  0  0  0
  5  6  1  6  0  0  0
  5  7  1  0  0  0  0
  5 14  1  0  0  0  0
  7  8  1  1  0  0  0
  7  9  1  0  0  0  0
  9 10  1  6  0  0  0
  9 11  1  0  0  0  0
 11 12  1  6  0  0  0
 11 13  1  0  0  0  0
 13 14  1  0  0  0  0
 13 15  1  6  0  0  0
 15 16  1  0  0  0  0
M  CHG  1   3  -1
M  END
>  <CHROM.1>
52.61073868,-172.57802380,61.56236166,48.74082307,11.52427290,15.54847026
0.29011345,0.13204146,-1.04618011

>  <Name>
ligand

>  <RI>
0

>  <Rbt.Current_Directory>
/home/itssahil/PROJECTS/Mol_Feturizer/New_Systems/rnas/3B4C

>  <Rbt.Executable>
rbdock ($Id: //depot/dev/client3/rdock/2013.1/src/exe/rbdock.cxx#4 $)

>  <Rbt.Library>
libRbt.so (2013.1, Build901 2013/11/27)

>  <Rbt.Parameter_File>
/export/apps/rDock/src/rDock_2013.1_src/data/scripts/dock_solv.prm

>  <Rbt.Receptor>
prm/pocket_docking_3.prm

>  <SCORE>
-11.3406

>  <SCORE.INTER>
-9.86169

>  <SCORE.INTER.CONST>
1

>  <SCORE.INTER.POLAR>
-1.29904

>  <SCORE.INTER.ROT>
3

>  <SCORE.INTER.SOLV>
18.299

>  <SCORE.INTER.VDW>
-13.944

>  <SCORE.INTER.norm>
-0.616356

>  <SCORE.INTRA>
-1.47894

>  <SCORE.INTRA.DIHEDRAL>
-1.66379

>  <SCORE.INTRA.DIHEDRAL.0>
2.1318

>  <SCORE.INTRA.POLAR>
0

>  <SCORE.INTRA.POLAR.0>
0

>  <SCORE.INTRA.REPUL>
0

>  <SCORE.INTRA.REPUL.0>
0

>  <SCORE.INTRA.SOLV>
-0.796557

>  <SCORE.INTRA.SOLV.lig_0>
-58.6125

>  <SCORE.INTRA.VDW>
-0.248765

>  <SCORE.INTRA.VDW.0>
-0.432734

>  <SCORE.INTRA.norm>
-0.0924338

>  <SCORE.RESTR>
0

>  <SCORE.RESTR.CAVITY>
0

>  <SCORE.RESTR.norm>
0

>  <SCORE.SYSTEM>
0

>  <SCORE.SYSTEM.CONST>
0

>  <SCORE.SYSTEM.DIHEDRAL>
0

>  <SCORE.SYSTEM.SOLV>
0

>  <SCORE.SYSTEM.norm>
0

>  <SCORE.heavy>
16

>  <SCORE.norm>
-0.708789

>  <RMSD>
1.071

$$$$
ligand
 OpenBabel11021811463D
libRbt.so/2013.1/901 2013/11/27
 16 16  0  0  0  0  0  0  0  0999 V2000
   51.7960   11.6038   14.9287 P   0  0  2  0  0  0  0  0  0  0  0  0
   52.5277   10.5388   15.6577 O   0  0  0  0  0  0  0  0  0  0  0  0
   51.7625   11.2544   13.3585 O   0  5  0  0  0  0  0  0  0  0  0  0
   52.5660   13.0053   15.1351 O   0  0  0  0  0  0  0  0  0  0  0  0
   46.7971   10.9485   17.7672 C   0  0  2  0  0  0  0  0  0  0  0  0
   46.1747    9.6624   17.6656 O   0  0  0  0  0  0  0  0  0  0  0  0
   45.9714   12.0181   17.0070 C   0  0  2  0  0  0  0  0  0  0  0  0
   44.6038   12.0766   17.5574 N   0  0  0  0  0  0  0  0  0  0  0  0
   45.9233   11.6337   15.5186 C   0  0  1  0  0  0  0  0  0  0  0  0
   45.1828   12.6102   14.7814 O   0  0  0  0  0  0  0  0  0  0  0  0
   47.3594   11.5842   14.9999 C   0  0  2  0  0  0  0  0  0  0  0  0
   47.3380   11.2276   13.6236 O   0  0  0  0  0  0  0  0  0  0  0  0
   48.1478   10.5221   15.8138 C   0  0  2  0  0  0  0  0  0  0  0  0
   48.1542   10.8719   17.2319 O   0  0  0  0  0  0  0  0  0  0  0  0
   49.6160   10.4403   15.3277 C   0  0  0  0  0  0  0  0  0  0  0  0
   50.2827   11.7043   15.4992 O   0  0  0  0  0  0  0  0  0  0  0  0
  1  2  1  1  0  0  0
  1  3  1  0  0  0  0
  1  4  2  0  0  0  0
  1 16  1  0  0  0  0
  5  6  1  6  0  0  0
  5  7  1  0  0  0  0
  5 14  1  0  0  0  0
  7  8  1  1  0  0  0
  7  9  1  0  0  0  0
  9 10  1  6  0  0  0
  9 11  1  0  0  0  0
 11 12  1  6  0  0  0
 11 13  1  0  0  0  0
 13 14  1  0  0  0  0
 13 15  1  6  0  0  0
 15 16  1  0  0  0  0
M  CHG  1   3  -1
M  END
>  <CHROM.1>
60.66837396,-177.77467122,-59.18194812,48.70197222,11.37344598,15.65432645
-0.25853347,-0.08829107,1.95630771

>  <Name>
ligand

>  <RI>
0

>  <Rbt.Current_Directory>
/home/itssahil/PROJECTS/Mol_Feturizer/New_Systems/rnas/3B4C

>  <Rbt.Executable>
rbdock ($Id: //depot/dev/client3/rdock/2013.1/src/exe/rbdock.cxx#4 $)

>  <Rbt.Library>
libRbt.so (2013.1, Build901 2013/11/27)

>  <Rbt.Parameter_File>
/export/apps/rDock/src/rDock_2013.1_src/data/scripts/dock_solv.prm

>  <Rbt.Receptor>
prm/pocket_docking_3.prm

>  <SCORE>
-11.0446

>  <SCORE.INTER>
-9.33406

>  <SCORE.INTER.CONST>
1

>  <SCORE.INTER.POLAR>
-1.02884

>  <SCORE.INTER.ROT>
3

>  <SCORE.INTER.SOLV>
18.0595

>  <SCORE.INTER.VDW>
-14.4131

>  <SCORE.INTER.norm>
-0.583379

>  <SCORE.INTRA>
-1.71057

>  <SCORE.INTRA.DIHEDRAL>
-2.10168

>  <SCORE.INTRA.DIHEDRAL.0>
2.1318

>  <SCORE.INTRA.POLAR>
0

>  <SCORE.INTRA.POLAR.0>
0

>  <SCORE.INTRA.REPUL>
0

>  <SCORE.INTRA.REPUL.0>
0

>  <SCORE.INTRA.SOLV>
-0.809808

>  <SCORE.INTRA.SOLV.lig_0>
-58.6125

>  <SCORE.INTRA.VDW>
-0.254832

>  <SCORE.INTRA.VDW.0>
-0.432734

>  <SCORE.INTRA.norm>
-0.106911

>  <SCORE.RESTR>
0

>  <SCORE.RESTR.CAVITY>
0

>  <SCORE.RESTR.norm>
0

>  <SCORE.SYSTEM>
0

>  <SCORE.SYSTEM.CONST>
0

>  <SCORE.SYSTEM.DIHEDRAL>
0

>  <SCORE.SYSTEM.SOLV>
0

>  <SCORE.SYSTEM.norm>
0

>  <SCORE.heavy>
16

>  <SCORE.norm>
-0.69029

>  <RMSD>
1.072

$$$$
ligand
 OpenBabel11021811463D
libRbt.so/2013.1/901 2013/11/27
 16 16  0  0  0  0  0  0  0  0999 V2000
   52.2299   11.6382   15.6898 P   0  0  2  0  0  0  0  0  0  0  0  0
   52.7456   11.1152   16.9789 O   0  0  0  0  0  0  0  0  0  0  0  0
   52.7215   10.6869   14.4889 O   0  5  0  0  0  0  0  0  0  0  0  0
   52.8154   13.1218   15.4535 O   0  0  0  0  0  0  0  0  0  0  0  0
   46.7988   10.8421   17.4362 C   0  0  2  0  0  0  0  0  0  0  0  0
   46.3043    9.4987   17.3855 O   0  0  0  0  0  0  0  0  0  0  0  0
   46.0779   11.7309   16.3901 C   0  0  2  0  0  0  0  0  0  0  0  0
   44.6245   11.7203   16.6433 N   0  0  0  0  0  0  0  0  0  0  0  0
   46.3714   11.1728   14.9872 C   0  0  1  0  0  0  0  0  0  0  0  0
   45.7355   11.9805   13.9930 O   0  0  0  0  0  0  0  0  0  0  0  0
   47.8844   11.2027   14.7773 C   0  0  2  0  0  0  0  0  0  0  0  0
   48.1783   10.6878   13.4849 O   0  0  0  0  0  0  0  0  0  0  0  0
   48.5570   10.3240   15.8670 C   0  0  2  0  0  0  0  0  0  0  0  0
   48.2401   10.8355   17.1979 O   0  0  0  0  0  0  0  0  0  0  0  0
   50.0967   10.3288   15.6995 C   0  0  0  0  0  0  0  0  0  0  0  0
   50.6105   11.6729   15.7323 O   0  0  0  0  0  0  0  0  0  0  0  0
  1  2  1  1  0  0  0
  1  3  1  0  0  0  0
  1  4  2  0  0  0  0
  1 16  1  0  0  0  0
  5  6  1  6  0  0  0
  5  7  1  0  0  0  0
  5 14  1  0  0  0  0
  7  8  1  1  0  0  0
  7  9  1  0  0  0  0
  9 10  1  6  0  0  0
  9 11  1  0  0  0  0
 11 12  1  6  0  0  0
 11 13  1  0  0  0  0
 13 14  1  0  0  0  0
 13 15  1  6  0  0  0
 15 16  1  0  0  0  0
M  CHG  1   3  -1
M  END
>  <CHROM.1>
56.46834146,174.91600521,-70.46968591,49.07356787,11.19665657,15.74442562
-0.07086801,0.06035861,1.82809281

>  <Name>
ligand

>  <RI>
0

>  <Rbt.Current_Directory>
/home/itssahil/PROJECTS/Mol_Feturizer/New_Systems/rnas/3B4C

>  <Rbt.Executable>
rbdock ($Id: //depot/dev/client3/rdock/2013.1/src/exe/rbdock.cxx#4 $)

>  <Rbt.Library>
libRbt.so (2013.1, Build901 2013/11/27)

>  <Rbt.Parameter_File>
/export/apps/rDock/src/rDock_2013.1_src/data/scripts/dock_solv.prm

>  <Rbt.Receptor>
prm/pocket_docking_4.prm

>  <SCORE>
-11.8557

>  <SCORE.INTER>
-10.3982

>  <SCORE.INTER.CONST>
1

>  <SCORE.INTER.POLAR>
-1.29904

>  <SCORE.INTER.ROT>
3

>  <SCORE.INTER.SOLV>
17.2495

>  <SCORE.INTER.VDW>
-13.9518

>  <SCORE.INTER.norm>
-0.649889

>  <SCORE.INTRA>
-1.45747

>  <SCORE.INTRA.DIHEDRAL>
-1.78576

>  <SCORE.INTRA.DIHEDRAL.0>
2.1318

>  <SCORE.INTRA.POLAR>
0

>  <SCORE.INTRA.POLAR.0>
0

>  <SCORE.INTRA.REPUL>
0

>  <SCORE.INTRA.REPUL.0>
0

>  <SCORE.INTRA.SOLV>
-0.716671

>  <SCORE.INTRA.SOLV.lig_0>
-58.6125

>  <SCORE.INTRA.VDW>
-0.20625

>  <SCORE.INTRA.VDW.0>
-0.432734

>  <SCORE.INTRA.norm>
-0.0910917

>  <SCORE.RESTR>
0

>  <SCORE.RESTR.CAVITY>
0

>  <SCORE.RESTR.norm>
0

>  <SCORE.SYSTEM>
0

>  <SCORE.SYSTEM.CONST>
0

>  <SCORE.SYSTEM.DIHEDRAL>
0

>  <SCORE.SYSTEM.SOLV>
0

>  <SCORE.SYSTEM.norm>
0

>  <SCORE.heavy>
16

>  <SCORE.norm>
-0.74098

>  <RMSD>
1.073

$$$$
ligand
 OpenBabel11021811463D
libRbt.so/2013.1/901 2013/11/27
 16 16  0  0  0  0  0  0  0  0999 V2000
   51.7794   11.7120   15.0163 P   0  0  2  0  0  0  0  0  0  0  0  0
   51.8020   11.4640   13.5537 O   0  0  0  0  0  0  0  0  0  0  0  0
   52.6010   13.0555   15.3462 O   0  5  0  0  0  0  0  0  0  0  0  0
   52.4825   10.4720   15.7698 O   0  0  0  0  0  0  0  0  0  0  0  0
   46.6059   11.0064   17.5879 C   0  0  2  0  0  0  0  0  0  0  0  0
   45.8770    9.8293   17.2206 O   0  0  0  0  0  0  0  0  0  0  0  0
   45.9299   12.2737   17.0037 C   0  0  2  0  0  0  0  0  0  0  0  0
   44.5414   12.3690   17.4933 N   0  0  0  0  0  0  0  0  0  0  0  0
   45.9407   12.1717   15.4691 C   0  0  1  0  0  0  0  0  0  0  0  0
   45.3396   13.3350   14.8941 O   0  0  0  0  0  0  0  0  0  0  0  0
   47.3961   12.0726   15.0155 C   0  0  2  0  0  0  0  0  0  0  0  0
   47.4288   11.9749   13.5973 O   0  0  0  0  0  0  0  0  0  0  0  0
   48.0322   10.8068   15.6520 C   0  0  2  0  0  0  0  0  0  0  0  0
   47.9813   10.8917   17.1092 O   0  0  0  0  0  0  0  0  0  0  0  0
   49.5146   10.6669   15.2258 C   0  0  0  0  0  0  0  0  0  0  0  0
   50.2449   11.8738   15.5111 O   0  0  0  0  0  0  0  0  0  0  0  0
  1  2  1  6  0  0  0
  1  3  1  0  0  0  0
  1  4  2  0  0  0  0
  1 16  1  0  0  0  0
  5  6  1  6  0  0  0
  5  7  1  0  0  0  0
  5 14  1  0  0  0  0
  7  8  1  1  0  0  0
  7  9  1  0  0  0  0
  9 10  1  6  0  0  0
  9 11  1  0  0  0  0
 11 12  1  6  0  0  0
 11 13  1  0  0  0  0
 13 14  1  0  0  0  0
 13 15  1  1  0  0  0
 15 16  1  0  0  0  0
M  CHG  1   3  -1
M  END
>  <CHROM.1>
53.53838138,-178.39876932,60.34222366,48.66094034,11.62777268,15.63942955
-0.17843181,-0.15979983,2.18859413

>  <Name>
ligand

>  <RI>
0

>  <Rbt.Current_Directory>
/home/itssahil/PROJECTS/Mol_Feturizer/New_Systems/rnas/3B4C

>  <Rbt.Executable>
rbdock ($Id: //depot/dev/client3/rdock/2013.1/src/exe/rbdock.cxx#4 $)

>  <Rbt.Library>
libRbt.so (2013.1, Build901 2013/11/27)

>  <Rbt.Parameter_File>
/export/apps/rDock/src/rDock_2013.1_src/data/scripts/dock_solv.prm

>  <Rbt.Receptor>
prm/pocket_docking_3.prm

>  <SCORE>
-11.5233

>  <SCORE.INTER>
-9.8989

>  <SCORE.INTER.CONST>
1

>  <SCORE.INTER.POLAR>
-1.29832

>  <SCORE.INTER.ROT>
3

>  <SCORE.INTER.SOLV>
18.9006

>  <SCORE.INTER.VDW>
-14.1717

>  <SCORE.INTER.norm>
-0.618681

>  <SCORE.INTRA>
-1.62438

>  <SCORE.INTRA.DIHEDRAL>
-1.96891

>  <SCORE.INTRA.DIHEDRAL.0>
2.1318

>  <SCORE.INTRA.POLAR>
0

>  <SCORE.INTRA.POLAR.0>
0

>  <SCORE.INTRA.REPUL>
0

>  <SCORE.INTRA.REPUL.0>
0

>  <SCORE.INTRA.SOLV>
-0.817057

>  <SCORE.INTRA.SOLV.lig_0>
-58.6125

>  <SCORE.INTRA.VDW>
-0.231398

>  <SCORE.INTRA.VDW.0>
-0.432734

>  <SCORE.INTRA.norm>
-0.101524

>  <SCORE.RESTR>
0

>  <SCORE.RESTR.CAVITY>
0

>  <SCORE.RESTR.norm>
0

>  <SCORE.SYSTEM>
0

>  <SCORE.SYSTEM.CONST>
0

>  <SCORE.SYSTEM.DIHEDRAL>
0

>  <SCORE.SYSTEM.SOLV>
0

>  <SCORE.SYSTEM.norm>
0

>  <SCORE.heavy>
16

>  <SCORE.norm>
-0.720205

>  <RMSD>
1.074

$$$$
ligand
 OpenBabel11021811463D
libRbt.so/2013.1/901 2013/11/27
 16 16  0  0  0  0  0  0  0  0999 V2000
   51.5131   11.7876   14.4571 P   0  0  2  0  0  0  0  0  0  0  0  0
   51.8097   13.0111   15.2422 O   0  0  0  0  0  0  0  0  0  0  0  0
   52.2637   10.5285   15.1204 O   0  5  0  0  0  0  0  0  0  0  0  0
   52.0562   11.9854   12.9519 O   0  0  0  0  0  0  0  0  0  0  0  0
   46.1329   10.2749   17.2395 C   0  0  2  0  0  0  0  0  0  0  0  0
   45.8019    9.2149   16.3347 O   0  0  0  0  0  0  0  0  0  0  0  0
   45.3040   11.5459   16.9209 C   0  0  2  0  0  0  0  0  0  0  0  0
   43.8639   11.2381   17.0124 N   0  0  0  0  0  0  0  0  0  0  0  0
   45.6523   12.0143   15.4980 C   0  0  1  0  0  0  0  0  0  0  0  0
   44.9177   13.1982   15.1756 O   0  0  0  0  0  0  0  0  0  0  0  0
   47.1494   12.3159   15.4564 C   0  0  2  0  0  0  0  0  0  0  0  0
   47.4938   12.7491   14.1466 O   0  0  0  0  0  0  0  0  0  0  0  0
   47.9295   11.0209   15.8121 C   0  0  2  0  0  0  0  0  0  0  0  0
   47.5630   10.5588   17.1483 O   0  0  0  0  0  0  0  0  0  0  0  0
   49.4564   11.2792   15.7900 C   0  0  0  0  0  0  0  0  0  0  0  0
   49.9136   11.5285   14.4483 O   0  0  0  0  0  0  0  0  0  0  0  0
  1  2  1  1  0  0  0
  1  3  1  0  0  0  0
  1  4  2  0  0  0  0
  1 16  1  0  0  0  0
  5  6  1  6  0  0  0
  5  7  1  0  0  0  0
  5 14  1  0  0  0  0
  7  8  1  6  0  0  0
  7  9  1  0  0  0  0
  9 10  1  1  0  0  0
  9 11  1  0  0  0  0
 11 12  1  6  0  0  0
 11 13  1  0  0  0  0
 13 14  1  0  0  0  0
 13 15  1  1  0  0  0
 15 16  1  0  0  0  0
M  CHG  1   3  -1
M  END
>  <CHROM.1>
-68.27570630,-179.73164188,-63.33480389,48.37468097,11.54072547,15.43117961
-0.24131024,-0.19821652,2.48935290

>  <Name>
ligand

>  <RI>
0

>  <Rbt.Current_Directory>
/home/itssahil/PROJECTS/Mol_Feturizer/New_Systems/rnas/3B4C

>  <Rbt.Executable>
rbdock ($Id: //depot/dev/client3/rdock/2013.1/src/exe/rbdock.cxx#4 $)

>  <Rbt.Library>
libRbt.so (2013.1, Build901 2013/11/27)

>  <Rbt.Parameter_File>
/export/apps/rDock/src/rDock_2013.1_src/data/scripts/dock_solv.prm

>  <Rbt.Receptor>
prm/pocket_docking_2.prm

>  <SCORE>
-10.5269

>  <SCORE.INTER>
-9.11451

>  <SCORE.INTER.CONST>
1

>  <SCORE.INTER.POLAR>
-1.29904

>  <SCORE.INTER.ROT>
3

>  <SCORE.INTER.SOLV>
16.2261

>  <SCORE.INTER.VDW>
-12.7549

>  <SCORE.INTER.norm>
-0.569657

>  <SCORE.INTRA>
-1.41238

>  <SCORE.INTRA.DIHEDRAL>
-1.87054

>  <SCORE.INTRA.DIHEDRAL.0>
2.1318

>  <SCORE.INTRA.POLAR>
0

>  <SCORE.INTRA.POLAR.0>
0

>  <SCORE.INTRA.REPUL>
0

>  <SCORE.INTRA.REPUL.0>
0

>  <SCORE.INTRA.SOLV>
-0.614446

>  <SCORE.INTRA.SOLV.lig_0>
-58.6125

>  <SCORE.INTRA.VDW>
-0.169887

>  <SCORE.INTRA.VDW.0>
-0.432734

>  <SCORE.INTRA.norm>
-0.0882738

>  <SCORE.RESTR>
0

>  <SCORE.RESTR.CAVITY>
0

>  <SCORE.RESTR.norm>
0

>  <SCORE.SYSTEM>
0

>  <SCORE.SYSTEM.CONST>
0

>  <SCORE.SYSTEM.DIHEDRAL>
0

>  <SCORE.SYSTEM.SOLV>
0

>  <SCORE.SYSTEM.norm>
0

>  <SCORE.heavy>
16

>  <SCORE.norm>
-0.657931

>  <RMSD>
1.075

$$$$
ligand
 OpenBabel11021811463D
libRbt.so/2013.1/901 2013/11/27
 16 16  0  0  0  0  0  0  0  0999 V2000
   52.2569   11.5687   15.9520 P   0  0  2  0  0  0  0  0  0  0  0  0
   52.6479   10.8541   17.1921 O   0  0  0  0  0  0  0  0  0  0  0  0
   52.7269   10.7172   14.6703 O   0  5  0  0  0  0  0  0  0  0  0  0
   52.9885   13.0052   15.9212 O   0  0  0  0  0  0  0  0  0  0  0  0
   46.6865   10.9924   17.4216 C   0  0  2  0  0  0  0  0  0  0  0  0
   46.0664    9.7463   17.0831 O   0  0  0  0  0  0  0  0  0  0  0  0
   46.1189   12.1414   16.5489 C   0  0  2  0  0  0  0  0  0  0  0  0
   44.6591   12.2382   16.7396 N   0  0  0  0  0  0  0  0  0  0  0  0
   46.4380   11.8408   15.0747 C   0  0  1  0  0  0  0  0  0  0  0  0
   45.9438   12.8914   14.2397 O   0  0  0  0  0  0  0  0  0  0  0  0
   47.9562   11.7479   14.9325 C   0  0  2  0  0  0  0  0  0  0  0  0
   48.2735   11.4677   13.5751 O   0  0  0  0  0  0  0  0  0  0  0  0
   48.4743   10.6054   15.8481 C   0  0  2  0  0  0  0  0  0  0  0  0
   48.1316   10.8772   17.2417 O   0  0  0  0  0  0  0  0  0  0  0  0
   50.0142   10.4768   15.7434 C   0  0  0  0  0  0  0  0  0  0  0  0
   50.6476   11.7566   15.9239 O   0  0  0  0  0  0  0  0  0  0  0  0
  1  2  1  1  0  0  0
  1  3  1  0  0  0  0
  1  4  2  0  0  0  0
  1 16  1  0  0  0  0
  5  6  1  6  0  0  0
  5  7  1  0  0  0  0
  5 14  1  0  0  0  0
  7  8  1  6  0  0  0
  7  9  1  0  0  0  0
  9 10  1  6  0  0  0
  9 11  1  0  0  0  0
 11 12  1  6  0  0  0
 11 13  1  0  0  0  0
 13 14  1  0  0  0  0
 13 15  1  1  0  0  0
 15 16  1  0  0  0  0
M  CHG  1   3  -1
M  END
>  <CHROM.1>
50.29004013,174.57485717,-68.94389396,49.07816067,11.44021538,15.87528605
-0.01388195,-0.02328377,2.04385765

>  <Name>
ligand

>  <RI>
0

>  <Rbt.Current_Directory>
/home/itssahil/PROJECTS/Mol_Feturizer/New_Systems/rnas/3B4C

>  <Rbt.Executable>
rbdock ($Id: //depot/dev/client3/rdock/2013.1/src/exe/rbdock.cxx#4 $)

>  <Rbt.Library>
libRbt.so (2013.1, Build901 2013/11/27)

>  <Rbt.Parameter_File>
/export/apps/rDock/src/rDock_2013.1_src/data/scripts/dock_solv.prm

>  <Rbt.Receptor>
prm/pocket_docking_4.prm

>  <SCORE>
-11.8073

>  <SCORE.INTER>
-10.5161

>  <SCORE.INTER.CONST>
1

>  <SCORE.INTER.POLAR>
-1.29904

>  <SCORE.INTER.ROT>
3

>  <SCORE.INTER.SOLV>
17.4369

>  <SCORE.INTER.VDW>
-14.0929

>  <SCORE.INTER.norm>
-0.657255

>  <SCORE.INTRA>
-1.29125

>  <SCORE.INTRA.DIHEDRAL>
-1.52783

>  <SCORE.INTRA.DIHEDRAL.0>
2.1318

>  <SCORE.INTRA.POLAR>
0

>  <SCORE.INTRA.POLAR.0>
0

>  <SCORE.INTRA.REPUL>
0

>  <SCORE.INTRA.REPUL.0>
0

>  <SCORE.INTRA.SOLV>
-0.728037

>  <SCORE.INTRA.SOLV.lig_0>
-58.6125

>  <SCORE.INTRA.VDW>
-0.163314

>  <SCORE.INTRA.VDW.0>
-0.432734

>  <SCORE.INTRA.norm>
-0.0807031

>  <SCORE.RESTR>
0

>  <SCORE.RESTR.CAVITY>
0

>  <SCORE.RESTR.norm>
0

>  <SCORE.SYSTEM>
0

>  <SCORE.SYSTEM.CONST>
0

>  <SCORE.SYSTEM.DIHEDRAL>
0

>  <SCORE.SYSTEM.SOLV>
0

>  <SCORE.SYSTEM.norm>
0

>  <SCORE.heavy>
16

>  <SCORE.norm>
-0.737958

>  <RMSD>
1.078

$$$$
ligand
 OpenBabel11021811463D
libRbt.so/2013.1/901 2013/11/27
 16 16  0  0  0  0  0  0  0  0999 V2000
   51.7466   11.6777   14.9513 P   0  0  2  0  0  0  0  0  0  0  0  0
   51.7688   11.3772   13.4985 O   0  0  0  0  0  0  0  0  0  0  0  0
   52.5681   13.0323   15.2323 O   0  5  0  0  0  0  0  0  0  0  0  0
   52.4500   10.4657   15.7487 O   0  0  0  0  0  0  0  0  0  0  0  0
   46.5598   11.0267   17.5473 C   0  0  2  0  0  0  0  0  0  0  0  0
   45.8239    9.8518   17.1870 O   0  0  0  0  0  0  0  0  0  0  0  0
   45.9005   12.2929   16.9425 C   0  0  2  0  0  0  0  0  0  0  0  0
   44.5085   12.4060   17.4182 N   0  0  0  0  0  0  0  0  0  0  0  0
   45.9243   12.1732   15.4094 C   0  0  1  0  0  0  0  0  0  0  0  0
   45.3388   13.3350   14.8155 O   0  0  0  0  0  0  0  0  0  0  0  0
   47.3828   12.0561   14.9702 C   0  0  2  0  0  0  0  0  0  0  0  0
   47.4276   11.9418   13.5537 O   0  0  0  0  0  0  0  0  0  0  0  0
   48.0019   10.7922   15.6270 C   0  0  2  0  0  0  0  0  0  0  0  0
   47.9385   10.8943   17.0827 O   0  0  0  0  0  0  0  0  0  0  0  0
   49.4868   10.6344   15.2161 C   0  0  0  0  0  0  0  0  0  0  0  0
   50.2122   11.8571   15.4404 O   0  0  0  0  0  0  0  0  0  0  0  0
  1  2  1  6  0  0  0
  1  3  1  0  0  0  0
  1  4  2  0  0  0  0
  1 16  1  0  0  0  0
  5  6  1  6  0  0  0
  5  7  1  0  0  0  0
  5 14  1  0  0  0  0
  7  8  1  1  0  0  0
  7  9  1  0  0  0  0
  9 10  1  6  0  0  0
  9 11  1  0  0  0  0
 11 12  1  6  0  0  0
 11 13  1  0  0  0  0
 13 14  1  0  0  0  0
 13 15  1  1  0  0  0
 15 16  1  0  0  0  0
M  CHG  1   3  -1
M  END
>  <CHROM.1>
51.04396420,-177.94386416,61.14006136,48.63198809,11.61538132,15.58664470
-0.17723943,-0.16659035,2.18546521

>  <Name>
ligand

>  <RI>
0

>  <Rbt.Current_Directory>
/home/itssahil/PROJECTS/Mol_Feturizer/New_Systems/rnas/3B4C

>  <Rbt.Executable>
rbdock ($Id: //depot/dev/client3/rdock/2013.1/src/exe/rbdock.cxx#4 $)

>  <Rbt.Library>
libRbt.so (2013.1, Build901 2013/11/27)

>  <Rbt.Parameter_File>
/export/apps/rDock/src/rDock_2013.1_src/data/scripts/dock_solv.prm

>  <Rbt.Receptor>
prm/pocket_docking_5.prm

>  <SCORE>
-11.4192

>  <SCORE.INTER>
-9.88901

>  <SCORE.INTER.CONST>
1

>  <SCORE.INTER.POLAR>
-1.29829

>  <SCORE.INTER.ROT>
3

>  <SCORE.INTER.SOLV>
18.3661

>  <SCORE.INTER.VDW>
-13.987

>  <SCORE.INTER.norm>
-0.618063

>  <SCORE.INTRA>
-1.53021

>  <SCORE.INTRA.DIHEDRAL>
-1.82409

>  <SCORE.INTRA.DIHEDRAL.0>
2.1318

>  <SCORE.INTRA.POLAR>
0

>  <SCORE.INTRA.POLAR.0>
0

>  <SCORE.INTRA.REPUL>
0

>  <SCORE.INTRA.REPUL.0>
0

>  <SCORE.INTRA.SOLV>
-0.810403

>  <SCORE.INTRA.SOLV.lig_0>
-58.6125

>  <SCORE.INTRA.VDW>
-0.212959

>  <SCORE.INTRA.VDW.0>
-0.432734

>  <SCORE.INTRA.norm>
-0.095638

>  <SCORE.RESTR>
0

>  <SCORE.RESTR.CAVITY>
0

>  <SCORE.RESTR.norm>
0

>  <SCORE.SYSTEM>
0

>  <SCORE.SYSTEM.CONST>
0

>  <SCORE.SYSTEM.DIHEDRAL>
0

>  <SCORE.SYSTEM.SOLV>
0

>  <SCORE.SYSTEM.norm>
0

>  <SCORE.heavy>
16

>  <SCORE.norm>
-0.713701

>  <RMSD>
1.078

$$$$
ligand
 OpenBabel11021811463D
libRbt.so/2013.1/901 2013/11/27
 16 16  0  0  0  0  0  0  0  0999 V2000
   52.3627   11.6149   15.9064 P   0  0  2  0  0  0  0  0  0  0  0  0
   52.8260   10.9698   17.1596 O   0  0  0  0  0  0  0  0  0  0  0  0
   52.8534   10.7481   14.6428 O   0  5  0  0  0  0  0  0  0  0  0  0
   53.0042   13.0908   15.8076 O   0  0  0  0  0  0  0  0  0  0  0  0
   46.8470   10.8703   17.4307 C   0  0  2  0  0  0  0  0  0  0  0  0
   46.3073    9.5569   17.2426 O   0  0  0  0  0  0  0  0  0  0  0  0
   46.1977   11.8757   16.4451 C   0  0  2  0  0  0  0  0  0  0  0  0
   44.7363   11.8991   16.6471 N   0  0  0  0  0  0  0  0  0  0  0  0
   46.5230   11.4333   15.0084 C   0  0  1  0  0  0  0  0  0  0  0  0
   45.9535   12.3500   14.0700 O   0  0  0  0  0  0  0  0  0  0  0  0
   48.0427   11.4230   14.8533 C   0  0  2  0  0  0  0  0  0  0  0  0
   48.3660   11.0138   13.5304 O   0  0  0  0  0  0  0  0  0  0  0  0
   48.6427   10.4257   15.8816 C   0  0  2  0  0  0  0  0  0  0  0  0
   48.2950   10.8290   17.2417 O   0  0  0  0  0  0  0  0  0  0  0  0
   50.1867   10.3856   15.7673 C   0  0  0  0  0  0  0  0  0  0  0  0
   50.7448   11.7042   15.9133 O   0  0  0  0  0  0  0  0  0  0  0  0
  1  2  1  1  0  0  0
  1  3  1  0  0  0  0
  1  4  2  0  0  0  0
  1 16  1  0  0  0  0
  5  6  1  6  0  0  0
  5  7  1  0  0  0  0
  5 14  1  0  0  0  0
  7  8  1  6  0  0  0
  7  9  1  0  0  0  0
  9 10  1  6  0  0  0
  9 11  1  0  0  0  0
 11 12  1  6  0  0  0
 11 13  1  0  0  0  0
 13 14  1  0  0  0  0
 13 15  1  1  0  0  0
 15 16  1  0  0  0  0
M  CHG  1   3  -1
M  END
>  <CHROM.1>
55.38865699,175.56414018,-70.04024558,49.19360756,11.28801627,15.84001822
-0.03393730,0.03404292,1.92023283

>  <Name>
ligand

>  <RI>
0

>  <Rbt.Current_Directory>
/home/itssahil/PROJECTS/Mol_Feturizer/New_Systems/rnas/3B4C

>  <Rbt.Executable>
rbdock ($Id: //depot/dev/client3/rdock/2013.1/src/exe/rbdock.cxx#4 $)

>  <Rbt.Library>
libRbt.so (2013.1, Build901 2013/11/27)

>  <Rbt.Parameter_File>
/export/apps/rDock/src/rDock_2013.1_src/data/scripts/dock_solv.prm

>  <Rbt.Receptor>
prm/pocket_docking_5.prm

>  <SCORE>
-11.8808

>  <SCORE.INTER>
-10.4193

>  <SCORE.INTER.CONST>
1

>  <SCORE.INTER.POLAR>
-1.29904

>  <SCORE.INTER.ROT>
3

>  <SCORE.INTER.SOLV>
17.033

>  <SCORE.INTER.VDW>
-13.8937

>  <SCORE.INTER.norm>
-0.651203

>  <SCORE.INTRA>
-1.46153

>  <SCORE.INTRA.DIHEDRAL>
-1.7984

>  <SCORE.INTRA.DIHEDRAL.0>
2.1318

>  <SCORE.INTRA.POLAR>
0

>  <SCORE.INTRA.POLAR.0>
0

>  <SCORE.INTRA.REPUL>
0

>  <SCORE.INTRA.REPUL.0>
0

>  <SCORE.INTRA.SOLV>
-0.719418

>  <SCORE.INTRA.SOLV.lig_0>
-58.6125

>  <SCORE.INTRA.VDW>
-0.202624

>  <SCORE.INTRA.VDW.0>
-0.432734

>  <SCORE.INTRA.norm>
-0.0913457

>  <SCORE.RESTR>
0

>  <SCORE.RESTR.CAVITY>
0

>  <SCORE.RESTR.norm>
0

>  <SCORE.SYSTEM>
0

>  <SCORE.SYSTEM.CONST>
0

>  <SCORE.SYSTEM.DIHEDRAL>
0

>  <SCORE.SYSTEM.SOLV>
0

>  <SCORE.SYSTEM.norm>
0

>  <SCORE.heavy>
16

>  <SCORE.norm>
-0.742549

>  <RMSD>
1.087

$$$$
ligand
 OpenBabel11021811463D
libRbt.so/2013.1/901 2013/11/27
 16 16  0  0  0  0  0  0  0  0999 V2000
   52.1989   11.6512   15.7255 P   0  0  2  0  0  0  0  0  0  0  0  0
   52.6775   11.1226   17.0266 O   0  0  0  0  0  0  0  0  0  0  0  0
   52.7064   10.6929   14.5369 O   0  5  0  0  0  0  0  0  0  0  0  0
   52.8084   13.1271   15.5024 O   0  0  0  0  0  0  0  0  0  0  0  0
   46.7510   10.9978   17.4179 C   0  0  2  0  0  0  0  0  0  0  0  0
   46.2452    9.6578   17.4345 O   0  0  0  0  0  0  0  0  0  0  0  0
   46.0410   11.8378   16.3250 C   0  0  2  0  0  0  0  0  0  0  0  0
   44.5868   11.8524   16.5735 N   0  0  0  0  0  0  0  0  0  0  0  0
   46.3340   11.2060   14.9537 C   0  0  1  0  0  0  0  0  0  0  0  0
   45.7080   11.9669   13.9172 O   0  0  0  0  0  0  0  0  0  0  0  0
   47.8477   11.2123   14.7478 C   0  0  2  0  0  0  0  0  0  0  0  0
   48.1412   10.6293   13.4845 O   0  0  0  0  0  0  0  0  0  0  0  0
   48.5095   10.3850   15.8835 C   0  0  2  0  0  0  0  0  0  0  0  0
   48.1929   10.9668   17.1853 O   0  0  0  0  0  0  0  0  0  0  0  0
   50.0496   10.3682   15.7213 C   0  0  0  0  0  0  0  0  0  0  0  0
   50.5794   11.7064   15.7300 O   0  0  0  0  0  0  0  0  0  0  0  0
  1  2  1  1  0  0  0
  1  3  1  0  0  0  0
  1  4  2  0  0  0  0
  1 16  1  0  0  0  0
  5  6  1  6  0  0  0
  5  7  1  0  0  0  0
  5 14  1  0  0  0  0
  7  8  1  1  0  0  0
  7  9  1  0  0  0  0
  9 10  1  6  0  0  0
  9 11  1  0  0  0  0
 11 12  1  6  0  0  0
 11 13  1  0  0  0  0
 13 14  1  0  0  0  0
 13 15  1  6  0  0  0
 15 16  1  0  0  0  0
M  CHG  1   3  -1
M  END
>  <CHROM.1>
58.31435545,173.72645483,-68.96421425,49.03583497,11.24387935,15.74593806
-0.05114230,0.05499107,1.76716659

>  <Name>
ligand

>  <RI>
0

>  <Rbt.Current_Directory>
/home/itssahil/PROJECTS/Mol_Feturizer/New_Systems/rnas/3B4C

>  <Rbt.Executable>
rbdock ($Id: //depot/dev/client3/rdock/2013.1/src/exe/rbdock.cxx#4 $)

>  <Rbt.Library>
libRbt.so (2013.1, Build901 2013/11/27)

>  <Rbt.Parameter_File>
/export/apps/rDock/src/rDock_2013.1_src/data/scripts/dock_solv.prm

>  <Rbt.Receptor>
prm/pocket_docking_3.prm

>  <SCORE>
-11.906

>  <SCORE.INTER>
-10.4094

>  <SCORE.INTER.CONST>
1

>  <SCORE.INTER.POLAR>
-1.29904

>  <SCORE.INTER.ROT>
3

>  <SCORE.INTER.SOLV>
17.2171

>  <SCORE.INTER.VDW>
-13.9485

>  <SCORE.INTER.norm>
-0.650589

>  <SCORE.INTRA>
-1.49656

>  <SCORE.INTRA.DIHEDRAL>
-1.79985

>  <SCORE.INTRA.DIHEDRAL.0>
2.1318

>  <SCORE.INTRA.POLAR>
0

>  <SCORE.INTRA.POLAR.0>
0

>  <SCORE.INTRA.REPUL>
0

>  <SCORE.INTRA.REPUL.0>
0

>  <SCORE.INTRA.SOLV>
-0.734582

>  <SCORE.INTRA.SOLV.lig_0>
-58.6125

>  <SCORE.INTRA.VDW>
-0.229343

>  <SCORE.INTRA.VDW.0>
-0.432734

>  <SCORE.INTRA.norm>
-0.0935349

>  <SCORE.RESTR>
0

>  <SCORE.RESTR.CAVITY>
0

>  <SCORE.RESTR.norm>
0

>  <SCORE.SYSTEM>
0

>  <SCORE.SYSTEM.CONST>
0

>  <SCORE.SYSTEM.DIHEDRAL>
0

>  <SCORE.SYSTEM.SOLV>
0

>  <SCORE.SYSTEM.norm>
0

>  <SCORE.heavy>
16

>  <SCORE.norm>
-0.744124

>  <RMSD>
1.091

$$$$
ligand
 OpenBabel11021811463D
libRbt.so/2013.1/901 2013/11/27
 16 16  0  0  0  0  0  0  0  0999 V2000
   51.7819   11.5877   15.1182 P   0  0  2  0  0  0  0  0  0  0  0  0
   52.3253   10.3825   15.7916 O   0  0  0  0  0  0  0  0  0  0  0  0
   51.8684   11.3967   13.5230 O   0  5  0  0  0  0  0  0  0  0  0  0
   52.6668   12.8681   15.5393 O   0  0  0  0  0  0  0  0  0  0  0  0
   46.5578   11.0307   17.5631 C   0  0  2  0  0  0  0  0  0  0  0  0
   45.8043    9.8718   17.1876 O   0  0  0  0  0  0  0  0  0  0  0  0
   45.9134   12.3152   16.9811 C   0  0  2  0  0  0  0  0  0  0  0  0
   44.5251   12.4398   17.4649 N   0  0  0  0  0  0  0  0  0  0  0  0
   45.9289   12.2193   15.4462 C   0  0  1  0  0  0  0  0  0  0  0  0
   45.3569   13.3982   14.8734 O   0  0  0  0  0  0  0  0  0  0  0  0
   47.3838   12.0893   14.9988 C   0  0  2  0  0  0  0  0  0  0  0  0
   47.4209   11.9967   13.5804 O   0  0  0  0  0  0  0  0  0  0  0  0
   47.9883   10.8068   15.6328 C   0  0  2  0  0  0  0  0  0  0  0  0
   47.9326   10.8869   17.0902 O   0  0  0  0  0  0  0  0  0  0  0  0
   49.4691   10.6352   15.2128 C   0  0  0  0  0  0  0  0  0  0  0  0
   50.2378   11.8012   15.5607 O   0  0  0  0  0  0  0  0  0  0  0  0
  1  2  1  1  0  0  0
  1  3  1  0  0  0  0
  1  4  2  0  0  0  0
  1 16  1  0  0  0  0
  5  6  1  6  0  0  0
  5  7  1  0  0  0  0
  5 14  1  0  0  0  0
  7  8  1  1  0  0  0
  7  9  1  0  0  0  0
  9 10  1  6  0  0  0
  9 11  1  0  0  0  0
 11 12  1  6  0  0  0
 11 13  1  0  0  0  0
 13 14  1  0  0  0  0
 13 15  1  1  0  0  0
 15 16  1  0  0  0  0
M  CHG  1   3  -1
M  END
>  <CHROM.1>
56.10417634,179.62678948,-58.48143992,48.64181439,11.60273117,15.65331736
-0.15447578,-0.16713071,2.16418095

>  <Name>
ligand

>  <RI>
0

>  <Rbt.Current_Directory>
/home/itssahil/PROJECTS/Mol_Feturizer/New_Systems/rnas/3B4C

>  <Rbt.Executable>
rbdock ($Id: //depot/dev/client3/rdock/2013.1/src/exe/rbdock.cxx#4 $)

>  <Rbt.Library>
libRbt.so (2013.1, Build901 2013/11/27)

>  <Rbt.Parameter_File>
/export/apps/rDock/src/rDock_2013.1_src/data/scripts/dock_solv.prm

>  <Rbt.Receptor>
prm/pocket_docking_4.prm

>  <SCORE>
-11.1923

>  <SCORE.INTER>
-9.52341

>  <SCORE.INTER.CONST>
1

>  <SCORE.INTER.POLAR>
-1.03923

>  <SCORE.INTER.ROT>
3

>  <SCORE.INTER.SOLV>
17.2041

>  <SCORE.INTER.VDW>
-14.2196

>  <SCORE.INTER.norm>
-0.595213

>  <SCORE.INTRA>
-1.66885

>  <SCORE.INTRA.DIHEDRAL>
-2.07094

>  <SCORE.INTRA.DIHEDRAL.0>
2.1318

>  <SCORE.INTRA.POLAR>
0

>  <SCORE.INTRA.POLAR.0>
0

>  <SCORE.INTRA.REPUL>
0

>  <SCORE.INTRA.REPUL.0>
0

>  <SCORE.INTRA.SOLV>
-0.825123

>  <SCORE.INTRA.SOLV.lig_0>
-58.6125

>  <SCORE.INTRA.VDW>
-0.22082

>  <SCORE.INTRA.VDW.0>
-0.432734

>  <SCORE.INTRA.norm>
-0.104303

>  <SCORE.RESTR>
0

>  <SCORE.RESTR.CAVITY>
0

>  <SCORE.RESTR.norm>
0

>  <SCORE.SYSTEM>
0

>  <SCORE.SYSTEM.CONST>
0

>  <SCORE.SYSTEM.DIHEDRAL>
0

>  <SCORE.SYSTEM.SOLV>
0

>  <SCORE.SYSTEM.norm>
0

>  <SCORE.heavy>
16

>  <SCORE.norm>
-0.699517

>  <RMSD>
1.093

$$$$
ligand
 OpenBabel11021811463D
libRbt.so/2013.1/901 2013/11/27
 16 16  0  0  0  0  0  0  0  0999 V2000
   51.7141   11.4768   15.4789 P   0  0  2  0  0  0  0  0  0  0  0  0
   51.9517   12.8080   16.0893 O   0  0  0  0  0  0  0  0  0  0  0  0
   52.7477   10.4100   16.0974 O   0  5  0  0  0  0  0  0  0  0  0  0
   51.9577   11.5778   13.8883 O   0  0  0  0  0  0  0  0  0  0  0  0
   46.4213   11.1452   17.4815 C   0  0  2  0  0  0  0  0  0  0  0  0
   46.0289    9.8729   16.9533 O   0  0  0  0  0  0  0  0  0  0  0  0
   45.4192   12.2484   17.0539 C   0  0  2  0  0  0  0  0  0  0  0  0
   44.0653   11.9032   17.5278 N   0  0  0  0  0  0  0  0  0  0  0  0
   45.4290   12.3514   15.5194 C   0  0  1  0  0  0  0  0  0  0  0  0
   44.5272   13.3743   15.0888 O   0  0  0  0  0  0  0  0  0  0  0  0
   46.8491   12.7063   15.0819 C   0  0  2  0  0  0  0  0  0  0  0  0
   46.8811   12.8044   13.6637 O   0  0  0  0  0  0  0  0  0  0  0  0
   47.8134   11.5871   15.5609 C   0  0  2  0  0  0  0  0  0  0  0  0
   47.7681   11.4669   17.0158 O   0  0  0  0  0  0  0  0  0  0  0  0
   49.2708   11.9067   15.1458 C   0  0  0  0  0  0  0  0  0  0  0  0
   50.1940   11.0073   15.7863 O   0  0  0  0  0  0  0  0  0  0  0  0
  1  2  1  1  0  0  0
  1  3  1  0  0  0  0
  1  4  2  0  0  0  0
  1 16  1  0  0  0  0
  5  6  1  6  0  0  0
  5  7  1  0  0  0  0
  5 14  1  0  0  0  0
  7  8  1  6  0  0  0
  7  9  1  0  0  0  0
  9 10  1  1  0  0  0
  9 11  1  0  0  0  0
 11 12  1  6  0  0  0
 11 13  1  0  0  0  0
 13 14  1  0  0  0  0
 13 15  1  1  0  0  0
 15 16  1  0  0  0  0
M  CHG  1   3  -1
M  END
>  <CHROM.1>
169.68981333,-173.12165014,64.20527121,48.40308362,11.75714076,15.79248813
-0.04992258,-0.15144515,2.18036204

>  <Name>
ligand

>  <RI>
0

>  <Rbt.Current_Directory>
/home/itssahil/PROJECTS/Mol_Feturizer/New_Systems/rnas/3B4C

>  <Rbt.Executable>
rbdock ($Id: //depot/dev/client3/rdock/2013.1/src/exe/rbdock.cxx#4 $)

>  <Rbt.Library>
libRbt.so (2013.1, Build901 2013/11/27)

>  <Rbt.Parameter_File>
/export/apps/rDock/src/rDock_2013.1_src/data/scripts/dock_solv.prm

>  <Rbt.Receptor>
prm/pocket_docking_5.prm

>  <SCORE>
-12.1011

>  <SCORE.INTER>
-10.7625

>  <SCORE.INTER.CONST>
1

>  <SCORE.INTER.POLAR>
-1.29875

>  <SCORE.INTER.ROT>
3

>  <SCORE.INTER.SOLV>
18.9646

>  <SCORE.INTER.VDW>
-14.7674

>  <SCORE.INTER.norm>
-0.672654

>  <SCORE.INTRA>
-1.33869

>  <SCORE.INTRA.DIHEDRAL>
-1.49629

>  <SCORE.INTRA.DIHEDRAL.0>
2.1318

>  <SCORE.INTRA.POLAR>
0

>  <SCORE.INTRA.POLAR.0>
0

>  <SCORE.INTRA.REPUL>
0

>  <SCORE.INTRA.REPUL.0>
0

>  <SCORE.INTRA.SOLV>
-0.937776

>  <SCORE.INTRA.SOLV.lig_0>
-58.6125

>  <SCORE.INTRA.VDW>
-0.121658

>  <SCORE.INTRA.VDW.0>
-0.432734

>  <SCORE.INTRA.norm>
-0.083668

>  <SCORE.RESTR>
0

>  <SCORE.RESTR.CAVITY>
0

>  <SCORE.RESTR.norm>
0

>  <SCORE.SYSTEM>
0

>  <SCORE.SYSTEM.CONST>
0

>  <SCORE.SYSTEM.DIHEDRAL>
0

>  <SCORE.SYSTEM.SOLV>
0

>  <SCORE.SYSTEM.norm>
0

>  <SCORE.heavy>
16

>  <SCORE.norm>
-0.756322

>  <RMSD>
1.102

$$$$
ligand
 OpenBabel11021811463D
libRbt.so/2013.1/901 2013/11/27
 16 16  0  0  0  0  0  0  0  0999 V2000
   52.2431   11.6458   15.7160 P   0  0  2  0  0  0  0  0  0  0  0  0
   52.7193   11.1158   17.0175 O   0  0  0  0  0  0  0  0  0  0  0  0
   52.7922   10.7154   14.5237 O   0  5  0  0  0  0  0  0  0  0  0  0
   52.8145   13.1403   15.5172 O   0  0  0  0  0  0  0  0  0  0  0  0
   46.8365   10.8432   17.4289 C   0  0  2  0  0  0  0  0  0  0  0  0
   46.3690    9.4894   17.4535 O   0  0  0  0  0  0  0  0  0  0  0  0
   46.0895   11.6610   16.3440 C   0  0  2  0  0  0  0  0  0  0  0  0
   44.6386   11.6350   16.6106 N   0  0  0  0  0  0  0  0  0  0  0  0
   46.3829   11.0355   14.9699 C   0  0  1  0  0  0  0  0  0  0  0  0
   45.7228   11.7768   13.9403 O   0  0  0  0  0  0  0  0  0  0  0  0
   47.8932   11.0842   14.7449 C   0  0  2  0  0  0  0  0  0  0  0  0
   48.1872   10.5077   13.4788 O   0  0  0  0  0  0  0  0  0  0  0  0
   48.5922   10.2778   15.8733 C   0  0  2  0  0  0  0  0  0  0  0  0
   48.2757   10.8525   17.1782 O   0  0  0  0  0  0  0  0  0  0  0  0
   50.1301   10.3042   15.6918 C   0  0  0  0  0  0  0  0  0  0  0  0
   50.6228   11.6565   15.6997 O   0  0  0  0  0  0  0  0  0  0  0  0
  1  2  1  1  0  0  0
  1  3  1  0  0  0  0
  1  4  2  0  0  0  0
  1 16  1  0  0  0  0
  5  6  1  6  0  0  0
  5  7  1  0  0  0  0
  5 14  1  0  0  0  0
  7  8  1  1  0  0  0
  7  9  1  0  0  0  0
  9 10  1  6  0  0  0
  9 11  1  0  0  0  0
 11 12  1  6  0  0  0
 11 13  1  0  0  0  0
 13 14  1  0  0  0  0
 13 15  1  6  0  0  0
 15 16  1  0  0  0  0
M  CHG  1   3  -1
M  END
>  <CHROM.1>
58.64004094,172.17506794,-68.01390909,49.09290695,11.15045580,15.74635320
-0.05932146,0.08192512,1.76137026

>  <Name>
ligand

>  <RI>
0

>  <Rbt.Current_Directory>
/home/itssahil/PROJECTS/Mol_Feturizer/New_Systems/rnas/3B4C

>  <Rbt.Executable>
rbdock ($Id: //depot/dev/client3/rdock/2013.1/src/exe/rbdock.cxx#4 $)

>  <Rbt.Library>
libRbt.so (2013.1, Build901 2013/11/27)

>  <Rbt.Parameter_File>
/export/apps/rDock/src/rDock_2013.1_src/data/scripts/dock_solv.prm

>  <Rbt.Receptor>
prm/pocket_docking_4.prm

>  <SCORE>
-11.8991

>  <SCORE.INTER>
-10.4275

>  <SCORE.INTER.CONST>
1

>  <SCORE.INTER.POLAR>
-1.29904

>  <SCORE.INTER.ROT>
3

>  <SCORE.INTER.SOLV>
17.555

>  <SCORE.INTER.VDW>
-14.0732

>  <SCORE.INTER.norm>
-0.651717

>  <SCORE.INTRA>
-1.47164

>  <SCORE.INTRA.DIHEDRAL>
-1.72327

>  <SCORE.INTRA.DIHEDRAL.0>
2.1318

>  <SCORE.INTRA.POLAR>
0

>  <SCORE.INTRA.POLAR.0>
0

>  <SCORE.INTRA.REPUL>
0

>  <SCORE.INTRA.REPUL.0>
0

>  <SCORE.INTRA.SOLV>
-0.745074

>  <SCORE.INTRA.SOLV.lig_0>
-58.6125

>  <SCORE.INTRA.VDW>
-0.23747

>  <SCORE.INTRA.VDW.0>
-0.432734

>  <SCORE.INTRA.norm>
-0.0919776

>  <SCORE.RESTR>
0

>  <SCORE.RESTR.CAVITY>
0

>  <SCORE.RESTR.norm>
0

>  <SCORE.SYSTEM>
0

>  <SCORE.SYSTEM.CONST>
0

>  <SCORE.SYSTEM.DIHEDRAL>
0

>  <SCORE.SYSTEM.SOLV>
0

>  <SCORE.SYSTEM.norm>
0

>  <SCORE.heavy>
16

>  <SCORE.norm>
-0.743695

>  <RMSD>
1.118

$$$$
ligand
 OpenBabel11021811463D
libRbt.so/2013.1/901 2013/11/27
 16 16  0  0  0  0  0  0  0  0999 V2000
   52.2862   11.5336   16.0697 P   0  0  2  0  0  0  0  0  0  0  0  0
   52.6033   10.7558   17.2927 O   0  0  0  0  0  0  0  0  0  0  0  0
   52.8578   10.7618   14.7789 O   0  5  0  0  0  0  0  0  0  0  0  0
   52.9933   12.9792   16.1690 O   0  0  0  0  0  0  0  0  0  0  0  0
   46.7227   10.9451   17.4126 C   0  0  2  0  0  0  0  0  0  0  0  0
   46.1284    9.6714   17.1363 O   0  0  0  0  0  0  0  0  0  0  0  0
   46.1387   12.0361   16.4785 C   0  0  2  0  0  0  0  0  0  0  0  0
   44.6762   12.1145   16.6565 N   0  0  0  0  0  0  0  0  0  0  0  0
   46.4723   11.6656   15.0235 C   0  0  1  0  0  0  0  0  0  0  0  0
   45.9632   12.6618   14.1326 O   0  0  0  0  0  0  0  0  0  0  0  0
   47.9928   11.5948   14.8940 C   0  0  2  0  0  0  0  0  0  0  0  0
   48.3236   11.2506   13.5546 O   0  0  0  0  0  0  0  0  0  0  0  0
   48.5270   10.5115   15.8703 C   0  0  2  0  0  0  0  0  0  0  0  0
   48.1708   10.8486   17.2462 O   0  0  0  0  0  0  0  0  0  0  0  0
   50.0696   10.4074   15.7803 C   0  0  0  0  0  0  0  0  0  0  0  0
   50.6797   11.7011   15.9400 O   0  0  0  0  0  0  0  0  0  0  0  0
  1  2  1  1  0  0  0
  1  3  1  0  0  0  0
  1  4  2  0  0  0  0
  1 16  1  0  0  0  0
  5  6  1  6  0  0  0
  5  7  1  0  0  0  0
  5 14  1  0  0  0  0
  7  8  1  6  0  0  0
  7  9  1  0  0  0  0
  9 10  1  6  0  0  0
  9 11  1  0  0  0  0
 11 12  1  6  0  0  0
 11 13  1  0  0  0  0
 13 14  1  0  0  0  0
 13 15  1  1  0  0  0
 15 16  1  0  0  0  0
M  CHG  1   3  -1
M  END
>  <CHROM.1>
52.13556684,171.35081670,-63.17840987,49.11373446,11.35197703,15.90518477
0.00648042,0.00263264,1.97494478

>  <Name>
ligand

>  <RI>
0

>  <Rbt.Current_Directory>
/home/itssahil/PROJECTS/Mol_Feturizer/New_Systems/rnas/3B4C

>  <Rbt.Executable>
rbdock ($Id: //depot/dev/client3/rdock/2013.1/src/exe/rbdock.cxx#4 $)

>  <Rbt.Library>
libRbt.so (2013.1, Build901 2013/11/27)

>  <Rbt.Parameter_File>
/export/apps/rDock/src/rDock_2013.1_src/data/scripts/dock_solv.prm

>  <Rbt.Receptor>
prm/pocket_docking_4.prm

>  <SCORE>
-11.816

>  <SCORE.INTER>
-10.4541

>  <SCORE.INTER.CONST>
1

>  <SCORE.INTER.POLAR>
-1.29797

>  <SCORE.INTER.ROT>
3

>  <SCORE.INTER.SOLV>
17.5948

>  <SCORE.INTER.VDW>
-14.1078

>  <SCORE.INTER.norm>
-0.653384

>  <SCORE.INTRA>
-1.36184

>  <SCORE.INTRA.DIHEDRAL>
-1.53279

>  <SCORE.INTRA.DIHEDRAL.0>
2.1318

>  <SCORE.INTRA.POLAR>
0

>  <SCORE.INTRA.POLAR.0>
0

>  <SCORE.INTRA.REPUL>
0

>  <SCORE.INTRA.REPUL.0>
0

>  <SCORE.INTRA.SOLV>
-0.787444

>  <SCORE.INTRA.SOLV.lig_0>
-58.6125

>  <SCORE.INTRA.VDW>
-0.201729

>  <SCORE.INTRA.VDW.0>
-0.432734

>  <SCORE.INTRA.norm>
-0.0851153

>  <SCORE.RESTR>
0

>  <SCORE.RESTR.CAVITY>
0

>  <SCORE.RESTR.norm>
0

>  <SCORE.SYSTEM>
0

>  <SCORE.SYSTEM.CONST>
0

>  <SCORE.SYSTEM.DIHEDRAL>
0

>  <SCORE.SYSTEM.SOLV>
0

>  <SCORE.SYSTEM.norm>
0

>  <SCORE.heavy>
16

>  <SCORE.norm>
-0.738499

>  <RMSD>
1.119

$$$$
ligand
 OpenBabel11021811463D
libRbt.so/2013.1/901 2013/11/27
 16 16  0  0  0  0  0  0  0  0999 V2000
   51.4362   11.5868   15.1641 P   0  0  2  0  0  0  0  0  0  0  0  0
   51.4234   12.6594   14.1391 O   0  0  0  0  0  0  0  0  0  0  0  0
   52.5218   11.9401   16.2979 O   0  5  0  0  0  0  0  0  0  0  0  0
   51.8486   10.1951   14.4623 O   0  0  0  0  0  0  0  0  0  0  0  0
   46.0885   10.5491   17.2057 C   0  0  2  0  0  0  0  0  0  0  0  0
   45.2353    9.7488   16.3790 O   0  0  0  0  0  0  0  0  0  0  0  0
   45.6310   12.0305   17.1927 C   0  0  2  0  0  0  0  0  0  0  0  0
   44.2373   12.1264   17.6672 N   0  0  0  0  0  0  0  0  0  0  0  0
   45.7344   12.5628   15.7534 C   0  0  1  0  0  0  0  0  0  0  0  0
   45.3363   13.9356   15.7063 O   0  0  0  0  0  0  0  0  0  0  0  0
   47.1912   12.4388   15.3106 C   0  0  2  0  0  0  0  0  0  0  0  0
   47.3089   12.9241   13.9793 O   0  0  0  0  0  0  0  0  0  0  0  0
   47.6059   10.9433   15.3716 C   0  0  2  0  0  0  0  0  0  0  0  0
   47.4659   10.4333   16.7331 O   0  0  0  0  0  0  0  0  0  0  0  0
   49.0820   10.7673   14.9371 C   0  0  0  0  0  0  0  0  0  0  0  0
   49.9657   11.4648   15.8338 O   0  0  0  0  0  0  0  0  0  0  0  0
  1  2  1  6  0  0  0
  1  3  1  0  0  0  0
  1  4  2  0  0  0  0
  1 16  1  0  0  0  0
  5  6  1  6  0  0  0
  5  7  1  0  0  0  0
  5 14  1  0  0  0  0
  7  8  1  6  0  0  0
  7  9  1  0  0  0  0
  9 10  1  1  0  0  0
  9 11  1  0  0  0  0
 11 12  1  6  0  0  0
 11 13  1  0  0  0  0
 13 14  1  0  0  0  0
 13 15  1  1  0  0  0
 15 16  1  0  0  0  0
M  CHG  1   3  -1
M  END
>  <CHROM.1>
62.51320289,-165.64358093,77.18965605,48.32414355,11.64018796,15.69021975
0.06404201,0.22619562,-0.49411027

>  <Name>
ligand

>  <RI>
0

>  <Rbt.Current_Directory>
/home/itssahil/PROJECTS/Mol_Feturizer/New_Systems/rnas/3B4C

>  <Rbt.Executable>
rbdock ($Id: //depot/dev/client3/rdock/2013.1/src/exe/rbdock.cxx#4 $)

>  <Rbt.Library>
libRbt.so (2013.1, Build901 2013/11/27)

>  <Rbt.Parameter_File>
/export/apps/rDock/src/rDock_2013.1_src/data/scripts/dock_solv.prm

>  <Rbt.Receptor>
prm/pocket_docking_6.prm

>  <SCORE>
-10.7551

>  <SCORE.INTER>
-9.86113

>  <SCORE.INTER.CONST>
1

>  <SCORE.INTER.POLAR>
-1.29904

>  <SCORE.INTER.ROT>
3

>  <SCORE.INTER.SOLV>
19.1011

>  <SCORE.INTER.VDW>
-14.211

>  <SCORE.INTER.norm>
-0.61632

>  <SCORE.INTRA>
-0.893983

>  <SCORE.INTRA.DIHEDRAL>
-0.677022

>  <SCORE.INTRA.DIHEDRAL.0>
2.1318

>  <SCORE.INTRA.POLAR>
0

>  <SCORE.INTRA.POLAR.0>
0

>  <SCORE.INTRA.REPUL>
0

>  <SCORE.INTRA.REPUL.0>
0

>  <SCORE.INTRA.SOLV>
-0.640635

>  <SCORE.INTRA.SOLV.lig_0>
-58.6125

>  <SCORE.INTRA.VDW>
-0.235154

>  <SCORE.INTRA.VDW.0>
-0.432734

>  <SCORE.INTRA.norm>
-0.0558739

>  <SCORE.RESTR>
0

>  <SCORE.RESTR.CAVITY>
0

>  <SCORE.RESTR.norm>
0

>  <SCORE.SYSTEM>
0

>  <SCORE.SYSTEM.CONST>
0

>  <SCORE.SYSTEM.DIHEDRAL>
0

>  <SCORE.SYSTEM.SOLV>
0

>  <SCORE.SYSTEM.norm>
0

>  <SCORE.heavy>
16

>  <SCORE.norm>
-0.672194

>  <RMSD>
1.124

$$$$
ligand
 OpenBabel11021811463D
libRbt.so/2013.1/901 2013/11/27
 16 16  0  0  0  0  0  0  0  0999 V2000
   52.1807   11.6441   15.6560 P   0  0  2  0  0  0  0  0  0  0  0  0
   52.7047   11.1675   16.9596 O   0  0  0  0  0  0  0  0  0  0  0  0
   52.7138   10.6847   14.4795 O   0  5  0  0  0  0  0  0  0  0  0  0
   52.7159   13.1417   15.3910 O   0  0  0  0  0  0  0  0  0  0  0  0
   46.8874   10.7503   17.6113 C   0  0  2  0  0  0  0  0  0  0  0  0
   46.4502    9.3876   17.6727 O   0  0  0  0  0  0  0  0  0  0  0  0
   46.0668   11.5418   16.5604 C   0  0  2  0  0  0  0  0  0  0  0  0
   44.6330   11.4889   16.9042 N   0  0  0  0  0  0  0  0  0  0  0  0
   46.3000   10.9088   15.1783 C   0  0  1  0  0  0  0  0  0  0  0  0
   45.5709   11.6261   14.1788 O   0  0  0  0  0  0  0  0  0  0  0  0
   47.7949   10.9861   14.8728 C   0  0  2  0  0  0  0  0  0  0  0  0
   48.0333   10.4031   13.5980 O   0  0  0  0  0  0  0  0  0  0  0  0
   48.5695   10.2055   15.9695 C   0  0  2  0  0  0  0  0  0  0  0  0
   48.3107   10.7866   17.2843 O   0  0  0  0  0  0  0  0  0  0  0  0
   50.0947   10.2615   15.7061 C   0  0  0  0  0  0  0  0  0  0  0  0
   50.5607   11.6231   15.6871 O   0  0  0  0  0  0  0  0  0  0  0  0
  1  2  1  1  0  0  0
  1  3  1  0  0  0  0
  1  4  2  0  0  0  0
  1 16  1  0  0  0  0
  5  6  1  6  0  0  0
  5  7  1  0  0  0  0
  5 14  1  0  0  0  0
  7  8  1  1  0  0  0
  7  9  1  0  0  0  0
  9 10  1  6  0  0  0
  9 11  1  0  0  0  0
 11 12  1  6  0  0  0
 11 13  1  0  0  0  0
 13 14  1  0  0  0  0
 13 15  1  6  0  0  0
 15 16  1  0  0  0  0
M  CHG  1   3  -1
M  END
>  <CHROM.1>
59.12928649,170.70683350,-69.38293261,49.04574860,11.08589818,15.82707666
-0.10571584,0.09383910,1.75206897

>  <Name>
ligand

>  <RI>
0

>  <Rbt.Current_Directory>
/home/itssahil/PROJECTS/Mol_Feturizer/New_Systems/rnas/3B4C

>  <Rbt.Executable>
rbdock ($Id: //depot/dev/client3/rdock/2013.1/src/exe/rbdock.cxx#4 $)

>  <Rbt.Library>
libRbt.so (2013.1, Build901 2013/11/27)

>  <Rbt.Parameter_File>
/export/apps/rDock/src/rDock_2013.1_src/data/scripts/dock_solv.prm

>  <Rbt.Receptor>
prm/pocket_docking_8.prm

>  <SCORE>
-11.9458

>  <SCORE.INTER>
-10.5641

>  <SCORE.INTER.CONST>
1

>  <SCORE.INTER.POLAR>
-1.29904

>  <SCORE.INTER.ROT>
3

>  <SCORE.INTER.SOLV>
18.9179

>  <SCORE.INTER.VDW>
-14.6186

>  <SCORE.INTER.norm>
-0.660258

>  <SCORE.INTRA>
-1.3817

>  <SCORE.INTRA.DIHEDRAL>
-1.5697

>  <SCORE.INTRA.DIHEDRAL.0>
2.1318

>  <SCORE.INTRA.POLAR>
0

>  <SCORE.INTRA.POLAR.0>
0

>  <SCORE.INTRA.REPUL>
0

>  <SCORE.INTRA.REPUL.0>
0

>  <SCORE.INTRA.SOLV>
-0.731159

>  <SCORE.INTRA.SOLV.lig_0>
-58.6125

>  <SCORE.INTRA.VDW>
-0.231268

>  <SCORE.INTRA.VDW.0>
-0.432734

>  <SCORE.INTRA.norm>
-0.086356

>  <SCORE.RESTR>
0

>  <SCORE.RESTR.CAVITY>
0

>  <SCORE.RESTR.norm>
0

>  <SCORE.SYSTEM>
0

>  <SCORE.SYSTEM.CONST>
0

>  <SCORE.SYSTEM.DIHEDRAL>
0

>  <SCORE.SYSTEM.SOLV>
0

>  <SCORE.SYSTEM.norm>
0

>  <SCORE.heavy>
16

>  <SCORE.norm>
-0.746614

>  <RMSD>
1.143

$$$$
ligand
 OpenBabel11021811463D
libRbt.so/2013.1/901 2013/11/27
 16 16  0  0  0  0  0  0  0  0999 V2000
   51.6820   11.9626   14.6558 P   0  0  2  0  0  0  0  0  0  0  0  0
   51.9794   12.5552   15.9831 O   0  0  0  0  0  0  0  0  0  0  0  0
   52.5503   10.6224   14.4590 O   0  5  0  0  0  0  0  0  0  0  0  0
   52.0857   13.0194   13.5069 O   0  0  0  0  0  0  0  0  0  0  0  0
   46.3213    9.9435   17.1421 C   0  0  2  0  0  0  0  0  0  0  0  0
   45.9647    8.9895   16.1348 O   0  0  0  0  0  0  0  0  0  0  0  0
   45.5254   11.2609   16.9549 C   0  0  2  0  0  0  0  0  0  0  0  0
   44.0779   10.9823   17.0164 N   0  0  0  0  0  0  0  0  0  0  0  0
   45.8876   11.8622   15.5864 C   0  0  1  0  0  0  0  0  0  0  0  0
   45.1839   13.0910   15.3866 O   0  0  0  0  0  0  0  0  0  0  0  0
   47.3919   12.1282   15.5739 C   0  0  2  0  0  0  0  0  0  0  0  0
   47.7492   12.6831   14.3144 O   0  0  0  0  0  0  0  0  0  0  0  0
   48.1383   10.7844   15.7955 C   0  0  2  0  0  0  0  0  0  0  0  0
   47.7582   10.1986   17.0784 O   0  0  0  0  0  0  0  0  0  0  0  0
   49.6714   11.0046   15.7980 C   0  0  0  0  0  0  0  0  0  0  0  0
   50.1031   11.6096   14.5655 O   0  0  0  0  0  0  0  0  0  0  0  0
  1  2  1  1  0  0  0
  1  3  1  0  0  0  0
  1  4  2  0  0  0  0
  1 16  1  0  0  0  0
  5  6  1  6  0  0  0
  5  7  1  0  0  0  0
  5 14  1  0  0  0  0
  7  8  1  6  0  0  0
  7  9  1  0  0  0  0
  9 10  1  1  0  0  0
  9 11  1  0  0  0  0
 11 12  1  6  0  0  0
 11 13  1  0  0  0  0
 13 14  1  0  0  0  0
 13 15  1  1  0  0  0
 15 16  1  0  0  0  0
M  CHG  1   3  -1
M  END
>  <CHROM.1>
-57.71528444,174.37830108,-42.99642729,48.57459513,11.47076205,15.51738325
-0.26616295,-0.17083216,2.61642302

>  <Name>
ligand

>  <RI>
0

>  <Rbt.Current_Directory>
/home/itssahil/PROJECTS/Mol_Feturizer/New_Systems/rnas/3B4C

>  <Rbt.Executable>
rbdock ($Id: //depot/dev/client3/rdock/2013.1/src/exe/rbdock.cxx#4 $)

>  <Rbt.Library>
libRbt.so (2013.1, Build901 2013/11/27)

>  <Rbt.Parameter_File>
/export/apps/rDock/src/rDock_2013.1_src/data/scripts/dock_solv.prm

>  <Rbt.Receptor>
prm/pocket_docking_2.prm

>  <SCORE>
-10.3961

>  <SCORE.INTER>
-9.6472

>  <SCORE.INTER.CONST>
1

>  <SCORE.INTER.POLAR>
-1.29904

>  <SCORE.INTER.ROT>
3

>  <SCORE.INTER.SOLV>
16.8974

>  <SCORE.INTER.VDW>
-13.3338

>  <SCORE.INTER.norm>
-0.60295

>  <SCORE.INTRA>
-0.753832

>  <SCORE.INTRA.DIHEDRAL>
-1.50547

>  <SCORE.INTRA.DIHEDRAL.0>
2.1318

>  <SCORE.INTRA.POLAR>
0

>  <SCORE.INTRA.POLAR.0>
0

>  <SCORE.INTRA.REPUL>
0

>  <SCORE.INTRA.REPUL.0>
0

>  <SCORE.INTRA.SOLV>
-0.682164

>  <SCORE.INTRA.SOLV.lig_0>
-58.6125

>  <SCORE.INTRA.VDW>
0.339985

>  <SCORE.INTRA.VDW.0>
-0.432734

>  <SCORE.INTRA.norm>
-0.0471145

>  <SCORE.RESTR>
0.00489426

>  <SCORE.RESTR.CAVITY>
0.00489426

>  <SCORE.RESTR.norm>
0.000305891

>  <SCORE.SYSTEM>
0

>  <SCORE.SYSTEM.CONST>
0

>  <SCORE.SYSTEM.DIHEDRAL>
0

>  <SCORE.SYSTEM.SOLV>
0

>  <SCORE.SYSTEM.norm>
0

>  <SCORE.heavy>
16

>  <SCORE.norm>
-0.649759

>  <RMSD>
1.157

$$$$
ligand
 OpenBabel11021811463D
libRbt.so/2013.1/901 2013/11/27
 16 16  0  0  0  0  0  0  0  0999 V2000
   52.2111   11.6819   15.5750 P   0  0  2  0  0  0  0  0  0  0  0  0
   52.6664   10.6863   14.5735 O   0  0  0  0  0  0  0  0  0  0  0  0
   52.6903   13.1514   15.1278 O   0  5  0  0  0  0  0  0  0  0  0  0
   52.8716   11.3296   17.0030 O   0  0  0  0  0  0  0  0  0  0  0  0
   46.8744   10.8275   17.5639 C   0  0  2  0  0  0  0  0  0  0  0  0
   46.4534    9.4642   17.6907 O   0  0  0  0  0  0  0  0  0  0  0  0
   46.0801   11.5439   16.4415 C   0  0  2  0  0  0  0  0  0  0  0  0
   44.6361   11.4893   16.7395 N   0  0  0  0  0  0  0  0  0  0  0  0
   46.3690   10.8351   15.1075 C   0  0  1  0  0  0  0  0  0  0  0  0
   45.6652   11.4817   14.0437 O   0  0  0  0  0  0  0  0  0  0  0  0
   47.8723   10.9171   14.8483 C   0  0  2  0  0  0  0  0  0  0  0  0
   48.1621   10.2645   13.6187 O   0  0  0  0  0  0  0  0  0  0  0  0
   48.6190   10.2136   16.0143 C   0  0  2  0  0  0  0  0  0  0  0  0
   48.3075   10.8663   17.2833 O   0  0  0  0  0  0  0  0  0  0  0  0
   50.1515   10.2773   15.7994 C   0  0  0  0  0  0  0  0  0  0  0  0
   50.5945   11.6413   15.6777 O   0  0  0  0  0  0  0  0  0  0  0  0
  1  2  1  6  0  0  0
  1  3  1  0  0  0  0
  1  4  2  0  0  0  0
  1 16  1  0  0  0  0
  5  6  1  6  0  0  0
  5  7  1  0  0  0  0
  5 14  1  0  0  0  0
  7  8  1  1  0  0  0
  7  9  1  0  0  0  0
  9 10  1  6  0  0  0
  9 11  1  0  0  0  0
 11 12  1  6  0  0  0
 11 13  1  0  0  0  0
 13 14  1  0  0  0  0
 13 15  1  6  0  0  0
 15 16  1  0  0  0  0
M  CHG  1   3  -1
M  END
>  <CHROM.1>
57.47924700,175.43263078,47.85716370,49.08521834,11.09272242,15.78720587
-0.10062685,0.10832983,1.72342860

>  <Name>
ligand

>  <RI>
0

>  <Rbt.Current_Directory>
/home/itssahil/PROJECTS/Mol_Feturizer/New_Systems/rnas/3B4C

>  <Rbt.Executable>
rbdock ($Id: //depot/dev/client3/rdock/2013.1/src/exe/rbdock.cxx#4 $)

>  <Rbt.Library>
libRbt.so (2013.1, Build901 2013/11/27)

>  <Rbt.Parameter_File>
/export/apps/rDock/src/rDock_2013.1_src/data/scripts/dock_solv.prm

>  <Rbt.Receptor>
prm/pocket_docking_3.prm

>  <SCORE>
-10.2746

>  <SCORE.INTER>
-8.88304

>  <SCORE.INTER.CONST>
1

>  <SCORE.INTER.POLAR>
-1.0386

>  <SCORE.INTER.ROT>
3

>  <SCORE.INTER.SOLV>
18.7444

>  <SCORE.INTER.VDW>
-14.3082

>  <SCORE.INTER.norm>
-0.55519

>  <SCORE.INTRA>
-1.39156

>  <SCORE.INTRA.DIHEDRAL>
-1.77357

>  <SCORE.INTRA.DIHEDRAL.0>
2.1318

>  <SCORE.INTRA.POLAR>
0

>  <SCORE.INTRA.POLAR.0>
0

>  <SCORE.INTRA.REPUL>
0

>  <SCORE.INTRA.REPUL.0>
0

>  <SCORE.INTRA.SOLV>
-0.907703

>  <SCORE.INTRA.SOLV.lig_0>
-58.6125

>  <SCORE.INTRA.VDW>
-0.0509227

>  <SCORE.INTRA.VDW.0>
-0.432734

>  <SCORE.INTRA.norm>
-0.0869723

>  <SCORE.RESTR>
0

>  <SCORE.RESTR.CAVITY>
0

>  <SCORE.RESTR.norm>
0

>  <SCORE.SYSTEM>
0

>  <SCORE.SYSTEM.CONST>
0

>  <SCORE.SYSTEM.DIHEDRAL>
0

>  <SCORE.SYSTEM.SOLV>
0

>  <SCORE.SYSTEM.norm>
0

>  <SCORE.heavy>
16

>  <SCORE.norm>
-0.642162

>  <RMSD>
1.157

$$$$
ligand
 OpenBabel11021811463D
libRbt.so/2013.1/901 2013/11/27
 16 16  0  0  0  0  0  0  0  0999 V2000
   51.8028   12.0425   14.9467 P   0  0  2  0  0  0  0  0  0  0  0  0
   52.1002   12.5454   16.3105 O   0  0  0  0  0  0  0  0  0  0  0  0
   52.6306   10.6885   14.6811 O   0  5  0  0  0  0  0  0  0  0  0  0
   52.2562   13.1515   13.8679 O   0  0  0  0  0  0  0  0  0  0  0  0
   46.3865    9.8636   17.1595 C   0  0  2  0  0  0  0  0  0  0  0  0
   46.0692    8.9379   16.1135 O   0  0  0  0  0  0  0  0  0  0  0  0
   45.5868   11.1806   16.9866 C   0  0  2  0  0  0  0  0  0  0  0  0
   44.1402   10.8904   16.9939 N   0  0  0  0  0  0  0  0  0  0  0  0
   45.9872   11.8252   15.6488 C   0  0  1  0  0  0  0  0  0  0  0  0
   45.2806   13.0547   15.4636 O   0  0  0  0  0  0  0  0  0  0  0  0
   47.4890   12.1017   15.6919 C   0  0  2  0  0  0  0  0  0  0  0  0
   47.8814   12.6967   14.4615 O   0  0  0  0  0  0  0  0  0  0  0  0
   48.2385   10.7569   15.8969 C   0  0  2  0  0  0  0  0  0  0  0  0
   47.8228   10.1303   17.1491 O   0  0  0  0  0  0  0  0  0  0  0  0
   49.7689   10.9874   15.9545 C   0  0  0  0  0  0  0  0  0  0  0  0
   50.2149   11.7473   14.8164 O   0  0  0  0  0  0  0  0  0  0  0  0
  1  2  1  1  0  0  0
  1  3  1  0  0  0  0
  1  4  2  0  0  0  0
  1 16  1  0  0  0  0
  5  6  1  6  0  0  0
  5  7  1  0  0  0  0
  5 14  1  0  0  0  0
  7  8  1  6  0  0  0
  7  9  1  0  0  0  0
  9 10  1  1  0  0  0
  9 11  1  0  0  0  0
 11 12  1  6  0  0  0
 11 13  1  0  0  0  0
 13 14  1  0  0  0  0
 13 15  1  1  0  0  0
 15 16  1  0  0  0  0
M  CHG  1   3  -1
M  END
>  <CHROM.1>
-52.09265418,176.86509704,-47.73538810,48.67611809,11.47320206,15.66874379
-0.26144690,-0.13120552,2.65130511

>  <Name>
ligand

>  <RI>
0

>  <Rbt.Current_Directory>
/home/itssahil/PROJECTS/Mol_Feturizer/New_Systems/rnas/3B4C

>  <Rbt.Executable>
rbdock ($Id: //depot/dev/client3/rdock/2013.1/src/exe/rbdock.cxx#4 $)

>  <Rbt.Library>
libRbt.so (2013.1, Build901 2013/11/27)

>  <Rbt.Parameter_File>
/export/apps/rDock/src/rDock_2013.1_src/data/scripts/dock_solv.prm

>  <Rbt.Receptor>
prm/pocket_docking_2.prm

>  <SCORE>
-10.4205

>  <SCORE.INTER>
-9.74872

>  <SCORE.INTER.CONST>
1

>  <SCORE.INTER.POLAR>
-1.29652

>  <SCORE.INTER.ROT>
3

>  <SCORE.INTER.SOLV>
18.0397

>  <SCORE.INTER.VDW>
-13.7906

>  <SCORE.INTER.norm>
-0.609295

>  <SCORE.INTRA>
-0.672134

>  <SCORE.INTRA.DIHEDRAL>
-1.61307

>  <SCORE.INTRA.DIHEDRAL.0>
2.1318

>  <SCORE.INTRA.POLAR>
0

>  <SCORE.INTRA.POLAR.0>
0

>  <SCORE.INTRA.REPUL>
0

>  <SCORE.INTRA.REPUL.0>
0

>  <SCORE.INTRA.SOLV>
-0.619112

>  <SCORE.INTRA.SOLV.lig_0>
-58.6125

>  <SCORE.INTRA.VDW>
0.443956

>  <SCORE.INTRA.VDW.0>
-0.432734

>  <SCORE.INTRA.norm>
-0.0420084

>  <SCORE.RESTR>
0.000342726

>  <SCORE.RESTR.CAVITY>
0.000342726

>  <SCORE.RESTR.norm>
2.14204e-05

>  <SCORE.SYSTEM>
0

>  <SCORE.SYSTEM.CONST>
0

>  <SCORE.SYSTEM.DIHEDRAL>
0

>  <SCORE.SYSTEM.SOLV>
0

>  <SCORE.SYSTEM.norm>
0

>  <SCORE.heavy>
16

>  <SCORE.norm>
-0.651282

>  <RMSD>
1.160

$$$$
ligand
 OpenBabel11021811463D
libRbt.so/2013.1/901 2013/11/27
 16 16  0  0  0  0  0  0  0  0999 V2000
   51.4418   11.5873   15.2044 P   0  0  2  0  0  0  0  0  0  0  0  0
   51.4232   12.6757   14.1962 O   0  0  0  0  0  0  0  0  0  0  0  0
   52.5278   11.9272   16.3419 O   0  5  0  0  0  0  0  0  0  0  0  0
   51.8586   10.2083   14.4803 O   0  0  0  0  0  0  0  0  0  0  0  0
   46.0841   10.5604   17.2142 C   0  0  2  0  0  0  0  0  0  0  0  0
   45.2179    9.8004   16.3634 O   0  0  0  0  0  0  0  0  0  0  0  0
   45.6483   12.0479   17.2513 C   0  0  2  0  0  0  0  0  0  0  0  0
   44.2570   12.1482   17.7320 N   0  0  0  0  0  0  0  0  0  0  0  0
   45.7568   12.6260   15.8303 C   0  0  1  0  0  0  0  0  0  0  0  0
   45.3788   14.0053   15.8296 O   0  0  0  0  0  0  0  0  0  0  0  0
   47.2109   12.4956   15.3802 C   0  0  2  0  0  0  0  0  0  0  0  0
   47.3332   13.0231   14.0655 O   0  0  0  0  0  0  0  0  0  0  0  0
   47.6038   10.9931   15.3907 C   0  0  2  0  0  0  0  0  0  0  0  0
   47.4588   10.4403   16.7348 O   0  0  0  0  0  0  0  0  0  0  0  0
   49.0764   10.8101   14.9472 C   0  0  0  0  0  0  0  0  0  0  0  0
   49.9729   11.4491   15.8743 O   0  0  0  0  0  0  0  0  0  0  0  0
  1  2  1  6  0  0  0
  1  3  1  0  0  0  0
  1  4  2  0  0  0  0
  1 16  1  0  0  0  0
  5  6  1  6  0  0  0
  5  7  1  0  0  0  0
  5 14  1  0  0  0  0
  7  8  1  6  0  0  0
  7  9  1  0  0  0  0
  9 10  1  1  0  0  0
  9 11  1  0  0  0  0
 11 12  1  6  0  0  0
 11 13  1  0  0  0  0
 13 14  1  0  0  0  0
 13 15  1  1  0  0  0
 15 16  1  0  0  0  0
M  CHG  1   3  -1
M  END
>  <CHROM.1>
63.29751762,-165.11778963,74.89621511,48.33247426,11.66857762,15.73388822
0.05104114,0.23344502,-0.45799080

>  <Name>
ligand

>  <RI>
0

>  <Rbt.Current_Directory>
/home/itssahil/PROJECTS/Mol_Feturizer/New_Systems/rnas/3B4C

>  <Rbt.Executable>
rbdock ($Id: //depot/dev/client3/rdock/2013.1/src/exe/rbdock.cxx#4 $)

>  <Rbt.Library>
libRbt.so (2013.1, Build901 2013/11/27)

>  <Rbt.Parameter_File>
/export/apps/rDock/src/rDock_2013.1_src/data/scripts/dock_solv.prm

>  <Rbt.Receptor>
prm/pocket_docking_4.prm

>  <SCORE>
-10.8342

>  <SCORE.INTER>
-9.87994

>  <SCORE.INTER.CONST>
1

>  <SCORE.INTER.POLAR>
-1.29904

>  <SCORE.INTER.ROT>
3

>  <SCORE.INTER.SOLV>
19.5962

>  <SCORE.INTER.VDW>
-14.3886

>  <SCORE.INTER.norm>
-0.617496

>  <SCORE.INTRA>
-0.954219

>  <SCORE.INTRA.DIHEDRAL>
-0.699373

>  <SCORE.INTRA.DIHEDRAL.0>
2.1318

>  <SCORE.INTRA.POLAR>
0

>  <SCORE.INTRA.POLAR.0>
0

>  <SCORE.INTRA.REPUL>
0

>  <SCORE.INTRA.REPUL.0>
0

>  <SCORE.INTRA.SOLV>
-0.664261

>  <SCORE.INTRA.SOLV.lig_0>
-58.6125

>  <SCORE.INTRA.VDW>
-0.272402

>  <SCORE.INTRA.VDW.0>
-0.432734

>  <SCORE.INTRA.norm>
-0.0596387

>  <SCORE.RESTR>
0

>  <SCORE.RESTR.CAVITY>
0

>  <SCORE.RESTR.norm>
0

>  <SCORE.SYSTEM>
0

>  <SCORE.SYSTEM.CONST>
0

>  <SCORE.SYSTEM.DIHEDRAL>
0

>  <SCORE.SYSTEM.SOLV>
0

>  <SCORE.SYSTEM.norm>
0

>  <SCORE.heavy>
16

>  <SCORE.norm>
-0.677135

>  <RMSD>
1.161

$$$$
ligand
 OpenBabel11021811463D
libRbt.so/2013.1/901 2013/11/27
 16 16  0  0  0  0  0  0  0  0999 V2000
   52.1901   11.6227   15.6720 P   0  0  2  0  0  0  0  0  0  0  0  0
   52.7181   11.1176   16.9632 O   0  0  0  0  0  0  0  0  0  0  0  0
   52.7109   10.6832   14.4741 O   0  5  0  0  0  0  0  0  0  0  0  0
   52.7332   13.1219   15.4334 O   0  0  0  0  0  0  0  0  0  0  0  0
   46.8577   10.8450   17.5825 C   0  0  2  0  0  0  0  0  0  0  0  0
   46.4180    9.4877   17.7104 O   0  0  0  0  0  0  0  0  0  0  0  0
   46.0565   11.5783   16.4760 C   0  0  2  0  0  0  0  0  0  0  0  0
   44.6168   11.5444   16.7970 N   0  0  0  0  0  0  0  0  0  0  0  0
   46.3131   10.8710   15.1346 C   0  0  1  0  0  0  0  0  0  0  0  0
   45.6022   11.5329   14.0850 O   0  0  0  0  0  0  0  0  0  0  0  0
   47.8131   10.9313   14.8516 C   0  0  2  0  0  0  0  0  0  0  0  0
   48.0731   10.2797   13.6148 O   0  0  0  0  0  0  0  0  0  0  0  0
   48.5676   10.2113   16.0025 C   0  0  2  0  0  0  0  0  0  0  0  0
   48.2865   10.8632   17.2790 O   0  0  0  0  0  0  0  0  0  0  0  0
   50.0972   10.2527   15.7632 C   0  0  0  0  0  0  0  0  0  0  0  0
   50.5702   11.6111   15.7116 O   0  0  0  0  0  0  0  0  0  0  0  0
  1  2  1  1  0  0  0
  1  3  1  0  0  0  0
  1  4  2  0  0  0  0
  1 16  1  0  0  0  0
  5  6  1  6  0  0  0
  5  7  1  0  0  0  0
  5 14  1  0  0  0  0
  7  8  1  1  0  0  0
  7  9  1  0  0  0  0
  9 10  1  6  0  0  0
  9 11  1  0  0  0  0
 11 12  1  6  0  0  0
 11 13  1  0  0  0  0
 13 14  1  0  0  0  0
 13 15  1  6  0  0  0
 15 16  1  0  0  0  0
M  CHG  1   3  -1
M  END
>  <CHROM.1>
60.56667351,172.02184126,-66.99206567,49.04888656,11.08035086,15.82008063
-0.08825215,0.09502274,1.69428253

>  <Name>
ligand

>  <RI>
0

>  <Rbt.Current_Directory>
/home/itssahil/PROJECTS/Mol_Feturizer/New_Systems/rnas/3B4C

>  <Rbt.Executable>
rbdock ($Id: //depot/dev/client3/rdock/2013.1/src/exe/rbdock.cxx#4 $)

>  <Rbt.Library>
libRbt.so (2013.1, Build901 2013/11/27)

>  <Rbt.Parameter_File>
/export/apps/rDock/src/rDock_2013.1_src/data/scripts/dock_solv.prm

>  <Rbt.Receptor>
prm/pocket_docking_5.prm

>  <SCORE>
-11.9632

>  <SCORE.INTER>
-10.4628

>  <SCORE.INTER.CONST>
1

>  <SCORE.INTER.POLAR>
-1.29801

>  <SCORE.INTER.ROT>
3

>  <SCORE.INTER.SOLV>
18.7952

>  <SCORE.INTER.VDW>
-14.5136

>  <SCORE.INTER.norm>
-0.653927

>  <SCORE.INTRA>
-1.50033

>  <SCORE.INTRA.DIHEDRAL>
-1.74084

>  <SCORE.INTRA.DIHEDRAL.0>
2.1318

>  <SCORE.INTRA.POLAR>
0

>  <SCORE.INTRA.POLAR.0>
0

>  <SCORE.INTRA.REPUL>
0

>  <SCORE.INTRA.REPUL.0>
0

>  <SCORE.INTRA.SOLV>
-0.757775

>  <SCORE.INTRA.SOLV.lig_0>
-58.6125

>  <SCORE.INTRA.VDW>
-0.251022

>  <SCORE.INTRA.VDW.0>
-0.432734

>  <SCORE.INTRA.norm>
-0.0937706

>  <SCORE.RESTR>
0

>  <SCORE.RESTR.CAVITY>
0

>  <SCORE.RESTR.norm>
0

>  <SCORE.SYSTEM>
0

>  <SCORE.SYSTEM.CONST>
0

>  <SCORE.SYSTEM.DIHEDRAL>
0

>  <SCORE.SYSTEM.SOLV>
0

>  <SCORE.SYSTEM.norm>
0

>  <SCORE.heavy>
16

>  <SCORE.norm>
-0.747697

>  <RMSD>
1.168

$$$$
ligand
 OpenBabel11021811463D
libRbt.so/2013.1/901 2013/11/27
 16 16  0  0  0  0  0  0  0  0999 V2000
   52.1312   11.6369   15.6340 P   0  0  2  0  0  0  0  0  0  0  0  0
   52.6767   11.1829   16.9369 O   0  0  0  0  0  0  0  0  0  0  0  0
   52.6522   10.6623   14.4645 O   0  5  0  0  0  0  0  0  0  0  0  0
   52.6547   13.1330   15.3385 O   0  0  0  0  0  0  0  0  0  0  0  0
   46.8444   10.8053   17.6287 C   0  0  2  0  0  0  0  0  0  0  0  0
   46.4218    9.4436   17.7666 O   0  0  0  0  0  0  0  0  0  0  0  0
   46.0139   11.5286   16.5372 C   0  0  2  0  0  0  0  0  0  0  0  0
   44.5812   11.4798   16.8864 N   0  0  0  0  0  0  0  0  0  0  0  0
   46.2517   10.8223   15.1919 C   0  0  1  0  0  0  0  0  0  0  0  0
   45.5135   11.4752   14.1556 O   0  0  0  0  0  0  0  0  0  0  0  0
   47.7452   10.8982   14.8794 C   0  0  2  0  0  0  0  0  0  0  0  0
   47.9879   10.2478   13.6385 O   0  0  0  0  0  0  0  0  0  0  0  0
   48.5297   10.1878   16.0161 C   0  0  2  0  0  0  0  0  0  0  0  0
   48.2667   10.8383   17.2972 O   0  0  0  0  0  0  0  0  0  0  0  0
   50.0538   10.2452   15.7469 C   0  0  0  0  0  0  0  0  0  0  0  0
   50.5120   11.6083   15.6891 O   0  0  0  0  0  0  0  0  0  0  0  0
  1  2  1  1  0  0  0
  1  3  1  0  0  0  0
  1  4  2  0  0  0  0
  1 16  1  0  0  0  0
  5  6  1  6  0  0  0
  5  7  1  0  0  0  0
  5 14  1  0  0  0  0
  7  8  1  1  0  0  0
  7  9  1  0  0  0  0
  9 10  1  6  0  0  0
  9 11  1  0  0  0  0
 11 12  1  6  0  0  0
 11 13  1  0  0  0  0
 13 14  1  0  0  0  0
 13 15  1  6  0  0  0
 15 16  1  0  0  0  0
M  CHG  1   3  -1
M  END
>  <CHROM.1>
60.76503633,171.41113247,-68.90910428,48.99865661,11.06131645,15.83108281
-0.10504826,0.10352997,1.69370549

>  <Name>
ligand

>  <RI>
0

>  <Rbt.Current_Directory>
/home/itssahil/PROJECTS/Mol_Feturizer/New_Systems/rnas/3B4C

>  <Rbt.Executable>
rbdock ($Id: //depot/dev/client3/rdock/2013.1/src/exe/rbdock.cxx#4 $)

>  <Rbt.Library>
libRbt.so (2013.1, Build901 2013/11/27)

>  <Rbt.Parameter_File>
/export/apps/rDock/src/rDock_2013.1_src/data/scripts/dock_solv.prm

>  <Rbt.Receptor>
prm/pocket_docking_5.prm

>  <SCORE>
-11.9296

>  <SCORE.INTER>
-10.4978

>  <SCORE.INTER.CONST>
1

>  <SCORE.INTER.POLAR>
-1.29776

>  <SCORE.INTER.ROT>
3

>  <SCORE.INTER.SOLV>
19.2425

>  <SCORE.INTER.VDW>
-14.6868

>  <SCORE.INTER.norm>
-0.656111

>  <SCORE.INTRA>
-1.43184

>  <SCORE.INTRA.DIHEDRAL>
-1.64328

>  <SCORE.INTRA.DIHEDRAL.0>
2.1318

>  <SCORE.INTRA.POLAR>
0

>  <SCORE.INTRA.POLAR.0>
0

>  <SCORE.INTRA.REPUL>
0

>  <SCORE.INTRA.REPUL.0>
0

>  <SCORE.INTRA.SOLV>
-0.738428

>  <SCORE.INTRA.SOLV.lig_0>
-58.6125

>  <SCORE.INTRA.VDW>
-0.240987

>  <SCORE.INTRA.VDW.0>
-0.432734

>  <SCORE.INTRA.norm>
-0.0894899

>  <SCORE.RESTR>
0

>  <SCORE.RESTR.CAVITY>
0

>  <SCORE.RESTR.norm>
0

>  <SCORE.SYSTEM>
0

>  <SCORE.SYSTEM.CONST>
0

>  <SCORE.SYSTEM.DIHEDRAL>
0

>  <SCORE.SYSTEM.SOLV>
0

>  <SCORE.SYSTEM.norm>
0

>  <SCORE.heavy>
16

>  <SCORE.norm>
-0.745601

>  <RMSD>
1.177

$$$$
ligand
 OpenBabel11021811463D
libRbt.so/2013.1/901 2013/11/27
 16 16  0  0  0  0  0  0  0  0999 V2000
   51.8603   11.6153   14.8582 P   0  0  2  0  0  0  0  0  0  0  0  0
   52.5540   10.5535   15.6280 O   0  0  0  0  0  0  0  0  0  0  0  0
   52.4957   11.7118   13.3832 O   0  5  0  0  0  0  0  0  0  0  0  0
   52.0664   13.0274   15.6086 O   0  0  0  0  0  0  0  0  0  0  0  0
   46.3431   10.1508   17.3897 C   0  0  2  0  0  0  0  0  0  0  0  0
   45.9709    9.1083   16.4805 O   0  0  0  0  0  0  0  0  0  0  0  0
   45.6166   11.4734   17.0335 C   0  0  2  0  0  0  0  0  0  0  0  0
   44.1563   11.2673   17.0755 N   0  0  0  0  0  0  0  0  0  0  0  0
   46.0465   11.9037   15.6209 C   0  0  1  0  0  0  0  0  0  0  0  0
   45.4081   13.1329   15.2648 O   0  0  0  0  0  0  0  0  0  0  0  0
   47.5615   12.1002   15.6308 C   0  0  2  0  0  0  0  0  0  0  0  0
   47.9811   12.4967   14.3313 O   0  0  0  0  0  0  0  0  0  0  0  0
   48.2364   10.7573   16.0224 C   0  0  2  0  0  0  0  0  0  0  0  0
   47.7918   10.3338   17.3477 O   0  0  0  0  0  0  0  0  0  0  0  0
   49.7774   10.9087   16.0532 C   0  0  0  0  0  0  0  0  0  0  0  0
   50.2829   11.2598   14.7521 O   0  0  0  0  0  0  0  0  0  0  0  0
  1  2  1  1  0  0  0
  1  3  1  0  0  0  0
  1  4  2  0  0  0  0
  1 16  1  0  0  0  0
  5  6  1  6  0  0  0
  5  7  1  0  0  0  0
  5 14  1  0  0  0  0
  7  8  1  6  0  0  0
  7  9  1  0  0  0  0
  9 10  1  1  0  0  0
  9 11  1  0  0  0  0
 11 12  1  6  0  0  0
 11 13  1  0  0  0  0
 13 14  1  0  0  0  0
 13 15  1  1  0  0  0
 15 16  1  0  0  0  0
M  CHG  1   3  -1
M  END
>  <CHROM.1>
-61.92099030,172.04883030,48.29139090,48.70927420,11.38691736,15.67982827
-0.21226816,-0.17152511,2.51394384

>  <Name>
ligand

>  <RI>
0

>  <Rbt.Current_Directory>
/home/itssahil/PROJECTS/Mol_Feturizer/New_Systems/rnas/3B4C

>  <Rbt.Executable>
rbdock ($Id: //depot/dev/client3/rdock/2013.1/src/exe/rbdock.cxx#4 $)

>  <Rbt.Library>
libRbt.so (2013.1, Build901 2013/11/27)

>  <Rbt.Parameter_File>
/export/apps/rDock/src/rDock_2013.1_src/data/scripts/dock_solv.prm

>  <Rbt.Receptor>
prm/pocket_docking_2.prm

>  <SCORE>
-9.72229

>  <SCORE.INTER>
-8.77545

>  <SCORE.INTER.CONST>
1

>  <SCORE.INTER.POLAR>
-1.03923

>  <SCORE.INTER.ROT>
3

>  <SCORE.INTER.SOLV>
18.4604

>  <SCORE.INTER.VDW>
-14.1396

>  <SCORE.INTER.norm>
-0.548466

>  <SCORE.INTRA>
-0.946992

>  <SCORE.INTRA.DIHEDRAL>
-1.59378

>  <SCORE.INTRA.DIHEDRAL.0>
2.1318

>  <SCORE.INTRA.POLAR>
0

>  <SCORE.INTRA.POLAR.0>
0

>  <SCORE.INTRA.REPUL>
0

>  <SCORE.INTRA.REPUL.0>
0

>  <SCORE.INTRA.SOLV>
-0.487851

>  <SCORE.INTRA.SOLV.lig_0>
-58.6125

>  <SCORE.INTRA.VDW>
0.0938206

>  <SCORE.INTRA.VDW.0>
-0.432734

>  <SCORE.INTRA.norm>
-0.059187

>  <SCORE.RESTR>
0.000156795

>  <SCORE.RESTR.CAVITY>
0.000156795

>  <SCORE.RESTR.norm>
9.79966e-06

>  <SCORE.SYSTEM>
0

>  <SCORE.SYSTEM.CONST>
0

>  <SCORE.SYSTEM.DIHEDRAL>
0

>  <SCORE.SYSTEM.SOLV>
0

>  <SCORE.SYSTEM.norm>
0

>  <SCORE.heavy>
16

>  <SCORE.norm>
-0.607643

>  <RMSD>
1.187

$$$$
ligand
 OpenBabel11021811463D
libRbt.so/2013.1/901 2013/11/27
 16 16  0  0  0  0  0  0  0  0999 V2000
   51.8124   11.5260   14.1787 P   0  0  2  0  0  0  0  0  0  0  0  0
   52.2542   11.3035   12.7799 O   0  0  0  0  0  0  0  0  0  0  0  0
   51.8737   13.0977   14.5178 O   0  5  0  0  0  0  0  0  0  0  0  0
   52.8060   10.7381   15.1745 O   0  0  0  0  0  0  0  0  0  0  0  0
   46.6169   10.5970   17.5194 C   0  0  2  0  0  0  0  0  0  0  0  0
   46.3799    9.2428   17.1173 O   0  0  0  0  0  0  0  0  0  0  0  0
   45.6920   11.5689   16.7423 C   0  0  2  0  0  0  0  0  0  0  0  0
   44.2804   11.2130   16.9821 N   0  0  0  0  0  0  0  0  0  0  0  0
   46.0146   11.4588   15.2425 C   0  0  1  0  0  0  0  0  0  0  0  0
   45.1907   12.3568   14.4943 O   0  0  0  0  0  0  0  0  0  0  0  0
   47.4831   11.8332   15.0496 C   0  0  2  0  0  0  0  0  0  0  0  0
   47.8037   11.7356   13.6678 O   0  0  0  0  0  0  0  0  0  0  0  0
   48.3610   10.8503   15.8714 C   0  0  2  0  0  0  0  0  0  0  0  0
   48.0205   10.9304   17.2895 O   0  0  0  0  0  0  0  0  0  0  0  0
   49.8625   11.1953   15.7129 C   0  0  0  0  0  0  0  0  0  0  0  0
   50.2947   10.9870   14.3559 O   0  0  0  0  0  0  0  0  0  0  0  0
  1  2  1  6  0  0  0
  1  3  1  0  0  0  0
  1  4  2  0  0  0  0
  1 16  1  0  0  0  0
  5  6  1  6  0  0  0
  5  7  1  0  0  0  0
  5 14  1  0  0  0  0
  7  8  1  6  0  0  0
  7  9  1  0  0  0  0
  9 10  1  6  0  0  0
  9 11  1  0  0  0  0
 11 12  1  6  0  0  0
 11 13  1  0  0  0  0
 13 14  1  0  0  0  0
 13 15  1  1  0  0  0
 15 16  1  0  0  0  0
M  CHG  1   3  -1
M  END
>  <CHROM.1>
-65.48165409,173.08667947,179.76554864,48.73839604,11.30669203,15.29078518
0.32874486,0.11531919,-1.04834629

>  <Name>
ligand

>  <RI>
0

>  <Rbt.Current_Directory>
/home/itssahil/PROJECTS/Mol_Feturizer/New_Systems/rnas/3B4C

>  <Rbt.Executable>
rbdock ($Id: //depot/dev/client3/rdock/2013.1/src/exe/rbdock.cxx#4 $)

>  <Rbt.Library>
libRbt.so (2013.1, Build901 2013/11/27)

>  <Rbt.Parameter_File>
/export/apps/rDock/src/rDock_2013.1_src/data/scripts/dock_solv.prm

>  <Rbt.Receptor>
prm/pocket_docking_3.prm

>  <SCORE>
-9.61311

>  <SCORE.INTER>
-8.52874

>  <SCORE.INTER.CONST>
1

>  <SCORE.INTER.POLAR>
-1.29904

>  <SCORE.INTER.ROT>
3

>  <SCORE.INTER.SOLV>
16.847

>  <SCORE.INTER.VDW>
-12.5714

>  <SCORE.INTER.norm>
-0.533046

>  <SCORE.INTRA>
-1.08438

>  <SCORE.INTRA.DIHEDRAL>
-1.78985

>  <SCORE.INTRA.DIHEDRAL.0>
2.1318

>  <SCORE.INTRA.POLAR>
0

>  <SCORE.INTRA.POLAR.0>
0

>  <SCORE.INTRA.REPUL>
0

>  <SCORE.INTRA.REPUL.0>
0

>  <SCORE.INTRA.SOLV>
0.167183

>  <SCORE.INTRA.SOLV.lig_0>
-58.6125

>  <SCORE.INTRA.VDW>
-0.273042

>  <SCORE.INTRA.VDW.0>
-0.432734

>  <SCORE.INTRA.norm>
-0.0677736

>  <SCORE.RESTR>
0

>  <SCORE.RESTR.CAVITY>
0

>  <SCORE.RESTR.norm>
0

>  <SCORE.SYSTEM>
0

>  <SCORE.SYSTEM.CONST>
0

>  <SCORE.SYSTEM.DIHEDRAL>
0

>  <SCORE.SYSTEM.SOLV>
0

>  <SCORE.SYSTEM.norm>
0

>  <SCORE.heavy>
16

>  <SCORE.norm>
-0.60082

>  <RMSD>
1.195

$$$$
ligand
 OpenBabel11021811463D
libRbt.so/2013.1/901 2013/11/27
 16 16  0  0  0  0  0  0  0  0999 V2000
   51.4885   11.5852   14.2388 P   0  0  2  0  0  0  0  0  0  0  0  0
   51.8967   12.4395   13.0964 O   0  0  0  0  0  0  0  0  0  0  0  0
   52.2115   12.1009   15.5805 O   0  5  0  0  0  0  0  0  0  0  0  0
   51.9474   10.0670   13.9491 O   0  0  0  0  0  0  0  0  0  0  0  0
   46.2117   10.4793   17.3956 C   0  0  2  0  0  0  0  0  0  0  0  0
   45.6397    9.5493   16.4683 O   0  0  0  0  0  0  0  0  0  0  0  0
   45.5656   11.8796   17.2358 C   0  0  2  0  0  0  0  0  0  0  0  0
   44.1093   11.7847   17.4527 N   0  0  0  0  0  0  0  0  0  0  0  0
   45.8533   12.3930   15.8148 C   0  0  1  0  0  0  0  0  0  0  0  0
   45.2861   13.6936   15.6368 O   0  0  0  0  0  0  0  0  0  0  0  0
   47.3692   12.4696   15.6414 C   0  0  2  0  0  0  0  0  0  0  0  0
   47.6577   12.9406   14.3312 O   0  0  0  0  0  0  0  0  0  0  0  0
   47.9669   11.0502   15.8415 C   0  0  2  0  0  0  0  0  0  0  0  0
   47.6545   10.5521   17.1785 O   0  0  0  0  0  0  0  0  0  0  0  0
   49.5072   11.0783   15.6819 C   0  0  0  0  0  0  0  0  0  0  0  0
   49.8801   11.6616   14.4201 O   0  0  0  0  0  0  0  0  0  0  0  0
  1  2  1  6  0  0  0
  1  3  1  0  0  0  0
  1  4  2  0  0  0  0
  1 16  1  0  0  0  0
  5  6  1  6  0  0  0
  5  7  1  0  0  0  0
  5 14  1  0  0  0  0
  7  8  1  6  0  0  0
  7  9  1  0  0  0  0
  9 10  1  1  0  0  0
  9 11  1  0  0  0  0
 11 12  1  6  0  0  0
 11 13  1  0  0  0  0
 13 14  1  0  0  0  0
 13 15  1  1  0  0  0
 15 16  1  0  0  0  0
M  CHG  1   3  -1
M  END
>  <CHROM.1>
-54.40689309,-176.16938619,-167.71469126,48.45184198,11.60643911,15.48046517
0.18704197,0.33822923,-0.54995157

>  <Name>
ligand

>  <RI>
0

>  <Rbt.Current_Directory>
/home/itssahil/PROJECTS/Mol_Feturizer/New_Systems/rnas/3B4C

>  <Rbt.Executable>
rbdock ($Id: //depot/dev/client3/rdock/2013.1/src/exe/rbdock.cxx#4 $)

>  <Rbt.Library>
libRbt.so (2013.1, Build901 2013/11/27)

>  <Rbt.Parameter_File>
/export/apps/rDock/src/rDock_2013.1_src/data/scripts/dock_solv.prm

>  <Rbt.Receptor>
prm/pocket_docking_3.prm

>  <SCORE>
-10.1909

>  <SCORE.INTER>
-9.56209

>  <SCORE.INTER.CONST>
1

>  <SCORE.INTER.POLAR>
-1.29904

>  <SCORE.INTER.ROT>
3

>  <SCORE.INTER.SOLV>
18.0163

>  <SCORE.INTER.VDW>
-13.65

>  <SCORE.INTER.norm>
-0.59763

>  <SCORE.INTRA>
-0.628807

>  <SCORE.INTRA.DIHEDRAL>
-1.69978

>  <SCORE.INTRA.DIHEDRAL.0>
2.1318

>  <SCORE.INTRA.POLAR>
0

>  <SCORE.INTRA.POLAR.0>
0

>  <SCORE.INTRA.REPUL>
0

>  <SCORE.INTRA.REPUL.0>
0

>  <SCORE.INTRA.SOLV>
0.0730432

>  <SCORE.INTRA.SOLV.lig_0>
-58.6125

>  <SCORE.INTRA.VDW>
0.18456

>  <SCORE.INTRA.VDW.0>
-0.432734

>  <SCORE.INTRA.norm>
-0.0393004

>  <SCORE.RESTR>
0

>  <SCORE.RESTR.CAVITY>
0

>  <SCORE.RESTR.norm>
0

>  <SCORE.SYSTEM>
0

>  <SCORE.SYSTEM.CONST>
0

>  <SCORE.SYSTEM.DIHEDRAL>
0

>  <SCORE.SYSTEM.SOLV>
0

>  <SCORE.SYSTEM.norm>
0

>  <SCORE.heavy>
16

>  <SCORE.norm>
-0.636931

>  <RMSD>
1.223

$$$$
ligand
 OpenBabel11021811463D
libRbt.so/2013.1/901 2013/11/27
 16 16  0  0  0  0  0  0  0  0999 V2000
   51.3887   11.7075   13.8148 P   0  0  2  0  0  0  0  0  0  0  0  0
   51.8385   12.9206   14.5411 O   0  0  0  0  0  0  0  0  0  0  0  0
   52.2222   10.4319   14.3316 O   0  5  0  0  0  0  0  0  0  0  0  0
   51.6640   11.9071   12.2388 O   0  0  0  0  0  0  0  0  0  0  0  0
   46.4823   10.8442   17.5848 C   0  0  2  0  0  0  0  0  0  0  0  0
   45.9437    9.6894   16.9305 O   0  0  0  0  0  0  0  0  0  0  0  0
   45.6898   12.1170   17.1898 C   0  0  2  0  0  0  0  0  0  0  0  0
   44.2688   11.9517   17.5506 N   0  0  0  0  0  0  0  0  0  0  0  0
   45.8260   12.3280   15.6724 C   0  0  1  0  0  0  0  0  0  0  0  0
   45.1205   13.5064   15.2738 O   0  0  0  0  0  0  0  0  0  0  0  0
   47.3110   12.4900   15.3525 C   0  0  2  0  0  0  0  0  0  0  0  0
   47.4600   12.6842   13.9518 O   0  0  0  0  0  0  0  0  0  0  0  0
   48.0602   11.2035   15.7950 C   0  0  2  0  0  0  0  0  0  0  0  0
   47.8921   10.9868   17.2297 O   0  0  0  0  0  0  0  0  0  0  0  0
   49.5752   11.3233   15.4968 C   0  0  0  0  0  0  0  0  0  0  0  0
   49.8081   11.4740   14.0845 O   0  0  0  0  0  0  0  0  0  0  0  0
  1  2  1  1  0  0  0
  1  3  1  0  0  0  0
  1  4  2  0  0  0  0
  1 16  1  0  0  0  0
  5  6  1  6  0  0  0
  5  7  1  0  0  0  0
  5 14  1  0  0  0  0
  7  8  1  6  0  0  0
  7  9  1  0  0  0  0
  9 10  1  1  0  0  0
  9 11  1  0  0  0  0
 11 12  1  6  0  0  0
 11 13  1  0  0  0  0
 13 14  1  0  0  0  0
 13 15  1  1  0  0  0
 15 16  1  0  0  0  0
M  CHG  1   3  -1
M  END
>  <CHROM.1>
-61.77365881,175.79852001,-59.01114145,48.45875686,11.71890404,15.27428276
0.32813670,0.33892131,-0.81865729

>  <Name>
ligand

>  <RI>
0

>  <Rbt.Current_Directory>
/home/itssahil/PROJECTS/Mol_Feturizer/New_Systems/rnas/3B4C

>  <Rbt.Executable>
rbdock ($Id: //depot/dev/client3/rdock/2013.1/src/exe/rbdock.cxx#4 $)

>  <Rbt.Library>
libRbt.so (2013.1, Build901 2013/11/27)

>  <Rbt.Parameter_File>
/export/apps/rDock/src/rDock_2013.1_src/data/scripts/dock_solv.prm

>  <Rbt.Receptor>
prm/pocket_docking_7.prm

>  <SCORE>
-11.3479

>  <SCORE.INTER>
-10.0111

>  <SCORE.INTER.CONST>
1

>  <SCORE.INTER.POLAR>
-1.29885

>  <SCORE.INTER.ROT>
3

>  <SCORE.INTER.SOLV>
16.2412

>  <SCORE.INTER.VDW>
-13.3583

>  <SCORE.INTER.norm>
-0.625695

>  <SCORE.INTRA>
-1.33682

>  <SCORE.INTRA.DIHEDRAL>
-2.02983

>  <SCORE.INTRA.DIHEDRAL.0>
2.1318

>  <SCORE.INTRA.POLAR>
0

>  <SCORE.INTRA.POLAR.0>
0

>  <SCORE.INTRA.REPUL>
0

>  <SCORE.INTRA.REPUL.0>
0

>  <SCORE.INTRA.SOLV>
-0.570639

>  <SCORE.INTRA.SOLV.lig_0>
-58.6125

>  <SCORE.INTRA.VDW>
-0.0365861

>  <SCORE.INTRA.VDW.0>
-0.432734

>  <SCORE.INTRA.norm>
-0.0835512

>  <SCORE.RESTR>
0

>  <SCORE.RESTR.CAVITY>
0

>  <SCORE.RESTR.norm>
0

>  <SCORE.SYSTEM>
0

>  <SCORE.SYSTEM.CONST>
0

>  <SCORE.SYSTEM.DIHEDRAL>
0

>  <SCORE.SYSTEM.SOLV>
0

>  <SCORE.SYSTEM.norm>
0

>  <SCORE.heavy>
16

>  <SCORE.norm>
-0.709246

>  <RMSD>
1.229

$$$$
ligand
 OpenBabel11021811463D
libRbt.so/2013.1/901 2013/11/27
 16 16  0  0  0  0  0  0  0  0999 V2000
   51.3868   11.5670   15.3554 P   0  0  2  0  0  0  0  0  0  0  0  0
   52.2414   12.4715   16.1634 O   0  0  0  0  0  0  0  0  0  0  0  0
   51.7905   10.0382   15.6534 O   0  5  0  0  0  0  0  0  0  0  0  0
   51.6283   11.8751   13.7913 O   0  0  0  0  0  0  0  0  0  0  0  0
   46.0126   10.6008   17.2186 C   0  0  2  0  0  0  0  0  0  0  0  0
   45.1910    9.7717   16.3883 O   0  0  0  0  0  0  0  0  0  0  0  0
   45.4992   12.0638   17.2106 C   0  0  2  0  0  0  0  0  0  0  0  0
   44.1026   12.1048   17.6846 N   0  0  0  0  0  0  0  0  0  0  0  0
   45.5830   12.6049   15.7734 C   0  0  1  0  0  0  0  0  0  0  0  0
   45.1331   13.9618   15.7311 O   0  0  0  0  0  0  0  0  0  0  0  0
   47.0438   12.5380   15.3311 C   0  0  2  0  0  0  0  0  0  0  0  0
   47.1436   13.0324   14.0017 O   0  0  0  0  0  0  0  0  0  0  0  0
   47.5150   11.0592   15.3869 C   0  0  2  0  0  0  0  0  0  0  0  0
   47.3937   10.5392   16.7464 O   0  0  0  0  0  0  0  0  0  0  0  0
   48.9969   10.9410   14.9528 C   0  0  0  0  0  0  0  0  0  0  0  0
   49.8318   11.8076   15.7424 O   0  0  0  0  0  0  0  0  0  0  0  0
  1  2  1  1  0  0  0
  1  3  1  0  0  0  0
  1  4  2  0  0  0  0
  1 16  1  0  0  0  0
  5  6  1  6  0  0  0
  5  7  1  0  0  0  0
  5 14  1  0  0  0  0
  7  8  1  6  0  0  0
  7  9  1  0  0  0  0
  9 10  1  1  0  0  0
  9 11  1  0  0  0  0
 11 12  1  6  0  0  0
 11 13  1  0  0  0  0
 13 14  1  0  0  0  0
 13 15  1  1  0  0  0
 15 16  1  0  0  0  0
M  CHG  1   3  -1
M  END
>  <CHROM.1>
54.89504509,175.06707359,179.48438540,48.22724334,11.67635467,15.76365204
-0.04679186,-0.20543726,2.59787799

>  <Name>
ligand

>  <RI>
0

>  <Rbt.Current_Directory>
/home/itssahil/PROJECTS/Mol_Feturizer/New_Systems/rnas/3B4C

>  <Rbt.Executable>
rbdock ($Id: //depot/dev/client3/rdock/2013.1/src/exe/rbdock.cxx#4 $)

>  <Rbt.Library>
libRbt.so (2013.1, Build901 2013/11/27)

>  <Rbt.Parameter_File>
/export/apps/rDock/src/rDock_2013.1_src/data/scripts/dock_solv.prm

>  <Rbt.Receptor>
prm/pocket_docking_3.prm

>  <SCORE>
-11.2281

>  <SCORE.INTER>
-9.85399

>  <SCORE.INTER.CONST>
1

>  <SCORE.INTER.POLAR>
-1.29904

>  <SCORE.INTER.ROT>
3

>  <SCORE.INTER.SOLV>
19.1235

>  <SCORE.INTER.VDW>
-14.2137

>  <SCORE.INTER.norm>
-0.615874

>  <SCORE.INTRA>
-1.37412

>  <SCORE.INTRA.DIHEDRAL>
-1.91758

>  <SCORE.INTRA.DIHEDRAL.0>
2.1318

>  <SCORE.INTRA.POLAR>
0

>  <SCORE.INTRA.POLAR.0>
0

>  <SCORE.INTRA.REPUL>
0

>  <SCORE.INTRA.REPUL.0>
0

>  <SCORE.INTRA.SOLV>
-0.161517

>  <SCORE.INTRA.SOLV.lig_0>
-58.6125

>  <SCORE.INTRA.VDW>
-0.334575

>  <SCORE.INTRA.VDW.0>
-0.432734

>  <SCORE.INTRA.norm>
-0.0858826

>  <SCORE.RESTR>
0

>  <SCORE.RESTR.CAVITY>
0

>  <SCORE.RESTR.norm>
0

>  <SCORE.SYSTEM>
0

>  <SCORE.SYSTEM.CONST>
0

>  <SCORE.SYSTEM.DIHEDRAL>
0

>  <SCORE.SYSTEM.SOLV>
0

>  <SCORE.SYSTEM.norm>
0

>  <SCORE.heavy>
16

>  <SCORE.norm>
-0.701757

>  <RMSD>
1.241

$$$$
ligand
 OpenBabel11021811463D
libRbt.so/2013.1/901 2013/11/27
 16 16  0  0  0  0  0  0  0  0999 V2000
   51.6900   11.6860   14.2336 P   0  0  2  0  0  0  0  0  0  0  0  0
   52.0950   11.6164   12.8080 O   0  0  0  0  0  0  0  0  0  0  0  0
   51.8919   13.1870   14.7769 O   0  5  0  0  0  0  0  0  0  0  0  0
   52.6220   10.6900   15.0932 O   0  0  0  0  0  0  0  0  0  0  0  0
   46.5367   10.6596   17.5994 C   0  0  2  0  0  0  0  0  0  0  0  0
   46.0685    9.4847   16.9268 O   0  0  0  0  0  0  0  0  0  0  0  0
   45.7636   11.9130   17.1143 C   0  0  2  0  0  0  0  0  0  0  0  0
   44.3198   11.7346   17.3602 N   0  0  0  0  0  0  0  0  0  0  0  0
   46.0221   12.0964   15.6094 C   0  0  1  0  0  0  0  0  0  0  0  0
   45.3372   13.2567   15.1299 O   0  0  0  0  0  0  0  0  0  0  0  0
   47.5263   12.2732   15.4096 C   0  0  2  0  0  0  0  0  0  0  0  0
   47.7881   12.4423   14.0223 O   0  0  0  0  0  0  0  0  0  0  0  0
   48.2525   11.0064   15.9388 C   0  0  2  0  0  0  0  0  0  0  0  0
   47.9691   10.8153   17.3588 O   0  0  0  0  0  0  0  0  0  0  0  0
   49.7854   11.1420   15.7639 C   0  0  0  0  0  0  0  0  0  0  0  0
   50.1330   11.2589   14.3722 O   0  0  0  0  0  0  0  0  0  0  0  0
  1  2  1  6  0  0  0
  1  3  1  0  0  0  0
  1  4  2  0  0  0  0
  1 16  1  0  0  0  0
  5  6  1  6  0  0  0
  5  7  1  0  0  0  0
  5 14  1  0  0  0  0
  7  8  1  6  0  0  0
  7  9  1  0  0  0  0
  9 10  1  1  0  0  0
  9 11  1  0  0  0  0
 11 12  1  6  0  0  0
 11 13  1  0  0  0  0
 13 14  1  0  0  0  0
 13 15  1  1  0  0  0
 15 16  1  0  0  0  0
M  CHG  1   3  -1
M  END
>  <CHROM.1>
-62.17901976,169.03273886,171.96844307,48.67222449,11.58681963,15.45498328
0.28981251,0.25281750,-0.80433315

>  <Name>
ligand

>  <RI>
0

>  <Rbt.Current_Directory>
/home/itssahil/PROJECTS/Mol_Feturizer/New_Systems/rnas/3B4C

>  <Rbt.Executable>
rbdock ($Id: //depot/dev/client3/rdock/2013.1/src/exe/rbdock.cxx#4 $)

>  <Rbt.Library>
libRbt.so (2013.1, Build901 2013/11/27)

>  <Rbt.Parameter_File>
/export/apps/rDock/src/rDock_2013.1_src/data/scripts/dock_solv.prm

>  <Rbt.Receptor>
prm/pocket_docking_5.prm

>  <SCORE>
-10.465

>  <SCORE.INTER>
-9.73702

>  <SCORE.INTER.CONST>
1

>  <SCORE.INTER.POLAR>
-1.29904

>  <SCORE.INTER.ROT>
3

>  <SCORE.INTER.SOLV>
17.7484

>  <SCORE.INTER.VDW>
-13.6774

>  <SCORE.INTER.norm>
-0.608564

>  <SCORE.INTRA>
-0.727951

>  <SCORE.INTRA.DIHEDRAL>
-1.43315

>  <SCORE.INTRA.DIHEDRAL.0>
2.1318

>  <SCORE.INTRA.POLAR>
0

>  <SCORE.INTRA.POLAR.0>
0

>  <SCORE.INTRA.REPUL>
0

>  <SCORE.INTRA.REPUL.0>
0

>  <SCORE.INTRA.SOLV>
0.36236

>  <SCORE.INTRA.SOLV.lig_0>
-58.6125

>  <SCORE.INTRA.VDW>
-0.192555

>  <SCORE.INTRA.VDW.0>
-0.432734

>  <SCORE.INTRA.norm>
-0.0454969

>  <SCORE.RESTR>
0

>  <SCORE.RESTR.CAVITY>
0

>  <SCORE.RESTR.norm>
0

>  <SCORE.SYSTEM>
0

>  <SCORE.SYSTEM.CONST>
0

>  <SCORE.SYSTEM.DIHEDRAL>
0

>  <SCORE.SYSTEM.SOLV>
0

>  <SCORE.SYSTEM.norm>
0

>  <SCORE.heavy>
16

>  <SCORE.norm>
-0.654061

>  <RMSD>
1.246

$$$$
ligand
 OpenBabel11021811463D
libRbt.so/2013.1/901 2013/11/27
 16 16  0  0  0  0  0  0  0  0999 V2000
   51.5987   11.5415   15.2663 P   0  0  2  0  0  0  0  0  0  0  0  0
   51.8593   12.8835   15.8429 O   0  0  0  0  0  0  0  0  0  0  0  0
   52.6306   10.4779   15.8931 O   0  5  0  0  0  0  0  0  0  0  0  0
   51.8188   11.6042   13.6703 O   0  0  0  0  0  0  0  0  0  0  0  0
   46.3770   11.1471   17.4365 C   0  0  2  0  0  0  0  0  0  0  0  0
   45.9208    9.9505   16.7947 O   0  0  0  0  0  0  0  0  0  0  0  0
   45.3978   12.3192   17.1696 C   0  0  2  0  0  0  0  0  0  0  0  0
   44.0521   11.9668   17.6613 N   0  0  0  0  0  0  0  0  0  0  0  0
   45.3517   12.5843   15.6553 C   0  0  1  0  0  0  0  0  0  0  0  0
   44.4697   13.6740   15.3727 O   0  0  0  0  0  0  0  0  0  0  0  0
   46.7652   12.9406   15.1980 C   0  0  2  0  0  0  0  0  0  0  0  0
   46.7456   13.1877   13.7978 O   0  0  0  0  0  0  0  0  0  0  0  0
   47.7081   11.7482   15.5159 C   0  0  2  0  0  0  0  0  0  0  0  0
   47.7150   11.4756   16.9508 O   0  0  0  0  0  0  0  0  0  0  0  0
   49.1586   12.0659   15.0755 C   0  0  0  0  0  0  0  0  0  0  0  0
   50.0787   11.0952   15.6072 O   0  0  0  0  0  0  0  0  0  0  0  0
  1  2  1  1  0  0  0
  1  3  1  0  0  0  0
  1  4  2  0  0  0  0
  1 16  1  0  0  0  0
  5  6  1  6  0  0  0
  5  7  1  0  0  0  0
  5 14  1  0  0  0  0
  7  8  1  6  0  0  0
  7  9  1  0  0  0  0
  9 10  1  1  0  0  0
  9 11  1  0  0  0  0
 11 12  1  6  0  0  0
 11 13  1  0  0  0  0
 13 14  1  0  0  0  0
 13 15  1  1  0  0  0
 15 16  1  0  0  0  0
M  CHG  1   3  -1
M  END
>  <CHROM.1>
168.21316644,-173.89359642,58.37396425,48.31286094,11.87886261,15.74275398
-0.06264150,-0.19933400,2.28104380

>  <Name>
ligand

>  <RI>
0

>  <Rbt.Current_Directory>
/home/itssahil/PROJECTS/Mol_Feturizer/New_Systems/rnas/3B4C

>  <Rbt.Executable>
rbdock ($Id: //depot/dev/client3/rdock/2013.1/src/exe/rbdock.cxx#4 $)

>  <Rbt.Library>
libRbt.so (2013.1, Build901 2013/11/27)

>  <Rbt.Parameter_File>
/export/apps/rDock/src/rDock_2013.1_src/data/scripts/dock_solv.prm

>  <Rbt.Receptor>
prm/pocket_docking_3.prm

>  <SCORE>
-11.9928

>  <SCORE.INTER>
-10.6797

>  <SCORE.INTER.CONST>
1

>  <SCORE.INTER.POLAR>
-1.29904

>  <SCORE.INTER.ROT>
3

>  <SCORE.INTER.SOLV>
18.6354

>  <SCORE.INTER.VDW>
-14.6015

>  <SCORE.INTER.norm>
-0.667481

>  <SCORE.INTRA>
-1.31314

>  <SCORE.INTRA.DIHEDRAL>
-1.46007

>  <SCORE.INTRA.DIHEDRAL.0>
2.1318

>  <SCORE.INTRA.POLAR>
0

>  <SCORE.INTRA.POLAR.0>
0

>  <SCORE.INTRA.REPUL>
0

>  <SCORE.INTRA.REPUL.0>
0

>  <SCORE.INTRA.SOLV>
-0.993419

>  <SCORE.INTRA.SOLV.lig_0>
-58.6125

>  <SCORE.INTRA.VDW>
-0.0863991

>  <SCORE.INTRA.VDW.0>
-0.432734

>  <SCORE.INTRA.norm>
-0.0820715

>  <SCORE.RESTR>
0

>  <SCORE.RESTR.CAVITY>
0

>  <SCORE.RESTR.norm>
0

>  <SCORE.SYSTEM>
0

>  <SCORE.SYSTEM.CONST>
0

>  <SCORE.SYSTEM.DIHEDRAL>
0

>  <SCORE.SYSTEM.SOLV>
0

>  <SCORE.SYSTEM.norm>
0

>  <SCORE.heavy>
16

>  <SCORE.norm>
-0.749552

>  <RMSD>
1.252

$$$$
ligand
 OpenBabel11021811463D
libRbt.so/2013.1/901 2013/11/27
 16 16  0  0  0  0  0  0  0  0999 V2000
   51.4176   11.8000   14.1636 P   0  0  2  0  0  0  0  0  0  0  0  0
   51.9526   12.7268   15.1913 O   0  0  0  0  0  0  0  0  0  0  0  0
   52.0787   10.3457   14.3553 O   0  5  0  0  0  0  0  0  0  0  0  0
   51.8021   12.3595   12.7012 O   0  0  0  0  0  0  0  0  0  0  0  0
   46.2399   10.5666   17.4362 C   0  0  2  0  0  0  0  0  0  0  0  0
   45.7073    9.5697   16.5563 O   0  0  0  0  0  0  0  0  0  0  0  0
   45.5186   11.9231   17.2276 C   0  0  2  0  0  0  0  0  0  0  0  0
   44.0721   11.7610   17.4685 N   0  0  0  0  0  0  0  0  0  0  0  0
   45.7621   12.3906   15.7827 C   0  0  1  0  0  0  0  0  0  0  0  0
   45.1246   13.6510   15.5589 O   0  0  0  0  0  0  0  0  0  0  0  0
   47.2696   12.5394   15.5853 C   0  0  2  0  0  0  0  0  0  0  0  0
   47.5175   12.9693   14.2528 O   0  0  0  0  0  0  0  0  0  0  0  0
   47.9441   11.1630   15.8356 C   0  0  2  0  0  0  0  0  0  0  0  0
   47.6742   10.7059   17.1963 O   0  0  0  0  0  0  0  0  0  0  0  0
   49.4787   11.2652   15.6537 C   0  0  0  0  0  0  0  0  0  0  0  0
   49.8082   11.6942   14.3199 O   0  0  0  0  0  0  0  0  0  0  0  0
  1  2  1  1  0  0  0
  1  3  1  0  0  0  0
  1  4  2  0  0  0  0
  1 16  1  0  0  0  0
  5  6  1  6  0  0  0
  5  7  1  0  0  0  0
  5 14  1  0  0  0  0
  7  8  1  6  0  0  0
  7  9  1  0  0  0  0
  9 10  1  1  0  0  0
  9 11  1  0  0  0  0
 11 12  1  6  0  0  0
 11 13  1  0  0  0  0
 13 14  1  0  0  0  0
 13 15  1  1  0  0  0
 15 16  1  0  0  0  0
M  CHG  1   3  -1
M  END
>  <CHROM.1>
-59.83260863,179.66269224,-56.92329295,48.39519604,11.72253943,15.43378418
-0.24552107,-0.32416937,2.52573952

>  <Name>
ligand

>  <RI>
0

>  <Rbt.Current_Directory>
/home/itssahil/PROJECTS/Mol_Feturizer/New_Systems/rnas/3B4C

>  <Rbt.Executable>
rbdock ($Id: //depot/dev/client3/rdock/2013.1/src/exe/rbdock.cxx#4 $)

>  <Rbt.Library>
libRbt.so (2013.1, Build901 2013/11/27)

>  <Rbt.Parameter_File>
/export/apps/rDock/src/rDock_2013.1_src/data/scripts/dock_solv.prm

>  <Rbt.Receptor>
prm/pocket_docking_3.prm

>  <SCORE>
-11.2888

>  <SCORE.INTER>
-9.97777

>  <SCORE.INTER.CONST>
1

>  <SCORE.INTER.POLAR>
-1.29904

>  <SCORE.INTER.ROT>
3

>  <SCORE.INTER.SOLV>
16.6946

>  <SCORE.INTER.VDW>
-13.4866

>  <SCORE.INTER.norm>
-0.623611

>  <SCORE.INTRA>
-1.31106

>  <SCORE.INTRA.DIHEDRAL>
-2.11211

>  <SCORE.INTRA.DIHEDRAL.0>
2.1318

>  <SCORE.INTRA.POLAR>
0

>  <SCORE.INTRA.POLAR.0>
0

>  <SCORE.INTRA.REPUL>
0

>  <SCORE.INTRA.REPUL.0>
0

>  <SCORE.INTRA.SOLV>
-0.600723

>  <SCORE.INTRA.SOLV.lig_0>
-58.6125

>  <SCORE.INTRA.VDW>
0.0453593

>  <SCORE.INTRA.VDW.0>
-0.432734

>  <SCORE.INTRA.norm>
-0.081941

>  <SCORE.RESTR>
0

>  <SCORE.RESTR.CAVITY>
0

>  <SCORE.RESTR.norm>
0

>  <SCORE.SYSTEM>
0

>  <SCORE.SYSTEM.CONST>
0

>  <SCORE.SYSTEM.DIHEDRAL>
0

>  <SCORE.SYSTEM.SOLV>
0

>  <SCORE.SYSTEM.norm>
0

>  <SCORE.heavy>
16

>  <SCORE.norm>
-0.705552

>  <RMSD>
1.268

$$$$
ligand
 OpenBabel11021811463D
libRbt.so/2013.1/901 2013/11/27
 16 16  0  0  0  0  0  0  0  0999 V2000
   52.5047   11.4645   16.4059 P   0  0  2  0  0  0  0  0  0  0  0  0
   52.7274   10.5618   17.5622 O   0  0  0  0  0  0  0  0  0  0  0  0
   53.1424   10.8091   15.0821 O   0  5  0  0  0  0  0  0  0  0  0  0
   53.2326   12.8743   16.6929 O   0  0  0  0  0  0  0  0  0  0  0  0
   46.8883   10.8163   17.4157 C   0  0  2  0  0  0  0  0  0  0  0  0
   46.2867    9.6034   16.9481 O   0  0  0  0  0  0  0  0  0  0  0  0
   46.3598   12.0340   16.6145 C   0  0  2  0  0  0  0  0  0  0  0  0
   44.8926   12.1179   16.7445 N   0  0  0  0  0  0  0  0  0  0  0  0
   46.7475   11.8542   15.1370 C   0  0  1  0  0  0  0  0  0  0  0  0
   46.2907   12.9706   14.3687 O   0  0  0  0  0  0  0  0  0  0  0  0
   48.2708   11.7702   15.0584 C   0  0  2  0  0  0  0  0  0  0  0  0
   48.6513   11.6011   13.6988 O   0  0  0  0  0  0  0  0  0  0  0  0
   48.7479   10.5555   15.9005 C   0  0  2  0  0  0  0  0  0  0  0  0
   48.3404   10.7133   17.2942 O   0  0  0  0  0  0  0  0  0  0  0  0
   50.2912   10.4328   15.8573 C   0  0  0  0  0  0  0  0  0  0  0  0
   50.9135   11.6859   16.1947 O   0  0  0  0  0  0  0  0  0  0  0  0
  1  2  1  1  0  0  0
  1  3  1  0  0  0  0
  1  4  2  0  0  0  0
  1 16  1  0  0  0  0
  5  6  1  6  0  0  0
  5  7  1  0  0  0  0
  5 14  1  0  0  0  0
  7  8  1  6  0  0  0
  7  9  1  0  0  0  0
  9 10  1  6  0  0  0
  9 11  1  0  0  0  0
 11 12  1  6  0  0  0
 11 13  1  0  0  0  0
 13 14  1  0  0  0  0
 13 15  1  1  0  0  0
 15 16  1  0  0  0  0
M  CHG  1   3  -1
M  END
>  <CHROM.1>
51.33755059,169.74125046,-63.68614329,49.34322349,11.37141073,16.07975531
0.05452766,0.00679498,2.10732284

>  <Name>
ligand

>  <RI>
0

>  <Rbt.Current_Directory>
/home/itssahil/PROJECTS/Mol_Feturizer/New_Systems/rnas/3B4C

>  <Rbt.Executable>
rbdock ($Id: //depot/dev/client3/rdock/2013.1/src/exe/rbdock.cxx#4 $)

>  <Rbt.Library>
libRbt.so (2013.1, Build901 2013/11/27)

>  <Rbt.Parameter_File>
/export/apps/rDock/src/rDock_2013.1_src/data/scripts/dock_solv.prm

>  <Rbt.Receptor>
prm/pocket_docking_3.prm

>  <SCORE>
-11.7872

>  <SCORE.INTER>
-10.534

>  <SCORE.INTER.CONST>
1

>  <SCORE.INTER.POLAR>
-1.29781

>  <SCORE.INTER.ROT>
3

>  <SCORE.INTER.SOLV>
18.0535

>  <SCORE.INTER.VDW>
-14.3144

>  <SCORE.INTER.norm>
-0.658372

>  <SCORE.INTRA>
-1.25329

>  <SCORE.INTRA.DIHEDRAL>
-1.33718

>  <SCORE.INTRA.DIHEDRAL.0>
2.1318

>  <SCORE.INTRA.POLAR>
0

>  <SCORE.INTRA.POLAR.0>
0

>  <SCORE.INTRA.REPUL>
0

>  <SCORE.INTRA.REPUL.0>
0

>  <SCORE.INTRA.SOLV>
-0.779893

>  <SCORE.INTRA.SOLV.lig_0>
-58.6125

>  <SCORE.INTRA.VDW>
-0.194753

>  <SCORE.INTRA.VDW.0>
-0.432734

>  <SCORE.INTRA.norm>
-0.0783307

>  <SCORE.RESTR>
0

>  <SCORE.RESTR.CAVITY>
0

>  <SCORE.RESTR.norm>
0

>  <SCORE.SYSTEM>
0

>  <SCORE.SYSTEM.CONST>
0

>  <SCORE.SYSTEM.DIHEDRAL>
0

>  <SCORE.SYSTEM.SOLV>
0

>  <SCORE.SYSTEM.norm>
0

>  <SCORE.heavy>
16

>  <SCORE.norm>
-0.736703

>  <RMSD>
1.269

$$$$
ligand
 OpenBabel11021811463D
libRbt.so/2013.1/901 2013/11/27
 16 16  0  0  0  0  0  0  0  0999 V2000
   51.9337   11.6339   14.9852 P   0  0  2  0  0  0  0  0  0  0  0  0
   52.1142   11.5843   13.5134 O   0  0  0  0  0  0  0  0  0  0  0  0
   52.1620   13.1397   15.5041 O   0  5  0  0  0  0  0  0  0  0  0  0
   53.0244   10.6713   15.6805 O   0  0  0  0  0  0  0  0  0  0  0  0
   46.6382   11.1022   17.0491 C   0  0  2  0  0  0  0  0  0  0  0  0
   46.3266    9.8117   16.5113 O   0  0  0  0  0  0  0  0  0  0  0  0
   45.5813   12.1483   16.6102 C   0  0  2  0  0  0  0  0  0  0  0  0
   44.2425   11.7248   17.0631 N   0  0  0  0  0  0  0  0  0  0  0  0
   45.6073   12.2576   15.0763 C   0  0  1  0  0  0  0  0  0  0  0  0
   44.6550   13.2293   14.6356 O   0  0  0  0  0  0  0  0  0  0  0  0
   47.0111   12.6944   14.6607 C   0  0  2  0  0  0  0  0  0  0  0  0
   47.0579   12.7996   13.2435 O   0  0  0  0  0  0  0  0  0  0  0  0
   48.0305   11.6300   15.1504 C   0  0  2  0  0  0  0  0  0  0  0  0
   47.9711   11.5018   16.6042 O   0  0  0  0  0  0  0  0  0  0  0  0
   49.4732   12.0336   14.7576 C   0  0  0  0  0  0  0  0  0  0  0  0
   50.4342   11.1475   15.3601 O   0  0  0  0  0  0  0  0  0  0  0  0
  1  2  1  6  0  0  0
  1  3  1  0  0  0  0
  1  4  2  0  0  0  0
  1 16  1  0  0  0  0
  5  6  1  6  0  0  0
  5  7  1  0  0  0  0
  5 14  1  0  0  0  0
  7  8  1  6  0  0  0
  7  9  1  0  0  0  0
  9 10  1  1  0  0  0
  9 11  1  0  0  0  0
 11 12  1  6  0  0  0
 11 13  1  0  0  0  0
 13 14  1  0  0  0  0
 13 15  1  1  0  0  0
 15 16  1  0  0  0  0
M  CHG  1   3  -1
M  END
>  <CHROM.1>
172.32965457,-177.49774736,-61.40828290,48.60671244,11.79872110,15.34929530
-0.07465697,-0.11832696,2.19773738

>  <Name>
ligand

>  <RI>
0

>  <Rbt.Current_Directory>
/home/itssahil/PROJECTS/Mol_Feturizer/New_Systems/rnas/3B4C

>  <Rbt.Executable>
rbdock ($Id: //depot/dev/client3/rdock/2013.1/src/exe/rbdock.cxx#4 $)

>  <Rbt.Library>
libRbt.so (2013.1, Build901 2013/11/27)

>  <Rbt.Parameter_File>
/export/apps/rDock/src/rDock_2013.1_src/data/scripts/dock_solv.prm

>  <Rbt.Receptor>
prm/pocket_docking_2.prm

>  <SCORE>
-9.91491

>  <SCORE.INTER>
-8.40402

>  <SCORE.INTER.CONST>
1

>  <SCORE.INTER.POLAR>
-1.29894

>  <SCORE.INTER.ROT>
3

>  <SCORE.INTER.SOLV>
16.9869

>  <SCORE.INTER.VDW>
-12.5352

>  <SCORE.INTER.norm>
-0.525251

>  <SCORE.INTRA>
-1.51088

>  <SCORE.INTRA.DIHEDRAL>
-1.88818

>  <SCORE.INTRA.DIHEDRAL.0>
2.1318

>  <SCORE.INTRA.POLAR>
0

>  <SCORE.INTRA.POLAR.0>
0

>  <SCORE.INTRA.REPUL>
0

>  <SCORE.INTRA.REPUL.0>
0

>  <SCORE.INTRA.SOLV>
-0.954187

>  <SCORE.INTRA.SOLV.lig_0>
-58.6125

>  <SCORE.INTRA.VDW>
-0.0897029

>  <SCORE.INTRA.VDW.0>
-0.432734

>  <SCORE.INTRA.norm>
-0.0944303

>  <SCORE.RESTR>
0

>  <SCORE.RESTR.CAVITY>
0

>  <SCORE.RESTR.norm>
0

>  <SCORE.SYSTEM>
0

>  <SCORE.SYSTEM.CONST>
0

>  <SCORE.SYSTEM.DIHEDRAL>
0

>  <SCORE.SYSTEM.SOLV>
0

>  <SCORE.SYSTEM.norm>
0

>  <SCORE.heavy>
16

>  <SCORE.norm>
-0.619682

>  <RMSD>
1.296

$$$$
ligand
 OpenBabel11021811463D
libRbt.so/2013.1/901 2013/11/27
 16 16  0  0  0  0  0  0  0  0999 V2000
   51.4844   11.6398   15.2834 P   0  0  2  0  0  0  0  0  0  0  0  0
   52.4556   11.9531   16.3604 O   0  0  0  0  0  0  0  0  0  0  0  0
   51.9130   10.2705   14.5553 O   0  5  0  0  0  0  0  0  0  0  0  0
   51.4989   12.8337   14.2000 O   0  0  0  0  0  0  0  0  0  0  0  0
   46.1840   10.6453   17.2918 C   0  0  2  0  0  0  0  0  0  0  0  0
   45.3547    9.7683   16.5206 O   0  0  0  0  0  0  0  0  0  0  0  0
   45.6527   12.1004   17.2255 C   0  0  2  0  0  0  0  0  0  0  0  0
   44.2663   12.1486   17.7279 N   0  0  0  0  0  0  0  0  0  0  0  0
   45.6987   12.5729   15.7626 C   0  0  1  0  0  0  0  0  0  0  0  0
   45.2314   13.9211   15.6656 O   0  0  0  0  0  0  0  0  0  0  0  0
   47.1502   12.5012   15.2915 C   0  0  2  0  0  0  0  0  0  0  0  0
   47.2150   12.9322   13.9381 O   0  0  0  0  0  0  0  0  0  0  0  0
   47.6405   11.0320   15.4073 C   0  0  2  0  0  0  0  0  0  0  0  0
   47.5552   10.5765   16.7925 O   0  0  0  0  0  0  0  0  0  0  0  0
   49.1140   10.9097   14.9464 C   0  0  0  0  0  0  0  0  0  0  0  0
   50.0044   11.4790   15.9234 O   0  0  0  0  0  0  0  0  0  0  0  0
  1  2  1  1  0  0  0
  1  3  1  0  0  0  0
  1  4  2  0  0  0  0
  1 16  1  0  0  0  0
  5  6  1  6  0  0  0
  5  7  1  0  0  0  0
  5 14  1  0  0  0  0
  7  8  1  6  0  0  0
  7  9  1  0  0  0  0
  9 10  1  1  0  0  0
  9 11  1  0  0  0  0
 11 12  1  6  0  0  0
 11 13  1  0  0  0  0
 13 14  1  0  0  0  0
 13 15  1  1  0  0  0
 15 16  1  0  0  0  0
M  CHG  1   3  -1
M  END
>  <CHROM.1>
73.14138823,-167.42037976,-168.21159702,48.34508745,11.70026044,15.74321154
-0.07656149,-0.21182053,2.56217783

>  <Name>
ligand

>  <RI>
0

>  <Rbt.Current_Directory>
/home/itssahil/PROJECTS/Mol_Feturizer/New_Systems/rnas/3B4C

>  <Rbt.Executable>
rbdock ($Id: //depot/dev/client3/rdock/2013.1/src/exe/rbdock.cxx#4 $)

>  <Rbt.Library>
libRbt.so (2013.1, Build901 2013/11/27)

>  <Rbt.Parameter_File>
/export/apps/rDock/src/rDock_2013.1_src/data/scripts/dock_solv.prm

>  <Rbt.Receptor>
prm/pocket_docking_4.prm

>  <SCORE>
-10.6134

>  <SCORE.INTER>
-10.0474

>  <SCORE.INTER.CONST>
1

>  <SCORE.INTER.POLAR>
-1.29904

>  <SCORE.INTER.ROT>
3

>  <SCORE.INTER.SOLV>
19.0253

>  <SCORE.INTER.VDW>
-14.3099

>  <SCORE.INTER.norm>
-0.627962

>  <SCORE.INTRA>
-0.566014

>  <SCORE.INTRA.DIHEDRAL>
-0.547355

>  <SCORE.INTRA.DIHEDRAL.0>
2.1318

>  <SCORE.INTRA.POLAR>
0

>  <SCORE.INTRA.POLAR.0>
0

>  <SCORE.INTRA.REPUL>
0

>  <SCORE.INTRA.REPUL.0>
0

>  <SCORE.INTRA.SOLV>
0.0237854

>  <SCORE.INTRA.SOLV.lig_0>
-58.6125

>  <SCORE.INTRA.VDW>
-0.304229

>  <SCORE.INTRA.VDW.0>
-0.432734

>  <SCORE.INTRA.norm>
-0.0353759

>  <SCORE.RESTR>
0

>  <SCORE.RESTR.CAVITY>
0

>  <SCORE.RESTR.norm>
0

>  <SCORE.SYSTEM>
0

>  <SCORE.SYSTEM.CONST>
0

>  <SCORE.SYSTEM.DIHEDRAL>
0

>  <SCORE.SYSTEM.SOLV>
0

>  <SCORE.SYSTEM.norm>
0

>  <SCORE.heavy>
16

>  <SCORE.norm>
-0.663338

>  <RMSD>
1.309

$$$$
ligand
 OpenBabel11021811463D
libRbt.so/2013.1/901 2013/11/27
 16 16  0  0  0  0  0  0  0  0999 V2000
   51.7816   11.3329   15.9861 P   0  0  2  0  0  0  0  0  0  0  0  0
   52.6375   10.9796   17.1453 O   0  0  0  0  0  0  0  0  0  0  0  0
   52.2859   10.5352   14.6829 O   0  5  0  0  0  0  0  0  0  0  0  0
   51.9023   12.9164   15.7079 O   0  0  0  0  0  0  0  0  0  0  0  0
   46.3696   11.1266   17.5966 C   0  0  2  0  0  0  0  0  0  0  0  0
   46.0025    9.7961   17.2135 O   0  0  0  0  0  0  0  0  0  0  0  0
   45.4050   12.1639   16.9660 C   0  0  2  0  0  0  0  0  0  0  0  0
   44.0211   11.8817   17.3924 N   0  0  0  0  0  0  0  0  0  0  0  0
   45.5137   12.0669   15.4349 C   0  0  1  0  0  0  0  0  0  0  0  0
   44.6487   13.0243   14.8181 O   0  0  0  0  0  0  0  0  0  0  0  0
   46.9614   12.3634   15.0474 C   0  0  2  0  0  0  0  0  0  0  0  0
   47.0848   12.2766   13.6335 O   0  0  0  0  0  0  0  0  0  0  0  0
   47.8849   11.3169   15.7285 C   0  0  2  0  0  0  0  0  0  0  0  0
   47.7457   11.3865   17.1808 O   0  0  0  0  0  0  0  0  0  0  0  0
   49.3682   11.5814   15.3701 C   0  0  0  0  0  0  0  0  0  0  0  0
   50.2448   10.9345   16.3106 O   0  0  0  0  0  0  0  0  0  0  0  0
  1  2  1  1  0  0  0
  1  3  1  0  0  0  0
  1  4  2  0  0  0  0
  1 16  1  0  0  0  0
  5  6  1  6  0  0  0
  5  7  1  0  0  0  0
  5 14  1  0  0  0  0
  7  8  1  6  0  0  0
  7  9  1  0  0  0  0
  9 10  1  6  0  0  0
  9 11  1  0  0  0  0
 11 12  1  6  0  0  0
 11 13  1  0  0  0  0
 13 14  1  0  0  0  0
 13 15  1  1  0  0  0
 15 16  1  0  0  0  0
M  CHG  1   3  -1
M  END
>  <CHROM.1>
160.85912901,-175.16162555,164.81437002,48.45626570,11.57504010,15.99756869
0.00271001,-0.09442305,2.06168641

>  <Name>
ligand

>  <RI>
0

>  <Rbt.Current_Directory>
/home/itssahil/PROJECTS/Mol_Feturizer/New_Systems/rnas/3B4C

>  <Rbt.Executable>
rbdock ($Id: //depot/dev/client3/rdock/2013.1/src/exe/rbdock.cxx#4 $)

>  <Rbt.Library>
libRbt.so (2013.1, Build901 2013/11/27)

>  <Rbt.Parameter_File>
/export/apps/rDock/src/rDock_2013.1_src/data/scripts/dock_solv.prm

>  <Rbt.Receptor>
prm/pocket_docking_5.prm

>  <SCORE>
-11.1927

>  <SCORE.INTER>
-10.775

>  <SCORE.INTER.CONST>
1

>  <SCORE.INTER.POLAR>
-1.29904

>  <SCORE.INTER.ROT>
3

>  <SCORE.INTER.SOLV>
21.8337

>  <SCORE.INTER.VDW>
-15.7311

>  <SCORE.INTER.norm>
-0.673439

>  <SCORE.INTRA>
-0.417646

>  <SCORE.INTRA.DIHEDRAL>
-0.446598

>  <SCORE.INTRA.DIHEDRAL.0>
2.1318

>  <SCORE.INTRA.POLAR>
0

>  <SCORE.INTRA.POLAR.0>
0

>  <SCORE.INTRA.REPUL>
0

>  <SCORE.INTRA.REPUL.0>
0

>  <SCORE.INTRA.SOLV>
-0.31669

>  <SCORE.INTRA.SOLV.lig_0>
-58.6125

>  <SCORE.INTRA.VDW>
-0.0360016

>  <SCORE.INTRA.VDW.0>
-0.432734

>  <SCORE.INTRA.norm>
-0.0261029

>  <SCORE.RESTR>
0

>  <SCORE.RESTR.CAVITY>
0

>  <SCORE.RESTR.norm>
0

>  <SCORE.SYSTEM>
0

>  <SCORE.SYSTEM.CONST>
0

>  <SCORE.SYSTEM.DIHEDRAL>
0

>  <SCORE.SYSTEM.SOLV>
0

>  <SCORE.SYSTEM.norm>
0

>  <SCORE.heavy>
16

>  <SCORE.norm>
-0.699542

>  <RMSD>
1.331

$$$$
ligand
 OpenBabel11021811463D
libRbt.so/2013.1/901 2013/11/27
 16 16  0  0  0  0  0  0  0  0999 V2000
   51.7456   11.4907   15.4088 P   0  0  2  0  0  0  0  0  0  0  0  0
   51.8849   11.5020   13.9317 O   0  0  0  0  0  0  0  0  0  0  0  0
   52.0259   12.9662   15.9861 O   0  5  0  0  0  0  0  0  0  0  0  0
   52.8300   10.4723   16.0305 O   0  0  0  0  0  0  0  0  0  0  0  0
   46.4703   11.2081   17.5435 C   0  0  2  0  0  0  0  0  0  0  0  0
   46.1416    9.8706   17.1497 O   0  0  0  0  0  0  0  0  0  0  0  0
   45.4169   12.2114   17.0072 C   0  0  2  0  0  0  0  0  0  0  0  0
   44.0801   11.8513   17.5173 N   0  0  0  0  0  0  0  0  0  0  0  0
   45.4257   12.1566   15.4702 C   0  0  1  0  0  0  0  0  0  0  0  0
   44.4763   13.0848   14.9389 O   0  0  0  0  0  0  0  0  0  0  0  0
   46.8279   12.5333   14.9951 C   0  0  2  0  0  0  0  0  0  0  0  0
   46.8588   12.4865   13.5743 O   0  0  0  0  0  0  0  0  0  0  0  0
   47.8443   11.5174   15.5843 C   0  0  2  0  0  0  0  0  0  0  0  0
   47.8010   11.5453   17.0440 O   0  0  0  0  0  0  0  0  0  0  0  0
   49.2855   11.8632   15.1351 C   0  0  0  0  0  0  0  0  0  0  0  0
   50.2449   11.0246   15.8043 O   0  0  0  0  0  0  0  0  0  0  0  0
  1  2  1  6  0  0  0
  1  3  1  0  0  0  0
  1  4  2  0  0  0  0
  1 16  1  0  0  0  0
  5  6  1  6  0  0  0
  5  7  1  0  0  0  0
  5 14  1  0  0  0  0
  7  8  1  1  0  0  0
  7  9  1  0  0  0  0
  9 10  1  6  0  0  0
  9 11  1  0  0  0  0
 11 12  1  6  0  0  0
 11 13  1  0  0  0  0
 13 14  1  0  0  0  0
 13 15  1  1  0  0  0
 15 16  1  0  0  0  0
M  CHG  1   3  -1
M  END
>  <CHROM.1>
173.12829884,-175.31952408,-54.45938388,48.42446359,11.70884910,15.76984813
-0.07670595,-0.12660467,2.08809544

>  <Name>
ligand

>  <RI>
0

>  <Rbt.Current_Directory>
/home/itssahil/PROJECTS/Mol_Feturizer/New_Systems/rnas/3B4C

>  <Rbt.Executable>
rbdock ($Id: //depot/dev/client3/rdock/2013.1/src/exe/rbdock.cxx#4 $)

>  <Rbt.Library>
libRbt.so (2013.1, Build901 2013/11/27)

>  <Rbt.Parameter_File>
/export/apps/rDock/src/rDock_2013.1_src/data/scripts/dock_solv.prm

>  <Rbt.Receptor>
prm/pocket_docking_4.prm

>  <SCORE>
-10.6987

>  <SCORE.INTER>
-9.2567

>  <SCORE.INTER.CONST>
1

>  <SCORE.INTER.POLAR>
-1.29904

>  <SCORE.INTER.ROT>
3

>  <SCORE.INTER.SOLV>
21.9874

>  <SCORE.INTER.VDW>
-14.7701

>  <SCORE.INTER.norm>
-0.578544

>  <SCORE.INTRA>
-1.44203

>  <SCORE.INTRA.DIHEDRAL>
-1.80329

>  <SCORE.INTRA.DIHEDRAL.0>
2.1318

>  <SCORE.INTRA.POLAR>
0

>  <SCORE.INTRA.POLAR.0>
0

>  <SCORE.INTRA.REPUL>
0

>  <SCORE.INTRA.REPUL.0>
0

>  <SCORE.INTRA.SOLV>
-1.00443

>  <SCORE.INTRA.SOLV.lig_0>
-58.6125

>  <SCORE.INTRA.VDW>
-0.0381707

>  <SCORE.INTRA.VDW.0>
-0.432734

>  <SCORE.INTRA.norm>
-0.0901269

>  <SCORE.RESTR>
0

>  <SCORE.RESTR.CAVITY>
0

>  <SCORE.RESTR.norm>
0

>  <SCORE.SYSTEM>
0

>  <SCORE.SYSTEM.CONST>
0

>  <SCORE.SYSTEM.DIHEDRAL>
0

>  <SCORE.SYSTEM.SOLV>
0

>  <SCORE.SYSTEM.norm>
0

>  <SCORE.heavy>
16

>  <SCORE.norm>
-0.668671

>  <RMSD>
1.346

$$$$
ligand
 OpenBabel11021811463D
libRbt.so/2013.1/901 2013/11/27
 16 16  0  0  0  0  0  0  0  0999 V2000
   51.5827   11.3860   15.4793 P   0  0  2  0  0  0  0  0  0  0  0  0
   51.9190   10.0127   15.9290 O   0  0  0  0  0  0  0  0  0  0  0  0
   51.8215   11.5053   13.8926 O   0  5  0  0  0  0  0  0  0  0  0  0
   52.5471   12.4358   16.2325 O   0  0  0  0  0  0  0  0  0  0  0  0
   46.1614   10.7194   17.3735 C   0  0  2  0  0  0  0  0  0  0  0  0
   45.3234    9.8469   16.6064 O   0  0  0  0  0  0  0  0  0  0  0  0
   45.6959   12.1914   17.2305 C   0  0  2  0  0  0  0  0  0  0  0  0
   44.2957   12.3175   17.6780 N   0  0  0  0  0  0  0  0  0  0  0  0
   45.8148   12.6018   15.7530 C   0  0  1  0  0  0  0  0  0  0  0  0
   45.4098   13.9631   15.5859 O   0  0  0  0  0  0  0  0  0  0  0  0
   47.2779   12.4507   15.3402 C   0  0  2  0  0  0  0  0  0  0  0  0
   47.4099   12.8235   13.9744 O   0  0  0  0  0  0  0  0  0  0  0  0
   47.7001   10.9684   15.5316 C   0  0  2  0  0  0  0  0  0  0  0  0
   47.5454   10.5734   16.9293 O   0  0  0  0  0  0  0  0  0  0  0  0
   49.1826   10.7664   15.1317 C   0  0  0  0  0  0  0  0  0  0  0  0
   50.0310   11.7003   15.8241 O   0  0  0  0  0  0  0  0  0  0  0  0
  1  2  1  1  0  0  0
  1  3  1  0  0  0  0
  1  4  2  0  0  0  0
  1 16  1  0  0  0  0
  5  6  1  6  0  0  0
  5  7  1  0  0  0  0
  5 14  1  0  0  0  0
  7  8  1  6  0  0  0
  7  9  1  0  0  0  0
  9 10  1  1  0  0  0
  9 11  1  0  0  0  0
 11 12  1  6  0  0  0
 11 13  1  0  0  0  0
 13 14  1  0  0  0  0
 13 15  1  1  0  0  0
 15 16  1  0  0  0  0
M  CHG  1   3  -1
M  END
>  <CHROM.1>
53.09388447,175.39527185,-60.83729869,48.42878492,11.61919005,15.85235524
-0.02599154,-0.20719955,2.52291527

>  <Name>
ligand

>  <RI>
0

>  <Rbt.Current_Directory>
/home/itssahil/PROJECTS/Mol_Feturizer/New_Systems/rnas/3B4C

>  <Rbt.Executable>
rbdock ($Id: //depot/dev/client3/rdock/2013.1/src/exe/rbdock.cxx#4 $)

>  <Rbt.Library>
libRbt.so (2013.1, Build901 2013/11/27)

>  <Rbt.Parameter_File>
/export/apps/rDock/src/rDock_2013.1_src/data/scripts/dock_solv.prm

>  <Rbt.Receptor>
prm/pocket_docking_7.prm

>  <SCORE>
-10.6266

>  <SCORE.INTER>
-9.08872

>  <SCORE.INTER.CONST>
1

>  <SCORE.INTER.POLAR>
-1.03923

>  <SCORE.INTER.ROT>
3

>  <SCORE.INTER.SOLV>
19.4579

>  <SCORE.INTER.VDW>
-14.681

>  <SCORE.INTER.norm>
-0.568045

>  <SCORE.INTRA>
-1.53786

>  <SCORE.INTRA.DIHEDRAL>
-1.85591

>  <SCORE.INTRA.DIHEDRAL.0>
2.1318

>  <SCORE.INTRA.POLAR>
0

>  <SCORE.INTRA.POLAR.0>
0

>  <SCORE.INTRA.REPUL>
0

>  <SCORE.INTRA.REPUL.0>
0

>  <SCORE.INTRA.SOLV>
-0.810315

>  <SCORE.INTRA.SOLV.lig_0>
-58.6125

>  <SCORE.INTRA.VDW>
-0.204745

>  <SCORE.INTRA.VDW.0>
-0.432734

>  <SCORE.INTRA.norm>
-0.096116

>  <SCORE.RESTR>
0

>  <SCORE.RESTR.CAVITY>
0

>  <SCORE.RESTR.norm>
0

>  <SCORE.SYSTEM>
0

>  <SCORE.SYSTEM.CONST>
0

>  <SCORE.SYSTEM.DIHEDRAL>
0

>  <SCORE.SYSTEM.SOLV>
0

>  <SCORE.SYSTEM.norm>
0

>  <SCORE.heavy>
16

>  <SCORE.norm>
-0.664161

>  <RMSD>
1.352

$$$$
ligand
 OpenBabel11021811463D
libRbt.so/2013.1/901 2013/11/27
 16 16  0  0  0  0  0  0  0  0999 V2000
   51.7635   11.3118   16.0069 P   0  0  2  0  0  0  0  0  0  0  0  0
   52.5812   10.9533   17.1919 O   0  0  0  0  0  0  0  0  0  0  0  0
   52.3496   10.5694   14.7052 O   0  5  0  0  0  0  0  0  0  0  0  0
   51.8416   12.9058   15.7781 O   0  0  0  0  0  0  0  0  0  0  0  0
   46.3837   11.0356   17.6028 C   0  0  2  0  0  0  0  0  0  0  0  0
   45.9642    9.7554   17.1161 O   0  0  0  0  0  0  0  0  0  0  0  0
   45.4455   12.1543   17.0809 C   0  0  2  0  0  0  0  0  0  0  0  0
   44.0598   11.8832   17.5090 N   0  0  0  0  0  0  0  0  0  0  0  0
   45.5253   12.1842   15.5453 C   0  0  1  0  0  0  0  0  0  0  0  0
   44.6841   13.2188   15.0285 O   0  0  0  0  0  0  0  0  0  0  0  0
   46.9758   12.4642   15.1560 C   0  0  2  0  0  0  0  0  0  0  0  0
   47.0725   12.4937   13.7377 O   0  0  0  0  0  0  0  0  0  0  0  0
   47.8734   11.3334   15.7283 C   0  0  2  0  0  0  0  0  0  0  0  0
   47.7609   11.2840   17.1837 O   0  0  0  0  0  0  0  0  0  0  0  0
   49.3589   11.5779   15.3646 C   0  0  0  0  0  0  0  0  0  0  0  0
   50.2289   10.8536   16.2534 O   0  0  0  0  0  0  0  0  0  0  0  0
  1  2  1  1  0  0  0
  1  3  1  0  0  0  0
  1  4  2  0  0  0  0
  1 16  1  0  0  0  0
  5  6  1  6  0  0  0
  5  7  1  0  0  0  0
  5 14  1  0  0  0  0
  7  8  1  6  0  0  0
  7  9  1  0  0  0  0
  9 10  1  1  0  0  0
  9 11  1  0  0  0  0
 11 12  1  6  0  0  0
 11 13  1  0  0  0  0
 13 14  1  0  0  0  0
 13 15  1  1  0  0  0
 15 16  1  0  0  0  0
M  CHG  1   3  -1
M  END
>  <CHROM.1>
159.26473100,-170.90043373,160.29031737,48.45485369,11.59098903,16.04301329
0.00763544,-0.11029662,2.14350259

>  <Name>
ligand

>  <RI>
0

>  <Rbt.Current_Directory>
/home/itssahil/PROJECTS/Mol_Feturizer/New_Systems/rnas/3B4C

>  <Rbt.Executable>
rbdock ($Id: //depot/dev/client3/rdock/2013.1/src/exe/rbdock.cxx#4 $)

>  <Rbt.Library>
libRbt.so (2013.1, Build901 2013/11/27)

>  <Rbt.Parameter_File>
/export/apps/rDock/src/rDock_2013.1_src/data/scripts/dock_solv.prm

>  <Rbt.Receptor>
prm/pocket_docking_3.prm

>  <SCORE>
-11.0021

>  <SCORE.INTER>
-11.0105

>  <SCORE.INTER.CONST>
1

>  <SCORE.INTER.POLAR>
-1.29904

>  <SCORE.INTER.ROT>
3

>  <SCORE.INTER.SOLV>
22.2547

>  <SCORE.INTER.VDW>
-16.0285

>  <SCORE.INTER.norm>
-0.688159

>  <SCORE.INTRA>
0.00843288

>  <SCORE.INTRA.DIHEDRAL>
0.253139

>  <SCORE.INTRA.DIHEDRAL.0>
2.1318

>  <SCORE.INTRA.POLAR>
0

>  <SCORE.INTRA.POLAR.0>
0

>  <SCORE.INTRA.REPUL>
0

>  <SCORE.INTRA.REPUL.0>
0

>  <SCORE.INTRA.SOLV>
-0.303635

>  <SCORE.INTRA.SOLV.lig_0>
-58.6125

>  <SCORE.INTRA.VDW>
0.0336806

>  <SCORE.INTRA.VDW.0>
-0.432734

>  <SCORE.INTRA.norm>
0.000527055

>  <SCORE.RESTR>
0

>  <SCORE.RESTR.CAVITY>
0

>  <SCORE.RESTR.norm>
0

>  <SCORE.SYSTEM>
0

>  <SCORE.SYSTEM.CONST>
0

>  <SCORE.SYSTEM.DIHEDRAL>
0

>  <SCORE.SYSTEM.SOLV>
0

>  <SCORE.SYSTEM.norm>
0

>  <SCORE.heavy>
16

>  <SCORE.norm>
-0.687632

>  <RMSD>
1.361

$$$$
ligand
 OpenBabel11021811463D
libRbt.so/2013.1/901 2013/11/27
 16 16  0  0  0  0  0  0  0  0999 V2000
   51.2980   11.6704   15.0564 P   0  0  2  0  0  0  0  0  0  0  0  0
   52.2413   12.3324   15.9909 O   0  0  0  0  0  0  0  0  0  0  0  0
   51.7121   10.1256   14.8799 O   0  5  0  0  0  0  0  0  0  0  0  0
   51.3819   12.4005   13.6213 O   0  0  0  0  0  0  0  0  0  0  0  0
   46.0194   10.7096   17.2228 C   0  0  2  0  0  0  0  0  0  0  0  0
   45.1515    9.8860   16.4354 O   0  0  0  0  0  0  0  0  0  0  0  0
   45.5186   12.1769   17.2363 C   0  0  2  0  0  0  0  0  0  0  0  0
   44.1470   12.2308   17.7773 N   0  0  0  0  0  0  0  0  0  0  0  0
   45.5372   12.7145   15.7955 C   0  0  1  0  0  0  0  0  0  0  0  0
   45.0972   14.0751   15.7718 O   0  0  0  0  0  0  0  0  0  0  0  0
   46.9741   12.6343   15.2831 C   0  0  2  0  0  0  0  0  0  0  0  0
   47.0135   13.1252   13.9492 O   0  0  0  0  0  0  0  0  0  0  0  0
   47.4350   11.1516   15.3194 C   0  0  2  0  0  0  0  0  0  0  0  0
   47.3754   10.6353   16.6844 O   0  0  0  0  0  0  0  0  0  0  0  0
   48.8931   11.0199   14.8143 C   0  0  0  0  0  0  0  0  0  0  0  0
   49.7937   11.7690   15.6505 O   0  0  0  0  0  0  0  0  0  0  0  0
  1  2  1  1  0  0  0
  1  3  1  0  0  0  0
  1  4  2  0  0  0  0
  1 16  1  0  0  0  0
  5  6  1  6  0  0  0
  5  7  1  0  0  0  0
  5 14  1  0  0  0  0
  7  8  1  6  0  0  0
  7  9  1  0  0  0  0
  9 10  1  1  0  0  0
  9 11  1  0  0  0  0
 11 12  1  6  0  0  0
 11 13  1  0  0  0  0
 13 14  1  0  0  0  0
 13 15  1  1  0  0  0
 15 16  1  0  0  0  0
M  CHG  1   3  -1
M  END
>  <CHROM.1>
61.07924588,-177.28570170,-174.56993363,48.16703824,11.78135814,15.64272883
-0.07506292,-0.25468596,2.60315177

>  <Name>
ligand

>  <RI>
0

>  <Rbt.Current_Directory>
/home/itssahil/PROJECTS/Mol_Feturizer/New_Systems/rnas/3B4C

>  <Rbt.Executable>
rbdock ($Id: //depot/dev/client3/rdock/2013.1/src/exe/rbdock.cxx#4 $)

>  <Rbt.Library>
libRbt.so (2013.1, Build901 2013/11/27)

>  <Rbt.Parameter_File>
/export/apps/rDock/src/rDock_2013.1_src/data/scripts/dock_solv.prm

>  <Rbt.Receptor>
prm/pocket_docking_4.prm

>  <SCORE>
-11.2025

>  <SCORE.INTER>
-9.7392

>  <SCORE.INTER.CONST>
1

>  <SCORE.INTER.POLAR>
-1.29904

>  <SCORE.INTER.ROT>
3

>  <SCORE.INTER.SOLV>
18.054

>  <SCORE.INTER.VDW>
-13.7807

>  <SCORE.INTER.norm>
-0.6087

>  <SCORE.INTRA>
-1.46327

>  <SCORE.INTRA.DIHEDRAL>
-2.03865

>  <SCORE.INTRA.DIHEDRAL.0>
2.1318

>  <SCORE.INTRA.POLAR>
0

>  <SCORE.INTRA.POLAR.0>
0

>  <SCORE.INTRA.REPUL>
0

>  <SCORE.INTRA.REPUL.0>
0

>  <SCORE.INTRA.SOLV>
-0.172442

>  <SCORE.INTRA.SOLV.lig_0>
-58.6125

>  <SCORE.INTRA.VDW>
-0.357722

>  <SCORE.INTRA.VDW.0>
-0.432734

>  <SCORE.INTRA.norm>
-0.0914542

>  <SCORE.RESTR>
0

>  <SCORE.RESTR.CAVITY>
0

>  <SCORE.RESTR.norm>
0

>  <SCORE.SYSTEM>
0

>  <SCORE.SYSTEM.CONST>
0

>  <SCORE.SYSTEM.DIHEDRAL>
0

>  <SCORE.SYSTEM.SOLV>
0

>  <SCORE.SYSTEM.norm>
0

>  <SCORE.heavy>
16

>  <SCORE.norm>
-0.700154

>  <RMSD>
1.376

$$$$
ligand
 OpenBabel11021811463D
libRbt.so/2013.1/901 2013/11/27
 16 16  0  0  0  0  0  0  0  0999 V2000
   51.5581   11.5612   14.1006 P   0  0  2  0  0  0  0  0  0  0  0  0
   51.9620   11.2360   12.7104 O   0  0  0  0  0  0  0  0  0  0  0  0
   52.0039   13.0670   14.4512 O   0  5  0  0  0  0  0  0  0  0  0  0
   52.2989   10.5484   15.1129 O   0  0  0  0  0  0  0  0  0  0  0  0
   46.3666   10.5253   17.3966 C   0  0  2  0  0  0  0  0  0  0  0  0
   45.9076    9.4578   16.5590 O   0  0  0  0  0  0  0  0  0  0  0  0
   45.5731   11.8262   17.1101 C   0  0  2  0  0  0  0  0  0  0  0  0
   44.1340   11.5927   17.3365 N   0  0  0  0  0  0  0  0  0  0  0  0
   45.8156   12.2363   15.6477 C   0  0  1  0  0  0  0  0  0  0  0  0
   45.1115   13.4455   15.3522 O   0  0  0  0  0  0  0  0  0  0  0  0
   47.3155   12.4622   15.4662 C   0  0  2  0  0  0  0  0  0  0  0  0
   47.5625   12.8407   14.1180 O   0  0  0  0  0  0  0  0  0  0  0  0
   48.0627   11.1409   15.7946 C   0  0  2  0  0  0  0  0  0  0  0  0
   47.7947   10.7355   17.1720 O   0  0  0  0  0  0  0  0  0  0  0  0
   49.5921   11.3227   15.6313 C   0  0  0  0  0  0  0  0  0  0  0  0
   49.9499   11.4202   14.2407 O   0  0  0  0  0  0  0  0  0  0  0  0
  1  2  1  6  0  0  0
  1  3  1  0  0  0  0
  1  4  2  0  0  0  0
  1 16  1  0  0  0  0
  5  6  1  6  0  0  0
  5  7  1  0  0  0  0
  5 14  1  0  0  0  0
  7  8  1  6  0  0  0
  7  9  1  0  0  0  0
  9 10  1  1  0  0  0
  9 11  1  0  0  0  0
 11 12  1  6  0  0  0
 11 13  1  0  0  0  0
 13 14  1  0  0  0  0
 13 15  1  1  0  0  0
 15 16  1  0  0  0  0
M  CHG  1   3  -1
M  END
>  <CHROM.1>
-72.17445373,-178.17825389,162.33952957,48.50158822,11.58615811,15.36773311
-0.23638611,-0.30501931,2.46534466

>  <Name>
ligand

>  <RI>
0

>  <Rbt.Current_Directory>
/home/itssahil/PROJECTS/Mol_Feturizer/New_Systems/rnas/3B4C

>  <Rbt.Executable>
rbdock ($Id: //depot/dev/client3/rdock/2013.1/src/exe/rbdock.cxx#4 $)

>  <Rbt.Library>
libRbt.so (2013.1, Build901 2013/11/27)

>  <Rbt.Parameter_File>
/export/apps/rDock/src/rDock_2013.1_src/data/scripts/dock_solv.prm

>  <Rbt.Receptor>
prm/pocket_docking_6.prm

>  <SCORE>
-9.97013

>  <SCORE.INTER>
-9.17745

>  <SCORE.INTER.CONST>
1

>  <SCORE.INTER.POLAR>
-1.29904

>  <SCORE.INTER.ROT>
3

>  <SCORE.INTER.SOLV>
17.1778

>  <SCORE.INTER.VDW>
-13.1141

>  <SCORE.INTER.norm>
-0.573591

>  <SCORE.INTRA>
-0.792675

>  <SCORE.INTRA.DIHEDRAL>
-1.12569

>  <SCORE.INTRA.DIHEDRAL.0>
2.1318

>  <SCORE.INTRA.POLAR>
0

>  <SCORE.INTRA.POLAR.0>
0

>  <SCORE.INTRA.REPUL>
0

>  <SCORE.INTRA.REPUL.0>
0

>  <SCORE.INTRA.SOLV>
-0.0864753

>  <SCORE.INTRA.SOLV.lig_0>
-58.6125

>  <SCORE.INTRA.VDW>
-0.18659

>  <SCORE.INTRA.VDW.0>
-0.432734

>  <SCORE.INTRA.norm>
-0.0495422

>  <SCORE.RESTR>
0

>  <SCORE.RESTR.CAVITY>
0

>  <SCORE.RESTR.norm>
0

>  <SCORE.SYSTEM>
0

>  <SCORE.SYSTEM.CONST>
0

>  <SCORE.SYSTEM.DIHEDRAL>
0

>  <SCORE.SYSTEM.SOLV>
0

>  <SCORE.SYSTEM.norm>
0

>  <SCORE.heavy>
16

>  <SCORE.norm>
-0.623133

>  <RMSD>
1.378

$$$$
ligand
 OpenBabel11021811463D
libRbt.so/2013.1/901 2013/11/27
 16 16  0  0  0  0  0  0  0  0999 V2000
   51.3439   11.5770   15.0392 P   0  0  2  0  0  0  0  0  0  0  0  0
   52.3259   12.0447   16.0484 O   0  0  0  0  0  0  0  0  0  0  0  0
   51.6558   10.0459   14.6554 O   0  5  0  0  0  0  0  0  0  0  0  0
   51.4800   12.4854   13.7142 O   0  0  0  0  0  0  0  0  0  0  0  0
   46.1030   10.7529   17.2731 C   0  0  2  0  0  0  0  0  0  0  0  0
   45.2253    9.8959   16.5333 O   0  0  0  0  0  0  0  0  0  0  0  0
   45.5891   12.2155   17.2488 C   0  0  2  0  0  0  0  0  0  0  0  0
   44.2294   12.2760   17.8184 N   0  0  0  0  0  0  0  0  0  0  0  0
   45.5707   12.7045   15.7907 C   0  0  1  0  0  0  0  0  0  0  0  0
   45.1178   14.0597   15.7315 O   0  0  0  0  0  0  0  0  0  0  0  0
   46.9966   12.6192   15.2490 C   0  0  2  0  0  0  0  0  0  0  0  0
   47.0018   13.0653   13.8989 O   0  0  0  0  0  0  0  0  0  0  0  0
   47.4717   11.1425   15.3245 C   0  0  2  0  0  0  0  0  0  0  0  0
   47.4473   10.6719   16.7070 O   0  0  0  0  0  0  0  0  0  0  0  0
   48.9194   11.0062   14.7913 C   0  0  0  0  0  0  0  0  0  0  0  0
   49.8475   11.6938   15.6499 O   0  0  0  0  0  0  0  0  0  0  0  0
  1  2  1  1  0  0  0
  1  3  1  0  0  0  0
  1  4  2  0  0  0  0
  1 16  1  0  0  0  0
  5  6  1  6  0  0  0
  5  7  1  0  0  0  0
  5 14  1  0  0  0  0
  7  8  1  6  0  0  0
  7  9  1  0  0  0  0
  9 10  1  1  0  0  0
  9 11  1  0  0  0  0
 11 12  1  6  0  0  0
 11 13  1  0  0  0  0
 13 14  1  0  0  0  0
 13 15  1  1  0  0  0
 15 16  1  0  0  0  0
M  CHG  1   3  -1
M  END
>  <CHROM.1>
66.17090122,-178.04372964,-168.82641605,48.21271274,11.74958379,15.64026970
-0.07270961,-0.26564155,2.55488000

>  <Name>
ligand

>  <RI>
0

>  <Rbt.Current_Directory>
/home/itssahil/PROJECTS/Mol_Feturizer/New_Systems/rnas/3B4C

>  <Rbt.Executable>
rbdock ($Id: //depot/dev/client3/rdock/2013.1/src/exe/rbdock.cxx#4 $)

>  <Rbt.Library>
libRbt.so (2013.1, Build901 2013/11/27)

>  <Rbt.Parameter_File>
/export/apps/rDock/src/rDock_2013.1_src/data/scripts/dock_solv.prm

>  <Rbt.Receptor>
prm/pocket_docking_3.prm

>  <SCORE>
-11.1711

>  <SCORE.INTER>
-9.89608

>  <SCORE.INTER.CONST>
1

>  <SCORE.INTER.POLAR>
-1.29904

>  <SCORE.INTER.ROT>
3

>  <SCORE.INTER.SOLV>
18.0597

>  <SCORE.INTER.VDW>
-13.8872

>  <SCORE.INTER.norm>
-0.618505

>  <SCORE.INTRA>
-1.27507

>  <SCORE.INTRA.DIHEDRAL>
-1.76922

>  <SCORE.INTRA.DIHEDRAL.0>
2.1318

>  <SCORE.INTRA.POLAR>
0

>  <SCORE.INTRA.POLAR.0>
0

>  <SCORE.INTRA.REPUL>
0

>  <SCORE.INTRA.REPUL.0>
0

>  <SCORE.INTRA.SOLV>
-0.183051

>  <SCORE.INTRA.SOLV.lig_0>
-58.6125

>  <SCORE.INTRA.VDW>
-0.298935

>  <SCORE.INTRA.VDW.0>
-0.432734

>  <SCORE.INTRA.norm>
-0.0796919

>  <SCORE.RESTR>
0

>  <SCORE.RESTR.CAVITY>
0

>  <SCORE.RESTR.norm>
0

>  <SCORE.SYSTEM>
0

>  <SCORE.SYSTEM.CONST>
0

>  <SCORE.SYSTEM.DIHEDRAL>
0

>  <SCORE.SYSTEM.SOLV>
0

>  <SCORE.SYSTEM.norm>
0

>  <SCORE.heavy>
16

>  <SCORE.norm>
-0.698197

>  <RMSD>
1.385

$$$$
ligand
 OpenBabel11021811463D
libRbt.so/2013.1/901 2013/11/27
 16 16  0  0  0  0  0  0  0  0999 V2000
   51.6535   11.2797   15.9298 P   0  0  2  0  0  0  0  0  0  0  0  0
   52.5141   10.9266   17.0856 O   0  0  0  0  0  0  0  0  0  0  0  0
   52.1052   10.4261   14.6430 O   0  5  0  0  0  0  0  0  0  0  0  0
   51.8305   12.8488   15.6037 O   0  0  0  0  0  0  0  0  0  0  0  0
   46.2385   10.9754   17.5191 C   0  0  2  0  0  0  0  0  0  0  0  0
   45.8503    9.6947   17.0081 O   0  0  0  0  0  0  0  0  0  0  0  0
   45.2897   12.0844   16.9957 C   0  0  2  0  0  0  0  0  0  0  0  0
   43.9019   11.7832   17.3958 N   0  0  0  0  0  0  0  0  0  0  0  0
   45.3955   12.1366   15.4623 C   0  0  1  0  0  0  0  0  0  0  0  0
   44.5451   13.1633   14.9447 O   0  0  0  0  0  0  0  0  0  0  0  0
   46.8473   12.4473   15.1023 C   0  0  2  0  0  0  0  0  0  0  0  0
   46.9680   12.4979   13.6864 O   0  0  0  0  0  0  0  0  0  0  0  0
   47.7549   11.3247   15.6750 C   0  0  2  0  0  0  0  0  0  0  0  0
   47.6181   11.2535   17.1275 O   0  0  0  0  0  0  0  0  0  0  0  0
   49.2419   11.6002   15.3408 C   0  0  0  0  0  0  0  0  0  0  0  0
   50.1081   10.9510   16.2894 O   0  0  0  0  0  0  0  0  0  0  0  0
  1  2  1  1  0  0  0
  1  3  1  0  0  0  0
  1  4  2  0  0  0  0
  1 16  1  0  0  0  0
  5  6  1  6  0  0  0
  5  7  1  0  0  0  0
  5 14  1  0  0  0  0
  7  8  1  6  0  0  0
  7  9  1  0  0  0  0
  9 10  1  1  0  0  0
  9 11  1  0  0  0  0
 11 12  1  6  0  0  0
 11 13  1  0  0  0  0
 13 14  1  0  0  0  0
 13 15  1  1  0  0  0
 15 16  1  0  0  0  0
M  CHG  1   3  -1
M  END
>  <CHROM.1>
155.42952563,-178.96383138,165.03855027,48.33116695,11.55496313,15.96891502
0.00798456,-0.10532645,2.16158344

>  <Name>
ligand

>  <RI>
0

>  <Rbt.Current_Directory>
/home/itssahil/PROJECTS/Mol_Feturizer/New_Systems/rnas/3B4C

>  <Rbt.Executable>
rbdock ($Id: //depot/dev/client3/rdock/2013.1/src/exe/rbdock.cxx#4 $)

>  <Rbt.Library>
libRbt.so (2013.1, Build901 2013/11/27)

>  <Rbt.Parameter_File>
/export/apps/rDock/src/rDock_2013.1_src/data/scripts/dock_solv.prm

>  <Rbt.Receptor>
prm/pocket_docking_2.prm

>  <SCORE>
-10.7906

>  <SCORE.INTER>
-10.7116

>  <SCORE.INTER.CONST>
1

>  <SCORE.INTER.POLAR>
-1.29874

>  <SCORE.INTER.ROT>
3

>  <SCORE.INTER.SOLV>
21.7901

>  <SCORE.INTER.VDW>
-15.6753

>  <SCORE.INTER.norm>
-0.669477

>  <SCORE.INTRA>
-0.088227

>  <SCORE.INTRA.DIHEDRAL>
0.113472

>  <SCORE.INTRA.DIHEDRAL.0>
2.1318

>  <SCORE.INTRA.POLAR>
0

>  <SCORE.INTRA.POLAR.0>
0

>  <SCORE.INTRA.REPUL>
0

>  <SCORE.INTRA.REPUL.0>
0

>  <SCORE.INTRA.SOLV>
-0.317287

>  <SCORE.INTRA.SOLV.lig_0>
-58.6125

>  <SCORE.INTRA.VDW>
0.0136805

>  <SCORE.INTRA.VDW.0>
-0.432734

>  <SCORE.INTRA.norm>
-0.00551419

>  <SCORE.RESTR>
0.00926702

>  <SCORE.RESTR.CAVITY>
0.00926702

>  <SCORE.RESTR.norm>
0.000579189

>  <SCORE.SYSTEM>
0

>  <SCORE.SYSTEM.CONST>
0

>  <SCORE.SYSTEM.DIHEDRAL>
0

>  <SCORE.SYSTEM.SOLV>
0

>  <SCORE.SYSTEM.norm>
0

>  <SCORE.heavy>
16

>  <SCORE.norm>
-0.674412

>  <RMSD>
1.389

$$$$
ligand
 OpenBabel11021811463D
libRbt.so/2013.1/901 2013/11/27
 16 16  0  0  0  0  0  0  0  0999 V2000
   51.5556   11.1541   15.8479 P   0  0  2  0  0  0  0  0  0  0  0  0
   51.8726    9.7481   16.2001 O   0  0  0  0  0  0  0  0  0  0  0  0
   51.8519   11.3963   14.2851 O   0  5  0  0  0  0  0  0  0  0  0  0
   52.4942   12.1368   16.7155 O   0  0  0  0  0  0  0  0  0  0  0  0
   45.9935   10.5641   17.2892 C   0  0  2  0  0  0  0  0  0  0  0  0
   45.1888    9.7767   16.4036 O   0  0  0  0  0  0  0  0  0  0  0  0
   45.5803   12.0571   17.2231 C   0  0  2  0  0  0  0  0  0  0  0  0
   44.1557   12.1966   17.5803 N   0  0  0  0  0  0  0  0  0  0  0  0
   45.8161   12.5679   15.7917 C   0  0  1  0  0  0  0  0  0  0  0  0
   45.4619   13.9503   15.6976 O   0  0  0  0  0  0  0  0  0  0  0  0
   47.3003   12.3989   15.4715 C   0  0  2  0  0  0  0  0  0  0  0  0
   47.5401   12.8638   14.1493 O   0  0  0  0  0  0  0  0  0  0  0  0
   47.6665   10.8937   15.5821 C   0  0  2  0  0  0  0  0  0  0  0  0
   47.4012   10.4050   16.9327 O   0  0  0  0  0  0  0  0  0  0  0  0
   49.1677   10.6722   15.2723 C   0  0  0  0  0  0  0  0  0  0  0  0
   49.9930   11.4479   16.1604 O   0  0  0  0  0  0  0  0  0  0  0  0
  1  2  1  1  0  0  0
  1  3  1  0  0  0  0
  1  4  2  0  0  0  0
  1 16  1  0  0  0  0
  5  6  1  6  0  0  0
  5  7  1  0  0  0  0
  5 14  1  0  0  0  0
  7  8  1  6  0  0  0
  7  9  1  0  0  0  0
  9 10  1  1  0  0  0
  9 11  1  0  0  0  0
 11 12  1  6  0  0  0
 11 13  1  0  0  0  0
 13 14  1  0  0  0  0
 13 15  1  1  0  0  0
 15 16  1  0  0  0  0
M  CHG  1   3  -1
M  END
>  <CHROM.1>
57.60276092,177.94255327,-66.55502650,48.38878839,11.48338125,16.00634098
0.04519565,-0.16468527,2.60381004

>  <Name>
ligand

>  <RI>
0

>  <Rbt.Current_Directory>
/home/itssahil/PROJECTS/Mol_Feturizer/New_Systems/rnas/3B4C

>  <Rbt.Executable>
rbdock ($Id: //depot/dev/client3/rdock/2013.1/src/exe/rbdock.cxx#4 $)

>  <Rbt.Library>
libRbt.so (2013.1, Build901 2013/11/27)

>  <Rbt.Parameter_File>
/export/apps/rDock/src/rDock_2013.1_src/data/scripts/dock_solv.prm

>  <Rbt.Receptor>
prm/pocket_docking_5.prm

>  <SCORE>
-10.7815

>  <SCORE.INTER>
-9.15512

>  <SCORE.INTER.CONST>
1

>  <SCORE.INTER.POLAR>
-1.03923

>  <SCORE.INTER.ROT>
3

>  <SCORE.INTER.SOLV>
20.9518

>  <SCORE.INTER.VDW>
-15.2233

>  <SCORE.INTER.norm>
-0.572195

>  <SCORE.INTRA>
-1.62634

>  <SCORE.INTRA.DIHEDRAL>
-2.02034

>  <SCORE.INTRA.DIHEDRAL.0>
2.1318

>  <SCORE.INTRA.POLAR>
0

>  <SCORE.INTRA.POLAR.0>
0

>  <SCORE.INTRA.REPUL>
0

>  <SCORE.INTRA.REPUL.0>
0

>  <SCORE.INTRA.SOLV>
-0.751371

>  <SCORE.INTRA.SOLV.lig_0>
-58.6125

>  <SCORE.INTRA.VDW>
-0.240482

>  <SCORE.INTRA.VDW.0>
-0.432734

>  <SCORE.INTRA.norm>
-0.101646

>  <SCORE.RESTR>
0

>  <SCORE.RESTR.CAVITY>
0

>  <SCORE.RESTR.norm>
0

>  <SCORE.SYSTEM>
0

>  <SCORE.SYSTEM.CONST>
0

>  <SCORE.SYSTEM.DIHEDRAL>
0

>  <SCORE.SYSTEM.SOLV>
0

>  <SCORE.SYSTEM.norm>
0

>  <SCORE.heavy>
16

>  <SCORE.norm>
-0.673841

>  <RMSD>
1.445

$$$$
ligand
 OpenBabel11021811463D
libRbt.so/2013.1/901 2013/11/27
 16 16  0  0  0  0  0  0  0  0999 V2000
   51.3243   11.5722   13.6926 P   0  0  2  0  0  0  0  0  0  0  0  0
   51.5409   11.9159   12.2657 O   0  0  0  0  0  0  0  0  0  0  0  0
   52.0211   12.6833   14.6247 O   0  5  0  0  0  0  0  0  0  0  0  0
   51.9989   10.1394   13.9955 O   0  0  0  0  0  0  0  0  0  0  0  0
   46.4466   10.8361   17.5245 C   0  0  2  0  0  0  0  0  0  0  0  0
   45.8752    9.7174   16.8363 O   0  0  0  0  0  0  0  0  0  0  0  0
   45.6746   12.1382   17.1888 C   0  0  2  0  0  0  0  0  0  0  0  0
   44.2559   11.9879   17.5649 N   0  0  0  0  0  0  0  0  0  0  0  0
   45.7931   12.4028   15.6784 C   0  0  1  0  0  0  0  0  0  0  0  0
   45.1062   13.6090   15.3344 O   0  0  0  0  0  0  0  0  0  0  0  0
   47.2764   12.5470   15.3421 C   0  0  2  0  0  0  0  0  0  0  0  0
   47.4089   12.7903   13.9475 O   0  0  0  0  0  0  0  0  0  0  0  0
   48.0055   11.2304   15.7254 C   0  0  2  0  0  0  0  0  0  0  0  0
   47.8538   10.9638   17.1534 O   0  0  0  0  0  0  0  0  0  0  0  0
   49.5181   11.3311   15.4087 C   0  0  0  0  0  0  0  0  0  0  0  0
   49.7339   11.5208   13.9984 O   0  0  0  0  0  0  0  0  0  0  0  0
  1  2  1  6  0  0  0
  1  3  1  0  0  0  0
  1  4  2  0  0  0  0
  1 16  1  0  0  0  0
  5  6  1  6  0  0  0
  5  7  1  0  0  0  0
  5 14  1  0  0  0  0
  7  8  1  6  0  0  0
  7  9  1  0  0  0  0
  9 10  1  1  0  0  0
  9 11  1  0  0  0  0
 11 12  1  6  0  0  0
 11 13  1  0  0  0  0
 13 14  1  0  0  0  0
 13 15  1  1  0  0  0
 15 16  1  0  0  0  0
M  CHG  1   3  -1
M  END
>  <CHROM.1>
-62.14792308,-178.09787187,-173.82685696,48.41199070,11.69706317,15.22114434
0.29742611,0.37986807,-0.77437346

>  <Name>
ligand

>  <RI>
0

>  <Rbt.Current_Directory>
/home/itssahil/PROJECTS/Mol_Feturizer/New_Systems/rnas/3B4C

>  <Rbt.Executable>
rbdock ($Id: //depot/dev/client3/rdock/2013.1/src/exe/rbdock.cxx#4 $)

>  <Rbt.Library>
libRbt.so (2013.1, Build901 2013/11/27)

>  <Rbt.Parameter_File>
/export/apps/rDock/src/rDock_2013.1_src/data/scripts/dock_solv.prm

>  <Rbt.Receptor>
prm/pocket_docking_5.prm

>  <SCORE>
-10.5276

>  <SCORE.INTER>
-9.40377

>  <SCORE.INTER.CONST>
1

>  <SCORE.INTER.POLAR>
-1.29618

>  <SCORE.INTER.ROT>
3

>  <SCORE.INTER.SOLV>
17.078

>  <SCORE.INTER.VDW>
-13.2412

>  <SCORE.INTER.norm>
-0.587735

>  <SCORE.INTRA>
-1.12378

>  <SCORE.INTRA.DIHEDRAL>
-2.03155

>  <SCORE.INTRA.DIHEDRAL.0>
2.1318

>  <SCORE.INTRA.POLAR>
0

>  <SCORE.INTRA.POLAR.0>
0

>  <SCORE.INTRA.REPUL>
0

>  <SCORE.INTRA.REPUL.0>
0

>  <SCORE.INTRA.SOLV>
0.028102

>  <SCORE.INTRA.SOLV.lig_0>
-58.6125

>  <SCORE.INTRA.VDW>
-0.122061

>  <SCORE.INTRA.VDW.0>
-0.432734

>  <SCORE.INTRA.norm>
-0.0702365

>  <SCORE.RESTR>
0

>  <SCORE.RESTR.CAVITY>
0

>  <SCORE.RESTR.norm>
0

>  <SCORE.SYSTEM>
0

>  <SCORE.SYSTEM.CONST>
0

>  <SCORE.SYSTEM.DIHEDRAL>
0

>  <SCORE.SYSTEM.SOLV>
0

>  <SCORE.SYSTEM.norm>
0

>  <SCORE.heavy>
16

>  <SCORE.norm>
-0.657972

>  <RMSD>
1.470

$$$$
ligand
 OpenBabel11021811463D
libRbt.so/2013.1/901 2013/11/27
 16 16  0  0  0  0  0  0  0  0999 V2000
   51.1994   11.6446   14.6652 P   0  0  2  0  0  0  0  0  0  0  0  0
   51.1348   11.9672   13.2184 O   0  0  0  0  0  0  0  0  0  0  0  0
   52.2371   12.6372   15.3911 O   0  5  0  0  0  0  0  0  0  0  0  0
   51.7172   10.1280   14.8421 O   0  0  0  0  0  0  0  0  0  0  0  0
   46.1161   10.7533   17.2658 C   0  0  2  0  0  0  0  0  0  0  0  0
   45.2041    9.8782   16.5917 O   0  0  0  0  0  0  0  0  0  0  0  0
   45.5917   12.2123   17.2449 C   0  0  2  0  0  0  0  0  0  0  0  0
   44.2658   12.2750   17.8890 N   0  0  0  0  0  0  0  0  0  0  0  0
   45.4882   12.6750   15.7818 C   0  0  1  0  0  0  0  0  0  0  0  0
   45.0235   14.0263   15.7244 O   0  0  0  0  0  0  0  0  0  0  0  0
   46.8819   12.5883   15.1623 C   0  0  2  0  0  0  0  0  0  0  0  0
   46.8083   13.0103   13.8064 O   0  0  0  0  0  0  0  0  0  0  0  0
   47.3706   11.1160   15.2368 C   0  0  2  0  0  0  0  0  0  0  0  0
   47.4270   10.6700   16.6265 O   0  0  0  0  0  0  0  0  0  0  0  0
   48.7869   10.9786   14.6254 C   0  0  0  0  0  0  0  0  0  0  0  0
   49.7278   11.8166   15.3212 O   0  0  0  0  0  0  0  0  0  0  0  0
  1  2  1  6  0  0  0
  1  3  1  0  0  0  0
  1  4  2  0  0  0  0
  1 16  1  0  0  0  0
  5  6  1  6  0  0  0
  5  7  1  0  0  0  0
  5 14  1  0  0  0  0
  7  8  1  6  0  0  0
  7  9  1  0  0  0  0
  9 10  1  1  0  0  0
  9 11  1  0  0  0  0
 11 12  1  6  0  0  0
 11 13  1  0  0  0  0
 13 14  1  0  0  0  0
 13 15  1  1  0  0  0
 15 16  1  0  0  0  0
M  CHG  1   3  -1
M  END
>  <CHROM.1>
59.15150467,179.67018530,56.91552428,48.12287524,11.76251933,15.48903976
-0.11930007,-0.30520011,2.54569306

>  <Name>
ligand

>  <RI>
0

>  <Rbt.Current_Directory>
/home/itssahil/PROJECTS/Mol_Feturizer/New_Systems/rnas/3B4C

>  <Rbt.Executable>
rbdock ($Id: //depot/dev/client3/rdock/2013.1/src/exe/rbdock.cxx#4 $)

>  <Rbt.Library>
libRbt.so (2013.1, Build901 2013/11/27)

>  <Rbt.Parameter_File>
/export/apps/rDock/src/rDock_2013.1_src/data/scripts/dock_solv.prm

>  <Rbt.Receptor>
prm/pocket_docking_3.prm

>  <SCORE>
-10.1393

>  <SCORE.INTER>
-8.42522

>  <SCORE.INTER.CONST>
1

>  <SCORE.INTER.POLAR>
-1.29904

>  <SCORE.INTER.ROT>
3

>  <SCORE.INTER.SOLV>
19.115

>  <SCORE.INTER.VDW>
-13.2584

>  <SCORE.INTER.norm>
-0.526576

>  <SCORE.INTRA>
-1.71412

>  <SCORE.INTRA.DIHEDRAL>
-2.1117

>  <SCORE.INTRA.DIHEDRAL.0>
2.1318

>  <SCORE.INTRA.POLAR>
0

>  <SCORE.INTRA.POLAR.0>
0

>  <SCORE.INTRA.REPUL>
0

>  <SCORE.INTRA.REPUL.0>
0

>  <SCORE.INTRA.SOLV>
-0.84558

>  <SCORE.INTRA.SOLV.lig_0>
-58.6125

>  <SCORE.INTRA.VDW>
-0.235479

>  <SCORE.INTRA.VDW.0>
-0.432734

>  <SCORE.INTRA.norm>
-0.107132

>  <SCORE.RESTR>
0

>  <SCORE.RESTR.CAVITY>
0

>  <SCORE.RESTR.norm>
0

>  <SCORE.SYSTEM>
0

>  <SCORE.SYSTEM.CONST>
0

>  <SCORE.SYSTEM.DIHEDRAL>
0

>  <SCORE.SYSTEM.SOLV>
0

>  <SCORE.SYSTEM.norm>
0

>  <SCORE.heavy>
16

>  <SCORE.norm>
-0.633709

>  <RMSD>
1.475

$$$$
ligand
 OpenBabel11021811463D
libRbt.so/2013.1/901 2013/11/27
 16 16  0  0  0  0  0  0  0  0999 V2000
   51.3893   11.3450   13.8003 P   0  0  2  0  0  0  0  0  0  0  0  0
   51.8258    9.9322   13.9221 O   0  0  0  0  0  0  0  0  0  0  0  0
   51.6935   11.8748   12.3118 O   0  5  0  0  0  0  0  0  0  0  0  0
   52.2171   12.2427   14.8531 O   0  0  0  0  0  0  0  0  0  0  0  0
   46.4326   10.7712   17.5548 C   0  0  2  0  0  0  0  0  0  0  0  0
   45.8206    9.6973   16.8310 O   0  0  0  0  0  0  0  0  0  0  0  0
   45.7263   12.1154   17.2413 C   0  0  2  0  0  0  0  0  0  0  0  0
   44.2968   12.0219   17.5940 N   0  0  0  0  0  0  0  0  0  0  0  0
   45.8794   12.4111   15.7398 C   0  0  1  0  0  0  0  0  0  0  0  0
   45.2538   13.6559   15.4167 O   0  0  0  0  0  0  0  0  0  0  0  0
   47.3725   12.4946   15.4277 C   0  0  2  0  0  0  0  0  0  0  0  0
   47.5369   12.7655   14.0415 O   0  0  0  0  0  0  0  0  0  0  0  0
   48.0345   11.1366   15.7878 C   0  0  2  0  0  0  0  0  0  0  0  0
   47.8495   10.8426   17.2065 O   0  0  0  0  0  0  0  0  0  0  0  0
   49.5548   11.1749   15.4947 C   0  0  0  0  0  0  0  0  0  0  0  0
   49.8005   11.4454   14.1026 O   0  0  0  0  0  0  0  0  0  0  0  0
  1  2  1  1  0  0  0
  1  3  1  0  0  0  0
  1  4  2  0  0  0  0
  1 16  1  0  0  0  0
  5  6  1  6  0  0  0
  5  7  1  0  0  0  0
  5 14  1  0  0  0  0
  7  8  1  6  0  0  0
  7  9  1  0  0  0  0
  9 10  1  1  0  0  0
  9 11  1  0  0  0  0
 11 12  1  6  0  0  0
 11 13  1  0  0  0  0
 13 14  1  0  0  0  0
 13 15  1  1  0  0  0
 15 16  1  0  0  0  0
M  CHG  1   3  -1
M  END
>  <CHROM.1>
-59.69769172,-174.85115944,68.89301544,48.46626415,11.59462071,15.28946836
-0.26295255,-0.40116168,2.39220514

>  <Name>
ligand

>  <RI>
0

>  <Rbt.Current_Directory>
/home/itssahil/PROJECTS/Mol_Feturizer/New_Systems/rnas/3B4C

>  <Rbt.Executable>
rbdock ($Id: //depot/dev/client3/rdock/2013.1/src/exe/rbdock.cxx#4 $)

>  <Rbt.Library>
libRbt.so (2013.1, Build901 2013/11/27)

>  <Rbt.Parameter_File>
/export/apps/rDock/src/rDock_2013.1_src/data/scripts/dock_solv.prm

>  <Rbt.Receptor>
prm/pocket_docking_3.prm

>  <SCORE>
-10.2713

>  <SCORE.INTER>
-9.10878

>  <SCORE.INTER.CONST>
1

>  <SCORE.INTER.POLAR>
-1.03923

>  <SCORE.INTER.ROT>
3

>  <SCORE.INTER.SOLV>
15.8017

>  <SCORE.INTER.VDW>
-13.4757

>  <SCORE.INTER.norm>
-0.569299

>  <SCORE.INTRA>
-1.16254

>  <SCORE.INTRA.DIHEDRAL>
-1.86852

>  <SCORE.INTRA.DIHEDRAL.0>
2.1318

>  <SCORE.INTRA.POLAR>
0

>  <SCORE.INTRA.POLAR.0>
0

>  <SCORE.INTRA.REPUL>
0

>  <SCORE.INTRA.REPUL.0>
0

>  <SCORE.INTRA.SOLV>
-0.548656

>  <SCORE.INTRA.SOLV.lig_0>
-58.6125

>  <SCORE.INTRA.VDW>
0.0460491

>  <SCORE.INTRA.VDW.0>
-0.432734

>  <SCORE.INTRA.norm>
-0.0726587

>  <SCORE.RESTR>
0

>  <SCORE.RESTR.CAVITY>
0

>  <SCORE.RESTR.norm>
0

>  <SCORE.SYSTEM>
0

>  <SCORE.SYSTEM.CONST>
0

>  <SCORE.SYSTEM.DIHEDRAL>
0

>  <SCORE.SYSTEM.SOLV>
0

>  <SCORE.SYSTEM.norm>
0

>  <SCORE.heavy>
16

>  <SCORE.norm>
-0.641958

>  <RMSD>
1.514

$$$$
ligand
 OpenBabel11021811463D
libRbt.so/2013.1/901 2013/11/27
 16 16  0  0  0  0  0  0  0  0999 V2000
   51.3049   11.3985   13.7360 P   0  0  2  0  0  0  0  0  0  0  0  0
   51.5717   10.9757   12.3391 O   0  0  0  0  0  0  0  0  0  0  0  0
   51.7522   12.9321   13.9278 O   0  5  0  0  0  0  0  0  0  0  0  0
   52.1663   10.4744   14.7377 O   0  0  0  0  0  0  0  0  0  0  0  0
   46.4455   10.9881   17.6349 C   0  0  2  0  0  0  0  0  0  0  0  0
   45.9193    9.7780   17.0775 O   0  0  0  0  0  0  0  0  0  0  0  0
   45.6235   12.2134   17.1584 C   0  0  2  0  0  0  0  0  0  0  0  0
   44.2113   12.0506   17.5531 N   0  0  0  0  0  0  0  0  0  0  0  0
   45.7337   12.3123   15.6276 C   0  0  1  0  0  0  0  0  0  0  0  0
   45.0005   13.4448   15.1532 O   0  0  0  0  0  0  0  0  0  0  0  0
   47.2107   12.4760   15.2729 C   0  0  2  0  0  0  0  0  0  0  0  0
   47.3356   12.5672   13.8595 O   0  0  0  0  0  0  0  0  0  0  0  0
   47.9902   11.2398   15.7985 C   0  0  2  0  0  0  0  0  0  0  0  0
   47.8471   11.1285   17.2478 O   0  0  0  0  0  0  0  0  0  0  0  0
   49.4983   11.3637   15.4681 C   0  0  0  0  0  0  0  0  0  0  0  0
   49.7227   11.2466   14.0513 O   0  0  0  0  0  0  0  0  0  0  0  0
  1  2  1  6  0  0  0
  1  3  1  0  0  0  0
  1  4  2  0  0  0  0
  1 16  1  0  0  0  0
  5  6  1  6  0  0  0
  5  7  1  0  0  0  0
  5 14  1  0  0  0  0
  7  8  1  6  0  0  0
  7  9  1  0  0  0  0
  9 10  1  1  0  0  0
  9 11  1  0  0  0  0
 11 12  1  6  0  0  0
 11 13  1  0  0  0  0
 13 14  1  0  0  0  0
 13 15  1  1  0  0  0
 15 16  1  0  0  0  0
M  CHG  1   3  -1
M  END
>  <CHROM.1>
-68.85197517,179.30009961,167.24124419,48.38187692,11.63458659,15.24593389
0.31757554,0.35797346,-0.89908003

>  <Name>
ligand

>  <RI>
0

>  <Rbt.Current_Directory>
/home/itssahil/PROJECTS/Mol_Feturizer/New_Systems/rnas/3B4C

>  <Rbt.Executable>
rbdock ($Id: //depot/dev/client3/rdock/2013.1/src/exe/rbdock.cxx#4 $)

>  <Rbt.Library>
libRbt.so (2013.1, Build901 2013/11/27)

>  <Rbt.Parameter_File>
/export/apps/rDock/src/rDock_2013.1_src/data/scripts/dock_solv.prm

>  <Rbt.Receptor>
prm/pocket_docking_7.prm

>  <SCORE>
-10.598

>  <SCORE.INTER>
-9.58113

>  <SCORE.INTER.CONST>
1

>  <SCORE.INTER.POLAR>
-1.29904

>  <SCORE.INTER.ROT>
3

>  <SCORE.INTER.SOLV>
16.7881

>  <SCORE.INTER.VDW>
-13.2533

>  <SCORE.INTER.norm>
-0.598821

>  <SCORE.INTRA>
-1.01686

>  <SCORE.INTRA.DIHEDRAL>
-1.59695

>  <SCORE.INTRA.DIHEDRAL.0>
2.1318

>  <SCORE.INTRA.POLAR>
0

>  <SCORE.INTRA.POLAR.0>
0

>  <SCORE.INTRA.REPUL>
0

>  <SCORE.INTRA.REPUL.0>
0

>  <SCORE.INTRA.SOLV>
-0.0158985

>  <SCORE.INTRA.SOLV.lig_0>
-58.6125

>  <SCORE.INTRA.VDW>
-0.210434

>  <SCORE.INTRA.VDW.0>
-0.432734

>  <SCORE.INTRA.norm>
-0.0635536

>  <SCORE.RESTR>
0

>  <SCORE.RESTR.CAVITY>
0

>  <SCORE.RESTR.norm>
0

>  <SCORE.SYSTEM>
0

>  <SCORE.SYSTEM.CONST>
0

>  <SCORE.SYSTEM.DIHEDRAL>
0

>  <SCORE.SYSTEM.SOLV>
0

>  <SCORE.SYSTEM.norm>
0

>  <SCORE.heavy>
16

>  <SCORE.norm>
-0.662374

>  <RMSD>
1.525

$$$$
ligand
 OpenBabel11021811463D
libRbt.so/2013.1/901 2013/11/27
 16 16  0  0  0  0  0  0  0  0999 V2000
   51.3165   11.2861   13.8118 P   0  0  2  0  0  0  0  0  0  0  0  0
   51.7479    9.8750   13.9664 O   0  0  0  0  0  0  0  0  0  0  0  0
   51.6166   11.7782   12.3096 O   0  5  0  0  0  0  0  0  0  0  0  0
   52.1520   12.2059   14.8391 O   0  0  0  0  0  0  0  0  0  0  0  0
   46.3648   10.7818   17.5838 C   0  0  2  0  0  0  0  0  0  0  0  0
   45.7242    9.7303   16.8519 O   0  0  0  0  0  0  0  0  0  0  0  0
   45.6885   12.1454   17.2885 C   0  0  2  0  0  0  0  0  0  0  0  0
   44.2590   12.0814   17.6478 N   0  0  0  0  0  0  0  0  0  0  0  0
   45.8408   12.4536   15.7894 C   0  0  1  0  0  0  0  0  0  0  0  0
   45.2428   13.7160   15.4829 O   0  0  0  0  0  0  0  0  0  0  0  0
   47.3338   12.5057   15.4701 C   0  0  2  0  0  0  0  0  0  0  0  0
   47.4974   12.7875   14.0861 O   0  0  0  0  0  0  0  0  0  0  0  0
   47.9658   11.1288   15.8122 C   0  0  2  0  0  0  0  0  0  0  0  0
   47.7812   10.8239   17.2287 O   0  0  0  0  0  0  0  0  0  0  0  0
   49.4850   11.1348   15.5113 C   0  0  0  0  0  0  0  0  0  0  0  0
   49.7293   11.4002   14.1180 O   0  0  0  0  0  0  0  0  0  0  0  0
  1  2  1  1  0  0  0
  1  3  1  0  0  0  0
  1  4  2  0  0  0  0
  1 16  1  0  0  0  0
  5  6  1  6  0  0  0
  5  7  1  0  0  0  0
  5 14  1  0  0  0  0
  7  8  1  6  0  0  0
  7  9  1  0  0  0  0
  9 10  1  1  0  0  0
  9 11  1  0  0  0  0
 11 12  1  6  0  0  0
 11 13  1  0  0  0  0
 13 14  1  0  0  0  0
 13 15  1  1  0  0  0
 15 16  1  0  0  0  0
M  CHG  1   3  -1
M  END
>  <CHROM.1>
-60.32226630,-175.62400660,67.60125161,48.40620672,11.58408987,15.31726599
-0.24824278,-0.42009383,2.40968641

>  <Name>
ligand

>  <RI>
0

>  <Rbt.Current_Directory>
/home/itssahil/PROJECTS/Mol_Feturizer/New_Systems/rnas/3B4C

>  <Rbt.Executable>
rbdock ($Id: //depot/dev/client3/rdock/2013.1/src/exe/rbdock.cxx#4 $)

>  <Rbt.Library>
libRbt.so (2013.1, Build901 2013/11/27)

>  <Rbt.Parameter_File>
/export/apps/rDock/src/rDock_2013.1_src/data/scripts/dock_solv.prm

>  <Rbt.Receptor>
prm/pocket_docking_3.prm

>  <SCORE>
-10.2523

>  <SCORE.INTER>
-9.02461

>  <SCORE.INTER.CONST>
1

>  <SCORE.INTER.POLAR>
-1.03923

>  <SCORE.INTER.ROT>
3

>  <SCORE.INTER.SOLV>
16.0666

>  <SCORE.INTER.VDW>
-13.5078

>  <SCORE.INTER.norm>
-0.564038

>  <SCORE.INTRA>
-1.22772

>  <SCORE.INTRA.DIHEDRAL>
-1.93894

>  <SCORE.INTRA.DIHEDRAL.0>
2.1318

>  <SCORE.INTRA.POLAR>
0

>  <SCORE.INTRA.POLAR.0>
0

>  <SCORE.INTRA.REPUL>
0

>  <SCORE.INTRA.REPUL.0>
0

>  <SCORE.INTRA.SOLV>
-0.559152

>  <SCORE.INTRA.SOLV.lig_0>
-58.6125

>  <SCORE.INTRA.VDW>
0.0213273

>  <SCORE.INTRA.VDW.0>
-0.432734

>  <SCORE.INTRA.norm>
-0.0767323

>  <SCORE.RESTR>
0

>  <SCORE.RESTR.CAVITY>
0

>  <SCORE.RESTR.norm>
0

>  <SCORE.SYSTEM>
0

>  <SCORE.SYSTEM.CONST>
0

>  <SCORE.SYSTEM.DIHEDRAL>
0

>  <SCORE.SYSTEM.SOLV>
0

>  <SCORE.SYSTEM.norm>
0

>  <SCORE.heavy>
16

>  <SCORE.norm>
-0.64077

>  <RMSD>
1.552

$$$$
ligand
 OpenBabel11021811463D
libRbt.so/2013.1/901 2013/11/27
 16 16  0  0  0  0  0  0  0  0999 V2000
   51.3115   11.2860   13.8113 P   0  0  2  0  0  0  0  0  0  0  0  0
   51.7137    9.8741   14.0256 O   0  0  0  0  0  0  0  0  0  0  0  0
   51.6187   11.7070   12.2890 O   0  5  0  0  0  0  0  0  0  0  0  0
   52.1683   12.2313   14.7972 O   0  0  0  0  0  0  0  0  0  0  0  0
   46.3540   10.8552   17.5753 C   0  0  2  0  0  0  0  0  0  0  0  0
   45.7490    9.7660   16.8686 O   0  0  0  0  0  0  0  0  0  0  0  0
   45.6423   12.1904   17.2368 C   0  0  2  0  0  0  0  0  0  0  0  0
   44.2122   12.0962   17.5873 N   0  0  0  0  0  0  0  0  0  0  0  0
   45.7979   12.4608   15.7307 C   0  0  1  0  0  0  0  0  0  0  0  0
   45.1674   13.6968   15.3845 O   0  0  0  0  0  0  0  0  0  0  0  0
   47.2915   12.5460   15.4211 C   0  0  2  0  0  0  0  0  0  0  0  0
   47.4583   12.7936   14.0309 O   0  0  0  0  0  0  0  0  0  0  0  0
   47.9589   11.1976   15.8064 C   0  0  2  0  0  0  0  0  0  0  0  0
   47.7715   10.9273   17.2295 O   0  0  0  0  0  0  0  0  0  0  0  0
   49.4798   11.2380   15.5165 C   0  0  0  0  0  0  0  0  0  0  0  0
   49.7278   11.4463   14.1142 O   0  0  0  0  0  0  0  0  0  0  0  0
  1  2  1  1  0  0  0
  1  3  1  0  0  0  0
  1  4  2  0  0  0  0
  1 16  1  0  0  0  0
  5  6  1  6  0  0  0
  5  7  1  0  0  0  0
  5 14  1  0  0  0  0
  7  8  1  6  0  0  0
  7  9  1  0  0  0  0
  9 10  1  1  0  0  0
  9 11  1  0  0  0  0
 11 12  1  6  0  0  0
 11 13  1  0  0  0  0
 13 14  1  0  0  0  0
 13 15  1  1  0  0  0
 15 16  1  0  0  0  0
M  CHG  1   3  -1
M  END
>  <CHROM.1>
-61.39495959,-172.45624181,67.25646151,48.38760845,11.61068805,15.29607634
-0.25350089,-0.40783894,2.37150309

>  <Name>
ligand

>  <RI>
0

>  <Rbt.Current_Directory>
/home/itssahil/PROJECTS/Mol_Feturizer/New_Systems/rnas/3B4C

>  <Rbt.Executable>
rbdock ($Id: //depot/dev/client3/rdock/2013.1/src/exe/rbdock.cxx#4 $)

>  <Rbt.Library>
libRbt.so (2013.1, Build901 2013/11/27)

>  <Rbt.Parameter_File>
/export/apps/rDock/src/rDock_2013.1_src/data/scripts/dock_solv.prm

>  <Rbt.Receptor>
prm/pocket_docking_8.prm

>  <SCORE>
-10.2828

>  <SCORE.INTER>
-9.09832

>  <SCORE.INTER.CONST>
1

>  <SCORE.INTER.POLAR>
-1.03898

>  <SCORE.INTER.ROT>
3

>  <SCORE.INTER.SOLV>
15.7975

>  <SCORE.INTER.VDW>
-13.4681

>  <SCORE.INTER.norm>
-0.568645

>  <SCORE.INTRA>
-1.18453

>  <SCORE.INTRA.DIHEDRAL>
-1.75783

>  <SCORE.INTRA.DIHEDRAL.0>
2.1318

>  <SCORE.INTRA.POLAR>
0

>  <SCORE.INTRA.POLAR.0>
0

>  <SCORE.INTRA.REPUL>
0

>  <SCORE.INTRA.REPUL.0>
0

>  <SCORE.INTRA.SOLV>
-0.603985

>  <SCORE.INTRA.SOLV.lig_0>
-58.6125

>  <SCORE.INTRA.VDW>
-0.00362031

>  <SCORE.INTRA.VDW.0>
-0.432734

>  <SCORE.INTRA.norm>
-0.0740331

>  <SCORE.RESTR>
0

>  <SCORE.RESTR.CAVITY>
0

>  <SCORE.RESTR.norm>
0

>  <SCORE.SYSTEM>
0

>  <SCORE.SYSTEM.CONST>
0

>  <SCORE.SYSTEM.DIHEDRAL>
0

>  <SCORE.SYSTEM.SOLV>
0

>  <SCORE.SYSTEM.norm>
0

>  <SCORE.heavy>
16

>  <SCORE.norm>
-0.642678

>  <RMSD>
1.557

$$$$
ligand
 OpenBabel11021811463D
libRbt.so/2013.1/901 2013/11/27
 16 16  0  0  0  0  0  0  0  0999 V2000
   51.2297   11.4812   13.6360 P   0  0  2  0  0  0  0  0  0  0  0  0
   51.4279   11.7190   12.1850 O   0  0  0  0  0  0  0  0  0  0  0  0
   51.9514   12.6490   14.4753 O   0  5  0  0  0  0  0  0  0  0  0  0
   51.8947   10.0668   14.0317 O   0  0  0  0  0  0  0  0  0  0  0  0
   46.4006   10.9011   17.5532 C   0  0  2  0  0  0  0  0  0  0  0  0
   45.7864    9.8025   16.8693 O   0  0  0  0  0  0  0  0  0  0  0  0
   45.6592   12.2259   17.2383 C   0  0  2  0  0  0  0  0  0  0  0  0
   44.2437   12.1126   17.6388 N   0  0  0  0  0  0  0  0  0  0  0  0
   45.7584   12.4960   15.7275 C   0  0  1  0  0  0  0  0  0  0  0  0
   45.0991   13.7227   15.4022 O   0  0  0  0  0  0  0  0  0  0  0  0
   47.2389   12.6012   15.3657 C   0  0  2  0  0  0  0  0  0  0  0  0
   47.3536   12.8489   13.9703 O   0  0  0  0  0  0  0  0  0  0  0  0
   47.9379   11.2627   15.7289 C   0  0  2  0  0  0  0  0  0  0  0  0
   47.8040   10.9921   17.1580 O   0  0  0  0  0  0  0  0  0  0  0  0
   49.4470   11.3235   15.3860 C   0  0  0  0  0  0  0  0  0  0  0  0
   49.6437   11.4694   13.9677 O   0  0  0  0  0  0  0  0  0  0  0  0
  1  2  1  6  0  0  0
  1  3  1  0  0  0  0
  1  4  2  0  0  0  0
  1 16  1  0  0  0  0
  5  6  1  6  0  0  0
  5  7  1  0  0  0  0
  5 14  1  0  0  0  0
  7  8  1  6  0  0  0
  7  9  1  0  0  0  0
  9 10  1  1  0  0  0
  9 11  1  0  0  0  0
 11 12  1  6  0  0  0
 11 13  1  0  0  0  0
 13 14  1  0  0  0  0
 13 15  1  1  0  0  0
 15 16  1  0  0  0  0
M  CHG  1   3  -1
M  END
>  <CHROM.1>
-64.12653699,-178.16224456,-176.39319130,48.34862657,11.70513435,15.21889663
0.28408516,0.41608597,-0.76634742

>  <Name>
ligand

>  <RI>
0

>  <Rbt.Current_Directory>
/home/itssahil/PROJECTS/Mol_Feturizer/New_Systems/rnas/3B4C

>  <Rbt.Executable>
rbdock ($Id: //depot/dev/client3/rdock/2013.1/src/exe/rbdock.cxx#4 $)

>  <Rbt.Library>
libRbt.so (2013.1, Build901 2013/11/27)

>  <Rbt.Parameter_File>
/export/apps/rDock/src/rDock_2013.1_src/data/scripts/dock_solv.prm

>  <Rbt.Receptor>
prm/pocket_docking_3.prm

>  <SCORE>
-10.5848

>  <SCORE.INTER>
-9.41085

>  <SCORE.INTER.CONST>
1

>  <SCORE.INTER.POLAR>
-1.29872

>  <SCORE.INTER.ROT>
3

>  <SCORE.INTER.SOLV>
17.2863

>  <SCORE.INTER.VDW>
-13.3069

>  <SCORE.INTER.norm>
-0.588178

>  <SCORE.INTRA>
-1.17392

>  <SCORE.INTRA.DIHEDRAL>
-2.03025

>  <SCORE.INTRA.DIHEDRAL.0>
2.1318

>  <SCORE.INTRA.POLAR>
0

>  <SCORE.INTRA.POLAR.0>
0

>  <SCORE.INTRA.REPUL>
0

>  <SCORE.INTRA.REPUL.0>
0

>  <SCORE.INTRA.SOLV>
0.0125119

>  <SCORE.INTRA.SOLV.lig_0>
-58.6125

>  <SCORE.INTRA.VDW>
-0.165046

>  <SCORE.INTRA.VDW.0>
-0.432734

>  <SCORE.INTRA.norm>
-0.0733698

>  <SCORE.RESTR>
0

>  <SCORE.RESTR.CAVITY>
0

>  <SCORE.RESTR.norm>
0

>  <SCORE.SYSTEM>
0

>  <SCORE.SYSTEM.CONST>
0

>  <SCORE.SYSTEM.DIHEDRAL>
0

>  <SCORE.SYSTEM.SOLV>
0

>  <SCORE.SYSTEM.norm>
0

>  <SCORE.heavy>
16

>  <SCORE.norm>
-0.661548

>  <RMSD>
1.559

$$$$
ligand
 OpenBabel11021811463D
libRbt.so/2013.1/901 2013/11/27
 16 16  0  0  0  0  0  0  0  0999 V2000
   51.2873   11.2653   13.8336 P   0  0  2  0  0  0  0  0  0  0  0  0
   51.6771    9.8518   14.0601 O   0  0  0  0  0  0  0  0  0  0  0  0
   51.5922   11.6685   12.3061 O   0  5  0  0  0  0  0  0  0  0  0  0
   52.1571   12.2119   14.8068 O   0  0  0  0  0  0  0  0  0  0  0  0
   46.3113   10.8052   17.5733 C   0  0  2  0  0  0  0  0  0  0  0  0
   45.6685    9.7708   16.8192 O   0  0  0  0  0  0  0  0  0  0  0  0
   45.6476   12.1786   17.2956 C   0  0  2  0  0  0  0  0  0  0  0  0
   44.2149   12.1195   17.6430 N   0  0  0  0  0  0  0  0  0  0  0  0
   45.8136   12.5104   15.8031 C   0  0  1  0  0  0  0  0  0  0  0  0
   45.2274   13.7823   15.5132 O   0  0  0  0  0  0  0  0  0  0  0  0
   47.3094   12.5565   15.4960 C   0  0  2  0  0  0  0  0  0  0  0  0
   47.4857   12.8600   14.1181 O   0  0  0  0  0  0  0  0  0  0  0  0
   47.9284   11.1694   15.8199 C   0  0  2  0  0  0  0  0  0  0  0  0
   47.7307   10.8424   17.2297 O   0  0  0  0  0  0  0  0  0  0  0  0
   49.4499   11.1688   15.5307 C   0  0  0  0  0  0  0  0  0  0  0  0
   49.7065   11.4436   14.1413 O   0  0  0  0  0  0  0  0  0  0  0  0
  1  2  1  1  0  0  0
  1  3  1  0  0  0  0
  1  4  2  0  0  0  0
  1 16  1  0  0  0  0
  5  6  1  6  0  0  0
  5  7  1  0  0  0  0
  5 14  1  0  0  0  0
  7  8  1  6  0  0  0
  7  9  1  0  0  0  0
  9 10  1  1  0  0  0
  9 11  1  0  0  0  0
 11 12  1  6  0  0  0
 11 13  1  0  0  0  0
 13 14  1  0  0  0  0
 13 15  1  1  0  0  0
 15 16  1  0  0  0  0
M  CHG  1   3  -1
M  END
>  <CHROM.1>
-60.83813307,-173.40061911,63.66490921,48.37312233,11.60336200,15.33012403
-0.22894085,-0.42803296,2.42970374

>  <Name>
ligand

>  <RI>
0

>  <Rbt.Current_Directory>
/home/itssahil/PROJECTS/Mol_Feturizer/New_Systems/rnas/3B4C

>  <Rbt.Executable>
rbdock ($Id: //depot/dev/client3/rdock/2013.1/src/exe/rbdock.cxx#4 $)

>  <Rbt.Library>
libRbt.so (2013.1, Build901 2013/11/27)

>  <Rbt.Parameter_File>
/export/apps/rDock/src/rDock_2013.1_src/data/scripts/dock_solv.prm

>  <Rbt.Receptor>
prm/pocket_docking_4.prm

>  <SCORE>
-10.2422

>  <SCORE.INTER>
-8.98871

>  <SCORE.INTER.CONST>
1

>  <SCORE.INTER.POLAR>
-1.03796

>  <SCORE.INTER.ROT>
3

>  <SCORE.INTER.SOLV>
16.1054

>  <SCORE.INTER.VDW>
-13.5011

>  <SCORE.INTER.norm>
-0.561795

>  <SCORE.INTRA>
-1.25347

>  <SCORE.INTRA.DIHEDRAL>
-1.89111

>  <SCORE.INTRA.DIHEDRAL.0>
2.1318

>  <SCORE.INTRA.POLAR>
0

>  <SCORE.INTRA.POLAR.0>
0

>  <SCORE.INTRA.REPUL>
0

>  <SCORE.INTRA.REPUL.0>
0

>  <SCORE.INTRA.SOLV>
-0.625968

>  <SCORE.INTRA.SOLV.lig_0>
-58.6125

>  <SCORE.INTRA.VDW>
0.00506822

>  <SCORE.INTRA.VDW.0>
-0.432734

>  <SCORE.INTRA.norm>
-0.0783421

>  <SCORE.RESTR>
0

>  <SCORE.RESTR.CAVITY>
0

>  <SCORE.RESTR.norm>
0

>  <SCORE.SYSTEM>
0

>  <SCORE.SYSTEM.CONST>
0

>  <SCORE.SYSTEM.DIHEDRAL>
0

>  <SCORE.SYSTEM.SOLV>
0

>  <SCORE.SYSTEM.norm>
0

>  <SCORE.heavy>
16

>  <SCORE.norm>
-0.640137

>  <RMSD>
1.579

$$$$
ligand
 OpenBabel11021811463D
libRbt.so/2013.1/901 2013/11/27
 16 16  0  0  0  0  0  0  0  0999 V2000
   51.2133   11.4919   13.5512 P   0  0  2  0  0  0  0  0  0  0  0  0
   51.3764   11.4970   12.0765 O   0  0  0  0  0  0  0  0  0  0  0  0
   51.7834   12.8680   14.1596 O   0  5  0  0  0  0  0  0  0  0  0  0
   52.0527   10.2612   14.1678 O   0  0  0  0  0  0  0  0  0  0  0  0
   46.4978   10.9754   17.6170 C   0  0  2  0  0  0  0  0  0  0  0  0
   45.9334    9.7780   17.0697 O   0  0  0  0  0  0  0  0  0  0  0  0
   45.6794   12.2170   17.1781 C   0  0  2  0  0  0  0  0  0  0  0  0
   44.2792   12.0733   17.6205 N   0  0  0  0  0  0  0  0  0  0  0  0
   45.7380   12.3258   15.6451 C   0  0  1  0  0  0  0  0  0  0  0  0
   45.0069   13.4732   15.2045 O   0  0  0  0  0  0  0  0  0  0  0  0
   47.2042   12.4691   15.2404 C   0  0  2  0  0  0  0  0  0  0  0  0
   47.2815   12.5690   13.8241 O   0  0  0  0  0  0  0  0  0  0  0  0
   47.9818   11.2169   15.7299 C   0  0  2  0  0  0  0  0  0  0  0  0
   47.8872   11.0968   17.1825 O   0  0  0  0  0  0  0  0  0  0  0  0
   49.4792   11.3197   15.3481 C   0  0  0  0  0  0  0  0  0  0  0  0
   49.6422   11.3409   13.9183 O   0  0  0  0  0  0  0  0  0  0  0  0
  1  2  1  6  0  0  0
  1  3  1  0  0  0  0
  1  4  2  0  0  0  0
  1 16  1  0  0  0  0
  5  6  1  6  0  0  0
  5  7  1  0  0  0  0
  5 14  1  0  0  0  0
  7  8  1  6  0  0  0
  7  9  1  0  0  0  0
  9 10  1  1  0  0  0
  9 11  1  0  0  0  0
 11 12  1  6  0  0  0
 11 13  1  0  0  0  0
 13 14  1  0  0  0  0
 13 15  1  1  0  0  0
 15 16  1  0  0  0  0
M  CHG  1   3  -1
M  END
>  <CHROM.1>
-63.24825350,178.37535388,179.33684964,48.35606910,11.66492967,15.16588876
0.35241179,0.37770964,-0.89219337

>  <Name>
ligand

>  <RI>
0

>  <Rbt.Current_Directory>
/home/itssahil/PROJECTS/Mol_Feturizer/New_Systems/rnas/3B4C

>  <Rbt.Executable>
rbdock ($Id: //depot/dev/client3/rdock/2013.1/src/exe/rbdock.cxx#4 $)

>  <Rbt.Library>
libRbt.so (2013.1, Build901 2013/11/27)

>  <Rbt.Parameter_File>
/export/apps/rDock/src/rDock_2013.1_src/data/scripts/dock_solv.prm

>  <Rbt.Receptor>
prm/pocket_docking_5.prm

>  <SCORE>
-10.6564

>  <SCORE.INTER>
-9.45761

>  <SCORE.INTER.CONST>
1

>  <SCORE.INTER.POLAR>
-1.29904

>  <SCORE.INTER.ROT>
3

>  <SCORE.INTER.SOLV>
16.9334

>  <SCORE.INTER.VDW>
-13.2194

>  <SCORE.INTER.norm>
-0.591101

>  <SCORE.INTRA>
-1.19876

>  <SCORE.INTRA.DIHEDRAL>
-2.07874

>  <SCORE.INTRA.DIHEDRAL.0>
2.1318

>  <SCORE.INTRA.POLAR>
0

>  <SCORE.INTRA.POLAR.0>
0

>  <SCORE.INTRA.REPUL>
0

>  <SCORE.INTRA.REPUL.0>
0

>  <SCORE.INTRA.SOLV>
0.0538711

>  <SCORE.INTRA.SOLV.lig_0>
-58.6125

>  <SCORE.INTRA.VDW>
-0.186326

>  <SCORE.INTRA.VDW.0>
-0.432734

>  <SCORE.INTRA.norm>
-0.0749224

>  <SCORE.RESTR>
0

>  <SCORE.RESTR.CAVITY>
0

>  <SCORE.RESTR.norm>
0

>  <SCORE.SYSTEM>
0

>  <SCORE.SYSTEM.CONST>
0

>  <SCORE.SYSTEM.DIHEDRAL>
0

>  <SCORE.SYSTEM.SOLV>
0

>  <SCORE.SYSTEM.norm>
0

>  <SCORE.heavy>
16

>  <SCORE.norm>
-0.666023

>  <RMSD>
1.587

$$$$
ligand
 OpenBabel11021811463D
libRbt.so/2013.1/901 2013/11/27
 16 16  0  0  0  0  0  0  0  0999 V2000
   51.1616   11.4008   13.4712 P   0  0  2  0  0  0  0  0  0  0  0  0
   51.3161   11.2450   12.0038 O   0  0  0  0  0  0  0  0  0  0  0  0
   51.7126   12.8446   13.9190 O   0  5  0  0  0  0  0  0  0  0  0  0
   52.0246   10.2594   14.2140 O   0  0  0  0  0  0  0  0  0  0  0  0
   46.5044   10.9845   17.6108 C   0  0  2  0  0  0  0  0  0  0  0  0
   45.9388    9.7824   17.0752 O   0  0  0  0  0  0  0  0  0  0  0  0
   45.6716   12.2200   17.1820 C   0  0  2  0  0  0  0  0  0  0  0  0
   44.2795   12.0689   17.6468 N   0  0  0  0  0  0  0  0  0  0  0  0
   45.7053   12.3255   15.6480 C   0  0  1  0  0  0  0  0  0  0  0  0
   44.9603   13.4674   15.2165 O   0  0  0  0  0  0  0  0  0  0  0  0
   47.1640   12.4768   15.2199 C   0  0  2  0  0  0  0  0  0  0  0  0
   47.2183   12.5739   13.8024 O   0  0  0  0  0  0  0  0  0  0  0  0
   47.9569   11.2306   15.6999 C   0  0  2  0  0  0  0  0  0  0  0  0
   47.8860   11.1134   17.1540 O   0  0  0  0  0  0  0  0  0  0  0  0
   49.4475   11.3416   15.2943 C   0  0  0  0  0  0  0  0  0  0  0  0
   49.5954   11.2670   13.8646 O   0  0  0  0  0  0  0  0  0  0  0  0
  1  2  1  6  0  0  0
  1  3  1  0  0  0  0
  1  4  2  0  0  0  0
  1 16  1  0  0  0  0
  5  6  1  6  0  0  0
  5  7  1  0  0  0  0
  5 14  1  0  0  0  0
  7  8  1  6  0  0  0
  7  9  1  0  0  0  0
  9 10  1  1  0  0  0
  9 11  1  0  0  0  0
 11 12  1  6  0  0  0
 11 13  1  0  0  0  0
 13 14  1  0  0  0  0
 13 15  1  1  0  0  0
 15 16  1  0  0  0  0
M  CHG  1   3  -1
M  END
>  <CHROM.1>
-67.24560036,179.43357521,176.76431076,48.32308031,11.63542913,15.12950008
0.35658156,0.39458311,-0.90558409

>  <Name>
ligand

>  <RI>
0

>  <Rbt.Current_Directory>
/home/itssahil/PROJECTS/Mol_Feturizer/New_Systems/rnas/3B4C

>  <Rbt.Executable>
rbdock ($Id: //depot/dev/client3/rdock/2013.1/src/exe/rbdock.cxx#4 $)

>  <Rbt.Library>
libRbt.so (2013.1, Build901 2013/11/27)

>  <Rbt.Parameter_File>
/export/apps/rDock/src/rDock_2013.1_src/data/scripts/dock_solv.prm

>  <Rbt.Receptor>
prm/pocket_docking_7.prm

>  <SCORE>
-10.6233

>  <SCORE.INTER>
-9.40387

>  <SCORE.INTER.CONST>
1

>  <SCORE.INTER.POLAR>
-1.29904

>  <SCORE.INTER.ROT>
3

>  <SCORE.INTER.SOLV>
16.6711

>  <SCORE.INTER.VDW>
-13.0961

>  <SCORE.INTER.norm>
-0.587742

>  <SCORE.INTRA>
-1.21947

>  <SCORE.INTRA.DIHEDRAL>
-1.92626

>  <SCORE.INTRA.DIHEDRAL.0>
2.1318

>  <SCORE.INTRA.POLAR>
0

>  <SCORE.INTRA.POLAR.0>
0

>  <SCORE.INTRA.REPUL>
0

>  <SCORE.INTRA.REPUL.0>
0

>  <SCORE.INTRA.SOLV>
0.00735419

>  <SCORE.INTRA.SOLV.lig_0>
-58.6125

>  <SCORE.INTRA.VDW>
-0.260016

>  <SCORE.INTRA.VDW.0>
-0.432734

>  <SCORE.INTRA.norm>
-0.0762167

>  <SCORE.RESTR>
0

>  <SCORE.RESTR.CAVITY>
0

>  <SCORE.RESTR.norm>
0

>  <SCORE.SYSTEM>
0

>  <SCORE.SYSTEM.CONST>
0

>  <SCORE.SYSTEM.DIHEDRAL>
0

>  <SCORE.SYSTEM.SOLV>
0

>  <SCORE.SYSTEM.norm>
0

>  <SCORE.heavy>
16

>  <SCORE.norm>
-0.663959

>  <RMSD>
1.636

$$$$
ligand
 OpenBabel11021811463D
libRbt.so/2013.1/901 2013/11/27
 16 16  0  0  0  0  0  0  0  0999 V2000
   52.7989   11.3848   16.6834 P   0  0  2  0  0  0  0  0  0  0  0  0
   53.4812   11.1180   17.9736 O   0  0  0  0  0  0  0  0  0  0  0  0
   53.6566   10.7478   15.4803 O   0  5  0  0  0  0  0  0  0  0  0  0
   52.6958   12.9788   16.4640 O   0  0  0  0  0  0  0  0  0  0  0  0
   47.1342   10.7550   16.9489 C   0  0  2  0  0  0  0  0  0  0  0  0
   47.0898    9.3304   17.0915 O   0  0  0  0  0  0  0  0  0  0  0  0
   46.2929   11.2097   15.7284 C   0  0  2  0  0  0  0  0  0  0  0  0
   44.8960   10.7641   15.8916 N   0  0  0  0  0  0  0  0  0  0  0  0
   46.8978   10.5893   14.4577 C   0  0  1  0  0  0  0  0  0  0  0  0
   46.1562   11.0026   13.3068 O   0  0  0  0  0  0  0  0  0  0  0  0
   48.3402   11.0781   14.3374 C   0  0  2  0  0  0  0  0  0  0  0  0
   48.9199   10.5135   13.1683 O   0  0  0  0  0  0  0  0  0  0  0  0
   49.1279   10.6233   15.5963 C   0  0  2  0  0  0  0  0  0  0  0  0
   48.5233   11.1826   16.8025 O   0  0  0  0  0  0  0  0  0  0  0  0
   50.5987   11.1032   15.5236 C   0  0  0  0  0  0  0  0  0  0  0  0
   51.3196   10.7240   16.7102 O   0  0  0  0  0  0  0  0  0  0  0  0
  1  2  1  1  0  0  0
  1  3  1  0  0  0  0
  1  4  2  0  0  0  0
  1 16  1  0  0  0  0
  5  6  1  6  0  0  0
  5  7  1  0  0  0  0
  5 14  1  0  0  0  0
  7  8  1  1  0  0  0
  7  9  1  0  0  0  0
  9 10  1  6  0  0  0
  9 11  1  0  0  0  0
 11 12  1  6  0  0  0
 11 13  1  0  0  0  0
 13 14  1  0  0  0  0
 13 15  1  6  0  0  0
 15 16  1  0  0  0  0
M  CHG  1   3  -1
M  END
>  <CHROM.1>
177.97585628,-173.46225254,173.70973310,49.58014856,10.97592670,15.83641632
0.21757468,0.12965392,1.64656951

>  <Name>
ligand

>  <RI>
0

>  <Rbt.Current_Directory>
/home/itssahil/PROJECTS/Mol_Feturizer/New_Systems/rnas/3B4C

>  <Rbt.Executable>
rbdock ($Id: //depot/dev/client3/rdock/2013.1/src/exe/rbdock.cxx#4 $)

>  <Rbt.Library>
libRbt.so (2013.1, Build901 2013/11/27)

>  <Rbt.Parameter_File>
/export/apps/rDock/src/rDock_2013.1_src/data/scripts/dock_solv.prm

>  <Rbt.Receptor>
prm/pocket_docking_5.prm

>  <SCORE>
-9.6414

>  <SCORE.INTER>
-8.31871

>  <SCORE.INTER.CONST>
1

>  <SCORE.INTER.POLAR>
-1.29878

>  <SCORE.INTER.ROT>
3

>  <SCORE.INTER.SOLV>
18.1898

>  <SCORE.INTER.VDW>
-12.8798

>  <SCORE.INTER.norm>
-0.519919

>  <SCORE.INTRA>
-1.32269

>  <SCORE.INTRA.DIHEDRAL>
-1.84358

>  <SCORE.INTRA.DIHEDRAL.0>
2.1318

>  <SCORE.INTRA.POLAR>
0

>  <SCORE.INTRA.POLAR.0>
0

>  <SCORE.INTRA.REPUL>
0

>  <SCORE.INTRA.REPUL.0>
0

>  <SCORE.INTRA.SOLV>
-0.337678

>  <SCORE.INTRA.SOLV.lig_0>
-58.6125

>  <SCORE.INTRA.VDW>
-0.232058

>  <SCORE.INTRA.VDW.0>
-0.432734

>  <SCORE.INTRA.norm>
-0.0826681

>  <SCORE.RESTR>
0

>  <SCORE.RESTR.CAVITY>
0

>  <SCORE.RESTR.norm>
0

>  <SCORE.SYSTEM>
0

>  <SCORE.SYSTEM.CONST>
0

>  <SCORE.SYSTEM.DIHEDRAL>
0

>  <SCORE.SYSTEM.SOLV>
0

>  <SCORE.SYSTEM.norm>
0

>  <SCORE.heavy>
16

>  <SCORE.norm>
-0.602587

>  <RMSD>
1.637

$$$$
ligand
 OpenBabel11021811463D
libRbt.so/2013.1/901 2013/11/27
 16 16  0  0  0  0  0  0  0  0999 V2000
   51.3856   11.5979   14.3005 P   0  0  2  0  0  0  0  0  0  0  0  0
   52.0168   12.2964   15.4473 O   0  0  0  0  0  0  0  0  0  0  0  0
   52.2362   10.2807   13.9396 O   0  5  0  0  0  0  0  0  0  0  0  0
   51.3816   12.5827   13.0239 O   0  0  0  0  0  0  0  0  0  0  0  0
   46.3778   11.1158   17.0961 C   0  0  2  0  0  0  0  0  0  0  0  0
   45.8466   10.0531   16.2958 O   0  0  0  0  0  0  0  0  0  0  0  0
   45.4222   12.3367   17.0895 C   0  0  2  0  0  0  0  0  0  0  0  0
   44.0975   11.9360   17.6010 N   0  0  0  0  0  0  0  0  0  0  0  0
   45.2948   12.8517   15.6460 C   0  0  1  0  0  0  0  0  0  0  0  0
   44.4326   13.9919   15.6041 O   0  0  0  0  0  0  0  0  0  0  0  0
   46.6892   13.2490   15.1646 C   0  0  2  0  0  0  0  0  0  0  0  0
   46.5945   13.7266   13.8287 O   0  0  0  0  0  0  0  0  0  0  0  0
   47.6111   12.0003   15.2203 C   0  0  2  0  0  0  0  0  0  0  0  0
   47.6944   11.4920   16.5871 O   0  0  0  0  0  0  0  0  0  0  0  0
   49.0422   12.3559   14.7470 C   0  0  0  0  0  0  0  0  0  0  0  0
   49.8701   11.1798   14.6931 O   0  0  0  0  0  0  0  0  0  0  0  0
  1  2  1  1  0  0  0
  1  3  1  0  0  0  0
  1  4  2  0  0  0  0
  1 16  1  0  0  0  0
  5  6  1  6  0  0  0
  5  7  1  0  0  0  0
  5 14  1  0  0  0  0
  7  8  1  6  0  0  0
  7  9  1  0  0  0  0
  9 10  1  1  0  0  0
  9 11  1  0  0  0  0
 11 12  1  6  0  0  0
 11 13  1  0  0  0  0
 13 14  1  0  0  0  0
 13 15  1  1  0  0  0
 15 16  1  0  0  0  0
M  CHG  1   3  -1
M  END
>  <CHROM.1>
-175.29997910,-175.88709752,71.58536518,48.19818283,12.02188797,15.27705445
-0.10685536,-0.32840073,2.45958648

>  <Name>
ligand

>  <RI>
0

>  <Rbt.Current_Directory>
/home/itssahil/PROJECTS/Mol_Feturizer/New_Systems/rnas/3B4C

>  <Rbt.Executable>
rbdock ($Id: //depot/dev/client3/rdock/2013.1/src/exe/rbdock.cxx#4 $)

>  <Rbt.Library>
libRbt.so (2013.1, Build901 2013/11/27)

>  <Rbt.Parameter_File>
/export/apps/rDock/src/rDock_2013.1_src/data/scripts/dock_solv.prm

>  <Rbt.Receptor>
prm/pocket_docking_7.prm

>  <SCORE>
-10.6529

>  <SCORE.INTER>
-9.18742

>  <SCORE.INTER.CONST>
1

>  <SCORE.INTER.POLAR>
-1.29904

>  <SCORE.INTER.ROT>
3

>  <SCORE.INTER.SOLV>
15.3416

>  <SCORE.INTER.VDW>
-12.5087

>  <SCORE.INTER.norm>
-0.574214

>  <SCORE.INTRA>
-1.46544

>  <SCORE.INTRA.DIHEDRAL>
-1.7478

>  <SCORE.INTRA.DIHEDRAL.0>
2.1318

>  <SCORE.INTRA.POLAR>
0

>  <SCORE.INTRA.POLAR.0>
0

>  <SCORE.INTRA.REPUL>
0

>  <SCORE.INTRA.REPUL.0>
0

>  <SCORE.INTRA.SOLV>
-0.916159

>  <SCORE.INTRA.SOLV.lig_0>
-58.6125

>  <SCORE.INTRA.VDW>
-0.133461

>  <SCORE.INTRA.VDW.0>
-0.432734

>  <SCORE.INTRA.norm>
-0.0915901

>  <SCORE.RESTR>
0

>  <SCORE.RESTR.CAVITY>
0

>  <SCORE.RESTR.norm>
0

>  <SCORE.SYSTEM>
0

>  <SCORE.SYSTEM.CONST>
0

>  <SCORE.SYSTEM.DIHEDRAL>
0

>  <SCORE.SYSTEM.SOLV>
0

>  <SCORE.SYSTEM.norm>
0

>  <SCORE.heavy>
16

>  <SCORE.norm>
-0.665804

>  <RMSD>
1.671

$$$$
ligand
 OpenBabel11021811463D
libRbt.so/2013.1/901 2013/11/27
 16 16  0  0  0  0  0  0  0  0999 V2000
   51.2673   11.2936   13.9060 P   0  0  2  0  0  0  0  0  0  0  0  0
   51.0750   12.0274   12.6309 O   0  0  0  0  0  0  0  0  0  0  0  0
   52.1369   12.1932   14.9176 O   0  5  0  0  0  0  0  0  0  0  0  0
   52.0645    9.9242   13.6084 O   0  0  0  0  0  0  0  0  0  0  0  0
   46.4055   11.1557   17.1662 C   0  0  2  0  0  0  0  0  0  0  0  0
   45.8366   10.0708   16.4238 O   0  0  0  0  0  0  0  0  0  0  0  0
   45.4866   12.4030   17.1044 C   0  0  2  0  0  0  0  0  0  0  0  0
   44.1547   12.0685   17.6440 N   0  0  0  0  0  0  0  0  0  0  0  0
   45.3631   12.8487   15.6376 C   0  0  1  0  0  0  0  0  0  0  0  0
   44.5348   14.0108   15.5441 O   0  0  0  0  0  0  0  0  0  0  0  0
   46.7648   13.1792   15.1279 C   0  0  2  0  0  0  0  0  0  0  0  0
   46.6737   13.5920   13.7703 O   0  0  0  0  0  0  0  0  0  0  0  0
   47.6495   11.9077   15.2404 C   0  0  2  0  0  0  0  0  0  0  0  0
   47.7286   11.4662   16.6304 O   0  0  0  0  0  0  0  0  0  0  0  0
   49.0868   12.1960   14.7405 C   0  0  0  0  0  0  0  0  0  0  0  0
   49.8223   10.9714   14.5646 O   0  0  0  0  0  0  0  0  0  0  0  0
  1  2  1  6  0  0  0
  1  3  1  0  0  0  0
  1  4  2  0  0  0  0
  1 16  1  0  0  0  0
  5  6  1  6  0  0  0
  5  7  1  0  0  0  0
  5 14  1  0  0  0  0
  7  8  1  6  0  0  0
  7  9  1  0  0  0  0
  9 10  1  1  0  0  0
  9 11  1  0  0  0  0
 11 12  1  6  0  0  0
 11 13  1  0  0  0  0
 13 14  1  0  0  0  0
 13 15  1  1  0  0  0
 15 16  1  0  0  0  0
M  CHG  1   3  -1
M  END
>  <CHROM.1>
-167.36886310,174.51308688,-56.23885327,48.19076003,11.89440731,15.14931646
-0.12137398,-0.40715347,2.42315672

>  <Name>
ligand

>  <RI>
0

>  <Rbt.Current_Directory>
/home/itssahil/PROJECTS/Mol_Feturizer/New_Systems/rnas/3B4C

>  <Rbt.Executable>
rbdock ($Id: //depot/dev/client3/rdock/2013.1/src/exe/rbdock.cxx#4 $)

>  <Rbt.Library>
libRbt.so (2013.1, Build901 2013/11/27)

>  <Rbt.Parameter_File>
/export/apps/rDock/src/rDock_2013.1_src/data/scripts/dock_solv.prm

>  <Rbt.Receptor>
prm/pocket_docking_7.prm

>  <SCORE>
-10.0704

>  <SCORE.INTER>
-8.71234

>  <SCORE.INTER.CONST>
1

>  <SCORE.INTER.POLAR>
-1.29873

>  <SCORE.INTER.ROT>
3

>  <SCORE.INTER.SOLV>
15.8794

>  <SCORE.INTER.VDW>
-12.3723

>  <SCORE.INTER.norm>
-0.544521

>  <SCORE.INTRA>
-1.35807

>  <SCORE.INTRA.DIHEDRAL>
-1.39743

>  <SCORE.INTRA.DIHEDRAL.0>
2.1318

>  <SCORE.INTRA.POLAR>
0

>  <SCORE.INTRA.POLAR.0>
0

>  <SCORE.INTRA.REPUL>
0

>  <SCORE.INTRA.REPUL.0>
0

>  <SCORE.INTRA.SOLV>
-1.13276

>  <SCORE.INTRA.SOLV.lig_0>
-58.6125

>  <SCORE.INTRA.VDW>
-0.092978

>  <SCORE.INTRA.VDW.0>
-0.432734

>  <SCORE.INTRA.norm>
-0.0848793

>  <SCORE.RESTR>
0

>  <SCORE.RESTR.CAVITY>
0

>  <SCORE.RESTR.norm>
0

>  <SCORE.SYSTEM>
0

>  <SCORE.SYSTEM.CONST>
0

>  <SCORE.SYSTEM.DIHEDRAL>
0

>  <SCORE.SYSTEM.SOLV>
0

>  <SCORE.SYSTEM.norm>
0

>  <SCORE.heavy>
16

>  <SCORE.norm>
-0.629401

>  <RMSD>
1.704

$$$$
ligand
 OpenBabel11021811463D
libRbt.so/2013.1/901 2013/11/27
 16 16  0  0  0  0  0  0  0  0999 V2000
   51.2236   11.1868   13.8907 P   0  0  2  0  0  0  0  0  0  0  0  0
   51.0658   11.9713   12.6413 O   0  0  0  0  0  0  0  0  0  0  0  0
   52.0892   12.0330   14.9507 O   0  5  0  0  0  0  0  0  0  0  0  0
   52.0041    9.8165   13.5550 O   0  0  0  0  0  0  0  0  0  0  0  0
   46.3096   10.9068   17.0289 C   0  0  2  0  0  0  0  0  0  0  0  0
   45.7023    9.9357   16.1687 O   0  0  0  0  0  0  0  0  0  0  0  0
   45.4440   12.1911   17.1022 C   0  0  2  0  0  0  0  0  0  0  0  0
   44.0948   11.8557   17.5962 N   0  0  0  0  0  0  0  0  0  0  0  0
   45.3516   12.8010   15.6933 C   0  0  1  0  0  0  0  0  0  0  0  0
   44.5732   14.0003   15.7260 O   0  0  0  0  0  0  0  0  0  0  0  0
   46.7701   13.1261   15.2286 C   0  0  2  0  0  0  0  0  0  0  0  0
   46.7077   13.6900   13.9248 O   0  0  0  0  0  0  0  0  0  0  0  0
   47.6001   11.8137   15.2029 C   0  0  2  0  0  0  0  0  0  0  0  0
   47.6490   11.2183   16.5357 O   0  0  0  0  0  0  0  0  0  0  0  0
   49.0523   12.0943   14.7434 C   0  0  0  0  0  0  0  0  0  0  0  0
   49.7621   10.8639   14.5116 O   0  0  0  0  0  0  0  0  0  0  0  0
  1  2  1  6  0  0  0
  1  3  1  0  0  0  0
  1  4  2  0  0  0  0
  1 16  1  0  0  0  0
  5  6  1  6  0  0  0
  5  7  1  0  0  0  0
  5 14  1  0  0  0  0
  7  8  1  6  0  0  0
  7  9  1  0  0  0  0
  9 10  1  1  0  0  0
  9 11  1  0  0  0  0
 11 12  1  6  0  0  0
 11 13  1  0  0  0  0
 13 14  1  0  0  0  0
 13 15  1  1  0  0  0
 15 16  1  0  0  0  0
M  CHG  1   3  -1
M  END
>  <CHROM.1>
-170.76446494,174.31212025,-57.25827821,48.14985245,11.78378522,15.13904273
-0.07216077,-0.41905244,2.55115203

>  <Name>
ligand

>  <RI>
0

>  <Rbt.Current_Directory>
/home/itssahil/PROJECTS/Mol_Feturizer/New_Systems/rnas/3B4C

>  <Rbt.Executable>
rbdock ($Id: //depot/dev/client3/rdock/2013.1/src/exe/rbdock.cxx#4 $)

>  <Rbt.Library>
libRbt.so (2013.1, Build901 2013/11/27)

>  <Rbt.Parameter_File>
/export/apps/rDock/src/rDock_2013.1_src/data/scripts/dock_solv.prm

>  <Rbt.Receptor>
prm/pocket_docking_5.prm

>  <SCORE>
-10.0118

>  <SCORE.INTER>
-8.52814

>  <SCORE.INTER.CONST>
1

>  <SCORE.INTER.POLAR>
-1.29893

>  <SCORE.INTER.ROT>
3

>  <SCORE.INTER.SOLV>
15.7588

>  <SCORE.INTER.VDW>
-12.2086

>  <SCORE.INTER.norm>
-0.533009

>  <SCORE.INTRA>
-1.48363

>  <SCORE.INTRA.DIHEDRAL>
-1.65228

>  <SCORE.INTRA.DIHEDRAL.0>
2.1318

>  <SCORE.INTRA.POLAR>
0

>  <SCORE.INTRA.POLAR.0>
0

>  <SCORE.INTRA.REPUL>
0

>  <SCORE.INTRA.REPUL.0>
0

>  <SCORE.INTRA.SOLV>
-1.11287

>  <SCORE.INTRA.SOLV.lig_0>
-58.6125

>  <SCORE.INTRA.VDW>
-0.101049

>  <SCORE.INTRA.VDW.0>
-0.432734

>  <SCORE.INTRA.norm>
-0.0927267

>  <SCORE.RESTR>
0

>  <SCORE.RESTR.CAVITY>
0

>  <SCORE.RESTR.norm>
0

>  <SCORE.SYSTEM>
0

>  <SCORE.SYSTEM.CONST>
0

>  <SCORE.SYSTEM.DIHEDRAL>
0

>  <SCORE.SYSTEM.SOLV>
0

>  <SCORE.SYSTEM.norm>
0

>  <SCORE.heavy>
16

>  <SCORE.norm>
-0.625735

>  <RMSD>
1.719

$$$$
ligand
 OpenBabel11021811463D
libRbt.so/2013.1/901 2013/11/27
 16 16  0  0  0  0  0  0  0  0999 V2000
   51.2716   11.1673   14.2143 P   0  0  2  0  0  0  0  0  0  0  0  0
   52.0034   11.6127   15.4257 O   0  0  0  0  0  0  0  0  0  0  0  0
   51.9684    9.8434   13.6222 O   0  5  0  0  0  0  0  0  0  0  0  0
   51.3377   12.3335   13.1028 O   0  0  0  0  0  0  0  0  0  0  0  0
   46.2064   10.8478   17.0961 C   0  0  2  0  0  0  0  0  0  0  0  0
   45.6280    9.9094   16.1814 O   0  0  0  0  0  0  0  0  0  0  0  0
   45.3524   12.1398   17.1684 C   0  0  2  0  0  0  0  0  0  0  0  0
   43.9788   11.8068   17.5914 N   0  0  0  0  0  0  0  0  0  0  0  0
   45.3303   12.7914   15.7754 C   0  0  1  0  0  0  0  0  0  0  0  0
   44.5645   13.9986   15.8085 O   0  0  0  0  0  0  0  0  0  0  0  0
   46.7719   13.1125   15.3845 C   0  0  2  0  0  0  0  0  0  0  0  0
   46.7746   13.7145   14.0963 O   0  0  0  0  0  0  0  0  0  0  0  0
   47.5878   11.7913   15.3573 C   0  0  2  0  0  0  0  0  0  0  0  0
   47.5700   11.1570   16.6729 O   0  0  0  0  0  0  0  0  0  0  0  0
   49.0622   12.0674   14.9719 C   0  0  0  0  0  0  0  0  0  0  0  0
   49.7314   10.8476   14.6031 O   0  0  0  0  0  0  0  0  0  0  0  0
  1  2  1  1  0  0  0
  1  3  1  0  0  0  0
  1  4  2  0  0  0  0
  1 16  1  0  0  0  0
  5  6  1  6  0  0  0
  5  7  1  0  0  0  0
  5 14  1  0  0  0  0
  7  8  1  6  0  0  0
  7  9  1  0  0  0  0
  9 10  1  1  0  0  0
  9 11  1  0  0  0  0
 11 12  1  6  0  0  0
 11 13  1  0  0  0  0
 13 14  1  0  0  0  0
 13 15  1  1  0  0  0
 15 16  1  0  0  0  0
M  CHG  1   3  -1
M  END
>  <CHROM.1>
-164.86573867,-179.66666478,67.07724336,48.13972661,11.76202708,15.31354396
-0.04055171,-0.38799683,2.59143161

>  <Name>
ligand

>  <RI>
0

>  <Rbt.Current_Directory>
/home/itssahil/PROJECTS/Mol_Feturizer/New_Systems/rnas/3B4C

>  <Rbt.Executable>
rbdock ($Id: //depot/dev/client3/rdock/2013.1/src/exe/rbdock.cxx#4 $)

>  <Rbt.Library>
libRbt.so (2013.1, Build901 2013/11/27)

>  <Rbt.Parameter_File>
/export/apps/rDock/src/rDock_2013.1_src/data/scripts/dock_solv.prm

>  <Rbt.Receptor>
prm/pocket_docking_7.prm

>  <SCORE>
-10.3361

>  <SCORE.INTER>
-9.06286

>  <SCORE.INTER.CONST>
1

>  <SCORE.INTER.POLAR>
-1.29904

>  <SCORE.INTER.ROT>
3

>  <SCORE.INTER.SOLV>
16.3062

>  <SCORE.INTER.VDW>
-12.7472

>  <SCORE.INTER.norm>
-0.566429

>  <SCORE.INTRA>
-1.27323

>  <SCORE.INTRA.DIHEDRAL>
-1.25506

>  <SCORE.INTRA.DIHEDRAL.0>
2.1318

>  <SCORE.INTRA.POLAR>
0

>  <SCORE.INTRA.POLAR.0>
0

>  <SCORE.INTRA.REPUL>
0

>  <SCORE.INTRA.REPUL.0>
0

>  <SCORE.INTRA.SOLV>
-0.999214

>  <SCORE.INTRA.SOLV.lig_0>
-58.6125

>  <SCORE.INTRA.VDW>
-0.146094

>  <SCORE.INTRA.VDW.0>
-0.432734

>  <SCORE.INTRA.norm>
-0.0795768

>  <SCORE.RESTR>
0

>  <SCORE.RESTR.CAVITY>
0

>  <SCORE.RESTR.norm>
0

>  <SCORE.SYSTEM>
0

>  <SCORE.SYSTEM.CONST>
0

>  <SCORE.SYSTEM.DIHEDRAL>
0

>  <SCORE.SYSTEM.SOLV>
0

>  <SCORE.SYSTEM.norm>
0

>  <SCORE.heavy>
16

>  <SCORE.norm>
-0.646006

>  <RMSD>
1.730

$$$$
ligand
 OpenBabel11021811463D
libRbt.so/2013.1/901 2013/11/27
 16 16  0  0  0  0  0  0  0  0999 V2000
   51.1279   11.1764   13.8779 P   0  0  2  0  0  0  0  0  0  0  0  0
   50.8466   11.8211   12.5715 O   0  0  0  0  0  0  0  0  0  0  0  0
   52.0452   12.1506   14.7713 O   0  5  0  0  0  0  0  0  0  0  0  0
   51.9250    9.7984   13.6222 O   0  0  0  0  0  0  0  0  0  0  0  0
   46.3757   11.1799   17.3175 C   0  0  2  0  0  0  0  0  0  0  0  0
   45.8089   10.0403   16.6605 O   0  0  0  0  0  0  0  0  0  0  0  0
   45.4333   12.4054   17.1989 C   0  0  2  0  0  0  0  0  0  0  0  0
   44.1208   12.0846   17.7917 N   0  0  0  0  0  0  0  0  0  0  0  0
   45.2669   12.7536   15.7101 C   0  0  1  0  0  0  0  0  0  0  0  0
   44.4159   13.8935   15.5631 O   0  0  0  0  0  0  0  0  0  0  0  0
   46.6500   13.0736   15.1456 C   0  0  2  0  0  0  0  0  0  0  0  0
   46.5192   13.3965   13.7670 O   0  0  0  0  0  0  0  0  0  0  0  0
   47.5598   11.8266   15.3171 C   0  0  2  0  0  0  0  0  0  0  0  0
   47.6799   11.4769   16.7302 O   0  0  0  0  0  0  0  0  0  0  0  0
   48.9794   12.1056   14.7642 C   0  0  0  0  0  0  0  0  0  0  0  0
   49.7312   10.8841   14.6456 O   0  0  0  0  0  0  0  0  0  0  0  0
  1  2  1  6  0  0  0
  1  3  1  0  0  0  0
  1  4  2  0  0  0  0
  1 16  1  0  0  0  0
  5  6  1  6  0  0  0
  5  7  1  0  0  0  0
  5 14  1  0  0  0  0
  7  8  1  6  0  0  0
  7  9  1  0  0  0  0
  9 10  1  1  0  0  0
  9 11  1  0  0  0  0
 11 12  1  6  0  0  0
 11 13  1  0  0  0  0
 13 14  1  0  0  0  0
 13 15  1  1  0  0  0
 15 16  1  0  0  0  0
M  CHG  1   3  -1
M  END
>  <CHROM.1>
-167.21953079,172.22184617,-55.20542032,48.08880037,11.81226285,15.19202511
-0.15928064,-0.42171365,2.34632944

>  <Name>
ligand

>  <RI>
0

>  <Rbt.Current_Directory>
/home/itssahil/PROJECTS/Mol_Feturizer/New_Systems/rnas/3B4C

>  <Rbt.Executable>
rbdock ($Id: //depot/dev/client3/rdock/2013.1/src/exe/rbdock.cxx#4 $)

>  <Rbt.Library>
libRbt.so (2013.1, Build901 2013/11/27)

>  <Rbt.Parameter_File>
/export/apps/rDock/src/rDock_2013.1_src/data/scripts/dock_solv.prm

>  <Rbt.Receptor>
prm/pocket_docking_3.prm

>  <SCORE>
-10.2212

>  <SCORE.INTER>
-8.94935

>  <SCORE.INTER.CONST>
1

>  <SCORE.INTER.POLAR>
-1.29904

>  <SCORE.INTER.ROT>
3

>  <SCORE.INTER.SOLV>
16.5119

>  <SCORE.INTER.VDW>
-12.7401

>  <SCORE.INTER.norm>
-0.559334

>  <SCORE.INTRA>
-1.27181

>  <SCORE.INTRA.DIHEDRAL>
-1.22304

>  <SCORE.INTRA.DIHEDRAL.0>
2.1318

>  <SCORE.INTRA.POLAR>
0

>  <SCORE.INTRA.POLAR.0>
0

>  <SCORE.INTRA.REPUL>
0

>  <SCORE.INTRA.REPUL.0>
0

>  <SCORE.INTRA.SOLV>
-1.15783

>  <SCORE.INTRA.SOLV.lig_0>
-58.6125

>  <SCORE.INTRA.VDW>
-0.0813691

>  <SCORE.INTRA.VDW.0>
-0.432734

>  <SCORE.INTRA.norm>
-0.0794878

>  <SCORE.RESTR>
0

>  <SCORE.RESTR.CAVITY>
0

>  <SCORE.RESTR.norm>
0

>  <SCORE.SYSTEM>
0

>  <SCORE.SYSTEM.CONST>
0

>  <SCORE.SYSTEM.DIHEDRAL>
0

>  <SCORE.SYSTEM.SOLV>
0

>  <SCORE.SYSTEM.norm>
0

>  <SCORE.heavy>
16

>  <SCORE.norm>
-0.638822

>  <RMSD>
1.756

$$$$
ligand
 OpenBabel11021811463D
libRbt.so/2013.1/901 2013/11/27
 16 16  0  0  0  0  0  0  0  0999 V2000
   51.1541   11.3265   14.3678 P   0  0  2  0  0  0  0  0  0  0  0  0
   51.8337   11.8646   15.5719 O   0  0  0  0  0  0  0  0  0  0  0  0
   51.8935    9.9795   13.8905 O   0  5  0  0  0  0  0  0  0  0  0  0
   51.2418   12.4175   13.1839 O   0  0  0  0  0  0  0  0  0  0  0  0
   46.1588   11.1178   17.2326 C   0  0  2  0  0  0  0  0  0  0  0  0
   45.5545   10.1101   16.4133 O   0  0  0  0  0  0  0  0  0  0  0  0
   45.2840   12.3976   17.2612 C   0  0  2  0  0  0  0  0  0  0  0  0
   43.9398   12.0716   17.7746 N   0  0  0  0  0  0  0  0  0  0  0  0
   45.1803   12.9525   15.8305 C   0  0  1  0  0  0  0  0  0  0  0  0
   44.3933   14.1466   15.8213 O   0  0  0  0  0  0  0  0  0  0  0  0
   46.5941   13.2699   15.3466 C   0  0  2  0  0  0  0  0  0  0  0  0
   46.5213   13.7830   14.0224 O   0  0  0  0  0  0  0  0  0  0  0  0
   47.4337   11.9634   15.3668 C   0  0  2  0  0  0  0  0  0  0  0  0
   47.4934   11.4198   16.7211 O   0  0  0  0  0  0  0  0  0  0  0  0
   48.8815   12.2367   14.8895 C   0  0  0  0  0  0  0  0  0  0  0  0
   49.6061   11.0045   14.7223 O   0  0  0  0  0  0  0  0  0  0  0  0
  1  2  1  1  0  0  0
  1  3  1  0  0  0  0
  1  4  2  0  0  0  0
  1 16  1  0  0  0  0
  5  6  1  6  0  0  0
  5  7  1  0  0  0  0
  5 14  1  0  0  0  0
  7  8  1  6  0  0  0
  7  9  1  0  0  0  0
  9 10  1  1  0  0  0
  9 11  1  0  0  0  0
 11 12  1  6  0  0  0
 11 13  1  0  0  0  0
 13 14  1  0  0  0  0
 13 15  1  1  0  0  0
 15 16  1  0  0  0  0
M  CHG  1   3  -1
M  END
>  <CHROM.1>
-171.70537642,-174.37257956,71.22169920,48.01615610,11.94137153,15.40413309
-0.05919312,-0.38065240,2.50160673

>  <Name>
ligand

>  <RI>
0

>  <Rbt.Current_Directory>
/home/itssahil/PROJECTS/Mol_Feturizer/New_Systems/rnas/3B4C

>  <Rbt.Executable>
rbdock ($Id: //depot/dev/client3/rdock/2013.1/src/exe/rbdock.cxx#4 $)

>  <Rbt.Library>
libRbt.so (2013.1, Build901 2013/11/27)

>  <Rbt.Parameter_File>
/export/apps/rDock/src/rDock_2013.1_src/data/scripts/dock_solv.prm

>  <Rbt.Receptor>
prm/pocket_docking_3.prm

>  <SCORE>
-10.6772

>  <SCORE.INTER>
-9.30966

>  <SCORE.INTER.CONST>
1

>  <SCORE.INTER.POLAR>
-1.29904

>  <SCORE.INTER.ROT>
3

>  <SCORE.INTER.SOLV>
16.591

>  <SCORE.INTER.VDW>
-13.0067

>  <SCORE.INTER.norm>
-0.581853

>  <SCORE.INTRA>
-1.36758

>  <SCORE.INTRA.DIHEDRAL>
-1.52223

>  <SCORE.INTRA.DIHEDRAL.0>
2.1318

>  <SCORE.INTRA.POLAR>
0

>  <SCORE.INTRA.POLAR.0>
0

>  <SCORE.INTRA.REPUL>
0

>  <SCORE.INTRA.REPUL.0>
0

>  <SCORE.INTRA.SOLV>
-0.926886

>  <SCORE.INTRA.SOLV.lig_0>
-58.6125

>  <SCORE.INTRA.VDW>
-0.143019

>  <SCORE.INTRA.VDW.0>
-0.432734

>  <SCORE.INTRA.norm>
-0.0854735

>  <SCORE.RESTR>
0

>  <SCORE.RESTR.CAVITY>
0

>  <SCORE.RESTR.norm>
0

>  <SCORE.SYSTEM>
0

>  <SCORE.SYSTEM.CONST>
0

>  <SCORE.SYSTEM.DIHEDRAL>
0

>  <SCORE.SYSTEM.SOLV>
0

>  <SCORE.SYSTEM.norm>
0

>  <SCORE.heavy>
16

>  <SCORE.norm>
-0.667327

>  <RMSD>
1.811

$$$$
ligand
 OpenBabel11021811463D
libRbt.so/2013.1/901 2013/11/27
 16 16  0  0  0  0  0  0  0  0999 V2000
   51.0670   11.1568   14.0164 P   0  0  2  0  0  0  0  0  0  0  0  0
   50.8663   11.8723   12.7322 O   0  0  0  0  0  0  0  0  0  0  0  0
   51.9996   12.0414   14.9842 O   0  5  0  0  0  0  0  0  0  0  0  0
   51.8018    9.7516   13.7250 O   0  0  0  0  0  0  0  0  0  0  0  0
   46.2632   11.2210   17.3240 C   0  0  2  0  0  0  0  0  0  0  0  0
   45.6322   10.1570   16.6018 O   0  0  0  0  0  0  0  0  0  0  0  0
   45.3920   12.5029   17.2826 C   0  0  2  0  0  0  0  0  0  0  0  0
   44.0636   12.2220   17.8599 N   0  0  0  0  0  0  0  0  0  0  0  0
   45.2453   12.9489   15.8180 C   0  0  1  0  0  0  0  0  0  0  0  0
   44.4605   14.1421   15.7428 O   0  0  0  0  0  0  0  0  0  0  0  0
   46.6442   13.2232   15.2686 C   0  0  2  0  0  0  0  0  0  0  0  0
   46.5316   13.6353   13.9124 O   0  0  0  0  0  0  0  0  0  0  0  0
   47.4817   11.9185   15.3616 C   0  0  2  0  0  0  0  0  0  0  0  0
   47.5820   11.4782   16.7507 O   0  0  0  0  0  0  0  0  0  0  0  0
   48.9146   12.1492   14.8212 C   0  0  0  0  0  0  0  0  0  0  0  0
   49.6304   10.9045   14.7221 O   0  0  0  0  0  0  0  0  0  0  0  0
  1  2  1  6  0  0  0
  1  3  1  0  0  0  0
  1  4  2  0  0  0  0
  1 16  1  0  0  0  0
  5  6  1  6  0  0  0
  5  7  1  0  0  0  0
  5 14  1  0  0  0  0
  7  8  1  6  0  0  0
  7  9  1  0  0  0  0
  9 10  1  1  0  0  0
  9 11  1  0  0  0  0
 11 12  1  6  0  0  0
 11 13  1  0  0  0  0
 13 14  1  0  0  0  0
 13 15  1  1  0  0  0
 15 16  1  0  0  0  0
M  CHG  1   3  -1
M  END
>  <CHROM.1>
-171.55887504,174.32882411,-52.85546163,48.03146911,11.88270147,15.28818544
-0.09882628,-0.44246804,2.42453353

>  <Name>
ligand

>  <RI>
0

>  <Rbt.Current_Directory>
/home/itssahil/PROJECTS/Mol_Feturizer/New_Systems/rnas/3B4C

>  <Rbt.Executable>
rbdock ($Id: //depot/dev/client3/rdock/2013.1/src/exe/rbdock.cxx#4 $)

>  <Rbt.Library>
libRbt.so (2013.1, Build901 2013/11/27)

>  <Rbt.Parameter_File>
/export/apps/rDock/src/rDock_2013.1_src/data/scripts/dock_solv.prm

>  <Rbt.Receptor>
prm/pocket_docking_4.prm

>  <SCORE>
-10.3006

>  <SCORE.INTER>
-8.86254

>  <SCORE.INTER.CONST>
1

>  <SCORE.INTER.POLAR>
-1.29904

>  <SCORE.INTER.ROT>
3

>  <SCORE.INTER.SOLV>
17.2933

>  <SCORE.INTER.VDW>
-12.9427

>  <SCORE.INTER.norm>
-0.553909

>  <SCORE.INTRA>
-1.43803

>  <SCORE.INTRA.DIHEDRAL>
-1.63052

>  <SCORE.INTRA.DIHEDRAL.0>
2.1318

>  <SCORE.INTRA.POLAR>
0

>  <SCORE.INTRA.POLAR.0>
0

>  <SCORE.INTRA.REPUL>
0

>  <SCORE.INTRA.REPUL.0>
0

>  <SCORE.INTRA.SOLV>
-1.1529

>  <SCORE.INTRA.SOLV.lig_0>
-58.6125

>  <SCORE.INTRA.VDW>
-0.0463155

>  <SCORE.INTRA.VDW.0>
-0.432734

>  <SCORE.INTRA.norm>
-0.0898766

>  <SCORE.RESTR>
0

>  <SCORE.RESTR.CAVITY>
0

>  <SCORE.RESTR.norm>
0

>  <SCORE.SYSTEM>
0

>  <SCORE.SYSTEM.CONST>
0

>  <SCORE.SYSTEM.DIHEDRAL>
0

>  <SCORE.SYSTEM.SOLV>
0

>  <SCORE.SYSTEM.norm>
0

>  <SCORE.heavy>
16

>  <SCORE.norm>
-0.643786

>  <RMSD>
1.813

$$$$
ligand
 OpenBabel11021811463D
libRbt.so/2013.1/901 2013/11/27
 16 16  0  0  0  0  0  0  0  0999 V2000
   50.9659   11.0665   14.0760 P   0  0  2  0  0  0  0  0  0  0  0  0
   50.8209   11.8087   12.7995 O   0  0  0  0  0  0  0  0  0  0  0  0
   51.8794   11.9172   15.0913 O   0  5  0  0  0  0  0  0  0  0  0  0
   51.6870    9.6545   13.7832 O   0  0  0  0  0  0  0  0  0  0  0  0
   46.1514   11.1560   17.3460 C   0  0  2  0  0  0  0  0  0  0  0  0
   45.4895   10.1309   16.5957 O   0  0  0  0  0  0  0  0  0  0  0  0
   45.3149   12.4615   17.3457 C   0  0  2  0  0  0  0  0  0  0  0  0
   43.9814   12.1996   17.9202 N   0  0  0  0  0  0  0  0  0  0  0  0
   45.1754   12.9539   15.8954 C   0  0  1  0  0  0  0  0  0  0  0  0
   44.4228   14.1694   15.8583 O   0  0  0  0  0  0  0  0  0  0  0  0
   46.5792   13.2065   15.3483 C   0  0  2  0  0  0  0  0  0  0  0  0
   46.4731   13.6610   14.0052 O   0  0  0  0  0  0  0  0  0  0  0  0
   47.3815   11.8776   15.3997 C   0  0  2  0  0  0  0  0  0  0  0  0
   47.4747   11.3943   16.7749 O   0  0  0  0  0  0  0  0  0  0  0  0
   48.8183   12.0854   14.8602 C   0  0  0  0  0  0  0  0  0  0  0  0
   49.5021   10.8259   14.7279 O   0  0  0  0  0  0  0  0  0  0  0  0
  1  2  1  6  0  0  0
  1  3  1  0  0  0  0
  1  4  2  0  0  0  0
  1 16  1  0  0  0  0
  5  6  1  6  0  0  0
  5  7  1  0  0  0  0
  5 14  1  0  0  0  0
  7  8  1  6  0  0  0
  7  9  1  0  0  0  0
  9 10  1  1  0  0  0
  9 11  1  0  0  0  0
 11 12  1  6  0  0  0
 11 13  1  0  0  0  0
 13 14  1  0  0  0  0
 13 15  1  1  0  0  0
 15 16  1  0  0  0  0
M  CHG  1   3  -1
M  END
>  <CHROM.1>
-171.83547994,176.49489718,-54.42801348,47.93931117,11.83191259,15.34498974
-0.07336466,-0.45386550,2.46171822

>  <Name>
ligand

>  <RI>
0

>  <Rbt.Current_Directory>
/home/itssahil/PROJECTS/Mol_Feturizer/New_Systems/rnas/3B4C

>  <Rbt.Executable>
rbdock ($Id: //depot/dev/client3/rdock/2013.1/src/exe/rbdock.cxx#4 $)

>  <Rbt.Library>
libRbt.so (2013.1, Build901 2013/11/27)

>  <Rbt.Parameter_File>
/export/apps/rDock/src/rDock_2013.1_src/data/scripts/dock_solv.prm

>  <Rbt.Receptor>
prm/pocket_docking_4.prm

>  <SCORE>
-10.3029

>  <SCORE.INTER>
-8.78481

>  <SCORE.INTER.CONST>
1

>  <SCORE.INTER.POLAR>
-1.29897

>  <SCORE.INTER.ROT>
3

>  <SCORE.INTER.SOLV>
17.9522

>  <SCORE.INTER.VDW>
-13.1107

>  <SCORE.INTER.norm>
-0.549051

>  <SCORE.INTRA>
-1.5181

>  <SCORE.INTRA.DIHEDRAL>
-1.7765

>  <SCORE.INTRA.DIHEDRAL.0>
2.1318

>  <SCORE.INTRA.POLAR>
0

>  <SCORE.INTRA.POLAR.0>
0

>  <SCORE.INTRA.REPUL>
0

>  <SCORE.INTRA.REPUL.0>
0

>  <SCORE.INTRA.SOLV>
-1.12194

>  <SCORE.INTRA.SOLV.lig_0>
-58.6125

>  <SCORE.INTRA.VDW>
-0.068877

>  <SCORE.INTRA.VDW.0>
-0.432734

>  <SCORE.INTRA.norm>
-0.094881

>  <SCORE.RESTR>
0

>  <SCORE.RESTR.CAVITY>
0

>  <SCORE.RESTR.norm>
0

>  <SCORE.SYSTEM>
0

>  <SCORE.SYSTEM.CONST>
0

>  <SCORE.SYSTEM.DIHEDRAL>
0

>  <SCORE.SYSTEM.SOLV>
0

>  <SCORE.SYSTEM.norm>
0

>  <SCORE.heavy>
16

>  <SCORE.norm>
-0.643932

>  <RMSD>
1.860

$$$$
ligand
 OpenBabel11021811463D
libRbt.so/2013.1/901 2013/11/27
 16 16  0  0  0  0  0  0  0  0999 V2000
   51.0161   10.6826   12.8247 P   0  0  2  0  0  0  0  0  0  0  0  0
   50.9879   10.5599   11.3464 O   0  0  0  0  0  0  0  0  0  0  0  0
   51.7995   12.0260   13.2375 O   0  5  0  0  0  0  0  0  0  0  0  0
   51.7956    9.4133   13.4419 O   0  0  0  0  0  0  0  0  0  0  0  0
   46.8374   10.8747   17.4635 C   0  0  2  0  0  0  0  0  0  0  0  0
   46.1296    9.6887   17.0840 O   0  0  0  0  0  0  0  0  0  0  0  0
   46.0532   12.1415   17.0342 C   0  0  2  0  0  0  0  0  0  0  0  0
   44.7151   12.1342   17.6555 N   0  0  0  0  0  0  0  0  0  0  0  0
   45.9217   12.1407   15.5018 C   0  0  1  0  0  0  0  0  0  0  0  0
   45.2174   13.3071   15.0674 O   0  0  0  0  0  0  0  0  0  0  0  0
   47.3300   12.1453   14.9098 C   0  0  2  0  0  0  0  0  0  0  0  0
   47.2313   12.1422   13.4913 O   0  0  0  0  0  0  0  0  0  0  0  0
   48.0796   10.8745   15.3949 C   0  0  2  0  0  0  0  0  0  0  0  0
   48.1645   10.8613   16.8530 O   0  0  0  0  0  0  0  0  0  0  0  0
   49.5191   10.8380   14.8248 C   0  0  0  0  0  0  0  0  0  0  0  0
   49.4982   10.7392   13.3891 O   0  0  0  0  0  0  0  0  0  0  0  0
  1  2  1  6  0  0  0
  1  3  1  0  0  0  0
  1  4  2  0  0  0  0
  1 16  1  0  0  0  0
  5  6  1  6  0  0  0
  5  7  1  0  0  0  0
  5 14  1  0  0  0  0
  7  8  1  1  0  0  0
  7  9  1  0  0  0  0
  9 10  1  6  0  0  0
  9 11  1  0  0  0  0
 11 12  1  6  0  0  0
 11 13  1  0  0  0  0
 13 14  1  0  0  0  0
 13 15  1  6  0  0  0
 15 16  1  0  0  0  0
M  CHG  1   3  -1
M  END
>  <CHROM.1>
-63.67872517,-179.22529943,179.14183622,48.40727648,11.22588461,14.75798380
0.41185527,0.51679584,-0.99782604

>  <Name>
ligand

>  <RI>
0

>  <Rbt.Current_Directory>
/home/itssahil/PROJECTS/Mol_Feturizer/New_Systems/rnas/3B4C

>  <Rbt.Executable>
rbdock ($Id: //depot/dev/client3/rdock/2013.1/src/exe/rbdock.cxx#4 $)

>  <Rbt.Library>
libRbt.so (2013.1, Build901 2013/11/27)

>  <Rbt.Parameter_File>
/export/apps/rDock/src/rDock_2013.1_src/data/scripts/dock_solv.prm

>  <Rbt.Receptor>
prm/pocket_docking_6.prm

>  <SCORE>
-10.4361

>  <SCORE.INTER>
-9.24057

>  <SCORE.INTER.CONST>
1

>  <SCORE.INTER.POLAR>
-1.2988

>  <SCORE.INTER.ROT>
3

>  <SCORE.INTER.SOLV>
15.7707

>  <SCORE.INTER.VDW>
-12.6879

>  <SCORE.INTER.norm>
-0.577536

>  <SCORE.INTRA>
-1.19551

>  <SCORE.INTRA.DIHEDRAL>
-2.07778

>  <SCORE.INTRA.DIHEDRAL.0>
2.1318

>  <SCORE.INTRA.POLAR>
0

>  <SCORE.INTRA.POLAR.0>
0

>  <SCORE.INTRA.REPUL>
0

>  <SCORE.INTRA.REPUL.0>
0

>  <SCORE.INTRA.SOLV>
0.0262795

>  <SCORE.INTRA.SOLV.lig_0>
-58.6125

>  <SCORE.INTRA.VDW>
-0.169761

>  <SCORE.INTRA.VDW.0>
-0.432734

>  <SCORE.INTRA.norm>
-0.0747195

>  <SCORE.RESTR>
0

>  <SCORE.RESTR.CAVITY>
0

>  <SCORE.RESTR.norm>
0

>  <SCORE.SYSTEM>
0

>  <SCORE.SYSTEM.CONST>
0

>  <SCORE.SYSTEM.DIHEDRAL>
0

>  <SCORE.SYSTEM.SOLV>
0

>  <SCORE.SYSTEM.norm>
0

>  <SCORE.heavy>
16

>  <SCORE.norm>
-0.652255

>  <RMSD>
1.894

$$$$
ligand
 OpenBabel11021811463D
libRbt.so/2013.1/901 2013/11/27
 16 16  0  0  0  0  0  0  0  0999 V2000
   50.6983   10.6324   13.8483 P   0  0  2  0  0  0  0  0  0  0  0  0
   50.4865   11.1030   12.4573 O   0  0  0  0  0  0  0  0  0  0  0  0
   51.6442   11.6735   14.6295 O   0  5  0  0  0  0  0  0  0  0  0  0
   51.4250    9.1937   13.8108 O   0  0  0  0  0  0  0  0  0  0  0  0
   46.0520   11.1211   17.2898 C   0  0  2  0  0  0  0  0  0  0  0  0
   45.2794   10.1372   16.5921 O   0  0  0  0  0  0  0  0  0  0  0  0
   45.3138   12.4844   17.3091 C   0  0  2  0  0  0  0  0  0  0  0  0
   43.9963   12.3292   17.9548 N   0  0  0  0  0  0  0  0  0  0  0  0
   45.1355   12.9659   15.8593 C   0  0  1  0  0  0  0  0  0  0  0  0
   44.4723   14.2328   15.8392 O   0  0  0  0  0  0  0  0  0  0  0  0
   46.5237   13.1070   15.2375 C   0  0  2  0  0  0  0  0  0  0  0  0
   46.3816   13.5497   13.8938 O   0  0  0  0  0  0  0  0  0  0  0  0
   47.2289   11.7236   15.2715 C   0  0  2  0  0  0  0  0  0  0  0  0
   47.3578   11.2537   16.6484 O   0  0  0  0  0  0  0  0  0  0  0  0
   48.6471   11.8179   14.6564 C   0  0  0  0  0  0  0  0  0  0  0  0
   49.2683   10.5207   14.6022 O   0  0  0  0  0  0  0  0  0  0  0  0
  1  2  1  6  0  0  0
  1  3  1  0  0  0  0
  1  4  2  0  0  0  0
  1 16  1  0  0  0  0
  5  6  1  6  0  0  0
  5  7  1  0  0  0  0
  5 14  1  0  0  0  0
  7  8  1  6  0  0  0
  7  9  1  0  0  0  0
  9 10  1  1  0  0  0
  9 11  1  0  0  0  0
 11 12  1  6  0  0  0
 11 13  1  0  0  0  0
 13 14  1  0  0  0  0
 13 15  1  1  0  0  0
 15 16  1  0  0  0  0
M  CHG  1   3  -1
M  END
>  <CHROM.1>
-176.05339217,175.51575977,-61.50344318,47.78871097,11.63735916,15.21481268
-0.03734729,-0.53024342,2.46107755

>  <Name>
ligand

>  <RI>
0

>  <Rbt.Current_Directory>
/home/itssahil/PROJECTS/Mol_Feturizer/New_Systems/rnas/3B4C

>  <Rbt.Executable>
rbdock ($Id: //depot/dev/client3/rdock/2013.1/src/exe/rbdock.cxx#4 $)

>  <Rbt.Library>
libRbt.so (2013.1, Build901 2013/11/27)

>  <Rbt.Parameter_File>
/export/apps/rDock/src/rDock_2013.1_src/data/scripts/dock_solv.prm

>  <Rbt.Receptor>
prm/pocket_docking_4.prm

>  <SCORE>
-10.0962

>  <SCORE.INTER>
-8.4675

>  <SCORE.INTER.CONST>
1

>  <SCORE.INTER.POLAR>
-1.29904

>  <SCORE.INTER.ROT>
3

>  <SCORE.INTER.SOLV>
17.8258

>  <SCORE.INTER.VDW>
-12.8568

>  <SCORE.INTER.norm>
-0.529219

>  <SCORE.INTRA>
-1.62869

>  <SCORE.INTRA.DIHEDRAL>
-1.9698

>  <SCORE.INTRA.DIHEDRAL.0>
2.1318

>  <SCORE.INTRA.POLAR>
0

>  <SCORE.INTRA.POLAR.0>
0

>  <SCORE.INTRA.REPUL>
0

>  <SCORE.INTRA.REPUL.0>
0

>  <SCORE.INTRA.SOLV>
-1.04542

>  <SCORE.INTRA.SOLV.lig_0>
-58.6125

>  <SCORE.INTRA.VDW>
-0.121072

>  <SCORE.INTRA.VDW.0>
-0.432734

>  <SCORE.INTRA.norm>
-0.101793

>  <SCORE.RESTR>
0

>  <SCORE.RESTR.CAVITY>
0

>  <SCORE.RESTR.norm>
0

>  <SCORE.SYSTEM>
0

>  <SCORE.SYSTEM.CONST>
0

>  <SCORE.SYSTEM.DIHEDRAL>
0

>  <SCORE.SYSTEM.SOLV>
0

>  <SCORE.SYSTEM.norm>
0

>  <SCORE.heavy>
16

>  <SCORE.norm>
-0.631011

>  <RMSD>
2.055

$$$$
ligand
 OpenBabel11021811463D
libRbt.so/2013.1/901 2013/11/27
 16 16  0  0  0  0  0  0  0  0999 V2000
   50.7120    9.7325   12.6714 P   0  0  2  0  0  0  0  0  0  0  0  0
   51.4635   11.0093   12.7517 O   0  0  0  0  0  0  0  0  0  0  0  0
   51.5236    8.5815   13.4495 O   0  5  0  0  0  0  0  0  0  0  0  0
   50.5610    9.3089   11.1231 O   0  0  0  0  0  0  0  0  0  0  0  0
   46.9748   10.8699   17.5393 C   0  0  2  0  0  0  0  0  0  0  0  0
   46.2264    9.6545   17.4192 O   0  0  0  0  0  0  0  0  0  0  0  0
   46.1639   12.0695   16.9848 C   0  0  2  0  0  0  0  0  0  0  0  0
   44.8883   12.1901   17.7163 N   0  0  0  0  0  0  0  0  0  0  0  0
   45.8923   11.8286   15.4903 C   0  0  1  0  0  0  0  0  0  0  0  0
   45.1598   12.9265   14.9396 O   0  0  0  0  0  0  0  0  0  0  0  0
   47.2404   11.7084   14.7816 C   0  0  2  0  0  0  0  0  0  0  0  0
   47.0119   11.4826   13.3965 O   0  0  0  0  0  0  0  0  0  0  0  0
   48.0219   10.5144   15.3948 C   0  0  2  0  0  0  0  0  0  0  0  0
   48.2401   10.7308   16.8227 O   0  0  0  0  0  0  0  0  0  0  0  0
   49.4027   10.3564   14.7115 C   0  0  0  0  0  0  0  0  0  0  0  0
   49.2517    9.9241   13.3470 O   0  0  0  0  0  0  0  0  0  0  0  0
  1  2  1  1  0  0  0
  1  3  1  0  0  0  0
  1  4  2  0  0  0  0
  1 16  1  0  0  0  0
  5  6  1  6  0  0  0
  5  7  1  0  0  0  0
  5 14  1  0  0  0  0
  7  8  1  1  0  0  0
  7  9  1  0  0  0  0
  9 10  1  6  0  0  0
  9 11  1  0  0  0  0
 11 12  1  6  0  0  0
 11 13  1  0  0  0  0
 13 14  1  0  0  0  0
 13 15  1  6  0  0  0
 15 16  1  0  0  0  0
M  CHG  1   3  -1
M  END
>  <CHROM.1>
-68.42869855,-178.59552459,-57.70426705,48.28879710,10.69929803,14.68838243
-0.49735784,-0.58278491,1.91603308

>  <Name>
ligand

>  <RI>
0

>  <Rbt.Current_Directory>
/home/itssahil/PROJECTS/Mol_Feturizer/New_Systems/rnas/3B4C

>  <Rbt.Executable>
rbdock ($Id: //depot/dev/client3/rdock/2013.1/src/exe/rbdock.cxx#4 $)

>  <Rbt.Library>
libRbt.so (2013.1, Build901 2013/11/27)

>  <Rbt.Parameter_File>
/export/apps/rDock/src/rDock_2013.1_src/data/scripts/dock_solv.prm

>  <Rbt.Receptor>
prm/pocket_docking_8.prm

>  <SCORE>
-10.8392

>  <SCORE.INTER>
-9.42779

>  <SCORE.INTER.CONST>
1

>  <SCORE.INTER.POLAR>
-1.29904

>  <SCORE.INTER.ROT>
3

>  <SCORE.INTER.SOLV>
19.0724

>  <SCORE.INTER.VDW>
-13.9125

>  <SCORE.INTER.norm>
-0.589237

>  <SCORE.INTRA>
-1.41137

>  <SCORE.INTRA.DIHEDRAL>
-1.8602

>  <SCORE.INTRA.DIHEDRAL.0>
2.1318

>  <SCORE.INTRA.POLAR>
0

>  <SCORE.INTRA.POLAR.0>
0

>  <SCORE.INTRA.REPUL>
0

>  <SCORE.INTRA.REPUL.0>
0

>  <SCORE.INTRA.SOLV>
-0.67801

>  <SCORE.INTRA.SOLV.lig_0>
-58.6125

>  <SCORE.INTRA.VDW>
-0.142261

>  <SCORE.INTRA.VDW.0>
-0.432734

>  <SCORE.INTRA.norm>
-0.0882104

>  <SCORE.RESTR>
0

>  <SCORE.RESTR.CAVITY>
0

>  <SCORE.RESTR.norm>
0

>  <SCORE.SYSTEM>
0

>  <SCORE.SYSTEM.CONST>
0

>  <SCORE.SYSTEM.DIHEDRAL>
0

>  <SCORE.SYSTEM.SOLV>
0

>  <SCORE.SYSTEM.norm>
0

>  <SCORE.heavy>
16

>  <SCORE.norm>
-0.677447

>  <RMSD>
2.067

$$$$
ligand
 OpenBabel11021811463D
libRbt.so/2013.1/901 2013/11/27
 16 16  0  0  0  0  0  0  0  0999 V2000
   50.7148    9.6360   12.6361 P   0  0  2  0  0  0  0  0  0  0  0  0
   51.4917   10.8998   12.6615 O   0  0  0  0  0  0  0  0  0  0  0  0
   51.4859    8.5139   13.4935 O   0  5  0  0  0  0  0  0  0  0  0  0
   50.5855    9.1300   11.1108 O   0  0  0  0  0  0  0  0  0  0  0  0
   46.8811   10.8394   17.4060 C   0  0  2  0  0  0  0  0  0  0  0  0
   46.0457    9.6985   17.1772 O   0  0  0  0  0  0  0  0  0  0  0  0
   46.1900   12.1336   16.9045 C   0  0  2  0  0  0  0  0  0  0  0  0
   44.8985   12.3094   17.5959 N   0  0  0  0  0  0  0  0  0  0  0  0
   45.9625   12.0119   15.3883 C   0  0  1  0  0  0  0  0  0  0  0  0
   45.3414   13.1984   14.8867 O   0  0  0  0  0  0  0  0  0  0  0  0
   47.3253   11.8292   14.7224 C   0  0  2  0  0  0  0  0  0  0  0  0
   47.1375   11.7120   13.3179 O   0  0  0  0  0  0  0  0  0  0  0  0
   47.9851   10.5392   15.2816 C   0  0  2  0  0  0  0  0  0  0  0  0
   48.1603   10.6451   16.7278 O   0  0  0  0  0  0  0  0  0  0  0  0
   49.3766   10.3146   14.6397 C   0  0  0  0  0  0  0  0  0  0  0  0
   49.2458    9.8946   13.2693 O   0  0  0  0  0  0  0  0  0  0  0  0
  1  2  1  1  0  0  0
  1  3  1  0  0  0  0
  1  4  2  0  0  0  0
  1 16  1  0  0  0  0
  5  6  1  6  0  0  0
  5  7  1  0  0  0  0
  5 14  1  0  0  0  0
  7  8  1  1  0  0  0
  7  9  1  0  0  0  0
  9 10  1  6  0  0  0
  9 11  1  0  0  0  0
 11 12  1  6  0  0  0
 11 13  1  0  0  0  0
 13 14  1  0  0  0  0
 13 15  1  6  0  0  0
 15 16  1  0  0  0  0
M  CHG  1   3  -1
M  END
>  <CHROM.1>
-72.40191464,-178.73542863,-61.48030297,48.29439506,10.71516494,14.60980693
-0.40657281,-0.64741409,2.02265383

>  <Name>
ligand

>  <RI>
0

>  <Rbt.Current_Directory>
/home/itssahil/PROJECTS/Mol_Feturizer/New_Systems/rnas/3B4C

>  <Rbt.Executable>
rbdock ($Id: //depot/dev/client3/rdock/2013.1/src/exe/rbdock.cxx#4 $)

>  <Rbt.Library>
libRbt.so (2013.1, Build901 2013/11/27)

>  <Rbt.Parameter_File>
/export/apps/rDock/src/rDock_2013.1_src/data/scripts/dock_solv.prm

>  <Rbt.Receptor>
prm/pocket_docking_6.prm

>  <SCORE>
-10.4556

>  <SCORE.INTER>
-9.10661

>  <SCORE.INTER.CONST>
1

>  <SCORE.INTER.POLAR>
-1.29904

>  <SCORE.INTER.ROT>
3

>  <SCORE.INTER.SOLV>
18.2559

>  <SCORE.INTER.VDW>
-13.4262

>  <SCORE.INTER.norm>
-0.569163

>  <SCORE.INTRA>
-1.349

>  <SCORE.INTRA.DIHEDRAL>
-1.58523

>  <SCORE.INTRA.DIHEDRAL.0>
2.1318

>  <SCORE.INTRA.POLAR>
0

>  <SCORE.INTRA.POLAR.0>
0

>  <SCORE.INTRA.REPUL>
0

>  <SCORE.INTRA.REPUL.0>
0

>  <SCORE.INTRA.SOLV>
-0.67891

>  <SCORE.INTRA.SOLV.lig_0>
-58.6125

>  <SCORE.INTRA.VDW>
-0.216927

>  <SCORE.INTRA.VDW.0>
-0.432734

>  <SCORE.INTRA.norm>
-0.0843124

>  <SCORE.RESTR>
0

>  <SCORE.RESTR.CAVITY>
0

>  <SCORE.RESTR.norm>
0

>  <SCORE.SYSTEM>
0

>  <SCORE.SYSTEM.CONST>
0

>  <SCORE.SYSTEM.DIHEDRAL>
0

>  <SCORE.SYSTEM.SOLV>
0

>  <SCORE.SYSTEM.norm>
0

>  <SCORE.heavy>
16

>  <SCORE.norm>
-0.653475

>  <RMSD>
2.100

$$$$
ligand
 OpenBabel11021811463D
libRbt.so/2013.1/901 2013/11/27
 16 16  0  0  0  0  0  0  0  0999 V2000
   50.3784    9.9491   13.4013 P   0  0  2  0  0  0  0  0  0  0  0  0
   48.9542    9.5493   13.2867 O   0  0  0  0  0  0  0  0  0  0  0  0
   50.9398   10.3585   11.9501 O   0  5  0  0  0  0  0  0  0  0  0  0
   51.2313    8.6989   13.9573 O   0  0  0  0  0  0  0  0  0  0  0  0
   46.7324   10.2399   17.3365 C   0  0  2  0  0  0  0  0  0  0  0  0
   46.2407    9.2096   16.4713 O   0  0  0  0  0  0  0  0  0  0  0  0
   46.0461   11.5939   17.0208 C   0  0  2  0  0  0  0  0  0  0  0  0
   44.5851   11.4609   17.1772 N   0  0  0  0  0  0  0  0  0  0  0  0
   46.3863   11.9904   15.5743 C   0  0  1  0  0  0  0  0  0  0  0  0
   45.7832   13.2468   15.2533 O   0  0  0  0  0  0  0  0  0  0  0  0
   47.9053   12.1115   15.4657 C   0  0  2  0  0  0  0  0  0  0  0  0
   48.2424   12.4757   14.1332 O   0  0  0  0  0  0  0  0  0  0  0  0
   48.5420   10.7401   15.8209 C   0  0  2  0  0  0  0  0  0  0  0  0
   48.1808   10.3503   17.1814 O   0  0  0  0  0  0  0  0  0  0  0  0
   50.0864   10.8150   15.7316 C   0  0  0  0  0  0  0  0  0  0  0  0
   50.5039   11.2095   14.4119 O   0  0  0  0  0  0  0  0  0  0  0  0
  1  2  1  6  0  0  0
  1  3  1  0  0  0  0
  1  4  2  0  0  0  0
  1 16  1  0  0  0  0
  5  6  1  6  0  0  0
  5  7  1  0  0  0  0
  5 14  1  0  0  0  0
  7  8  1  6  0  0  0
  7  9  1  0  0  0  0
  9 10  1  1  0  0  0
  9 11  1  0  0  0  0
 11 12  1  6  0  0  0
 11 13  1  0  0  0  0
 13 14  1  0  0  0  0
 13 15  1  1  0  0  0
 15 16  1  0  0  0  0
M  CHG  1   3  -1
M  END
>  <CHROM.1>
-58.40805857,-76.97702605,63.73183906,48.37760452,10.78858532,15.07344880
-0.15931308,-0.63873632,2.45175982

>  <Name>
ligand

>  <RI>
0

>  <Rbt.Current_Directory>
/home/itssahil/PROJECTS/Mol_Feturizer/New_Systems/rnas/3B4C

>  <Rbt.Executable>
rbdock ($Id: //depot/dev/client3/rdock/2013.1/src/exe/rbdock.cxx#4 $)

>  <Rbt.Library>
libRbt.so (2013.1, Build901 2013/11/27)

>  <Rbt.Parameter_File>
/export/apps/rDock/src/rDock_2013.1_src/data/scripts/dock_solv.prm

>  <Rbt.Receptor>
prm/pocket_docking_6.prm

>  <SCORE>
-10.4052

>  <SCORE.INTER>
-10.2974

>  <SCORE.INTER.CONST>
1

>  <SCORE.INTER.POLAR>
-1.29904

>  <SCORE.INTER.ROT>
3

>  <SCORE.INTER.SOLV>
17.6569

>  <SCORE.INTER.VDW>
-14.0204

>  <SCORE.INTER.norm>
-0.643588

>  <SCORE.INTRA>
-0.107834

>  <SCORE.INTRA.DIHEDRAL>
-0.764569

>  <SCORE.INTRA.DIHEDRAL.0>
2.1318

>  <SCORE.INTRA.POLAR>
0

>  <SCORE.INTRA.POLAR.0>
0

>  <SCORE.INTRA.REPUL>
0

>  <SCORE.INTRA.REPUL.0>
0

>  <SCORE.INTRA.SOLV>
0.915353

>  <SCORE.INTRA.SOLV.lig_0>
-58.6125

>  <SCORE.INTRA.VDW>
-0.183226

>  <SCORE.INTRA.VDW.0>
-0.432734

>  <SCORE.INTRA.norm>
-0.00673963

>  <SCORE.RESTR>
0

>  <SCORE.RESTR.CAVITY>
0

>  <SCORE.RESTR.norm>
0

>  <SCORE.SYSTEM>
0

>  <SCORE.SYSTEM.CONST>
0

>  <SCORE.SYSTEM.DIHEDRAL>
0

>  <SCORE.SYSTEM.SOLV>
0

>  <SCORE.SYSTEM.norm>
0

>  <SCORE.heavy>
16

>  <SCORE.norm>
-0.650328

>  <RMSD>
2.111

$$$$
ligand
 OpenBabel11021811463D
libRbt.so/2013.1/901 2013/11/27
 16 16  0  0  0  0  0  0  0  0999 V2000
   50.3450    9.9495   13.4854 P   0  0  2  0  0  0  0  0  0  0  0  0
   48.9354    9.5034   13.3610 O   0  0  0  0  0  0  0  0  0  0  0  0
   50.8525   10.5269   12.0720 O   0  5  0  0  0  0  0  0  0  0  0  0
   51.2611    8.6868   13.8927 O   0  0  0  0  0  0  0  0  0  0  0  0
   46.4963   10.0468   17.2617 C   0  0  2  0  0  0  0  0  0  0  0  0
   45.9826    9.1702   16.2520 O   0  0  0  0  0  0  0  0  0  0  0  0
   45.9077   11.4721   17.1008 C   0  0  2  0  0  0  0  0  0  0  0  0
   44.4357   11.4163   17.1851 N   0  0  0  0  0  0  0  0  0  0  0  0
   46.3354   12.0275   15.7319 C   0  0  1  0  0  0  0  0  0  0  0  0
   45.8240   13.3514   15.5560 O   0  0  0  0  0  0  0  0  0  0  0  0
   47.8623   12.0616   15.6955 C   0  0  2  0  0  0  0  0  0  0  0  0
   48.2798   12.5706   14.4352 O   0  0  0  0  0  0  0  0  0  0  0  0
   48.3987   10.6173   15.8914 C   0  0  2  0  0  0  0  0  0  0  0  0
   47.9542   10.0810   17.1753 O   0  0  0  0  0  0  0  0  0  0  0  0
   49.9472   10.6016   15.8691 C   0  0  0  0  0  0  0  0  0  0  0  0
   50.4457   11.1055   14.6165 O   0  0  0  0  0  0  0  0  0  0  0  0
  1  2  1  6  0  0  0
  1  3  1  0  0  0  0
  1  4  2  0  0  0  0
  1 16  1  0  0  0  0
  5  6  1  6  0  0  0
  5  7  1  0  0  0  0
  5 14  1  0  0  0  0
  7  8  1  6  0  0  0
  7  9  1  0  0  0  0
  9 10  1  1  0  0  0
  9 11  1  0  0  0  0
 11 12  1  6  0  0  0
 11 13  1  0  0  0  0
 13 14  1  0  0  0  0
 13 15  1  1  0  0  0
 15 16  1  0  0  0  0
M  CHG  1   3  -1
M  END
>  <CHROM.1>
-59.70966318,-79.23914513,57.82688422,48.29152598,10.74451693,15.16119545
-0.04332109,-0.63734346,2.64565386

>  <Name>
ligand

>  <RI>
0

>  <Rbt.Current_Directory>
/home/itssahil/PROJECTS/Mol_Feturizer/New_Systems/rnas/3B4C

>  <Rbt.Executable>
rbdock ($Id: //depot/dev/client3/rdock/2013.1/src/exe/rbdock.cxx#4 $)

>  <Rbt.Library>
libRbt.so (2013.1, Build901 2013/11/27)

>  <Rbt.Parameter_File>
/export/apps/rDock/src/rDock_2013.1_src/data/scripts/dock_solv.prm

>  <Rbt.Receptor>
prm/pocket_docking_3.prm

>  <SCORE>
-10.4819

>  <SCORE.INTER>
-10.4771

>  <SCORE.INTER.CONST>
1

>  <SCORE.INTER.POLAR>
-1.29904

>  <SCORE.INTER.ROT>
3

>  <SCORE.INTER.SOLV>
18.351

>  <SCORE.INTER.VDW>
-14.3716

>  <SCORE.INTER.norm>
-0.654817

>  <SCORE.INTRA>
-0.00480508

>  <SCORE.INTRA.DIHEDRAL>
-0.444485

>  <SCORE.INTRA.DIHEDRAL.0>
2.1318

>  <SCORE.INTRA.POLAR>
0

>  <SCORE.INTRA.POLAR.0>
0

>  <SCORE.INTRA.REPUL>
0

>  <SCORE.INTRA.REPUL.0>
0

>  <SCORE.INTRA.SOLV>
0.762488

>  <SCORE.INTRA.SOLV.lig_0>
-58.6125

>  <SCORE.INTRA.VDW>
-0.163807

>  <SCORE.INTRA.VDW.0>
-0.432734

>  <SCORE.INTRA.norm>
-0.000300317

>  <SCORE.RESTR>
0

>  <SCORE.RESTR.CAVITY>
0

>  <SCORE.RESTR.norm>
0

>  <SCORE.SYSTEM>
0

>  <SCORE.SYSTEM.CONST>
0

>  <SCORE.SYSTEM.DIHEDRAL>
0

>  <SCORE.SYSTEM.SOLV>
0

>  <SCORE.SYSTEM.norm>
0

>  <SCORE.heavy>
16

>  <SCORE.norm>
-0.655117

>  <RMSD>
2.127

$$$$
ligand
 OpenBabel11021811463D
libRbt.so/2013.1/901 2013/11/27
 16 16  0  0  0  0  0  0  0  0999 V2000
   50.7407    9.7514   12.4350 P   0  0  2  0  0  0  0  0  0  0  0  0
   51.3755   11.0901   12.3561 O   0  0  0  0  0  0  0  0  0  0  0  0
   51.6659    8.7690   13.3113 O   0  5  0  0  0  0  0  0  0  0  0  0
   50.6020    9.1477   10.9464 O   0  0  0  0  0  0  0  0  0  0  0  0
   46.9300   10.4865   17.3103 C   0  0  2  0  0  0  0  0  0  0  0  0
   46.0035    9.4851   16.8736 O   0  0  0  0  0  0  0  0  0  0  0  0
   46.3661   11.9066   17.0467 C   0  0  2  0  0  0  0  0  0  0  0  0
   45.0796   12.0709   17.7500 N   0  0  0  0  0  0  0  0  0  0  0  0
   46.1634   12.0800   15.5320 C   0  0  1  0  0  0  0  0  0  0  0  0
   45.6598   13.3883   15.2492 O   0  0  0  0  0  0  0  0  0  0  0  0
   47.5197   11.8979   14.8530 C   0  0  2  0  0  0  0  0  0  0  0  0
   47.3543   12.0522   13.4492 O   0  0  0  0  0  0  0  0  0  0  0  0
   48.0515   10.4744   15.1740 C   0  0  2  0  0  0  0  0  0  0  0  0
   48.2024   10.3027   16.6166 O   0  0  0  0  0  0  0  0  0  0  0  0
   49.4322   10.2444   14.5111 C   0  0  0  0  0  0  0  0  0  0  0  0
   49.2809    9.8879   13.1249 O   0  0  0  0  0  0  0  0  0  0  0  0
  1  2  1  6  0  0  0
  1  3  1  0  0  0  0
  1  4  2  0  0  0  0
  1 16  1  0  0  0  0
  5  6  1  6  0  0  0
  5  7  1  0  0  0  0
  5 14  1  0  0  0  0
  7  8  1  1  0  0  0
  7  9  1  0  0  0  0
  9 10  1  1  0  0  0
  9 11  1  0  0  0  0
 11 12  1  6  0  0  0
 11 13  1  0  0  0  0
 13 14  1  0  0  0  0
 13 15  1  6  0  0  0
 15 16  1  0  0  0  0
M  CHG  1   3  -1
M  END
>  <CHROM.1>
-81.22501688,176.22941236,-68.27243909,48.38748463,10.71329707,14.55197236
0.32302851,0.71935183,-0.89562536

>  <Name>
ligand

>  <RI>
0

>  <Rbt.Current_Directory>
/home/itssahil/PROJECTS/Mol_Feturizer/New_Systems/rnas/3B4C

>  <Rbt.Executable>
rbdock ($Id: //depot/dev/client3/rdock/2013.1/src/exe/rbdock.cxx#4 $)

>  <Rbt.Library>
libRbt.so (2013.1, Build901 2013/11/27)

>  <Rbt.Parameter_File>
/export/apps/rDock/src/rDock_2013.1_src/data/scripts/dock_solv.prm

>  <Rbt.Receptor>
prm/pocket_docking_5.prm

>  <SCORE>
-9.5884

>  <SCORE.INTER>
-8.73296

>  <SCORE.INTER.CONST>
1

>  <SCORE.INTER.POLAR>
-1.29904

>  <SCORE.INTER.ROT>
3

>  <SCORE.INTER.SOLV>
18.4453

>  <SCORE.INTER.VDW>
-13.2403

>  <SCORE.INTER.norm>
-0.54581

>  <SCORE.INTRA>
-0.855433

>  <SCORE.INTRA.DIHEDRAL>
-0.488693

>  <SCORE.INTRA.DIHEDRAL.0>
2.1318

>  <SCORE.INTRA.POLAR>
0

>  <SCORE.INTRA.POLAR.0>
0

>  <SCORE.INTRA.REPUL>
0

>  <SCORE.INTRA.REPUL.0>
0

>  <SCORE.INTRA.SOLV>
-0.658914

>  <SCORE.INTRA.SOLV.lig_0>
-58.6125

>  <SCORE.INTRA.VDW>
-0.281629

>  <SCORE.INTRA.VDW.0>
-0.432734

>  <SCORE.INTRA.norm>
-0.0534646

>  <SCORE.RESTR>
0

>  <SCORE.RESTR.CAVITY>
0

>  <SCORE.RESTR.norm>
0

>  <SCORE.SYSTEM>
0

>  <SCORE.SYSTEM.CONST>
0

>  <SCORE.SYSTEM.DIHEDRAL>
0

>  <SCORE.SYSTEM.SOLV>
0

>  <SCORE.SYSTEM.norm>
0

>  <SCORE.heavy>
16

>  <SCORE.norm>
-0.599275

>  <RMSD>
2.144

$$$$
ligand
 OpenBabel11021811463D
libRbt.so/2013.1/901 2013/11/27
 16 16  0  0  0  0  0  0  0  0999 V2000
   50.6508    9.6035   12.6397 P   0  0  2  0  0  0  0  0  0  0  0  0
   51.3649   10.9040   12.6279 O   0  0  0  0  0  0  0  0  0  0  0  0
   51.5245    8.5180   13.4441 O   0  5  0  0  0  0  0  0  0  0  0  0
   50.4581    9.0968   11.1212 O   0  0  0  0  0  0  0  0  0  0  0  0
   47.0575   10.9003   17.5791 C   0  0  2  0  0  0  0  0  0  0  0  0
   46.3748    9.6412   17.5949 O   0  0  0  0  0  0  0  0  0  0  0  0
   46.1590   12.0029   16.9618 C   0  0  2  0  0  0  0  0  0  0  0  0
   44.9086   12.1187   17.7363 N   0  0  0  0  0  0  0  0  0  0  0  0
   45.8427   11.6196   15.5064 C   0  0  1  0  0  0  0  0  0  0  0  0
   45.0282   12.6255   14.8981 O   0  0  0  0  0  0  0  0  0  0  0  0
   47.1663   11.5099   14.7516 C   0  0  2  0  0  0  0  0  0  0  0  0
   46.8965   11.1534   13.4018 O   0  0  0  0  0  0  0  0  0  0  0  0
   48.0376   10.4165   15.4279 C   0  0  2  0  0  0  0  0  0  0  0  0
   48.2994   10.7668   16.8215 O   0  0  0  0  0  0  0  0  0  0  0  0
   49.3971   10.2732   14.7001 C   0  0  0  0  0  0  0  0  0  0  0  0
   49.2101    9.7873   13.3583 O   0  0  0  0  0  0  0  0  0  0  0  0
  1  2  1  6  0  0  0
  1  3  1  0  0  0  0
  1  4  2  0  0  0  0
  1 16  1  0  0  0  0
  5  6  1  6  0  0  0
  5  7  1  0  0  0  0
  5 14  1  0  0  0  0
  7  8  1  1  0  0  0
  7  9  1  0  0  0  0
  9 10  1  6  0  0  0
  9 11  1  0  0  0  0
 11 12  1  6  0  0  0
 11 13  1  0  0  0  0
 13 14  1  0  0  0  0
 13 15  1  6  0  0  0
 15 16  1  0  0  0  0
M  CHG  1   3  -1
M  END
>  <CHROM.1>
-65.21792896,-178.22197528,-58.60959216,48.26265668,10.57546385,14.68799439
-0.56960334,-0.53701643,1.79992825

>  <Name>
ligand

>  <RI>
0

>  <Rbt.Current_Directory>
/home/itssahil/PROJECTS/Mol_Feturizer/New_Systems/rnas/3B4C

>  <Rbt.Executable>
rbdock ($Id: //depot/dev/client3/rdock/2013.1/src/exe/rbdock.cxx#4 $)

>  <Rbt.Library>
libRbt.so (2013.1, Build901 2013/11/27)

>  <Rbt.Parameter_File>
/export/apps/rDock/src/rDock_2013.1_src/data/scripts/dock_solv.prm

>  <Rbt.Receptor>
prm/pocket_docking_5.prm

>  <SCORE>
-10.9546

>  <SCORE.INTER>
-9.53493

>  <SCORE.INTER.CONST>
1

>  <SCORE.INTER.POLAR>
-1.29904

>  <SCORE.INTER.ROT>
3

>  <SCORE.INTER.SOLV>
19.7545

>  <SCORE.INTER.VDW>
-14.2113

>  <SCORE.INTER.norm>
-0.595933

>  <SCORE.INTRA>
-1.41971

>  <SCORE.INTRA.DIHEDRAL>
-2.01397

>  <SCORE.INTRA.DIHEDRAL.0>
2.1318

>  <SCORE.INTRA.POLAR>
0

>  <SCORE.INTRA.POLAR.0>
0

>  <SCORE.INTRA.REPUL>
0

>  <SCORE.INTRA.REPUL.0>
0

>  <SCORE.INTRA.SOLV>
-0.641459

>  <SCORE.INTRA.SOLV.lig_0>
-58.6125

>  <SCORE.INTRA.VDW>
-0.091996

>  <SCORE.INTRA.VDW.0>
-0.432734

>  <SCORE.INTRA.norm>
-0.088732

>  <SCORE.RESTR>
0

>  <SCORE.RESTR.CAVITY>
0

>  <SCORE.RESTR.norm>
0

>  <SCORE.SYSTEM>
0

>  <SCORE.SYSTEM.CONST>
0

>  <SCORE.SYSTEM.DIHEDRAL>
0

>  <SCORE.SYSTEM.SOLV>
0

>  <SCORE.SYSTEM.norm>
0

>  <SCORE.heavy>
16

>  <SCORE.norm>
-0.684665

>  <RMSD>
2.146

$$$$
ligand
 OpenBabel11021811463D
libRbt.so/2013.1/901 2013/11/27
 16 16  0  0  0  0  0  0  0  0999 V2000
   50.6620    9.5991   12.6227 P   0  0  2  0  0  0  0  0  0  0  0  0
   51.3718   10.9019   12.6150 O   0  0  0  0  0  0  0  0  0  0  0  0
   51.5373    8.5151   13.4276 O   0  5  0  0  0  0  0  0  0  0  0  0
   50.4749    9.0943   11.1030 O   0  0  0  0  0  0  0  0  0  0  0  0
   47.0526   10.8757   17.5521 C   0  0  2  0  0  0  0  0  0  0  0  0
   46.3601    9.6219   17.5376 O   0  0  0  0  0  0  0  0  0  0  0  0
   46.1651   11.9985   16.9558 C   0  0  2  0  0  0  0  0  0  0  0  0
   44.9125   12.1071   17.7277 N   0  0  0  0  0  0  0  0  0  0  0  0
   45.8517   11.6497   15.4910 C   0  0  1  0  0  0  0  0  0  0  0  0
   45.0475   12.6750   14.9018 O   0  0  0  0  0  0  0  0  0  0  0  0
   47.1775   11.5463   14.7391 C   0  0  2  0  0  0  0  0  0  0  0  0
   46.9104   11.2215   13.3808 O   0  0  0  0  0  0  0  0  0  0  0  0
   48.0375   10.4315   15.3947 C   0  0  2  0  0  0  0  0  0  0  0  0
   48.2965   10.7491   16.7966 O   0  0  0  0  0  0  0  0  0  0  0  0
   49.3989   10.2935   14.6691 C   0  0  0  0  0  0  0  0  0  0  0  0
   49.2188    9.7767   13.3380 O   0  0  0  0  0  0  0  0  0  0  0  0
  1  2  1  1  0  0  0
  1  3  1  0  0  0  0
  1  4  2  0  0  0  0
  1 16  1  0  0  0  0
  5  6  1  6  0  0  0
  5  7  1  0  0  0  0
  5 14  1  0  0  0  0
  7  8  1  1  0  0  0
  7  9  1  0  0  0  0
  9 10  1  6  0  0  0
  9 11  1  0  0  0  0
 11 12  1  6  0  0  0
 11 13  1  0  0  0  0
 13 14  1  0  0  0  0
 13 15  1  6  0  0  0
 15 16  1  0  0  0  0
M  CHG  1   3  -1
M  END
>  <CHROM.1>
-68.02339160,-178.19211368,-57.13990935,48.26930695,10.58208600,14.66822662
-0.55618967,-0.54907052,1.82112137

>  <Name>
ligand

>  <RI>
0

>  <Rbt.Current_Directory>
/home/itssahil/PROJECTS/Mol_Feturizer/New_Systems/rnas/3B4C

>  <Rbt.Executable>
rbdock ($Id: //depot/dev/client3/rdock/2013.1/src/exe/rbdock.cxx#4 $)

>  <Rbt.Library>
libRbt.so (2013.1, Build901 2013/11/27)

>  <Rbt.Parameter_File>
/export/apps/rDock/src/rDock_2013.1_src/data/scripts/dock_solv.prm

>  <Rbt.Receptor>
prm/pocket_docking_5.prm

>  <SCORE>
-10.9537

>  <SCORE.INTER>
-9.54698

>  <SCORE.INTER.CONST>
1

>  <SCORE.INTER.POLAR>
-1.29904

>  <SCORE.INTER.ROT>
3

>  <SCORE.INTER.SOLV>
19.5778

>  <SCORE.INTER.VDW>
-14.1605

>  <SCORE.INTER.norm>
-0.596686

>  <SCORE.INTRA>
-1.40668

>  <SCORE.INTRA.DIHEDRAL>
-1.87212

>  <SCORE.INTRA.DIHEDRAL.0>
2.1318

>  <SCORE.INTRA.POLAR>
0

>  <SCORE.INTRA.POLAR.0>
0

>  <SCORE.INTRA.REPUL>
0

>  <SCORE.INTRA.REPUL.0>
0

>  <SCORE.INTRA.SOLV>
-0.681944

>  <SCORE.INTRA.SOLV.lig_0>
-58.6125

>  <SCORE.INTRA.VDW>
-0.129643

>  <SCORE.INTRA.VDW.0>
-0.432734

>  <SCORE.INTRA.norm>
-0.0879173

>  <SCORE.RESTR>
0

>  <SCORE.RESTR.CAVITY>
0

>  <SCORE.RESTR.norm>
0

>  <SCORE.SYSTEM>
0

>  <SCORE.SYSTEM.CONST>
0

>  <SCORE.SYSTEM.DIHEDRAL>
0

>  <SCORE.SYSTEM.SOLV>
0

>  <SCORE.SYSTEM.norm>
0

>  <SCORE.heavy>
16

>  <SCORE.norm>
-0.684604

>  <RMSD>
2.146

$$$$
ligand
 OpenBabel11021811463D
libRbt.so/2013.1/901 2013/11/27
 16 16  0  0  0  0  0  0  0  0999 V2000
   50.2907   10.1272   13.6855 P   0  0  2  0  0  0  0  0  0  0  0  0
   48.9100    9.5943   13.5809 O   0  0  0  0  0  0  0  0  0  0  0  0
   50.6578   10.9352   12.3434 O   0  5  0  0  0  0  0  0  0  0  0  0
   51.3177    8.8953   13.8504 O   0  0  0  0  0  0  0  0  0  0  0  0
   46.7071   11.0338   17.0384 C   0  0  2  0  0  0  0  0  0  0  0  0
   46.3132    9.8635   16.3124 O   0  0  0  0  0  0  0  0  0  0  0  0
   45.6823   12.1785   16.8297 C   0  0  2  0  0  0  0  0  0  0  0  0
   44.3456   11.7382   17.2728 N   0  0  0  0  0  0  0  0  0  0  0  0
   45.6485   12.5397   15.3352 C   0  0  1  0  0  0  0  0  0  0  0  0
   44.7246   13.6073   15.1074 O   0  0  0  0  0  0  0  0  0  0  0  0
   47.0521   12.9844   14.9279 C   0  0  2  0  0  0  0  0  0  0  0  0
   47.0438   13.3214   13.5465 O   0  0  0  0  0  0  0  0  0  0  0  0
   48.0408   11.8146   15.1854 C   0  0  2  0  0  0  0  0  0  0  0  0
   48.0370   11.4494   16.5996 O   0  0  0  0  0  0  0  0  0  0  0  0
   49.4828   12.2214   14.7933 C   0  0  0  0  0  0  0  0  0  0  0  0
   50.3900   11.1172   14.9644 O   0  0  0  0  0  0  0  0  0  0  0  0
  1  2  1  6  0  0  0
  1  3  1  0  0  0  0
  1  4  2  0  0  0  0
  1 16  1  0  0  0  0
  5  6  1  6  0  0  0
  5  7  1  0  0  0  0
  5 14  1  0  0  0  0
  7  8  1  6  0  0  0
  7  9  1  0  0  0  0
  9 10  1  1  0  0  0
  9 11  1  0  0  0  0
 11 12  1  6  0  0  0
 11 13  1  0  0  0  0
 13 14  1  0  0  0  0
 13 15  1  1  0  0  0
 15 16  1  0  0  0  0
M  CHG  1   3  -1
M  END
>  <CHROM.1>
-176.98156841,81.03860736,-60.97066065,48.02158377,11.33814507,14.94167936
-0.01191180,-0.58239503,2.41028761

>  <Name>
ligand

>  <RI>
0

>  <Rbt.Current_Directory>
/home/itssahil/PROJECTS/Mol_Feturizer/New_Systems/rnas/3B4C

>  <Rbt.Executable>
rbdock ($Id: //depot/dev/client3/rdock/2013.1/src/exe/rbdock.cxx#4 $)

>  <Rbt.Library>
libRbt.so (2013.1, Build901 2013/11/27)

>  <Rbt.Parameter_File>
/export/apps/rDock/src/rDock_2013.1_src/data/scripts/dock_solv.prm

>  <Rbt.Receptor>
prm/pocket_docking_4.prm

>  <SCORE>
-9.46546

>  <SCORE.INTER>
-8.9511

>  <SCORE.INTER.CONST>
1

>  <SCORE.INTER.POLAR>
-1.29904

>  <SCORE.INTER.ROT>
3

>  <SCORE.INTER.SOLV>
15.7342

>  <SCORE.INTER.VDW>
-12.482

>  <SCORE.INTER.norm>
-0.559444

>  <SCORE.INTRA>
-0.514357

>  <SCORE.INTRA.DIHEDRAL>
-0.12201

>  <SCORE.INTRA.DIHEDRAL.0>
2.1318

>  <SCORE.INTRA.POLAR>
0

>  <SCORE.INTRA.POLAR.0>
0

>  <SCORE.INTRA.REPUL>
0

>  <SCORE.INTRA.REPUL.0>
0

>  <SCORE.INTRA.SOLV>
-0.112671

>  <SCORE.INTRA.SOLV.lig_0>
-58.6125

>  <SCORE.INTRA.VDW>
-0.397017

>  <SCORE.INTRA.VDW.0>
-0.432734

>  <SCORE.INTRA.norm>
-0.0321473

>  <SCORE.RESTR>
0

>  <SCORE.RESTR.CAVITY>
0

>  <SCORE.RESTR.norm>
0

>  <SCORE.SYSTEM>
0

>  <SCORE.SYSTEM.CONST>
0

>  <SCORE.SYSTEM.DIHEDRAL>
0

>  <SCORE.SYSTEM.SOLV>
0

>  <SCORE.SYSTEM.norm>
0

>  <SCORE.heavy>
16

>  <SCORE.norm>
-0.591591

>  <RMSD>
2.161

$$$$
ligand
 OpenBabel11021811463D
libRbt.so/2013.1/901 2013/11/27
 16 16  0  0  0  0  0  0  0  0999 V2000
   50.7865    9.7513   12.7278 P   0  0  2  0  0  0  0  0  0  0  0  0
   50.7079    9.3876   11.2916 O   0  0  0  0  0  0  0  0  0  0  0  0
   51.7106   11.0569   12.9016 O   0  5  0  0  0  0  0  0  0  0  0  0
   51.4510    8.5293   13.5431 O   0  0  0  0  0  0  0  0  0  0  0  0
   46.6418   10.5266   17.3013 C   0  0  2  0  0  0  0  0  0  0  0  0
   45.6871    9.6396   16.7065 O   0  0  0  0  0  0  0  0  0  0  0  0
   46.2072   12.0033   17.1157 C   0  0  2  0  0  0  0  0  0  0  0  0
   44.8794   12.2127   17.7240 N   0  0  0  0  0  0  0  0  0  0  0  0
   46.1505   12.3120   15.6100 C   0  0  1  0  0  0  0  0  0  0  0  0
   45.7694   13.6745   15.4007 O   0  0  0  0  0  0  0  0  0  0  0  0
   47.5442   12.0775   15.0300 C   0  0  2  0  0  0  0  0  0  0  0  0
   47.5136   12.3554   13.6359 O   0  0  0  0  0  0  0  0  0  0  0  0
   47.9417   10.5954   15.2696 C   0  0  2  0  0  0  0  0  0  0  0  0
   47.9533   10.2982   16.6997 O   0  0  0  0  0  0  0  0  0  0  0  0
   49.3548   10.3101   14.7035 C   0  0  0  0  0  0  0  0  0  0  0  0
   49.2970   10.0569   13.2879 O   0  0  0  0  0  0  0  0  0  0  0  0
  1  2  1  6  0  0  0
  1  3  1  0  0  0  0
  1  4  2  0  0  0  0
  1 16  1  0  0  0  0
  5  6  1  6  0  0  0
  5  7  1  0  0  0  0
  5 14  1  0  0  0  0
  7  8  1  6  0  0  0
  7  9  1  0  0  0  0
  9 10  1  1  0  0  0
  9 11  1  0  0  0  0
 11 12  1  6  0  0  0
 11 13  1  0  0  0  0
 13 14  1  0  0  0  0
 13 15  1  1  0  0  0
 15 16  1  0  0  0  0
M  CHG  1   3  -1
M  END
>  <CHROM.1>
-82.14341311,-179.57423878,175.62390967,48.34608608,10.81493387,14.71613535
-0.13597690,-0.72115432,2.45155424

>  <Name>
ligand

>  <RI>
0

>  <Rbt.Current_Directory>
/home/itssahil/PROJECTS/Mol_Feturizer/New_Systems/rnas/3B4C

>  <Rbt.Executable>
rbdock ($Id: //depot/dev/client3/rdock/2013.1/src/exe/rbdock.cxx#4 $)

>  <Rbt.Library>
libRbt.so (2013.1, Build901 2013/11/27)

>  <Rbt.Parameter_File>
/export/apps/rDock/src/rDock_2013.1_src/data/scripts/dock_solv.prm

>  <Rbt.Receptor>
prm/pocket_docking_5.prm

>  <SCORE>
-9.90487

>  <SCORE.INTER>
-9.18369

>  <SCORE.INTER.CONST>
1

>  <SCORE.INTER.POLAR>
-1.29904

>  <SCORE.INTER.ROT>
3

>  <SCORE.INTER.SOLV>
17.4064

>  <SCORE.INTER.VDW>
-13.1945

>  <SCORE.INTER.norm>
-0.57398

>  <SCORE.INTRA>
-0.721183

>  <SCORE.INTRA.DIHEDRAL>
-0.521247

>  <SCORE.INTRA.DIHEDRAL.0>
2.1318

>  <SCORE.INTRA.POLAR>
0

>  <SCORE.INTRA.POLAR.0>
0

>  <SCORE.INTRA.REPUL>
0

>  <SCORE.INTRA.REPUL.0>
0

>  <SCORE.INTRA.SOLV>
-0.153547

>  <SCORE.INTRA.SOLV.lig_0>
-58.6125

>  <SCORE.INTRA.VDW>
-0.383787

>  <SCORE.INTRA.VDW.0>
-0.432734

>  <SCORE.INTRA.norm>
-0.045074

>  <SCORE.RESTR>
0

>  <SCORE.RESTR.CAVITY>
0

>  <SCORE.RESTR.norm>
0

>  <SCORE.SYSTEM>
0

>  <SCORE.SYSTEM.CONST>
0

>  <SCORE.SYSTEM.DIHEDRAL>
0

>  <SCORE.SYSTEM.SOLV>
0

>  <SCORE.SYSTEM.norm>
0

>  <SCORE.heavy>
16

>  <SCORE.norm>
-0.619054

>  <RMSD>
2.217

$$$$
ligand
 OpenBabel11021811463D
libRbt.so/2013.1/901 2013/11/27
 16 16  0  0  0  0  0  0  0  0999 V2000
   50.6953    9.7403   12.6901 P   0  0  2  0  0  0  0  0  0  0  0  0
   50.5729    9.2759   11.2863 O   0  0  0  0  0  0  0  0  0  0  0  0
   51.5661   11.0925   12.7346 O   0  5  0  0  0  0  0  0  0  0  0  0
   51.4480    8.6062   13.5544 O   0  0  0  0  0  0  0  0  0  0  0  0
   46.7632   10.7576   17.4051 C   0  0  2  0  0  0  0  0  0  0  0  0
   45.8826    9.6950   17.0214 O   0  0  0  0  0  0  0  0  0  0  0  0
   46.1537   12.1345   17.0356 C   0  0  2  0  0  0  0  0  0  0  0  0
   44.8483   12.2975   17.7036 N   0  0  0  0  0  0  0  0  0  0  0  0
   45.9751   12.1979   15.5094 C   0  0  1  0  0  0  0  0  0  0  0  0
   45.4302   13.4643   15.1295 O   0  0  0  0  0  0  0  0  0  0  0  0
   47.3504   12.0214   14.8681 C   0  0  2  0  0  0  0  0  0  0  0  0
   47.2075   12.0744   13.4544 O   0  0  0  0  0  0  0  0  0  0  0  0
   47.9269   10.6437   15.2944 C   0  0  2  0  0  0  0  0  0  0  0  0
   48.0550   10.5753   16.7478 O   0  0  0  0  0  0  0  0  0  0  0  0
   49.3279   10.4215   14.6729 C   0  0  0  0  0  0  0  0  0  0  0  0
   49.2184   10.0206   13.2950 O   0  0  0  0  0  0  0  0  0  0  0  0
  1  2  1  6  0  0  0
  1  3  1  0  0  0  0
  1  4  2  0  0  0  0
  1 16  1  0  0  0  0
  5  6  1  6  0  0  0
  5  7  1  0  0  0  0
  5 14  1  0  0  0  0
  7  8  1  1  0  0  0
  7  9  1  0  0  0  0
  9 10  1  1  0  0  0
  9 11  1  0  0  0  0
 11 12  1  6  0  0  0
 11 13  1  0  0  0  0
 13 14  1  0  0  0  0
 13 15  1  6  0  0  0
 15 16  1  0  0  0  0
M  CHG  1   3  -1
M  END
>  <CHROM.1>
-78.83210558,-177.80943486,177.77537654,48.27031815,10.82458111,14.68215275
-0.30121235,-0.68563033,2.19481555

>  <Name>
ligand

>  <RI>
0

>  <Rbt.Current_Directory>
/home/itssahil/PROJECTS/Mol_Feturizer/New_Systems/rnas/3B4C

>  <Rbt.Executable>
rbdock ($Id: //depot/dev/client3/rdock/2013.1/src/exe/rbdock.cxx#4 $)

>  <Rbt.Library>
libRbt.so (2013.1, Build901 2013/11/27)

>  <Rbt.Parameter_File>
/export/apps/rDock/src/rDock_2013.1_src/data/scripts/dock_solv.prm

>  <Rbt.Receptor>
prm/pocket_docking_7.prm

>  <SCORE>
-10.4457

>  <SCORE.INTER>
-9.54369

>  <SCORE.INTER.CONST>
1

>  <SCORE.INTER.POLAR>
-1.29904

>  <SCORE.INTER.ROT>
3

>  <SCORE.INTER.SOLV>
17.0755

>  <SCORE.INTER.VDW>
-13.3242

>  <SCORE.INTER.norm>
-0.596481

>  <SCORE.INTRA>
-0.902001

>  <SCORE.INTRA.DIHEDRAL>
-0.921799

>  <SCORE.INTRA.DIHEDRAL.0>
2.1318

>  <SCORE.INTRA.POLAR>
0

>  <SCORE.INTRA.POLAR.0>
0

>  <SCORE.INTRA.REPUL>
0

>  <SCORE.INTRA.REPUL.0>
0

>  <SCORE.INTRA.SOLV>
-0.136727

>  <SCORE.INTRA.SOLV.lig_0>
-58.6125

>  <SCORE.INTRA.VDW>
-0.372738

>  <SCORE.INTRA.VDW.0>
-0.432734

>  <SCORE.INTRA.norm>
-0.0563751

>  <SCORE.RESTR>
0

>  <SCORE.RESTR.CAVITY>
0

>  <SCORE.RESTR.norm>
0

>  <SCORE.SYSTEM>
0

>  <SCORE.SYSTEM.CONST>
0

>  <SCORE.SYSTEM.DIHEDRAL>
0

>  <SCORE.SYSTEM.SOLV>
0

>  <SCORE.SYSTEM.norm>
0

>  <SCORE.heavy>
16

>  <SCORE.norm>
-0.652856

>  <RMSD>
2.235

$$$$
ligand
 OpenBabel11021811463D
libRbt.so/2013.1/901 2013/11/27
 16 16  0  0  0  0  0  0  0  0999 V2000
   50.7208    9.7360   12.6630 P   0  0  2  0  0  0  0  0  0  0  0  0
   50.5408    9.3974   11.2298 O   0  0  0  0  0  0  0  0  0  0  0  0
   51.5157   11.1291   12.7902 O   0  5  0  0  0  0  0  0  0  0  0  0
   51.5862    8.5748   13.3719 O   0  0  0  0  0  0  0  0  0  0  0  0
   47.0453   10.8387   17.5904 C   0  0  2  0  0  0  0  0  0  0  0  0
   46.3713    9.5751   17.5596 O   0  0  0  0  0  0  0  0  0  0  0  0
   46.1485   11.9525   16.9911 C   0  0  2  0  0  0  0  0  0  0  0  0
   44.8856   12.0378   17.7491 N   0  0  0  0  0  0  0  0  0  0  0  0
   45.8571   11.6091   15.5206 C   0  0  1  0  0  0  0  0  0  0  0  0
   45.0450   12.6266   14.9288 O   0  0  0  0  0  0  0  0  0  0  0  0
   47.1929   11.5300   14.7835 C   0  0  2  0  0  0  0  0  0  0  0  0
   46.9463   11.2106   13.4201 O   0  0  0  0  0  0  0  0  0  0  0  0
   48.0615   10.4234   15.4417 C   0  0  2  0  0  0  0  0  0  0  0  0
   48.2996   10.7352   16.8486 O   0  0  0  0  0  0  0  0  0  0  0  0
   49.4329   10.3101   14.7312 C   0  0  0  0  0  0  0  0  0  0  0  0
   49.2694    9.8676   13.3714 O   0  0  0  0  0  0  0  0  0  0  0  0
  1  2  1  6  0  0  0
  1  3  1  0  0  0  0
  1  4  2  0  0  0  0
  1 16  1  0  0  0  0
  5  6  1  6  0  0  0
  5  7  1  0  0  0  0
  5 14  1  0  0  0  0
  7  8  1  1  0  0  0
  7  9  1  0  0  0  0
  9 10  1  6  0  0  0
  9 11  1  0  0  0  0
 11 12  1  6  0  0  0
 11 13  1  0  0  0  0
 13 14  1  0  0  0  0
 13 15  1  6  0  0  0
 15 16  1  0  0  0  0
M  CHG  1   3  -1
M  END
>  <CHROM.1>
-64.95159581,-179.08870840,-174.99761371,48.30067225,10.62393181,14.71452713
0.54677261,0.52416326,-1.28969454

>  <Name>
ligand

>  <RI>
0

>  <Rbt.Current_Directory>
/home/itssahil/PROJECTS/Mol_Feturizer/New_Systems/rnas/3B4C

>  <Rbt.Executable>
rbdock ($Id: //depot/dev/client3/rdock/2013.1/src/exe/rbdock.cxx#4 $)

>  <Rbt.Library>
libRbt.so (2013.1, Build901 2013/11/27)

>  <Rbt.Parameter_File>
/export/apps/rDock/src/rDock_2013.1_src/data/scripts/dock_solv.prm

>  <Rbt.Receptor>
prm/pocket_docking_7.prm

>  <SCORE>
-11.2224

>  <SCORE.INTER>
-10.055

>  <SCORE.INTER.CONST>
1

>  <SCORE.INTER.POLAR>
-1.29904

>  <SCORE.INTER.ROT>
3

>  <SCORE.INTER.SOLV>
18.119

>  <SCORE.INTER.VDW>
-14.0129

>  <SCORE.INTER.norm>
-0.628437

>  <SCORE.INTRA>
-1.16742

>  <SCORE.INTRA.DIHEDRAL>
-1.99626

>  <SCORE.INTRA.DIHEDRAL.0>
2.1318

>  <SCORE.INTRA.POLAR>
0

>  <SCORE.INTRA.POLAR.0>
0

>  <SCORE.INTRA.REPUL>
0

>  <SCORE.INTRA.REPUL.0>
0

>  <SCORE.INTRA.SOLV>
0.0125984

>  <SCORE.INTRA.SOLV.lig_0>
-58.6125

>  <SCORE.INTRA.VDW>
-0.175588

>  <SCORE.INTRA.VDW.0>
-0.432734

>  <SCORE.INTRA.norm>
-0.0729637

>  <SCORE.RESTR>
0

>  <SCORE.RESTR.CAVITY>
0

>  <SCORE.RESTR.norm>
0

>  <SCORE.SYSTEM>
0

>  <SCORE.SYSTEM.CONST>
0

>  <SCORE.SYSTEM.DIHEDRAL>
0

>  <SCORE.SYSTEM.SOLV>
0

>  <SCORE.SYSTEM.norm>
0

>  <SCORE.heavy>
16

>  <SCORE.norm>
-0.7014

>  <RMSD>
2.238

$$$$
ligand
 OpenBabel11021811463D
libRbt.so/2013.1/901 2013/11/27
 16 16  0  0  0  0  0  0  0  0999 V2000
   50.6575    9.6343   12.8151 P   0  0  2  0  0  0  0  0  0  0  0  0
   51.4201    8.6299   13.5966 O   0  0  0  0  0  0  0  0  0  0  0  0
   50.4894    9.1210   11.2995 O   0  5  0  0  0  0  0  0  0  0  0  0
   51.4745   11.0243   12.8079 O   0  0  0  0  0  0  0  0  0  0  0  0
   46.9362   10.9886   17.6419 C   0  0  2  0  0  0  0  0  0  0  0  0
   46.2610    9.7254   17.6571 O   0  0  0  0  0  0  0  0  0  0  0  0
   46.0464   12.0775   16.9888 C   0  0  2  0  0  0  0  0  0  0  0  0
   44.7766   12.1951   17.7309 N   0  0  0  0  0  0  0  0  0  0  0  0
   45.7681   11.6738   15.5311 C   0  0  1  0  0  0  0  0  0  0  0  0
   44.9627   12.6667   14.8903 O   0  0  0  0  0  0  0  0  0  0  0  0
   47.1106   11.5631   14.8103 C   0  0  2  0  0  0  0  0  0  0  0  0
   46.8760   11.1878   13.4590 O   0  0  0  0  0  0  0  0  0  0  0  0
   47.9716   10.4839   15.5217 C   0  0  2  0  0  0  0  0  0  0  0  0
   48.1971   10.8534   16.9166 O   0  0  0  0  0  0  0  0  0  0  0  0
   49.3494   10.3401   14.8291 C   0  0  0  0  0  0  0  0  0  0  0  0
   49.1977    9.8435   13.4868 O   0  0  0  0  0  0  0  0  0  0  0  0
  1  2  1  1  0  0  0
  1  3  1  0  0  0  0
  1  4  2  0  0  0  0
  1 16  1  0  0  0  0
  5  6  1  6  0  0  0
  5  7  1  0  0  0  0
  5 14  1  0  0  0  0
  7  8  1  1  0  0  0
  7  9  1  0  0  0  0
  9 10  1  6  0  0  0
  9 11  1  0  0  0  0
 11 12  1  6  0  0  0
 11 13  1  0  0  0  0
 13 14  1  0  0  0  0
 13 15  1  6  0  0  0
 15 16  1  0  0  0  0
M  CHG  1   3  -1
M  END
>  <CHROM.1>
-64.88208356,-177.20772650,61.52696024,48.21363238,10.64011915,14.78390041
-0.54647834,-0.52227406,1.80009834

>  <Name>
ligand

>  <RI>
0

>  <Rbt.Current_Directory>
/home/itssahil/PROJECTS/Mol_Feturizer/New_Systems/rnas/3B4C

>  <Rbt.Executable>
rbdock ($Id: //depot/dev/client3/rdock/2013.1/src/exe/rbdock.cxx#4 $)

>  <Rbt.Library>
libRbt.so (2013.1, Build901 2013/11/27)

>  <Rbt.Parameter_File>
/export/apps/rDock/src/rDock_2013.1_src/data/scripts/dock_solv.prm

>  <Rbt.Receptor>
prm/pocket_docking_6.prm

>  <SCORE>
-10.7365

>  <SCORE.INTER>
-9.32448

>  <SCORE.INTER.CONST>
1

>  <SCORE.INTER.POLAR>
-1.03624

>  <SCORE.INTER.ROT>
3

>  <SCORE.INTER.SOLV>
17.5607

>  <SCORE.INTER.VDW>
-14.2158

>  <SCORE.INTER.norm>
-0.58278

>  <SCORE.INTRA>
-1.41199

>  <SCORE.INTRA.DIHEDRAL>
-2.00247

>  <SCORE.INTRA.DIHEDRAL.0>
2.1318

>  <SCORE.INTRA.POLAR>
0

>  <SCORE.INTRA.POLAR.0>
0

>  <SCORE.INTRA.REPUL>
0

>  <SCORE.INTRA.REPUL.0>
0

>  <SCORE.INTRA.SOLV>
-0.642584

>  <SCORE.INTRA.SOLV.lig_0>
-58.6125

>  <SCORE.INTRA.VDW>
-0.0894576

>  <SCORE.INTRA.VDW.0>
-0.432734

>  <SCORE.INTRA.norm>
-0.0882491

>  <SCORE.RESTR>
0

>  <SCORE.RESTR.CAVITY>
0

>  <SCORE.RESTR.norm>
0

>  <SCORE.SYSTEM>
0

>  <SCORE.SYSTEM.CONST>
0

>  <SCORE.SYSTEM.DIHEDRAL>
0

>  <SCORE.SYSTEM.SOLV>
0

>  <SCORE.SYSTEM.norm>
0

>  <SCORE.heavy>
16

>  <SCORE.norm>
-0.671029

>  <RMSD>
2.251

$$$$
ligand
 OpenBabel11021811463D
libRbt.so/2013.1/901 2013/11/27
 16 16  0  0  0  0  0  0  0  0999 V2000
   50.7189    9.5777   12.7479 P   0  0  2  0  0  0  0  0  0  0  0  0
   51.4325    8.5729   13.5740 O   0  0  0  0  0  0  0  0  0  0  0  0
   50.5603    9.0233   11.2458 O   0  5  0  0  0  0  0  0  0  0  0  0
   51.5833   10.9383   12.7135 O   0  0  0  0  0  0  0  0  0  0  0  0
   46.9602   10.8594   17.5536 C   0  0  2  0  0  0  0  0  0  0  0  0
   46.2266    9.6332   17.4535 O   0  0  0  0  0  0  0  0  0  0  0  0
   46.1359   12.0394   16.9772 C   0  0  2  0  0  0  0  0  0  0  0  0
   44.8579   12.1574   17.7048 N   0  0  0  0  0  0  0  0  0  0  0  0
   45.8696   11.7693   15.4867 C   0  0  1  0  0  0  0  0  0  0  0  0
   45.1249   12.8487   14.9161 O   0  0  0  0  0  0  0  0  0  0  0  0
   47.2202   11.6530   14.7821 C   0  0  2  0  0  0  0  0  0  0  0  0
   46.9966   11.4005   13.4008 O   0  0  0  0  0  0  0  0  0  0  0  0
   48.0149   10.4793   15.4170 C   0  0  2  0  0  0  0  0  0  0  0  0
   48.2283   10.7230   16.8412 O   0  0  0  0  0  0  0  0  0  0  0  0
   49.3987   10.3261   14.7385 C   0  0  0  0  0  0  0  0  0  0  0  0
   49.2556    9.8571   13.3853 O   0  0  0  0  0  0  0  0  0  0  0  0
  1  2  1  1  0  0  0
  1  3  1  0  0  0  0
  1  4  2  0  0  0  0
  1 16  1  0  0  0  0
  5  6  1  6  0  0  0
  5  7  1  0  0  0  0
  5 14  1  0  0  0  0
  7  8  1  1  0  0  0
  7  9  1  0  0  0  0
  9 10  1  6  0  0  0
  9 11  1  0  0  0  0
 11 12  1  6  0  0  0
 11 13  1  0  0  0  0
 13 14  1  0  0  0  0
 13 15  1  6  0  0  0
 15 16  1  0  0  0  0
M  CHG  1   3  -1
M  END
>  <CHROM.1>
-68.93454464,-174.86045203,58.63838631,48.28105728,10.62752651,14.71781767
-0.49213182,-0.57811910,1.89460921

>  <Name>
ligand

>  <RI>
0

>  <Rbt.Current_Directory>
/home/itssahil/PROJECTS/Mol_Feturizer/New_Systems/rnas/3B4C

>  <Rbt.Executable>
rbdock ($Id: //depot/dev/client3/rdock/2013.1/src/exe/rbdock.cxx#4 $)

>  <Rbt.Library>
libRbt.so (2013.1, Build901 2013/11/27)

>  <Rbt.Parameter_File>
/export/apps/rDock/src/rDock_2013.1_src/data/scripts/dock_solv.prm

>  <Rbt.Receptor>
prm/pocket_docking_8.prm

>  <SCORE>
-10.6261

>  <SCORE.INTER>
-9.26009

>  <SCORE.INTER.CONST>
1

>  <SCORE.INTER.POLAR>
-1.03923

>  <SCORE.INTER.ROT>
3

>  <SCORE.INTER.SOLV>
17.0334

>  <SCORE.INTER.VDW>
-13.9871

>  <SCORE.INTER.norm>
-0.578756

>  <SCORE.INTRA>
-1.36596

>  <SCORE.INTRA.DIHEDRAL>
-1.71653

>  <SCORE.INTRA.DIHEDRAL.0>
2.1318

>  <SCORE.INTRA.POLAR>
0

>  <SCORE.INTRA.POLAR.0>
0

>  <SCORE.INTRA.REPUL>
0

>  <SCORE.INTRA.REPUL.0>
0

>  <SCORE.INTRA.SOLV>
-0.738678

>  <SCORE.INTRA.SOLV.lig_0>
-58.6125

>  <SCORE.INTRA.VDW>
-0.13836

>  <SCORE.INTRA.VDW.0>
-0.432734

>  <SCORE.INTRA.norm>
-0.0853727

>  <SCORE.RESTR>
0

>  <SCORE.RESTR.CAVITY>
0

>  <SCORE.RESTR.norm>
0

>  <SCORE.SYSTEM>
0

>  <SCORE.SYSTEM.CONST>
0

>  <SCORE.SYSTEM.DIHEDRAL>
0

>  <SCORE.SYSTEM.SOLV>
0

>  <SCORE.SYSTEM.norm>
0

>  <SCORE.heavy>
16

>  <SCORE.norm>
-0.664128

>  <RMSD>
2.259

$$$$
ligand
 OpenBabel11021811463D
libRbt.so/2013.1/901 2013/11/27
 16 16  0  0  0  0  0  0  0  0999 V2000
   50.5092    9.6018   12.4605 P   0  0  2  0  0  0  0  0  0  0  0  0
   50.8847   10.9980   12.1276 O   0  0  0  0  0  0  0  0  0  0  0  0
   51.6706    8.9304   13.3489 O   0  5  0  0  0  0  0  0  0  0  0  0
   50.3463    8.7620   11.0937 O   0  0  0  0  0  0  0  0  0  0  0  0
   47.0432   10.9554   17.4783 C   0  0  2  0  0  0  0  0  0  0  0  0
   46.4843    9.6476   17.6489 O   0  0  0  0  0  0  0  0  0  0  0  0
   46.0190   11.9053   16.8056 C   0  0  2  0  0  0  0  0  0  0  0  0
   44.7969   11.9843   17.6284 N   0  0  0  0  0  0  0  0  0  0  0  0
   45.6794   11.3519   15.4114 C   0  0  1  0  0  0  0  0  0  0  0  0
   44.7483   12.2145   14.7525 O   0  0  0  0  0  0  0  0  0  0  0  0
   46.9746   11.2876   14.6037 C   0  0  2  0  0  0  0  0  0  0  0  0
   46.6832   10.7754   13.3096 O   0  0  0  0  0  0  0  0  0  0  0  0
   47.9733   10.3501   15.3357 C   0  0  2  0  0  0  0  0  0  0  0  0
   48.2592   10.8597   16.6744 O   0  0  0  0  0  0  0  0  0  0  0  0
   49.3084   10.2584   14.5562 C   0  0  0  0  0  0  0  0  0  0  0  0
   49.1171    9.6020   13.2897 O   0  0  0  0  0  0  0  0  0  0  0  0
  1  2  1  6  0  0  0
  1  3  1  0  0  0  0
  1  4  2  0  0  0  0
  1 16  1  0  0  0  0
  5  6  1  6  0  0  0
  5  7  1  0  0  0  0
  5 14  1  0  0  0  0
  7  8  1  1  0  0  0
  7  9  1  0  0  0  0
  9 10  1  6  0  0  0
  9 11  1  0  0  0  0
 11 12  1  6  0  0  0
 11 13  1  0  0  0  0
 13 14  1  0  0  0  0
 13 15  1  6  0  0  0
 15 16  1  0  0  0  0
M  CHG  1   3  -1
M  END
>  <CHROM.1>
-66.38604675,176.56712932,-64.88343287,48.14339518,10.49139642,14.55652101
0.65145783,0.44090723,-1.46827694

>  <Name>
ligand

>  <RI>
0

>  <Rbt.Current_Directory>
/home/itssahil/PROJECTS/Mol_Feturizer/New_Systems/rnas/3B4C

>  <Rbt.Executable>
rbdock ($Id: //depot/dev/client3/rdock/2013.1/src/exe/rbdock.cxx#4 $)

>  <Rbt.Library>
libRbt.so (2013.1, Build901 2013/11/27)

>  <Rbt.Parameter_File>
/export/apps/rDock/src/rDock_2013.1_src/data/scripts/dock_solv.prm

>  <Rbt.Receptor>
prm/pocket_docking_7.prm

>  <SCORE>
-10.8158

>  <SCORE.INTER>
-9.44322

>  <SCORE.INTER.CONST>
1

>  <SCORE.INTER.POLAR>
-1.29904

>  <SCORE.INTER.ROT>
3

>  <SCORE.INTER.SOLV>
19.551

>  <SCORE.INTER.VDW>
-14.0824

>  <SCORE.INTER.norm>
-0.590201

>  <SCORE.INTRA>
-1.37257

>  <SCORE.INTRA.DIHEDRAL>
-1.88968

>  <SCORE.INTRA.DIHEDRAL.0>
2.1318

>  <SCORE.INTRA.POLAR>
0

>  <SCORE.INTRA.POLAR.0>
0

>  <SCORE.INTRA.REPUL>
0

>  <SCORE.INTRA.REPUL.0>
0

>  <SCORE.INTRA.SOLV>
-0.555367

>  <SCORE.INTRA.SOLV.lig_0>
-58.6125

>  <SCORE.INTRA.VDW>
-0.150047

>  <SCORE.INTRA.VDW.0>
-0.432734

>  <SCORE.INTRA.norm>
-0.0857857

>  <SCORE.RESTR>
0

>  <SCORE.RESTR.CAVITY>
0

>  <SCORE.RESTR.norm>
0

>  <SCORE.SYSTEM>
0

>  <SCORE.SYSTEM.CONST>
0

>  <SCORE.SYSTEM.DIHEDRAL>
0

>  <SCORE.SYSTEM.SOLV>
0

>  <SCORE.SYSTEM.norm>
0

>  <SCORE.heavy>
16

>  <SCORE.norm>
-0.675987

>  <RMSD>
2.272

$$$$
ligand
 OpenBabel11021811463D
libRbt.so/2013.1/901 2013/11/27
 16 16  0  0  0  0  0  0  0  0999 V2000
   50.6679    9.7785   13.1887 P   0  0  2  0  0  0  0  0  0  0  0  0
   51.4805    8.5781   13.5052 O   0  0  0  0  0  0  0  0  0  0  0  0
   50.1177    9.6723   11.6804 O   0  5  0  0  0  0  0  0  0  0  0  0
   51.5977   11.0897   13.3139 O   0  0  0  0  0  0  0  0  0  0  0  0
   46.6716   11.0541   17.1494 C   0  0  2  0  0  0  0  0  0  0  0  0
   45.8370    9.9194   16.8893 O   0  0  0  0  0  0  0  0  0  0  0  0
   45.8737   12.3722   16.9754 C   0  0  2  0  0  0  0  0  0  0  0  0
   44.7163   12.3791   17.8903 N   0  0  0  0  0  0  0  0  0  0  0  0
   45.3923   12.4649   15.5176 C   0  0  1  0  0  0  0  0  0  0  0  0
   44.6659   13.6801   15.3152 O   0  0  0  0  0  0  0  0  0  0  0  0
   46.6245   12.4509   14.6146 C   0  0  2  0  0  0  0  0  0  0  0  0
   46.2011   12.5335   13.2597 O   0  0  0  0  0  0  0  0  0  0  0  0
   47.4013   11.1269   14.8507 C   0  0  2  0  0  0  0  0  0  0  0  0
   47.8196   11.0263   16.2465 O   0  0  0  0  0  0  0  0  0  0  0  0
   48.6668   11.0695   13.9597 C   0  0  0  0  0  0  0  0  0  0  0  0
   49.4217    9.8721   14.2202 O   0  0  0  0  0  0  0  0  0  0  0  0
  1  2  1  1  0  0  0
  1  3  1  0  0  0  0
  1  4  2  0  0  0  0
  1 16  1  0  0  0  0
  5  6  1  6  0  0  0
  5  7  1  0  0  0  0
  5 14  1  0  0  0  0
  7  8  1  1  0  0  0
  7  9  1  0  0  0  0
  9 10  1  1  0  0  0
  9 11  1  0  0  0  0
 11 12  1  6  0  0  0
 11 13  1  0  0  0  0
 13 14  1  0  0  0  0
 13 15  1  6  0  0  0
 15 16  1  0  0  0  0
M  CHG  1   3  -1
M  END
>  <CHROM.1>
177.36894381,175.23676161,177.21865195,47.96678042,11.05783445,14.73880192
-0.24781755,-0.61338794,2.07512997

>  <Name>
ligand

>  <RI>
0

>  <Rbt.Current_Directory>
/home/itssahil/PROJECTS/Mol_Feturizer/New_Systems/rnas/3B4C

>  <Rbt.Executable>
rbdock ($Id: //depot/dev/client3/rdock/2013.1/src/exe/rbdock.cxx#4 $)

>  <Rbt.Library>
libRbt.so (2013.1, Build901 2013/11/27)

>  <Rbt.Parameter_File>
/export/apps/rDock/src/rDock_2013.1_src/data/scripts/dock_solv.prm

>  <Rbt.Receptor>
prm/pocket_docking_7.prm

>  <SCORE>
-8.85996

>  <SCORE.INTER>
-7.46164

>  <SCORE.INTER.CONST>
1

>  <SCORE.INTER.POLAR>
-1.03842

>  <SCORE.INTER.ROT>
3

>  <SCORE.INTER.SOLV>
16.5629

>  <SCORE.INTER.VDW>
-12.634

>  <SCORE.INTER.norm>
-0.466353

>  <SCORE.INTRA>
-1.39832

>  <SCORE.INTRA.DIHEDRAL>
-1.98188

>  <SCORE.INTRA.DIHEDRAL.0>
2.1318

>  <SCORE.INTRA.POLAR>
0

>  <SCORE.INTRA.POLAR.0>
0

>  <SCORE.INTRA.REPUL>
0

>  <SCORE.INTRA.REPUL.0>
0

>  <SCORE.INTRA.SOLV>
-0.380023

>  <SCORE.INTRA.SOLV.lig_0>
-58.6125

>  <SCORE.INTRA.VDW>
-0.217373

>  <SCORE.INTRA.VDW.0>
-0.432734

>  <SCORE.INTRA.norm>
-0.0873952

>  <SCORE.RESTR>
0

>  <SCORE.RESTR.CAVITY>
0

>  <SCORE.RESTR.norm>
0

>  <SCORE.SYSTEM>
0

>  <SCORE.SYSTEM.CONST>
0

>  <SCORE.SYSTEM.DIHEDRAL>
0

>  <SCORE.SYSTEM.SOLV>
0

>  <SCORE.SYSTEM.norm>
0

>  <SCORE.heavy>
16

>  <SCORE.norm>
-0.553748

>  <RMSD>
2.277

$$$$
ligand
 OpenBabel11021811463D
libRbt.so/2013.1/901 2013/11/27
 16 16  0  0  0  0  0  0  0  0999 V2000
   50.7488    9.6892   13.0541 P   0  0  2  0  0  0  0  0  0  0  0  0
   51.6115    8.5160   13.3382 O   0  0  0  0  0  0  0  0  0  0  0  0
   50.1469    9.5659   11.5670 O   0  5  0  0  0  0  0  0  0  0  0  0
   51.6391   11.0302   13.1473 O   0  0  0  0  0  0  0  0  0  0  0  0
   46.9149   11.0815   17.1880 C   0  0  2  0  0  0  0  0  0  0  0  0
   46.2094    9.8367   17.1210 O   0  0  0  0  0  0  0  0  0  0  0  0
   45.9584   12.2689   16.9065 C   0  0  2  0  0  0  0  0  0  0  0  0
   44.8548   12.2633   17.8856 N   0  0  0  0  0  0  0  0  0  0  0  0
   45.3984   12.1202   15.4819 C   0  0  1  0  0  0  0  0  0  0  0  0
   44.5236   13.2106   15.1802 O   0  0  0  0  0  0  0  0  0  0  0  0
   46.5776   12.1288   14.5107 C   0  0  2  0  0  0  0  0  0  0  0  0
   46.0815   11.9898   13.1854 O   0  0  0  0  0  0  0  0  0  0  0  0
   47.5171   10.9411   14.8557 C   0  0  2  0  0  0  0  0  0  0  0  0
   48.0124   11.0671   16.2239 O   0  0  0  0  0  0  0  0  0  0  0  0
   48.7351   10.9121   13.8996 C   0  0  0  0  0  0  0  0  0  0  0  0
   49.5393    9.7412   14.1311 O   0  0  0  0  0  0  0  0  0  0  0  0
  1  2  1  1  0  0  0
  1  3  1  0  0  0  0
  1  4  2  0  0  0  0
  1 16  1  0  0  0  0
  5  6  1  6  0  0  0
  5  7  1  0  0  0  0
  5 14  1  0  0  0  0
  7  8  1  1  0  0  0
  7  9  1  0  0  0  0
  9 10  1  6  0  0  0
  9 11  1  0  0  0  0
 11 12  1  6  0  0  0
 11 13  1  0  0  0  0
 13 14  1  0  0  0  0
 13 15  1  6  0  0  0
 15 16  1  0  0  0  0
M  CHG  1   3  -1
M  END
>  <CHROM.1>
-174.42803641,176.32859524,177.30931997,48.04853973,10.89399053,14.67611485
-0.38212229,-0.54956582,1.88064223

>  <Name>
ligand

>  <RI>
0

>  <Rbt.Current_Directory>
/home/itssahil/PROJECTS/Mol_Feturizer/New_Systems/rnas/3B4C

>  <Rbt.Executable>
rbdock ($Id: //depot/dev/client3/rdock/2013.1/src/exe/rbdock.cxx#4 $)

>  <Rbt.Library>
libRbt.so (2013.1, Build901 2013/11/27)

>  <Rbt.Parameter_File>
/export/apps/rDock/src/rDock_2013.1_src/data/scripts/dock_solv.prm

>  <Rbt.Receptor>
prm/pocket_docking_8.prm

>  <SCORE>
-8.9826

>  <SCORE.INTER>
-7.57389

>  <SCORE.INTER.CONST>
1

>  <SCORE.INTER.POLAR>
-1.03923

>  <SCORE.INTER.ROT>
3

>  <SCORE.INTER.SOLV>
17.212

>  <SCORE.INTER.VDW>
-12.9225

>  <SCORE.INTER.norm>
-0.473368

>  <SCORE.INTRA>
-1.40871

>  <SCORE.INTRA.DIHEDRAL>
-1.93858

>  <SCORE.INTRA.DIHEDRAL.0>
2.1318

>  <SCORE.INTRA.POLAR>
0

>  <SCORE.INTRA.POLAR.0>
0

>  <SCORE.INTRA.REPUL>
0

>  <SCORE.INTRA.REPUL.0>
0

>  <SCORE.INTRA.SOLV>
-0.407168

>  <SCORE.INTRA.SOLV.lig_0>
-58.6125

>  <SCORE.INTRA.VDW>
-0.235841

>  <SCORE.INTRA.VDW.0>
-0.432734

>  <SCORE.INTRA.norm>
-0.0880446

>  <SCORE.RESTR>
0

>  <SCORE.RESTR.CAVITY>
0

>  <SCORE.RESTR.norm>
0

>  <SCORE.SYSTEM>
0

>  <SCORE.SYSTEM.CONST>
0

>  <SCORE.SYSTEM.DIHEDRAL>
0

>  <SCORE.SYSTEM.SOLV>
0

>  <SCORE.SYSTEM.norm>
0

>  <SCORE.heavy>
16

>  <SCORE.norm>
-0.561413

>  <RMSD>
2.292

$$$$
ligand
 OpenBabel11021811463D
libRbt.so/2013.1/901 2013/11/27
 16 16  0  0  0  0  0  0  0  0999 V2000
   50.6305    9.6105   12.6170 P   0  0  2  0  0  0  0  0  0  0  0  0
   50.4261    9.1036   11.2376 O   0  0  0  0  0  0  0  0  0  0  0  0
   51.4014   11.0217   12.5621 O   0  5  0  0  0  0  0  0  0  0  0  0
   51.5325    8.5544   13.4359 O   0  0  0  0  0  0  0  0  0  0  0  0
   47.0588   10.9063   17.5710 C   0  0  2  0  0  0  0  0  0  0  0  0
   46.3817    9.6442   17.5893 O   0  0  0  0  0  0  0  0  0  0  0  0
   46.1517   12.0056   16.9603 C   0  0  2  0  0  0  0  0  0  0  0  0
   44.9053   12.1150   17.7421 N   0  0  0  0  0  0  0  0  0  0  0  0
   45.8286   11.6225   15.5062 C   0  0  1  0  0  0  0  0  0  0  0  0
   45.0062   12.6255   14.9039 O   0  0  0  0  0  0  0  0  0  0  0  0
   47.1484   11.5196   14.7436 C   0  0  2  0  0  0  0  0  0  0  0  0
   46.8723   11.1634   13.3950 O   0  0  0  0  0  0  0  0  0  0  0  0
   48.0284   10.4293   15.4137 C   0  0  2  0  0  0  0  0  0  0  0  0
   48.2968   10.7792   16.8061 O   0  0  0  0  0  0  0  0  0  0  0  0
   49.3843   10.2929   14.6778 C   0  0  0  0  0  0  0  0  0  0  0  0
   49.1923    9.8005   13.3390 O   0  0  0  0  0  0  0  0  0  0  0  0
  1  2  1  6  0  0  0
  1  3  1  0  0  0  0
  1  4  2  0  0  0  0
  1 16  1  0  0  0  0
  5  6  1  6  0  0  0
  5  7  1  0  0  0  0
  5 14  1  0  0  0  0
  7  8  1  1  0  0  0
  7  9  1  0  0  0  0
  9 10  1  6  0  0  0
  9 11  1  0  0  0  0
 11 12  1  6  0  0  0
 11 13  1  0  0  0  0
 13 14  1  0  0  0  0
 13 15  1  6  0  0  0
 15 16  1  0  0  0  0
M  CHG  1   3  -1
M  END
>  <CHROM.1>
-65.54388334,-177.66843176,-179.96827979,48.25383683,10.59165164,14.68273148
0.56471947,0.53646931,-1.33156943

>  <Name>
ligand

>  <RI>
0

>  <Rbt.Current_Directory>
/home/itssahil/PROJECTS/Mol_Feturizer/New_Systems/rnas/3B4C

>  <Rbt.Executable>
rbdock ($Id: //depot/dev/client3/rdock/2013.1/src/exe/rbdock.cxx#4 $)

>  <Rbt.Library>
libRbt.so (2013.1, Build901 2013/11/27)

>  <Rbt.Parameter_File>
/export/apps/rDock/src/rDock_2013.1_src/data/scripts/dock_solv.prm

>  <Rbt.Receptor>
prm/pocket_docking_5.prm

>  <SCORE>
-11.3751

>  <SCORE.INTER>
-10.1717

>  <SCORE.INTER.CONST>
1

>  <SCORE.INTER.POLAR>
-1.29904

>  <SCORE.INTER.ROT>
3

>  <SCORE.INTER.SOLV>
18.3246

>  <SCORE.INTER.VDW>
-14.1592

>  <SCORE.INTER.norm>
-0.63573

>  <SCORE.INTRA>
-1.20342

>  <SCORE.INTRA.DIHEDRAL>
-1.99393

>  <SCORE.INTRA.DIHEDRAL.0>
2.1318

>  <SCORE.INTRA.POLAR>
0

>  <SCORE.INTRA.POLAR.0>
0

>  <SCORE.INTRA.REPUL>
0

>  <SCORE.INTRA.REPUL.0>
0

>  <SCORE.INTRA.SOLV>
-0.00424494

>  <SCORE.INTRA.SOLV.lig_0>
-58.6125

>  <SCORE.INTRA.VDW>
-0.204331

>  <SCORE.INTRA.VDW.0>
-0.432734

>  <SCORE.INTRA.norm>
-0.0752138

>  <SCORE.RESTR>
0

>  <SCORE.RESTR.CAVITY>
0

>  <SCORE.RESTR.norm>
0

>  <SCORE.SYSTEM>
0

>  <SCORE.SYSTEM.CONST>
0

>  <SCORE.SYSTEM.DIHEDRAL>
0

>  <SCORE.SYSTEM.SOLV>
0

>  <SCORE.SYSTEM.norm>
0

>  <SCORE.heavy>
16

>  <SCORE.norm>
-0.710944

>  <RMSD>
2.317

$$$$
ligand
 OpenBabel11021811463D
libRbt.so/2013.1/901 2013/11/27
 16 16  0  0  0  0  0  0  0  0999 V2000
   50.6943    9.7842   12.8878 P   0  0  2  0  0  0  0  0  0  0  0  0
   51.6534    8.7359   13.3149 O   0  0  0  0  0  0  0  0  0  0  0  0
   50.1666    9.4571   11.4034 O   0  5  0  0  0  0  0  0  0  0  0  0
   51.4475   11.2096   12.8717 O   0  0  0  0  0  0  0  0  0  0  0  0
   46.8256   10.9777   16.9660 C   0  0  2  0  0  0  0  0  0  0  0  0
   45.9880    9.8356   16.7520 O   0  0  0  0  0  0  0  0  0  0  0  0
   46.0092   12.2888   16.8301 C   0  0  2  0  0  0  0  0  0  0  0  0
   44.9004   12.2891   17.8034 N   0  0  0  0  0  0  0  0  0  0  0  0
   45.4526   12.3736   15.3989 C   0  0  1  0  0  0  0  0  0  0  0  0
   44.7069   13.5823   15.2312 O   0  0  0  0  0  0  0  0  0  0  0  0
   46.6367   12.3669   14.4336 C   0  0  2  0  0  0  0  0  0  0  0  0
   46.1436   12.4423   13.1021 O   0  0  0  0  0  0  0  0  0  0  0  0
   47.4355   11.0499   14.6326 C   0  0  2  0  0  0  0  0  0  0  0  0
   47.9259   10.9565   16.0052 O   0  0  0  0  0  0  0  0  0  0  0  0
   48.6539   11.0001   13.6778 C   0  0  0  0  0  0  0  0  0  0  0  0
   49.4434    9.8207   13.9173 O   0  0  0  0  0  0  0  0  0  0  0  0
  1  2  1  1  0  0  0
  1  3  1  0  0  0  0
  1  4  2  0  0  0  0
  1 16  1  0  0  0  0
  5  6  1  6  0  0  0
  5  7  1  0  0  0  0
  5 14  1  0  0  0  0
  7  8  1  1  0  0  0
  7  9  1  0  0  0  0
  9 10  1  1  0  0  0
  9 11  1  0  0  0  0
 11 12  1  6  0  0  0
 11 13  1  0  0  0  0
 13 14  1  0  0  0  0
 13 15  1  6  0  0  0
 15 16  1  0  0  0  0
M  CHG  1   3  -1
M  END
>  <CHROM.1>
176.40172275,179.03552463,168.27733718,48.02119842,11.00737092,14.52130729
-0.29791552,-0.61353556,2.04242725

>  <Name>
ligand

>  <RI>
0

>  <Rbt.Current_Directory>
/home/itssahil/PROJECTS/Mol_Feturizer/New_Systems/rnas/3B4C

>  <Rbt.Executable>
rbdock ($Id: //depot/dev/client3/rdock/2013.1/src/exe/rbdock.cxx#4 $)

>  <Rbt.Library>
libRbt.so (2013.1, Build901 2013/11/27)

>  <Rbt.Parameter_File>
/export/apps/rDock/src/rDock_2013.1_src/data/scripts/dock_solv.prm

>  <Rbt.Receptor>
prm/pocket_docking_5.prm

>  <SCORE>
-8.86276

>  <SCORE.INTER>
-7.59239

>  <SCORE.INTER.CONST>
1

>  <SCORE.INTER.POLAR>
-1.03444

>  <SCORE.INTER.ROT>
3

>  <SCORE.INTER.SOLV>
15.9442

>  <SCORE.INTER.VDW>
-12.5282

>  <SCORE.INTER.norm>
-0.474524

>  <SCORE.INTRA>
-1.27037

>  <SCORE.INTRA.DIHEDRAL>
-1.86339

>  <SCORE.INTRA.DIHEDRAL.0>
2.1318

>  <SCORE.INTRA.POLAR>
0

>  <SCORE.INTRA.POLAR.0>
0

>  <SCORE.INTRA.REPUL>
0

>  <SCORE.INTRA.REPUL.0>
0

>  <SCORE.INTRA.SOLV>
-0.375447

>  <SCORE.INTRA.SOLV.lig_0>
-58.6125

>  <SCORE.INTRA.VDW>
-0.150951

>  <SCORE.INTRA.VDW.0>
-0.432734

>  <SCORE.INTRA.norm>
-0.0793982

>  <SCORE.RESTR>
0

>  <SCORE.RESTR.CAVITY>
0

>  <SCORE.RESTR.norm>
0

>  <SCORE.SYSTEM>
0

>  <SCORE.SYSTEM.CONST>
0

>  <SCORE.SYSTEM.DIHEDRAL>
0

>  <SCORE.SYSTEM.SOLV>
0

>  <SCORE.SYSTEM.norm>
0

>  <SCORE.heavy>
16

>  <SCORE.norm>
-0.553923

>  <RMSD>
2.361

$$$$
ligand
 OpenBabel11021811463D
libRbt.so/2013.1/901 2013/11/27
 16 16  0  0  0  0  0  0  0  0999 V2000
   52.0866   11.6740   15.1090 P   0  0  2  0  0  0  0  0  0  0  0  0
   53.0620   12.7518   15.4057 O   0  0  0  0  0  0  0  0  0  0  0  0
   52.4550   10.3645   15.9683 O   0  5  0  0  0  0  0  0  0  0  0  0
   52.1687   11.3091   13.5406 O   0  0  0  0  0  0  0  0  0  0  0  0
   46.5009   12.7600   14.5274 C   0  0  2  0  0  0  0  0  0  0  0  0
   46.3781   13.6739   15.6235 O   0  0  0  0  0  0  0  0  0  0  0  0
   45.5050   11.5818   14.6826 C   0  0  2  0  0  0  0  0  0  0  0  0
   44.1256   12.1005   14.7525 N   0  0  0  0  0  0  0  0  0  0  0  0
   45.8460   10.8185   15.9736 C   0  0  1  0  0  0  0  0  0  0  0  0
   44.9567    9.7111   16.1404 O   0  0  0  0  0  0  0  0  0  0  0  0
   47.2803   10.3069   15.8514 C   0  0  2  0  0  0  0  0  0  0  0  0
   47.6173    9.5990   17.0377 O   0  0  0  0  0  0  0  0  0  0  0  0
   48.2298   11.5221   15.6676 C   0  0  2  0  0  0  0  0  0  0  0  0
   47.8741   12.2659   14.4620 O   0  0  0  0  0  0  0  0  0  0  0  0
   49.6992   11.0519   15.5315 C   0  0  0  0  0  0  0  0  0  0  0  0
   50.5949   12.1778   15.4918 O   0  0  0  0  0  0  0  0  0  0  0  0
  1  2  1  1  0  0  0
  1  3  1  0  0  0  0
  1  4  2  0  0  0  0
  1 16  1  0  0  0  0
  5  6  1  1  0  0  0
  5  7  1  0  0  0  0
  5 14  1  0  0  0  0
  7  8  1  1  0  0  0
  7  9  1  0  0  0  0
  9 10  1  6  0  0  0
  9 11  1  0  0  0  0
 11 12  1  1  0  0  0
 11 13  1  0  0  0  0
 13 14  1  0  0  0  0
 13 15  1  6  0  0  0
 15 16  1  0  0  0  0
M  CHG  1   3  -1
M  END
>  <CHROM.1>
-174.39956575,-170.83860503,-165.55866899,48.74348006,11.49410848,15.35006240
0.05624569,0.02853548,-0.49486800

>  <Name>
ligand

>  <RI>
0

>  <Rbt.Current_Directory>
/home/itssahil/PROJECTS/Mol_Feturizer/New_Systems/rnas/3B4C

>  <Rbt.Executable>
rbdock ($Id: //depot/dev/client3/rdock/2013.1/src/exe/rbdock.cxx#4 $)

>  <Rbt.Library>
libRbt.so (2013.1, Build901 2013/11/27)

>  <Rbt.Parameter_File>
/export/apps/rDock/src/rDock_2013.1_src/data/scripts/dock_solv.prm

>  <Rbt.Receptor>
prm/pocket_docking_4.prm

>  <SCORE>
-7.53664

>  <SCORE.INTER>
-6.59472

>  <SCORE.INTER.CONST>
1

>  <SCORE.INTER.POLAR>
-1.29476

>  <SCORE.INTER.ROT>
3

>  <SCORE.INTER.SOLV>
16.7709

>  <SCORE.INTER.VDW>
-11.2709

>  <SCORE.INTER.norm>
-0.41217

>  <SCORE.INTRA>
-0.941919

>  <SCORE.INTRA.DIHEDRAL>
-1.27767

>  <SCORE.INTRA.DIHEDRAL.0>
2.1318

>  <SCORE.INTRA.POLAR>
0

>  <SCORE.INTRA.POLAR.0>
0

>  <SCORE.INTRA.REPUL>
0

>  <SCORE.INTRA.REPUL.0>
0

>  <SCORE.INTRA.SOLV>
-0.342966

>  <SCORE.INTRA.SOLV.lig_0>
-58.6125

>  <SCORE.INTRA.VDW>
-0.1316

>  <SCORE.INTRA.VDW.0>
-0.432734

>  <SCORE.INTRA.norm>
-0.0588699

>  <SCORE.RESTR>
0

>  <SCORE.RESTR.CAVITY>
0

>  <SCORE.RESTR.norm>
0

>  <SCORE.SYSTEM>
0

>  <SCORE.SYSTEM.CONST>
0

>  <SCORE.SYSTEM.DIHEDRAL>
0

>  <SCORE.SYSTEM.SOLV>
0

>  <SCORE.SYSTEM.norm>
0

>  <SCORE.heavy>
16

>  <SCORE.norm>
-0.47104

>  <RMSD>
2.364

$$$$
ligand
 OpenBabel11021811463D
libRbt.so/2013.1/901 2013/11/27
 16 16  0  0  0  0  0  0  0  0999 V2000
   50.5988    9.7499   12.9042 P   0  0  2  0  0  0  0  0  0  0  0  0
   50.0384    9.4532   11.5628 O   0  0  0  0  0  0  0  0  0  0  0  0
   51.3680   11.1625   12.8646 O   0  5  0  0  0  0  0  0  0  0  0  0
   51.6504    8.5939   13.3010 O   0  0  0  0  0  0  0  0  0  0  0  0
   46.8151   11.0141   17.0698 C   0  0  2  0  0  0  0  0  0  0  0  0
   46.0087    9.8418   16.9045 O   0  0  0  0  0  0  0  0  0  0  0  0
   45.9583   12.2959   16.9051 C   0  0  2  0  0  0  0  0  0  0  0  0
   44.8640   12.2949   17.8947 N   0  0  0  0  0  0  0  0  0  0  0  0
   45.3791   12.3187   15.4805 C   0  0  1  0  0  0  0  0  0  0  0  0
   44.5957   13.4993   15.2863 O   0  0  0  0  0  0  0  0  0  0  0  0
   46.5490   12.3158   14.4981 C   0  0  2  0  0  0  0  0  0  0  0  0
   46.0349   12.3343   13.1725 O   0  0  0  0  0  0  0  0  0  0  0  0
   47.3892   11.0296   14.7262 C   0  0  2  0  0  0  0  0  0  0  0  0
   47.9016   10.9944   16.0935 O   0  0  0  0  0  0  0  0  0  0  0  0
   48.5948   10.9848   13.7550 C   0  0  0  0  0  0  0  0  0  0  0  0
   49.3960    9.8122   13.9881 O   0  0  0  0  0  0  0  0  0  0  0  0
  1  2  1  6  0  0  0
  1  3  1  0  0  0  0
  1  4  2  0  0  0  0
  1 16  1  0  0  0  0
  5  6  1  6  0  0  0
  5  7  1  0  0  0  0
  5 14  1  0  0  0  0
  7  8  1  1  0  0  0
  7  9  1  0  0  0  0
  9 10  1  1  0  0  0
  9 11  1  0  0  0  0
 11 12  1  6  0  0  0
 11 13  1  0  0  0  0
 13 14  1  0  0  0  0
 13 15  1  6  0  0  0
 15 16  1  0  0  0  0
M  CHG  1   3  -1
M  END
>  <CHROM.1>
178.44036324,176.80526930,-69.89004724,47.95971113,10.97623685,14.59083005
-0.32275264,-0.60996199,2.00282078

>  <Name>
ligand

>  <RI>
0

>  <Rbt.Current_Directory>
/home/itssahil/PROJECTS/Mol_Feturizer/New_Systems/rnas/3B4C

>  <Rbt.Executable>
rbdock ($Id: //depot/dev/client3/rdock/2013.1/src/exe/rbdock.cxx#4 $)

>  <Rbt.Library>
libRbt.so (2013.1, Build901 2013/11/27)

>  <Rbt.Parameter_File>
/export/apps/rDock/src/rDock_2013.1_src/data/scripts/dock_solv.prm

>  <Rbt.Receptor>
prm/pocket_docking_6.prm

>  <SCORE>
-10.3132

>  <SCORE.INTER>
-8.80133

>  <SCORE.INTER.CONST>
1

>  <SCORE.INTER.POLAR>
-1.29904

>  <SCORE.INTER.ROT>
3

>  <SCORE.INTER.SOLV>
17.007

>  <SCORE.INTER.VDW>
-12.8064

>  <SCORE.INTER.norm>
-0.550083

>  <SCORE.INTRA>
-1.51183

>  <SCORE.INTRA.DIHEDRAL>
-1.9162

>  <SCORE.INTRA.DIHEDRAL.0>
2.1318

>  <SCORE.INTRA.POLAR>
0

>  <SCORE.INTRA.POLAR.0>
0

>  <SCORE.INTRA.REPUL>
0

>  <SCORE.INTRA.REPUL.0>
0

>  <SCORE.INTRA.SOLV>
-0.93292

>  <SCORE.INTRA.SOLV.lig_0>
-58.6125

>  <SCORE.INTRA.VDW>
-0.0872692

>  <SCORE.INTRA.VDW.0>
-0.432734

>  <SCORE.INTRA.norm>
-0.0944892

>  <SCORE.RESTR>
0

>  <SCORE.RESTR.CAVITY>
0

>  <SCORE.RESTR.norm>
0

>  <SCORE.SYSTEM>
0

>  <SCORE.SYSTEM.CONST>
0

>  <SCORE.SYSTEM.DIHEDRAL>
0

>  <SCORE.SYSTEM.SOLV>
0

>  <SCORE.SYSTEM.norm>
0

>  <SCORE.heavy>
16

>  <SCORE.norm>
-0.644572

>  <RMSD>
2.377

$$$$
ligand
 OpenBabel11021811463D
libRbt.so/2013.1/901 2013/11/27
 16 16  0  0  0  0  0  0  0  0999 V2000
   50.5704    9.7748   12.9524 P   0  0  2  0  0  0  0  0  0  0  0  0
   50.0456    9.5025   11.5916 O   0  0  0  0  0  0  0  0  0  0  0  0
   51.3611   11.1761   12.9528 O   0  5  0  0  0  0  0  0  0  0  0  0
   51.5928    8.5986   13.3658 O   0  0  0  0  0  0  0  0  0  0  0  0
   46.7041   11.0393   17.0288 C   0  0  2  0  0  0  0  0  0  0  0  0
   45.8721    9.8915   16.8240 O   0  0  0  0  0  0  0  0  0  0  0  0
   45.8841   12.3456   16.8701 C   0  0  2  0  0  0  0  0  0  0  0  0
   44.7685   12.3546   17.8356 N   0  0  0  0  0  0  0  0  0  0  0  0
   45.3373   12.4095   15.4340 C   0  0  1  0  0  0  0  0  0  0  0  0
   44.5885   13.6133   15.2453 O   0  0  0  0  0  0  0  0  0  0  0  0
   46.5281   12.3945   14.4772 C   0  0  2  0  0  0  0  0  0  0  0  0
   46.0440   12.4507   13.1414 O   0  0  0  0  0  0  0  0  0  0  0  0
   47.3301   11.0830   14.6990 C   0  0  2  0  0  0  0  0  0  0  0  0
   47.8112   11.0095   16.0761 O   0  0  0  0  0  0  0  0  0  0  0  0
   48.5553   11.0251   13.7534 C   0  0  0  0  0  0  0  0  0  0  0  0
   49.3371    9.8424   14.0013 O   0  0  0  0  0  0  0  0  0  0  0  0
  1  2  1  6  0  0  0
  1  3  1  0  0  0  0
  1  4  2  0  0  0  0
  1 16  1  0  0  0  0
  5  6  1  6  0  0  0
  5  7  1  0  0  0  0
  5 14  1  0  0  0  0
  7  8  1  1  0  0  0
  7  9  1  0  0  0  0
  9 10  1  1  0  0  0
  9 11  1  0  0  0  0
 11 12  1  6  0  0  0
 11 13  1  0  0  0  0
 13 14  1  0  0  0  0
 13 15  1  6  0  0  0
 15 16  1  0  0  0  0
M  CHG  1   3  -1
M  END
>  <CHROM.1>
177.19845018,177.37084053,-69.51387496,47.91120031,11.02515915,14.58614861
-0.28147840,-0.61708842,2.04409391

>  <Name>
ligand

>  <RI>
0

>  <Rbt.Current_Directory>
/home/itssahil/PROJECTS/Mol_Feturizer/New_Systems/rnas/3B4C

>  <Rbt.Executable>
rbdock ($Id: //depot/dev/client3/rdock/2013.1/src/exe/rbdock.cxx#4 $)

>  <Rbt.Library>
libRbt.so (2013.1, Build901 2013/11/27)

>  <Rbt.Parameter_File>
/export/apps/rDock/src/rDock_2013.1_src/data/scripts/dock_solv.prm

>  <Rbt.Receptor>
prm/pocket_docking_4.prm

>  <SCORE>
-10.3027

>  <SCORE.INTER>
-8.78934

>  <SCORE.INTER.CONST>
1

>  <SCORE.INTER.POLAR>
-1.29845

>  <SCORE.INTER.ROT>
3

>  <SCORE.INTER.SOLV>
16.7055

>  <SCORE.INTER.VDW>
-12.6999

>  <SCORE.INTER.norm>
-0.549334

>  <SCORE.INTRA>
-1.51337

>  <SCORE.INTRA.DIHEDRAL>
-1.92466

>  <SCORE.INTRA.DIHEDRAL.0>
2.1318

>  <SCORE.INTRA.POLAR>
0

>  <SCORE.INTRA.POLAR.0>
0

>  <SCORE.INTRA.REPUL>
0

>  <SCORE.INTRA.REPUL.0>
0

>  <SCORE.INTRA.SOLV>
-0.928593

>  <SCORE.INTRA.SOLV.lig_0>
-58.6125

>  <SCORE.INTRA.VDW>
-0.0867478

>  <SCORE.INTRA.VDW.0>
-0.432734

>  <SCORE.INTRA.norm>
-0.0945859

>  <SCORE.RESTR>
0

>  <SCORE.RESTR.CAVITY>
0

>  <SCORE.RESTR.norm>
0

>  <SCORE.SYSTEM>
0

>  <SCORE.SYSTEM.CONST>
0

>  <SCORE.SYSTEM.DIHEDRAL>
0

>  <SCORE.SYSTEM.SOLV>
0

>  <SCORE.SYSTEM.norm>
0

>  <SCORE.heavy>
16

>  <SCORE.norm>
-0.64392

>  <RMSD>
2.378

$$$$
ligand
 OpenBabel11021811463D
libRbt.so/2013.1/901 2013/11/27
 16 16  0  0  0  0  0  0  0  0999 V2000
   50.5650    9.5851   12.4562 P   0  0  2  0  0  0  0  0  0  0  0  0
   50.3730    8.8452   11.1846 O   0  0  0  0  0  0  0  0  0  0  0  0
   51.1815   11.0382   12.1444 O   0  5  0  0  0  0  0  0  0  0  0  0
   51.5975    8.7690   13.3875 O   0  0  0  0  0  0  0  0  0  0  0  0
   47.0344   10.7524   17.4567 C   0  0  2  0  0  0  0  0  0  0  0  0
   46.2454    9.5659   17.3095 O   0  0  0  0  0  0  0  0  0  0  0  0
   46.2406   11.9995   16.9890 C   0  0  2  0  0  0  0  0  0  0  0  0
   44.9971   12.1223   17.7733 N   0  0  0  0  0  0  0  0  0  0  0  0
   45.9071   11.8369   15.4964 C   0  0  1  0  0  0  0  0  0  0  0  0
   45.1887   12.9800   15.0249 O   0  0  0  0  0  0  0  0  0  0  0  0
   47.2240   11.7113   14.7322 C   0  0  2  0  0  0  0  0  0  0  0  0
   46.9380   11.5574   13.3478 O   0  0  0  0  0  0  0  0  0  0  0  0
   47.9907   10.4679   15.2597 C   0  0  2  0  0  0  0  0  0  0  0  0
   48.2677   10.6107   16.6867 O   0  0  0  0  0  0  0  0  0  0  0  0
   49.3400   10.3025   14.5178 C   0  0  0  0  0  0  0  0  0  0  0  0
   49.1376    9.7459   13.2061 O   0  0  0  0  0  0  0  0  0  0  0  0
  1  2  1  6  0  0  0
  1  3  1  0  0  0  0
  1  4  2  0  0  0  0
  1 16  1  0  0  0  0
  5  6  1  6  0  0  0
  5  7  1  0  0  0  0
  5 14  1  0  0  0  0
  7  8  1  1  0  0  0
  7  9  1  0  0  0  0
  9 10  1  6  0  0  0
  9 11  1  0  0  0  0
 11 12  1  6  0  0  0
 11 13  1  0  0  0  0
 13 14  1  0  0  0  0
 13 15  1  6  0  0  0
 15 16  1  0  0  0  0
M  CHG  1   3  -1
M  END
>  <CHROM.1>
-77.13068912,-179.99715175,172.40524456,48.24634441,10.63079697,14.58028529
-0.49743733,-0.63555991,1.95331827

>  <Name>
ligand

>  <RI>
0

>  <Rbt.Current_Directory>
/home/itssahil/PROJECTS/Mol_Feturizer/New_Systems/rnas/3B4C

>  <Rbt.Executable>
rbdock ($Id: //depot/dev/client3/rdock/2013.1/src/exe/rbdock.cxx#4 $)

>  <Rbt.Library>
libRbt.so (2013.1, Build901 2013/11/27)

>  <Rbt.Parameter_File>
/export/apps/rDock/src/rDock_2013.1_src/data/scripts/dock_solv.prm

>  <Rbt.Receptor>
prm/pocket_docking_7.prm

>  <SCORE>
-10.9177

>  <SCORE.INTER>
-9.99705

>  <SCORE.INTER.CONST>
1

>  <SCORE.INTER.POLAR>
-1.29903

>  <SCORE.INTER.ROT>
3

>  <SCORE.INTER.SOLV>
17.8174

>  <SCORE.INTER.VDW>
-13.8737

>  <SCORE.INTER.norm>
-0.624816

>  <SCORE.INTRA>
-0.920646

>  <SCORE.INTRA.DIHEDRAL>
-1.05103

>  <SCORE.INTRA.DIHEDRAL.0>
2.1318

>  <SCORE.INTRA.POLAR>
0

>  <SCORE.INTRA.POLAR.0>
0

>  <SCORE.INTRA.REPUL>
0

>  <SCORE.INTRA.REPUL.0>
0

>  <SCORE.INTRA.SOLV>
-0.0982071

>  <SCORE.INTRA.SOLV.lig_0>
-58.6125

>  <SCORE.INTRA.VDW>
-0.346026

>  <SCORE.INTRA.VDW.0>
-0.432734

>  <SCORE.INTRA.norm>
-0.0575404

>  <SCORE.RESTR>
0

>  <SCORE.RESTR.CAVITY>
0

>  <SCORE.RESTR.norm>
0

>  <SCORE.SYSTEM>
0

>  <SCORE.SYSTEM.CONST>
0

>  <SCORE.SYSTEM.DIHEDRAL>
0

>  <SCORE.SYSTEM.SOLV>
0

>  <SCORE.SYSTEM.norm>
0

>  <SCORE.heavy>
16

>  <SCORE.norm>
-0.682356

>  <RMSD>
2.385

$$$$
ligand
 OpenBabel11021811463D
libRbt.so/2013.1/901 2013/11/27
 16 16  0  0  0  0  0  0  0  0999 V2000
   50.6537    9.7017   12.8616 P   0  0  2  0  0  0  0  0  0  0  0  0
   50.1835    9.4497   11.4771 O   0  0  0  0  0  0  0  0  0  0  0  0
   51.4666   11.0894   12.9087 O   0  5  0  0  0  0  0  0  0  0  0  0
   51.6378    8.5050   13.3075 O   0  0  0  0  0  0  0  0  0  0  0  0
   46.6802   10.9842   16.8373 C   0  0  2  0  0  0  0  0  0  0  0  0
   45.8077    9.8864   16.5450 O   0  0  0  0  0  0  0  0  0  0  0  0
   45.9280   12.3331   16.7006 C   0  0  2  0  0  0  0  0  0  0  0  0
   44.7705   12.3536   17.6152 N   0  0  0  0  0  0  0  0  0  0  0  0
   45.4517   12.4835   15.2460 C   0  0  1  0  0  0  0  0  0  0  0  0
   44.7675   13.7280   15.0781 O   0  0  0  0  0  0  0  0  0  0  0  0
   46.6837   12.4531   14.3432 C   0  0  2  0  0  0  0  0  0  0  0  0
   46.2650   12.5885   12.9911 O   0  0  0  0  0  0  0  0  0  0  0  0
   47.4147   11.0972   14.5417 C   0  0  2  0  0  0  0  0  0  0  0  0
   47.8277   10.9428   15.9342 O   0  0  0  0  0  0  0  0  0  0  0  0
   48.6785   11.0219   13.6497 C   0  0  0  0  0  0  0  0  0  0  0  0
   49.3777    9.7811   13.8572 O   0  0  0  0  0  0  0  0  0  0  0  0
  1  2  1  6  0  0  0
  1  3  1  0  0  0  0
  1  4  2  0  0  0  0
  1 16  1  0  0  0  0
  5  6  1  6  0  0  0
  5  7  1  0  0  0  0
  5 14  1  0  0  0  0
  7  8  1  1  0  0  0
  7  9  1  0  0  0  0
  9 10  1  1  0  0  0
  9 11  1  0  0  0  0
 11 12  1  6  0  0  0
 11 13  1  0  0  0  0
 13 14  1  0  0  0  0
 13 15  1  6  0  0  0
 15 16  1  0  0  0  0
M  CHG  1   3  -1
M  END
>  <CHROM.1>
178.49174171,177.34916772,-73.40488030,47.99096909,11.01282801,14.44381598
-0.20715899,-0.63887703,2.13244379

>  <Name>
ligand

>  <RI>
0

>  <Rbt.Current_Directory>
/home/itssahil/PROJECTS/Mol_Feturizer/New_Systems/rnas/3B4C

>  <Rbt.Executable>
rbdock ($Id: //depot/dev/client3/rdock/2013.1/src/exe/rbdock.cxx#4 $)

>  <Rbt.Library>
libRbt.so (2013.1, Build901 2013/11/27)

>  <Rbt.Parameter_File>
/export/apps/rDock/src/rDock_2013.1_src/data/scripts/dock_solv.prm

>  <Rbt.Receptor>
prm/pocket_docking_6.prm

>  <SCORE>
-10.0745

>  <SCORE.INTER>
-8.67337

>  <SCORE.INTER.CONST>
1

>  <SCORE.INTER.POLAR>
-1.29727

>  <SCORE.INTER.ROT>
3

>  <SCORE.INTER.SOLV>
15.5566

>  <SCORE.INTER.VDW>
-12.2436

>  <SCORE.INTER.norm>
-0.542086

>  <SCORE.INTRA>
-1.40109

>  <SCORE.INTRA.DIHEDRAL>
-1.80692

>  <SCORE.INTRA.DIHEDRAL.0>
2.1318

>  <SCORE.INTRA.POLAR>
0

>  <SCORE.INTRA.POLAR.0>
0

>  <SCORE.INTRA.REPUL>
0

>  <SCORE.INTRA.REPUL.0>
0

>  <SCORE.INTRA.SOLV>
-0.894393

>  <SCORE.INTRA.SOLV.lig_0>
-58.6125

>  <SCORE.INTRA.VDW>
-0.0504389

>  <SCORE.INTRA.VDW.0>
-0.432734

>  <SCORE.INTRA.norm>
-0.0875684

>  <SCORE.RESTR>
0

>  <SCORE.RESTR.CAVITY>
0

>  <SCORE.RESTR.norm>
0

>  <SCORE.SYSTEM>
0

>  <SCORE.SYSTEM.CONST>
0

>  <SCORE.SYSTEM.DIHEDRAL>
0

>  <SCORE.SYSTEM.SOLV>
0

>  <SCORE.SYSTEM.norm>
0

>  <SCORE.heavy>
16

>  <SCORE.norm>
-0.629654

>  <RMSD>
2.392

$$$$
ligand
 OpenBabel11021811463D
libRbt.so/2013.1/901 2013/11/27
 16 16  0  0  0  0  0  0  0  0999 V2000
   50.6748    9.6556   12.8184 P   0  0  2  0  0  0  0  0  0  0  0  0
   50.0245    9.3051   11.5317 O   0  0  0  0  0  0  0  0  0  0  0  0
   51.4295   11.0690   12.6715 O   0  5  0  0  0  0  0  0  0  0  0  0
   51.7595    8.5204   13.1846 O   0  0  0  0  0  0  0  0  0  0  0  0
   47.0236   11.0055   17.0764 C   0  0  2  0  0  0  0  0  0  0  0  0
   46.2964    9.7718   17.0451 O   0  0  0  0  0  0  0  0  0  0  0  0
   46.0702   12.2088   16.8593 C   0  0  2  0  0  0  0  0  0  0  0  0
   45.0273   12.2134   17.9028 N   0  0  0  0  0  0  0  0  0  0  0  0
   45.4236   12.0775   15.4700 C   0  0  1  0  0  0  0  0  0  0  0  0
   44.5491   13.1827   15.2274 O   0  0  0  0  0  0  0  0  0  0  0  0
   46.5425   12.0746   14.4299 C   0  0  2  0  0  0  0  0  0  0  0  0
   45.9657   11.9515   13.1361 O   0  0  0  0  0  0  0  0  0  0  0  0
   47.4827   10.8709   14.7114 C   0  0  2  0  0  0  0  0  0  0  0  0
   48.0610   10.9808   16.0481 O   0  0  0  0  0  0  0  0  0  0  0  0
   48.6406   10.8299   13.6838 C   0  0  0  0  0  0  0  0  0  0  0  0
   49.5499    9.7544   13.9805 O   0  0  0  0  0  0  0  0  0  0  0  0
  1  2  1  6  0  0  0
  1  3  1  0  0  0  0
  1  4  2  0  0  0  0
  1 16  1  0  0  0  0
  5  6  1  6  0  0  0
  5  7  1  0  0  0  0
  5 14  1  0  0  0  0
  7  8  1  1  0  0  0
  7  9  1  0  0  0  0
  9 10  1  6  0  0  0
  9 11  1  0  0  0  0
 11 12  1  6  0  0  0
 11 13  1  0  0  0  0
 13 14  1  0  0  0  0
 13 15  1  6  0  0  0
 15 16  1  0  0  0  0
M  CHG  1   3  -1
M  END
>  <CHROM.1>
177.20233936,175.07040112,-63.89866850,48.04472604,10.84009102,14.54781040
-0.41048209,-0.56594646,1.87477756

>  <Name>
ligand

>  <RI>
0

>  <Rbt.Current_Directory>
/home/itssahil/PROJECTS/Mol_Feturizer/New_Systems/rnas/3B4C

>  <Rbt.Executable>
rbdock ($Id: //depot/dev/client3/rdock/2013.1/src/exe/rbdock.cxx#4 $)

>  <Rbt.Library>
libRbt.so (2013.1, Build901 2013/11/27)

>  <Rbt.Parameter_File>
/export/apps/rDock/src/rDock_2013.1_src/data/scripts/dock_solv.prm

>  <Rbt.Receptor>
prm/pocket_docking_7.prm

>  <SCORE>
-10.3609

>  <SCORE.INTER>
-8.77308

>  <SCORE.INTER.CONST>
1

>  <SCORE.INTER.POLAR>
-1.29904

>  <SCORE.INTER.ROT>
3

>  <SCORE.INTER.SOLV>
17.4369

>  <SCORE.INTER.VDW>
-12.9309

>  <SCORE.INTER.norm>
-0.548318

>  <SCORE.INTRA>
-1.5878

>  <SCORE.INTRA.DIHEDRAL>
-1.95891

>  <SCORE.INTRA.DIHEDRAL.0>
2.1318

>  <SCORE.INTRA.POLAR>
0

>  <SCORE.INTRA.POLAR.0>
0

>  <SCORE.INTRA.REPUL>
0

>  <SCORE.INTRA.REPUL.0>
0

>  <SCORE.INTRA.SOLV>
-0.999671

>  <SCORE.INTRA.SOLV.lig_0>
-58.6125

>  <SCORE.INTRA.VDW>
-0.108507

>  <SCORE.INTRA.VDW.0>
-0.432734

>  <SCORE.INTRA.norm>
-0.0992374

>  <SCORE.RESTR>
0

>  <SCORE.RESTR.CAVITY>
0

>  <SCORE.RESTR.norm>
0

>  <SCORE.SYSTEM>
0

>  <SCORE.SYSTEM.CONST>
0

>  <SCORE.SYSTEM.DIHEDRAL>
0

>  <SCORE.SYSTEM.SOLV>
0

>  <SCORE.SYSTEM.norm>
0

>  <SCORE.heavy>
16

>  <SCORE.norm>
-0.647555

>  <RMSD>
2.396

$$$$
ligand
 OpenBabel11021811463D
libRbt.so/2013.1/901 2013/11/27
 16 16  0  0  0  0  0  0  0  0999 V2000
   50.3920    9.8635   13.1061 P   0  0  2  0  0  0  0  0  0  0  0  0
   49.0354    9.2634   13.1325 O   0  0  0  0  0  0  0  0  0  0  0  0
   50.7345   10.3518   11.6117 O   0  5  0  0  0  0  0  0  0  0  0  0
   51.4681    8.7480   13.5502 O   0  0  0  0  0  0  0  0  0  0  0  0
   46.9799   11.2711   16.5713 C   0  0  2  0  0  0  0  0  0  0  0  0
   46.7017    9.9026   16.2523 O   0  0  0  0  0  0  0  0  0  0  0  0
   45.7923   12.1808   16.1637 C   0  0  2  0  0  0  0  0  0  0  0  0
   44.5667   11.7419   16.8579 N   0  0  0  0  0  0  0  0  0  0  0  0
   45.5987   12.0812   14.6412 C   0  0  1  0  0  0  0  0  0  0  0  0
   44.5201   12.9235   14.2258 O   0  0  0  0  0  0  0  0  0  0  0  0
   46.8925   12.5423   13.9723 C   0  0  2  0  0  0  0  0  0  0  0  0
   46.7357   12.4558   12.5617 O   0  0  0  0  0  0  0  0  0  0  0  0
   48.0515   11.6191   14.4376 C   0  0  2  0  0  0  0  0  0  0  0  0
   48.2027   11.6870   15.8888 O   0  0  0  0  0  0  0  0  0  0  0  0
   49.3896   12.0529   13.7897 C   0  0  0  0  0  0  0  0  0  0  0  0
   50.4412   11.1272   14.1192 O   0  0  0  0  0  0  0  0  0  0  0  0
  1  2  1  1  0  0  0
  1  3  1  0  0  0  0
  1  4  2  0  0  0  0
  1 16  1  0  0  0  0
  5  6  1  6  0  0  0
  5  7  1  0  0  0  0
  5 14  1  0  0  0  0
  7  8  1  1  0  0  0
  7  9  1  0  0  0  0
  9 10  1  6  0  0  0
  9 11  1  0  0  0  0
 11 12  1  6  0  0  0
 11 13  1  0  0  0  0
 13 14  1  0  0  0  0
 13 15  1  6  0  0  0
 15 16  1  0  0  0  0
M  CHG  1   3  -1
M  END
>  <CHROM.1>
-174.65870731,83.30831438,-54.52589577,48.07888770,11.10481847,14.29431551
-0.22147332,-0.53956319,2.01345346

>  <Name>
ligand

>  <RI>
0

>  <Rbt.Current_Directory>
/home/itssahil/PROJECTS/Mol_Feturizer/New_Systems/rnas/3B4C

>  <Rbt.Executable>
rbdock ($Id: //depot/dev/client3/rdock/2013.1/src/exe/rbdock.cxx#4 $)

>  <Rbt.Library>
libRbt.so (2013.1, Build901 2013/11/27)

>  <Rbt.Parameter_File>
/export/apps/rDock/src/rDock_2013.1_src/data/scripts/dock_solv.prm

>  <Rbt.Receptor>
prm/pocket_docking_6.prm

>  <SCORE>
-8.11769

>  <SCORE.INTER>
-7.89427

>  <SCORE.INTER.CONST>
1

>  <SCORE.INTER.POLAR>
-1.29869

>  <SCORE.INTER.ROT>
3

>  <SCORE.INTER.SOLV>
13.9128

>  <SCORE.INTER.VDW>
-11.1715

>  <SCORE.INTER.norm>
-0.493392

>  <SCORE.INTRA>
-0.223415

>  <SCORE.INTRA.DIHEDRAL>
0.389802

>  <SCORE.INTRA.DIHEDRAL.0>
2.1318

>  <SCORE.INTRA.POLAR>
0

>  <SCORE.INTRA.POLAR.0>
0

>  <SCORE.INTRA.REPUL>
0

>  <SCORE.INTRA.REPUL.0>
0

>  <SCORE.INTRA.SOLV>
-0.232586

>  <SCORE.INTRA.SOLV.lig_0>
-58.6125

>  <SCORE.INTRA.VDW>
-0.302023

>  <SCORE.INTRA.VDW.0>
-0.432734

>  <SCORE.INTRA.norm>
-0.0139634

>  <SCORE.RESTR>
0

>  <SCORE.RESTR.CAVITY>
0

>  <SCORE.RESTR.norm>
0

>  <SCORE.SYSTEM>
0

>  <SCORE.SYSTEM.CONST>
0

>  <SCORE.SYSTEM.DIHEDRAL>
0

>  <SCORE.SYSTEM.SOLV>
0

>  <SCORE.SYSTEM.norm>
0

>  <SCORE.heavy>
16

>  <SCORE.norm>
-0.507355

>  <RMSD>
2.398

$$$$
ligand
 OpenBabel11021811463D
libRbt.so/2013.1/901 2013/11/27
 16 16  0  0  0  0  0  0  0  0999 V2000
   50.6440    9.6462   12.8152 P   0  0  2  0  0  0  0  0  0  0  0  0
   50.1339    9.3189   11.4609 O   0  0  0  0  0  0  0  0  0  0  0  0
   51.4448   11.0409   12.7650 O   0  5  0  0  0  0  0  0  0  0  0  0
   51.6527    8.4821   13.2916 O   0  0  0  0  0  0  0  0  0  0  0  0
   46.7165   11.1019   16.7687 C   0  0  2  0  0  0  0  0  0  0  0  0
   45.8863    9.9465   16.6029 O   0  0  0  0  0  0  0  0  0  0  0  0
   45.9010   12.4001   16.5369 C   0  0  2  0  0  0  0  0  0  0  0  0
   44.7698   12.4540   17.4825 N   0  0  0  0  0  0  0  0  0  0  0  0
   45.3780   12.3987   15.0906 C   0  0  1  0  0  0  0  0  0  0  0  0
   44.6342   13.5931   14.8347 O   0  0  0  0  0  0  0  0  0  0  0  0
   46.5844   12.3390   14.1552 C   0  0  2  0  0  0  0  0  0  0  0  0
   46.1224   12.3344   12.8105 O   0  0  0  0  0  0  0  0  0  0  0  0
   47.3807   11.0386   14.4499 C   0  0  2  0  0  0  0  0  0  0  0  0
   47.8390   11.0278   15.8368 O   0  0  0  0  0  0  0  0  0  0  0  0
   48.6212   10.9366   13.5284 C   0  0  0  0  0  0  0  0  0  0  0  0
   49.3986    9.7673   13.8447 O   0  0  0  0  0  0  0  0  0  0  0  0
  1  2  1  6  0  0  0
  1  3  1  0  0  0  0
  1  4  2  0  0  0  0
  1 16  1  0  0  0  0
  5  6  1  6  0  0  0
  5  7  1  0  0  0  0
  5 14  1  0  0  0  0
  7  8  1  1  0  0  0
  7  9  1  0  0  0  0
  9 10  1  6  0  0  0
  9 11  1  0  0  0  0
 11 12  1  6  0  0  0
 11 13  1  0  0  0  0
 13 14  1  0  0  0  0
 13 15  1  6  0  0  0
 15 16  1  0  0  0  0
M  CHG  1   3  -1
M  END
>  <CHROM.1>
177.08489109,177.04985314,-68.97541453,47.96228219,10.97390356,14.34814678
-0.26316840,-0.61171794,2.00902995

>  <Name>
ligand

>  <RI>
0

>  <Rbt.Current_Directory>
/home/itssahil/PROJECTS/Mol_Feturizer/New_Systems/rnas/3B4C

>  <Rbt.Executable>
rbdock ($Id: //depot/dev/client3/rdock/2013.1/src/exe/rbdock.cxx#4 $)

>  <Rbt.Library>
libRbt.so (2013.1, Build901 2013/11/27)

>  <Rbt.Parameter_File>
/export/apps/rDock/src/rDock_2013.1_src/data/scripts/dock_solv.prm

>  <Rbt.Receptor>
prm/pocket_docking_7.prm

>  <SCORE>
-10.0796

>  <SCORE.INTER>
-8.55694

>  <SCORE.INTER.CONST>
1

>  <SCORE.INTER.POLAR>
-1.29904

>  <SCORE.INTER.ROT>
3

>  <SCORE.INTER.SOLV>
15.3496

>  <SCORE.INTER.VDW>
-12.091

>  <SCORE.INTER.norm>
-0.534809

>  <SCORE.INTRA>
-1.5227

>  <SCORE.INTRA.DIHEDRAL>
-1.92916

>  <SCORE.INTRA.DIHEDRAL.0>
2.1318

>  <SCORE.INTRA.POLAR>
0

>  <SCORE.INTRA.POLAR.0>
0

>  <SCORE.INTRA.REPUL>
0

>  <SCORE.INTRA.REPUL.0>
0

>  <SCORE.INTRA.SOLV>
-0.935724

>  <SCORE.INTRA.SOLV.lig_0>
-58.6125

>  <SCORE.INTRA.VDW>
-0.0902614

>  <SCORE.INTRA.VDW.0>
-0.432734

>  <SCORE.INTRA.norm>
-0.0951689

>  <SCORE.RESTR>
0

>  <SCORE.RESTR.CAVITY>
0

>  <SCORE.RESTR.norm>
0

>  <SCORE.SYSTEM>
0

>  <SCORE.SYSTEM.CONST>
0

>  <SCORE.SYSTEM.DIHEDRAL>
0

>  <SCORE.SYSTEM.SOLV>
0

>  <SCORE.SYSTEM.norm>
0

>  <SCORE.heavy>
16

>  <SCORE.norm>
-0.629978

>  <RMSD>
2.440

$$$$
ligand
 OpenBabel11021811463D
libRbt.so/2013.1/901 2013/11/27
 16 16  0  0  0  0  0  0  0  0999 V2000
   50.8105    9.2290   12.4748 P   0  0  2  0  0  0  0  0  0  0  0  0
   50.7303   10.1225   11.2931 O   0  0  0  0  0  0  0  0  0  0  0  0
   52.0291    9.6930   13.4174 O   0  5  0  0  0  0  0  0  0  0  0  0
   51.0826    7.7205   11.9748 O   0  0  0  0  0  0  0  0  0  0  0  0
   47.1156   10.3343   16.7578 C   0  0  2  0  0  0  0  0  0  0  0  0
   46.0767    9.4683   16.2861 O   0  0  0  0  0  0  0  0  0  0  0  0
   46.5918   11.7858   16.9093 C   0  0  2  0  0  0  0  0  0  0  0  0
   45.4529   11.8098   17.8469 N   0  0  0  0  0  0  0  0  0  0  0  0
   46.1462   12.2929   15.5274 C   0  0  1  0  0  0  0  0  0  0  0  0
   45.6726   13.6387   15.6259 O   0  0  0  0  0  0  0  0  0  0  0  0
   47.3570   12.2451   14.5970 C   0  0  2  0  0  0  0  0  0  0  0  0
   46.9657   12.7084   13.3109 O   0  0  0  0  0  0  0  0  0  0  0  0
   47.8586   10.7781   14.5055 C   0  0  2  0  0  0  0  0  0  0  0  0
   48.2412   10.2895   15.8277 O   0  0  0  0  0  0  0  0  0  0  0  0
   49.0935   10.6798   13.5760 C   0  0  0  0  0  0  0  0  0  0  0  0
   49.4194    9.3049   13.3022 O   0  0  0  0  0  0  0  0  0  0  0  0
  1  2  1  6  0  0  0
  1  3  1  0  0  0  0
  1  4  2  0  0  0  0
  1 16  1  0  0  0  0
  5  6  1  6  0  0  0
  5  7  1  0  0  0  0
  5 14  1  0  0  0  0
  7  8  1  1  0  0  0
  7  9  1  0  0  0  0
  9 10  1  1  0  0  0
  9 11  1  0  0  0  0
 11 12  1  6  0  0  0
 11 13  1  0  0  0  0
 13 14  1  0  0  0  0
 13 15  1  6  0  0  0
 15 16  1  0  0  0  0
M  CHG  1   3  -1
M  END
>  <CHROM.1>
-169.98026869,-173.41480097,-51.93820012,48.40461193,10.61462859,14.37018134
-0.09193951,-0.77866402,2.39810152

>  <Name>
ligand

>  <RI>
0

>  <Rbt.Current_Directory>
/home/itssahil/PROJECTS/Mol_Feturizer/New_Systems/rnas/3B4C

>  <Rbt.Executable>
rbdock ($Id: //depot/dev/client3/rdock/2013.1/src/exe/rbdock.cxx#4 $)

>  <Rbt.Library>
libRbt.so (2013.1, Build901 2013/11/27)

>  <Rbt.Parameter_File>
/export/apps/rDock/src/rDock_2013.1_src/data/scripts/dock_solv.prm

>  <Rbt.Receptor>
prm/pocket_docking_8.prm

>  <SCORE>
-9.76142

>  <SCORE.INTER>
-8.44428

>  <SCORE.INTER.CONST>
1

>  <SCORE.INTER.POLAR>
-1.29904

>  <SCORE.INTER.ROT>
3

>  <SCORE.INTER.SOLV>
17.3635

>  <SCORE.INTER.VDW>
-12.6872

>  <SCORE.INTER.norm>
-0.527767

>  <SCORE.INTRA>
-1.31714

>  <SCORE.INTRA.DIHEDRAL>
-1.45185

>  <SCORE.INTRA.DIHEDRAL.0>
2.1318

>  <SCORE.INTRA.POLAR>
0

>  <SCORE.INTRA.POLAR.0>
0

>  <SCORE.INTRA.REPUL>
0

>  <SCORE.INTRA.REPUL.0>
0

>  <SCORE.INTRA.SOLV>
-1.06223

>  <SCORE.INTRA.SOLV.lig_0>
-58.6125

>  <SCORE.INTRA.VDW>
-0.0600985

>  <SCORE.INTRA.VDW.0>
-0.432734

>  <SCORE.INTRA.norm>
-0.0823211

>  <SCORE.RESTR>
0

>  <SCORE.RESTR.CAVITY>
0

>  <SCORE.RESTR.norm>
0

>  <SCORE.SYSTEM>
0

>  <SCORE.SYSTEM.CONST>
0

>  <SCORE.SYSTEM.DIHEDRAL>
0

>  <SCORE.SYSTEM.SOLV>
0

>  <SCORE.SYSTEM.norm>
0

>  <SCORE.heavy>
16

>  <SCORE.norm>
-0.610088

>  <RMSD>
2.460

$$$$
ligand
 OpenBabel11021811463D
libRbt.so/2013.1/901 2013/11/27
 16 16  0  0  0  0  0  0  0  0999 V2000
   50.4994    9.4034   12.4556 P   0  0  2  0  0  0  0  0  0  0  0  0
   50.2758    8.5746   11.2454 O   0  0  0  0  0  0  0  0  0  0  0  0
   51.1075   10.8295   12.0252 O   0  5  0  0  0  0  0  0  0  0  0  0
   51.5551    8.6544   13.4169 O   0  0  0  0  0  0  0  0  0  0  0  0
   47.1372   10.9177   17.4753 C   0  0  2  0  0  0  0  0  0  0  0  0
   46.4358    9.6692   17.5074 O   0  0  0  0  0  0  0  0  0  0  0  0
   46.2276   12.0428   16.9179 C   0  0  2  0  0  0  0  0  0  0  0  0
   45.0185   12.1670   17.7543 N   0  0  0  0  0  0  0  0  0  0  0  0
   45.8344   11.6855   15.4746 C   0  0  1  0  0  0  0  0  0  0  0  0
   45.0076   12.7125   14.9208 O   0  0  0  0  0  0  0  0  0  0  0  0
   47.1176   11.5661   14.6544 C   0  0  2  0  0  0  0  0  0  0  0  0
   46.7765   11.2333   13.3147 O   0  0  0  0  0  0  0  0  0  0  0  0
   48.0030   10.4497   15.2722 C   0  0  2  0  0  0  0  0  0  0  0  0
   48.3383   10.7758   16.6559 O   0  0  0  0  0  0  0  0  0  0  0  0
   49.3229   10.2958   14.4767 C   0  0  0  0  0  0  0  0  0  0  0  0
   49.0912    9.6196   13.2274 O   0  0  0  0  0  0  0  0  0  0  0  0
  1  2  1  6  0  0  0
  1  3  1  0  0  0  0
  1  4  2  0  0  0  0
  1 16  1  0  0  0  0
  5  6  1  6  0  0  0
  5  7  1  0  0  0  0
  5 14  1  0  0  0  0
  7  8  1  1  0  0  0
  7  9  1  0  0  0  0
  9 10  1  6  0  0  0
  9 11  1  0  0  0  0
 11 12  1  6  0  0  0
 11 13  1  0  0  0  0
 13 14  1  0  0  0  0
 13 15  1  6  0  0  0
 15 16  1  0  0  0  0
M  CHG  1   3  -1
M  END
>  <CHROM.1>
-75.10766015,-176.99278048,173.70761142,48.21287361,10.53889320,14.57107202
-0.58228498,-0.58373428,1.78683989

>  <Name>
ligand

>  <RI>
0

>  <Rbt.Current_Directory>
/home/itssahil/PROJECTS/Mol_Feturizer/New_Systems/rnas/3B4C

>  <Rbt.Executable>
rbdock ($Id: //depot/dev/client3/rdock/2013.1/src/exe/rbdock.cxx#4 $)

>  <Rbt.Library>
libRbt.so (2013.1, Build901 2013/11/27)

>  <Rbt.Parameter_File>
/export/apps/rDock/src/rDock_2013.1_src/data/scripts/dock_solv.prm

>  <Rbt.Receptor>
prm/pocket_docking_5.prm

>  <SCORE>
-11.3632

>  <SCORE.INTER>
-10.3549

>  <SCORE.INTER.CONST>
1

>  <SCORE.INTER.POLAR>
-1.29616

>  <SCORE.INTER.ROT>
3

>  <SCORE.INTER.SOLV>
18.3645

>  <SCORE.INTER.VDW>
-14.3042

>  <SCORE.INTER.norm>
-0.64718

>  <SCORE.INTRA>
-1.00832

>  <SCORE.INTRA.DIHEDRAL>
-1.24347

>  <SCORE.INTRA.DIHEDRAL.0>
2.1318

>  <SCORE.INTRA.POLAR>
0

>  <SCORE.INTRA.POLAR.0>
0

>  <SCORE.INTRA.REPUL>
0

>  <SCORE.INTRA.REPUL.0>
0

>  <SCORE.INTRA.SOLV>
-0.108709

>  <SCORE.INTRA.SOLV.lig_0>
-58.6125

>  <SCORE.INTRA.VDW>
-0.332232

>  <SCORE.INTRA.VDW.0>
-0.432734

>  <SCORE.INTRA.norm>
-0.0630201

>  <SCORE.RESTR>
0

>  <SCORE.RESTR.CAVITY>
0

>  <SCORE.RESTR.norm>
0

>  <SCORE.SYSTEM>
0

>  <SCORE.SYSTEM.CONST>
0

>  <SCORE.SYSTEM.DIHEDRAL>
0

>  <SCORE.SYSTEM.SOLV>
0

>  <SCORE.SYSTEM.norm>
0

>  <SCORE.heavy>
16

>  <SCORE.norm>
-0.7102

>  <RMSD>
2.469

$$$$
ligand
 OpenBabel11021811463D
libRbt.so/2013.1/901 2013/11/27
 16 16  0  0  0  0  0  0  0  0999 V2000
   52.0893   11.7005   14.9363 P   0  0  2  0  0  0  0  0  0  0  0  0
   52.0437   11.2479   13.5240 O   0  0  0  0  0  0  0  0  0  0  0  0
   53.1100   12.9370   15.0714 O   0  5  0  0  0  0  0  0  0  0  0  0
   52.6140   10.4873   15.8595 O   0  0  0  0  0  0  0  0  0  0  0  0
   46.4864   12.6958   14.6325 C   0  0  2  0  0  0  0  0  0  0  0  0
   46.3728   13.5537   15.7740 O   0  0  0  0  0  0  0  0  0  0  0  0
   45.5194   11.4901   14.7551 C   0  0  2  0  0  0  0  0  0  0  0  0
   44.1318   11.9747   14.8837 N   0  0  0  0  0  0  0  0  0  0  0  0
   45.9088   10.6739   15.9992 C   0  0  1  0  0  0  0  0  0  0  0  0
   45.0470    9.5407   16.1342 O   0  0  0  0  0  0  0  0  0  0  0  0
   47.3497   10.2000   15.8175 C   0  0  2  0  0  0  0  0  0  0  0  0
   47.7314    9.4440   16.9597 O   0  0  0  0  0  0  0  0  0  0  0  0
   48.2690   11.4430   15.6692 C   0  0  2  0  0  0  0  0  0  0  0  0
   47.8674   12.2355   14.5099 O   0  0  0  0  0  0  0  0  0  0  0  0
   49.7438   11.0119   15.4747 C   0  0  0  0  0  0  0  0  0  0  0  0
   50.6072   12.1612   15.4018 O   0  0  0  0  0  0  0  0  0  0  0  0
  1  2  1  6  0  0  0
  1  3  1  0  0  0  0
  1  4  2  0  0  0  0
  1 16  1  0  0  0  0
  5  6  1  1  0  0  0
  5  7  1  0  0  0  0
  5 14  1  0  0  0  0
  7  8  1  1  0  0  0
  7  9  1  0  0  0  0
  9 10  1  6  0  0  0
  9 11  1  0  0  0  0
 11 12  1  1  0  0  0
 11 13  1  0  0  0  0
 13 14  1  0  0  0  0
 13 15  1  6  0  0  0
 15 16  1  0  0  0  0
M  CHG  1   3  -1
M  END
>  <CHROM.1>
-177.21377116,-169.91548871,68.50866353,48.77367993,11.44743922,15.31415264
0.09464820,0.04818770,-0.44145628

>  <Name>
ligand

>  <RI>
0

>  <Rbt.Current_Directory>
/home/itssahil/PROJECTS/Mol_Feturizer/New_Systems/rnas/3B4C

>  <Rbt.Executable>
rbdock ($Id: //depot/dev/client3/rdock/2013.1/src/exe/rbdock.cxx#4 $)

>  <Rbt.Library>
libRbt.so (2013.1, Build901 2013/11/27)

>  <Rbt.Parameter_File>
/export/apps/rDock/src/rDock_2013.1_src/data/scripts/dock_solv.prm

>  <Rbt.Receptor>
prm/pocket_docking_7.prm

>  <SCORE>
-7.76378

>  <SCORE.INTER>
-6.39359

>  <SCORE.INTER.CONST>
1

>  <SCORE.INTER.POLAR>
-1.29904

>  <SCORE.INTER.ROT>
3

>  <SCORE.INTER.SOLV>
16.6725

>  <SCORE.INTER.VDW>
-11.0898

>  <SCORE.INTER.norm>
-0.399599

>  <SCORE.INTRA>
-1.37019

>  <SCORE.INTRA.DIHEDRAL>
-1.49047

>  <SCORE.INTRA.DIHEDRAL.0>
2.1318

>  <SCORE.INTRA.POLAR>
0

>  <SCORE.INTRA.POLAR.0>
0

>  <SCORE.INTRA.REPUL>
0

>  <SCORE.INTRA.REPUL.0>
0

>  <SCORE.INTRA.SOLV>
-0.923191

>  <SCORE.INTRA.SOLV.lig_0>
-58.6125

>  <SCORE.INTRA.VDW>
-0.16336

>  <SCORE.INTRA.VDW.0>
-0.432734

>  <SCORE.INTRA.norm>
-0.0856368

>  <SCORE.RESTR>
0

>  <SCORE.RESTR.CAVITY>
0

>  <SCORE.RESTR.norm>
0

>  <SCORE.SYSTEM>
0

>  <SCORE.SYSTEM.CONST>
0

>  <SCORE.SYSTEM.DIHEDRAL>
0

>  <SCORE.SYSTEM.SOLV>
0

>  <SCORE.SYSTEM.norm>
0

>  <SCORE.heavy>
16

>  <SCORE.norm>
-0.485236

>  <RMSD>
2.491

$$$$
ligand
 OpenBabel11021811463D
libRbt.so/2013.1/901 2013/11/27
 16 16  0  0  0  0  0  0  0  0999 V2000
   50.7654    9.2027   12.4025 P   0  0  2  0  0  0  0  0  0  0  0  0
   50.7247   10.1400   11.2531 O   0  0  0  0  0  0  0  0  0  0  0  0
   51.9942    9.5884   13.3669 O   0  5  0  0  0  0  0  0  0  0  0  0
   50.9860    7.7041   11.8501 O   0  0  0  0  0  0  0  0  0  0  0  0
   47.0968   10.3646   16.7290 C   0  0  2  0  0  0  0  0  0  0  0  0
   46.0629    9.4921   16.2582 O   0  0  0  0  0  0  0  0  0  0  0  0
   46.5708   11.8175   16.8579 C   0  0  2  0  0  0  0  0  0  0  0  0
   45.4233   11.8520   17.7846 N   0  0  0  0  0  0  0  0  0  0  0  0
   46.1377   12.3074   15.4659 C   0  0  1  0  0  0  0  0  0  0  0  0
   45.6624   13.6540   15.5436 O   0  0  0  0  0  0  0  0  0  0  0  0
   47.3571   12.2492   14.5474 C   0  0  2  0  0  0  0  0  0  0  0  0
   46.9774   12.6966   13.2522 O   0  0  0  0  0  0  0  0  0  0  0  0
   47.8604   10.7816   14.4784 C   0  0  2  0  0  0  0  0  0  0  0  0
   48.2310   10.3093   15.8099 O   0  0  0  0  0  0  0  0  0  0  0  0
   49.1040   10.6728   13.5616 C   0  0  0  0  0  0  0  0  0  0  0  0
   49.3729    9.2995   13.2253 O   0  0  0  0  0  0  0  0  0  0  0  0
  1  2  1  6  0  0  0
  1  3  1  0  0  0  0
  1  4  2  0  0  0  0
  1 16  1  0  0  0  0
  5  6  1  6  0  0  0
  5  7  1  0  0  0  0
  5 14  1  0  0  0  0
  7  8  1  1  0  0  0
  7  9  1  0  0  0  0
  9 10  1  1  0  0  0
  9 11  1  0  0  0  0
 11 12  1  6  0  0  0
 11 13  1  0  0  0  0
 13 14  1  0  0  0  0
 13 15  1  6  0  0  0
 15 16  1  0  0  0  0
M  CHG  1   3  -1
M  END
>  <CHROM.1>
-165.63208024,-173.90525271,-52.67816435,48.38252110,10.61377246,14.31536565
-0.09344141,-0.78699070,2.39228831

>  <Name>
ligand

>  <RI>
0

>  <Rbt.Current_Directory>
/home/itssahil/PROJECTS/Mol_Feturizer/New_Systems/rnas/3B4C

>  <Rbt.Executable>
rbdock ($Id: //depot/dev/client3/rdock/2013.1/src/exe/rbdock.cxx#4 $)

>  <Rbt.Library>
libRbt.so (2013.1, Build901 2013/11/27)

>  <Rbt.Parameter_File>
/export/apps/rDock/src/rDock_2013.1_src/data/scripts/dock_solv.prm

>  <Rbt.Receptor>
prm/pocket_docking_8.prm

>  <SCORE>
-9.63729

>  <SCORE.INTER>
-8.45676

>  <SCORE.INTER.CONST>
1

>  <SCORE.INTER.POLAR>
-1.29904

>  <SCORE.INTER.ROT>
3

>  <SCORE.INTER.SOLV>
17.1392

>  <SCORE.INTER.VDW>
-12.6208

>  <SCORE.INTER.norm>
-0.528548

>  <SCORE.INTRA>
-1.18053

>  <SCORE.INTRA.DIHEDRAL>
-1.14215

>  <SCORE.INTRA.DIHEDRAL.0>
2.1318

>  <SCORE.INTRA.POLAR>
0

>  <SCORE.INTRA.POLAR.0>
0

>  <SCORE.INTRA.REPUL>
0

>  <SCORE.INTRA.REPUL.0>
0

>  <SCORE.INTRA.SOLV>
-1.07367

>  <SCORE.INTRA.SOLV.lig_0>
-58.6125

>  <SCORE.INTRA.VDW>
-0.0726169

>  <SCORE.INTRA.VDW.0>
-0.432734

>  <SCORE.INTRA.norm>
-0.0737831

>  <SCORE.RESTR>
0

>  <SCORE.RESTR.CAVITY>
0

>  <SCORE.RESTR.norm>
0

>  <SCORE.SYSTEM>
0

>  <SCORE.SYSTEM.CONST>
0

>  <SCORE.SYSTEM.DIHEDRAL>
0

>  <SCORE.SYSTEM.SOLV>
0

>  <SCORE.SYSTEM.norm>
0

>  <SCORE.heavy>
16

>  <SCORE.norm>
-0.602331

>  <RMSD>
2.492

$$$$
ligand
 OpenBabel11021811463D
libRbt.so/2013.1/901 2013/11/27
 16 16  0  0  0  0  0  0  0  0999 V2000
   50.4417    9.3069   12.4999 P   0  0  2  0  0  0  0  0  0  0  0  0
   50.2170    8.4478   11.3113 O   0  0  0  0  0  0  0  0  0  0  0  0
   51.0422   10.7245   12.0324 O   0  5  0  0  0  0  0  0  0  0  0  0
   51.5043    8.5861   13.4751 O   0  0  0  0  0  0  0  0  0  0  0  0
   47.0922   10.8624   17.5148 C   0  0  2  0  0  0  0  0  0  0  0  0
   46.3763    9.6221   17.5456 O   0  0  0  0  0  0  0  0  0  0  0  0
   46.1961   11.9983   16.9576 C   0  0  2  0  0  0  0  0  0  0  0  0
   44.9879   12.1359   17.7932 N   0  0  0  0  0  0  0  0  0  0  0  0
   45.7998   11.6465   15.5138 C   0  0  1  0  0  0  0  0  0  0  0  0
   44.9854   12.6835   14.9601 O   0  0  0  0  0  0  0  0  0  0  0  0
   47.0822   11.5129   14.6944 C   0  0  2  0  0  0  0  0  0  0  0  0
   46.7382   11.1849   13.3543 O   0  0  0  0  0  0  0  0  0  0  0  0
   47.9542   10.3858   15.3121 C   0  0  2  0  0  0  0  0  0  0  0  0
   48.2922   10.7071   16.6963 O   0  0  0  0  0  0  0  0  0  0  0  0
   49.2727   10.2172   14.5174 C   0  0  0  0  0  0  0  0  0  0  0  0
   49.0356    9.5362   13.2718 O   0  0  0  0  0  0  0  0  0  0  0  0
  1  2  1  6  0  0  0
  1  3  1  0  0  0  0
  1  4  2  0  0  0  0
  1 16  1  0  0  0  0
  5  6  1  6  0  0  0
  5  7  1  0  0  0  0
  5 14  1  0  0  0  0
  7  8  1  1  0  0  0
  7  9  1  0  0  0  0
  9 10  1  6  0  0  0
  9 11  1  0  0  0  0
 11 12  1  6  0  0  0
 11 13  1  0  0  0  0
 13 14  1  0  0  0  0
 13 15  1  6  0  0  0
 15 16  1  0  0  0  0
M  CHG  1   3  -1
M  END
>  <CHROM.1>
-75.51475640,-177.08983746,172.42631362,48.16603818,10.47111523,14.61232753
-0.57775769,-0.59514969,1.78921705

>  <Name>
ligand

>  <RI>
0

>  <Rbt.Current_Directory>
/home/itssahil/PROJECTS/Mol_Feturizer/New_Systems/rnas/3B4C

>  <Rbt.Executable>
rbdock ($Id: //depot/dev/client3/rdock/2013.1/src/exe/rbdock.cxx#4 $)

>  <Rbt.Library>
libRbt.so (2013.1, Build901 2013/11/27)

>  <Rbt.Parameter_File>
/export/apps/rDock/src/rDock_2013.1_src/data/scripts/dock_solv.prm

>  <Rbt.Receptor>
prm/pocket_docking_6.prm

>  <SCORE>
-11.3901

>  <SCORE.INTER>
-10.4176

>  <SCORE.INTER.CONST>
1

>  <SCORE.INTER.POLAR>
-1.29904

>  <SCORE.INTER.ROT>
3

>  <SCORE.INTER.SOLV>
19.0115

>  <SCORE.INTER.VDW>
-14.5521

>  <SCORE.INTER.norm>
-0.651101

>  <SCORE.INTRA>
-0.972456

>  <SCORE.INTRA.DIHEDRAL>
-1.17776

>  <SCORE.INTRA.DIHEDRAL.0>
2.1318

>  <SCORE.INTRA.POLAR>
0

>  <SCORE.INTRA.POLAR.0>
0

>  <SCORE.INTRA.REPUL>
0

>  <SCORE.INTRA.REPUL.0>
0

>  <SCORE.INTRA.SOLV>
-0.113436

>  <SCORE.INTRA.SOLV.lig_0>
-58.6125

>  <SCORE.INTRA.VDW>
-0.326857

>  <SCORE.INTRA.VDW.0>
-0.432734

>  <SCORE.INTRA.norm>
-0.0607785

>  <SCORE.RESTR>
0

>  <SCORE.RESTR.CAVITY>
0

>  <SCORE.RESTR.norm>
0

>  <SCORE.SYSTEM>
0

>  <SCORE.SYSTEM.CONST>
0

>  <SCORE.SYSTEM.DIHEDRAL>
0

>  <SCORE.SYSTEM.SOLV>
0

>  <SCORE.SYSTEM.norm>
0

>  <SCORE.heavy>
16

>  <SCORE.norm>
-0.71188

>  <RMSD>
2.500

$$$$
ligand
 OpenBabel11021811463D
libRbt.so/2013.1/901 2013/11/27
 16 16  0  0  0  0  0  0  0  0999 V2000
   50.6703    9.4446   12.6460 P   0  0  2  0  0  0  0  0  0  0  0  0
   50.5518   10.2205   11.3870 O   0  0  0  0  0  0  0  0  0  0  0  0
   52.1641    9.5878   13.2266 O   0  5  0  0  0  0  0  0  0  0  0  0
   50.3784    7.8900   12.3340 O   0  0  0  0  0  0  0  0  0  0  0  0
   46.4762   10.0301   16.5343 C   0  0  2  0  0  0  0  0  0  0  0  0
   45.1536    9.6985   16.0953 O   0  0  0  0  0  0  0  0  0  0  0  0
   46.5952   11.5504   16.8145 C   0  0  2  0  0  0  0  0  0  0  0  0
   45.6110   11.9472   17.8396 N   0  0  0  0  0  0  0  0  0  0  0  0
   46.3276   12.3125   15.5056 C   0  0  1  0  0  0  0  0  0  0  0  0
   46.4469   13.7210   15.7227 O   0  0  0  0  0  0  0  0  0  0  0  0
   47.3680   11.8646   14.4806 C   0  0  2  0  0  0  0  0  0  0  0  0
   47.1370   12.5566   13.2601 O   0  0  0  0  0  0  0  0  0  0  0  0
   47.2255   10.3338   14.2609 C   0  0  2  0  0  0  0  0  0  0  0  0
   47.4401    9.6190   15.5164 O   0  0  0  0  0  0  0  0  0  0  0  0
   48.2675    9.8300   13.2317 C   0  0  0  0  0  0  0  0  0  0  0  0
   49.6060   10.0103   13.7290 O   0  0  0  0  0  0  0  0  0  0  0  0
  1  2  1  6  0  0  0
  1  3  1  0  0  0  0
  1  4  2  0  0  0  0
  1 16  1  0  0  0  0
  5  6  1  6  0  0  0
  5  7  1  0  0  0  0
  5 14  1  0  0  0  0
  7  8  1  1  0  0  0
  7  9  1  0  0  0  0
  9 10  1  1  0  0  0
  9 11  1  0  0  0  0
 11 12  1  6  0  0  0
 11 13  1  0  0  0  0
 13 14  1  0  0  0  0
 13 15  1  6  0  0  0
 15 16  1  0  0  0  0
M  CHG  1   3  -1
M  END
>  <CHROM.1>
64.01936220,178.74849950,62.24580416,48.20957216,10.55474584,14.35022848
0.15792792,-0.74241016,2.82179590

>  <Name>
ligand

>  <RI>
0

>  <Rbt.Current_Directory>
/home/itssahil/PROJECTS/Mol_Feturizer/New_Systems/rnas/3B4C

>  <Rbt.Executable>
rbdock ($Id: //depot/dev/client3/rdock/2013.1/src/exe/rbdock.cxx#4 $)

>  <Rbt.Library>
libRbt.so (2013.1, Build901 2013/11/27)

>  <Rbt.Parameter_File>
/export/apps/rDock/src/rDock_2013.1_src/data/scripts/dock_solv.prm

>  <Rbt.Receptor>
prm/pocket_docking_5.prm

>  <SCORE>
-9.80288

>  <SCORE.INTER>
-8.09735

>  <SCORE.INTER.CONST>
1

>  <SCORE.INTER.POLAR>
-1.29795

>  <SCORE.INTER.ROT>
3

>  <SCORE.INTER.SOLV>
19.5535

>  <SCORE.INTER.VDW>
-13.1896

>  <SCORE.INTER.norm>
-0.506084

>  <SCORE.INTRA>
-1.70553

>  <SCORE.INTRA.DIHEDRAL>
-2.05307

>  <SCORE.INTRA.DIHEDRAL.0>
2.1318

>  <SCORE.INTRA.POLAR>
0

>  <SCORE.INTRA.POLAR.0>
0

>  <SCORE.INTRA.REPUL>
0

>  <SCORE.INTRA.REPUL.0>
0

>  <SCORE.INTRA.SOLV>
-0.79394

>  <SCORE.INTRA.SOLV.lig_0>
-58.6125

>  <SCORE.INTRA.VDW>
-0.28202

>  <SCORE.INTRA.VDW.0>
-0.432734

>  <SCORE.INTRA.norm>
-0.106595

>  <SCORE.RESTR>
0

>  <SCORE.RESTR.CAVITY>
0

>  <SCORE.RESTR.norm>
0

>  <SCORE.SYSTEM>
0

>  <SCORE.SYSTEM.CONST>
0

>  <SCORE.SYSTEM.DIHEDRAL>
0

>  <SCORE.SYSTEM.SOLV>
0

>  <SCORE.SYSTEM.norm>
0

>  <SCORE.heavy>
16

>  <SCORE.norm>
-0.61268

>  <RMSD>
2.507

$$$$
ligand
 OpenBabel11021811463D
libRbt.so/2013.1/901 2013/11/27
 16 16  0  0  0  0  0  0  0  0999 V2000
   50.4310    9.3160   12.5014 P   0  0  2  0  0  0  0  0  0  0  0  0
   50.1991    8.4444   11.3234 O   0  0  0  0  0  0  0  0  0  0  0  0
   51.0189   10.7324   12.0143 O   0  5  0  0  0  0  0  0  0  0  0  0
   51.5073    8.6104   13.4726 O   0  0  0  0  0  0  0  0  0  0  0  0
   47.1414   10.8991   17.5462 C   0  0  2  0  0  0  0  0  0  0  0  0
   46.4735    9.6346   17.6292 O   0  0  0  0  0  0  0  0  0  0  0  0
   46.1908   11.9843   16.9782 C   0  0  2  0  0  0  0  0  0  0  0  0
   44.9975   12.1016   17.8379 N   0  0  0  0  0  0  0  0  0  0  0  0
   45.7754   11.5759   15.5548 C   0  0  1  0  0  0  0  0  0  0  0  0
   44.9103   12.5654   14.9912 O   0  0  0  0  0  0  0  0  0  0  0  0
   47.0431   11.4658   14.7094 C   0  0  2  0  0  0  0  0  0  0  0  0
   46.6814   11.0861   13.3877 O   0  0  0  0  0  0  0  0  0  0  0  0
   47.9706   10.3903   15.3381 C   0  0  2  0  0  0  0  0  0  0  0  0
   48.3275   10.7644   16.7042 O   0  0  0  0  0  0  0  0  0  0  0  0
   49.2762   10.2473   14.5175 C   0  0  0  0  0  0  0  0  0  0  0  0
   49.0314    9.5451   13.2852 O   0  0  0  0  0  0  0  0  0  0  0  0
  1  2  1  6  0  0  0
  1  3  1  0  0  0  0
  1  4  2  0  0  0  0
  1 16  1  0  0  0  0
  5  6  1  6  0  0  0
  5  7  1  0  0  0  0
  5 14  1  0  0  0  0
  7  8  1  1  0  0  0
  7  9  1  0  0  0  0
  9 10  1  6  0  0  0
  9 11  1  0  0  0  0
 11 12  1  6  0  0  0
 11 13  1  0  0  0  0
 13 14  1  0  0  0  0
 13 15  1  6  0  0  0
 15 16  1  0  0  0  0
M  CHG  1   3  -1
M  END
>  <CHROM.1>
-74.35992539,-175.88279635,172.81058634,48.16263682,10.46038436,14.63214497
-0.61300889,-0.56396893,1.74034874

>  <Name>
ligand

>  <RI>
0

>  <Rbt.Current_Directory>
/home/itssahil/PROJECTS/Mol_Feturizer/New_Systems/rnas/3B4C

>  <Rbt.Executable>
rbdock ($Id: //depot/dev/client3/rdock/2013.1/src/exe/rbdock.cxx#4 $)

>  <Rbt.Library>
libRbt.so (2013.1, Build901 2013/11/27)

>  <Rbt.Parameter_File>
/export/apps/rDock/src/rDock_2013.1_src/data/scripts/dock_solv.prm

>  <Rbt.Receptor>
prm/pocket_docking_6.prm

>  <SCORE>
-11.3799

>  <SCORE.INTER>
-10.397

>  <SCORE.INTER.CONST>
1

>  <SCORE.INTER.POLAR>
-1.29762

>  <SCORE.INTER.ROT>
3

>  <SCORE.INTER.SOLV>
19.3193

>  <SCORE.INTER.VDW>
-14.6457

>  <SCORE.INTER.norm>
-0.649814

>  <SCORE.INTRA>
-0.982845

>  <SCORE.INTRA.DIHEDRAL>
-1.25725

>  <SCORE.INTRA.DIHEDRAL.0>
2.1318

>  <SCORE.INTRA.POLAR>
0

>  <SCORE.INTRA.POLAR.0>
0

>  <SCORE.INTRA.REPUL>
0

>  <SCORE.INTRA.REPUL.0>
0

>  <SCORE.INTRA.SOLV>
-0.112467

>  <SCORE.INTRA.SOLV.lig_0>
-58.6125

>  <SCORE.INTRA.VDW>
-0.297985

>  <SCORE.INTRA.VDW.0>
-0.432734

>  <SCORE.INTRA.norm>
-0.0614278

>  <SCORE.RESTR>
0

>  <SCORE.RESTR.CAVITY>
0

>  <SCORE.RESTR.norm>
0

>  <SCORE.SYSTEM>
0

>  <SCORE.SYSTEM.CONST>
0

>  <SCORE.SYSTEM.DIHEDRAL>
0

>  <SCORE.SYSTEM.SOLV>
0

>  <SCORE.SYSTEM.norm>
0

>  <SCORE.heavy>
16

>  <SCORE.norm>
-0.711242

>  <RMSD>
2.510

$$$$
ligand
 OpenBabel11021811463D
libRbt.so/2013.1/901 2013/11/27
 16 16  0  0  0  0  0  0  0  0999 V2000
   50.4468    9.2879   12.4535 P   0  0  2  0  0  0  0  0  0  0  0  0
   50.2273    8.3955   11.2887 O   0  0  0  0  0  0  0  0  0  0  0  0
   51.0009   10.7099   11.9438 O   0  5  0  0  0  0  0  0  0  0  0  0
   51.5436    8.6192   13.4277 O   0  0  0  0  0  0  0  0  0  0  0  0
   47.1351   10.8570   17.4886 C   0  0  2  0  0  0  0  0  0  0  0  0
   46.4508    9.6002   17.5526 O   0  0  0  0  0  0  0  0  0  0  0  0
   46.2027   11.9603   16.9253 C   0  0  2  0  0  0  0  0  0  0  0  0
   45.0043   12.0833   17.7771 N   0  0  0  0  0  0  0  0  0  0  0  0
   45.7933   11.5726   15.4944 C   0  0  1  0  0  0  0  0  0  0  0  0
   44.9450   12.5790   14.9351 O   0  0  0  0  0  0  0  0  0  0  0  0
   47.0660   11.4557   14.6574 C   0  0  2  0  0  0  0  0  0  0  0  0
   46.7098   11.0950   13.3290 O   0  0  0  0  0  0  0  0  0  0  0  0
   47.9750   10.3618   15.2814 C   0  0  2  0  0  0  0  0  0  0  0  0
   48.3260   10.7164   16.6542 O   0  0  0  0  0  0  0  0  0  0  0  0
   49.2850   10.2112   14.4692 C   0  0  0  0  0  0  0  0  0  0  0  0
   49.0470    9.4972   13.2424 O   0  0  0  0  0  0  0  0  0  0  0  0
  1  2  1  6  0  0  0
  1  3  1  0  0  0  0
  1  4  2  0  0  0  0
  1 16  1  0  0  0  0
  5  6  1  6  0  0  0
  5  7  1  0  0  0  0
  5 14  1  0  0  0  0
  7  8  1  1  0  0  0
  7  9  1  0  0  0  0
  9 10  1  6  0  0  0
  9 11  1  0  0  0  0
 11 12  1  6  0  0  0
 11 13  1  0  0  0  0
 13 14  1  0  0  0  0
 13 15  1  6  0  0  0
 15 16  1  0  0  0  0
M  CHG  1   3  -1
M  END
>  <CHROM.1>
-75.74892011,-177.04972888,172.31590732,48.17444925,10.43752080,14.57817523
-0.60109790,-0.57446579,1.75758332

>  <Name>
ligand

>  <RI>
0

>  <Rbt.Current_Directory>
/home/itssahil/PROJECTS/Mol_Feturizer/New_Systems/rnas/3B4C

>  <Rbt.Executable>
rbdock ($Id: //depot/dev/client3/rdock/2013.1/src/exe/rbdock.cxx#4 $)

>  <Rbt.Library>
libRbt.so (2013.1, Build901 2013/11/27)

>  <Rbt.Parameter_File>
/export/apps/rDock/src/rDock_2013.1_src/data/scripts/dock_solv.prm

>  <Rbt.Receptor>
prm/pocket_docking_6.prm

>  <SCORE>
-11.2478

>  <SCORE.INTER>
-10.2868

>  <SCORE.INTER.CONST>
1

>  <SCORE.INTER.POLAR>
-1.29902

>  <SCORE.INTER.ROT>
3

>  <SCORE.INTER.SOLV>
19.0016

>  <SCORE.INTER.VDW>
-14.4617

>  <SCORE.INTER.norm>
-0.642925

>  <SCORE.INTRA>
-0.961035

>  <SCORE.INTRA.DIHEDRAL>
-1.15038

>  <SCORE.INTRA.DIHEDRAL.0>
2.1318

>  <SCORE.INTRA.POLAR>
0

>  <SCORE.INTRA.POLAR.0>
0

>  <SCORE.INTRA.REPUL>
0

>  <SCORE.INTRA.REPUL.0>
0

>  <SCORE.INTRA.SOLV>
-0.11643

>  <SCORE.INTRA.SOLV.lig_0>
-58.6125

>  <SCORE.INTRA.VDW>
-0.327629

>  <SCORE.INTRA.VDW.0>
-0.432734

>  <SCORE.INTRA.norm>
-0.0600647

>  <SCORE.RESTR>
0

>  <SCORE.RESTR.CAVITY>
0

>  <SCORE.RESTR.norm>
0

>  <SCORE.SYSTEM>
0

>  <SCORE.SYSTEM.CONST>
0

>  <SCORE.SYSTEM.DIHEDRAL>
0

>  <SCORE.SYSTEM.SOLV>
0

>  <SCORE.SYSTEM.norm>
0

>  <SCORE.heavy>
16

>  <SCORE.norm>
-0.70299

>  <RMSD>
2.524

$$$$
ligand
 OpenBabel11021811463D
libRbt.so/2013.1/901 2013/11/27
 16 16  0  0  0  0  0  0  0  0999 V2000
   50.4483    9.2973   12.4543 P   0  0  2  0  0  0  0  0  0  0  0  0
   50.2667    8.3992   11.2874 O   0  0  0  0  0  0  0  0  0  0  0  0
   51.0152   10.7181   11.9557 O   0  5  0  0  0  0  0  0  0  0  0  0
   51.5156    8.6351   13.4651 O   0  0  0  0  0  0  0  0  0  0  0  0
   46.9829   10.9593   17.3549 C   0  0  2  0  0  0  0  0  0  0  0  0
   46.3341    9.6861   17.4547 O   0  0  0  0  0  0  0  0  0  0  0  0
   46.0316   12.0110   16.7281 C   0  0  2  0  0  0  0  0  0  0  0  0
   44.8114   12.1316   17.5487 N   0  0  0  0  0  0  0  0  0  0  0  0
   45.6658   11.5551   15.3055 C   0  0  1  0  0  0  0  0  0  0  0  0
   44.8014   12.5128   14.6885 O   0  0  0  0  0  0  0  0  0  0  0  0
   46.9598   11.4434   14.5012 C   0  0  2  0  0  0  0  0  0  0  0  0
   46.6441   11.0201   13.1810 O   0  0  0  0  0  0  0  0  0  0  0  0
   47.8860   10.4027   15.1877 C   0  0  2  0  0  0  0  0  0  0  0  0
   48.1957   10.8216   16.5523 O   0  0  0  0  0  0  0  0  0  0  0  0
   49.2178   10.2595   14.4102 C   0  0  0  0  0  0  0  0  0  0  0  0
   49.0243    9.5072   13.1986 O   0  0  0  0  0  0  0  0  0  0  0  0
  1  2  1  6  0  0  0
  1  3  1  0  0  0  0
  1  4  2  0  0  0  0
  1 16  1  0  0  0  0
  5  6  1  6  0  0  0
  5  7  1  0  0  0  0
  5 14  1  0  0  0  0
  7  8  1  1  0  0  0
  7  9  1  0  0  0  0
  9 10  1  6  0  0  0
  9 11  1  0  0  0  0
 11 12  1  6  0  0  0
 11 13  1  0  0  0  0
 13 14  1  0  0  0  0
 13 15  1  6  0  0  0
 15 16  1  0  0  0  0
M  CHG  1   3  -1
M  END
>  <CHROM.1>
-74.92432043,-176.57688914,173.91314847,48.09806756,10.45808214,14.48510463
-0.58236917,-0.54161418,1.72846827

>  <Name>
ligand

>  <RI>
0

>  <Rbt.Current_Directory>
/home/itssahil/PROJECTS/Mol_Feturizer/New_Systems/rnas/3B4C

>  <Rbt.Executable>
rbdock ($Id: //depot/dev/client3/rdock/2013.1/src/exe/rbdock.cxx#4 $)

>  <Rbt.Library>
libRbt.so (2013.1, Build901 2013/11/27)

>  <Rbt.Parameter_File>
/export/apps/rDock/src/rDock_2013.1_src/data/scripts/dock_solv.prm

>  <Rbt.Receptor>
prm/pocket_docking_7.prm

>  <SCORE>
-11.2051

>  <SCORE.INTER>
-10.1927

>  <SCORE.INTER.CONST>
1

>  <SCORE.INTER.POLAR>
-1.29828

>  <SCORE.INTER.ROT>
3

>  <SCORE.INTER.SOLV>
18.1016

>  <SCORE.INTER.VDW>
-14.1014

>  <SCORE.INTER.norm>
-0.637043

>  <SCORE.INTRA>
-1.01238

>  <SCORE.INTRA.DIHEDRAL>
-1.25226

>  <SCORE.INTRA.DIHEDRAL.0>
2.1318

>  <SCORE.INTRA.POLAR>
0

>  <SCORE.INTRA.POLAR.0>
0

>  <SCORE.INTRA.REPUL>
0

>  <SCORE.INTRA.REPUL.0>
0

>  <SCORE.INTRA.SOLV>
-0.110629

>  <SCORE.INTRA.SOLV.lig_0>
-58.6125

>  <SCORE.INTRA.VDW>
-0.330931

>  <SCORE.INTRA.VDW.0>
-0.432734

>  <SCORE.INTRA.norm>
-0.0632737

>  <SCORE.RESTR>
0

>  <SCORE.RESTR.CAVITY>
0

>  <SCORE.RESTR.norm>
0

>  <SCORE.SYSTEM>
0

>  <SCORE.SYSTEM.CONST>
0

>  <SCORE.SYSTEM.DIHEDRAL>
0

>  <SCORE.SYSTEM.SOLV>
0

>  <SCORE.SYSTEM.norm>
0

>  <SCORE.heavy>
16

>  <SCORE.norm>
-0.700316

>  <RMSD>
2.524

$$$$
ligand
 OpenBabel11021811463D
libRbt.so/2013.1/901 2013/11/27
 16 16  0  0  0  0  0  0  0  0999 V2000
   50.5340    9.7161   12.8915 P   0  0  2  0  0  0  0  0  0  0  0  0
   51.7569    9.7000   13.7315 O   0  0  0  0  0  0  0  0  0  0  0  0
   50.1597    8.2123   12.4587 O   0  5  0  0  0  0  0  0  0  0  0  0
   50.8204   10.5852   11.5641 O   0  0  0  0  0  0  0  0  0  0  0  0
   45.9271   10.8074   16.1033 C   0  0  2  0  0  0  0  0  0  0  0  0
   44.6993   10.2115   15.6683 O   0  0  0  0  0  0  0  0  0  0  0  0
   45.8552   12.3523   15.9933 C   0  0  2  0  0  0  0  0  0  0  0  0
   44.7343   12.8588   16.8080 N   0  0  0  0  0  0  0  0  0  0  0  0
   45.6449   12.7294   14.5171 C   0  0  1  0  0  0  0  0  0  0  0  0
   45.5916   14.1514   14.3748 O   0  0  0  0  0  0  0  0  0  0  0  0
   46.8269   12.1810   13.7196 C   0  0  2  0  0  0  0  0  0  0  0  0
   46.6509   12.5170   12.3492 O   0  0  0  0  0  0  0  0  0  0  0  0
   46.8704   10.6378   13.8889 C   0  0  2  0  0  0  0  0  0  0  0  0
   47.0288   10.2864   15.2977 O   0  0  0  0  0  0  0  0  0  0  0  0
   48.0602   10.0349   13.1018 C   0  0  0  0  0  0  0  0  0  0  0  0
   49.3106   10.3633   13.7343 O   0  0  0  0  0  0  0  0  0  0  0  0
  1  2  1  1  0  0  0
  1  3  1  0  0  0  0
  1  4  2  0  0  0  0
  1 16  1  0  0  0  0
  5  6  1  6  0  0  0
  5  7  1  0  0  0  0
  5 14  1  0  0  0  0
  7  8  1  1  0  0  0
  7  9  1  0  0  0  0
  9 10  1  1  0  0  0
  9 11  1  0  0  0  0
 11 12  1  6  0  0  0
 11 13  1  0  0  0  0
 13 14  1  0  0  0  0
 13 15  1  6  0  0  0
 15 16  1  0  0  0  0
M  CHG  1   3  -1
M  END
>  <CHROM.1>
71.33915967,179.83797358,-163.27946249,47.80297013,10.95809980,14.00883636
0.08403749,-0.61741941,2.49645524

>  <Name>
ligand

>  <RI>
0

>  <Rbt.Current_Directory>
/home/itssahil/PROJECTS/Mol_Feturizer/New_Systems/rnas/3B4C

>  <Rbt.Executable>
rbdock ($Id: //depot/dev/client3/rdock/2013.1/src/exe/rbdock.cxx#4 $)

>  <Rbt.Library>
libRbt.so (2013.1, Build901 2013/11/27)

>  <Rbt.Parameter_File>
/export/apps/rDock/src/rDock_2013.1_src/data/scripts/dock_solv.prm

>  <Rbt.Receptor>
prm/pocket_docking_7.prm

>  <SCORE>
-7.30829

>  <SCORE.INTER>
-6.39988

>  <SCORE.INTER.CONST>
1

>  <SCORE.INTER.POLAR>
-1.03923

>  <SCORE.INTER.ROT>
3

>  <SCORE.INTER.SOLV>
14.8308

>  <SCORE.INTER.VDW>
-11.3461

>  <SCORE.INTER.norm>
-0.399992

>  <SCORE.INTRA>
-0.908413

>  <SCORE.INTRA.DIHEDRAL>
-1.23867

>  <SCORE.INTRA.DIHEDRAL.0>
2.1318

>  <SCORE.INTRA.POLAR>
0

>  <SCORE.INTRA.POLAR.0>
0

>  <SCORE.INTRA.REPUL>
0

>  <SCORE.INTRA.REPUL.0>
0

>  <SCORE.INTRA.SOLV>
-0.202478

>  <SCORE.INTRA.SOLV.lig_0>
-58.6125

>  <SCORE.INTRA.VDW>
-0.187842

>  <SCORE.INTRA.VDW.0>
-0.432734

>  <SCORE.INTRA.norm>
-0.0567758

>  <SCORE.RESTR>
0

>  <SCORE.RESTR.CAVITY>
0

>  <SCORE.RESTR.norm>
0

>  <SCORE.SYSTEM>
0

>  <SCORE.SYSTEM.CONST>
0

>  <SCORE.SYSTEM.DIHEDRAL>
0

>  <SCORE.SYSTEM.SOLV>
0

>  <SCORE.SYSTEM.norm>
0

>  <SCORE.heavy>
16

>  <SCORE.norm>
-0.456768

>  <RMSD>
2.600

$$$$
ligand
 OpenBabel11021811463D
libRbt.so/2013.1/901 2013/11/27
 16 16  0  0  0  0  0  0  0  0999 V2000
   50.4716    9.1055   12.6068 P   0  0  2  0  0  0  0  0  0  0  0  0
   50.5953    7.6898   12.1807 O   0  0  0  0  0  0  0  0  0  0  0  0
   50.5690   10.0647   11.3187 O   0  5  0  0  0  0  0  0  0  0  0  0
   51.6811    9.4584   13.6129 O   0  0  0  0  0  0  0  0  0  0  0  0
   46.6493   10.5046   16.7111 C   0  0  2  0  0  0  0  0  0  0  0  0
   45.5583    9.7771   16.1347 O   0  0  0  0  0  0  0  0  0  0  0  0
   46.2821   12.0017   16.8776 C   0  0  2  0  0  0  0  0  0  0  0  0
   45.0856   12.1299   17.7313 N   0  0  0  0  0  0  0  0  0  0  0  0
   46.0017   12.5953   15.4867 C   0  0  1  0  0  0  0  0  0  0  0  0
   45.6763   13.9832   15.6000 O   0  0  0  0  0  0  0  0  0  0  0  0
   47.2661   12.4351   14.6444 C   0  0  2  0  0  0  0  0  0  0  0  0
   47.0276   12.9762   13.3514 O   0  0  0  0  0  0  0  0  0  0  0  0
   47.6053   10.9234   14.5356 C   0  0  2  0  0  0  0  0  0  0  0  0
   47.8297   10.3571   15.8631 O   0  0  0  0  0  0  0  0  0  0  0  0
   48.8879   10.7102   13.6941 C   0  0  0  0  0  0  0  0  0  0  0  0
   49.0452    9.3230   13.3441 O   0  0  0  0  0  0  0  0  0  0  0  0
  1  2  1  6  0  0  0
  1  3  1  0  0  0  0
  1  4  2  0  0  0  0
  1 16  1  0  0  0  0
  5  6  1  6  0  0  0
  5  7  1  0  0  0  0
  5 14  1  0  0  0  0
  7  8  1  1  0  0  0
  7  9  1  0  0  0  0
  9 10  1  1  0  0  0
  9 11  1  0  0  0  0
 11 12  1  6  0  0  0
 11 13  1  0  0  0  0
 13 14  1  0  0  0  0
 13 15  1  6  0  0  0
 15 16  1  0  0  0  0
M  CHG  1   3  -1
M  END
>  <CHROM.1>
-167.42912818,-173.85736846,-176.84939849,48.12394325,10.71519694,14.40771506
0.07962201,-0.79806980,2.55804652

>  <Name>
ligand

>  <RI>
0

>  <Rbt.Current_Directory>
/home/itssahil/PROJECTS/Mol_Feturizer/New_Systems/rnas/3B4C

>  <Rbt.Executable>
rbdock ($Id: //depot/dev/client3/rdock/2013.1/src/exe/rbdock.cxx#4 $)

>  <Rbt.Library>
libRbt.so (2013.1, Build901 2013/11/27)

>  <Rbt.Parameter_File>
/export/apps/rDock/src/rDock_2013.1_src/data/scripts/dock_solv.prm

>  <Rbt.Receptor>
prm/pocket_docking_5.prm

>  <SCORE>
-10.1596

>  <SCORE.INTER>
-9.0239

>  <SCORE.INTER.CONST>
1

>  <SCORE.INTER.POLAR>
-1.29904

>  <SCORE.INTER.ROT>
3

>  <SCORE.INTER.SOLV>
17.3762

>  <SCORE.INTER.VDW>
-13.0779

>  <SCORE.INTER.norm>
-0.563994

>  <SCORE.INTRA>
-1.13572

>  <SCORE.INTRA.DIHEDRAL>
-1.37257

>  <SCORE.INTRA.DIHEDRAL.0>
2.1318

>  <SCORE.INTRA.POLAR>
0

>  <SCORE.INTRA.POLAR.0>
0

>  <SCORE.INTRA.REPUL>
0

>  <SCORE.INTRA.REPUL.0>
0

>  <SCORE.INTRA.SOLV>
-0.380277

>  <SCORE.INTRA.SOLV.lig_0>
-58.6125

>  <SCORE.INTRA.VDW>
-0.259295

>  <SCORE.INTRA.VDW.0>
-0.432734

>  <SCORE.INTRA.norm>
-0.0709825

>  <SCORE.RESTR>
0

>  <SCORE.RESTR.CAVITY>
0

>  <SCORE.RESTR.norm>
0

>  <SCORE.SYSTEM>
0

>  <SCORE.SYSTEM.CONST>
0

>  <SCORE.SYSTEM.DIHEDRAL>
0

>  <SCORE.SYSTEM.SOLV>
0

>  <SCORE.SYSTEM.norm>
0

>  <SCORE.heavy>
16

>  <SCORE.norm>
-0.634976

>  <RMSD>
2.646

$$$$
ligand
 OpenBabel11021811463D
libRbt.so/2013.1/901 2013/11/27
 16 16  0  0  0  0  0  0  0  0999 V2000
   50.3413    9.2390   12.7811 P   0  0  2  0  0  0  0  0  0  0  0  0
   50.3987    7.8426   12.2829 O   0  0  0  0  0  0  0  0  0  0  0  0
   50.5508   10.2567   11.5525 O   0  5  0  0  0  0  0  0  0  0  0  0
   51.5253    9.4632   13.8523 O   0  0  0  0  0  0  0  0  0  0  0  0
   46.1913   10.6245   16.5836 C   0  0  2  0  0  0  0  0  0  0  0  0
   45.1155   10.0929   15.8014 O   0  0  0  0  0  0  0  0  0  0  0  0
   45.9618   12.1291   16.8796 C   0  0  2  0  0  0  0  0  0  0  0  0
   44.6840   12.3073   17.5953 N   0  0  0  0  0  0  0  0  0  0  0  0
   45.9275   12.8917   15.5444 C   0  0  1  0  0  0  0  0  0  0  0  0
   45.7349   14.2890   15.7802 O   0  0  0  0  0  0  0  0  0  0  0  0
   47.2676   12.6727   14.8443 C   0  0  2  0  0  0  0  0  0  0  0  0
   47.2565   13.3685   13.6043 O   0  0  0  0  0  0  0  0  0  0  0  0
   47.4604   11.1511   14.6001 C   0  0  2  0  0  0  0  0  0  0  0  0
   47.4505   10.4284   15.8694 O   0  0  0  0  0  0  0  0  0  0  0  0
   48.8128   10.8774   13.8967 C   0  0  0  0  0  0  0  0  0  0  0  0
   48.8999    9.5050   13.4720 O   0  0  0  0  0  0  0  0  0  0  0  0
  1  2  1  6  0  0  0
  1  3  1  0  0  0  0
  1  4  2  0  0  0  0
  1 16  1  0  0  0  0
  5  6  1  6  0  0  0
  5  7  1  0  0  0  0
  5 14  1  0  0  0  0
  7  8  1  6  0  0  0
  7  9  1  0  0  0  0
  9 10  1  1  0  0  0
  9 11  1  0  0  0  0
 11 12  1  6  0  0  0
 11 13  1  0  0  0  0
 13 14  1  0  0  0  0
 13 15  1  1  0  0  0
 15 16  1  0  0  0  0
M  CHG  1   3  -1
M  END
>  <CHROM.1>
-170.55226659,-178.29904485,-177.10631581,47.96335128,10.90547816,14.49436262
0.28969732,-0.73861163,2.82172890

>  <Name>
ligand

>  <RI>
0

>  <Rbt.Current_Directory>
/home/itssahil/PROJECTS/Mol_Feturizer/New_Systems/rnas/3B4C

>  <Rbt.Executable>
rbdock ($Id: //depot/dev/client3/rdock/2013.1/src/exe/rbdock.cxx#4 $)

>  <Rbt.Library>
libRbt.so (2013.1, Build901 2013/11/27)

>  <Rbt.Parameter_File>
/export/apps/rDock/src/rDock_2013.1_src/data/scripts/dock_solv.prm

>  <Rbt.Receptor>
prm/pocket_docking_5.prm

>  <SCORE>
-9.88745

>  <SCORE.INTER>
-8.56201

>  <SCORE.INTER.CONST>
1

>  <SCORE.INTER.POLAR>
-1.29761

>  <SCORE.INTER.ROT>
3

>  <SCORE.INTER.SOLV>
16.9927

>  <SCORE.INTER.VDW>
-12.6469

>  <SCORE.INTER.norm>
-0.535126

>  <SCORE.INTRA>
-1.32543

>  <SCORE.INTRA.DIHEDRAL>
-1.78121

>  <SCORE.INTRA.DIHEDRAL.0>
2.1318

>  <SCORE.INTRA.POLAR>
0

>  <SCORE.INTRA.POLAR.0>
0

>  <SCORE.INTRA.REPUL>
0

>  <SCORE.INTRA.REPUL.0>
0

>  <SCORE.INTRA.SOLV>
-0.398632

>  <SCORE.INTRA.SOLV.lig_0>
-58.6125

>  <SCORE.INTRA.VDW>
-0.235511

>  <SCORE.INTRA.VDW.0>
-0.432734

>  <SCORE.INTRA.norm>
-0.0828394

>  <SCORE.RESTR>
0

>  <SCORE.RESTR.CAVITY>
0

>  <SCORE.RESTR.norm>
0

>  <SCORE.SYSTEM>
0

>  <SCORE.SYSTEM.CONST>
0

>  <SCORE.SYSTEM.DIHEDRAL>
0

>  <SCORE.SYSTEM.SOLV>
0

>  <SCORE.SYSTEM.norm>
0

>  <SCORE.heavy>
16

>  <SCORE.norm>
-0.617965

>  <RMSD>
2.648

$$$$
ligand
 OpenBabel11021811463D
libRbt.so/2013.1/901 2013/11/27
 16 16  0  0  0  0  0  0  0  0999 V2000
   50.5620    9.0056   12.5090 P   0  0  2  0  0  0  0  0  0  0  0  0
   50.7264    7.5748   12.1521 O   0  0  0  0  0  0  0  0  0  0  0  0
   50.6433    9.9043   11.1769 O   0  5  0  0  0  0  0  0  0  0  0  0
   51.7542    9.4386   13.5043 O   0  0  0  0  0  0  0  0  0  0  0  0
   46.7754   10.3107   16.6688 C   0  0  2  0  0  0  0  0  0  0  0  0
   45.6782    9.6008   16.0823 O   0  0  0  0  0  0  0  0  0  0  0  0
   46.4128   11.8037   16.8776 C   0  0  2  0  0  0  0  0  0  0  0  0
   45.2235   11.9116   17.7441 N   0  0  0  0  0  0  0  0  0  0  0  0
   46.1225   12.4342   15.5051 C   0  0  1  0  0  0  0  0  0  0  0  0
   45.8011   13.8194   15.6576 O   0  0  0  0  0  0  0  0  0  0  0  0
   47.3798   12.2938   14.6487 C   0  0  2  0  0  0  0  0  0  0  0  0
   47.1320   12.8693   13.3723 O   0  0  0  0  0  0  0  0  0  0  0  0
   47.7148   10.7849   14.4974 C   0  0  2  0  0  0  0  0  0  0  0  0
   47.9486   10.1833   15.8076 O   0  0  0  0  0  0  0  0  0  0  0  0
   48.9901   10.5914   13.6402 C   0  0  0  0  0  0  0  0  0  0  0  0
   49.1248    9.2195   13.2263 O   0  0  0  0  0  0  0  0  0  0  0  0
  1  2  1  6  0  0  0
  1  3  1  0  0  0  0
  1  4  2  0  0  0  0
  1 16  1  0  0  0  0
  5  6  1  6  0  0  0
  5  7  1  0  0  0  0
  5 14  1  0  0  0  0
  7  8  1  1  0  0  0
  7  9  1  0  0  0  0
  9 10  1  1  0  0  0
  9 11  1  0  0  0  0
 11 12  1  6  0  0  0
 11 13  1  0  0  0  0
 13 14  1  0  0  0  0
 13 15  1  6  0  0  0
 15 16  1  0  0  0  0
M  CHG  1   3  -1
M  END
>  <CHROM.1>
-166.07804543,-172.28757475,176.88962815,48.23186771,10.57647145,14.36337327
0.07771141,-0.80567200,2.58169292

>  <Name>
ligand

>  <RI>
0

>  <Rbt.Current_Directory>
/home/itssahil/PROJECTS/Mol_Feturizer/New_Systems/rnas/3B4C

>  <Rbt.Executable>
rbdock ($Id: //depot/dev/client3/rdock/2013.1/src/exe/rbdock.cxx#4 $)

>  <Rbt.Library>
libRbt.so (2013.1, Build901 2013/11/27)

>  <Rbt.Parameter_File>
/export/apps/rDock/src/rDock_2013.1_src/data/scripts/dock_solv.prm

>  <Rbt.Receptor>
prm/pocket_docking_5.prm

>  <SCORE>
-10.0093

>  <SCORE.INTER>
-8.97718

>  <SCORE.INTER.CONST>
1

>  <SCORE.INTER.POLAR>
-1.29502

>  <SCORE.INTER.ROT>
3

>  <SCORE.INTER.SOLV>
17.6277

>  <SCORE.INTER.VDW>
-13.1439

>  <SCORE.INTER.norm>
-0.561074

>  <SCORE.INTRA>
-1.03213

>  <SCORE.INTRA.DIHEDRAL>
-1.15026

>  <SCORE.INTRA.DIHEDRAL.0>
2.1318

>  <SCORE.INTRA.POLAR>
0

>  <SCORE.INTRA.POLAR.0>
0

>  <SCORE.INTRA.REPUL>
0

>  <SCORE.INTRA.REPUL.0>
0

>  <SCORE.INTRA.SOLV>
-0.375299

>  <SCORE.INTRA.SOLV.lig_0>
-58.6125

>  <SCORE.INTRA.VDW>
-0.269353

>  <SCORE.INTRA.VDW.0>
-0.432734

>  <SCORE.INTRA.norm>
-0.0645082

>  <SCORE.RESTR>
0

>  <SCORE.RESTR.CAVITY>
0

>  <SCORE.RESTR.norm>
0

>  <SCORE.SYSTEM>
0

>  <SCORE.SYSTEM.CONST>
0

>  <SCORE.SYSTEM.DIHEDRAL>
0

>  <SCORE.SYSTEM.SOLV>
0

>  <SCORE.SYSTEM.norm>
0

>  <SCORE.heavy>
16

>  <SCORE.norm>
-0.625582

>  <RMSD>
2.676

$$$$
ligand
 OpenBabel11021811463D
libRbt.so/2013.1/901 2013/11/27
 16 16  0  0  0  0  0  0  0  0999 V2000
   50.4466    9.0572   12.5704 P   0  0  2  0  0  0  0  0  0  0  0  0
   50.5417    7.6410   12.1385 O   0  0  0  0  0  0  0  0  0  0  0  0
   50.5670   10.0197   11.2866 O   0  5  0  0  0  0  0  0  0  0  0  0
   51.6609    9.3805   13.5807 O   0  0  0  0  0  0  0  0  0  0  0  0
   46.6532   10.5159   16.6643 C   0  0  2  0  0  0  0  0  0  0  0  0
   45.5417    9.8220   16.0857 O   0  0  0  0  0  0  0  0  0  0  0  0
   46.3249   12.0201   16.8469 C   0  0  2  0  0  0  0  0  0  0  0  0
   45.1356   12.1702   17.7071 N   0  0  0  0  0  0  0  0  0  0  0  0
   46.0539   12.6343   15.4631 C   0  0  1  0  0  0  0  0  0  0  0  0
   45.7644   14.0288   15.5914 O   0  0  0  0  0  0  0  0  0  0  0  0
   47.3104   12.4503   14.6138 C   0  0  2  0  0  0  0  0  0  0  0  0
   47.0803   13.0100   13.3271 O   0  0  0  0  0  0  0  0  0  0  0  0
   47.6106   10.9316   14.4888 C   0  0  2  0  0  0  0  0  0  0  0  0
   47.8260   10.3468   15.8097 O   0  0  0  0  0  0  0  0  0  0  0  0
   48.8839   10.6942   13.6397 C   0  0  0  0  0  0  0  0  0  0  0  0
   49.0234    9.3012   13.3056 O   0  0  0  0  0  0  0  0  0  0  0  0
  1  2  1  6  0  0  0
  1  3  1  0  0  0  0
  1  4  2  0  0  0  0
  1 16  1  0  0  0  0
  5  6  1  6  0  0  0
  5  7  1  0  0  0  0
  5 14  1  0  0  0  0
  7  8  1  1  0  0  0
  7  9  1  0  0  0  0
  9 10  1  1  0  0  0
  9 11  1  0  0  0  0
 11 12  1  6  0  0  0
 11 13  1  0  0  0  0
 13 14  1  0  0  0  0
 13 15  1  6  0  0  0
 15 16  1  0  0  0  0
M  CHG  1   3  -1
M  END
>  <CHROM.1>
-168.95994675,-173.39227334,-175.82553839,48.13255906,10.71032154,14.37186495
0.10967892,-0.80921605,2.58502930

>  <Name>
ligand

>  <RI>
0

>  <Rbt.Current_Directory>
/home/itssahil/PROJECTS/Mol_Feturizer/New_Systems/rnas/3B4C

>  <Rbt.Executable>
rbdock ($Id: //depot/dev/client3/rdock/2013.1/src/exe/rbdock.cxx#4 $)

>  <Rbt.Library>
libRbt.so (2013.1, Build901 2013/11/27)

>  <Rbt.Parameter_File>
/export/apps/rDock/src/rDock_2013.1_src/data/scripts/dock_solv.prm

>  <Rbt.Receptor>
prm/pocket_docking_6.prm

>  <SCORE>
-10.0945

>  <SCORE.INTER>
-8.92728

>  <SCORE.INTER.CONST>
1

>  <SCORE.INTER.POLAR>
-1.29904

>  <SCORE.INTER.ROT>
3

>  <SCORE.INTER.SOLV>
17.5029

>  <SCORE.INTER.VDW>
-13.0557

>  <SCORE.INTER.norm>
-0.557955

>  <SCORE.INTRA>
-1.16717

>  <SCORE.INTRA.DIHEDRAL>
-1.45419

>  <SCORE.INTRA.DIHEDRAL.0>
2.1318

>  <SCORE.INTRA.POLAR>
0

>  <SCORE.INTRA.POLAR.0>
0

>  <SCORE.INTRA.REPUL>
0

>  <SCORE.INTRA.REPUL.0>
0

>  <SCORE.INTRA.SOLV>
-0.37225

>  <SCORE.INTRA.SOLV.lig_0>
-58.6125

>  <SCORE.INTRA.VDW>
-0.253954

>  <SCORE.INTRA.VDW.0>
-0.432734

>  <SCORE.INTRA.norm>
-0.0729483

>  <SCORE.RESTR>
0

>  <SCORE.RESTR.CAVITY>
0

>  <SCORE.RESTR.norm>
0

>  <SCORE.SYSTEM>
0

>  <SCORE.SYSTEM.CONST>
0

>  <SCORE.SYSTEM.DIHEDRAL>
0

>  <SCORE.SYSTEM.SOLV>
0

>  <SCORE.SYSTEM.norm>
0

>  <SCORE.heavy>
16

>  <SCORE.norm>
-0.630903

>  <RMSD>
2.685

$$$$
ligand
 OpenBabel11021811463D
libRbt.so/2013.1/901 2013/11/27
 16 16  0  0  0  0  0  0  0  0999 V2000
   50.7998   10.9497   14.6595 P   0  0  2  0  0  0  0  0  0  0  0  0
   50.4437   12.2833   15.2034 O   0  0  0  0  0  0  0  0  0  0  0  0
   52.2159   10.4834   15.2647 O   0  5  0  0  0  0  0  0  0  0  0  0
   50.9266   11.0537   13.0556 O   0  0  0  0  0  0  0  0  0  0  0  0
   45.9087   12.9206   14.4792 C   0  0  2  0  0  0  0  0  0  0  0  0
   46.7952   14.0338   14.6427 O   0  0  0  0  0  0  0  0  0  0  0  0
   45.2137   12.5724   15.8208 C   0  0  2  0  0  0  0  0  0  0  0  0
   44.4641   13.7440   16.3131 N   0  0  0  0  0  0  0  0  0  0  0  0
   46.2917   12.1709   16.8416 C   0  0  1  0  0  0  0  0  0  0  0  0
   45.6841   11.8247   18.0890 O   0  0  0  0  0  0  0  0  0  0  0  0
   47.0379   10.9598   16.2844 C   0  0  2  0  0  0  0  0  0  0  0  0
   48.0426   10.5729   17.2132 O   0  0  0  0  0  0  0  0  0  0  0  0
   47.6873   11.3536   14.9296 C   0  0  2  0  0  0  0  0  0  0  0  0
   46.6614   11.7732   13.9784 O   0  0  0  0  0  0  0  0  0  0  0  0
   48.4516   10.1523   14.3202 C   0  0  0  0  0  0  0  0  0  0  0  0
   49.6527    9.8794   15.0647 O   0  0  0  0  0  0  0  0  0  0  0  0
  1  2  1  1  0  0  0
  1  3  1  0  0  0  0
  1  4  2  0  0  0  0
  1 16  1  0  0  0  0
  5  6  1  1  0  0  0
  5  7  1  0  0  0  0
  5 14  1  0  0  0  0
  7  8  1  1  0  0  0
  7  9  1  0  0  0  0
  9 10  1  1  0  0  0
  9 11  1  0  0  0  0
 11 12  1  1  0  0  0
 11 13  1  0  0  0  0
 13 14  1  0  0  0  0
 13 15  1  6  0  0  0
 15 16  1  0  0  0  0
M  CHG  1   3  -1
M  END
>  <CHROM.1>
-71.62037866,-77.93257379,70.75618857,48.17431693,11.60394428,15.32598927
0.08230889,0.42552977,-1.07661981

>  <Name>
ligand

>  <RI>
0

>  <Rbt.Current_Directory>
/home/itssahil/PROJECTS/Mol_Feturizer/New_Systems/rnas/3B4C

>  <Rbt.Executable>
rbdock ($Id: //depot/dev/client3/rdock/2013.1/src/exe/rbdock.cxx#4 $)

>  <Rbt.Library>
libRbt.so (2013.1, Build901 2013/11/27)

>  <Rbt.Parameter_File>
/export/apps/rDock/src/rDock_2013.1_src/data/scripts/dock_solv.prm

>  <Rbt.Receptor>
prm/pocket_docking_3.prm

>  <SCORE>
-9.27652

>  <SCORE.INTER>
-9.12328

>  <SCORE.INTER.CONST>
1

>  <SCORE.INTER.POLAR>
-1.2968

>  <SCORE.INTER.ROT>
3

>  <SCORE.INTER.SOLV>
15.8409

>  <SCORE.INTER.VDW>
-12.6398

>  <SCORE.INTER.norm>
-0.570205

>  <SCORE.INTRA>
-0.153233

>  <SCORE.INTRA.DIHEDRAL>
0.00247481

>  <SCORE.INTRA.DIHEDRAL.0>
2.1318

>  <SCORE.INTRA.POLAR>
0

>  <SCORE.INTRA.POLAR.0>
0

>  <SCORE.INTRA.REPUL>
0

>  <SCORE.INTRA.REPUL.0>
0

>  <SCORE.INTRA.SOLV>
0.559592

>  <SCORE.INTRA.SOLV.lig_0>
-58.6125

>  <SCORE.INTRA.VDW>
-0.434266

>  <SCORE.INTRA.VDW.0>
-0.432734

>  <SCORE.INTRA.norm>
-0.00957706

>  <SCORE.RESTR>
0

>  <SCORE.RESTR.CAVITY>
0

>  <SCORE.RESTR.norm>
0

>  <SCORE.SYSTEM>
0

>  <SCORE.SYSTEM.CONST>
0

>  <SCORE.SYSTEM.DIHEDRAL>
0

>  <SCORE.SYSTEM.SOLV>
0

>  <SCORE.SYSTEM.norm>
0

>  <SCORE.heavy>
16

>  <SCORE.norm>
-0.579782

>  <RMSD>
2.713

$$$$
ligand
 OpenBabel11021811463D
libRbt.so/2013.1/901 2013/11/27
 16 16  0  0  0  0  0  0  0  0999 V2000
   50.2821    9.0447   12.5962 P   0  0  2  0  0  0  0  0  0  0  0  0
   50.2671    7.6929   11.9847 O   0  0  0  0  0  0  0  0  0  0  0  0
   50.5272   10.1492   11.4522 O   0  5  0  0  0  0  0  0  0  0  0  0
   51.4868    9.1239   13.6648 O   0  0  0  0  0  0  0  0  0  0  0  0
   46.4642   10.5168   16.7179 C   0  0  2  0  0  0  0  0  0  0  0  0
   45.3531    9.8717   16.0847 O   0  0  0  0  0  0  0  0  0  0  0  0
   46.1774   12.0268   16.9218 C   0  0  2  0  0  0  0  0  0  0  0  0
   44.9629   12.1975   17.7419 N   0  0  0  0  0  0  0  0  0  0  0  0
   45.9769   12.6782   15.5431 C   0  0  1  0  0  0  0  0  0  0  0  0
   45.7273   14.0785   15.6916 O   0  0  0  0  0  0  0  0  0  0  0  0
   47.2571   12.4712   14.7355 C   0  0  2  0  0  0  0  0  0  0  0  0
   47.0920   13.0649   13.4540 O   0  0  0  0  0  0  0  0  0  0  0  0
   47.5131   10.9465   14.5878 C   0  0  2  0  0  0  0  0  0  0  0  0
   47.6614   10.3275   15.9024 O   0  0  0  0  0  0  0  0  0  0  0  0
   48.8084   10.6855   13.7799 C   0  0  0  0  0  0  0  0  0  0  0  0
   48.8626    9.3203   13.3275 O   0  0  0  0  0  0  0  0  0  0  0  0
  1  2  1  6  0  0  0
  1  3  1  0  0  0  0
  1  4  2  0  0  0  0
  1 16  1  0  0  0  0
  5  6  1  6  0  0  0
  5  7  1  0  0  0  0
  5 14  1  0  0  0  0
  7  8  1  1  0  0  0
  7  9  1  0  0  0  0
  9 10  1  1  0  0  0
  9 11  1  0  0  0  0
 11 12  1  6  0  0  0
 11 13  1  0  0  0  0
 13 14  1  0  0  0  0
 13 15  1  6  0  0  0
 15 16  1  0  0  0  0
M  CHG  1   3  -1
M  END
>  <CHROM.1>
-164.29353364,-175.22403095,-172.99780189,48.00417189,10.71932836,14.43465504
0.16810703,-0.81264116,2.66422188

>  <Name>
ligand

>  <RI>
0

>  <Rbt.Current_Directory>
/home/itssahil/PROJECTS/Mol_Feturizer/New_Systems/rnas/3B4C

>  <Rbt.Executable>
rbdock ($Id: //depot/dev/client3/rdock/2013.1/src/exe/rbdock.cxx#4 $)

>  <Rbt.Library>
libRbt.so (2013.1, Build901 2013/11/27)

>  <Rbt.Parameter_File>
/export/apps/rDock/src/rDock_2013.1_src/data/scripts/dock_solv.prm

>  <Rbt.Receptor>
prm/pocket_docking_5.prm

>  <SCORE>
-9.86523

>  <SCORE.INTER>
-8.90894

>  <SCORE.INTER.CONST>
1

>  <SCORE.INTER.POLAR>
-1.29758

>  <SCORE.INTER.ROT>
3

>  <SCORE.INTER.SOLV>
18.1667

>  <SCORE.INTER.VDW>
-13.2696

>  <SCORE.INTER.norm>
-0.556809

>  <SCORE.INTRA>
-0.956296

>  <SCORE.INTRA.DIHEDRAL>
-1.08813

>  <SCORE.INTRA.DIHEDRAL.0>
2.1318

>  <SCORE.INTRA.POLAR>
0

>  <SCORE.INTRA.POLAR.0>
0

>  <SCORE.INTRA.REPUL>
0

>  <SCORE.INTRA.REPUL.0>
0

>  <SCORE.INTRA.SOLV>
-0.401119

>  <SCORE.INTRA.SOLV.lig_0>
-58.6125

>  <SCORE.INTRA.VDW>
-0.211673

>  <SCORE.INTRA.VDW.0>
-0.432734

>  <SCORE.INTRA.norm>
-0.0597685

>  <SCORE.RESTR>
0

>  <SCORE.RESTR.CAVITY>
0

>  <SCORE.RESTR.norm>
0

>  <SCORE.SYSTEM>
0

>  <SCORE.SYSTEM.CONST>
0

>  <SCORE.SYSTEM.DIHEDRAL>
0

>  <SCORE.SYSTEM.SOLV>
0

>  <SCORE.SYSTEM.norm>
0

>  <SCORE.heavy>
16

>  <SCORE.norm>
-0.616577

>  <RMSD>
2.723

$$$$
ligand
 OpenBabel11021811463D
libRbt.so/2013.1/901 2013/11/27
 16 16  0  0  0  0  0  0  0  0999 V2000
   50.3744    9.3600   12.6570 P   0  0  2  0  0  0  0  0  0  0  0  0
   49.9572    7.9988   12.2392 O   0  0  0  0  0  0  0  0  0  0  0  0
   50.4287   10.3240   11.3699 O   0  5  0  0  0  0  0  0  0  0  0  0
   51.8457    9.2801   13.3116 O   0  0  0  0  0  0  0  0  0  0  0  0
   46.0911   10.2394   16.3899 C   0  0  2  0  0  0  0  0  0  0  0  0
   44.7638   10.0333   15.8923 O   0  0  0  0  0  0  0  0  0  0  0  0
   46.3303   11.7380   16.7077 C   0  0  2  0  0  0  0  0  0  0  0  0
   45.3431   12.2008   17.7018 N   0  0  0  0  0  0  0  0  0  0  0  0
   46.1839   12.5445   15.4064 C   0  0  1  0  0  0  0  0  0  0  0  0
   46.4162   13.9329   15.6587 O   0  0  0  0  0  0  0  0  0  0  0  0
   47.2226   12.0259   14.4134 C   0  0  2  0  0  0  0  0  0  0  0  0
   47.1028   12.7577   13.2002 O   0  0  0  0  0  0  0  0  0  0  0  0
   46.9566   10.5178   14.1549 C   0  0  2  0  0  0  0  0  0  0  0  0
   47.0566    9.7640   15.4020 O   0  0  0  0  0  0  0  0  0  0  0  0
   47.9922    9.9434   13.1567 C   0  0  0  0  0  0  0  0  0  0  0  0
   49.3113    9.9424   13.7322 O   0  0  0  0  0  0  0  0  0  0  0  0
  1  2  1  6  0  0  0
  1  3  1  0  0  0  0
  1  4  2  0  0  0  0
  1 16  1  0  0  0  0
  5  6  1  6  0  0  0
  5  7  1  0  0  0  0
  5 14  1  0  0  0  0
  7  8  1  1  0  0  0
  7  9  1  0  0  0  0
  9 10  1  1  0  0  0
  9 11  1  0  0  0  0
 11 12  1  6  0  0  0
 11 13  1  0  0  0  0
 13 14  1  0  0  0  0
 13 15  1  6  0  0  0
 15 16  1  0  0  0  0
M  CHG  1   3  -1
M  END
>  <CHROM.1>
66.53281777,-179.06388760,-57.18422082,47.95398763,10.66134891,14.28318725
0.25874055,-0.73189641,2.89979236

>  <Name>
ligand

>  <RI>
0

>  <Rbt.Current_Directory>
/home/itssahil/PROJECTS/Mol_Feturizer/New_Systems/rnas/3B4C

>  <Rbt.Executable>
rbdock ($Id: //depot/dev/client3/rdock/2013.1/src/exe/rbdock.cxx#4 $)

>  <Rbt.Library>
libRbt.so (2013.1, Build901 2013/11/27)

>  <Rbt.Parameter_File>
/export/apps/rDock/src/rDock_2013.1_src/data/scripts/dock_solv.prm

>  <Rbt.Receptor>
prm/pocket_docking_5.prm

>  <SCORE>
-10.1178

>  <SCORE.INTER>
-8.477

>  <SCORE.INTER.CONST>
1

>  <SCORE.INTER.POLAR>
-1.29845

>  <SCORE.INTER.ROT>
3

>  <SCORE.INTER.SOLV>
18.4739

>  <SCORE.INTER.VDW>
-13.0811

>  <SCORE.INTER.norm>
-0.529812

>  <SCORE.INTRA>
-1.64084

>  <SCORE.INTRA.DIHEDRAL>
-1.95617

>  <SCORE.INTRA.DIHEDRAL.0>
2.1318

>  <SCORE.INTRA.POLAR>
0

>  <SCORE.INTRA.POLAR.0>
0

>  <SCORE.INTRA.REPUL>
0

>  <SCORE.INTRA.REPUL.0>
0

>  <SCORE.INTRA.SOLV>
-0.839855

>  <SCORE.INTRA.SOLV.lig_0>
-58.6125

>  <SCORE.INTRA.VDW>
-0.24283

>  <SCORE.INTRA.VDW.0>
-0.432734

>  <SCORE.INTRA.norm>
-0.102553

>  <SCORE.RESTR>
0

>  <SCORE.RESTR.CAVITY>
0

>  <SCORE.RESTR.norm>
0

>  <SCORE.SYSTEM>
0

>  <SCORE.SYSTEM.CONST>
0

>  <SCORE.SYSTEM.DIHEDRAL>
0

>  <SCORE.SYSTEM.SOLV>
0

>  <SCORE.SYSTEM.norm>
0

>  <SCORE.heavy>
16

>  <SCORE.norm>
-0.632365

>  <RMSD>
2.733

$$$$
ligand
 OpenBabel11021811463D
libRbt.so/2013.1/901 2013/11/27
 16 16  0  0  0  0  0  0  0  0999 V2000
   50.5868    8.7169   12.1944 P   0  0  2  0  0  0  0  0  0  0  0  0
   50.6512    7.3351   11.6578 O   0  0  0  0  0  0  0  0  0  0  0  0
   50.6844    9.7694   10.9814 O   0  5  0  0  0  0  0  0  0  0  0  0
   51.8327    8.9516   13.1906 O   0  0  0  0  0  0  0  0  0  0  0  0
   47.2573    9.9927   16.6605 C   0  0  2  0  0  0  0  0  0  0  0  0
   46.1038    9.2634   16.2254 O   0  0  0  0  0  0  0  0  0  0  0  0
   46.9008   11.4799   16.9158 C   0  0  2  0  0  0  0  0  0  0  0  0
   45.8358   11.5700   17.9330 N   0  0  0  0  0  0  0  0  0  0  0  0
   46.4199   12.1026   15.5943 C   0  0  1  0  0  0  0  0  0  0  0  0
   46.0985   13.4825   15.7883 O   0  0  0  0  0  0  0  0  0  0  0  0
   47.5541   11.9811   14.5781 C   0  0  2  0  0  0  0  0  0  0  0  0
   47.1290   12.5497   13.3461 O   0  0  0  0  0  0  0  0  0  0  0  0
   47.8911   10.4776   14.3834 C   0  0  2  0  0  0  0  0  0  0  0  0
   48.3073    9.8828   15.6509 O   0  0  0  0  0  0  0  0  0  0  0  0
   49.0440   10.3034   13.3641 C   0  0  0  0  0  0  0  0  0  0  0  0
   49.1877    8.9222   12.9856 O   0  0  0  0  0  0  0  0  0  0  0  0
  1  2  1  6  0  0  0
  1  3  1  0  0  0  0
  1  4  2  0  0  0  0
  1 16  1  0  0  0  0
  5  6  1  6  0  0  0
  5  7  1  0  0  0  0
  5 14  1  0  0  0  0
  7  8  1  1  0  0  0
  7  9  1  0  0  0  0
  9 10  1  1  0  0  0
  9 11  1  0  0  0  0
 11 12  1  6  0  0  0
 11 13  1  0  0  0  0
 13 14  1  0  0  0  0
 13 15  1  6  0  0  0
 15 16  1  0  0  0  0
M  CHG  1   3  -1
M  END
>  <CHROM.1>
-168.90181047,-167.33763663,-172.87367683,48.43073834,10.26800766,14.24329234
-0.04392736,-0.88059942,2.46933012

>  <Name>
ligand

>  <RI>
0

>  <Rbt.Current_Directory>
/home/itssahil/PROJECTS/Mol_Feturizer/New_Systems/rnas/3B4C

>  <Rbt.Executable>
rbdock ($Id: //depot/dev/client3/rdock/2013.1/src/exe/rbdock.cxx#4 $)

>  <Rbt.Library>
libRbt.so (2013.1, Build901 2013/11/27)

>  <Rbt.Parameter_File>
/export/apps/rDock/src/rDock_2013.1_src/data/scripts/dock_solv.prm

>  <Rbt.Receptor>
prm/pocket_docking_6.prm

>  <SCORE>
-9.73234

>  <SCORE.INTER>
-8.91178

>  <SCORE.INTER.CONST>
1

>  <SCORE.INTER.POLAR>
-1.29904

>  <SCORE.INTER.ROT>
3

>  <SCORE.INTER.SOLV>
19.7144

>  <SCORE.INTER.VDW>
-13.7825

>  <SCORE.INTER.norm>
-0.556986

>  <SCORE.INTRA>
-0.820568

>  <SCORE.INTRA.DIHEDRAL>
-0.845583

>  <SCORE.INTRA.DIHEDRAL.0>
2.1318

>  <SCORE.INTRA.POLAR>
0

>  <SCORE.INTRA.POLAR.0>
0

>  <SCORE.INTRA.REPUL>
0

>  <SCORE.INTRA.REPUL.0>
0

>  <SCORE.INTRA.SOLV>
-0.309272

>  <SCORE.INTRA.SOLV.lig_0>
-58.6125

>  <SCORE.INTRA.VDW>
-0.243141

>  <SCORE.INTRA.VDW.0>
-0.432734

>  <SCORE.INTRA.norm>
-0.0512855

>  <SCORE.RESTR>
0

>  <SCORE.RESTR.CAVITY>
0

>  <SCORE.RESTR.norm>
0

>  <SCORE.SYSTEM>
0

>  <SCORE.SYSTEM.CONST>
0

>  <SCORE.SYSTEM.DIHEDRAL>
0

>  <SCORE.SYSTEM.SOLV>
0

>  <SCORE.SYSTEM.norm>
0

>  <SCORE.heavy>
16

>  <SCORE.norm>
-0.608271

>  <RMSD>
2.891

$$$$
ligand
 OpenBabel11021811463D
libRbt.so/2013.1/901 2013/11/27
 16 16  0  0  0  0  0  0  0  0999 V2000
   50.4326   10.6154   14.7373 P   0  0  2  0  0  0  0  0  0  0  0  0
   50.1423   12.0478   14.4816 O   0  0  0  0  0  0  0  0  0  0  0  0
   52.0248   10.3842   14.7512 O   0  5  0  0  0  0  0  0  0  0  0  0
   49.7869    9.7298   13.5548 O   0  0  0  0  0  0  0  0  0  0  0  0
   46.6654   12.8019   14.2278 C   0  0  2  0  0  0  0  0  0  0  0  0
   47.5316   13.8776   14.6077 O   0  0  0  0  0  0  0  0  0  0  0  0
   45.3364   12.8615   15.0243 C   0  0  2  0  0  0  0  0  0  0  0  0
   44.6679   14.1544   14.7830 N   0  0  0  0  0  0  0  0  0  0  0  0
   45.6544   12.7050   16.5209 C   0  0  1  0  0  0  0  0  0  0  0  0
   44.4472   12.7373   17.2868 O   0  0  0  0  0  0  0  0  0  0  0  0
   46.3458   11.3567   16.7153 C   0  0  2  0  0  0  0  0  0  0  0  0
   46.6513   11.1925   18.0943 O   0  0  0  0  0  0  0  0  0  0  0  0
   47.6514   11.3392   15.8742 C   0  0  2  0  0  0  0  0  0  0  0  0
   47.3454   11.5297   14.4588 O   0  0  0  0  0  0  0  0  0  0  0  0
   48.3862    9.9853   16.0337 C   0  0  0  0  0  0  0  0  0  0  0  0
   49.8050   10.1862   16.1683 O   0  0  0  0  0  0  0  0  0  0  0  0
  1  2  1  6  0  0  0
  1  3  1  0  0  0  0
  1  4  2  0  0  0  0
  1 16  1  0  0  0  0
  5  6  1  1  0  0  0
  5  7  1  0  0  0  0
  5 14  1  0  0  0  0
  7  8  1  1  0  0  0
  7  9  1  0  0  0  0
  9 10  1  1  0  0  0
  9 11  1  0  0  0  0
 11 12  1  1  0  0  0
 11 13  1  0  0  0  0
 13 14  1  0  0  0  0
 13 15  1  6  0  0  0
 15 16  1  0  0  0  0
M  CHG  1   3  -1
M  END
>  <CHROM.1>
-138.10629443,-72.94480423,77.92087940,47.94122494,11.61860365,15.40283290
-0.05810226,0.48431392,-0.94666853

>  <Name>
ligand

>  <RI>
0

>  <Rbt.Current_Directory>
/home/itssahil/PROJECTS/Mol_Feturizer/New_Systems/rnas/3B4C

>  <Rbt.Executable>
rbdock ($Id: //depot/dev/client3/rdock/2013.1/src/exe/rbdock.cxx#4 $)

>  <Rbt.Library>
libRbt.so (2013.1, Build901 2013/11/27)

>  <Rbt.Parameter_File>
/export/apps/rDock/src/rDock_2013.1_src/data/scripts/dock_solv.prm

>  <Rbt.Receptor>
prm/pocket_docking_5.prm

>  <SCORE>
-9.17944

>  <SCORE.INTER>
-11.0567

>  <SCORE.INTER.CONST>
1

>  <SCORE.INTER.POLAR>
-1.29626

>  <SCORE.INTER.ROT>
3

>  <SCORE.INTER.SOLV>
15.1181

>  <SCORE.INTER.VDW>
-13.6896

>  <SCORE.INTER.norm>
-0.691044

>  <SCORE.INTRA>
1.87727

>  <SCORE.INTRA.DIHEDRAL>
3.34266

>  <SCORE.INTRA.DIHEDRAL.0>
2.1318

>  <SCORE.INTRA.POLAR>
0

>  <SCORE.INTRA.POLAR.0>
0

>  <SCORE.INTRA.REPUL>
0

>  <SCORE.INTRA.REPUL.0>
0

>  <SCORE.INTRA.SOLV>
1.46419

>  <SCORE.INTRA.SOLV.lig_0>
-58.6125

>  <SCORE.INTRA.VDW>
-0.526157

>  <SCORE.INTRA.VDW.0>
-0.432734

>  <SCORE.INTRA.norm>
0.117329

>  <SCORE.RESTR>
0

>  <SCORE.RESTR.CAVITY>
0

>  <SCORE.RESTR.norm>
0

>  <SCORE.SYSTEM>
0

>  <SCORE.SYSTEM.CONST>
0

>  <SCORE.SYSTEM.DIHEDRAL>
0

>  <SCORE.SYSTEM.SOLV>
0

>  <SCORE.SYSTEM.norm>
0

>  <SCORE.heavy>
16

>  <SCORE.norm>
-0.573715

>  <RMSD>
2.925

$$$$
ligand
 OpenBabel11021811463D
libRbt.so/2013.1/901 2013/11/27
 16 16  0  0  0  0  0  0  0  0999 V2000
   50.6472   10.7335   15.2786 P   0  0  2  0  0  0  0  0  0  0  0  0
   50.9664   10.6003   16.7214 O   0  0  0  0  0  0  0  0  0  0  0  0
   51.8949   10.2191   14.4026 O   0  5  0  0  0  0  0  0  0  0  0  0
   50.3784   12.2872   14.9418 O   0  0  0  0  0  0  0  0  0  0  0  0
   46.5442   12.8153   14.2946 C   0  0  2  0  0  0  0  0  0  0  0  0
   47.4363   13.8875   14.6207 O   0  0  0  0  0  0  0  0  0  0  0  0
   45.2678   12.8787   15.1725 C   0  0  2  0  0  0  0  0  0  0  0  0
   44.5901   14.1742   14.9745 N   0  0  0  0  0  0  0  0  0  0  0  0
   45.6779   12.7195   16.6462 C   0  0  1  0  0  0  0  0  0  0  0  0
   44.5209   12.7551   17.4860 O   0  0  0  0  0  0  0  0  0  0  0  0
   46.3754   11.3685   16.7960 C   0  0  2  0  0  0  0  0  0  0  0  0
   46.7657   11.2018   18.1531 O   0  0  0  0  0  0  0  0  0  0  0  0
   47.6258   11.3474   15.8750 C   0  0  2  0  0  0  0  0  0  0  0  0
   47.2327   11.5405   14.4816 O   0  0  0  0  0  0  0  0  0  0  0  0
   48.3643    9.9908   15.9872 C   0  0  0  0  0  0  0  0  0  0  0  0
   49.3347    9.8481   14.9338 O   0  0  0  0  0  0  0  0  0  0  0  0
  1  2  1  1  0  0  0
  1  3  1  0  0  0  0
  1  4  2  0  0  0  0
  1 16  1  0  0  0  0
  5  6  1  1  0  0  0
  5  7  1  0  0  0  0
  5 14  1  0  0  0  0
  7  8  1  1  0  0  0
  7  9  1  0  0  0  0
  9 10  1  1  0  0  0
  9 11  1  0  0  0  0
 11 12  1  1  0  0  0
 11 13  1  0  0  0  0
 13 14  1  0  0  0  0
 13 15  1  6  0  0  0
 15 16  1  0  0  0  0
M  CHG  1   3  -1
M  END
>  <CHROM.1>
167.15818298,77.10585556,41.09750217,48.00415615,11.67941627,15.64751167
-0.11861648,0.41450028,-0.95352512

>  <Name>
ligand

>  <RI>
0

>  <Rbt.Current_Directory>
/home/itssahil/PROJECTS/Mol_Feturizer/New_Systems/rnas/3B4C

>  <Rbt.Executable>
rbdock ($Id: //depot/dev/client3/rdock/2013.1/src/exe/rbdock.cxx#4 $)

>  <Rbt.Library>
libRbt.so (2013.1, Build901 2013/11/27)

>  <Rbt.Parameter_File>
/export/apps/rDock/src/rDock_2013.1_src/data/scripts/dock_solv.prm

>  <Rbt.Receptor>
prm/pocket_docking_3.prm

>  <SCORE>
-10.0529

>  <SCORE.INTER>
-10.9341

>  <SCORE.INTER.CONST>
1

>  <SCORE.INTER.POLAR>
-1.29876

>  <SCORE.INTER.ROT>
3

>  <SCORE.INTER.SOLV>
17.8464

>  <SCORE.INTER.VDW>
-14.509

>  <SCORE.INTER.norm>
-0.683379

>  <SCORE.INTRA>
0.88117

>  <SCORE.INTRA.DIHEDRAL>
0.327467

>  <SCORE.INTRA.DIHEDRAL.0>
2.1318

>  <SCORE.INTRA.POLAR>
0

>  <SCORE.INTRA.POLAR.0>
0

>  <SCORE.INTRA.REPUL>
0

>  <SCORE.INTRA.REPUL.0>
0

>  <SCORE.INTRA.SOLV>
1.83644

>  <SCORE.INTRA.SOLV.lig_0>
-58.6125

>  <SCORE.INTRA.VDW>
-0.200782

>  <SCORE.INTRA.VDW.0>
-0.432734

>  <SCORE.INTRA.norm>
0.0550731

>  <SCORE.RESTR>
0

>  <SCORE.RESTR.CAVITY>
0

>  <SCORE.RESTR.norm>
0

>  <SCORE.SYSTEM>
0

>  <SCORE.SYSTEM.CONST>
0

>  <SCORE.SYSTEM.DIHEDRAL>
0

>  <SCORE.SYSTEM.SOLV>
0

>  <SCORE.SYSTEM.norm>
0

>  <SCORE.heavy>
16

>  <SCORE.norm>
-0.628306

>  <RMSD>
2.973

$$$$
ligand
 OpenBabel11021811463D
libRbt.so/2013.1/901 2013/11/27
 16 16  0  0  0  0  0  0  0  0999 V2000
   50.3266   10.1863   15.2290 P   0  0  2  0  0  0  0  0  0  0  0  0
   51.5221    9.5717   15.8571 O   0  0  0  0  0  0  0  0  0  0  0  0
   50.2130    9.6994   13.6997 O   0  5  0  0  0  0  0  0  0  0  0  0
   50.4861   11.7905   15.2555 O   0  0  0  0  0  0  0  0  0  0  0  0
   46.5260   13.0713   13.6723 C   0  0  2  0  0  0  0  0  0  0  0  0
   47.6460   13.9273   13.9271 O   0  0  0  0  0  0  0  0  0  0  0  0
   45.3642   13.3838   14.6503 C   0  0  2  0  0  0  0  0  0  0  0  0
   44.9600   14.7957   14.5098 N   0  0  0  0  0  0  0  0  0  0  0  0
   45.8462   13.1151   16.0859 C   0  0  1  0  0  0  0  0  0  0  0  0
   44.7920   13.3762   17.0163 O   0  0  0  0  0  0  0  0  0  0  0  0
   46.2543   11.6457   16.1768 C   0  0  2  0  0  0  0  0  0  0  0  0
   46.7063   11.3761   17.4977 O   0  0  0  0  0  0  0  0  0  0  0  0
   47.3963   11.3809   15.1580 C   0  0  2  0  0  0  0  0  0  0  0  0
   46.9443   11.6776   13.8011 O   0  0  0  0  0  0  0  0  0  0  0  0
   47.8403    9.8980   15.2080 C   0  0  0  0  0  0  0  0  0  0  0  0
   49.0001    9.7394   16.0453 O   0  0  0  0  0  0  0  0  0  0  0  0
  1  2  1  1  0  0  0
  1  3  1  0  0  0  0
  1  4  2  0  0  0  0
  1 16  1  0  0  0  0
  5  6  1  1  0  0  0
  5  7  1  0  0  0  0
  5 14  1  0  0  0  0
  7  8  1  1  0  0  0
  7  9  1  0  0  0  0
  9 10  1  1  0  0  0
  9 11  1  0  0  0  0
 11 12  1  1  0  0  0
 11 13  1  0  0  0  0
 13 14  1  0  0  0  0
 13 15  1  6  0  0  0
 15 16  1  0  0  0  0
M  CHG  1   3  -1
M  END
>  <CHROM.1>
-96.84744153,-79.19155706,-159.04255311,47.87334067,11.64235507,15.24759881
-0.30955571,0.54590050,-0.98509582

>  <Name>
ligand

>  <RI>
0

>  <Rbt.Current_Directory>
/home/itssahil/PROJECTS/Mol_Feturizer/New_Systems/rnas/3B4C

>  <Rbt.Executable>
rbdock ($Id: //depot/dev/client3/rdock/2013.1/src/exe/rbdock.cxx#4 $)

>  <Rbt.Library>
libRbt.so (2013.1, Build901 2013/11/27)

>  <Rbt.Parameter_File>
/export/apps/rDock/src/rDock_2013.1_src/data/scripts/dock_solv.prm

>  <Rbt.Receptor>
prm/pocket_docking_6.prm

>  <SCORE>
-6.63902

>  <SCORE.INTER>
-9.3615

>  <SCORE.INTER.CONST>
1

>  <SCORE.INTER.POLAR>
-1.03805

>  <SCORE.INTER.ROT>
3

>  <SCORE.INTER.SOLV>
15.2295

>  <SCORE.INTER.VDW>
-13.4573

>  <SCORE.INTER.norm>
-0.585094

>  <SCORE.INTRA>
2.72248

>  <SCORE.INTRA.DIHEDRAL>
3.75529

>  <SCORE.INTRA.DIHEDRAL.0>
2.1318

>  <SCORE.INTRA.POLAR>
0

>  <SCORE.INTRA.POLAR.0>
0

>  <SCORE.INTRA.REPUL>
0

>  <SCORE.INTRA.REPUL.0>
0

>  <SCORE.INTRA.SOLV>
2.58255

>  <SCORE.INTRA.SOLV.lig_0>
-58.6125

>  <SCORE.INTRA.VDW>
-0.446442

>  <SCORE.INTRA.VDW.0>
-0.432734

>  <SCORE.INTRA.norm>
0.170155

>  <SCORE.RESTR>
0

>  <SCORE.RESTR.CAVITY>
0

>  <SCORE.RESTR.norm>
0

>  <SCORE.SYSTEM>
0

>  <SCORE.SYSTEM.CONST>
0

>  <SCORE.SYSTEM.DIHEDRAL>
0

>  <SCORE.SYSTEM.SOLV>
0

>  <SCORE.SYSTEM.norm>
0

>  <SCORE.heavy>
16

>  <SCORE.norm>
-0.414939

>  <RMSD>
3.230

$$$$
ligand
 OpenBabel11021811463D
libRbt.so/2013.1/901 2013/11/27
 16 16  0  0  0  0  0  0  0  0999 V2000
   50.3929    9.4811   12.6977 P   0  0  2  0  0  0  0  0  0  0  0  0
   50.4617   10.3557   11.5013 O   0  0  0  0  0  0  0  0  0  0  0  0
   51.8813    9.1828   13.2314 O   0  5  0  0  0  0  0  0  0  0  0  0
   49.6958    8.0860   12.2887 O   0  0  0  0  0  0  0  0  0  0  0  0
   45.0683   11.7866   15.0027 C   0  0  2  0  0  0  0  0  0  0  0  0
   45.4870   13.1564   14.9880 O   0  0  0  0  0  0  0  0  0  0  0  0
   45.1401   11.2074   16.4392 C   0  0  2  0  0  0  0  0  0  0  0  0
   44.2865   12.0038   17.3413 N   0  0  0  0  0  0  0  0  0  0  0  0
   46.6014   11.2592   16.9161 C   0  0  1  0  0  0  0  0  0  0  0  0
   46.7088   10.7149   18.2342 O   0  0  0  0  0  0  0  0  0  0  0  0
   47.4404   10.4247   15.9499 C   0  0  2  0  0  0  0  0  0  0  0  0
   48.7977   10.4611   16.3718 O   0  0  0  0  0  0  0  0  0  0  0  0
   47.3086   11.0283   14.5249 C   0  0  2  0  0  0  0  0  0  0  0  0
   45.9127   11.0138   14.0951 O   0  0  0  0  0  0  0  0  0  0  0  0
   48.1385   10.2093   13.5055 C   0  0  0  0  0  0  0  0  0  0  0  0
   49.5344   10.2204   13.8562 O   0  0  0  0  0  0  0  0  0  0  0  0
  1  2  1  6  0  0  0
  1  3  1  0  0  0  0
  1  4  2  0  0  0  0
  1 16  1  0  0  0  0
  5  6  1  1  0  0  0
  5  7  1  0  0  0  0
  5 14  1  0  0  0  0
  7  8  1  1  0  0  0
  7  9  1  0  0  0  0
  9 10  1  1  0  0  0
  9 11  1  0  0  0  0
 11 12  1  1  0  0  0
 11 13  1  0  0  0  0
 13 14  1  0  0  0  0
 13 15  1  6  0  0  0
 15 16  1  0  0  0  0
M  CHG  1   3  -1
M  END
>  <CHROM.1>
-60.68262447,-174.50228489,73.07192218,47.94375476,10.55642780,14.61716577
0.57347006,0.48183650,-1.47408683

>  <Name>
ligand

>  <RI>
0

>  <Rbt.Current_Directory>
/home/itssahil/PROJECTS/Mol_Feturizer/New_Systems/rnas/3B4C

>  <Rbt.Executable>
rbdock ($Id: //depot/dev/client3/rdock/2013.1/src/exe/rbdock.cxx#4 $)

>  <Rbt.Library>
libRbt.so (2013.1, Build901 2013/11/27)

>  <Rbt.Parameter_File>
/export/apps/rDock/src/rDock_2013.1_src/data/scripts/dock_solv.prm

>  <Rbt.Receptor>
prm/pocket_docking_8.prm

>  <SCORE>
-10.1079

>  <SCORE.INTER>
-9.0507

>  <SCORE.INTER.CONST>
1

>  <SCORE.INTER.POLAR>
-1.29844

>  <SCORE.INTER.ROT>
3

>  <SCORE.INTER.SOLV>
19.7956

>  <SCORE.INTER.VDW>
-13.9042

>  <SCORE.INTER.norm>
-0.565668

>  <SCORE.INTRA>
-1.05786

>  <SCORE.INTRA.DIHEDRAL>
-1.70585

>  <SCORE.INTRA.DIHEDRAL.0>
2.1318

>  <SCORE.INTRA.POLAR>
0

>  <SCORE.INTRA.POLAR.0>
0

>  <SCORE.INTRA.REPUL>
0

>  <SCORE.INTRA.REPUL.0>
0

>  <SCORE.INTRA.SOLV>
-0.518995

>  <SCORE.INTRA.SOLV.lig_0>
-58.6125

>  <SCORE.INTRA.VDW>
0.0545615

>  <SCORE.INTRA.VDW.0>
-0.432734

>  <SCORE.INTRA.norm>
-0.0661164

>  <SCORE.RESTR>
0.000668011

>  <SCORE.RESTR.CAVITY>
0.000668011

>  <SCORE.RESTR.norm>
4.17507e-05

>  <SCORE.SYSTEM>
0

>  <SCORE.SYSTEM.CONST>
0

>  <SCORE.SYSTEM.DIHEDRAL>
0

>  <SCORE.SYSTEM.SOLV>
0

>  <SCORE.SYSTEM.norm>
0

>  <SCORE.heavy>
16

>  <SCORE.norm>
-0.631743

>  <RMSD>
3.235

$$$$
ligand
 OpenBabel11021811463D
libRbt.so/2013.1/901 2013/11/27
 16 16  0  0  0  0  0  0  0  0999 V2000
   50.7143    9.2563   12.5201 P   0  0  2  0  0  0  0  0  0  0  0  0
   50.6064   10.0122   11.2480 O   0  0  0  0  0  0  0  0  0  0  0  0
   52.2642    9.1016   12.9234 O   0  5  0  0  0  0  0  0  0  0  0  0
   50.0797    7.7885   12.3138 O   0  0  0  0  0  0  0  0  0  0  0  0
   45.6299   12.0735   14.7767 C   0  0  2  0  0  0  0  0  0  0  0  0
   46.2115   13.3825   14.7769 O   0  0  0  0  0  0  0  0  0  0  0  0
   45.5937   11.4900   16.2127 C   0  0  2  0  0  0  0  0  0  0  0  0
   44.8196   12.3839   17.0950 N   0  0  0  0  0  0  0  0  0  0  0  0
   47.0376   11.3645   16.7273 C   0  0  1  0  0  0  0  0  0  0  0  0
   47.0441   10.8113   18.0461 O   0  0  0  0  0  0  0  0  0  0  0  0
   47.7942   10.4345   15.7805 C   0  0  2  0  0  0  0  0  0  0  0  0
   49.1346   10.3063   16.2374 O   0  0  0  0  0  0  0  0  0  0  0  0
   47.7735   11.0495   14.3544 C   0  0  2  0  0  0  0  0  0  0  0  0
   46.3978   11.2041   13.8887 O   0  0  0  0  0  0  0  0  0  0  0  0
   48.5244   10.1360   13.3543 C   0  0  0  0  0  0  0  0  0  0  0  0
   49.9220   10.0524   13.6880 O   0  0  0  0  0  0  0  0  0  0  0  0
  1  2  1  6  0  0  0
  1  3  1  0  0  0  0
  1  4  2  0  0  0  0
  1 16  1  0  0  0  0
  5  6  1  1  0  0  0
  5  7  1  0  0  0  0
  5 14  1  0  0  0  0
  7  8  1  1  0  0  0
  7  9  1  0  0  0  0
  9 10  1  1  0  0  0
  9 11  1  0  0  0  0
 11 12  1  1  0  0  0
 11 13  1  0  0  0  0
 13 14  1  0  0  0  0
 13 15  1  6  0  0  0
 15 16  1  0  0  0  0
M  CHG  1   3  -1
M  END
>  <CHROM.1>
-64.66775119,-172.53471884,62.47233994,48.35342176,10.54852312,14.43088976
0.53868065,0.58762875,-1.43522681

>  <Name>
ligand

>  <RI>
0

>  <Rbt.Current_Directory>
/home/itssahil/PROJECTS/Mol_Feturizer/New_Systems/rnas/3B4C

>  <Rbt.Executable>
rbdock ($Id: //depot/dev/client3/rdock/2013.1/src/exe/rbdock.cxx#4 $)

>  <Rbt.Library>
libRbt.so (2013.1, Build901 2013/11/27)

>  <Rbt.Parameter_File>
/export/apps/rDock/src/rDock_2013.1_src/data/scripts/dock_solv.prm

>  <Rbt.Receptor>
prm/pocket_docking_5.prm

>  <SCORE>
-9.94461

>  <SCORE.INTER>
-8.63704

>  <SCORE.INTER.CONST>
1

>  <SCORE.INTER.POLAR>
-1.29904

>  <SCORE.INTER.ROT>
3

>  <SCORE.INTER.SOLV>
18.1426

>  <SCORE.INTER.VDW>
-13.0754

>  <SCORE.INTER.norm>
-0.539815

>  <SCORE.INTRA>
-1.30757

>  <SCORE.INTRA.DIHEDRAL>
-1.77012

>  <SCORE.INTRA.DIHEDRAL.0>
2.1318

>  <SCORE.INTRA.POLAR>
0

>  <SCORE.INTRA.POLAR.0>
0

>  <SCORE.INTRA.REPUL>
0

>  <SCORE.INTRA.REPUL.0>
0

>  <SCORE.INTRA.SOLV>
-0.683374

>  <SCORE.INTRA.SOLV.lig_0>
-58.6125

>  <SCORE.INTRA.VDW>
-0.0808245

>  <SCORE.INTRA.VDW.0>
-0.432734

>  <SCORE.INTRA.norm>
-0.0817231

>  <SCORE.RESTR>
0

>  <SCORE.RESTR.CAVITY>
0

>  <SCORE.RESTR.norm>
0

>  <SCORE.SYSTEM>
0

>  <SCORE.SYSTEM.CONST>
0

>  <SCORE.SYSTEM.DIHEDRAL>
0

>  <SCORE.SYSTEM.SOLV>
0

>  <SCORE.SYSTEM.norm>
0

>  <SCORE.heavy>
16

>  <SCORE.norm>
-0.621538

>  <RMSD>
3.276

$$$$
ligand
 OpenBabel11021811463D
libRbt.so/2013.1/901 2013/11/27
 16 16  0  0  0  0  0  0  0  0999 V2000
   50.7226    9.3335   12.4768 P   0  0  2  0  0  0  0  0  0  0  0  0
   50.6749   10.0710   11.1903 O   0  0  0  0  0  0  0  0  0  0  0  0
   52.2477    9.2263   12.9784 O   0  5  0  0  0  0  0  0  0  0  0  0
   50.1418    7.8465   12.2512 O   0  0  0  0  0  0  0  0  0  0  0  0
   45.3748   11.8462   14.4738 C   0  0  2  0  0  0  0  0  0  0  0  0
   45.8661   13.1917   14.4746 O   0  0  0  0  0  0  0  0  0  0  0  0
   45.3192   11.2825   15.9171 C   0  0  2  0  0  0  0  0  0  0  0  0
   44.4509   12.1342   16.7521 N   0  0  0  0  0  0  0  0  0  0  0  0
   46.7460   11.2633   16.4911 C   0  0  1  0  0  0  0  0  0  0  0  0
   46.7357   10.7311   17.8184 O   0  0  0  0  0  0  0  0  0  0  0  0
   47.6019   10.3735   15.5914 C   0  0  2  0  0  0  0  0  0  0  0  0
   48.9280   10.3436   16.1037 O   0  0  0  0  0  0  0  0  0  0  0  0
   47.5982   10.9648   14.1553 C   0  0  2  0  0  0  0  0  0  0  0  0
   46.2355   11.0184   13.6324 O   0  0  0  0  0  0  0  0  0  0  0  0
   48.4496   10.0902   13.2019 C   0  0  0  0  0  0  0  0  0  0  0  0
   49.8374   10.1213   13.5819 O   0  0  0  0  0  0  0  0  0  0  0  0
  1  2  1  6  0  0  0
  1  3  1  0  0  0  0
  1  4  2  0  0  0  0
  1 16  1  0  0  0  0
  5  6  1  1  0  0  0
  5  7  1  0  0  0  0
  5 14  1  0  0  0  0
  7  8  1  1  0  0  0
  7  9  1  0  0  0  0
  9 10  1  1  0  0  0
  9 11  1  0  0  0  0
 11 12  1  1  0  0  0
 11 13  1  0  0  0  0
 13 14  1  0  0  0  0
 13 15  1  6  0  0  0
 15 16  1  0  0  0  0
M  CHG  1   3  -1
M  END
>  <CHROM.1>
-65.43364546,-173.83968900,66.03119402,48.20538412,10.49946846,14.26563755
0.50176971,0.51670598,-1.43410918

>  <Name>
ligand

>  <RI>
0

>  <Rbt.Current_Directory>
/home/itssahil/PROJECTS/Mol_Feturizer/New_Systems/rnas/3B4C

>  <Rbt.Executable>
rbdock ($Id: //depot/dev/client3/rdock/2013.1/src/exe/rbdock.cxx#4 $)

>  <Rbt.Library>
libRbt.so (2013.1, Build901 2013/11/27)

>  <Rbt.Parameter_File>
/export/apps/rDock/src/rDock_2013.1_src/data/scripts/dock_solv.prm

>  <Rbt.Receptor>
prm/pocket_docking_7.prm

>  <SCORE>
-9.94276

>  <SCORE.INTER>
-8.63362

>  <SCORE.INTER.CONST>
1

>  <SCORE.INTER.POLAR>
-1.29786

>  <SCORE.INTER.ROT>
3

>  <SCORE.INTER.SOLV>
16.0335

>  <SCORE.INTER.VDW>
-12.3741

>  <SCORE.INTER.norm>
-0.539601

>  <SCORE.INTRA>
-1.30915

>  <SCORE.INTRA.DIHEDRAL>
-1.77828

>  <SCORE.INTRA.DIHEDRAL.0>
2.1318

>  <SCORE.INTRA.POLAR>
0

>  <SCORE.INTRA.POLAR.0>
0

>  <SCORE.INTRA.REPUL>
0

>  <SCORE.INTRA.REPUL.0>
0

>  <SCORE.INTRA.SOLV>
-0.641692

>  <SCORE.INTRA.SOLV.lig_0>
-58.6125

>  <SCORE.INTRA.VDW>
-0.099163

>  <SCORE.INTRA.VDW.0>
-0.432734

>  <SCORE.INTRA.norm>
-0.0818218

>  <SCORE.RESTR>
0

>  <SCORE.RESTR.CAVITY>
0

>  <SCORE.RESTR.norm>
0

>  <SCORE.SYSTEM>
0

>  <SCORE.SYSTEM.CONST>
0

>  <SCORE.SYSTEM.DIHEDRAL>
0

>  <SCORE.SYSTEM.SOLV>
0

>  <SCORE.SYSTEM.norm>
0

>  <SCORE.heavy>
16

>  <SCORE.norm>
-0.621423

>  <RMSD>
3.279

$$$$
ligand
 OpenBabel11021811463D
libRbt.so/2013.1/901 2013/11/27
 16 16  0  0  0  0  0  0  0  0999 V2000
   51.1459    9.3975   12.3116 P   0  0  2  0  0  0  0  0  0  0  0  0
   50.3738    8.7935   11.1980 O   0  0  0  0  0  0  0  0  0  0  0  0
   52.4114   10.1942   11.7178 O   0  5  0  0  0  0  0  0  0  0  0  0
   51.6764    8.2228   13.2802 O   0  0  0  0  0  0  0  0  0  0  0  0
   45.6410   11.6037   14.1771 C   0  0  2  0  0  0  0  0  0  0  0  0
   46.0422   12.9701   14.0231 O   0  0  0  0  0  0  0  0  0  0  0  0
   45.6022   11.2100   15.6763 C   0  0  2  0  0  0  0  0  0  0  0  0
   44.6676   12.0930   16.3999 N   0  0  0  0  0  0  0  0  0  0  0  0
   47.0187   11.3540   16.2578 C   0  0  1  0  0  0  0  0  0  0  0  0
   47.0247   10.9809   17.6383 O   0  0  0  0  0  0  0  0  0  0  0  0
   47.9444   10.4249   15.4744 C   0  0  2  0  0  0  0  0  0  0  0  0
   49.2621   10.5444   15.9952 O   0  0  0  0  0  0  0  0  0  0  0  0
   47.9222   10.8428   13.9788 C   0  0  2  0  0  0  0  0  0  0  0  0
   46.5665   10.7431   13.4444 O   0  0  0  0  0  0  0  0  0  0  0  0
   48.8430    9.9223   13.1403 C   0  0  0  0  0  0  0  0  0  0  0  0
   50.1941   10.4183   13.1348 O   0  0  0  0  0  0  0  0  0  0  0  0
  1  2  1  6  0  0  0
  1  3  1  0  0  0  0
  1  4  2  0  0  0  0
  1 16  1  0  0  0  0
  5  6  1  1  0  0  0
  5  7  1  0  0  0  0
  5 14  1  0  0  0  0
  7  8  1  1  0  0  0
  7  9  1  0  0  0  0
  9 10  1  1  0  0  0
  9 11  1  0  0  0  0
 11 12  1  1  0  0  0
 11 13  1  0  0  0  0
 13 14  1  0  0  0  0
 13 15  1  6  0  0  0
 15 16  1  0  0  0  0
M  CHG  1   3  -1
M  END
>  <CHROM.1>
-87.21783714,177.25825515,33.85998220,48.55123342,10.50061213,14.06589466
0.52356738,0.44029332,-1.51485665

>  <Name>
ligand

>  <RI>
0

>  <Rbt.Current_Directory>
/home/itssahil/PROJECTS/Mol_Feturizer/New_Systems/rnas/3B4C

>  <Rbt.Executable>
rbdock ($Id: //depot/dev/client3/rdock/2013.1/src/exe/rbdock.cxx#4 $)

>  <Rbt.Library>
libRbt.so (2013.1, Build901 2013/11/27)

>  <Rbt.Parameter_File>
/export/apps/rDock/src/rDock_2013.1_src/data/scripts/dock_solv.prm

>  <Rbt.Receptor>
prm/pocket_docking_6.prm

>  <SCORE>
-7.89079

>  <SCORE.INTER>
-8.26619

>  <SCORE.INTER.CONST>
1

>  <SCORE.INTER.POLAR>
-1.29904

>  <SCORE.INTER.ROT>
3

>  <SCORE.INTER.SOLV>
13.2496

>  <SCORE.INTER.VDW>
-11.1972

>  <SCORE.INTER.norm>
-0.516637

>  <SCORE.INTRA>
0.375399

>  <SCORE.INTRA.DIHEDRAL>
1.10972

>  <SCORE.INTRA.DIHEDRAL.0>
2.1318

>  <SCORE.INTRA.POLAR>
0

>  <SCORE.INTRA.POLAR.0>
0

>  <SCORE.INTRA.REPUL>
0

>  <SCORE.INTRA.REPUL.0>
0

>  <SCORE.INTRA.SOLV>
-0.981055

>  <SCORE.INTRA.SOLV.lig_0>
-58.6125

>  <SCORE.INTRA.VDW>
0.311066

>  <SCORE.INTRA.VDW.0>
-0.432734

>  <SCORE.INTRA.norm>
0.0234624

>  <SCORE.RESTR>
0

>  <SCORE.RESTR.CAVITY>
0

>  <SCORE.RESTR.norm>
0

>  <SCORE.SYSTEM>
0

>  <SCORE.SYSTEM.CONST>
0

>  <SCORE.SYSTEM.DIHEDRAL>
0

>  <SCORE.SYSTEM.SOLV>
0

>  <SCORE.SYSTEM.norm>
0

>  <SCORE.heavy>
16

>  <SCORE.norm>
-0.493175

>  <RMSD>
3.334

$$$$
ligand
 OpenBabel11021811463D
libRbt.so/2013.1/901 2013/11/27
 16 16  0  0  0  0  0  0  0  0999 V2000
   50.5392    9.5433   12.3704 P   0  0  2  0  0  0  0  0  0  0  0  0
   49.8316    8.2782   12.0541 O   0  0  0  0  0  0  0  0  0  0  0  0
   51.2266   10.1225   11.0359 O   0  5  0  0  0  0  0  0  0  0  0  0
   51.6880    9.2435   13.4613 O   0  0  0  0  0  0  0  0  0  0  0  0
   45.7462   12.1232   14.3407 C   0  0  2  0  0  0  0  0  0  0  0  0
   46.2949   13.4464   14.3445 O   0  0  0  0  0  0  0  0  0  0  0  0
   45.2485   11.7326   15.7562 C   0  0  2  0  0  0  0  0  0  0  0  0
   44.2295   12.6980   16.2106 N   0  0  0  0  0  0  0  0  0  0  0  0
   46.4486   11.7428   16.7179 C   0  0  1  0  0  0  0  0  0  0  0  0
   46.0290   11.3687   18.0329 O   0  0  0  0  0  0  0  0  0  0  0  0
   47.4718   10.7323   16.2024 C   0  0  2  0  0  0  0  0  0  0  0  0
   48.5926   10.7274   17.0773 O   0  0  0  0  0  0  0  0  0  0  0  0
   47.9125   11.1527   14.7737 C   0  0  2  0  0  0  0  0  0  0  0  0
   46.7610   11.1810   13.8755 O   0  0  0  0  0  0  0  0  0  0  0  0
   48.9475   10.1513   14.2041 C   0  0  0  0  0  0  0  0  0  0  0  0
   49.4792   10.6220   12.9521 O   0  0  0  0  0  0  0  0  0  0  0  0
  1  2  1  6  0  0  0
  1  3  1  0  0  0  0
  1  4  2  0  0  0  0
  1 16  1  0  0  0  0
  5  6  1  1  0  0  0
  5  7  1  0  0  0  0
  5 14  1  0  0  0  0
  7  8  1  1  0  0  0
  7  9  1  0  0  0  0
  9 10  1  1  0  0  0
  9 11  1  0  0  0  0
 11 12  1  1  0  0  0
 11 13  1  0  0  0  0
 13 14  1  0  0  0  0
 13 15  1  6  0  0  0
 15 16  1  0  0  0  0
M  CHG  1   3  -1
M  END
>  <CHROM.1>
-173.00962573,-179.08023195,64.58667980,48.15945192,10.80535221,14.38919945
0.53733027,0.56989250,-1.40396162

>  <Name>
ligand

>  <RI>
0

>  <Rbt.Current_Directory>
/home/itssahil/PROJECTS/Mol_Feturizer/New_Systems/rnas/3B4C

>  <Rbt.Executable>
rbdock ($Id: //depot/dev/client3/rdock/2013.1/src/exe/rbdock.cxx#4 $)

>  <Rbt.Library>
libRbt.so (2013.1, Build901 2013/11/27)

>  <Rbt.Parameter_File>
/export/apps/rDock/src/rDock_2013.1_src/data/scripts/dock_solv.prm

>  <Rbt.Receptor>
prm/pocket_docking_5.prm

>  <SCORE>
-10.1652

>  <SCORE.INTER>
-8.56391

>  <SCORE.INTER.CONST>
1

>  <SCORE.INTER.POLAR>
-1.29904

>  <SCORE.INTER.ROT>
3

>  <SCORE.INTER.SOLV>
15.1251

>  <SCORE.INTER.VDW>
-12.0209

>  <SCORE.INTER.norm>
-0.535245

>  <SCORE.INTRA>
-1.60129

>  <SCORE.INTRA.DIHEDRAL>
-1.91234

>  <SCORE.INTRA.DIHEDRAL.0>
2.1318

>  <SCORE.INTRA.POLAR>
0

>  <SCORE.INTRA.POLAR.0>
0

>  <SCORE.INTRA.REPUL>
0

>  <SCORE.INTRA.REPUL.0>
0

>  <SCORE.INTRA.SOLV>
-0.997565

>  <SCORE.INTRA.SOLV.lig_0>
-58.6125

>  <SCORE.INTRA.VDW>
-0.14634

>  <SCORE.INTRA.VDW.0>
-0.432734

>  <SCORE.INTRA.norm>
-0.100081

>  <SCORE.RESTR>
0

>  <SCORE.RESTR.CAVITY>
0

>  <SCORE.RESTR.norm>
0

>  <SCORE.SYSTEM>
0

>  <SCORE.SYSTEM.CONST>
0

>  <SCORE.SYSTEM.DIHEDRAL>
0

>  <SCORE.SYSTEM.SOLV>
0

>  <SCORE.SYSTEM.norm>
0

>  <SCORE.heavy>
16

>  <SCORE.norm>
-0.635325

>  <RMSD>
3.366

$$$$
ligand
 OpenBabel11021811463D
libRbt.so/2013.1/901 2013/11/27
 16 16  0  0  0  0  0  0  0  0999 V2000
   50.3864    9.8895   12.9807 P   0  0  2  0  0  0  0  0  0  0  0  0
   49.4274    8.9129   12.4081 O   0  0  0  0  0  0  0  0  0  0  0  0
   51.3630   10.4270   11.8205 O   0  5  0  0  0  0  0  0  0  0  0  0
   51.2723    9.1549   14.1099 O   0  0  0  0  0  0  0  0  0  0  0  0
   46.0989   13.3885   14.4967 C   0  0  2  0  0  0  0  0  0  0  0  0
   46.9119   14.4827   14.9369 O   0  0  0  0  0  0  0  0  0  0  0  0
   45.1457   12.9246   15.6281 C   0  0  2  0  0  0  0  0  0  0  0  0
   44.2891   14.0490   16.0510 N   0  0  0  0  0  0  0  0  0  0  0  0
   45.9940   12.4349   16.8139 C   0  0  1  0  0  0  0  0  0  0  0  0
   45.1458   11.9812   17.8721 O   0  0  0  0  0  0  0  0  0  0  0  0
   46.8615   11.2769   16.3237 C   0  0  2  0  0  0  0  0  0  0  0  0
   47.6571   10.8097   17.4057 O   0  0  0  0  0  0  0  0  0  0  0  0
   47.7721   11.7873   15.1737 C   0  0  2  0  0  0  0  0  0  0  0  0
   46.9600   12.2889   14.0683 O   0  0  0  0  0  0  0  0  0  0  0  0
   48.6681   10.6435   14.6374 C   0  0  0  0  0  0  0  0  0  0  0  0
   49.5692   11.1309   13.6265 O   0  0  0  0  0  0  0  0  0  0  0  0
  1  2  1  6  0  0  0
  1  3  1  0  0  0  0
  1  4  2  0  0  0  0
  1 16  1  0  0  0  0
  5  6  1  1  0  0  0
  5  7  1  0  0  0  0
  5 14  1  0  0  0  0
  7  8  1  1  0  0  0
  7  9  1  0  0  0  0
  9 10  1  1  0  0  0
  9 11  1  0  0  0  0
 11 12  1  1  0  0  0
 11 13  1  0  0  0  0
 13 14  1  0  0  0  0
 13 15  1  6  0  0  0
 15 16  1  0  0  0  0
M  CHG  1   3  -1
M  END
>  <CHROM.1>
-176.57441883,-174.34441673,58.19414338,47.97776441,11.44034033,14.72944575
0.13393343,0.73898342,-0.94815025

>  <Name>
ligand

>  <RI>
0

>  <Rbt.Current_Directory>
/home/itssahil/PROJECTS/Mol_Feturizer/New_Systems/rnas/3B4C

>  <Rbt.Executable>
rbdock ($Id: //depot/dev/client3/rdock/2013.1/src/exe/rbdock.cxx#4 $)

>  <Rbt.Library>
libRbt.so (2013.1, Build901 2013/11/27)

>  <Rbt.Parameter_File>
/export/apps/rDock/src/rDock_2013.1_src/data/scripts/dock_solv.prm

>  <Rbt.Receptor>
prm/pocket_docking_4.prm

>  <SCORE>
-10.5543

>  <SCORE.INTER>
-8.93141

>  <SCORE.INTER.CONST>
1

>  <SCORE.INTER.POLAR>
-1.29904

>  <SCORE.INTER.ROT>
3

>  <SCORE.INTER.SOLV>
16.2929

>  <SCORE.INTER.VDW>
-12.6551

>  <SCORE.INTER.norm>
-0.558213

>  <SCORE.INTRA>
-1.62288

>  <SCORE.INTRA.DIHEDRAL>
-1.9243

>  <SCORE.INTRA.DIHEDRAL.0>
2.1318

>  <SCORE.INTRA.POLAR>
0

>  <SCORE.INTRA.POLAR.0>
0

>  <SCORE.INTRA.REPUL>
0

>  <SCORE.INTRA.REPUL.0>
0

>  <SCORE.INTRA.SOLV>
-1.04219

>  <SCORE.INTRA.SOLV.lig_0>
-58.6125

>  <SCORE.INTRA.VDW>
-0.139636

>  <SCORE.INTRA.VDW.0>
-0.432734

>  <SCORE.INTRA.norm>
-0.10143

>  <SCORE.RESTR>
0

>  <SCORE.RESTR.CAVITY>
0

>  <SCORE.RESTR.norm>
0

>  <SCORE.SYSTEM>
0

>  <SCORE.SYSTEM.CONST>
0

>  <SCORE.SYSTEM.DIHEDRAL>
0

>  <SCORE.SYSTEM.SOLV>
0

>  <SCORE.SYSTEM.norm>
0

>  <SCORE.heavy>
16

>  <SCORE.norm>
-0.659643

>  <RMSD>
3.378

$$$$
ligand
 OpenBabel11021811463D
libRbt.so/2013.1/901 2013/11/27
 16 16  0  0  0  0  0  0  0  0999 V2000
   50.3806    9.8906   13.0154 P   0  0  2  0  0  0  0  0  0  0  0  0
   49.4306    8.9037   12.4456 O   0  0  0  0  0  0  0  0  0  0  0  0
   51.3664   10.4174   11.8580 O   0  5  0  0  0  0  0  0  0  0  0  0
   51.2582    9.1730   14.1618 O   0  0  0  0  0  0  0  0  0  0  0  0
   46.0837   13.4040   14.4922 C   0  0  2  0  0  0  0  0  0  0  0  0
   46.8983   14.5027   14.9178 O   0  0  0  0  0  0  0  0  0  0  0  0
   45.1339   12.9528   15.6316 C   0  0  2  0  0  0  0  0  0  0  0  0
   44.2789   14.0820   16.0448 N   0  0  0  0  0  0  0  0  0  0  0  0
   45.9859   12.4758   16.8199 C   0  0  1  0  0  0  0  0  0  0  0  0
   45.1409   12.0340   17.8857 O   0  0  0  0  0  0  0  0  0  0  0  0
   46.8516   11.3123   16.3397 C   0  0  2  0  0  0  0  0  0  0  0  0
   47.6504   10.8568   17.4243 O   0  0  0  0  0  0  0  0  0  0  0  0
   47.7587   11.8098   15.1814 C   0  0  2  0  0  0  0  0  0  0  0  0
   46.9432   12.2996   14.0730 O   0  0  0  0  0  0  0  0  0  0  0  0
   48.6527   10.6600   14.6548 C   0  0  0  0  0  0  0  0  0  0  0  0
   49.5530   11.1368   13.6381 O   0  0  0  0  0  0  0  0  0  0  0  0
  1  2  1  6  0  0  0
  1  3  1  0  0  0  0
  1  4  2  0  0  0  0
  1 16  1  0  0  0  0
  5  6  1  1  0  0  0
  5  7  1  0  0  0  0
  5 14  1  0  0  0  0
  7  8  1  1  0  0  0
  7  9  1  0  0  0  0
  9 10  1  1  0  0  0
  9 11  1  0  0  0  0
 11 12  1  1  0  0  0
 11 13  1  0  0  0  0
 13 14  1  0  0  0  0
 13 15  1  6  0  0  0
 15 16  1  0  0  0  0
M  CHG  1   3  -1
M  END
>  <CHROM.1>
-176.43521908,-175.01109385,58.71654037,47.96846812,11.45918586,14.74572230
0.13442418,0.73826228,-0.95993289

>  <Name>
ligand

>  <RI>
0

>  <Rbt.Current_Directory>
/home/itssahil/PROJECTS/Mol_Feturizer/New_Systems/rnas/3B4C

>  <Rbt.Executable>
rbdock ($Id: //depot/dev/client3/rdock/2013.1/src/exe/rbdock.cxx#4 $)

>  <Rbt.Library>
libRbt.so (2013.1, Build901 2013/11/27)

>  <Rbt.Parameter_File>
/export/apps/rDock/src/rDock_2013.1_src/data/scripts/dock_solv.prm

>  <Rbt.Receptor>
prm/pocket_docking_4.prm

>  <SCORE>
-10.5568

>  <SCORE.INTER>
-8.91838

>  <SCORE.INTER.CONST>
1

>  <SCORE.INTER.POLAR>
-1.2959

>  <SCORE.INTER.ROT>
3

>  <SCORE.INTER.SOLV>
16.4109

>  <SCORE.INTER.VDW>
-12.6962

>  <SCORE.INTER.norm>
-0.557399

>  <SCORE.INTRA>
-1.64144

>  <SCORE.INTRA.DIHEDRAL>
-1.95782

>  <SCORE.INTRA.DIHEDRAL.0>
2.1318

>  <SCORE.INTRA.POLAR>
0

>  <SCORE.INTRA.POLAR.0>
0

>  <SCORE.INTRA.REPUL>
0

>  <SCORE.INTRA.REPUL.0>
0

>  <SCORE.INTRA.SOLV>
-1.0389

>  <SCORE.INTRA.SOLV.lig_0>
-58.6125

>  <SCORE.INTRA.VDW>
-0.143083

>  <SCORE.INTRA.VDW.0>
-0.432734

>  <SCORE.INTRA.norm>
-0.10259

>  <SCORE.RESTR>
0.00304939

>  <SCORE.RESTR.CAVITY>
0.00304939

>  <SCORE.RESTR.norm>
0.000190587

>  <SCORE.SYSTEM>
0

>  <SCORE.SYSTEM.CONST>
0

>  <SCORE.SYSTEM.DIHEDRAL>
0

>  <SCORE.SYSTEM.SOLV>
0

>  <SCORE.SYSTEM.norm>
0

>  <SCORE.heavy>
16

>  <SCORE.norm>
-0.659798

>  <RMSD>
3.381

$$$$
ligand
 OpenBabel11021811463D
libRbt.so/2013.1/901 2013/11/27
 16 16  0  0  0  0  0  0  0  0999 V2000
   50.5006    9.4281   12.3884 P   0  0  2  0  0  0  0  0  0  0  0  0
   49.8426    8.1163   12.1704 O   0  0  0  0  0  0  0  0  0  0  0  0
   51.1350    9.9476   11.0041 O   0  5  0  0  0  0  0  0  0  0  0  0
   51.6830    9.2489   13.4697 O   0  0  0  0  0  0  0  0  0  0  0  0
   45.6793   11.9909   14.3099 C   0  0  2  0  0  0  0  0  0  0  0  0
   46.1965   13.3250   14.2420 O   0  0  0  0  0  0  0  0  0  0  0  0
   45.2118   11.6575   15.7501 C   0  0  2  0  0  0  0  0  0  0  0  0
   44.1770   12.6200   16.1740 N   0  0  0  0  0  0  0  0  0  0  0  0
   46.4253   11.7414   16.6912 C   0  0  1  0  0  0  0  0  0  0  0  0
   46.0341   11.4215   18.0291 O   0  0  0  0  0  0  0  0  0  0  0  0
   47.4646   10.7311   16.2084 C   0  0  2  0  0  0  0  0  0  0  0  0
   48.5979   10.7940   17.0648 O   0  0  0  0  0  0  0  0  0  0  0  0
   47.8741   11.0924   14.7545 C   0  0  2  0  0  0  0  0  0  0  0  0
   46.7093   11.0509   13.8743 O   0  0  0  0  0  0  0  0  0  0  0  0
   48.9242   10.0888   14.2171 C   0  0  0  0  0  0  0  0  0  0  0  0
   49.4063   10.4966   12.9237 O   0  0  0  0  0  0  0  0  0  0  0  0
  1  2  1  6  0  0  0
  1  3  1  0  0  0  0
  1  4  2  0  0  0  0
  1 16  1  0  0  0  0
  5  6  1  1  0  0  0
  5  7  1  0  0  0  0
  5 14  1  0  0  0  0
  7  8  1  1  0  0  0
  7  9  1  0  0  0  0
  9 10  1  1  0  0  0
  9 11  1  0  0  0  0
 11 12  1  1  0  0  0
 11 13  1  0  0  0  0
 13 14  1  0  0  0  0
 13 15  1  6  0  0  0
 15 16  1  0  0  0  0
M  CHG  1   3  -1
M  END
>  <CHROM.1>
-174.16686274,-179.95890879,64.76953332,48.12264788,10.73204694,14.38261279
0.55973691,0.54881601,-1.46431725

>  <Name>
ligand

>  <RI>
0

>  <Rbt.Current_Directory>
/home/itssahil/PROJECTS/Mol_Feturizer/New_Systems/rnas/3B4C

>  <Rbt.Executable>
rbdock ($Id: //depot/dev/client3/rdock/2013.1/src/exe/rbdock.cxx#4 $)

>  <Rbt.Library>
libRbt.so (2013.1, Build901 2013/11/27)

>  <Rbt.Parameter_File>
/export/apps/rDock/src/rDock_2013.1_src/data/scripts/dock_solv.prm

>  <Rbt.Receptor>
prm/pocket_docking_7.prm

>  <SCORE>
-10.1874

>  <SCORE.INTER>
-8.56323

>  <SCORE.INTER.CONST>
1

>  <SCORE.INTER.POLAR>
-1.2985

>  <SCORE.INTER.ROT>
3

>  <SCORE.INTER.SOLV>
15.3706

>  <SCORE.INTER.VDW>
-12.104

>  <SCORE.INTER.norm>
-0.535202

>  <SCORE.INTRA>
-1.62415

>  <SCORE.INTRA.DIHEDRAL>
-1.96667

>  <SCORE.INTRA.DIHEDRAL.0>
2.1318

>  <SCORE.INTRA.POLAR>
0

>  <SCORE.INTRA.POLAR.0>
0

>  <SCORE.INTRA.REPUL>
0

>  <SCORE.INTRA.REPUL.0>
0

>  <SCORE.INTRA.SOLV>
-0.99285

>  <SCORE.INTRA.SOLV.lig_0>
-58.6125

>  <SCORE.INTRA.VDW>
-0.144388

>  <SCORE.INTRA.VDW.0>
-0.432734

>  <SCORE.INTRA.norm>
-0.101509

>  <SCORE.RESTR>
0

>  <SCORE.RESTR.CAVITY>
0

>  <SCORE.RESTR.norm>
0

>  <SCORE.SYSTEM>
0

>  <SCORE.SYSTEM.CONST>
0

>  <SCORE.SYSTEM.DIHEDRAL>
0

>  <SCORE.SYSTEM.SOLV>
0

>  <SCORE.SYSTEM.norm>
0

>  <SCORE.heavy>
16

>  <SCORE.norm>
-0.636711

>  <RMSD>
3.384

$$$$
ligand
 OpenBabel11021811463D
libRbt.so/2013.1/901 2013/11/27
 16 16  0  0  0  0  0  0  0  0999 V2000
   50.1489    9.3136   12.8000 P   0  0  2  0  0  0  0  0  0  0  0  0
   49.6932    8.0151   12.2454 O   0  0  0  0  0  0  0  0  0  0  0  0
   50.6558   10.2610   11.6025 O   0  5  0  0  0  0  0  0  0  0  0  0
   51.3758    9.0503   13.8124 O   0  0  0  0  0  0  0  0  0  0  0  0
   46.0961   12.9979   14.5955 C   0  0  2  0  0  0  0  0  0  0  0  0
   46.5630   14.2258   15.1665 O   0  0  0  0  0  0  0  0  0  0  0  0
   45.4252   12.1115   15.6763 C   0  0  2  0  0  0  0  0  0  0  0  0
   44.2992   12.8404   16.2907 N   0  0  0  0  0  0  0  0  0  0  0  0
   46.4741   11.7653   16.7466 C   0  0  1  0  0  0  0  0  0  0  0  0
   45.8939   10.9314   17.7532 O   0  0  0  0  0  0  0  0  0  0  0  0
   47.6157   11.0171   16.0603 C   0  0  2  0  0  0  0  0  0  0  0  0
   48.5993   10.6890   17.0332 O   0  0  0  0  0  0  0  0  0  0  0  0
   48.2303   11.9361   14.9695 C   0  0  2  0  0  0  0  0  0  0  0  0
   47.2183   12.2945   13.9791 O   0  0  0  0  0  0  0  0  0  0  0  0
   49.3907   11.2164   14.2388 C   0  0  0  0  0  0  0  0  0  0  0  0
   48.9201   10.0269   13.5791 O   0  0  0  0  0  0  0  0  0  0  0  0
  1  2  1  6  0  0  0
  1  3  1  0  0  0  0
  1  4  2  0  0  0  0
  1 16  1  0  0  0  0
  5  6  1  1  0  0  0
  5  7  1  0  0  0  0
  5 14  1  0  0  0  0
  7  8  1  1  0  0  0
  7  9  1  0  0  0  0
  9 10  1  1  0  0  0
  9 11  1  0  0  0  0
 11 12  1  1  0  0  0
 11 13  1  0  0  0  0
 13 14  1  0  0  0  0
 13 15  1  6  0  0  0
 15 16  1  0  0  0  0
M  CHG  1   3  -1
M  END
>  <CHROM.1>
61.15765059,178.86113580,173.94938206,48.12994847,10.99735772,14.61001725
0.21948190,0.78443737,-1.04716474

>  <Name>
ligand

>  <RI>
0

>  <Rbt.Current_Directory>
/home/itssahil/PROJECTS/Mol_Feturizer/New_Systems/rnas/3B4C

>  <Rbt.Executable>
rbdock ($Id: //depot/dev/client3/rdock/2013.1/src/exe/rbdock.cxx#4 $)

>  <Rbt.Library>
libRbt.so (2013.1, Build901 2013/11/27)

>  <Rbt.Parameter_File>
/export/apps/rDock/src/rDock_2013.1_src/data/scripts/dock_solv.prm

>  <Rbt.Receptor>
prm/pocket_docking_6.prm

>  <SCORE>
-9.91699

>  <SCORE.INTER>
-8.44198

>  <SCORE.INTER.CONST>
1

>  <SCORE.INTER.POLAR>
-1.29904

>  <SCORE.INTER.ROT>
3

>  <SCORE.INTER.SOLV>
16.2349

>  <SCORE.INTER.VDW>
-12.3095

>  <SCORE.INTER.norm>
-0.527624

>  <SCORE.INTRA>
-1.47501

>  <SCORE.INTRA.DIHEDRAL>
-2.05967

>  <SCORE.INTRA.DIHEDRAL.0>
2.1318

>  <SCORE.INTRA.POLAR>
0

>  <SCORE.INTRA.POLAR.0>
0

>  <SCORE.INTRA.REPUL>
0

>  <SCORE.INTRA.REPUL.0>
0

>  <SCORE.INTRA.SOLV>
-0.175813

>  <SCORE.INTRA.SOLV.lig_0>
-58.6125

>  <SCORE.INTRA.VDW>
-0.357263

>  <SCORE.INTRA.VDW.0>
-0.432734

>  <SCORE.INTRA.norm>
-0.0921879

>  <SCORE.RESTR>
0

>  <SCORE.RESTR.CAVITY>
0

>  <SCORE.RESTR.norm>
0

>  <SCORE.SYSTEM>
0

>  <SCORE.SYSTEM.CONST>
0

>  <SCORE.SYSTEM.DIHEDRAL>
0

>  <SCORE.SYSTEM.SOLV>
0

>  <SCORE.SYSTEM.norm>
0

>  <SCORE.heavy>
16

>  <SCORE.norm>
-0.619812

>  <RMSD>
3.399

$$$$
ligand
 OpenBabel11021811463D
libRbt.so/2013.1/901 2013/11/27
 16 16  0  0  0  0  0  0  0  0999 V2000
   50.8480    8.9840   12.1691 P   0  0  2  0  0  0  0  0  0  0  0  0
   50.8975    9.7599   10.9054 O   0  0  0  0  0  0  0  0  0  0  0  0
   52.2229    9.1888   12.9794 O   0  5  0  0  0  0  0  0  0  0  0  0
   50.6770    7.4197   11.8181 O   0  0  0  0  0  0  0  0  0  0  0  0
   46.2322   11.7235   14.3081 C   0  0  2  0  0  0  0  0  0  0  0  0
   46.3860   13.1258   14.5565 O   0  0  0  0  0  0  0  0  0  0  0  0
   46.1013   10.9423   15.6410 C   0  0  2  0  0  0  0  0  0  0  0  0
   44.9439   11.4476   16.4037 N   0  0  0  0  0  0  0  0  0  0  0  0
   47.3926   11.1386   16.4531 C   0  0  1  0  0  0  0  0  0  0  0  0
   47.3146   10.4155   17.6845 O   0  0  0  0  0  0  0  0  0  0  0  0
   48.5566   10.6039   15.6206 C   0  0  2  0  0  0  0  0  0  0  0  0
   49.7627   10.7782   16.3532 O   0  0  0  0  0  0  0  0  0  0  0  0
   48.6230   11.3980   14.2875 C   0  0  2  0  0  0  0  0  0  0  0  0
   47.3776   11.2405   13.5407 O   0  0  0  0  0  0  0  0  0  0  0  0
   49.7868   10.8855   13.4035 C   0  0  0  0  0  0  0  0  0  0  0  0
   49.6016    9.4983   13.0678 O   0  0  0  0  0  0  0  0  0  0  0  0
  1  2  1  6  0  0  0
  1  3  1  0  0  0  0
  1  4  2  0  0  0  0
  1 16  1  0  0  0  0
  5  6  1  1  0  0  0
  5  7  1  0  0  0  0
  5 14  1  0  0  0  0
  7  8  1  1  0  0  0
  7  9  1  0  0  0  0
  9 10  1  1  0  0  0
  9 11  1  0  0  0  0
 11 12  1  1  0  0  0
 11 13  1  0  0  0  0
 13 14  1  0  0  0  0
 13 15  1  6  0  0  0
 15 16  1  0  0  0  0
M  CHG  1   3  -1
M  END
>  <CHROM.1>
61.03469095,-178.86514803,-61.68294642,48.76961841,10.39525974,14.13184228
0.59833650,0.56422967,-1.48763843

>  <Name>
ligand

>  <RI>
0

>  <Rbt.Current_Directory>
/home/itssahil/PROJECTS/Mol_Feturizer/New_Systems/rnas/3B4C

>  <Rbt.Executable>
rbdock ($Id: //depot/dev/client3/rdock/2013.1/src/exe/rbdock.cxx#4 $)

>  <Rbt.Library>
libRbt.so (2013.1, Build901 2013/11/27)

>  <Rbt.Parameter_File>
/export/apps/rDock/src/rDock_2013.1_src/data/scripts/dock_solv.prm

>  <Rbt.Receptor>
prm/pocket_docking_6.prm

>  <SCORE>
-9.5634

>  <SCORE.INTER>
-7.84593

>  <SCORE.INTER.CONST>
1

>  <SCORE.INTER.POLAR>
-1.29904

>  <SCORE.INTER.ROT>
3

>  <SCORE.INTER.SOLV>
13.5757

>  <SCORE.INTER.VDW>
-11.0257

>  <SCORE.INTER.norm>
-0.490371

>  <SCORE.INTRA>
-1.71747

>  <SCORE.INTRA.DIHEDRAL>
-2.11454

>  <SCORE.INTRA.DIHEDRAL.0>
2.1318

>  <SCORE.INTRA.POLAR>
0

>  <SCORE.INTRA.POLAR.0>
0

>  <SCORE.INTRA.REPUL>
0

>  <SCORE.INTRA.REPUL.0>
0

>  <SCORE.INTRA.SOLV>
-0.790696

>  <SCORE.INTRA.SOLV.lig_0>
-58.6125

>  <SCORE.INTRA.VDW>
-0.264851

>  <SCORE.INTRA.VDW.0>
-0.432734

>  <SCORE.INTRA.norm>
-0.107342

>  <SCORE.RESTR>
0

>  <SCORE.RESTR.CAVITY>
0

>  <SCORE.RESTR.norm>
0

>  <SCORE.SYSTEM>
0

>  <SCORE.SYSTEM.CONST>
0

>  <SCORE.SYSTEM.DIHEDRAL>
0

>  <SCORE.SYSTEM.SOLV>
0

>  <SCORE.SYSTEM.norm>
0

>  <SCORE.heavy>
16

>  <SCORE.norm>
-0.597712

>  <RMSD>
3.402

$$$$
ligand
 OpenBabel11021811463D
libRbt.so/2013.1/901 2013/11/27
 16 16  0  0  0  0  0  0  0  0999 V2000
   50.3656    9.1791   12.6729 P   0  0  2  0  0  0  0  0  0  0  0  0
   49.5767    7.9825   12.2891 O   0  0  0  0  0  0  0  0  0  0  0  0
   50.5027   10.1613   11.4059 O   0  5  0  0  0  0  0  0  0  0  0  0
   51.8386    8.7114   13.1325 O   0  0  0  0  0  0  0  0  0  0  0  0
   45.5828   12.4494   14.9695 C   0  0  2  0  0  0  0  0  0  0  0  0
   46.3336   13.6615   15.1075 O   0  0  0  0  0  0  0  0  0  0  0  0
   45.3938   11.7625   16.3466 C   0  0  2  0  0  0  0  0  0  0  0  0
   44.7012   12.6803   17.2710 N   0  0  0  0  0  0  0  0  0  0  0  0
   46.7790   11.3981   16.9069 C   0  0  1  0  0  0  0  0  0  0  0  0
   46.6424   10.7447   18.1716 O   0  0  0  0  0  0  0  0  0  0  0  0
   47.4529   10.4522   15.9143 C   0  0  2  0  0  0  0  0  0  0  0  0
   48.7382   10.1041   16.4127 O   0  0  0  0  0  0  0  0  0  0  0  0
   47.5893   11.1773   14.5476 C   0  0  2  0  0  0  0  0  0  0  0  0
   46.2729   11.5570   14.0413 O   0  0  0  0  0  0  0  0  0  0  0  0
   48.2625   10.2528   13.5033 C   0  0  0  0  0  0  0  0  0  0  0  0
   49.6170    9.9510   13.8851 O   0  0  0  0  0  0  0  0  0  0  0  0
  1  2  1  6  0  0  0
  1  3  1  0  0  0  0
  1  4  2  0  0  0  0
  1 16  1  0  0  0  0
  5  6  1  1  0  0  0
  5  7  1  0  0  0  0
  5 14  1  0  0  0  0
  7  8  1  1  0  0  0
  7  9  1  0  0  0  0
  9 10  1  1  0  0  0
  9 11  1  0  0  0  0
 11 12  1  1  0  0  0
 11 13  1  0  0  0  0
 13 14  1  0  0  0  0
 13 15  1  6  0  0  0
 15 16  1  0  0  0  0
M  CHG  1   3  -1
M  END
>  <CHROM.1>
-64.67912984,-171.29295706,-54.83722267,48.10048950,10.61835741,14.59477283
0.44543454,0.70664598,-1.28081252

>  <Name>
ligand

>  <RI>
0

>  <Rbt.Current_Directory>
/home/itssahil/PROJECTS/Mol_Feturizer/New_Systems/rnas/3B4C

>  <Rbt.Executable>
rbdock ($Id: //depot/dev/client3/rdock/2013.1/src/exe/rbdock.cxx#4 $)

>  <Rbt.Library>
libRbt.so (2013.1, Build901 2013/11/27)

>  <Rbt.Parameter_File>
/export/apps/rDock/src/rDock_2013.1_src/data/scripts/dock_solv.prm

>  <Rbt.Receptor>
prm/pocket_docking_5.prm

>  <SCORE>
-11.0514

>  <SCORE.INTER>
-9.87088

>  <SCORE.INTER.CONST>
1

>  <SCORE.INTER.POLAR>
-1.29904

>  <SCORE.INTER.ROT>
3

>  <SCORE.INTER.SOLV>
18.2413

>  <SCORE.INTER.VDW>
-13.9309

>  <SCORE.INTER.norm>
-0.61693

>  <SCORE.INTRA>
-1.18047

>  <SCORE.INTRA.DIHEDRAL>
-1.63928

>  <SCORE.INTRA.DIHEDRAL.0>
2.1318

>  <SCORE.INTRA.POLAR>
0

>  <SCORE.INTRA.POLAR.0>
0

>  <SCORE.INTRA.REPUL>
0

>  <SCORE.INTRA.REPUL.0>
0

>  <SCORE.INTRA.SOLV>
-0.696642

>  <SCORE.INTRA.SOLV.lig_0>
-58.6125

>  <SCORE.INTRA.VDW>
-0.0125141

>  <SCORE.INTRA.VDW.0>
-0.432734

>  <SCORE.INTRA.norm>
-0.0737795

>  <SCORE.RESTR>
0

>  <SCORE.RESTR.CAVITY>
0

>  <SCORE.RESTR.norm>
0

>  <SCORE.SYSTEM>
0

>  <SCORE.SYSTEM.CONST>
0

>  <SCORE.SYSTEM.DIHEDRAL>
0

>  <SCORE.SYSTEM.SOLV>
0

>  <SCORE.SYSTEM.norm>
0

>  <SCORE.heavy>
16

>  <SCORE.norm>
-0.690709

>  <RMSD>
3.407

$$$$
ligand
 OpenBabel11021811463D
libRbt.so/2013.1/901 2013/11/27
 16 16  0  0  0  0  0  0  0  0999 V2000
   50.4324    9.3072   12.3966 P   0  0  2  0  0  0  0  0  0  0  0  0
   50.0311    7.9952   11.8318 O   0  0  0  0  0  0  0  0  0  0  0  0
   50.8923   10.2866   11.2058 O   0  5  0  0  0  0  0  0  0  0  0  0
   51.6742    9.0883   13.4013 O   0  0  0  0  0  0  0  0  0  0  0  0
   46.1144   12.5200   14.5944 C   0  0  2  0  0  0  0  0  0  0  0  0
   46.4655   13.8397   15.0270 O   0  0  0  0  0  0  0  0  0  0  0  0
   45.8069   11.6087   15.8105 C   0  0  2  0  0  0  0  0  0  0  0  0
   44.7048   12.1881   16.6020 N   0  0  0  0  0  0  0  0  0  0  0  0
   47.0745   11.5002   16.6747 C   0  0  1  0  0  0  0  0  0  0  0  0
   46.8327   10.6503   17.7992 O   0  0  0  0  0  0  0  0  0  0  0  0
   48.1819   10.8997   15.8104 C   0  0  2  0  0  0  0  0  0  0  0  0
   49.3657   10.7926   16.5907 O   0  0  0  0  0  0  0  0  0  0  0  0
   48.4276   11.8336   14.5941 C   0  0  2  0  0  0  0  0  0  0  0  0
   47.2082   11.9650   13.8009 O   0  0  0  0  0  0  0  0  0  0  0  0
   49.5405   11.2613   13.6816 C   0  0  0  0  0  0  0  0  0  0  0  0
   49.1774    9.9592   13.1873 O   0  0  0  0  0  0  0  0  0  0  0  0
  1  2  1  6  0  0  0
  1  3  1  0  0  0  0
  1  4  2  0  0  0  0
  1 16  1  0  0  0  0
  5  6  1  1  0  0  0
  5  7  1  0  0  0  0
  5 14  1  0  0  0  0
  7  8  1  1  0  0  0
  7  9  1  0  0  0  0
  9 10  1  1  0  0  0
  9 11  1  0  0  0  0
 11 12  1  1  0  0  0
 11 13  1  0  0  0  0
 13 14  1  0  0  0  0
 13 15  1  6  0  0  0
 15 16  1  0  0  0  0
M  CHG  1   3  -1
M  END
>  <CHROM.1>
59.76549860,-172.76046387,-177.20501015,48.45986973,10.82894262,14.36990991
0.46583353,0.71266249,-1.27600630

>  <Name>
ligand

>  <RI>
0

>  <Rbt.Current_Directory>
/home/itssahil/PROJECTS/Mol_Feturizer/New_Systems/rnas/3B4C

>  <Rbt.Executable>
rbdock ($Id: //depot/dev/client3/rdock/2013.1/src/exe/rbdock.cxx#4 $)

>  <Rbt.Library>
libRbt.so (2013.1, Build901 2013/11/27)

>  <Rbt.Parameter_File>
/export/apps/rDock/src/rDock_2013.1_src/data/scripts/dock_solv.prm

>  <Rbt.Receptor>
prm/pocket_docking_5.prm

>  <SCORE>
-10.2247

>  <SCORE.INTER>
-8.88443

>  <SCORE.INTER.CONST>
1

>  <SCORE.INTER.POLAR>
-1.29904

>  <SCORE.INTER.ROT>
3

>  <SCORE.INTER.SOLV>
14.8325

>  <SCORE.INTER.VDW>
-12.137

>  <SCORE.INTER.norm>
-0.555277

>  <SCORE.INTRA>
-1.34028

>  <SCORE.INTRA.DIHEDRAL>
-1.85994

>  <SCORE.INTRA.DIHEDRAL.0>
2.1318

>  <SCORE.INTRA.POLAR>
0

>  <SCORE.INTRA.POLAR.0>
0

>  <SCORE.INTRA.REPUL>
0

>  <SCORE.INTRA.REPUL.0>
0

>  <SCORE.INTRA.SOLV>
-0.0530836

>  <SCORE.INTRA.SOLV.lig_0>
-58.6125

>  <SCORE.INTRA.VDW>
-0.383765

>  <SCORE.INTRA.VDW.0>
-0.432734

>  <SCORE.INTRA.norm>
-0.0837673

>  <SCORE.RESTR>
0

>  <SCORE.RESTR.CAVITY>
0

>  <SCORE.RESTR.norm>
0

>  <SCORE.SYSTEM>
0

>  <SCORE.SYSTEM.CONST>
0

>  <SCORE.SYSTEM.DIHEDRAL>
0

>  <SCORE.SYSTEM.SOLV>
0

>  <SCORE.SYSTEM.norm>
0

>  <SCORE.heavy>
16

>  <SCORE.norm>
-0.639044

>  <RMSD>
3.409

$$$$
ligand
 OpenBabel11021811463D
libRbt.so/2013.1/901 2013/11/27
 16 16  0  0  0  0  0  0  0  0999 V2000
   50.3528    9.0518   12.5188 P   0  0  2  0  0  0  0  0  0  0  0  0
   50.1178    7.6346   12.1476 O   0  0  0  0  0  0  0  0  0  0  0  0
   50.5358    9.9332   11.1853 O   0  5  0  0  0  0  0  0  0  0  0  0
   51.7015    9.1476   13.3970 O   0  0  0  0  0  0  0  0  0  0  0  0
   45.8179   11.9257   14.7565 C   0  0  2  0  0  0  0  0  0  0  0  0
   46.0452   13.2996   15.0918 O   0  0  0  0  0  0  0  0  0  0  0  0
   45.6677   11.0667   16.0385 C   0  0  2  0  0  0  0  0  0  0  0  0
   44.5483   11.5773   16.8527 N   0  0  0  0  0  0  0  0  0  0  0  0
   46.9789   11.1463   16.8384 C   0  0  1  0  0  0  0  0  0  0  0  0
   46.8830   10.3493   18.0219 O   0  0  0  0  0  0  0  0  0  0  0  0
   48.1024   10.6107   15.9525 C   0  0  2  0  0  0  0  0  0  0  0  0
   49.3263   10.6776   16.6731 O   0  0  0  0  0  0  0  0  0  0  0  0
   48.1888   11.4857   14.6722 C   0  0  2  0  0  0  0  0  0  0  0  0
   46.9263   11.4382   13.9393 O   0  0  0  0  0  0  0  0  0  0  0  0
   49.3125   10.9755   13.7364 C   0  0  0  0  0  0  0  0  0  0  0  0
   49.0879    9.6021   13.3690 O   0  0  0  0  0  0  0  0  0  0  0  0
  1  2  1  6  0  0  0
  1  3  1  0  0  0  0
  1  4  2  0  0  0  0
  1 16  1  0  0  0  0
  5  6  1  1  0  0  0
  5  7  1  0  0  0  0
  5 14  1  0  0  0  0
  7  8  1  1  0  0  0
  7  9  1  0  0  0  0
  9 10  1  1  0  0  0
  9 11  1  0  0  0  0
 11 12  1  1  0  0  0
 11 13  1  0  0  0  0
 13 14  1  0  0  0  0
 13 15  1  6  0  0  0
 15 16  1  0  0  0  0
M  CHG  1   3  -1
M  END
>  <CHROM.1>
58.17071887,-174.18528872,179.78503182,48.31988388,10.47954779,14.50412020
0.56157479,0.61915956,-1.39712445

>  <Name>
ligand

>  <RI>
0

>  <Rbt.Current_Directory>
/home/itssahil/PROJECTS/Mol_Feturizer/New_Systems/rnas/3B4C

>  <Rbt.Executable>
rbdock ($Id: //depot/dev/client3/rdock/2013.1/src/exe/rbdock.cxx#4 $)

>  <Rbt.Library>
libRbt.so (2013.1, Build901 2013/11/27)

>  <Rbt.Parameter_File>
/export/apps/rDock/src/rDock_2013.1_src/data/scripts/dock_solv.prm

>  <Rbt.Receptor>
prm/pocket_docking_8.prm

>  <SCORE>
-10.1296

>  <SCORE.INTER>
-8.72775

>  <SCORE.INTER.CONST>
1

>  <SCORE.INTER.POLAR>
-1.29904

>  <SCORE.INTER.ROT>
3

>  <SCORE.INTER.SOLV>
16.7117

>  <SCORE.INTER.VDW>
-12.6589

>  <SCORE.INTER.norm>
-0.545484

>  <SCORE.INTRA>
-1.40212

>  <SCORE.INTRA.DIHEDRAL>
-1.9522

>  <SCORE.INTRA.DIHEDRAL.0>
2.1318

>  <SCORE.INTRA.POLAR>
0

>  <SCORE.INTRA.POLAR.0>
0

>  <SCORE.INTRA.REPUL>
0

>  <SCORE.INTRA.REPUL.0>
0

>  <SCORE.INTRA.SOLV>
-0.0933844

>  <SCORE.INTRA.SOLV.lig_0>
-58.6125

>  <SCORE.INTRA.VDW>
-0.379329

>  <SCORE.INTRA.VDW.0>
-0.432734

>  <SCORE.INTRA.norm>
-0.0876327

>  <SCORE.RESTR>
0.000266714

>  <SCORE.RESTR.CAVITY>
0.000266714

>  <SCORE.RESTR.norm>
1.66696e-05

>  <SCORE.SYSTEM>
0

>  <SCORE.SYSTEM.CONST>
0

>  <SCORE.SYSTEM.DIHEDRAL>
0

>  <SCORE.SYSTEM.SOLV>
0

>  <SCORE.SYSTEM.norm>
0

>  <SCORE.heavy>
16

>  <SCORE.norm>
-0.6331

>  <RMSD>
3.411

$$$$
ligand
 OpenBabel11021811463D
libRbt.so/2013.1/901 2013/11/27
 16 16  0  0  0  0  0  0  0  0999 V2000
   50.3245    9.6850   12.9670 P   0  0  2  0  0  0  0  0  0  0  0  0
   49.3870    8.6606   12.4446 O   0  0  0  0  0  0  0  0  0  0  0  0
   51.2901   10.1845   11.7808 O   0  5  0  0  0  0  0  0  0  0  0  0
   51.2254    9.0270   14.1311 O   0  0  0  0  0  0  0  0  0  0  0  0
   46.1145   13.3123   14.4750 C   0  0  2  0  0  0  0  0  0  0  0  0
   46.9661   14.3786   14.9104 O   0  0  0  0  0  0  0  0  0  0  0  0
   45.1560   12.8771   15.6133 C   0  0  2  0  0  0  0  0  0  0  0  0
   44.3398   14.0278   16.0453 N   0  0  0  0  0  0  0  0  0  0  0  0
   45.9977   12.3576   16.7911 C   0  0  1  0  0  0  0  0  0  0  0  0
   45.1439   11.9294   17.8555 O   0  0  0  0  0  0  0  0  0  0  0  0
   46.8231   11.1731   16.2916 C   0  0  2  0  0  0  0  0  0  0  0  0
   47.6120   10.6781   17.3661 O   0  0  0  0  0  0  0  0  0  0  0  0
   47.7404   11.6562   15.1352 C   0  0  2  0  0  0  0  0  0  0  0  0
   46.9359   12.1863   14.0373 O   0  0  0  0  0  0  0  0  0  0  0  0
   48.5943   10.4851   14.5893 C   0  0  0  0  0  0  0  0  0  0  0  0
   49.4806   10.9394   13.5502 O   0  0  0  0  0  0  0  0  0  0  0  0
  1  2  1  6  0  0  0
  1  3  1  0  0  0  0
  1  4  2  0  0  0  0
  1 16  1  0  0  0  0
  5  6  1  1  0  0  0
  5  7  1  0  0  0  0
  5 14  1  0  0  0  0
  7  8  1  1  0  0  0
  7  9  1  0  0  0  0
  9 10  1  1  0  0  0
  9 11  1  0  0  0  0
 11 12  1  1  0  0  0
 11 13  1  0  0  0  0
 13 14  1  0  0  0  0
 13 15  1  6  0  0  0
 15 16  1  0  0  0  0
M  CHG  1   3  -1
M  END
>  <CHROM.1>
-177.91142672,-178.17210797,58.47740246,47.94994405,11.30628205,14.70714517
0.10883154,0.76067463,-0.93234289

>  <Name>
ligand

>  <RI>
0

>  <Rbt.Current_Directory>
/home/itssahil/PROJECTS/Mol_Feturizer/New_Systems/rnas/3B4C

>  <Rbt.Executable>
rbdock ($Id: //depot/dev/client3/rdock/2013.1/src/exe/rbdock.cxx#4 $)

>  <Rbt.Library>
libRbt.so (2013.1, Build901 2013/11/27)

>  <Rbt.Parameter_File>
/export/apps/rDock/src/rDock_2013.1_src/data/scripts/dock_solv.prm

>  <Rbt.Receptor>
prm/pocket_docking_5.prm

>  <SCORE>
-10.7806

>  <SCORE.INTER>
-9.09876

>  <SCORE.INTER.CONST>
1

>  <SCORE.INTER.POLAR>
-1.29863

>  <SCORE.INTER.ROT>
3

>  <SCORE.INTER.SOLV>
16.3389

>  <SCORE.INTER.VDW>
-12.7834

>  <SCORE.INTER.norm>
-0.568673

>  <SCORE.INTRA>
-1.68181

>  <SCORE.INTRA.DIHEDRAL>
-2.09298

>  <SCORE.INTRA.DIHEDRAL.0>
2.1318

>  <SCORE.INTRA.POLAR>
0

>  <SCORE.INTRA.POLAR.0>
0

>  <SCORE.INTRA.REPUL>
0

>  <SCORE.INTRA.REPUL.0>
0

>  <SCORE.INTRA.SOLV>
-1.04066

>  <SCORE.INTRA.SOLV.lig_0>
-58.6125

>  <SCORE.INTRA.VDW>
-0.11499

>  <SCORE.INTRA.VDW.0>
-0.432734

>  <SCORE.INTRA.norm>
-0.105113

>  <SCORE.RESTR>
0

>  <SCORE.RESTR.CAVITY>
0

>  <SCORE.RESTR.norm>
0

>  <SCORE.SYSTEM>
0

>  <SCORE.SYSTEM.CONST>
0

>  <SCORE.SYSTEM.DIHEDRAL>
0

>  <SCORE.SYSTEM.SOLV>
0

>  <SCORE.SYSTEM.norm>
0

>  <SCORE.heavy>
16

>  <SCORE.norm>
-0.673786

>  <RMSD>
3.413

$$$$
ligand
 OpenBabel11021811463D
libRbt.so/2013.1/901 2013/11/27
 16 16  0  0  0  0  0  0  0  0999 V2000
   50.3636    9.2066   12.4589 P   0  0  2  0  0  0  0  0  0  0  0  0
   49.9612    7.8585   11.9878 O   0  0  0  0  0  0  0  0  0  0  0  0
   50.7478   10.1249   11.1947 O   0  5  0  0  0  0  0  0  0  0  0  0
   51.6555    9.0652   13.4131 O   0  0  0  0  0  0  0  0  0  0  0  0
   46.1153   12.5402   14.6088 C   0  0  2  0  0  0  0  0  0  0  0  0
   46.4925   13.8620   15.0115 O   0  0  0  0  0  0  0  0  0  0  0  0
   45.7926   11.6621   15.8453 C   0  0  2  0  0  0  0  0  0  0  0  0
   44.7033   12.2801   16.6253 N   0  0  0  0  0  0  0  0  0  0  0  0
   47.0594   11.5483   16.7099 C   0  0  1  0  0  0  0  0  0  0  0  0
   46.8034   10.7283   17.8532 O   0  0  0  0  0  0  0  0  0  0  0  0
   48.1534   10.9076   15.8575 C   0  0  2  0  0  0  0  0  0  0  0  0
   49.3364   10.7950   16.6383 O   0  0  0  0  0  0  0  0  0  0  0  0
   48.4148   11.8094   14.6204 C   0  0  2  0  0  0  0  0  0  0  0  0
   47.1967   11.9467   13.8262 O   0  0  0  0  0  0  0  0  0  0  0  0
   49.5148   11.1957   13.7192 C   0  0  0  0  0  0  0  0  0  0  0  0
   49.1351    9.8814   13.2719 O   0  0  0  0  0  0  0  0  0  0  0  0
  1  2  1  6  0  0  0
  1  3  1  0  0  0  0
  1  4  2  0  0  0  0
  1 16  1  0  0  0  0
  5  6  1  1  0  0  0
  5  7  1  0  0  0  0
  5 14  1  0  0  0  0
  7  8  1  1  0  0  0
  7  9  1  0  0  0  0
  9 10  1  1  0  0  0
  9 11  1  0  0  0  0
 11 12  1  1  0  0  0
 11 13  1  0  0  0  0
 13 14  1  0  0  0  0
 13 15  1  6  0  0  0
 15 16  1  0  0  0  0
M  CHG  1   3  -1
M  END
>  <CHROM.1>
58.84379650,-174.29898034,-179.39082808,48.42606481,10.80350537,14.41148071
0.46747071,0.72995278,-1.29869979

>  <Name>
ligand

>  <RI>
0

>  <Rbt.Current_Directory>
/home/itssahil/PROJECTS/Mol_Feturizer/New_Systems/rnas/3B4C

>  <Rbt.Executable>
rbdock ($Id: //depot/dev/client3/rdock/2013.1/src/exe/rbdock.cxx#4 $)

>  <Rbt.Library>
libRbt.so (2013.1, Build901 2013/11/27)

>  <Rbt.Parameter_File>
/export/apps/rDock/src/rDock_2013.1_src/data/scripts/dock_solv.prm

>  <Rbt.Receptor>
prm/pocket_docking_7.prm

>  <SCORE>
-10.2664

>  <SCORE.INTER>
-8.85437

>  <SCORE.INTER.CONST>
1

>  <SCORE.INTER.POLAR>
-1.29904

>  <SCORE.INTER.ROT>
3

>  <SCORE.INTER.SOLV>
15.5866

>  <SCORE.INTER.VDW>
-12.3683

>  <SCORE.INTER.norm>
-0.553398

>  <SCORE.INTRA>
-1.41217

>  <SCORE.INTRA.DIHEDRAL>
-1.96482

>  <SCORE.INTRA.DIHEDRAL.0>
2.1318

>  <SCORE.INTRA.POLAR>
0

>  <SCORE.INTRA.POLAR.0>
0

>  <SCORE.INTRA.REPUL>
0

>  <SCORE.INTRA.REPUL.0>
0

>  <SCORE.INTRA.SOLV>
-0.0973283

>  <SCORE.INTRA.SOLV.lig_0>
-58.6125

>  <SCORE.INTRA.VDW>
-0.381091

>  <SCORE.INTRA.VDW.0>
-0.432734

>  <SCORE.INTRA.norm>
-0.0882605

>  <SCORE.RESTR>
0.000134263

>  <SCORE.RESTR.CAVITY>
0.000134263

>  <SCORE.RESTR.norm>
8.39146e-06

>  <SCORE.SYSTEM>
0

>  <SCORE.SYSTEM.CONST>
0

>  <SCORE.SYSTEM.DIHEDRAL>
0

>  <SCORE.SYSTEM.SOLV>
0

>  <SCORE.SYSTEM.norm>
0

>  <SCORE.heavy>
16

>  <SCORE.norm>
-0.64165

>  <RMSD>
3.427

$$$$
ligand
 OpenBabel11021811463D
libRbt.so/2013.1/901 2013/11/27
 16 16  0  0  0  0  0  0  0  0999 V2000
   50.3473    9.5617   12.6566 P   0  0  2  0  0  0  0  0  0  0  0  0
   49.4174    8.4677   12.2828 O   0  0  0  0  0  0  0  0  0  0  0  0
   51.1505   10.0532   11.3520 O   0  5  0  0  0  0  0  0  0  0  0  0
   51.4031    9.0056   13.7408 O   0  0  0  0  0  0  0  0  0  0  0  0
   46.1199   12.9920   14.4585 C   0  0  2  0  0  0  0  0  0  0  0  0
   46.9244   14.1425   14.7427 O   0  0  0  0  0  0  0  0  0  0  0  0
   45.3188   12.5602   15.7139 C   0  0  2  0  0  0  0  0  0  0  0  0
   44.4625   13.6732   16.1663 N   0  0  0  0  0  0  0  0  0  0  0  0
   46.3138   12.1779   16.8227 C   0  0  1  0  0  0  0  0  0  0  0  0
   45.6085   11.7561   17.9931 O   0  0  0  0  0  0  0  0  0  0  0  0
   47.1752   11.0277   16.3041 C   0  0  2  0  0  0  0  0  0  0  0  0
   48.1053   10.6595   17.3147 O   0  0  0  0  0  0  0  0  0  0  0  0
   47.9297   11.5030   15.0326 C   0  0  2  0  0  0  0  0  0  0  0  0
   46.9790   11.9036   13.9987 O   0  0  0  0  0  0  0  0  0  0  0  0
   48.8137   10.3654   14.4642 C   0  0  0  0  0  0  0  0  0  0  0  0
   49.5025   10.7976   13.2768 O   0  0  0  0  0  0  0  0  0  0  0  0
  1  2  1  6  0  0  0
  1  3  1  0  0  0  0
  1  4  2  0  0  0  0
  1 16  1  0  0  0  0
  5  6  1  1  0  0  0
  5  7  1  0  0  0  0
  5 14  1  0  0  0  0
  7  8  1  1  0  0  0
  7  9  1  0  0  0  0
  9 10  1  1  0  0  0
  9 11  1  0  0  0  0
 11 12  1  1  0  0  0
 11 13  1  0  0  0  0
 13 14  1  0  0  0  0
 13 15  1  6  0  0  0
 15 16  1  0  0  0  0
M  CHG  1   3  -1
M  END
>  <CHROM.1>
179.33563432,-176.61592796,61.39914335,48.09135132,11.13110832,14.58285589
0.29879551,0.76339300,-1.12117165

>  <Name>
ligand

>  <RI>
0

>  <Rbt.Current_Directory>
/home/itssahil/PROJECTS/Mol_Feturizer/New_Systems/rnas/3B4C

>  <Rbt.Executable>
rbdock ($Id: //depot/dev/client3/rdock/2013.1/src/exe/rbdock.cxx#4 $)

>  <Rbt.Library>
libRbt.so (2013.1, Build901 2013/11/27)

>  <Rbt.Parameter_File>
/export/apps/rDock/src/rDock_2013.1_src/data/scripts/dock_solv.prm

>  <Rbt.Receptor>
prm/pocket_docking_5.prm

>  <SCORE>
-10.7766

>  <SCORE.INTER>
-9.09445

>  <SCORE.INTER.CONST>
1

>  <SCORE.INTER.POLAR>
-1.29904

>  <SCORE.INTER.ROT>
3

>  <SCORE.INTER.SOLV>
16.4199

>  <SCORE.INTER.VDW>
-12.8061

>  <SCORE.INTER.norm>
-0.568403

>  <SCORE.INTRA>
-1.68214

>  <SCORE.INTRA.DIHEDRAL>
-2.06789

>  <SCORE.INTRA.DIHEDRAL.0>
2.1318

>  <SCORE.INTRA.POLAR>
0

>  <SCORE.INTRA.POLAR.0>
0

>  <SCORE.INTRA.REPUL>
0

>  <SCORE.INTRA.REPUL.0>
0

>  <SCORE.INTRA.SOLV>
-1.00088

>  <SCORE.INTRA.SOLV.lig_0>
-58.6125

>  <SCORE.INTRA.VDW>
-0.147758

>  <SCORE.INTRA.VDW.0>
-0.432734

>  <SCORE.INTRA.norm>
-0.105134

>  <SCORE.RESTR>
0

>  <SCORE.RESTR.CAVITY>
0

>  <SCORE.RESTR.norm>
0

>  <SCORE.SYSTEM>
0

>  <SCORE.SYSTEM.CONST>
0

>  <SCORE.SYSTEM.DIHEDRAL>
0

>  <SCORE.SYSTEM.SOLV>
0

>  <SCORE.SYSTEM.norm>
0

>  <SCORE.heavy>
16

>  <SCORE.norm>
-0.673537

>  <RMSD>
3.429

$$$$
ligand
 OpenBabel11021811463D
libRbt.so/2013.1/901 2013/11/27
 16 16  0  0  0  0  0  0  0  0999 V2000
   50.4945    9.0552   12.5506 P   0  0  2  0  0  0  0  0  0  0  0  0
   49.6759    7.8825   12.1555 O   0  0  0  0  0  0  0  0  0  0  0  0
   50.6728   10.0360   11.2876 O   0  5  0  0  0  0  0  0  0  0  0  0
   51.9486    8.5446   13.0243 O   0  0  0  0  0  0  0  0  0  0  0  0
   45.6793   12.2254   14.9494 C   0  0  2  0  0  0  0  0  0  0  0  0
   46.4118   13.4297   15.2046 O   0  0  0  0  0  0  0  0  0  0  0  0
   45.4715   11.4227   16.2596 C   0  0  2  0  0  0  0  0  0  0  0  0
   44.7489   12.2517   17.2431 N   0  0  0  0  0  0  0  0  0  0  0  0
   46.8497   11.0276   16.8162 C   0  0  1  0  0  0  0  0  0  0  0  0
   46.6960   10.2683   18.0183 O   0  0  0  0  0  0  0  0  0  0  0  0
   47.5552   10.1762   15.7620 C   0  0  2  0  0  0  0  0  0  0  0  0
   48.8346    9.8014   16.2563 O   0  0  0  0  0  0  0  0  0  0  0  0
   47.7097   11.0154   14.4643 C   0  0  2  0  0  0  0  0  0  0  0  0
   46.3991   11.4221   13.9642 O   0  0  0  0  0  0  0  0  0  0  0  0
   48.4154   10.1897   13.3603 C   0  0  0  0  0  0  0  0  0  0  0  0
   49.7554    9.8455   13.7568 O   0  0  0  0  0  0  0  0  0  0  0  0
  1  2  1  6  0  0  0
  1  3  1  0  0  0  0
  1  4  2  0  0  0  0
  1 16  1  0  0  0  0
  5  6  1  1  0  0  0
  5  7  1  0  0  0  0
  5 14  1  0  0  0  0
  7  8  1  1  0  0  0
  7  9  1  0  0  0  0
  9 10  1  1  0  0  0
  9 11  1  0  0  0  0
 11 12  1  1  0  0  0
 11 13  1  0  0  0  0
 13 14  1  0  0  0  0
 13 15  1  6  0  0  0
 15 16  1  0  0  0  0
M  CHG  1   3  -1
M  END
>  <CHROM.1>
-63.35862333,-176.86015466,-54.99037822,48.20698715,10.40064417,14.49846326
0.41199884,0.70637771,-1.19694736

>  <Name>
ligand

>  <RI>
0

>  <Rbt.Current_Directory>
/home/itssahil/PROJECTS/Mol_Feturizer/New_Systems/rnas/3B4C

>  <Rbt.Executable>
rbdock ($Id: //depot/dev/client3/rdock/2013.1/src/exe/rbdock.cxx#4 $)

>  <Rbt.Library>
libRbt.so (2013.1, Build901 2013/11/27)

>  <Rbt.Parameter_File>
/export/apps/rDock/src/rDock_2013.1_src/data/scripts/dock_solv.prm

>  <Rbt.Receptor>
prm/pocket_docking_6.prm

>  <SCORE>
-10.7842

>  <SCORE.INTER>
-9.45741

>  <SCORE.INTER.CONST>
1

>  <SCORE.INTER.POLAR>
-1.29904

>  <SCORE.INTER.ROT>
3

>  <SCORE.INTER.SOLV>
17.684

>  <SCORE.INTER.VDW>
-13.4695

>  <SCORE.INTER.norm>
-0.591088

>  <SCORE.INTRA>
-1.32683

>  <SCORE.INTRA.DIHEDRAL>
-1.99865

>  <SCORE.INTRA.DIHEDRAL.0>
2.1318

>  <SCORE.INTRA.POLAR>
0

>  <SCORE.INTRA.POLAR.0>
0

>  <SCORE.INTRA.REPUL>
0

>  <SCORE.INTRA.REPUL.0>
0

>  <SCORE.INTRA.SOLV>
-0.665877

>  <SCORE.INTRA.SOLV.lig_0>
-58.6125

>  <SCORE.INTRA.VDW>
0.0054312

>  <SCORE.INTRA.VDW.0>
-0.432734

>  <SCORE.INTRA.norm>
-0.082927

>  <SCORE.RESTR>
0

>  <SCORE.RESTR.CAVITY>
0

>  <SCORE.RESTR.norm>
0

>  <SCORE.SYSTEM>
0

>  <SCORE.SYSTEM.CONST>
0

>  <SCORE.SYSTEM.DIHEDRAL>
0

>  <SCORE.SYSTEM.SOLV>
0

>  <SCORE.SYSTEM.norm>
0

>  <SCORE.heavy>
16

>  <SCORE.norm>
-0.674015

>  <RMSD>
3.429

$$$$
ligand
 OpenBabel11021811463D
libRbt.so/2013.1/901 2013/11/27
 16 16  0  0  0  0  0  0  0  0999 V2000
   50.4043    9.1079   12.5946 P   0  0  2  0  0  0  0  0  0  0  0  0
   49.6684    7.8887   12.1781 O   0  0  0  0  0  0  0  0  0  0  0  0
   50.5427   10.1065   11.3406 O   0  5  0  0  0  0  0  0  0  0  0  0
   51.8791    8.6867   13.0915 O   0  0  0  0  0  0  0  0  0  0  0  0
   45.3193   11.8609   14.9482 C   0  0  2  0  0  0  0  0  0  0  0  0
   45.9334   13.1388   15.1524 O   0  0  0  0  0  0  0  0  0  0  0  0
   45.2019   11.0894   16.2880 C   0  0  2  0  0  0  0  0  0  0  0  0
   44.4107   11.8793   17.2508 N   0  0  0  0  0  0  0  0  0  0  0  0
   46.6168   10.8498   16.8413 C   0  0  1  0  0  0  0  0  0  0  0  0
   46.5481   10.1228   18.0709 O   0  0  0  0  0  0  0  0  0  0  0  0
   47.3924   10.0334   15.8089 C   0  0  2  0  0  0  0  0  0  0  0  0
   48.7066    9.8022   16.3003 O   0  0  0  0  0  0  0  0  0  0  0  0
   47.4534   10.8365   14.4810 C   0  0  2  0  0  0  0  0  0  0  0  0
   46.1050   11.0961   13.9829 O   0  0  0  0  0  0  0  0  0  0  0  0
   48.2263   10.0439   13.3979 C   0  0  0  0  0  0  0  0  0  0  0  0
   49.5958    9.8419   13.7917 O   0  0  0  0  0  0  0  0  0  0  0  0
  1  2  1  6  0  0  0
  1  3  1  0  0  0  0
  1  4  2  0  0  0  0
  1 16  1  0  0  0  0
  5  6  1  1  0  0  0
  5  7  1  0  0  0  0
  5 14  1  0  0  0  0
  7  8  1  1  0  0  0
  7  9  1  0  0  0  0
  9 10  1  1  0  0  0
  9 11  1  0  0  0  0
 11 12  1  1  0  0  0
 11 13  1  0  0  0  0
 13 14  1  0  0  0  0
 13 15  1  6  0  0  0
 15 16  1  0  0  0  0
M  CHG  1   3  -1
M  END
>  <CHROM.1>
-63.17995567,-175.85963391,-52.14896754,48.01060047,10.28180793,14.52767123
0.46617510,0.61650156,-1.26226624

>  <Name>
ligand

>  <RI>
0

>  <Rbt.Current_Directory>
/home/itssahil/PROJECTS/Mol_Feturizer/New_Systems/rnas/3B4C

>  <Rbt.Executable>
rbdock ($Id: //depot/dev/client3/rdock/2013.1/src/exe/rbdock.cxx#4 $)

>  <Rbt.Library>
libRbt.so (2013.1, Build901 2013/11/27)

>  <Rbt.Parameter_File>
/export/apps/rDock/src/rDock_2013.1_src/data/scripts/dock_solv.prm

>  <Rbt.Receptor>
prm/pocket_docking_7.prm

>  <SCORE>
-10.7941

>  <SCORE.INTER>
-9.54504

>  <SCORE.INTER.CONST>
1

>  <SCORE.INTER.POLAR>
-1.29426

>  <SCORE.INTER.ROT>
3

>  <SCORE.INTER.SOLV>
18.2355

>  <SCORE.INTER.VDW>
-13.7277

>  <SCORE.INTER.norm>
-0.596565

>  <SCORE.INTRA>
-1.24908

>  <SCORE.INTRA.DIHEDRAL>
-1.90736

>  <SCORE.INTRA.DIHEDRAL.0>
2.1318

>  <SCORE.INTRA.POLAR>
0

>  <SCORE.INTRA.POLAR.0>
0

>  <SCORE.INTRA.REPUL>
0

>  <SCORE.INTRA.REPUL.0>
0

>  <SCORE.INTRA.SOLV>
-0.695143

>  <SCORE.INTRA.SOLV.lig_0>
-58.6125

>  <SCORE.INTRA.VDW>
0.0521716

>  <SCORE.INTRA.VDW.0>
-0.432734

>  <SCORE.INTRA.norm>
-0.0780674

>  <SCORE.RESTR>
0

>  <SCORE.RESTR.CAVITY>
0

>  <SCORE.RESTR.norm>
0

>  <SCORE.SYSTEM>
0

>  <SCORE.SYSTEM.CONST>
0

>  <SCORE.SYSTEM.DIHEDRAL>
0

>  <SCORE.SYSTEM.SOLV>
0

>  <SCORE.SYSTEM.norm>
0

>  <SCORE.heavy>
16

>  <SCORE.norm>
-0.674632

>  <RMSD>
3.434

$$$$
ligand
 OpenBabel11021811463D
libRbt.so/2013.1/901 2013/11/27
 16 16  0  0  0  0  0  0  0  0999 V2000
   50.3858    9.0234   12.5283 P   0  0  2  0  0  0  0  0  0  0  0  0
   50.1704    7.5753   12.2880 O   0  0  0  0  0  0  0  0  0  0  0  0
   50.5687    9.7803   11.1203 O   0  5  0  0  0  0  0  0  0  0  0  0
   51.7266    9.2165   13.4027 O   0  0  0  0  0  0  0  0  0  0  0  0
   45.7768   12.1129   14.2493 C   0  0  2  0  0  0  0  0  0  0  0  0
   46.0065   13.5056   14.4929 O   0  0  0  0  0  0  0  0  0  0  0  0
   45.5197   11.3594   15.5798 C   0  0  2  0  0  0  0  0  0  0  0  0
   44.3556   11.9478   16.2693 N   0  0  0  0  0  0  0  0  0  0  0  0
   46.7724   11.4834   16.4634 C   0  0  1  0  0  0  0  0  0  0  0  0
   46.5776   10.7832   17.6950 O   0  0  0  0  0  0  0  0  0  0  0  0
   47.9451   10.8644   15.7048 C   0  0  2  0  0  0  0  0  0  0  0  0
   49.1160   10.9708   16.5044 O   0  0  0  0  0  0  0  0  0  0  0  0
   48.1388   11.6349   14.3703 C   0  0  2  0  0  0  0  0  0  0  0  0
   46.9306   11.5475   13.5542 O   0  0  0  0  0  0  0  0  0  0  0  0
   49.3157   11.0373   13.5601 C   0  0  0  0  0  0  0  0  0  0  0  0
   49.1081    9.6342   13.3158 O   0  0  0  0  0  0  0  0  0  0  0  0
  1  2  1  6  0  0  0
  1  3  1  0  0  0  0
  1  4  2  0  0  0  0
  1 16  1  0  0  0  0
  5  6  1  1  0  0  0
  5  7  1  0  0  0  0
  5 14  1  0  0  0  0
  7  8  1  1  0  0  0
  7  9  1  0  0  0  0
  9 10  1  1  0  0  0
  9 11  1  0  0  0  0
 11 12  1  1  0  0  0
 11 13  1  0  0  0  0
 13 14  1  0  0  0  0
 13 15  1  6  0  0  0
 15 16  1  0  0  0  0
M  CHG  1   3  -1
M  END
>  <CHROM.1>
56.62178545,-177.36107090,179.59823697,48.25566294,10.62218093,14.27331634
0.48488191,0.62217462,-1.42931867

>  <Name>
ligand

>  <RI>
0

>  <Rbt.Current_Directory>
/home/itssahil/PROJECTS/Mol_Feturizer/New_Systems/rnas/3B4C

>  <Rbt.Executable>
rbdock ($Id: //depot/dev/client3/rdock/2013.1/src/exe/rbdock.cxx#4 $)

>  <Rbt.Library>
libRbt.so (2013.1, Build901 2013/11/27)

>  <Rbt.Parameter_File>
/export/apps/rDock/src/rDock_2013.1_src/data/scripts/dock_solv.prm

>  <Rbt.Receptor>
prm/pocket_docking_6.prm

>  <SCORE>
-10.1624

>  <SCORE.INTER>
-8.69016

>  <SCORE.INTER.CONST>
1

>  <SCORE.INTER.POLAR>
-1.29904

>  <SCORE.INTER.ROT>
3

>  <SCORE.INTER.SOLV>
14.4967

>  <SCORE.INTER.VDW>
-11.8956

>  <SCORE.INTER.norm>
-0.543135

>  <SCORE.INTRA>
-1.47221

>  <SCORE.INTRA.DIHEDRAL>
-2.05477

>  <SCORE.INTRA.DIHEDRAL.0>
2.1318

>  <SCORE.INTRA.POLAR>
0

>  <SCORE.INTRA.POLAR.0>
0

>  <SCORE.INTRA.REPUL>
0

>  <SCORE.INTRA.REPUL.0>
0

>  <SCORE.INTRA.SOLV>
-0.168349

>  <SCORE.INTRA.SOLV.lig_0>
-58.6125

>  <SCORE.INTRA.VDW>
-0.360654

>  <SCORE.INTRA.VDW.0>
-0.432734

>  <SCORE.INTRA.norm>
-0.0920133

>  <SCORE.RESTR>
0

>  <SCORE.RESTR.CAVITY>
0

>  <SCORE.RESTR.norm>
0

>  <SCORE.SYSTEM>
0

>  <SCORE.SYSTEM.CONST>
0

>  <SCORE.SYSTEM.DIHEDRAL>
0

>  <SCORE.SYSTEM.SOLV>
0

>  <SCORE.SYSTEM.norm>
0

>  <SCORE.heavy>
16

>  <SCORE.norm>
-0.635148

>  <RMSD>
3.439

$$$$
ligand
 OpenBabel11021811463D
libRbt.so/2013.1/901 2013/11/27
 16 16  0  0  0  0  0  0  0  0999 V2000
   50.4552    8.9752   12.4772 P   0  0  2  0  0  0  0  0  0  0  0  0
   50.2666    7.5184   12.2688 O   0  0  0  0  0  0  0  0  0  0  0  0
   50.5809    9.7100   11.0513 O   0  5  0  0  0  0  0  0  0  0  0  0
   51.8152    9.2146   13.3093 O   0  0  0  0  0  0  0  0  0  0  0  0
   45.8293   11.9832   14.2520 C   0  0  2  0  0  0  0  0  0  0  0  0
   46.0286   13.3867   14.4578 O   0  0  0  0  0  0  0  0  0  0  0  0
   45.6128   11.2567   15.6046 C   0  0  2  0  0  0  0  0  0  0  0  0
   44.4461   11.8335   16.2994 N   0  0  0  0  0  0  0  0  0  0  0  0
   46.8765   11.4328   16.4634 C   0  0  1  0  0  0  0  0  0  0  0  0
   46.7194   10.7586   17.7148 O   0  0  0  0  0  0  0  0  0  0  0  0
   48.0514   10.8239   15.7001 C   0  0  2  0  0  0  0  0  0  0  0  0
   49.2324   10.9784   16.4767 O   0  0  0  0  0  0  0  0  0  0  0  0
   48.2041   11.5657   14.3442 C   0  0  2  0  0  0  0  0  0  0  0  0
   46.9851   11.4290   13.5512 O   0  0  0  0  0  0  0  0  0  0  0  0
   49.3818   10.9771   13.5287 C   0  0  0  0  0  0  0  0  0  0  0  0
   49.1864    9.5713   13.2898 O   0  0  0  0  0  0  0  0  0  0  0  0
  1  2  1  6  0  0  0
  1  3  1  0  0  0  0
  1  4  2  0  0  0  0
  1 16  1  0  0  0  0
  5  6  1  1  0  0  0
  5  7  1  0  0  0  0
  5 14  1  0  0  0  0
  7  8  1  1  0  0  0
  7  9  1  0  0  0  0
  9 10  1  1  0  0  0
  9 11  1  0  0  0  0
 11 12  1  1  0  0  0
 11 13  1  0  0  0  0
 13 14  1  0  0  0  0
 13 15  1  6  0  0  0
 15 16  1  0  0  0  0
M  CHG  1   3  -1
M  END
>  <CHROM.1>
58.23870629,-178.19766422,178.35196119,48.33337094,10.55795195,14.25068159
0.52412790,0.59878241,-1.47501638

>  <Name>
ligand

>  <RI>
0

>  <Rbt.Current_Directory>
/home/itssahil/PROJECTS/Mol_Feturizer/New_Systems/rnas/3B4C

>  <Rbt.Executable>
rbdock ($Id: //depot/dev/client3/rdock/2013.1/src/exe/rbdock.cxx#4 $)

>  <Rbt.Library>
libRbt.so (2013.1, Build901 2013/11/27)

>  <Rbt.Parameter_File>
/export/apps/rDock/src/rDock_2013.1_src/data/scripts/dock_solv.prm

>  <Rbt.Receptor>
prm/pocket_docking_7.prm

>  <SCORE>
-10.1

>  <SCORE.INTER>
-8.59754

>  <SCORE.INTER.CONST>
1

>  <SCORE.INTER.POLAR>
-1.29904

>  <SCORE.INTER.ROT>
3

>  <SCORE.INTER.SOLV>
14.4381

>  <SCORE.INTER.VDW>
-11.8143

>  <SCORE.INTER.norm>
-0.537346

>  <SCORE.INTRA>
-1.50246

>  <SCORE.INTRA.DIHEDRAL>
-2.09864

>  <SCORE.INTRA.DIHEDRAL.0>
2.1318

>  <SCORE.INTRA.POLAR>
0

>  <SCORE.INTRA.POLAR.0>
0

>  <SCORE.INTRA.REPUL>
0

>  <SCORE.INTRA.REPUL.0>
0

>  <SCORE.INTRA.SOLV>
-0.171588

>  <SCORE.INTRA.SOLV.lig_0>
-58.6125

>  <SCORE.INTRA.VDW>
-0.367342

>  <SCORE.INTRA.VDW.0>
-0.432734

>  <SCORE.INTRA.norm>
-0.0939036

>  <SCORE.RESTR>
0

>  <SCORE.RESTR.CAVITY>
0

>  <SCORE.RESTR.norm>
0

>  <SCORE.SYSTEM>
0

>  <SCORE.SYSTEM.CONST>
0

>  <SCORE.SYSTEM.DIHEDRAL>
0

>  <SCORE.SYSTEM.SOLV>
0

>  <SCORE.SYSTEM.norm>
0

>  <SCORE.heavy>
16

>  <SCORE.norm>
-0.63125

>  <RMSD>
3.442

$$$$
ligand
 OpenBabel11021811463D
libRbt.so/2013.1/901 2013/11/27
 16 16  0  0  0  0  0  0  0  0999 V2000
   50.4240    9.3636   12.4314 P   0  0  2  0  0  0  0  0  0  0  0  0
   49.6718    8.1062   12.1985 O   0  0  0  0  0  0  0  0  0  0  0  0
   51.1259    9.8315   11.0613 O   0  5  0  0  0  0  0  0  0  0  0  0
   51.5659    9.0949   13.5375 O   0  0  0  0  0  0  0  0  0  0  0  0
   45.8396   12.3979   14.2502 C   0  0  2  0  0  0  0  0  0  0  0  0
   46.5105   13.6635   14.2593 O   0  0  0  0  0  0  0  0  0  0  0  0
   45.2707   12.0695   15.6546 C   0  0  2  0  0  0  0  0  0  0  0  0
   44.3359   13.1309   16.0748 N   0  0  0  0  0  0  0  0  0  0  0  0
   46.4410   11.9759   16.6481 C   0  0  1  0  0  0  0  0  0  0  0  0
   45.9541   11.6557   17.9540 O   0  0  0  0  0  0  0  0  0  0  0  0
   47.3774   10.8687   16.1673 C   0  0  2  0  0  0  0  0  0  0  0  0
   48.4696   10.7667   17.0719 O   0  0  0  0  0  0  0  0  0  0  0  0
   47.8927   11.2320   14.7479 C   0  0  2  0  0  0  0  0  0  0  0  0
   46.7727   11.3599   13.8191 O   0  0  0  0  0  0  0  0  0  0  0  0
   48.8430   10.1322   14.2134 C   0  0  0  0  0  0  0  0  0  0  0  0
   49.4041   10.5137   12.9441 O   0  0  0  0  0  0  0  0  0  0  0  0
  1  2  1  6  0  0  0
  1  3  1  0  0  0  0
  1  4  2  0  0  0  0
  1 16  1  0  0  0  0
  5  6  1  1  0  0  0
  5  7  1  0  0  0  0
  5 14  1  0  0  0  0
  7  8  1  1  0  0  0
  7  9  1  0  0  0  0
  9 10  1  1  0  0  0
  9 11  1  0  0  0  0
 11 12  1  1  0  0  0
 11 13  1  0  0  0  0
 13 14  1  0  0  0  0
 13 15  1  6  0  0  0
 15 16  1  0  0  0  0
M  CHG  1   3  -1
M  END
>  <CHROM.1>
-175.51597094,178.42828984,63.56356304,48.11788209,10.86118713,14.37376630
0.48556869,0.65614224,-1.38354416

>  <Name>
ligand

>  <RI>
0

>  <Rbt.Current_Directory>
/home/itssahil/PROJECTS/Mol_Feturizer/New_Systems/rnas/3B4C

>  <Rbt.Executable>
rbdock ($Id: //depot/dev/client3/rdock/2013.1/src/exe/rbdock.cxx#4 $)

>  <Rbt.Library>
libRbt.so (2013.1, Build901 2013/11/27)

>  <Rbt.Parameter_File>
/export/apps/rDock/src/rDock_2013.1_src/data/scripts/dock_solv.prm

>  <Rbt.Receptor>
prm/pocket_docking_8.prm

>  <SCORE>
-10.1654

>  <SCORE.INTER>
-8.5131

>  <SCORE.INTER.CONST>
1

>  <SCORE.INTER.POLAR>
-1.29859

>  <SCORE.INTER.ROT>
3

>  <SCORE.INTER.SOLV>
15.827

>  <SCORE.INTER.VDW>
-12.2224

>  <SCORE.INTER.norm>
-0.532069

>  <SCORE.INTRA>
-1.65226

>  <SCORE.INTRA.DIHEDRAL>
-2.02137

>  <SCORE.INTRA.DIHEDRAL.0>
2.1318

>  <SCORE.INTRA.POLAR>
0

>  <SCORE.INTRA.POLAR.0>
0

>  <SCORE.INTRA.REPUL>
0

>  <SCORE.INTRA.REPUL.0>
0

>  <SCORE.INTRA.SOLV>
-1.00101

>  <SCORE.INTRA.SOLV.lig_0>
-58.6125

>  <SCORE.INTRA.VDW>
-0.141066

>  <SCORE.INTRA.VDW.0>
-0.432734

>  <SCORE.INTRA.norm>
-0.103266

>  <SCORE.RESTR>
0

>  <SCORE.RESTR.CAVITY>
0

>  <SCORE.RESTR.norm>
0

>  <SCORE.SYSTEM>
0

>  <SCORE.SYSTEM.CONST>
0

>  <SCORE.SYSTEM.DIHEDRAL>
0

>  <SCORE.SYSTEM.SOLV>
0

>  <SCORE.SYSTEM.norm>
0

>  <SCORE.heavy>
16

>  <SCORE.norm>
-0.635335

>  <RMSD>
3.444

$$$$
ligand
 OpenBabel11021811463D
libRbt.so/2013.1/901 2013/11/27
 16 16  0  0  0  0  0  0  0  0999 V2000
   50.3570    9.5333   12.6930 P   0  0  2  0  0  0  0  0  0  0  0  0
   49.4179    8.4688   12.2613 O   0  0  0  0  0  0  0  0  0  0  0  0
   51.2418   10.0108   11.4369 O   0  5  0  0  0  0  0  0  0  0  0  0
   51.3378    8.9398   13.8268 O   0  0  0  0  0  0  0  0  0  0  0  0
   46.1695   13.1081   14.3801 C   0  0  2  0  0  0  0  0  0  0  0  0
   47.0185   14.2202   14.6872 O   0  0  0  0  0  0  0  0  0  0  0  0
   45.3267   12.7044   15.6173 C   0  0  2  0  0  0  0  0  0  0  0  0
   44.5119   13.8514   16.0616 N   0  0  0  0  0  0  0  0  0  0  0  0
   46.2828   12.2716   16.7416 C   0  0  1  0  0  0  0  0  0  0  0  0
   45.5378   11.8741   17.8958 O   0  0  0  0  0  0  0  0  0  0  0  0
   47.1023   11.0877   16.2310 C   0  0  2  0  0  0  0  0  0  0  0  0
   47.9961   10.6724   17.2559 O   0  0  0  0  0  0  0  0  0  0  0  0
   47.9008   11.5371   14.9770 C   0  0  2  0  0  0  0  0  0  0  0  0
   46.9882   11.9857   13.9285 O   0  0  0  0  0  0  0  0  0  0  0  0
   48.7442   10.3650   14.4171 C   0  0  0  0  0  0  0  0  0  0  0  0
   49.5155   10.7884   13.2781 O   0  0  0  0  0  0  0  0  0  0  0  0
  1  2  1  6  0  0  0
  1  3  1  0  0  0  0
  1  4  2  0  0  0  0
  1 16  1  0  0  0  0
  5  6  1  1  0  0  0
  5  7  1  0  0  0  0
  5 14  1  0  0  0  0
  7  8  1  1  0  0  0
  7  9  1  0  0  0  0
  9 10  1  1  0  0  0
  9 11  1  0  0  0  0
 11 12  1  1  0  0  0
 11 13  1  0  0  0  0
 13 14  1  0  0  0  0
 13 15  1  6  0  0  0
 15 16  1  0  0  0  0
M  CHG  1   3  -1
M  END
>  <CHROM.1>
-178.32240811,-178.58133505,60.92539871,48.08517566,11.17170303,14.55070494
0.23284584,0.78043343,-1.06901010

>  <Name>
ligand

>  <RI>
0

>  <Rbt.Current_Directory>
/home/itssahil/PROJECTS/Mol_Feturizer/New_Systems/rnas/3B4C

>  <Rbt.Executable>
rbdock ($Id: //depot/dev/client3/rdock/2013.1/src/exe/rbdock.cxx#4 $)

>  <Rbt.Library>
libRbt.so (2013.1, Build901 2013/11/27)

>  <Rbt.Parameter_File>
/export/apps/rDock/src/rDock_2013.1_src/data/scripts/dock_solv.prm

>  <Rbt.Receptor>
prm/pocket_docking_6.prm

>  <SCORE>
-10.8075

>  <SCORE.INTER>
-9.11646

>  <SCORE.INTER.CONST>
1

>  <SCORE.INTER.POLAR>
-1.29904

>  <SCORE.INTER.ROT>
3

>  <SCORE.INTER.SOLV>
16.0755

>  <SCORE.INTER.VDW>
-12.706

>  <SCORE.INTER.norm>
-0.569779

>  <SCORE.INTRA>
-1.69103

>  <SCORE.INTRA.DIHEDRAL>
-2.10693

>  <SCORE.INTRA.DIHEDRAL.0>
2.1318

>  <SCORE.INTRA.POLAR>
0

>  <SCORE.INTRA.POLAR.0>
0

>  <SCORE.INTRA.REPUL>
0

>  <SCORE.INTRA.REPUL.0>
0

>  <SCORE.INTRA.SOLV>
-1.01562

>  <SCORE.INTRA.SOLV.lig_0>
-58.6125

>  <SCORE.INTRA.VDW>
-0.129753

>  <SCORE.INTRA.VDW.0>
-0.432734

>  <SCORE.INTRA.norm>
-0.105689

>  <SCORE.RESTR>
0

>  <SCORE.RESTR.CAVITY>
0

>  <SCORE.RESTR.norm>
0

>  <SCORE.SYSTEM>
0

>  <SCORE.SYSTEM.CONST>
0

>  <SCORE.SYSTEM.DIHEDRAL>
0

>  <SCORE.SYSTEM.SOLV>
0

>  <SCORE.SYSTEM.norm>
0

>  <SCORE.heavy>
16

>  <SCORE.norm>
-0.675468

>  <RMSD>
3.450

$$$$
ligand
 OpenBabel11021811463D
libRbt.so/2013.1/901 2013/11/27
 16 16  0  0  0  0  0  0  0  0999 V2000
   50.4270    9.3514   12.4218 P   0  0  2  0  0  0  0  0  0  0  0  0
   49.6535    8.1109   12.1683 O   0  0  0  0  0  0  0  0  0  0  0  0
   51.1554    9.8170   11.0647 O   0  5  0  0  0  0  0  0  0  0  0  0
   51.5491    9.0510   13.5398 O   0  0  0  0  0  0  0  0  0  0  0  0
   45.8578   12.4358   14.1920 C   0  0  2  0  0  0  0  0  0  0  0  0
   46.5444   13.6926   14.2179 O   0  0  0  0  0  0  0  0  0  0  0  0
   45.2643   12.1071   15.5862 C   0  0  2  0  0  0  0  0  0  0  0  0
   44.3370   13.1781   15.9986 N   0  0  0  0  0  0  0  0  0  0  0  0
   46.4187   11.9933   16.5960 C   0  0  1  0  0  0  0  0  0  0  0  0
   45.9087   11.6723   17.8929 O   0  0  0  0  0  0  0  0  0  0  0  0
   47.3479   10.8768   16.1227 C   0  0  2  0  0  0  0  0  0  0  0  0
   48.4255   10.7561   17.0425 O   0  0  0  0  0  0  0  0  0  0  0  0
   47.8884   11.2411   14.7130 C   0  0  2  0  0  0  0  0  0  0  0  0
   46.7839   11.3882   13.7687 O   0  0  0  0  0  0  0  0  0  0  0  0
   48.8325   10.1322   14.1862 C   0  0  0  0  0  0  0  0  0  0  0  0
   49.4232   10.5169   12.9314 O   0  0  0  0  0  0  0  0  0  0  0  0
  1  2  1  6  0  0  0
  1  3  1  0  0  0  0
  1  4  2  0  0  0  0
  1 16  1  0  0  0  0
  5  6  1  1  0  0  0
  5  7  1  0  0  0  0
  5 14  1  0  0  0  0
  7  8  1  1  0  0  0
  7  9  1  0  0  0  0
  9 10  1  1  0  0  0
  9 11  1  0  0  0  0
 11 12  1  1  0  0  0
 11 13  1  0  0  0  0
 13 14  1  0  0  0  0
 13 15  1  6  0  0  0
 15 16  1  0  0  0  0
M  CHG  1   3  -1
M  END
>  <CHROM.1>
-175.16153107,178.85922130,63.22747456,48.11348117,10.86880994,14.33957493
0.46467381,0.66622911,-1.36526119

>  <Name>
ligand

>  <RI>
0

>  <Rbt.Current_Directory>
/home/itssahil/PROJECTS/Mol_Feturizer/New_Systems/rnas/3B4C

>  <Rbt.Executable>
rbdock ($Id: //depot/dev/client3/rdock/2013.1/src/exe/rbdock.cxx#4 $)

>  <Rbt.Library>
libRbt.so (2013.1, Build901 2013/11/27)

>  <Rbt.Parameter_File>
/export/apps/rDock/src/rDock_2013.1_src/data/scripts/dock_solv.prm

>  <Rbt.Receptor>
prm/pocket_docking_5.prm

>  <SCORE>
-10.2004

>  <SCORE.INTER>
-8.54688

>  <SCORE.INTER.CONST>
1

>  <SCORE.INTER.POLAR>
-1.29866

>  <SCORE.INTER.ROT>
3

>  <SCORE.INTER.SOLV>
15.6723

>  <SCORE.INTER.VDW>
-12.1932

>  <SCORE.INTER.norm>
-0.53418

>  <SCORE.INTRA>
-1.6535

>  <SCORE.INTRA.DIHEDRAL>
-2.01903

>  <SCORE.INTRA.DIHEDRAL.0>
2.1318

>  <SCORE.INTRA.POLAR>
0

>  <SCORE.INTRA.POLAR.0>
0

>  <SCORE.INTRA.REPUL>
0

>  <SCORE.INTRA.REPUL.0>
0

>  <SCORE.INTRA.SOLV>
-1.00537

>  <SCORE.INTRA.SOLV.lig_0>
-58.6125

>  <SCORE.INTRA.VDW>
-0.141303

>  <SCORE.INTRA.VDW.0>
-0.432734

>  <SCORE.INTRA.norm>
-0.103344

>  <SCORE.RESTR>
0

>  <SCORE.RESTR.CAVITY>
0

>  <SCORE.RESTR.norm>
0

>  <SCORE.SYSTEM>
0

>  <SCORE.SYSTEM.CONST>
0

>  <SCORE.SYSTEM.DIHEDRAL>
0

>  <SCORE.SYSTEM.SOLV>
0

>  <SCORE.SYSTEM.norm>
0

>  <SCORE.heavy>
16

>  <SCORE.norm>
-0.637524

>  <RMSD>
3.457

$$$$
ligand
 OpenBabel11021811463D
libRbt.so/2013.1/901 2013/11/27
 16 16  0  0  0  0  0  0  0  0999 V2000
   50.3876    9.4742   12.6076 P   0  0  2  0  0  0  0  0  0  0  0  0
   49.4269    8.4276   12.1797 O   0  0  0  0  0  0  0  0  0  0  0  0
   51.2546    9.9577   11.3413 O   0  5  0  0  0  0  0  0  0  0  0  0
   51.3819    8.8530   13.7144 O   0  0  0  0  0  0  0  0  0  0  0  0
   46.2576   13.0514   14.3632 C   0  0  2  0  0  0  0  0  0  0  0  0
   47.1053   14.1583   14.6921 O   0  0  0  0  0  0  0  0  0  0  0  0
   45.4053   12.6314   15.5884 C   0  0  2  0  0  0  0  0  0  0  0  0
   44.5881   13.7729   16.0424 N   0  0  0  0  0  0  0  0  0  0  0  0
   46.3525   12.1821   16.7137 C   0  0  1  0  0  0  0  0  0  0  0  0
   45.5984   11.7694   17.8566 O   0  0  0  0  0  0  0  0  0  0  0  0
   47.1748   11.0046   16.1929 C   0  0  2  0  0  0  0  0  0  0  0  0
   48.0604   10.5744   17.2187 O   0  0  0  0  0  0  0  0  0  0  0  0
   47.9831   11.4706   14.9513 C   0  0  2  0  0  0  0  0  0  0  0  0
   47.0788   11.9346   13.9023 O   0  0  0  0  0  0  0  0  0  0  0  0
   48.8297   10.3056   14.3816 C   0  0  0  0  0  0  0  0  0  0  0  0
   49.5736   10.7316   13.2255 O   0  0  0  0  0  0  0  0  0  0  0  0
  1  2  1  6  0  0  0
  1  3  1  0  0  0  0
  1  4  2  0  0  0  0
  1 16  1  0  0  0  0
  5  6  1  1  0  0  0
  5  7  1  0  0  0  0
  5 14  1  0  0  0  0
  7  8  1  1  0  0  0
  7  9  1  0  0  0  0
  9 10  1  1  0  0  0
  9 11  1  0  0  0  0
 11 12  1  1  0  0  0
 11 13  1  0  0  0  0
 13 14  1  0  0  0  0
 13 15  1  6  0  0  0
 15 16  1  0  0  0  0
M  CHG  1   3  -1
M  END
>  <CHROM.1>
179.62679646,-177.07583169,61.53275560,48.14518680,11.10259688,14.50215190
0.23466859,0.78897423,-1.05565768

>  <Name>
ligand

>  <RI>
0

>  <Rbt.Current_Directory>
/home/itssahil/PROJECTS/Mol_Feturizer/New_Systems/rnas/3B4C

>  <Rbt.Executable>
rbdock ($Id: //depot/dev/client3/rdock/2013.1/src/exe/rbdock.cxx#4 $)

>  <Rbt.Library>
libRbt.so (2013.1, Build901 2013/11/27)

>  <Rbt.Parameter_File>
/export/apps/rDock/src/rDock_2013.1_src/data/scripts/dock_solv.prm

>  <Rbt.Receptor>
prm/pocket_docking_8.prm

>  <SCORE>
-10.8122

>  <SCORE.INTER>
-9.12197

>  <SCORE.INTER.CONST>
1

>  <SCORE.INTER.POLAR>
-1.29904

>  <SCORE.INTER.ROT>
3

>  <SCORE.INTER.SOLV>
15.9236

>  <SCORE.INTER.VDW>
-12.659

>  <SCORE.INTER.norm>
-0.570123

>  <SCORE.INTRA>
-1.69021

>  <SCORE.INTRA.DIHEDRAL>
-2.08246

>  <SCORE.INTRA.DIHEDRAL.0>
2.1318

>  <SCORE.INTRA.POLAR>
0

>  <SCORE.INTRA.POLAR.0>
0

>  <SCORE.INTRA.REPUL>
0

>  <SCORE.INTRA.REPUL.0>
0

>  <SCORE.INTRA.SOLV>
-1.00112

>  <SCORE.INTRA.SOLV.lig_0>
-58.6125

>  <SCORE.INTRA.VDW>
-0.148416

>  <SCORE.INTRA.VDW.0>
-0.432734

>  <SCORE.INTRA.norm>
-0.105638

>  <SCORE.RESTR>
0

>  <SCORE.RESTR.CAVITY>
0

>  <SCORE.RESTR.norm>
0

>  <SCORE.SYSTEM>
0

>  <SCORE.SYSTEM.CONST>
0

>  <SCORE.SYSTEM.DIHEDRAL>
0

>  <SCORE.SYSTEM.SOLV>
0

>  <SCORE.SYSTEM.norm>
0

>  <SCORE.heavy>
16

>  <SCORE.norm>
-0.675761

>  <RMSD>
3.457

$$$$
ligand
 OpenBabel11021811463D
libRbt.so/2013.1/901 2013/11/27
 16 16  0  0  0  0  0  0  0  0999 V2000
   50.5113    8.7210   12.4012 P   0  0  2  0  0  0  0  0  0  0  0  0
   50.3341    7.2532   12.2774 O   0  0  0  0  0  0  0  0  0  0  0  0
   50.5469    9.3834   10.9354 O   0  5  0  0  0  0  0  0  0  0  0  0
   51.9113    9.0199   13.1431 O   0  0  0  0  0  0  0  0  0  0  0  0
   45.8990   11.7128   14.2703 C   0  0  2  0  0  0  0  0  0  0  0  0
   46.0551   13.1350   14.3395 O   0  0  0  0  0  0  0  0  0  0  0  0
   45.8262   11.1000   15.6927 C   0  0  2  0  0  0  0  0  0  0  0  0
   44.6977   11.6941   16.4346 N   0  0  0  0  0  0  0  0  0  0  0  0
   47.1481   11.3945   16.4216 C   0  0  1  0  0  0  0  0  0  0  0  0
   47.1238   10.8270   17.7341 O   0  0  0  0  0  0  0  0  0  0  0  0
   48.2804   10.7627   15.6138 C   0  0  2  0  0  0  0  0  0  0  0  0
   49.5141   11.0256   16.2700 O   0  0  0  0  0  0  0  0  0  0  0  0
   48.2887   11.3883   14.1922 C   0  0  2  0  0  0  0  0  0  0  0  0
   47.0151   11.1403   13.5215 O   0  0  0  0  0  0  0  0  0  0  0  0
   49.4187   10.7723   13.3306 C   0  0  0  0  0  0  0  0  0  0  0  0
   49.2801    9.3418   13.2523 O   0  0  0  0  0  0  0  0  0  0  0  0
  1  2  1  6  0  0  0
  1  3  1  0  0  0  0
  1  4  2  0  0  0  0
  1 16  1  0  0  0  0
  5  6  1  1  0  0  0
  5  7  1  0  0  0  0
  5 14  1  0  0  0  0
  7  8  1  1  0  0  0
  7  9  1  0  0  0  0
  9 10  1  1  0  0  0
  9 11  1  0  0  0  0
 11 12  1  1  0  0  0
 11 13  1  0  0  0  0
 13 14  1  0  0  0  0
 13 15  1  6  0  0  0
 15 16  1  0  0  0  0
M  CHG  1   3  -1
M  END
>  <CHROM.1>
56.99533783,-177.49691694,-177.73936230,48.46244290,10.37976735,14.18785390
0.61379938,0.56431923,-1.61026054

>  <Name>
ligand

>  <RI>
0

>  <Rbt.Current_Directory>
/home/itssahil/PROJECTS/Mol_Feturizer/New_Systems/rnas/3B4C

>  <Rbt.Executable>
rbdock ($Id: //depot/dev/client3/rdock/2013.1/src/exe/rbdock.cxx#4 $)

>  <Rbt.Library>
libRbt.so (2013.1, Build901 2013/11/27)

>  <Rbt.Parameter_File>
/export/apps/rDock/src/rDock_2013.1_src/data/scripts/dock_solv.prm

>  <Rbt.Receptor>
prm/pocket_docking_6.prm

>  <SCORE>
-10.0511

>  <SCORE.INTER>
-8.58049

>  <SCORE.INTER.CONST>
1

>  <SCORE.INTER.POLAR>
-1.29904

>  <SCORE.INTER.ROT>
3

>  <SCORE.INTER.SOLV>
14.6616

>  <SCORE.INTER.VDW>
-11.8774

>  <SCORE.INTER.norm>
-0.536281

>  <SCORE.INTRA>
-1.47064

>  <SCORE.INTRA.DIHEDRAL>
-2.05775

>  <SCORE.INTRA.DIHEDRAL.0>
2.1318

>  <SCORE.INTRA.POLAR>
0

>  <SCORE.INTRA.POLAR.0>
0

>  <SCORE.INTRA.REPUL>
0

>  <SCORE.INTRA.REPUL.0>
0

>  <SCORE.INTRA.SOLV>
-0.169879

>  <SCORE.INTRA.SOLV.lig_0>
-58.6125

>  <SCORE.INTRA.VDW>
-0.356829

>  <SCORE.INTRA.VDW.0>
-0.432734

>  <SCORE.INTRA.norm>
-0.0919152

>  <SCORE.RESTR>
0

>  <SCORE.RESTR.CAVITY>
0

>  <SCORE.RESTR.norm>
0

>  <SCORE.SYSTEM>
0

>  <SCORE.SYSTEM.CONST>
0

>  <SCORE.SYSTEM.DIHEDRAL>
0

>  <SCORE.SYSTEM.SOLV>
0

>  <SCORE.SYSTEM.norm>
0

>  <SCORE.heavy>
16

>  <SCORE.norm>
-0.628196

>  <RMSD>
3.505

$$$$
ligand
 OpenBabel11021811463D
libRbt.so/2013.1/901 2013/11/27
 16 16  0  0  0  0  0  0  0  0999 V2000
   50.6255    8.7474   12.3352 P   0  0  2  0  0  0  0  0  0  0  0  0
   50.4378    7.2768   12.2777 O   0  0  0  0  0  0  0  0  0  0  0  0
   50.6734    9.3417   10.8408 O   0  5  0  0  0  0  0  0  0  0  0  0
   52.0239    9.0697   13.0702 O   0  0  0  0  0  0  0  0  0  0  0  0
   46.0593   11.9227   14.0461 C   0  0  2  0  0  0  0  0  0  0  0  0
   46.2690   13.3379   14.1181 O   0  0  0  0  0  0  0  0  0  0  0  0
   45.9282   11.3155   15.4667 C   0  0  2  0  0  0  0  0  0  0  0  0
   44.8060   11.9543   16.1805 N   0  0  0  0  0  0  0  0  0  0  0  0
   47.2425   11.5595   16.2273 C   0  0  1  0  0  0  0  0  0  0  0  0
   47.1642   10.9955   17.5392 O   0  0  0  0  0  0  0  0  0  0  0  0
   48.3686   10.8829   15.4477 C   0  0  2  0  0  0  0  0  0  0  0  0
   49.5953   11.0986   16.1335 O   0  0  0  0  0  0  0  0  0  0  0  0
   48.4357   11.5054   14.0263 C   0  0  2  0  0  0  0  0  0  0  0  0
   47.1701   11.3061   13.3250 O   0  0  0  0  0  0  0  0  0  0  0  0
   49.5614   10.8445   13.1929 C   0  0  0  0  0  0  0  0  0  0  0  0
   49.3947    9.4155   13.1504 O   0  0  0  0  0  0  0  0  0  0  0  0
  1  2  1  6  0  0  0
  1  3  1  0  0  0  0
  1  4  2  0  0  0  0
  1 16  1  0  0  0  0
  5  6  1  1  0  0  0
  5  7  1  0  0  0  0
  5 14  1  0  0  0  0
  7  8  1  1  0  0  0
  7  9  1  0  0  0  0
  9 10  1  1  0  0  0
  9 11  1  0  0  0  0
 11 12  1  1  0  0  0
 11 13  1  0  0  0  0
 13 14  1  0  0  0  0
 13 15  1  6  0  0  0
 15 16  1  0  0  0  0
M  CHG  1   3  -1
M  END
>  <CHROM.1>
55.02666392,-177.20607566,-179.17742795,48.58114638,10.48966379,14.04291239
0.57368520,0.60431147,-1.59071611

>  <Name>
ligand

>  <RI>
0

>  <Rbt.Current_Directory>
/home/itssahil/PROJECTS/Mol_Feturizer/New_Systems/rnas/3B4C

>  <Rbt.Executable>
rbdock ($Id: //depot/dev/client3/rdock/2013.1/src/exe/rbdock.cxx#4 $)

>  <Rbt.Library>
libRbt.so (2013.1, Build901 2013/11/27)

>  <Rbt.Parameter_File>
/export/apps/rDock/src/rDock_2013.1_src/data/scripts/dock_solv.prm

>  <Rbt.Receptor>
prm/pocket_docking_6.prm

>  <SCORE>
-10.0129

>  <SCORE.INTER>
-8.58276

>  <SCORE.INTER.CONST>
1

>  <SCORE.INTER.POLAR>
-1.29881

>  <SCORE.INTER.ROT>
3

>  <SCORE.INTER.SOLV>
13.1528

>  <SCORE.INTER.VDW>
-11.3767

>  <SCORE.INTER.norm>
-0.536422

>  <SCORE.INTRA>
-1.43011

>  <SCORE.INTRA.DIHEDRAL>
-2.00217

>  <SCORE.INTRA.DIHEDRAL.0>
2.1318

>  <SCORE.INTRA.POLAR>
0

>  <SCORE.INTRA.POLAR.0>
0

>  <SCORE.INTRA.REPUL>
0

>  <SCORE.INTRA.REPUL.0>
0

>  <SCORE.INTRA.SOLV>
-0.16089

>  <SCORE.INTRA.SOLV.lig_0>
-58.6125

>  <SCORE.INTRA.VDW>
-0.348576

>  <SCORE.INTRA.VDW.0>
-0.432734

>  <SCORE.INTRA.norm>
-0.0893816

>  <SCORE.RESTR>
0

>  <SCORE.RESTR.CAVITY>
0

>  <SCORE.RESTR.norm>
0

>  <SCORE.SYSTEM>
0

>  <SCORE.SYSTEM.CONST>
0

>  <SCORE.SYSTEM.DIHEDRAL>
0

>  <SCORE.SYSTEM.SOLV>
0

>  <SCORE.SYSTEM.norm>
0

>  <SCORE.heavy>
16

>  <SCORE.norm>
-0.625804

>  <RMSD>
3.535

$$$$
ligand
 OpenBabel11021811463D
libRbt.so/2013.1/901 2013/11/27
 16 16  0  0  0  0  0  0  0  0999 V2000
   49.4440    8.7266   11.2142 P   0  0  2  0  0  0  0  0  0  0  0  0
   48.3812    8.6491   10.1818 O   0  0  0  0  0  0  0  0  0  0  0  0
   50.3748   10.0082   10.9317 O   0  5  0  0  0  0  0  0  0  0  0  0
   50.3504    7.3956   11.1352 O   0  0  0  0  0  0  0  0  0  0  0  0
   47.4504    9.8403   16.5175 C   0  0  2  0  0  0  0  0  0  0  0  0
   46.3171    8.9701   16.4177 O   0  0  0  0  0  0  0  0  0  0  0  0
   47.0015   11.2899   16.8359 C   0  0  2  0  0  0  0  0  0  0  0  0
   46.2395   11.3099   18.0991 N   0  0  0  0  0  0  0  0  0  0  0  0
   46.1195   11.7946   15.6815 C   0  0  1  0  0  0  0  0  0  0  0  0
   45.7007   13.1387   15.9331 O   0  0  0  0  0  0  0  0  0  0  0  0
   46.9519   11.7510   14.4012 C   0  0  2  0  0  0  0  0  0  0  0  0
   46.1532   12.2123   13.3189 O   0  0  0  0  0  0  0  0  0  0  0  0
   47.4000   10.2859   14.1467 C   0  0  2  0  0  0  0  0  0  0  0  0
   48.2025    9.7994   15.2658 O   0  0  0  0  0  0  0  0  0  0  0  0
   48.2555   10.1919   12.8592 C   0  0  0  0  0  0  0  0  0  0  0  0
   48.7631    8.8572   12.6787 O   0  0  0  0  0  0  0  0  0  0  0  0
  1  2  1  6  0  0  0
  1  3  1  0  0  0  0
  1  4  2  0  0  0  0
  1 16  1  0  0  0  0
  5  6  1  6  0  0  0
  5  7  1  0  0  0  0
  5 14  1  0  0  0  0
  7  8  1  1  0  0  0
  7  9  1  0  0  0  0
  9 10  1  1  0  0  0
  9 11  1  0  0  0  0
 11 12  1  6  0  0  0
 11 13  1  0  0  0  0
 13 14  1  0  0  0  0
 13 15  1  6  0  0  0
 15 16  1  0  0  0  0
M  CHG  1   3  -1
M  END
>  <CHROM.1>
175.31677883,170.78534216,-75.08990036,47.84706198,10.12169895,13.82409801
-0.51935648,-1.00094707,2.07087724

>  <Name>
ligand

>  <RI>
0

>  <Rbt.Current_Directory>
/home/itssahil/PROJECTS/Mol_Feturizer/New_Systems/rnas/3B4C

>  <Rbt.Executable>
rbdock ($Id: //depot/dev/client3/rdock/2013.1/src/exe/rbdock.cxx#4 $)

>  <Rbt.Library>
libRbt.so (2013.1, Build901 2013/11/27)

>  <Rbt.Parameter_File>
/export/apps/rDock/src/rDock_2013.1_src/data/scripts/dock_solv.prm

>  <Rbt.Receptor>
prm/pocket_docking_6.prm

>  <SCORE>
-9.32136

>  <SCORE.INTER>
-8.21013

>  <SCORE.INTER.CONST>
1

>  <SCORE.INTER.POLAR>
0

>  <SCORE.INTER.ROT>
3

>  <SCORE.INTER.SOLV>
21.912

>  <SCORE.INTER.VDW>
-18.3774

>  <SCORE.INTER.norm>
-0.513133

>  <SCORE.INTRA>
-1.11123

>  <SCORE.INTRA.DIHEDRAL>
-1.28948

>  <SCORE.INTRA.DIHEDRAL.0>
2.1318

>  <SCORE.INTRA.POLAR>
0

>  <SCORE.INTRA.POLAR.0>
0

>  <SCORE.INTRA.REPUL>
0

>  <SCORE.INTRA.REPUL.0>
0

>  <SCORE.INTRA.SOLV>
-0.901499

>  <SCORE.INTRA.SOLV.lig_0>
-58.6125

>  <SCORE.INTRA.VDW>
-0.0157399

>  <SCORE.INTRA.VDW.0>
-0.432734

>  <SCORE.INTRA.norm>
-0.0694519

>  <SCORE.RESTR>
0

>  <SCORE.RESTR.CAVITY>
0

>  <SCORE.RESTR.norm>
0

>  <SCORE.SYSTEM>
0

>  <SCORE.SYSTEM.CONST>
0

>  <SCORE.SYSTEM.DIHEDRAL>
0

>  <SCORE.SYSTEM.SOLV>
0

>  <SCORE.SYSTEM.norm>
0

>  <SCORE.heavy>
16

>  <SCORE.norm>
-0.582585

>  <RMSD>
3.573

$$$$
ligand
 OpenBabel11021811463D
libRbt.so/2013.1/901 2013/11/27
 16 16  0  0  0  0  0  0  0  0999 V2000
   50.4528    9.2401   12.4612 P   0  0  2  0  0  0  0  0  0  0  0  0
   49.4547    8.1945   12.1266 O   0  0  0  0  0  0  0  0  0  0  0  0
   51.3735    9.5350   11.1751 O   0  5  0  0  0  0  0  0  0  0  0  0
   51.3882    8.7077   13.6617 O   0  0  0  0  0  0  0  0  0  0  0  0
   46.3833   13.1076   13.5985 C   0  0  2  0  0  0  0  0  0  0  0  0
   47.2457   14.2307   13.8147 O   0  0  0  0  0  0  0  0  0  0  0  0
   45.4764   12.8679   14.8330 C   0  0  2  0  0  0  0  0  0  0  0  0
   44.6719   14.0748   15.1027 N   0  0  0  0  0  0  0  0  0  0  0  0
   46.3701   12.5501   16.0436 C   0  0  1  0  0  0  0  0  0  0  0  0
   45.5646   12.3049   17.1995 O   0  0  0  0  0  0  0  0  0  0  0  0
   47.1813   11.2986   15.7125 C   0  0  2  0  0  0  0  0  0  0  0  0
   48.0178   10.9879   16.8196 O   0  0  0  0  0  0  0  0  0  0  0  0
   48.0460   11.5826   14.4540 C   0  0  2  0  0  0  0  0  0  0  0  0
   47.1927   11.9240   13.3188 O   0  0  0  0  0  0  0  0  0  0  0  0
   48.8836   10.3366   14.0738 C   0  0  0  0  0  0  0  0  0  0  0  0
   49.6840   10.5953   12.9059 O   0  0  0  0  0  0  0  0  0  0  0  0
  1  2  1  6  0  0  0
  1  3  1  0  0  0  0
  1  4  2  0  0  0  0
  1 16  1  0  0  0  0
  5  6  1  1  0  0  0
  5  7  1  0  0  0  0
  5 14  1  0  0  0  0
  7  8  1  1  0  0  0
  7  9  1  0  0  0  0
  9 10  1  1  0  0  0
  9 11  1  0  0  0  0
 11 12  1  1  0  0  0
 11 13  1  0  0  0  0
 13 14  1  0  0  0  0
 13 15  1  6  0  0  0
 15 16  1  0  0  0  0
M  CHG  1   3  -1
M  END
>  <CHROM.1>
179.86762543,-175.33333654,61.08984846,48.20351474,11.15208931,14.05394306
0.17676169,0.79712243,-1.14358407

>  <Name>
ligand

>  <RI>
0

>  <Rbt.Current_Directory>
/home/itssahil/PROJECTS/Mol_Feturizer/New_Systems/rnas/3B4C

>  <Rbt.Executable>
rbdock ($Id: //depot/dev/client3/rdock/2013.1/src/exe/rbdock.cxx#4 $)

>  <Rbt.Library>
libRbt.so (2013.1, Build901 2013/11/27)

>  <Rbt.Parameter_File>
/export/apps/rDock/src/rDock_2013.1_src/data/scripts/dock_solv.prm

>  <Rbt.Receptor>
prm/pocket_docking_8.prm

>  <SCORE>
-10.0093

>  <SCORE.INTER>
-8.34779

>  <SCORE.INTER.CONST>
1

>  <SCORE.INTER.POLAR>
-1.29833

>  <SCORE.INTER.ROT>
3

>  <SCORE.INTER.SOLV>
13.4708

>  <SCORE.INTER.VDW>
-11.3277

>  <SCORE.INTER.norm>
-0.521737

>  <SCORE.INTRA>
-1.66153

>  <SCORE.INTRA.DIHEDRAL>
-2.02004

>  <SCORE.INTRA.DIHEDRAL.0>
2.1318

>  <SCORE.INTRA.POLAR>
0

>  <SCORE.INTRA.POLAR.0>
0

>  <SCORE.INTRA.REPUL>
0

>  <SCORE.INTRA.REPUL.0>
0

>  <SCORE.INTRA.SOLV>
-1.00367

>  <SCORE.INTRA.SOLV.lig_0>
-58.6125

>  <SCORE.INTRA.VDW>
-0.149682

>  <SCORE.INTRA.VDW.0>
-0.432734

>  <SCORE.INTRA.norm>
-0.103846

>  <SCORE.RESTR>
0

>  <SCORE.RESTR.CAVITY>
0

>  <SCORE.RESTR.norm>
0

>  <SCORE.SYSTEM>
0

>  <SCORE.SYSTEM.CONST>
0

>  <SCORE.SYSTEM.DIHEDRAL>
0

>  <SCORE.SYSTEM.SOLV>
0

>  <SCORE.SYSTEM.norm>
0

>  <SCORE.heavy>
16

>  <SCORE.norm>
-0.625583

>  <RMSD>
3.634

$$$$
ligand
 OpenBabel11021811463D
libRbt.so/2013.1/901 2013/11/27
 16 16  0  0  0  0  0  0  0  0999 V2000
   51.2414    8.8824   11.7282 P   0  0  2  0  0  0  0  0  0  0  0  0
   51.7431    9.0765   10.3455 O   0  0  0  0  0  0  0  0  0  0  0  0
   52.4827    8.8585   12.7517 O   0  5  0  0  0  0  0  0  0  0  0  0
   50.4681    7.4702   11.8127 O   0  0  0  0  0  0  0  0  0  0  0  0
   46.7250   12.1497   13.1575 C   0  0  2  0  0  0  0  0  0  0  0  0
   47.3967   13.4117   13.0679 O   0  0  0  0  0  0  0  0  0  0  0  0
   46.1077   11.9566   14.5666 C   0  0  2  0  0  0  0  0  0  0  0  0
   45.1603   13.0515   14.8503 N   0  0  0  0  0  0  0  0  0  0  0  0
   47.2430   11.9614   15.6041 C   0  0  1  0  0  0  0  0  0  0  0  0
   46.7110   11.7672   16.9172 O   0  0  0  0  0  0  0  0  0  0  0  0
   48.1940   10.8151   15.2644 C   0  0  2  0  0  0  0  0  0  0  0  0
   49.2544   10.8028   16.2117 O   0  0  0  0  0  0  0  0  0  0  0  0
   48.7583   11.0413   13.8353 C   0  0  2  0  0  0  0  0  0  0  0  0
   47.6711   11.0770   12.8605 O   0  0  0  0  0  0  0  0  0  0  0  0
   49.7252    9.8972   13.4419 C   0  0  0  0  0  0  0  0  0  0  0  0
   50.2391   10.0963   12.1123 O   0  0  0  0  0  0  0  0  0  0  0  0
  1  2  1  6  0  0  0
  1  3  1  0  0  0  0
  1  4  2  0  0  0  0
  1 16  1  0  0  0  0
  5  6  1  1  0  0  0
  5  7  1  0  0  0  0
  5 14  1  0  0  0  0
  7  8  1  1  0  0  0
  7  9  1  0  0  0  0
  9 10  1  1  0  0  0
  9 11  1  0  0  0  0
 11 12  1  1  0  0  0
 11 13  1  0  0  0  0
 13 14  1  0  0  0  0
 13 15  1  6  0  0  0
 15 16  1  0  0  0  0
M  CHG  1   3  -1
M  END
>  <CHROM.1>
179.38788029,-179.78974533,178.69136266,48.94242944,10.59821686,13.48669877
0.46617093,0.67237008,-1.47780101

>  <Name>
ligand

>  <RI>
0

>  <Rbt.Current_Directory>
/home/itssahil/PROJECTS/Mol_Feturizer/New_Systems/rnas/3B4C

>  <Rbt.Executable>
rbdock ($Id: //depot/dev/client3/rdock/2013.1/src/exe/rbdock.cxx#4 $)

>  <Rbt.Library>
libRbt.so (2013.1, Build901 2013/11/27)

>  <Rbt.Parameter_File>
/export/apps/rDock/src/rDock_2013.1_src/data/scripts/dock_solv.prm

>  <Rbt.Receptor>
prm/pocket_docking_7.prm

>  <SCORE>
-8.95902

>  <SCORE.INTER>
-7.48289

>  <SCORE.INTER.CONST>
1

>  <SCORE.INTER.POLAR>
-1.29904

>  <SCORE.INTER.ROT>
3

>  <SCORE.INTER.SOLV>
12.1449

>  <SCORE.INTER.VDW>
-10.3068

>  <SCORE.INTER.norm>
-0.467681

>  <SCORE.INTRA>
-1.47613

>  <SCORE.INTRA.DIHEDRAL>
-2.12546

>  <SCORE.INTRA.DIHEDRAL.0>
2.1318

>  <SCORE.INTRA.POLAR>
0

>  <SCORE.INTRA.POLAR.0>
0

>  <SCORE.INTRA.REPUL>
0

>  <SCORE.INTRA.REPUL.0>
0

>  <SCORE.INTRA.SOLV>
-0.372383

>  <SCORE.INTRA.SOLV.lig_0>
-58.6125

>  <SCORE.INTRA.VDW>
-0.227205

>  <SCORE.INTRA.VDW.0>
-0.432734

>  <SCORE.INTRA.norm>
-0.092258

>  <SCORE.RESTR>
0

>  <SCORE.RESTR.CAVITY>
0

>  <SCORE.RESTR.norm>
0

>  <SCORE.SYSTEM>
0

>  <SCORE.SYSTEM.CONST>
0

>  <SCORE.SYSTEM.DIHEDRAL>
0

>  <SCORE.SYSTEM.SOLV>
0

>  <SCORE.SYSTEM.norm>
0

>  <SCORE.heavy>
16

>  <SCORE.norm>
-0.559939

>  <RMSD>
3.705

$$$$
ligand
 OpenBabel11021811463D
libRbt.so/2013.1/901 2013/11/27
 16 16  0  0  0  0  0  0  0  0999 V2000
   50.7903    8.2105   12.2901 P   0  0  2  0  0  0  0  0  0  0  0  0
   50.6766    6.7515   12.5346 O   0  0  0  0  0  0  0  0  0  0  0  0
   50.7433    8.4951   10.7072 O   0  5  0  0  0  0  0  0  0  0  0  0
   52.2004    8.7319   12.8725 O   0  0  0  0  0  0  0  0  0  0  0  0
   46.3431   11.6071   13.8314 C   0  0  2  0  0  0  0  0  0  0  0  0
   46.5808   13.0190   13.7866 O   0  0  0  0  0  0  0  0  0  0  0  0
   46.2186   11.1190   15.2978 C   0  0  2  0  0  0  0  0  0  0  0  0
   45.1182   11.8356   15.9704 N   0  0  0  0  0  0  0  0  0  0  0  0
   47.5470   11.3968   16.0213 C   0  0  1  0  0  0  0  0  0  0  0  0
   47.4749   10.9418   17.3752 O   0  0  0  0  0  0  0  0  0  0  0  0
   48.6498   10.6370   15.2861 C   0  0  2  0  0  0  0  0  0  0  0  0
   49.8892   10.8823   15.9385 O   0  0  0  0  0  0  0  0  0  0  0  0
   48.7106   11.1416   13.8186 C   0  0  2  0  0  0  0  0  0  0  0  0
   47.4324   10.9121   13.1500 O   0  0  0  0  0  0  0  0  0  0  0  0
   49.8125   10.3932   13.0285 C   0  0  0  0  0  0  0  0  0  0  0  0
   49.5627    8.9758   13.0202 O   0  0  0  0  0  0  0  0  0  0  0  0
  1  2  1  1  0  0  0
  1  3  1  0  0  0  0
  1  4  2  0  0  0  0
  1 16  1  0  0  0  0
  5  6  1  1  0  0  0
  5  7  1  0  0  0  0
  5 14  1  0  0  0  0
  7  8  1  1  0  0  0
  7  9  1  0  0  0  0
  9 10  1  1  0  0  0
  9 11  1  0  0  0  0
 11 12  1  1  0  0  0
 11 13  1  0  0  0  0
 13 14  1  0  0  0  0
 13 15  1  6  0  0  0
 15 16  1  0  0  0  0
M  CHG  1   3  -1
M  END
>  <CHROM.1>
59.28429286,-175.52031347,168.05353098,48.82306263,10.12685196,13.89909908
0.60692329,0.62087761,-1.69211269

>  <Name>
ligand

>  <RI>
0

>  <Rbt.Current_Directory>
/home/itssahil/PROJECTS/Mol_Feturizer/New_Systems/rnas/3B4C

>  <Rbt.Executable>
rbdock ($Id: //depot/dev/client3/rdock/2013.1/src/exe/rbdock.cxx#4 $)

>  <Rbt.Library>
libRbt.so (2013.1, Build901 2013/11/27)

>  <Rbt.Parameter_File>
/export/apps/rDock/src/rDock_2013.1_src/data/scripts/dock_solv.prm

>  <Rbt.Receptor>
prm/pocket_docking_8.prm

>  <SCORE>
-10.0681

>  <SCORE.INTER>
-8.75297

>  <SCORE.INTER.CONST>
1

>  <SCORE.INTER.POLAR>
-1.29849

>  <SCORE.INTER.ROT>
3

>  <SCORE.INTER.SOLV>
12.6075

>  <SCORE.INTER.VDW>
-11.3095

>  <SCORE.INTER.norm>
-0.547061

>  <SCORE.INTRA>
-1.31515

>  <SCORE.INTRA.DIHEDRAL>
-1.80516

>  <SCORE.INTRA.DIHEDRAL.0>
2.1318

>  <SCORE.INTRA.POLAR>
0

>  <SCORE.INTRA.POLAR.0>
0

>  <SCORE.INTRA.REPUL>
0

>  <SCORE.INTRA.REPUL.0>
0

>  <SCORE.INTRA.SOLV>
-0.168699

>  <SCORE.INTRA.SOLV.lig_0>
-58.6125

>  <SCORE.INTRA.VDW>
-0.328215

>  <SCORE.INTRA.VDW.0>
-0.432734

>  <SCORE.INTRA.norm>
-0.0821966

>  <SCORE.RESTR>
0

>  <SCORE.RESTR.CAVITY>
0

>  <SCORE.RESTR.norm>
0

>  <SCORE.SYSTEM>
0

>  <SCORE.SYSTEM.CONST>
0

>  <SCORE.SYSTEM.DIHEDRAL>
0

>  <SCORE.SYSTEM.SOLV>
0

>  <SCORE.SYSTEM.norm>
0

>  <SCORE.heavy>
16

>  <SCORE.norm>
-0.629257

>  <RMSD>
3.710

$$$$
ligand
 OpenBabel11021811463D
libRbt.so/2013.1/901 2013/11/27
 16 16  0  0  0  0  0  0  0  0999 V2000
   51.2410    8.7943   11.6759 P   0  0  2  0  0  0  0  0  0  0  0  0
   50.5483    7.4827   11.6409 O   0  0  0  0  0  0  0  0  0  0  0  0
   51.8537    9.1171   10.2235 O   0  5  0  0  0  0  0  0  0  0  0  0
   52.4447    8.7238   12.7462 O   0  0  0  0  0  0  0  0  0  0  0  0
   46.5691   11.6989   13.3679 C   0  0  2  0  0  0  0  0  0  0  0  0
   47.0884   13.0097   13.1155 O   0  0  0  0  0  0  0  0  0  0  0  0
   46.1260   11.5608   14.8473 C   0  0  2  0  0  0  0  0  0  0  0  0
   45.1013   12.5759   15.1578 N   0  0  0  0  0  0  0  0  0  0  0  0
   47.3560   11.7625   15.7483 C   0  0  1  0  0  0  0  0  0  0  0  0
   46.9874   11.6239   17.1231 O   0  0  0  0  0  0  0  0  0  0  0  0
   48.3840   10.6922   15.3856 C   0  0  2  0  0  0  0  0  0  0  0  0
   49.5323   10.8621   16.2068 O   0  0  0  0  0  0  0  0  0  0  0  0
   48.7690   10.8563   13.8899 C   0  0  2  0  0  0  0  0  0  0  0  0
   47.5888   10.7046   13.0428 O   0  0  0  0  0  0  0  0  0  0  0  0
   49.8069    9.7854   13.4721 C   0  0  0  0  0  0  0  0  0  0  0  0
   50.1845    9.9499   12.0930 O   0  0  0  0  0  0  0  0  0  0  0  0
  1  2  1  6  0  0  0
  1  3  1  0  0  0  0
  1  4  2  0  0  0  0
  1 16  1  0  0  0  0
  5  6  1  1  0  0  0
  5  7  1  0  0  0  0
  5 14  1  0  0  0  0
  7  8  1  1  0  0  0
  7  9  1  0  0  0  0
  9 10  1  1  0  0  0
  9 11  1  0  0  0  0
 11 12  1  1  0  0  0
 11 13  1  0  0  0  0
 13 14  1  0  0  0  0
 13 15  1  6  0  0  0
 15 16  1  0  0  0  0
M  CHG  1   3  -1
M  END
>  <CHROM.1>
-178.93599257,-178.58012358,69.39305709,48.96936380,10.41589838,13.54805324
0.60045625,0.56796824,-1.62405178

>  <Name>
ligand

>  <RI>
0

>  <Rbt.Current_Directory>
/home/itssahil/PROJECTS/Mol_Feturizer/New_Systems/rnas/3B4C

>  <Rbt.Executable>
rbdock ($Id: //depot/dev/client3/rdock/2013.1/src/exe/rbdock.cxx#4 $)

>  <Rbt.Library>
libRbt.so (2013.1, Build901 2013/11/27)

>  <Rbt.Parameter_File>
/export/apps/rDock/src/rDock_2013.1_src/data/scripts/dock_solv.prm

>  <Rbt.Receptor>
prm/pocket_docking_8.prm

>  <SCORE>
-9.18811

>  <SCORE.INTER>
-7.61669

>  <SCORE.INTER.CONST>
1

>  <SCORE.INTER.POLAR>
-1.29904

>  <SCORE.INTER.ROT>
3

>  <SCORE.INTER.SOLV>
12.8852

>  <SCORE.INTER.VDW>
-10.6427

>  <SCORE.INTER.norm>
-0.476043

>  <SCORE.INTRA>
-1.57142

>  <SCORE.INTRA.DIHEDRAL>
-1.96999

>  <SCORE.INTRA.DIHEDRAL.0>
2.1318

>  <SCORE.INTRA.POLAR>
0

>  <SCORE.INTRA.POLAR.0>
0

>  <SCORE.INTRA.REPUL>
0

>  <SCORE.INTRA.REPUL.0>
0

>  <SCORE.INTRA.SOLV>
-0.929772

>  <SCORE.INTRA.SOLV.lig_0>
-58.6125

>  <SCORE.INTRA.VDW>
-0.121539

>  <SCORE.INTRA.VDW.0>
-0.432734

>  <SCORE.INTRA.norm>
-0.0982138

>  <SCORE.RESTR>
0

>  <SCORE.RESTR.CAVITY>
0

>  <SCORE.RESTR.norm>
0

>  <SCORE.SYSTEM>
0

>  <SCORE.SYSTEM.CONST>
0

>  <SCORE.SYSTEM.DIHEDRAL>
0

>  <SCORE.SYSTEM.SOLV>
0

>  <SCORE.SYSTEM.norm>
0

>  <SCORE.heavy>
16

>  <SCORE.norm>
-0.574257

>  <RMSD>
3.739

$$$$
ligand
 OpenBabel11021811463D
libRbt.so/2013.1/901 2013/11/27
 16 16  0  0  0  0  0  0  0  0999 V2000
   49.1321    8.8374   11.3259 P   0  0  2  0  0  0  0  0  0  0  0  0
   48.3359    8.1393   10.2867 O   0  0  0  0  0  0  0  0  0  0  0  0
   50.1008    9.9152   10.6267 O   0  5  0  0  0  0  0  0  0  0  0  0
   50.0347    7.7560   12.1103 O   0  0  0  0  0  0  0  0  0  0  0  0
   45.8432   12.3260   14.4694 C   0  0  2  0  0  0  0  0  0  0  0  0
   46.4845   13.4892   15.0057 O   0  0  0  0  0  0  0  0  0  0  0  0
   45.4265   11.3573   15.6061 C   0  0  2  0  0  0  0  0  0  0  0  0
   44.5167   12.0471   16.5407 N   0  0  0  0  0  0  0  0  0  0  0  0
   46.6931   10.8980   16.3478 C   0  0  1  0  0  0  0  0  0  0  0  0
   46.3478    9.9869   17.3945 O   0  0  0  0  0  0  0  0  0  0  0  0
   47.5993   10.1953   15.3384 C   0  0  2  0  0  0  0  0  0  0  0  0
   48.7795    9.7640   16.0039 O   0  0  0  0  0  0  0  0  0  0  0  0
   47.9604   11.1983   14.2089 C   0  0  2  0  0  0  0  0  0  0  0  0
   46.7498   11.6619   13.5360 O   0  0  0  0  0  0  0  0  0  0  0  0
   48.8750   10.5276   13.1542 C   0  0  0  0  0  0  0  0  0  0  0  0
   48.1319    9.5883   12.3561 O   0  0  0  0  0  0  0  0  0  0  0  0
  1  2  1  6  0  0  0
  1  3  1  0  0  0  0
  1  4  2  0  0  0  0
  1 16  1  0  0  0  0
  5  6  1  1  0  0  0
  5  7  1  0  0  0  0
  5 14  1  0  0  0  0
  7  8  1  1  0  0  0
  7  9  1  0  0  0  0
  9 10  1  1  0  0  0
  9 11  1  0  0  0  0
 11 12  1  1  0  0  0
 11 13  1  0  0  0  0
 13 14  1  0  0  0  0
 13 15  1  6  0  0  0
 15 16  1  0  0  0  0
M  CHG  1   3  -1
M  END
>  <CHROM.1>
72.45444452,-176.51026584,-165.72841211,47.72097780,10.32788825,13.77686059
0.57139444,0.92049561,-1.20934260

>  <Name>
ligand

>  <RI>
0

>  <Rbt.Current_Directory>
/home/itssahil/PROJECTS/Mol_Feturizer/New_Systems/rnas/3B4C

>  <Rbt.Executable>
rbdock ($Id: //depot/dev/client3/rdock/2013.1/src/exe/rbdock.cxx#4 $)

>  <Rbt.Library>
libRbt.so (2013.1, Build901 2013/11/27)

>  <Rbt.Parameter_File>
/export/apps/rDock/src/rDock_2013.1_src/data/scripts/dock_solv.prm

>  <Rbt.Receptor>
prm/pocket_docking_8.prm

>  <SCORE>
-8.47461

>  <SCORE.INTER>
-7.54364

>  <SCORE.INTER.CONST>
1

>  <SCORE.INTER.POLAR>
0

>  <SCORE.INTER.ROT>
3

>  <SCORE.INTER.SOLV>
17.1366

>  <SCORE.INTER.VDW>
-16.3413

>  <SCORE.INTER.norm>
-0.471477

>  <SCORE.INTRA>
-0.93097

>  <SCORE.INTRA.DIHEDRAL>
-1.20073

>  <SCORE.INTRA.DIHEDRAL.0>
2.1318

>  <SCORE.INTRA.POLAR>
0

>  <SCORE.INTRA.POLAR.0>
0

>  <SCORE.INTRA.REPUL>
0

>  <SCORE.INTRA.REPUL.0>
0

>  <SCORE.INTRA.SOLV>
-0.189288

>  <SCORE.INTRA.SOLV.lig_0>
-58.6125

>  <SCORE.INTRA.VDW>
-0.23596

>  <SCORE.INTRA.VDW.0>
-0.432734

>  <SCORE.INTRA.norm>
-0.0581856

>  <SCORE.RESTR>
0

>  <SCORE.RESTR.CAVITY>
0

>  <SCORE.RESTR.norm>
0

>  <SCORE.SYSTEM>
0

>  <SCORE.SYSTEM.CONST>
0

>  <SCORE.SYSTEM.DIHEDRAL>
0

>  <SCORE.SYSTEM.SOLV>
0

>  <SCORE.SYSTEM.norm>
0

>  <SCORE.heavy>
16

>  <SCORE.norm>
-0.529663

>  <RMSD>
4.075

$$$$
ligand
 OpenBabel11021811463D
libRbt.so/2013.1/901 2013/11/27
 16 16  0  0  0  0  0  0  0  0999 V2000
   49.2121    8.7862   11.3141 P   0  0  2  0  0  0  0  0  0  0  0  0
   48.4430    8.0393   10.2885 O   0  0  0  0  0  0  0  0  0  0  0  0
   50.1210    9.9031   10.5963 O   0  5  0  0  0  0  0  0  0  0  0  0
   50.1730    7.7583   12.1012 O   0  0  0  0  0  0  0  0  0  0  0  0
   45.7865   12.2385   14.2944 C   0  0  2  0  0  0  0  0  0  0  0  0
   46.3852   13.4428   14.7873 O   0  0  0  0  0  0  0  0  0  0  0  0
   45.3597   11.3190   15.4677 C   0  0  2  0  0  0  0  0  0  0  0  0
   44.4080   12.0330   16.3402 N   0  0  0  0  0  0  0  0  0  0  0  0
   46.6149   10.9291   16.2664 C   0  0  1  0  0  0  0  0  0  0  0  0
   46.2607   10.0642   17.3489 O   0  0  0  0  0  0  0  0  0  0  0  0
   47.5654   10.1983   15.3198 C   0  0  2  0  0  0  0  0  0  0  0  0
   48.7357    9.8303   16.0387 O   0  0  0  0  0  0  0  0  0  0  0  0
   47.9356   11.1510   14.1504 C   0  0  2  0  0  0  0  0  0  0  0  0
   46.7343   11.5500   13.4216 O   0  0  0  0  0  0  0  0  0  0  0  0
   48.8951   10.4500   13.1571 C   0  0  0  0  0  0  0  0  0  0  0  0
   48.1844    9.4973   12.3454 O   0  0  0  0  0  0  0  0  0  0  0  0
  1  2  1  6  0  0  0
  1  3  1  0  0  0  0
  1  4  2  0  0  0  0
  1 16  1  0  0  0  0
  5  6  1  1  0  0  0
  5  7  1  0  0  0  0
  5 14  1  0  0  0  0
  7  8  1  1  0  0  0
  7  9  1  0  0  0  0
  9 10  1  1  0  0  0
  9 11  1  0  0  0  0
 11 12  1  1  0  0  0
 11 13  1  0  0  0  0
 13 14  1  0  0  0  0
 13 15  1  6  0  0  0
 15 16  1  0  0  0  0
M  CHG  1   3  -1
M  END
>  <CHROM.1>
75.12487581,179.76632764,-167.52708824,47.71703912,10.29566333,13.71517826
0.58571591,0.87785912,-1.25509172

>  <Name>
ligand

>  <RI>
0

>  <Rbt.Current_Directory>
/home/itssahil/PROJECTS/Mol_Feturizer/New_Systems/rnas/3B4C

>  <Rbt.Executable>
rbdock ($Id: //depot/dev/client3/rdock/2013.1/src/exe/rbdock.cxx#4 $)

>  <Rbt.Library>
libRbt.so (2013.1, Build901 2013/11/27)

>  <Rbt.Parameter_File>
/export/apps/rDock/src/rDock_2013.1_src/data/scripts/dock_solv.prm

>  <Rbt.Receptor>
prm/pocket_docking_8.prm

>  <SCORE>
-8.50068

>  <SCORE.INTER>
-7.63004

>  <SCORE.INTER.CONST>
1

>  <SCORE.INTER.POLAR>
0

>  <SCORE.INTER.ROT>
3

>  <SCORE.INTER.SOLV>
16.3979

>  <SCORE.INTER.VDW>
-16.1527

>  <SCORE.INTER.norm>
-0.476878

>  <SCORE.INTRA>
-0.870635

>  <SCORE.INTRA.DIHEDRAL>
-1.08939

>  <SCORE.INTRA.DIHEDRAL.0>
2.1318

>  <SCORE.INTRA.POLAR>
0

>  <SCORE.INTRA.POLAR.0>
0

>  <SCORE.INTRA.REPUL>
0

>  <SCORE.INTRA.REPUL.0>
0

>  <SCORE.INTRA.SOLV>
-0.199415

>  <SCORE.INTRA.SOLV.lig_0>
-58.6125

>  <SCORE.INTRA.VDW>
-0.22623

>  <SCORE.INTRA.VDW.0>
-0.432734

>  <SCORE.INTRA.norm>
-0.0544147

>  <SCORE.RESTR>
0

>  <SCORE.RESTR.CAVITY>
0

>  <SCORE.RESTR.norm>
0

>  <SCORE.SYSTEM>
0

>  <SCORE.SYSTEM.CONST>
0

>  <SCORE.SYSTEM.DIHEDRAL>
0

>  <SCORE.SYSTEM.SOLV>
0

>  <SCORE.SYSTEM.norm>
0

>  <SCORE.heavy>
16

>  <SCORE.norm>
-0.531292

>  <RMSD>
4.080

$$$$
ligand
 OpenBabel11021811463D
libRbt.so/2013.1/901 2013/11/27
 16 16  0  0  0  0  0  0  0  0999 V2000
   49.2455    8.9235   11.2910 P   0  0  2  0  0  0  0  0  0  0  0  0
   48.0905    8.2619   10.6355 O   0  0  0  0  0  0  0  0  0  0  0  0
   50.2527    9.4827   10.1679 O   0  5  0  0  0  0  0  0  0  0  0  0
   50.0241    7.8419   12.1985 O   0  0  0  0  0  0  0  0  0  0  0  0
   45.9374   12.4877   14.5063 C   0  0  2  0  0  0  0  0  0  0  0  0
   46.9274   13.5209   14.5718 O   0  0  0  0  0  0  0  0  0  0  0  0
   45.5534   12.0064   15.9293 C   0  0  2  0  0  0  0  0  0  0  0  0
   45.0424   13.1428   16.7193 N   0  0  0  0  0  0  0  0  0  0  0  0
   46.8050   11.4184   16.6024 C   0  0  1  0  0  0  0  0  0  0  0  0
   46.4834   10.9466   17.9136 O   0  0  0  0  0  0  0  0  0  0  0  0
   47.2941   10.2515   15.7463 C   0  0  2  0  0  0  0  0  0  0  0  0
   48.4542    9.6939   16.3504 O   0  0  0  0  0  0  0  0  0  0  0  0
   47.6347   10.7821   14.3269 C   0  0  2  0  0  0  0  0  0  0  0  0
   46.4515   11.3761   13.7100 O   0  0  0  0  0  0  0  0  0  0  0  0
   48.1297    9.6306   13.4172 C   0  0  0  0  0  0  0  0  0  0  0  0
   48.7142   10.1490   12.2084 O   0  0  0  0  0  0  0  0  0  0  0  0
  1  2  1  6  0  0  0
  1  3  1  0  0  0  0
  1  4  2  0  0  0  0
  1 16  1  0  0  0  0
  5  6  1  1  0  0  0
  5  7  1  0  0  0  0
  5 14  1  0  0  0  0
  7  8  1  1  0  0  0
  7  9  1  0  0  0  0
  9 10  1  1  0  0  0
  9 11  1  0  0  0  0
 11 12  1  1  0  0  0
 11 13  1  0  0  0  0
 13 14  1  0  0  0  0
 13 15  1  6  0  0  0
 15 16  1  0  0  0  0
M  CHG  1   3  -1
M  END
>  <CHROM.1>
-167.61858375,178.99745143,75.84252252,47.73474384,10.46130667,13.88370671
0.64688378,0.95138584,-1.30074484

>  <Name>
ligand

>  <RI>
0

>  <Rbt.Current_Directory>
/home/itssahil/PROJECTS/Mol_Feturizer/New_Systems/rnas/3B4C

>  <Rbt.Executable>
rbdock ($Id: //depot/dev/client3/rdock/2013.1/src/exe/rbdock.cxx#4 $)

>  <Rbt.Library>
libRbt.so (2013.1, Build901 2013/11/27)

>  <Rbt.Parameter_File>
/export/apps/rDock/src/rDock_2013.1_src/data/scripts/dock_solv.prm

>  <Rbt.Receptor>
prm/pocket_docking_6.prm

>  <SCORE>
-8.80518

>  <SCORE.INTER>
-7.68941

>  <SCORE.INTER.CONST>
1

>  <SCORE.INTER.POLAR>
0

>  <SCORE.INTER.ROT>
3

>  <SCORE.INTER.SOLV>
20.354

>  <SCORE.INTER.VDW>
-17.5109

>  <SCORE.INTER.norm>
-0.480588

>  <SCORE.INTRA>
-1.11577

>  <SCORE.INTRA.DIHEDRAL>
-1.19152

>  <SCORE.INTRA.DIHEDRAL.0>
2.1318

>  <SCORE.INTRA.POLAR>
0

>  <SCORE.INTRA.POLAR.0>
0

>  <SCORE.INTRA.REPUL>
0

>  <SCORE.INTRA.REPUL.0>
0

>  <SCORE.INTRA.SOLV>
-0.905553

>  <SCORE.INTRA.SOLV.lig_0>
-58.6125

>  <SCORE.INTRA.VDW>
-0.0672343

>  <SCORE.INTRA.VDW.0>
-0.432734

>  <SCORE.INTRA.norm>
-0.0697357

>  <SCORE.RESTR>
0

>  <SCORE.RESTR.CAVITY>
0

>  <SCORE.RESTR.norm>
0

>  <SCORE.SYSTEM>
0

>  <SCORE.SYSTEM.CONST>
0

>  <SCORE.SYSTEM.DIHEDRAL>
0

>  <SCORE.SYSTEM.SOLV>
0

>  <SCORE.SYSTEM.norm>
0

>  <SCORE.heavy>
16

>  <SCORE.norm>
-0.550324

>  <RMSD>
4.114

$$$$
ligand
 OpenBabel11021811463D
libRbt.so/2013.1/901 2013/11/27
 16 16  0  0  0  0  0  0  0  0999 V2000
   49.2541    8.9174   11.2986 P   0  0  2  0  0  0  0  0  0  0  0  0
   48.0849    8.3068   10.6193 O   0  0  0  0  0  0  0  0  0  0  0  0
   50.2969    9.4523   10.1962 O   0  5  0  0  0  0  0  0  0  0  0  0
   49.9796    7.7971   12.2031 O   0  0  0  0  0  0  0  0  0  0  0  0
   45.9695   12.5290   14.4740 C   0  0  2  0  0  0  0  0  0  0  0  0
   46.9737   13.5471   14.5572 O   0  0  0  0  0  0  0  0  0  0  0  0
   45.5543   12.0522   15.8897 C   0  0  2  0  0  0  0  0  0  0  0  0
   45.0474   13.1956   16.6724 N   0  0  0  0  0  0  0  0  0  0  0  0
   46.7855   11.4448   16.5830 C   0  0  1  0  0  0  0  0  0  0  0  0
   46.4348   10.9767   17.8881 O   0  0  0  0  0  0  0  0  0  0  0  0
   47.2711   10.2714   15.7338 C   0  0  2  0  0  0  0  0  0  0  0  0
   48.4124    9.6957   16.3568 O   0  0  0  0  0  0  0  0  0  0  0  0
   47.6436   10.7981   14.3210 C   0  0  2  0  0  0  0  0  0  0  0  0
   46.4800   11.4105   13.6851 O   0  0  0  0  0  0  0  0  0  0  0  0
   48.1363    9.6400   13.4184 C   0  0  0  0  0  0  0  0  0  0  0  0
   48.7554   10.1507   12.2237 O   0  0  0  0  0  0  0  0  0  0  0  0
  1  2  1  6  0  0  0
  1  3  1  0  0  0  0
  1  4  2  0  0  0  0
  1 16  1  0  0  0  0
  5  6  1  1  0  0  0
  5  7  1  0  0  0  0
  5 14  1  0  0  0  0
  7  8  1  1  0  0  0
  7  9  1  0  0  0  0
  9 10  1  1  0  0  0
  9 11  1  0  0  0  0
 11 12  1  1  0  0  0
 11 13  1  0  0  0  0
 13 14  1  0  0  0  0
 13 15  1  6  0  0  0
 15 16  1  0  0  0  0
M  CHG  1   3  -1
M  END
>  <CHROM.1>
-167.29868651,-179.76567977,75.88677262,47.73767905,10.47578930,13.87474279
0.61694328,0.96385501,-1.27429824

>  <Name>
ligand

>  <RI>
0

>  <Rbt.Current_Directory>
/home/itssahil/PROJECTS/Mol_Feturizer/New_Systems/rnas/3B4C

>  <Rbt.Executable>
rbdock ($Id: //depot/dev/client3/rdock/2013.1/src/exe/rbdock.cxx#4 $)

>  <Rbt.Library>
libRbt.so (2013.1, Build901 2013/11/27)

>  <Rbt.Parameter_File>
/export/apps/rDock/src/rDock_2013.1_src/data/scripts/dock_solv.prm

>  <Rbt.Receptor>
prm/pocket_docking_7.prm

>  <SCORE>
-8.91716

>  <SCORE.INTER>
-7.81385

>  <SCORE.INTER.CONST>
1

>  <SCORE.INTER.POLAR>
0

>  <SCORE.INTER.ROT>
3

>  <SCORE.INTER.SOLV>
20.2368

>  <SCORE.INTER.VDW>
-17.5548

>  <SCORE.INTER.norm>
-0.488366

>  <SCORE.INTRA>
-1.10331

>  <SCORE.INTRA.DIHEDRAL>
-1.16709

>  <SCORE.INTRA.DIHEDRAL.0>
2.1318

>  <SCORE.INTRA.POLAR>
0

>  <SCORE.INTRA.POLAR.0>
0

>  <SCORE.INTRA.REPUL>
0

>  <SCORE.INTRA.REPUL.0>
0

>  <SCORE.INTRA.SOLV>
-0.904844

>  <SCORE.INTRA.SOLV.lig_0>
-58.6125

>  <SCORE.INTRA.VDW>
-0.0673423

>  <SCORE.INTRA.VDW.0>
-0.432734

>  <SCORE.INTRA.norm>
-0.0689569

>  <SCORE.RESTR>
0

>  <SCORE.RESTR.CAVITY>
0

>  <SCORE.RESTR.norm>
0

>  <SCORE.SYSTEM>
0

>  <SCORE.SYSTEM.CONST>
0

>  <SCORE.SYSTEM.DIHEDRAL>
0

>  <SCORE.SYSTEM.SOLV>
0

>  <SCORE.SYSTEM.norm>
0

>  <SCORE.heavy>
16

>  <SCORE.norm>
-0.557323

>  <RMSD>
4.116

$$$$
ligand
 OpenBabel11021811463D
libRbt.so/2013.1/901 2013/11/27
 16 16  0  0  0  0  0  0  0  0999 V2000
   47.9755   14.5749   11.1500 P   0  0  2  0  0  0  0  0  0  0  0  0
   46.7598   14.6253   10.3010 O   0  0  0  0  0  0  0  0  0  0  0  0
   48.1906   16.0000   11.8655 O   0  5  0  0  0  0  0  0  0  0  0  0
   49.2534   14.2604   10.2186 O   0  0  0  0  0  0  0  0  0  0  0  0
   47.7113   11.1698   15.7864 C   0  0  2  0  0  0  0  0  0  0  0  0
   47.0693   10.0668   15.1360 O   0  0  0  0  0  0  0  0  0  0  0  0
   46.8729   11.6552   16.9970 C   0  0  2  0  0  0  0  0  0  0  0  0
   46.6884   10.5463   17.9526 N   0  0  0  0  0  0  0  0  0  0  0  0
   45.5066   12.1403   16.4841 C   0  0  1  0  0  0  0  0  0  0  0  0
   44.7110   12.6134   17.5743 O   0  0  0  0  0  0  0  0  0  0  0  0
   45.7532   13.2822   15.4996 C   0  0  2  0  0  0  0  0  0  0  0  0
   44.5008   13.7448   15.0106 O   0  0  0  0  0  0  0  0  0  0  0  0
   46.6206   12.7508   14.3260 C   0  0  2  0  0  0  0  0  0  0  0  0
   47.9000   12.2538   14.8254 O   0  0  0  0  0  0  0  0  0  0  0  0
   46.9043   13.8777   13.3022 C   0  0  0  0  0  0  0  0  0  0  0  0
   47.8002   13.4200   12.2729 O   0  0  0  0  0  0  0  0  0  0  0  0
  1  2  1  6  0  0  0
  1  3  1  0  0  0  0
  1  4  2  0  0  0  0
  1 16  1  0  0  0  0
  5  6  1  6  0  0  0
  5  7  1  0  0  0  0
  5 14  1  0  0  0  0
  7  8  1  1  0  0  0
  7  9  1  0  0  0  0
  9 10  1  1  0  0  0
  9 11  1  0  0  0  0
 11 12  1  6  0  0  0
 11 13  1  0  0  0  0
 13 14  1  0  0  0  0
 13 15  1  6  0  0  0
 15 16  1  0  0  0  0
M  CHG  1   3  -1
M  END
>  <CHROM.1>
175.13029085,175.09387803,-75.43973712,46.97804693,13.08876984,13.99584694
-1.20945239,-0.65168486,2.28319677

>  <Name>
ligand

>  <RI>
0

>  <Rbt.Current_Directory>
/home/itssahil/PROJECTS/Mol_Feturizer/New_Systems/rnas/3B4C

>  <Rbt.Executable>
rbdock ($Id: //depot/dev/client3/rdock/2013.1/src/exe/rbdock.cxx#4 $)

>  <Rbt.Library>
libRbt.so (2013.1, Build901 2013/11/27)

>  <Rbt.Parameter_File>
/export/apps/rDock/src/rDock_2013.1_src/data/scripts/dock_solv.prm

>  <Rbt.Receptor>
prm/pocket_docking_8.prm

>  <SCORE>
-8.32792

>  <SCORE.INTER>
-7.09975

>  <SCORE.INTER.CONST>
1

>  <SCORE.INTER.POLAR>
0

>  <SCORE.INTER.ROT>
3

>  <SCORE.INTER.SOLV>
15.7643

>  <SCORE.INTER.VDW>
-15.5879

>  <SCORE.INTER.norm>
-0.443734

>  <SCORE.INTRA>
-1.22818

>  <SCORE.INTRA.DIHEDRAL>
-1.5603

>  <SCORE.INTRA.DIHEDRAL.0>
2.1318

>  <SCORE.INTRA.POLAR>
0

>  <SCORE.INTRA.POLAR.0>
0

>  <SCORE.INTRA.REPUL>
0

>  <SCORE.INTRA.REPUL.0>
0

>  <SCORE.INTRA.SOLV>
-0.876097

>  <SCORE.INTRA.SOLV.lig_0>
-58.6125

>  <SCORE.INTRA.VDW>
-0.00997605

>  <SCORE.INTRA.VDW.0>
-0.432734

>  <SCORE.INTRA.norm>
-0.076761

>  <SCORE.RESTR>
0

>  <SCORE.RESTR.CAVITY>
0

>  <SCORE.RESTR.norm>
0

>  <SCORE.SYSTEM>
0

>  <SCORE.SYSTEM.CONST>
0

>  <SCORE.SYSTEM.DIHEDRAL>
0

>  <SCORE.SYSTEM.SOLV>
0

>  <SCORE.SYSTEM.norm>
0

>  <SCORE.heavy>
16

>  <SCORE.norm>
-0.520495

>  <RMSD>
4.473

$$$$
ligand
 OpenBabel11021811463D
libRbt.so/2013.1/901 2013/11/27
 16 16  0  0  0  0  0  0  0  0999 V2000
   48.0624   16.5680   13.1918 P   0  0  2  0  0  0  0  0  0  0  0  0
   49.1515   16.8862   14.1478 O   0  0  0  0  0  0  0  0  0  0  0  0
   48.6013   16.7433   11.6859 O   0  5  0  0  0  0  0  0  0  0  0  0
   46.8390   17.5905   13.4306 O   0  0  0  0  0  0  0  0  0  0  0  0
   47.5135   11.4290   15.6368 C   0  0  2  0  0  0  0  0  0  0  0  0
   46.9649   10.7420   14.5060 O   0  0  0  0  0  0  0  0  0  0  0  0
   46.5757   11.2986   16.8647 C   0  0  2  0  0  0  0  0  0  0  0  0
   46.3758    9.8736   17.1906 N   0  0  0  0  0  0  0  0  0  0  0  0
   45.2271   11.9543   16.5232 C   0  0  1  0  0  0  0  0  0  0  0  0
   44.3405   11.8686   17.6421 O   0  0  0  0  0  0  0  0  0  0  0  0
   45.4894   13.4224   16.1918 C   0  0  2  0  0  0  0  0  0  0  0  0
   44.2537   14.0479   15.8702 O   0  0  0  0  0  0  0  0  0  0  0  0
   46.4556   13.4951   14.9780 C   0  0  2  0  0  0  0  0  0  0  0  0
   47.7191   12.8343   15.2951 O   0  0  0  0  0  0  0  0  0  0  0  0
   46.7582   14.9682   14.6077 C   0  0  0  0  0  0  0  0  0  0  0  0
   47.5724   15.0409   13.4231 O   0  0  0  0  0  0  0  0  0  0  0  0
  1  2  1  1  0  0  0
  1  3  1  0  0  0  0
  1  4  2  0  0  0  0
  1 16  1  0  0  0  0
  5  6  1  6  0  0  0
  5  7  1  0  0  0  0
  5 14  1  0  0  0  0
  7  8  1  6  0  0  0
  7  9  1  0  0  0  0
  9 10  1  1  0  0  0
  9 11  1  0  0  0  0
 11 12  1  6  0  0  0
 11 13  1  0  0  0  0
 13 14  1  0  0  0  0
 13 15  1  1  0  0  0
 15 16  1  0  0  0  0
M  CHG  1   3  -1
M  END
>  <CHROM.1>
-175.70317766,-171.27098567,75.92954412,46.85393926,13.94452108,14.89215642
-1.16705178,-0.56280303,2.78659164

>  <Name>
ligand

>  <RI>
0

>  <Rbt.Current_Directory>
/home/itssahil/PROJECTS/Mol_Feturizer/New_Systems/rnas/3B4C

>  <Rbt.Executable>
rbdock ($Id: //depot/dev/client3/rdock/2013.1/src/exe/rbdock.cxx#4 $)

>  <Rbt.Library>
libRbt.so (2013.1, Build901 2013/11/27)

>  <Rbt.Parameter_File>
/export/apps/rDock/src/rDock_2013.1_src/data/scripts/dock_solv.prm

>  <Rbt.Receptor>
prm/pocket_docking_7.prm

>  <SCORE>
-8.33227

>  <SCORE.INTER>
-7.16654

>  <SCORE.INTER.CONST>
1

>  <SCORE.INTER.POLAR>
-1.06062

>  <SCORE.INTER.ROT>
3

>  <SCORE.INTER.SOLV>
15.7167

>  <SCORE.INTER.VDW>
-12.0812

>  <SCORE.INTER.norm>
-0.447909

>  <SCORE.INTRA>
-1.16573

>  <SCORE.INTRA.DIHEDRAL>
-1.29395

>  <SCORE.INTRA.DIHEDRAL.0>
2.1318

>  <SCORE.INTRA.POLAR>
0

>  <SCORE.INTRA.POLAR.0>
0

>  <SCORE.INTRA.REPUL>
0

>  <SCORE.INTRA.REPUL.0>
0

>  <SCORE.INTRA.SOLV>
-0.857587

>  <SCORE.INTRA.SOLV.lig_0>
-58.6125

>  <SCORE.INTRA.VDW>
-0.0899626

>  <SCORE.INTRA.VDW.0>
-0.432734

>  <SCORE.INTRA.norm>
-0.0728583

>  <SCORE.RESTR>
0

>  <SCORE.RESTR.CAVITY>
0

>  <SCORE.RESTR.norm>
0

>  <SCORE.SYSTEM>
0

>  <SCORE.SYSTEM.CONST>
0

>  <SCORE.SYSTEM.DIHEDRAL>
0

>  <SCORE.SYSTEM.SOLV>
0

>  <SCORE.SYSTEM.norm>
0

>  <SCORE.heavy>
16

>  <SCORE.norm>
-0.520767

>  <RMSD>
4.744

$$$$
ligand
 OpenBabel11021811463D
libRbt.so/2013.1/901 2013/11/27
 16 16  0  0  0  0  0  0  0  0999 V2000
   46.5658   10.9435   16.6334 P   0  0  2  0  0  0  0  0  0  0  0  0
   45.4981   11.2432   17.6191 O   0  0  0  0  0  0  0  0  0  0  0  0
   47.5358    9.8028   17.2221 O   0  5  0  0  0  0  0  0  0  0  0  0
   47.4296   12.2798   16.3729 O   0  0  0  0  0  0  0  0  0  0  0  0
   45.2073   14.8385   15.4079 C   0  0  2  0  0  0  0  0  0  0  0  0
   44.1262   15.3132   14.5969 O   0  0  0  0  0  0  0  0  0  0  0  0
   46.5586   14.9913   14.6632 C   0  0  2  0  0  0  0  0  0  0  0  0
   46.7776   16.4076   14.3125 N   0  0  0  0  0  0  0  0  0  0  0  0
   46.5147   14.1342   13.3870 C   0  0  1  0  0  0  0  0  0  0  0  0
   47.7547   14.2367   12.6820 O   0  0  0  0  0  0  0  0  0  0  0  0
   46.2838   12.6827   13.8040 C   0  0  2  0  0  0  0  0  0  0  0  0
   46.2373   11.8719   12.6369 O   0  0  0  0  0  0  0  0  0  0  0  0
   44.9359   12.5920   14.5703 C   0  0  2  0  0  0  0  0  0  0  0  0
   44.9700   13.4404   15.7588 O   0  0  0  0  0  0  0  0  0  0  0  0
   44.6606   11.1362   15.0214 C   0  0  0  0  0  0  0  0  0  0  0  0
   45.8935   10.4302   15.2513 O   0  0  0  0  0  0  0  0  0  0  0  0
  1  2  1  1  0  0  0
  1  3  1  0  0  0  0
  1  4  2  0  0  0  0
  1 16  1  0  0  0  0
  5  6  1  6  0  0  0
  5  7  1  0  0  0  0
  5 14  1  0  0  0  0
  7  8  1  6  0  0  0
  7  9  1  0  0  0  0
  9 10  1  1  0  0  0
  9 11  1  0  0  0  0
 11 12  1  6  0  0  0
 11 13  1  0  0  0  0
 13 14  1  0  0  0  0
 13 15  1  1  0  0  0
 15 16  1  0  0  0  0
M  CHG  1   3  -1
M  END
>  <CHROM.1>
29.47831064,74.00152506,35.73754725,46.10411042,12.71029140,15.13589866,1.44555117
-1.02933043,2.47208841

>  <Name>
ligand

>  <RI>
0

>  <Rbt.Current_Directory>
/home/itssahil/PROJECTS/Mol_Feturizer/New_Systems/rnas/3B4C

>  <Rbt.Executable>
rbdock ($Id: //depot/dev/client3/rdock/2013.1/src/exe/rbdock.cxx#4 $)

>  <Rbt.Library>
libRbt.so (2013.1, Build901 2013/11/27)

>  <Rbt.Parameter_File>
/export/apps/rDock/src/rDock_2013.1_src/data/scripts/dock_solv.prm

>  <Rbt.Receptor>
prm/pocket_docking_7.prm

>  <SCORE>
-5.8875

>  <SCORE.INTER>
-9.61831

>  <SCORE.INTER.CONST>
1

>  <SCORE.INTER.POLAR>
-0.848525

>  <SCORE.INTER.ROT>
3

>  <SCORE.INTER.SOLV>
19.3794

>  <SCORE.INTER.VDW>
-15.6436

>  <SCORE.INTER.norm>
-0.601144

>  <SCORE.INTRA>
3.73081

>  <SCORE.INTRA.DIHEDRAL>
2.3383

>  <SCORE.INTRA.DIHEDRAL.0>
2.1318

>  <SCORE.INTRA.POLAR>
0

>  <SCORE.INTRA.POLAR.0>
0

>  <SCORE.INTRA.REPUL>
0

>  <SCORE.INTRA.REPUL.0>
0

>  <SCORE.INTRA.SOLV>
4.98469

>  <SCORE.INTRA.SOLV.lig_0>
-58.6125

>  <SCORE.INTRA.VDW>
0.0693177

>  <SCORE.INTRA.VDW.0>
-0.432734

>  <SCORE.INTRA.norm>
0.233176

>  <SCORE.RESTR>
0

>  <SCORE.RESTR.CAVITY>
0

>  <SCORE.RESTR.norm>
0

>  <SCORE.SYSTEM>
0

>  <SCORE.SYSTEM.CONST>
0

>  <SCORE.SYSTEM.DIHEDRAL>
0

>  <SCORE.SYSTEM.SOLV>
0

>  <SCORE.SYSTEM.norm>
0

>  <SCORE.heavy>
16

>  <SCORE.norm>
-0.367969

>  <RMSD>
4.920

$$$$
ligand
 OpenBabel11021811463D
libRbt.so/2013.1/901 2013/11/27
 16 16  0  0  0  0  0  0  0  0999 V2000
   46.5704   10.1040   17.0287 P   0  0  2  0  0  0  0  0  0  0  0  0
   46.7010    8.8066   17.7367 O   0  0  0  0  0  0  0  0  0  0  0  0
   47.8910   10.3714   16.1493 O   0  5  0  0  0  0  0  0  0  0  0  0
   46.4209   11.2834   18.1178 O   0  0  0  0  0  0  0  0  0  0  0  0
   47.1629   12.0723   12.8745 C   0  0  2  0  0  0  0  0  0  0  0  0
   48.4123   12.0436   13.5745 O   0  0  0  0  0  0  0  0  0  0  0  0
   46.7584   13.5302   12.5354 C   0  0  2  0  0  0  0  0  0  0  0  0
   47.8093   14.1613   11.7144 N   0  0  0  0  0  0  0  0  0  0  0  0
   46.5803   14.3079   13.8503 C   0  0  1  0  0  0  0  0  0  0  0  0
   46.1885   15.6557   13.5761 O   0  0  0  0  0  0  0  0  0  0  0  0
   45.4874   13.6142   14.6616 C   0  0  2  0  0  0  0  0  0  0  0  0
   45.3080   14.3169   15.8845 O   0  0  0  0  0  0  0  0  0  0  0  0
   45.9287   12.1525   14.9463 C   0  0  2  0  0  0  0  0  0  0  0  0
   46.1360   11.4320   13.6928 O   0  0  0  0  0  0  0  0  0  0  0  0
   44.8463   11.4040   15.7628 C   0  0  0  0  0  0  0  0  0  0  0  0
   45.2697   10.0616   16.0634 O   0  0  0  0  0  0  0  0  0  0  0  0
  1  2  1  1  0  0  0
  1  3  1  0  0  0  0
  1  4  2  0  0  0  0
  1 16  1  0  0  0  0
  5  6  1  1  0  0  0
  5  7  1  0  0  0  0
  5 14  1  0  0  0  0
  7  8  1  6  0  0  0
  7  9  1  0  0  0  0
  9 10  1  6  0  0  0
  9 11  1  0  0  0  0
 11 12  1  1  0  0  0
 11 13  1  0  0  0  0
 13 14  1  0  0  0  0
 13 15  1  1  0  0  0
 15 16  1  0  0  0  0
M  CHG  1   3  -1
M  END
>  <CHROM.1>
-178.24764856,64.49493247,159.01579304,46.48010137,12.01838481,15.09680533
-1.66308481,0.90518627,-0.70395639

>  <Name>
ligand

>  <RI>
0

>  <Rbt.Current_Directory>
/home/itssahil/PROJECTS/Mol_Feturizer/New_Systems/rnas/3B4C

>  <Rbt.Executable>
rbdock ($Id: //depot/dev/client3/rdock/2013.1/src/exe/rbdock.cxx#4 $)

>  <Rbt.Library>
libRbt.so (2013.1, Build901 2013/11/27)

>  <Rbt.Parameter_File>
/export/apps/rDock/src/rDock_2013.1_src/data/scripts/dock_solv.prm

>  <Rbt.Receptor>
prm/pocket_docking_8.prm

>  <SCORE>
-7.70492

>  <SCORE.INTER>
-8.9265

>  <SCORE.INTER.CONST>
1

>  <SCORE.INTER.POLAR>
0

>  <SCORE.INTER.ROT>
3

>  <SCORE.INTER.SOLV>
17.0826

>  <SCORE.INTER.VDW>
-17.2452

>  <SCORE.INTER.norm>
-0.557906

>  <SCORE.INTRA>
1.22157

>  <SCORE.INTRA.DIHEDRAL>
-1.36904

>  <SCORE.INTRA.DIHEDRAL.0>
2.1318

>  <SCORE.INTRA.POLAR>
0

>  <SCORE.INTRA.POLAR.0>
0

>  <SCORE.INTRA.REPUL>
0

>  <SCORE.INTRA.REPUL.0>
0

>  <SCORE.INTRA.SOLV>
4.15528

>  <SCORE.INTRA.SOLV.lig_0>
-58.6125

>  <SCORE.INTRA.VDW>
-0.171548

>  <SCORE.INTRA.VDW.0>
-0.432734

>  <SCORE.INTRA.norm>
0.0763483

>  <SCORE.RESTR>
0

>  <SCORE.RESTR.CAVITY>
0

>  <SCORE.RESTR.norm>
0

>  <SCORE.SYSTEM>
0

>  <SCORE.SYSTEM.CONST>
0

>  <SCORE.SYSTEM.DIHEDRAL>
0

>  <SCORE.SYSTEM.SOLV>
0

>  <SCORE.SYSTEM.norm>
0

>  <SCORE.heavy>
16

>  <SCORE.norm>
-0.481558

>  <RMSD>
5.033

$$$$
ligand
 OpenBabel11021811463D
libRbt.so/2013.1/901 2013/11/27
 16 16  0  0  0  0  0  0  0  0999 V2000
   47.0070   16.6992   12.5372 P   0  0  2  0  0  0  0  0  0  0  0  0
   47.8727   16.8770   11.3455 O   0  0  0  0  0  0  0  0  0  0  0  0
   45.4917   17.0909   12.1637 O   0  5  0  0  0  0  0  0  0  0  0  0
   47.5239   17.6752   13.7118 O   0  0  0  0  0  0  0  0  0  0  0  0
   47.8716   11.7312   15.3266 C   0  0  2  0  0  0  0  0  0  0  0  0
   47.3047   10.8832   14.3210 O   0  0  0  0  0  0  0  0  0  0  0  0
   47.1510   11.5281   16.6843 C   0  0  2  0  0  0  0  0  0  0  0  0
   47.2572   10.1162   17.0991 N   0  0  0  0  0  0  0  0  0  0  0  0
   45.6725   11.9175   16.5176 C   0  0  1  0  0  0  0  0  0  0  0  0
   44.9787   11.7595   17.7581 O   0  0  0  0  0  0  0  0  0  0  0  0
   45.6186   13.3820   16.0861 C   0  0  2  0  0  0  0  0  0  0  0  0
   44.2582   13.7626   15.9237 O   0  0  0  0  0  0  0  0  0  0  0  0
   46.3792   13.5344   14.7406 C   0  0  2  0  0  0  0  0  0  0  0  0
   47.7722   13.1237   14.8962 O   0  0  0  0  0  0  0  0  0  0  0  0
   46.3582   15.0080   14.2647 C   0  0  0  0  0  0  0  0  0  0  0  0
   47.0690   15.1542   13.0218 O   0  0  0  0  0  0  0  0  0  0  0  0
  1  2  1  6  0  0  0
  1  3  1  0  0  0  0
  1  4  2  0  0  0  0
  1 16  1  0  0  0  0
  5  6  1  6  0  0  0
  5  7  1  0  0  0  0
  5 14  1  0  0  0  0
  7  8  1  6  0  0  0
  7  9  1  0  0  0  0
  9 10  1  1  0  0  0
  9 11  1  0  0  0  0
 11 12  1  6  0  0  0
 11 13  1  0  0  0  0
 13 14  1  0  0  0  0
 13 15  1  1  0  0  0
 15 16  1  0  0  0  0
M  CHG  1   3  -1
M  END
>  <CHROM.1>
179.66562769,179.00166067,173.33743085,46.62364297,14.03818684,14.56276805
-1.46450230,-0.61143438,2.55995833

>  <Name>
ligand

>  <RI>
0

>  <Rbt.Current_Directory>
/home/itssahil/PROJECTS/Mol_Feturizer/New_Systems/rnas/3B4C

>  <Rbt.Executable>
rbdock ($Id: //depot/dev/client3/rdock/2013.1/src/exe/rbdock.cxx#4 $)

>  <Rbt.Library>
libRbt.so (2013.1, Build901 2013/11/27)

>  <Rbt.Parameter_File>
/export/apps/rDock/src/rDock_2013.1_src/data/scripts/dock_solv.prm

>  <Rbt.Receptor>
prm/pocket_docking_8.prm

>  <SCORE>
-8.52525

>  <SCORE.INTER>
-7.09971

>  <SCORE.INTER.CONST>
1

>  <SCORE.INTER.POLAR>
-1.06066

>  <SCORE.INTER.ROT>
3

>  <SCORE.INTER.SOLV>
16.3999

>  <SCORE.INTER.VDW>
-12.2643

>  <SCORE.INTER.norm>
-0.443732

>  <SCORE.INTRA>
-1.42554

>  <SCORE.INTRA.DIHEDRAL>
-2.0537

>  <SCORE.INTRA.DIHEDRAL.0>
2.1318

>  <SCORE.INTRA.POLAR>
0

>  <SCORE.INTRA.POLAR.0>
0

>  <SCORE.INTRA.REPUL>
0

>  <SCORE.INTRA.REPUL.0>
0

>  <SCORE.INTRA.SOLV>
-0.380656

>  <SCORE.INTRA.SOLV.lig_0>
-58.6125

>  <SCORE.INTRA.VDW>
-0.208365

>  <SCORE.INTRA.VDW.0>
-0.432734

>  <SCORE.INTRA.norm>
-0.0890963

>  <SCORE.RESTR>
0

>  <SCORE.RESTR.CAVITY>
0

>  <SCORE.RESTR.norm>
0

>  <SCORE.SYSTEM>
0

>  <SCORE.SYSTEM.CONST>
0

>  <SCORE.SYSTEM.DIHEDRAL>
0

>  <SCORE.SYSTEM.SOLV>
0

>  <SCORE.SYSTEM.norm>
0

>  <SCORE.heavy>
16

>  <SCORE.norm>
-0.532828

>  <RMSD>
5.308

$$$$
ligand
 OpenBabel11021811463D
libRbt.so/2013.1/901 2013/11/27
 16 16  0  0  0  0  0  0  0  0999 V2000
   44.5994   15.3838   14.9590 P   0  0  2  0  0  0  0  0  0  0  0  0
   44.4402   14.9006   16.3527 O   0  0  0  0  0  0  0  0  0  0  0  0
   45.9956   16.1711   14.8195 O   0  5  0  0  0  0  0  0  0  0  0  0
   43.3928   16.3957   14.6133 O   0  0  0  0  0  0  0  0  0  0  0  0
   45.1526   11.1176   16.7413 C   0  0  2  0  0  0  0  0  0  0  0  0
   45.2549   12.0299   17.8408 O   0  0  0  0  0  0  0  0  0  0  0  0
   46.4093   10.2129   16.6616 C   0  0  2  0  0  0  0  0  0  0  0  0
   46.5657    9.4642   17.9232 N   0  0  0  0  0  0  0  0  0  0  0  0
   47.6401   11.1036   16.4225 C   0  0  1  0  0  0  0  0  0  0  0  0
   48.8186   10.2993   16.3253 O   0  0  0  0  0  0  0  0  0  0  0  0
   47.4269   11.8565   15.1104 C   0  0  2  0  0  0  0  0  0  0  0  0
   48.5543   12.6893   14.8711 O   0  0  0  0  0  0  0  0  0  0  0  0
   46.1423   12.7206   15.2338 C   0  0  2  0  0  0  0  0  0  0  0  0
   44.9841   11.8721   15.5018 O   0  0  0  0  0  0  0  0  0  0  0  0
   45.8795   13.4997   13.9213 C   0  0  0  0  0  0  0  0  0  0  0  0
   44.5808   14.1194   13.9457 O   0  0  0  0  0  0  0  0  0  0  0  0
  1  2  1  1  0  0  0
  1  3  1  0  0  0  0
  1  4  2  0  0  0  0
  1 16  1  0  0  0  0
  5  6  1  1  0  0  0
  5  7  1  0  0  0  0
  5 14  1  0  0  0  0
  7  8  1  1  0  0  0
  7  9  1  0  0  0  0
  9 10  1  6  0  0  0
  9 11  1  0  0  0  0
 11 12  1  1  0  0  0
 11 13  1  0  0  0  0
 13 14  1  0  0  0  0
 13 15  1  6  0  0  0
 15 16  1  0  0  0  0
M  CHG  1   3  -1
M  END
>  <CHROM.1>
170.22854751,72.89716394,-80.98909501,45.87017275,12.99583922,15.63534391
2.09263032,0.43864868,-0.59941679

>  <Name>
ligand

>  <RI>
0

>  <Rbt.Current_Directory>
/home/itssahil/PROJECTS/Mol_Feturizer/New_Systems/rnas/3B4C

>  <Rbt.Executable>
rbdock ($Id: //depot/dev/client3/rdock/2013.1/src/exe/rbdock.cxx#4 $)

>  <Rbt.Library>
libRbt.so (2013.1, Build901 2013/11/27)

>  <Rbt.Parameter_File>
/export/apps/rDock/src/rDock_2013.1_src/data/scripts/dock_solv.prm

>  <Rbt.Receptor>
prm/pocket_docking_7.prm

>  <SCORE>
-10.4808

>  <SCORE.INTER>
-10.33

>  <SCORE.INTER.CONST>
1

>  <SCORE.INTER.POLAR>
-1.06015

>  <SCORE.INTER.ROT>
3

>  <SCORE.INTER.SOLV>
25.7717

>  <SCORE.INTER.VDW>
-17.5434

>  <SCORE.INTER.norm>
-0.645628

>  <SCORE.INTRA>
-0.150753

>  <SCORE.INTRA.DIHEDRAL>
-0.354932

>  <SCORE.INTRA.DIHEDRAL.0>
2.1318

>  <SCORE.INTRA.POLAR>
0

>  <SCORE.INTRA.POLAR.0>
0

>  <SCORE.INTRA.REPUL>
0

>  <SCORE.INTRA.REPUL.0>
0

>  <SCORE.INTRA.SOLV>
0.631762

>  <SCORE.INTRA.SOLV.lig_0>
-58.6125

>  <SCORE.INTRA.VDW>
-0.289168

>  <SCORE.INTRA.VDW.0>
-0.432734

>  <SCORE.INTRA.norm>
-0.00942207

>  <SCORE.RESTR>
0

>  <SCORE.RESTR.CAVITY>
0

>  <SCORE.RESTR.norm>
0

>  <SCORE.SYSTEM>
0

>  <SCORE.SYSTEM.CONST>
0

>  <SCORE.SYSTEM.DIHEDRAL>
0

>  <SCORE.SYSTEM.SOLV>
0

>  <SCORE.SYSTEM.norm>
0

>  <SCORE.heavy>
16

>  <SCORE.norm>
-0.65505

>  <RMSD>
5.419

$$$$
ligand
 OpenBabel11021811463D
libRbt.so/2013.1/901 2013/11/27
 16 16  0  0  0  0  0  0  0  0999 V2000
   46.8176   15.5604   13.5961 P   0  0  2  0  0  0  0  0  0  0  0  0
   45.4545   15.3694   14.1499 O   0  0  0  0  0  0  0  0  0  0  0  0
   47.4909   16.8608   14.2627 O   0  5  0  0  0  0  0  0  0  0  0  0
   46.7100   15.7868   12.0034 O   0  0  0  0  0  0  0  0  0  0  0  0
   49.6572   10.6148   12.7169 C   0  0  2  0  0  0  0  0  0  0  0  0
   48.8561    9.4360   12.5737 O   0  0  0  0  0  0  0  0  0  0  0  0
   50.4562   10.5759   14.0451 C   0  0  2  0  0  0  0  0  0  0  0  0
   51.3158    9.3771   14.0751 N   0  0  0  0  0  0  0  0  0  0  0  0
   49.4596   10.5378   15.2158 C   0  0  1  0  0  0  0  0  0  0  0  0
   50.1629   10.5194   16.4609 O   0  0  0  0  0  0  0  0  0  0  0  0
   48.5948   11.7948   15.1371 C   0  0  2  0  0  0  0  0  0  0  0  0
   47.6631   11.7785   16.2110 O   0  0  0  0  0  0  0  0  0  0  0  0
   47.8425   11.7988   13.7784 C   0  0  2  0  0  0  0  0  0  0  0  0
   48.7950   11.7932   12.6711 O   0  0  0  0  0  0  0  0  0  0  0  0
   46.9553   13.0617   13.6486 C   0  0  0  0  0  0  0  0  0  0  0  0
   47.7177   14.2522   13.9186 O   0  0  0  0  0  0  0  0  0  0  0  0
  1  2  1  1  0  0  0
  1  3  1  0  0  0  0
  1  4  2  0  0  0  0
  1 16  1  0  0  0  0
  5  6  1  1  0  0  0
  5  7  1  0  0  0  0
  5 14  1  0  0  0  0
  7  8  1  6  0  0  0
  7  9  1  0  0  0  0
  9 10  1  1  0  0  0
  9 11  1  0  0  0  0
 11 12  1  1  0  0  0
 11 13  1  0  0  0  0
 13 14  1  0  0  0  0
 13 15  1  6  0  0  0
 15 16  1  0  0  0  0
M  CHG  1   3  -1
M  END
>  <CHROM.1>
51.53931072,172.96991892,44.39148561,48.21823510,12.73094934,13.99707851
-3.10290123,-1.04934138,1.48053135

>  <Name>
ligand

>  <RI>
0

>  <Rbt.Current_Directory>
/home/itssahil/PROJECTS/Mol_Feturizer/New_Systems/rnas/3B4C

>  <Rbt.Executable>
rbdock ($Id: //depot/dev/client3/rdock/2013.1/src/exe/rbdock.cxx#4 $)

>  <Rbt.Library>
libRbt.so (2013.1, Build901 2013/11/27)

>  <Rbt.Parameter_File>
/export/apps/rDock/src/rDock_2013.1_src/data/scripts/dock_solv.prm

>  <Rbt.Receptor>
prm/pocket_docking_6.prm

>  <SCORE>
-8.33057

>  <SCORE.INTER>
-7.30638

>  <SCORE.INTER.CONST>
1

>  <SCORE.INTER.POLAR>
-2.09546

>  <SCORE.INTER.ROT>
3

>  <SCORE.INTER.SOLV>
16.241

>  <SCORE.INTER.VDW>
-8.8997

>  <SCORE.INTER.norm>
-0.456649

>  <SCORE.INTRA>
-1.02419

>  <SCORE.INTRA.DIHEDRAL>
-1.26141

>  <SCORE.INTRA.DIHEDRAL.0>
2.1318

>  <SCORE.INTRA.POLAR>
0

>  <SCORE.INTRA.POLAR.0>
0

>  <SCORE.INTRA.REPUL>
0

>  <SCORE.INTRA.REPUL.0>
0

>  <SCORE.INTRA.SOLV>
-0.917182

>  <SCORE.INTRA.SOLV.lig_0>
-58.6125

>  <SCORE.INTRA.VDW>
0.0651022

>  <SCORE.INTRA.VDW.0>
-0.432734

>  <SCORE.INTRA.norm>
-0.0640122

>  <SCORE.RESTR>
0

>  <SCORE.RESTR.CAVITY>
0

>  <SCORE.RESTR.norm>
0

>  <SCORE.SYSTEM>
0

>  <SCORE.SYSTEM.CONST>
0

>  <SCORE.SYSTEM.DIHEDRAL>
0

>  <SCORE.SYSTEM.SOLV>
0

>  <SCORE.SYSTEM.norm>
0

>  <SCORE.heavy>
16

>  <SCORE.norm>
-0.520661

>  <RMSD>
5.442

$$$$
ligand
 OpenBabel11021811463D
libRbt.so/2013.1/901 2013/11/27
 16 16  0  0  0  0  0  0  0  0999 V2000
   44.9075   12.7950   16.7697 P   0  0  2  0  0  0  0  0  0  0  0  0
   44.9220   12.4105   18.2026 O   0  0  0  0  0  0  0  0  0  0  0  0
   44.2906   14.2731   16.6163 O   0  5  0  0  0  0  0  0  0  0  0  0
   43.9808   11.7558   15.9568 O   0  0  0  0  0  0  0  0  0  0  0  0
   50.4468   10.0761   15.8113 C   0  0  2  0  0  0  0  0  0  0  0  0
   51.2359   11.2082   16.1953 O   0  0  0  0  0  0  0  0  0  0  0  0
   50.3964    9.9419   14.2674 C   0  0  2  0  0  0  0  0  0  0  0  0
   51.7651    9.8051   13.7337 N   0  0  0  0  0  0  0  0  0  0  0  0
   49.7292   11.2005   13.6875 C   0  0  1  0  0  0  0  0  0  0  0  0
   49.6492   11.1035   12.2630 O   0  0  0  0  0  0  0  0  0  0  0  0
   48.3211   11.2969   14.2720 C   0  0  2  0  0  0  0  0  0  0  0  0
   47.6861   12.4571   13.7498 O   0  0  0  0  0  0  0  0  0  0  0  0
   48.4282   11.3979   15.8181 C   0  0  2  0  0  0  0  0  0  0  0  0
   49.0997   10.2185   16.3581 O   0  0  0  0  0  0  0  0  0  0  0  0
   47.0211   11.4907   16.4585 C   0  0  0  0  0  0  0  0  0  0  0  0
   46.4207   12.7710   16.1907 O   0  0  0  0  0  0  0  0  0  0  0  0
  1  2  1  1  0  0  0
  1  3  1  0  0  0  0
  1  4  2  0  0  0  0
  1 16  1  0  0  0  0
  5  6  1  6  0  0  0
  5  7  1  0  0  0  0
  5 14  1  0  0  0  0
  7  8  1  6  0  0  0
  7  9  1  0  0  0  0
  9 10  1  6  0  0  0
  9 11  1  0  0  0  0
 11 12  1  6  0  0  0
 11 13  1  0  0  0  0
 13 14  1  0  0  0  0
 13 15  1  1  0  0  0
 15 16  1  0  0  0  0
M  CHG  1   3  -1
M  END
>  <CHROM.1>
-71.21741755,175.50095230,53.69072295,47.72668497,11.64560676,15.52028772
-2.81693069,0.43328050,-1.43030044

>  <Name>
ligand

>  <RI>
0

>  <Rbt.Current_Directory>
/home/itssahil/PROJECTS/Mol_Feturizer/New_Systems/rnas/3B4C

>  <Rbt.Executable>
rbdock ($Id: //depot/dev/client3/rdock/2013.1/src/exe/rbdock.cxx#4 $)

>  <Rbt.Library>
libRbt.so (2013.1, Build901 2013/11/27)

>  <Rbt.Parameter_File>
/export/apps/rDock/src/rDock_2013.1_src/data/scripts/dock_solv.prm

>  <Rbt.Receptor>
prm/pocket_docking_5.prm

>  <SCORE>
-10.2749

>  <SCORE.INTER>
-9.03394

>  <SCORE.INTER.CONST>
1

>  <SCORE.INTER.POLAR>
-1.03923

>  <SCORE.INTER.ROT>
3

>  <SCORE.INTER.SOLV>
20.5351

>  <SCORE.INTER.VDW>
-15.0036

>  <SCORE.INTER.norm>
-0.564622

>  <SCORE.INTRA>
-1.24094

>  <SCORE.INTRA.DIHEDRAL>
-1.52829

>  <SCORE.INTRA.DIHEDRAL.0>
2.1318

>  <SCORE.INTRA.POLAR>
0

>  <SCORE.INTRA.POLAR.0>
0

>  <SCORE.INTRA.REPUL>
0

>  <SCORE.INTRA.REPUL.0>
0

>  <SCORE.INTRA.SOLV>
-0.634252

>  <SCORE.INTRA.SOLV.lig_0>
-58.6125

>  <SCORE.INTRA.VDW>
-0.159666

>  <SCORE.INTRA.VDW.0>
-0.432734

>  <SCORE.INTRA.norm>
-0.0775586

>  <SCORE.RESTR>
0

>  <SCORE.RESTR.CAVITY>
0

>  <SCORE.RESTR.norm>
0

>  <SCORE.SYSTEM>
0

>  <SCORE.SYSTEM.CONST>
0

>  <SCORE.SYSTEM.DIHEDRAL>
0

>  <SCORE.SYSTEM.SOLV>
0

>  <SCORE.SYSTEM.norm>
0

>  <SCORE.heavy>
16

>  <SCORE.norm>
-0.64218

>  <RMSD>
5.481

$$$$
ligand
 OpenBabel11021811463D
libRbt.so/2013.1/901 2013/11/27
 16 16  0  0  0  0  0  0  0  0999 V2000
   44.8586   12.7805   16.6842 P   0  0  2  0  0  0  0  0  0  0  0  0
   44.9614   12.4282   18.1218 O   0  0  0  0  0  0  0  0  0  0  0  0
   44.2528   14.2638   16.5366 O   0  5  0  0  0  0  0  0  0  0  0  0
   43.8672   11.7371   15.9577 O   0  0  0  0  0  0  0  0  0  0  0  0
   50.4466   10.1384   15.7990 C   0  0  2  0  0  0  0  0  0  0  0  0
   51.2101   11.3074   16.1187 O   0  0  0  0  0  0  0  0  0  0  0  0
   50.3911    9.9233   14.2645 C   0  0  2  0  0  0  0  0  0  0  0  0
   51.7597    9.7917   13.7294 N   0  0  0  0  0  0  0  0  0  0  0  0
   49.6904   11.1338   13.6249 C   0  0  1  0  0  0  0  0  0  0  0  0
   49.6049   10.9612   12.2078 O   0  0  0  0  0  0  0  0  0  0  0  0
   48.2835   11.2266   14.2130 C   0  0  2  0  0  0  0  0  0  0  0  0
   47.6178   12.3426   13.6359 O   0  0  0  0  0  0  0  0  0  0  0  0
   48.3966   11.4100   15.7511 C   0  0  2  0  0  0  0  0  0  0  0  0
   49.0994   10.2767   16.3468 O   0  0  0  0  0  0  0  0  0  0  0  0
   46.9912   11.5022   16.3953 C   0  0  0  0  0  0  0  0  0  0  0  0
   46.3305   12.7211   16.0091 O   0  0  0  0  0  0  0  0  0  0  0  0
  1  2  1  1  0  0  0
  1  3  1  0  0  0  0
  1  4  2  0  0  0  0
  1 16  1  0  0  0  0
  5  6  1  6  0  0  0
  5  7  1  0  0  0  0
  5 14  1  0  0  0  0
  7  8  1  6  0  0  0
  7  9  1  0  0  0  0
  9 10  1  6  0  0  0
  9 11  1  0  0  0  0
 11 12  1  6  0  0  0
 11 13  1  0  0  0  0
 13 14  1  0  0  0  0
 13 15  1  1  0  0  0
 15 16  1  0  0  0  0
M  CHG  1   3  -1
M  END
>  <CHROM.1>
-68.21651857,179.36656313,47.10863258,47.69122903,11.62939650,15.45753897
-2.80131288,0.41240592,-1.48713003

>  <Name>
ligand

>  <RI>
0

>  <Rbt.Current_Directory>
/home/itssahil/PROJECTS/Mol_Feturizer/New_Systems/rnas/3B4C

>  <Rbt.Executable>
rbdock ($Id: //depot/dev/client3/rdock/2013.1/src/exe/rbdock.cxx#4 $)

>  <Rbt.Library>
libRbt.so (2013.1, Build901 2013/11/27)

>  <Rbt.Parameter_File>
/export/apps/rDock/src/rDock_2013.1_src/data/scripts/dock_solv.prm

>  <Rbt.Receptor>
prm/pocket_docking_8.prm

>  <SCORE>
-9.96216

>  <SCORE.INTER>
-8.78642

>  <SCORE.INTER.CONST>
1

>  <SCORE.INTER.POLAR>
-1.03742

>  <SCORE.INTER.ROT>
3

>  <SCORE.INTER.SOLV>
20.3283

>  <SCORE.INTER.VDW>
-14.7756

>  <SCORE.INTER.norm>
-0.549152

>  <SCORE.INTRA>
-1.17573

>  <SCORE.INTRA.DIHEDRAL>
-1.62996

>  <SCORE.INTRA.DIHEDRAL.0>
2.1318

>  <SCORE.INTRA.POLAR>
0

>  <SCORE.INTRA.POLAR.0>
0

>  <SCORE.INTRA.REPUL>
0

>  <SCORE.INTRA.REPUL.0>
0

>  <SCORE.INTRA.SOLV>
-0.764254

>  <SCORE.INTRA.SOLV.lig_0>
-58.6125

>  <SCORE.INTRA.VDW>
0.0213742

>  <SCORE.INTRA.VDW.0>
-0.432734

>  <SCORE.INTRA.norm>
-0.0734834

>  <SCORE.RESTR>
0

>  <SCORE.RESTR.CAVITY>
0

>  <SCORE.RESTR.norm>
0

>  <SCORE.SYSTEM>
0

>  <SCORE.SYSTEM.CONST>
0

>  <SCORE.SYSTEM.DIHEDRAL>
0

>  <SCORE.SYSTEM.SOLV>
0

>  <SCORE.SYSTEM.norm>
0

>  <SCORE.heavy>
16

>  <SCORE.norm>
-0.622635

>  <RMSD>
5.497

$$$$
ligand
 OpenBabel11021811463D
libRbt.so/2013.1/901 2013/11/27
 16 16  0  0  0  0  0  0  0  0999 V2000
   44.9604   12.9128   16.5533 P   0  0  2  0  0  0  0  0  0  0  0  0
   44.1642   12.0445   15.6514 O   0  0  0  0  0  0  0  0  0  0  0  0
   44.8091   12.3951   18.0691 O   0  5  0  0  0  0  0  0  0  0  0  0
   44.3999   14.4216   16.4587 O   0  0  0  0  0  0  0  0  0  0  0  0
   50.3693    9.9305   15.6368 C   0  0  2  0  0  0  0  0  0  0  0  0
   51.1643   10.8327   16.4151 O   0  0  0  0  0  0  0  0  0  0  0  0
   50.5597   10.2001   14.1219 C   0  0  2  0  0  0  0  0  0  0  0  0
   51.9834   10.0524   13.7640 N   0  0  0  0  0  0  0  0  0  0  0  0
   50.0860   11.6309   13.8153 C   0  0  1  0  0  0  0  0  0  0  0  0
   50.2305   11.9091   12.4200 O   0  0  0  0  0  0  0  0  0  0  0  0
   48.6123   11.7311   14.2053 C   0  0  2  0  0  0  0  0  0  0  0  0
   48.1541   13.0491   13.9317 O   0  0  0  0  0  0  0  0  0  0  0  0
   48.4751   11.4227   15.7213 C   0  0  2  0  0  0  0  0  0  0  0  0
   48.9651   10.0778   16.0117 O   0  0  0  0  0  0  0  0  0  0  0  0
   46.9932   11.5052   16.1638 C   0  0  0  0  0  0  0  0  0  0  0  0
   46.5185   12.8629   16.1111 O   0  0  0  0  0  0  0  0  0  0  0  0
  1  2  1  6  0  0  0
  1  3  1  0  0  0  0
  1  4  2  0  0  0  0
  1 16  1  0  0  0  0
  5  6  1  1  0  0  0
  5  7  1  0  0  0  0
  5 14  1  0  0  0  0
  7  8  1  1  0  0  0
  7  9  1  0  0  0  0
  9 10  1  6  0  0  0
  9 11  1  0  0  0  0
 11 12  1  1  0  0  0
 11 13  1  0  0  0  0
 13 14  1  0  0  0  0
 13 15  1  6  0  0  0
 15 16  1  0  0  0  0
M  CHG  1   3  -1
M  END
>  <CHROM.1>
-68.58857919,178.98601128,-58.47232081,47.85521135,11.81491547,15.43118235
-3.00177698,0.48076086,-1.07167241

>  <Name>
ligand

>  <RI>
0

>  <Rbt.Current_Directory>
/home/itssahil/PROJECTS/Mol_Feturizer/New_Systems/rnas/3B4C

>  <Rbt.Executable>
rbdock ($Id: //depot/dev/client3/rdock/2013.1/src/exe/rbdock.cxx#4 $)

>  <Rbt.Library>
libRbt.so (2013.1, Build901 2013/11/27)

>  <Rbt.Parameter_File>
/export/apps/rDock/src/rDock_2013.1_src/data/scripts/dock_solv.prm

>  <Rbt.Receptor>
prm/pocket_docking_7.prm

>  <SCORE>
-8.30304

>  <SCORE.INTER>
-6.88628

>  <SCORE.INTER.CONST>
1

>  <SCORE.INTER.POLAR>
-1.03923

>  <SCORE.INTER.ROT>
3

>  <SCORE.INTER.SOLV>
23.1929

>  <SCORE.INTER.VDW>
-14.4577

>  <SCORE.INTER.norm>
-0.430392

>  <SCORE.INTRA>
-1.41676

>  <SCORE.INTRA.DIHEDRAL>
-1.86044

>  <SCORE.INTRA.DIHEDRAL.0>
2.1318

>  <SCORE.INTRA.POLAR>
0

>  <SCORE.INTRA.POLAR.0>
0

>  <SCORE.INTRA.REPUL>
0

>  <SCORE.INTRA.REPUL.0>
0

>  <SCORE.INTRA.SOLV>
-0.656416

>  <SCORE.INTRA.SOLV.lig_0>
-58.6125

>  <SCORE.INTRA.VDW>
-0.158329

>  <SCORE.INTRA.VDW.0>
-0.432734

>  <SCORE.INTRA.norm>
-0.0885473

>  <SCORE.RESTR>
0

>  <SCORE.RESTR.CAVITY>
0

>  <SCORE.RESTR.norm>
0

>  <SCORE.SYSTEM>
0

>  <SCORE.SYSTEM.CONST>
0

>  <SCORE.SYSTEM.DIHEDRAL>
0

>  <SCORE.SYSTEM.SOLV>
0

>  <SCORE.SYSTEM.norm>
0

>  <SCORE.heavy>
16

>  <SCORE.norm>
-0.51894

>  <RMSD>
5.557

$$$$
ligand
 OpenBabel11021811463D
libRbt.so/2013.1/901 2013/11/27
 16 16  0  0  0  0  0  0  0  0999 V2000
   46.6389   10.1302   16.8609 P   0  0  2  0  0  0  0  0  0  0  0  0
   46.5990    9.0734   17.9015 O   0  0  0  0  0  0  0  0  0  0  0  0
   46.5786   11.5771   17.5622 O   0  5  0  0  0  0  0  0  0  0  0  0
   45.3584    9.9645   15.8953 O   0  0  0  0  0  0  0  0  0  0  0  0
   50.5623    9.3868   12.7070 C   0  0  2  0  0  0  0  0  0  0  0  0
   51.7114    9.4426   13.5603 O   0  0  0  0  0  0  0  0  0  0  0  0
   50.6528   10.4637   11.5953 C   0  0  2  0  0  0  0  0  0  0  0  0
   51.8792   10.2588   10.8010 N   0  0  0  0  0  0  0  0  0  0  0  0
   50.6813   11.8513   12.2581 C   0  0  1  0  0  0  0  0  0  0  0  0
   50.7466   12.8728   11.2594 O   0  0  0  0  0  0  0  0  0  0  0  0
   49.3957   12.0112   13.0677 C   0  0  2  0  0  0  0  0  0  0  0  0
   49.4026   13.2887   13.6919 O   0  0  0  0  0  0  0  0  0  0  0  0
   49.3409   10.8924   14.1435 C   0  0  2  0  0  0  0  0  0  0  0  0
   49.3559    9.5770   13.5086 O   0  0  0  0  0  0  0  0  0  0  0  0
   48.0476   11.0087   14.9877 C   0  0  0  0  0  0  0  0  0  0  0  0
   48.0090    9.9930   16.0067 O   0  0  0  0  0  0  0  0  0  0  0  0
  1  2  1  1  0  0  0
  1  3  1  0  0  0  0
  1  4  2  0  0  0  0
  1 16  1  0  0  0  0
  5  6  1  1  0  0  0
  5  7  1  0  0  0  0
  5 14  1  0  0  0  0
  7  8  1  1  0  0  0
  7  9  1  0  0  0  0
  9 10  1  6  0  0  0
  9 11  1  0  0  0  0
 11 12  1  1  0  0  0
 11 13  1  0  0  0  0
 13 14  1  0  0  0  0
 13 15  1  6  0  0  0
 15 16  1  0  0  0  0
M  CHG  1   3  -1
M  END
>  <CHROM.1>
-178.61012202,-179.36760818,179.49229052,48.83877280,10.69174785,14.37583098
-2.75557616,0.78574581,-0.33567822

>  <Name>
ligand

>  <RI>
0

>  <Rbt.Current_Directory>
/home/itssahil/PROJECTS/Mol_Feturizer/New_Systems/rnas/3B4C

>  <Rbt.Executable>
rbdock ($Id: //depot/dev/client3/rdock/2013.1/src/exe/rbdock.cxx#4 $)

>  <Rbt.Library>
libRbt.so (2013.1, Build901 2013/11/27)

>  <Rbt.Parameter_File>
/export/apps/rDock/src/rDock_2013.1_src/data/scripts/dock_solv.prm

>  <Rbt.Receptor>
prm/pocket_docking_6.prm

>  <SCORE>
-9.47559

>  <SCORE.INTER>
-7.99491

>  <SCORE.INTER.CONST>
1

>  <SCORE.INTER.POLAR>
-1.03856

>  <SCORE.INTER.ROT>
3

>  <SCORE.INTER.SOLV>
17.2033

>  <SCORE.INTER.VDW>
-13.2025

>  <SCORE.INTER.norm>
-0.499682

>  <SCORE.INTRA>
-1.48068

>  <SCORE.INTRA.DIHEDRAL>
-2.11957

>  <SCORE.INTRA.DIHEDRAL.0>
2.1318

>  <SCORE.INTRA.POLAR>
0

>  <SCORE.INTRA.POLAR.0>
0

>  <SCORE.INTRA.REPUL>
0

>  <SCORE.INTRA.REPUL.0>
0

>  <SCORE.INTRA.SOLV>
-0.377374

>  <SCORE.INTRA.SOLV.lig_0>
-58.6125

>  <SCORE.INTRA.VDW>
-0.23221

>  <SCORE.INTRA.VDW.0>
-0.432734

>  <SCORE.INTRA.norm>
-0.0925428

>  <SCORE.RESTR>
0

>  <SCORE.RESTR.CAVITY>
0

>  <SCORE.RESTR.norm>
0

>  <SCORE.SYSTEM>
0

>  <SCORE.SYSTEM.CONST>
0

>  <SCORE.SYSTEM.DIHEDRAL>
0

>  <SCORE.SYSTEM.SOLV>
0

>  <SCORE.SYSTEM.norm>
0

>  <SCORE.heavy>
16

>  <SCORE.norm>
-0.592224

>  <RMSD>
5.603

$$$$
ligand
 OpenBabel11021811463D
libRbt.so/2013.1/901 2013/11/27
 16 16  0  0  0  0  0  0  0  0999 V2000
   44.5721   11.2342   16.1925 P   0  0  2  0  0  0  0  0  0  0  0  0
   44.1311   12.1299   15.0949 O   0  0  0  0  0  0  0  0  0  0  0  0
   43.6769    9.8973   16.1873 O   0  5  0  0  0  0  0  0  0  0  0  0
   44.3705   11.9919   17.6013 O   0  0  0  0  0  0  0  0  0  0  0  0
   50.3163   10.4088   15.7559 C   0  0  2  0  0  0  0  0  0  0  0  0
   51.1427   11.5621   15.9524 O   0  0  0  0  0  0  0  0  0  0  0  0
   50.2890   10.0030   14.2597 C   0  0  2  0  0  0  0  0  0  0  0  0
   51.6606    9.7239   13.7935 N   0  0  0  0  0  0  0  0  0  0  0  0
   49.6833   11.1610   13.4488 C   0  0  1  0  0  0  0  0  0  0  0  0
   49.6256   10.8141   12.0626 O   0  0  0  0  0  0  0  0  0  0  0  0
   48.2696   11.4108   13.9711 C   0  0  2  0  0  0  0  0  0  0  0  0
   47.6911   12.4812   13.2352 O   0  0  0  0  0  0  0  0  0  0  0  0
   48.3522   11.7823   15.4769 C   0  0  2  0  0  0  0  0  0  0  0  0
   48.9661   10.6950   16.2346 O   0  0  0  0  0  0  0  0  0  0  0  0
   46.9384   12.0386   16.0550 C   0  0  0  0  0  0  0  0  0  0  0  0
   46.1315   10.8492   15.9791 O   0  0  0  0  0  0  0  0  0  0  0  0
  1  2  1  6  0  0  0
  1  3  1  0  0  0  0
  1  4  2  0  0  0  0
  1 16  1  0  0  0  0
  5  6  1  6  0  0  0
  5  7  1  0  0  0  0
  5 14  1  0  0  0  0
  7  8  1  6  0  0  0
  7  9  1  0  0  0  0
  9 10  1  6  0  0  0
  9 11  1  0  0  0  0
 11 12  1  6  0  0  0
 11 13  1  0  0  0  0
 13 14  1  0  0  0  0
 13 15  1  1  0  0  0
 15 16  1  0  0  0  0
M  CHG  1   3  -1
M  END
>  <CHROM.1>
62.48814535,-164.30839684,62.88184725,47.55550304,11.15720303,15.17935837
2.81754044,-0.13407097,1.67564922

>  <Name>
ligand

>  <RI>
0

>  <Rbt.Current_Directory>
/home/itssahil/PROJECTS/Mol_Feturizer/New_Systems/rnas/3B4C

>  <Rbt.Executable>
rbdock ($Id: //depot/dev/client3/rdock/2013.1/src/exe/rbdock.cxx#4 $)

>  <Rbt.Library>
libRbt.so (2013.1, Build901 2013/11/27)

>  <Rbt.Parameter_File>
/export/apps/rDock/src/rDock_2013.1_src/data/scripts/dock_solv.prm

>  <Rbt.Receptor>
prm/pocket_docking_8.prm

>  <SCORE>
-7.17996

>  <SCORE.INTER>
-5.97596

>  <SCORE.INTER.CONST>
1

>  <SCORE.INTER.POLAR>
-1.03923

>  <SCORE.INTER.ROT>
3

>  <SCORE.INTER.SOLV>
20.6215

>  <SCORE.INTER.VDW>
-12.9937

>  <SCORE.INTER.norm>
-0.373497

>  <SCORE.INTRA>
-1.204

>  <SCORE.INTRA.DIHEDRAL>
-0.943364

>  <SCORE.INTRA.DIHEDRAL.0>
2.1318

>  <SCORE.INTRA.POLAR>
0

>  <SCORE.INTRA.POLAR.0>
0

>  <SCORE.INTRA.REPUL>
0

>  <SCORE.INTRA.REPUL.0>
0

>  <SCORE.INTRA.SOLV>
-0.772704

>  <SCORE.INTRA.SOLV.lig_0>
-58.6125

>  <SCORE.INTRA.VDW>
-0.345967

>  <SCORE.INTRA.VDW.0>
-0.432734

>  <SCORE.INTRA.norm>
-0.0752501

>  <SCORE.RESTR>
0

>  <SCORE.RESTR.CAVITY>
0

>  <SCORE.RESTR.norm>
0

>  <SCORE.SYSTEM>
0

>  <SCORE.SYSTEM.CONST>
0

>  <SCORE.SYSTEM.DIHEDRAL>
0

>  <SCORE.SYSTEM.SOLV>
0

>  <SCORE.SYSTEM.norm>
0

>  <SCORE.heavy>
16

>  <SCORE.norm>
-0.448747

>  <RMSD>
5.636

$$$$
ligand
 OpenBabel11021811463D
libRbt.so/2013.1/901 2013/11/27
 16 16  0  0  0  0  0  0  0  0999 V2000
   45.3418   11.6163   16.5714 P   0  0  2  0  0  0  0  0  0  0  0  0
   45.3775   12.5123   17.7534 O   0  0  0  0  0  0  0  0  0  0  0  0
   43.9248   11.7684   15.8245 O   0  5  0  0  0  0  0  0  0  0  0  0
   45.5110   10.0905   17.0641 O   0  0  0  0  0  0  0  0  0  0  0  0
   50.2980   10.6537   14.5873 C   0  0  2  0  0  0  0  0  0  0  0  0
   50.6930   11.8432   13.8938 O   0  0  0  0  0  0  0  0  0  0  0  0
   50.4564    9.4099   13.6752 C   0  0  2  0  0  0  0  0  0  0  0  0
   51.8588    9.2914   13.2324 N   0  0  0  0  0  0  0  0  0  0  0  0
   49.5323    9.5745   12.4569 C   0  0  1  0  0  0  0  0  0  0  0  0
   49.6389    8.4343   11.6002 O   0  0  0  0  0  0  0  0  0  0  0  0
   48.0979    9.6955   12.9686 C   0  0  2  0  0  0  0  0  0  0  0  0
   47.2257    9.8512   11.8565 O   0  0  0  0  0  0  0  0  0  0  0  0
   48.0027   10.9356   13.8987 C   0  0  2  0  0  0  0  0  0  0  0  0
   48.9132   10.7911   15.0316 O   0  0  0  0  0  0  0  0  0  0  0  0
   46.5643   11.0963   14.4499 C   0  0  0  0  0  0  0  0  0  0  0  0
   46.5405   12.0159   15.5568 O   0  0  0  0  0  0  0  0  0  0  0  0
  1  2  1  1  0  0  0
  1  3  1  0  0  0  0
  1  4  2  0  0  0  0
  1 16  1  0  0  0  0
  5  6  1  6  0  0  0
  5  7  1  0  0  0  0
  5 14  1  0  0  0  0
  7  8  1  6  0  0  0
  7  9  1  0  0  0  0
  9 10  1  6  0  0  0
  9 11  1  0  0  0  0
 11 12  1  6  0  0  0
 11 13  1  0  0  0  0
 13 14  1  0  0  0  0
 13 15  1  1  0  0  0
 15 16  1  0  0  0  0
M  CHG  1   3  -1
M  END
>  <CHROM.1>
165.40561890,-150.31660780,176.34306619,47.74586268,10.69784337,14.59135086
-2.43863865,-0.01954064,-2.08748191

>  <Name>
ligand

>  <RI>
0

>  <Rbt.Current_Directory>
/home/itssahil/PROJECTS/Mol_Feturizer/New_Systems/rnas/3B4C

>  <Rbt.Executable>
rbdock ($Id: //depot/dev/client3/rdock/2013.1/src/exe/rbdock.cxx#4 $)

>  <Rbt.Library>
libRbt.so (2013.1, Build901 2013/11/27)

>  <Rbt.Parameter_File>
/export/apps/rDock/src/rDock_2013.1_src/data/scripts/dock_solv.prm

>  <Rbt.Receptor>
prm/pocket_docking_5.prm

>  <SCORE>
-6.51773

>  <SCORE.INTER>
-7.36643

>  <SCORE.INTER.CONST>
1

>  <SCORE.INTER.POLAR>
-0.91052

>  <SCORE.INTER.ROT>
3

>  <SCORE.INTER.SOLV>
17.3012

>  <SCORE.INTER.VDW>
-13.243

>  <SCORE.INTER.norm>
-0.460402

>  <SCORE.INTRA>
0.8487

>  <SCORE.INTRA.DIHEDRAL>
2.16085

>  <SCORE.INTRA.DIHEDRAL.0>
2.1318

>  <SCORE.INTRA.POLAR>
0

>  <SCORE.INTRA.POLAR.0>
0

>  <SCORE.INTRA.REPUL>
0

>  <SCORE.INTRA.REPUL.0>
0

>  <SCORE.INTRA.SOLV>
0.134432

>  <SCORE.INTRA.SOLV.lig_0>
-58.6125

>  <SCORE.INTRA.VDW>
-0.298942

>  <SCORE.INTRA.VDW.0>
-0.432734

>  <SCORE.INTRA.norm>
0.0530437

>  <SCORE.RESTR>
0

>  <SCORE.RESTR.CAVITY>
0

>  <SCORE.RESTR.norm>
0

>  <SCORE.SYSTEM>
0

>  <SCORE.SYSTEM.CONST>
0

>  <SCORE.SYSTEM.DIHEDRAL>
0

>  <SCORE.SYSTEM.SOLV>
0

>  <SCORE.SYSTEM.norm>
0

>  <SCORE.heavy>
16

>  <SCORE.norm>
-0.407358

>  <RMSD>
5.697

$$$$
ligand
 OpenBabel11021811463D
libRbt.so/2013.1/901 2013/11/27
 16 16  0  0  0  0  0  0  0  0999 V2000
   46.6837   10.7610   16.7083 P   0  0  2  0  0  0  0  0  0  0  0  0
   46.8021   11.2837   18.0918 O   0  0  0  0  0  0  0  0  0  0  0  0
   45.5707   11.6042   15.9088 O   0  5  0  0  0  0  0  0  0  0  0  0
   46.2249    9.2165   16.7682 O   0  0  0  0  0  0  0  0  0  0  0  0
   50.7540    9.1389   12.2740 C   0  0  2  0  0  0  0  0  0  0  0  0
   51.7677    8.7261   13.1980 O   0  0  0  0  0  0  0  0  0  0  0  0
   51.0986   10.5227   11.6653 C   0  0  2  0  0  0  0  0  0  0  0  0
   52.4045   10.4558   10.9820 N   0  0  0  0  0  0  0  0  0  0  0  0
   51.1517   11.5584   12.8011 C   0  0  1  0  0  0  0  0  0  0  0  0
   51.4501   12.8535   12.2730 O   0  0  0  0  0  0  0  0  0  0  0  0
   49.7812   11.5861   13.4755 C   0  0  2  0  0  0  0  0  0  0  0  0
   49.8090   12.5372   14.5321 O   0  0  0  0  0  0  0  0  0  0  0  0
   49.4734   10.1719   14.0390 C   0  0  2  0  0  0  0  0  0  0  0  0
   49.4654    9.1869   12.9605 O   0  0  0  0  0  0  0  0  0  0  0  0
   48.0866   10.1480   14.7280 C   0  0  0  0  0  0  0  0  0  0  0  0
   48.1140   10.8941   15.9585 O   0  0  0  0  0  0  0  0  0  0  0  0
  1  2  1  1  0  0  0
  1  3  1  0  0  0  0
  1  4  2  0  0  0  0
  1 16  1  0  0  0  0
  5  6  1  1  0  0  0
  5  7  1  0  0  0  0
  5 14  1  0  0  0  0
  7  8  1  1  0  0  0
  7  9  1  0  0  0  0
  9 10  1  6  0  0  0
  9 11  1  0  0  0  0
 11 12  1  1  0  0  0
 11 13  1  0  0  0  0
 13 14  1  0  0  0  0
 13 15  1  6  0  0  0
 15 16  1  0  0  0  0
M  CHG  1   3  -1
M  END
>  <CHROM.1>
-70.56666594,-175.89393134,168.24231713,49.05116428,10.68082083,14.39701190
-3.03651100,-0.75577707,-3.02499076

>  <Name>
ligand

>  <RI>
0

>  <Rbt.Current_Directory>
/home/itssahil/PROJECTS/Mol_Feturizer/New_Systems/rnas/3B4C

>  <Rbt.Executable>
rbdock ($Id: //depot/dev/client3/rdock/2013.1/src/exe/rbdock.cxx#4 $)

>  <Rbt.Library>
libRbt.so (2013.1, Build901 2013/11/27)

>  <Rbt.Parameter_File>
/export/apps/rDock/src/rDock_2013.1_src/data/scripts/dock_solv.prm

>  <Rbt.Receptor>
prm/pocket_docking_5.prm

>  <SCORE>
-9.32226

>  <SCORE.INTER>
-8.31076

>  <SCORE.INTER.CONST>
1

>  <SCORE.INTER.POLAR>
-1.0378

>  <SCORE.INTER.ROT>
3

>  <SCORE.INTER.SOLV>
12.866

>  <SCORE.INTER.VDW>
-11.9698

>  <SCORE.INTER.norm>
-0.519422

>  <SCORE.INTRA>
-1.0115

>  <SCORE.INTRA.DIHEDRAL>
-1.43917

>  <SCORE.INTRA.DIHEDRAL.0>
2.1318

>  <SCORE.INTRA.POLAR>
0

>  <SCORE.INTRA.POLAR.0>
0

>  <SCORE.INTRA.REPUL>
0

>  <SCORE.INTRA.REPUL.0>
0

>  <SCORE.INTRA.SOLV>
-0.0801901

>  <SCORE.INTRA.SOLV.lig_0>
-58.6125

>  <SCORE.INTRA.VDW>
-0.251819

>  <SCORE.INTRA.VDW.0>
-0.432734

>  <SCORE.INTRA.norm>
-0.0632188

>  <SCORE.RESTR>
0

>  <SCORE.RESTR.CAVITY>
0

>  <SCORE.RESTR.norm>
0

>  <SCORE.SYSTEM>
0

>  <SCORE.SYSTEM.CONST>
0

>  <SCORE.SYSTEM.DIHEDRAL>
0

>  <SCORE.SYSTEM.SOLV>
0

>  <SCORE.SYSTEM.norm>
0

>  <SCORE.heavy>
16

>  <SCORE.norm>
-0.582641

>  <RMSD>
5.714

$$$$
ligand
 OpenBabel11021811463D
libRbt.so/2013.1/901 2013/11/27
 16 16  0  0  0  0  0  0  0  0999 V2000
   46.3061   10.7707   17.0079 P   0  0  2  0  0  0  0  0  0  0  0  0
   45.8790   11.6918   18.0898 O   0  0  0  0  0  0  0  0  0  0  0  0
   45.1112   10.6011   15.9438 O   0  5  0  0  0  0  0  0  0  0  0  0
   46.6433    9.3298   17.6481 O   0  0  0  0  0  0  0  0  0  0  0  0
   49.9934   12.8355   13.0705 C   0  0  2  0  0  0  0  0  0  0  0  0
   50.4214   11.9161   12.0589 O   0  0  0  0  0  0  0  0  0  0  0  0
   51.1668   13.1910   14.0195 C   0  0  2  0  0  0  0  0  0  0  0  0
   52.2758   13.7780   13.2434 N   0  0  0  0  0  0  0  0  0  0  0  0
   51.6378   11.9051   14.7196 C   0  0  1  0  0  0  0  0  0  0  0  0
   52.7105   12.1985   15.6187 O   0  0  0  0  0  0  0  0  0  0  0  0
   50.4559   11.3377   15.5038 C   0  0  2  0  0  0  0  0  0  0  0  0
   50.8696   10.1450   16.1581 O   0  0  0  0  0  0  0  0  0  0  0  0
   49.3010   11.0289   14.5123 C   0  0  2  0  0  0  0  0  0  0  0  0
   48.8868   12.2470   13.8209 O   0  0  0  0  0  0  0  0  0  0  0  0
   48.0738   10.4564   15.2638 C   0  0  0  0  0  0  0  0  0  0  0  0
   47.6143   11.3780   16.2693 O   0  0  0  0  0  0  0  0  0  0  0  0
  1  2  1  1  0  0  0
  1  3  1  0  0  0  0
  1  4  2  0  0  0  0
  1 16  1  0  0  0  0
  5  6  1  6  0  0  0
  5  7  1  0  0  0  0
  5 14  1  0  0  0  0
  7  8  1  6  0  0  0
  7  9  1  0  0  0  0
  9 10  1  1  0  0  0
  9 11  1  0  0  0  0
 11 12  1  6  0  0  0
 11 13  1  0  0  0  0
 13 14  1  0  0  0  0
 13 15  1  1  0  0  0
 15 16  1  0  0  0  0
M  CHG  1   3  -1
M  END
>  <CHROM.1>
58.16356586,178.38405289,177.09829812,48.94442134,11.46520802,15.35574716
2.53333420,0.07444524,1.99674714

>  <Name>
ligand

>  <RI>
0

>  <Rbt.Current_Directory>
/home/itssahil/PROJECTS/Mol_Feturizer/New_Systems/rnas/3B4C

>  <Rbt.Executable>
rbdock ($Id: //depot/dev/client3/rdock/2013.1/src/exe/rbdock.cxx#4 $)

>  <Rbt.Library>
libRbt.so (2013.1, Build901 2013/11/27)

>  <Rbt.Parameter_File>
/export/apps/rDock/src/rDock_2013.1_src/data/scripts/dock_solv.prm

>  <Rbt.Receptor>
prm/pocket_docking_5.prm

>  <SCORE>
-6.80277

>  <SCORE.INTER>
-5.31408

>  <SCORE.INTER.CONST>
1

>  <SCORE.INTER.POLAR>
0

>  <SCORE.INTER.ROT>
3

>  <SCORE.INTER.SOLV>
15.5335

>  <SCORE.INTER.VDW>
-14.3205

>  <SCORE.INTER.norm>
-0.33213

>  <SCORE.INTRA>
-1.48869

>  <SCORE.INTRA.DIHEDRAL>
-2.09184

>  <SCORE.INTRA.DIHEDRAL.0>
2.1318

>  <SCORE.INTRA.POLAR>
0

>  <SCORE.INTRA.POLAR.0>
0

>  <SCORE.INTRA.REPUL>
0

>  <SCORE.INTRA.REPUL.0>
0

>  <SCORE.INTRA.SOLV>
-0.171341

>  <SCORE.INTRA.SOLV.lig_0>
-58.6125

>  <SCORE.INTRA.VDW>
-0.357102

>  <SCORE.INTRA.VDW.0>
-0.432734

>  <SCORE.INTRA.norm>
-0.0930432

>  <SCORE.RESTR>
0

>  <SCORE.RESTR.CAVITY>
0

>  <SCORE.RESTR.norm>
0

>  <SCORE.SYSTEM>
0

>  <SCORE.SYSTEM.CONST>
0

>  <SCORE.SYSTEM.DIHEDRAL>
0

>  <SCORE.SYSTEM.SOLV>
0

>  <SCORE.SYSTEM.norm>
0

>  <SCORE.heavy>
16

>  <SCORE.norm>
-0.425173

>  <RMSD>
5.740

$$$$
ligand
 OpenBabel11021811463D
libRbt.so/2013.1/901 2013/11/27
 16 16  0  0  0  0  0  0  0  0999 V2000
   46.5401   10.1756   16.7109 P   0  0  2  0  0  0  0  0  0  0  0  0
   46.6382    9.1108   17.7394 O   0  0  0  0  0  0  0  0  0  0  0  0
   46.8116   11.6075   17.3924 O   0  5  0  0  0  0  0  0  0  0  0  0
   45.0532   10.1678   16.0875 O   0  0  0  0  0  0  0  0  0  0  0  0
   50.9841   10.3214   13.0764 C   0  0  2  0  0  0  0  0  0  0  0  0
   51.1020   11.4969   12.2664 O   0  0  0  0  0  0  0  0  0  0  0  0
   50.6520    9.0848   12.2020 C   0  0  2  0  0  0  0  0  0  0  0  0
   51.7066    8.8931   11.1882 N   0  0  0  0  0  0  0  0  0  0  0  0
   49.2972    9.3210   11.5134 C   0  0  1  0  0  0  0  0  0  0  0  0
   48.9491    8.1900   10.7104 O   0  0  0  0  0  0  0  0  0  0  0  0
   48.2444    9.5160   12.6032 C   0  0  2  0  0  0  0  0  0  0  0  0
   46.9824    9.7386   11.9872 O   0  0  0  0  0  0  0  0  0  0  0  0
   48.6409   10.7450   13.4661 C   0  0  2  0  0  0  0  0  0  0  0  0
   49.9470   10.5310   14.0837 O   0  0  0  0  0  0  0  0  0  0  0  0
   47.6042   10.9793   14.5925 C   0  0  0  0  0  0  0  0  0  0  0  0
   47.6380    9.9053   15.5501 O   0  0  0  0  0  0  0  0  0  0  0  0
  1  2  1  1  0  0  0
  1  3  1  0  0  0  0
  1  4  2  0  0  0  0
  1 16  1  0  0  0  0
  5  6  1  6  0  0  0
  5  7  1  0  0  0  0
  5 14  1  0  0  0  0
  7  8  1  6  0  0  0
  7  9  1  0  0  0  0
  9 10  1  1  0  0  0
  9 11  1  0  0  0  0
 11 12  1  6  0  0  0
 11 13  1  0  0  0  0
 13 14  1  0  0  0  0
 13 15  1  1  0  0  0
 15 16  1  0  0  0  0
M  CHG  1   3  -1
M  END
>  <CHROM.1>
67.10383205,-179.77290120,-176.45886531,48.35255697,10.00978172,14.08340673
-2.26351273,-0.33175856,-1.97676914

>  <Name>
ligand

>  <RI>
0

>  <Rbt.Current_Directory>
/home/itssahil/PROJECTS/Mol_Feturizer/New_Systems/rnas/3B4C

>  <Rbt.Executable>
rbdock ($Id: //depot/dev/client3/rdock/2013.1/src/exe/rbdock.cxx#4 $)

>  <Rbt.Library>
libRbt.so (2013.1, Build901 2013/11/27)

>  <Rbt.Parameter_File>
/export/apps/rDock/src/rDock_2013.1_src/data/scripts/dock_solv.prm

>  <Rbt.Receptor>
prm/pocket_docking_6.prm

>  <SCORE>
-8.55928

>  <SCORE.INTER>
-7.13826

>  <SCORE.INTER.CONST>
1

>  <SCORE.INTER.POLAR>
0

>  <SCORE.INTER.ROT>
3

>  <SCORE.INTER.SOLV>
17.1802

>  <SCORE.INTER.VDW>
-16.0856

>  <SCORE.INTER.norm>
-0.446141

>  <SCORE.INTRA>
-1.42102

>  <SCORE.INTRA.DIHEDRAL>
-1.92475

>  <SCORE.INTRA.DIHEDRAL.0>
2.1318

>  <SCORE.INTRA.POLAR>
0

>  <SCORE.INTRA.POLAR.0>
0

>  <SCORE.INTRA.REPUL>
0

>  <SCORE.INTRA.REPUL.0>
0

>  <SCORE.INTRA.SOLV>
-0.179689

>  <SCORE.INTRA.SOLV.lig_0>
-58.6125

>  <SCORE.INTRA.VDW>
-0.368798

>  <SCORE.INTRA.VDW.0>
-0.432734

>  <SCORE.INTRA.norm>
-0.0888135

>  <SCORE.RESTR>
0

>  <SCORE.RESTR.CAVITY>
0

>  <SCORE.RESTR.norm>
0

>  <SCORE.SYSTEM>
0

>  <SCORE.SYSTEM.CONST>
0

>  <SCORE.SYSTEM.DIHEDRAL>
0

>  <SCORE.SYSTEM.SOLV>
0

>  <SCORE.SYSTEM.norm>
0

>  <SCORE.heavy>
16

>  <SCORE.norm>
-0.534955

>  <RMSD>
5.746

$$$$
ligand
 OpenBabel11021811463D
libRbt.so/2013.1/901 2013/11/27
 16 16  0  0  0  0  0  0  0  0999 V2000
   46.3429   10.4510   16.9480 P   0  0  2  0  0  0  0  0  0  0  0  0
   46.6724    9.1565   17.5937 O   0  0  0  0  0  0  0  0  0  0  0  0
   46.2156   11.5951   18.0721 O   0  5  0  0  0  0  0  0  0  0  0  0
   44.9306   10.3116   16.1829 O   0  0  0  0  0  0  0  0  0  0  0  0
   51.0119   10.4288   13.5554 C   0  0  2  0  0  0  0  0  0  0  0  0
   50.9244   11.8051   13.1682 O   0  0  0  0  0  0  0  0  0  0  0  0
   50.9954    9.5070   12.3089 C   0  0  2  0  0  0  0  0  0  0  0  0
   52.1207    9.8513   11.4190 N   0  0  0  0  0  0  0  0  0  0  0  0
   49.6611    9.7053   11.5702 C   0  0  1  0  0  0  0  0  0  0  0  0
   49.6029    8.8552   10.4216 O   0  0  0  0  0  0  0  0  0  0  0  0
   48.5327    9.3396   12.5329 C   0  0  2  0  0  0  0  0  0  0  0  0
   47.2878    9.5184   11.8696 O   0  0  0  0  0  0  0  0  0  0  0  0
   48.6142   10.2698   13.7739 C   0  0  2  0  0  0  0  0  0  0  0  0
   49.9002   10.1064   14.4467 O   0  0  0  0  0  0  0  0  0  0  0  0
   47.4912    9.9314   14.7853 C   0  0  0  0  0  0  0  0  0  0  0  0
   47.5143   10.8427   15.8991 O   0  0  0  0  0  0  0  0  0  0  0  0
  1  2  1  1  0  0  0
  1  3  1  0  0  0  0
  1  4  2  0  0  0  0
  1 16  1  0  0  0  0
  5  6  1  6  0  0  0
  5  7  1  0  0  0  0
  5 14  1  0  0  0  0
  7  8  1  6  0  0  0
  7  9  1  0  0  0  0
  9 10  1  6  0  0  0
  9 11  1  0  0  0  0
 11 12  1  6  0  0  0
 11 13  1  0  0  0  0
 13 14  1  0  0  0  0
 13 15  1  1  0  0  0
 15 16  1  0  0  0  0
M  CHG  1   3  -1
M  END
>  <CHROM.1>
-176.57782149,-179.22470314,68.62798345,48.39187204,10.14369829,14.29811373
-2.28301036,-0.27659060,-1.92725448

>  <Name>
ligand

>  <RI>
0

>  <Rbt.Current_Directory>
/home/itssahil/PROJECTS/Mol_Feturizer/New_Systems/rnas/3B4C

>  <Rbt.Executable>
rbdock ($Id: //depot/dev/client3/rdock/2013.1/src/exe/rbdock.cxx#4 $)

>  <Rbt.Library>
libRbt.so (2013.1, Build901 2013/11/27)

>  <Rbt.Parameter_File>
/export/apps/rDock/src/rDock_2013.1_src/data/scripts/dock_solv.prm

>  <Rbt.Receptor>
prm/pocket_docking_6.prm

>  <SCORE>
-8.04791

>  <SCORE.INTER>
-6.46454

>  <SCORE.INTER.CONST>
1

>  <SCORE.INTER.POLAR>
0

>  <SCORE.INTER.ROT>
3

>  <SCORE.INTER.SOLV>
18.8185

>  <SCORE.INTER.VDW>
-16.1825

>  <SCORE.INTER.norm>
-0.404034

>  <SCORE.INTRA>
-1.58337

>  <SCORE.INTRA.DIHEDRAL>
-1.9601

>  <SCORE.INTRA.DIHEDRAL.0>
2.1318

>  <SCORE.INTRA.POLAR>
0

>  <SCORE.INTRA.POLAR.0>
0

>  <SCORE.INTRA.REPUL>
0

>  <SCORE.INTRA.REPUL.0>
0

>  <SCORE.INTRA.SOLV>
-0.946234

>  <SCORE.INTRA.SOLV.lig_0>
-58.6125

>  <SCORE.INTRA.VDW>
-0.130201

>  <SCORE.INTRA.VDW.0>
-0.432734

>  <SCORE.INTRA.norm>
-0.0989606

>  <SCORE.RESTR>
0

>  <SCORE.RESTR.CAVITY>
0

>  <SCORE.RESTR.norm>
0

>  <SCORE.SYSTEM>
0

>  <SCORE.SYSTEM.CONST>
0

>  <SCORE.SYSTEM.DIHEDRAL>
0

>  <SCORE.SYSTEM.SOLV>
0

>  <SCORE.SYSTEM.norm>
0

>  <SCORE.heavy>
16

>  <SCORE.norm>
-0.502994

>  <RMSD>
5.748

$$$$
ligand
 OpenBabel11021811463D
libRbt.so/2013.1/901 2013/11/27
 16 16  0  0  0  0  0  0  0  0999 V2000
   46.3288   10.4484   16.9456 P   0  0  2  0  0  0  0  0  0  0  0  0
   46.6588    9.1543   17.5920 O   0  0  0  0  0  0  0  0  0  0  0  0
   46.1947   11.5917   18.0697 O   0  5  0  0  0  0  0  0  0  0  0  0
   44.9196   10.3060   16.1753 O   0  0  0  0  0  0  0  0  0  0  0  0
   51.0129   10.4384   13.5652 C   0  0  2  0  0  0  0  0  0  0  0  0
   50.9208   11.8156   13.1820 O   0  0  0  0  0  0  0  0  0  0  0  0
   50.9999    9.5203   12.3158 C   0  0  2  0  0  0  0  0  0  0  0  0
   52.1242    9.8711   11.4273 N   0  0  0  0  0  0  0  0  0  0  0  0
   49.6650    9.7162   11.5774 C   0  0  1  0  0  0  0  0  0  0  0  0
   49.6101    8.8693   10.4263 O   0  0  0  0  0  0  0  0  0  0  0  0
   48.5377    9.3437   12.5388 C   0  0  2  0  0  0  0  0  0  0  0  0
   47.2923    9.5202   11.8757 O   0  0  0  0  0  0  0  0  0  0  0  0
   48.6157   10.2705   13.7825 C   0  0  2  0  0  0  0  0  0  0  0  0
   49.9021   10.1095   14.4552 O   0  0  0  0  0  0  0  0  0  0  0  0
   47.4936    9.9252   14.7927 C   0  0  0  0  0  0  0  0  0  0  0  0
   47.5032   10.8431   15.9012 O   0  0  0  0  0  0  0  0  0  0  0  0
  1  2  1  1  0  0  0
  1  3  1  0  0  0  0
  1  4  2  0  0  0  0
  1 16  1  0  0  0  0
  5  6  1  6  0  0  0
  5  7  1  0  0  0  0
  5 14  1  0  0  0  0
  7  8  1  6  0  0  0
  7  9  1  0  0  0  0
  9 10  1  6  0  0  0
  9 11  1  0  0  0  0
 11 12  1  6  0  0  0
 11 13  1  0  0  0  0
 13 14  1  0  0  0  0
 13 15  1  1  0  0  0
 15 16  1  0  0  0  0
M  CHG  1   3  -1
M  END
>  <CHROM.1>
-175.88537275,-179.48301680,68.13467545,48.38832619,10.14730214,14.30214600
-2.28715201,-0.27811069,-1.92755125

>  <Name>
ligand

>  <RI>
0

>  <Rbt.Current_Directory>
/home/itssahil/PROJECTS/Mol_Feturizer/New_Systems/rnas/3B4C

>  <Rbt.Executable>
rbdock ($Id: //depot/dev/client3/rdock/2013.1/src/exe/rbdock.cxx#4 $)

>  <Rbt.Library>
libRbt.so (2013.1, Build901 2013/11/27)

>  <Rbt.Parameter_File>
/export/apps/rDock/src/rDock_2013.1_src/data/scripts/dock_solv.prm

>  <Rbt.Receptor>
prm/pocket_docking_6.prm

>  <SCORE>
-8.04733

>  <SCORE.INTER>
-6.45872

>  <SCORE.INTER.CONST>
1

>  <SCORE.INTER.POLAR>
0

>  <SCORE.INTER.ROT>
3

>  <SCORE.INTER.SOLV>
18.7796

>  <SCORE.INTER.VDW>
-16.1657

>  <SCORE.INTER.norm>
-0.40367

>  <SCORE.INTRA>
-1.58861

>  <SCORE.INTRA.DIHEDRAL>
-1.95608

>  <SCORE.INTRA.DIHEDRAL.0>
2.1318

>  <SCORE.INTRA.POLAR>
0

>  <SCORE.INTRA.POLAR.0>
0

>  <SCORE.INTRA.REPUL>
0

>  <SCORE.INTRA.REPUL.0>
0

>  <SCORE.INTRA.SOLV>
-0.953806

>  <SCORE.INTRA.SOLV.lig_0>
-58.6125

>  <SCORE.INTRA.VDW>
-0.133668

>  <SCORE.INTRA.VDW.0>
-0.432734

>  <SCORE.INTRA.norm>
-0.0992882

>  <SCORE.RESTR>
0

>  <SCORE.RESTR.CAVITY>
0

>  <SCORE.RESTR.norm>
0

>  <SCORE.SYSTEM>
0

>  <SCORE.SYSTEM.CONST>
0

>  <SCORE.SYSTEM.DIHEDRAL>
0

>  <SCORE.SYSTEM.SOLV>
0

>  <SCORE.SYSTEM.norm>
0

>  <SCORE.heavy>
16

>  <SCORE.norm>
-0.502958

>  <RMSD>
5.749

$$$$
ligand
 OpenBabel11021811463D
libRbt.so/2013.1/901 2013/11/27
 16 16  0  0  0  0  0  0  0  0999 V2000
   45.2152   13.4537   14.8203 P   0  0  2  0  0  0  0  0  0  0  0  0
   44.3112   12.9533   13.7556 O   0  0  0  0  0  0  0  0  0  0  0  0
   44.5992   13.0919   16.2620 O   0  5  0  0  0  0  0  0  0  0  0  0
   45.3395   15.0562   14.6931 O   0  0  0  0  0  0  0  0  0  0  0  0
   49.7611   10.4506   12.9705 C   0  0  2  0  0  0  0  0  0  0  0  0
   49.5882    9.0319   12.8753 O   0  0  0  0  0  0  0  0  0  0  0  0
   50.7712   10.8053   14.0920 C   0  0  2  0  0  0  0  0  0  0  0  0
   52.0684   10.1580   13.8180 N   0  0  0  0  0  0  0  0  0  0  0  0
   50.2082   10.3077   15.4340 C   0  0  1  0  0  0  0  0  0  0  0  0
   51.1076   10.6344   16.4968 O   0  0  0  0  0  0  0  0  0  0  0  0
   48.8684   11.0034   15.6678 C   0  0  2  0  0  0  0  0  0  0  0  0
   48.3284   10.5550   16.9044 O   0  0  0  0  0  0  0  0  0  0  0  0
   47.9072   10.6399   14.5032 C   0  0  2  0  0  0  0  0  0  0  0  0
   48.4674   11.0786   13.2276 O   0  0  0  0  0  0  0  0  0  0  0  0
   46.5336   11.3298   14.6926 C   0  0  0  0  0  0  0  0  0  0  0  0
   46.6716   12.7621   14.6586 O   0  0  0  0  0  0  0  0  0  0  0  0
  1  2  1  6  0  0  0
  1  3  1  0  0  0  0
  1  4  2  0  0  0  0
  1 16  1  0  0  0  0
  5  6  1  1  0  0  0
  5  7  1  0  0  0  0
  5 14  1  0  0  0  0
  7  8  1  6  0  0  0
  7  9  1  0  0  0  0
  9 10  1  1  0  0  0
  9 11  1  0  0  0  0
 11 12  1  1  0  0  0
 11 13  1  0  0  0  0
 13 14  1  0  0  0  0
 13 15  1  1  0  0  0
 15 16  1  0  0  0  0
M  CHG  1   3  -1
M  END
>  <CHROM.1>
62.79185988,178.53037979,-56.62227215,47.83587038,11.63507098,14.70321428
2.99235789,-0.52802551,1.40636432

>  <Name>
ligand

>  <RI>
0

>  <Rbt.Current_Directory>
/home/itssahil/PROJECTS/Mol_Feturizer/New_Systems/rnas/3B4C

>  <Rbt.Executable>
rbdock ($Id: //depot/dev/client3/rdock/2013.1/src/exe/rbdock.cxx#4 $)

>  <Rbt.Library>
libRbt.so (2013.1, Build901 2013/11/27)

>  <Rbt.Parameter_File>
/export/apps/rDock/src/rDock_2013.1_src/data/scripts/dock_solv.prm

>  <Rbt.Receptor>
prm/pocket_docking_6.prm

>  <SCORE>
-8.52094

>  <SCORE.INTER>
-6.82975

>  <SCORE.INTER.CONST>
1

>  <SCORE.INTER.POLAR>
-1.03923

>  <SCORE.INTER.ROT>
3

>  <SCORE.INTER.SOLV>
14.7323

>  <SCORE.INTER.VDW>
-11.5998

>  <SCORE.INTER.norm>
-0.426859

>  <SCORE.INTRA>
-1.69119

>  <SCORE.INTRA.DIHEDRAL>
-2.06985

>  <SCORE.INTRA.DIHEDRAL.0>
2.1318

>  <SCORE.INTRA.POLAR>
0

>  <SCORE.INTRA.POLAR.0>
0

>  <SCORE.INTRA.REPUL>
0

>  <SCORE.INTRA.REPUL.0>
0

>  <SCORE.INTRA.SOLV>
-0.851773

>  <SCORE.INTRA.SOLV.lig_0>
-58.6125

>  <SCORE.INTRA.VDW>
-0.230383

>  <SCORE.INTRA.VDW.0>
-0.432734

>  <SCORE.INTRA.norm>
-0.1057

>  <SCORE.RESTR>
0

>  <SCORE.RESTR.CAVITY>
0

>  <SCORE.RESTR.norm>
0

>  <SCORE.SYSTEM>
0

>  <SCORE.SYSTEM.CONST>
0

>  <SCORE.SYSTEM.DIHEDRAL>
0

>  <SCORE.SYSTEM.SOLV>
0

>  <SCORE.SYSTEM.norm>
0

>  <SCORE.heavy>
16

>  <SCORE.norm>
-0.532559

>  <RMSD>
5.757

$$$$
ligand
 OpenBabel11021811463D
libRbt.so/2013.1/901 2013/11/27
 16 16  0  0  0  0  0  0  0  0999 V2000
   44.2003   15.9224   14.2989 P   0  0  2  0  0  0  0  0  0  0  0  0
   43.6678   16.2584   15.6423 O   0  0  0  0  0  0  0  0  0  0  0  0
   45.4200   16.9092   13.9422 O   0  5  0  0  0  0  0  0  0  0  0  0
   43.0314   16.1212   13.2062 O   0  0  0  0  0  0  0  0  0  0  0  0
   47.2900   11.1150   16.8227 C   0  0  2  0  0  0  0  0  0  0  0  0
   48.0535   10.7506   15.6668 O   0  0  0  0  0  0  0  0  0  0  0  0
   46.0783   10.1641   17.0008 C   0  0  2  0  0  0  0  0  0  0  0  0
   46.5511    8.7724   17.1289 N   0  0  0  0  0  0  0  0  0  0  0  0
   45.1650   10.2983   15.7707 C   0  0  1  0  0  0  0  0  0  0  0  0
   44.0245    9.4465   15.9089 O   0  0  0  0  0  0  0  0  0  0  0  0
   44.7072   11.7531   15.6824 C   0  0  2  0  0  0  0  0  0  0  0  0
   43.8620   11.9000   14.5484 O   0  0  0  0  0  0  0  0  0  0  0  0
   45.9581   12.6620   15.5363 C   0  0  2  0  0  0  0  0  0  0  0  0
   46.8410   12.4986   16.6883 O   0  0  0  0  0  0  0  0  0  0  0  0
   45.5440   14.1519   15.4500 C   0  0  0  0  0  0  0  0  0  0  0  0
   44.7192   14.3873   14.2942 O   0  0  0  0  0  0  0  0  0  0  0  0
  1  2  1  1  0  0  0
  1  3  1  0  0  0  0
  1  4  2  0  0  0  0
  1 16  1  0  0  0  0
  5  6  1  6  0  0  0
  5  7  1  0  0  0  0
  5 14  1  0  0  0  0
  7  8  1  6  0  0  0
  7  9  1  0  0  0  0
  9 10  1  1  0  0  0
  9 11  1  0  0  0  0
 11 12  1  6  0  0  0
 11 13  1  0  0  0  0
 13 14  1  0  0  0  0
 13 15  1  1  0  0  0
 15 16  1  0  0  0  0
M  CHG  1   3  -1
M  END
>  <CHROM.1>
-61.62079884,175.25436535,-47.85676383,45.21086226,12.99420350,15.35083938
-1.90144679,0.33913259,2.90218020

>  <Name>
ligand

>  <RI>
0

>  <Rbt.Current_Directory>
/home/itssahil/PROJECTS/Mol_Feturizer/New_Systems/rnas/3B4C

>  <Rbt.Executable>
rbdock ($Id: //depot/dev/client3/rdock/2013.1/src/exe/rbdock.cxx#4 $)

>  <Rbt.Library>
libRbt.so (2013.1, Build901 2013/11/27)

>  <Rbt.Parameter_File>
/export/apps/rDock/src/rDock_2013.1_src/data/scripts/dock_solv.prm

>  <Rbt.Receptor>
prm/pocket_docking_6.prm

>  <SCORE>
-9.17873

>  <SCORE.INTER>
-8.06608

>  <SCORE.INTER.CONST>
1

>  <SCORE.INTER.POLAR>
-1.05893

>  <SCORE.INTER.ROT>
3

>  <SCORE.INTER.SOLV>
27.1936

>  <SCORE.INTER.VDW>
-16.5122

>  <SCORE.INTER.norm>
-0.50413

>  <SCORE.INTRA>
-1.11265

>  <SCORE.INTRA.DIHEDRAL>
-1.77191

>  <SCORE.INTRA.DIHEDRAL.0>
2.1318

>  <SCORE.INTRA.POLAR>
0

>  <SCORE.INTRA.POLAR.0>
0

>  <SCORE.INTRA.REPUL>
0

>  <SCORE.INTRA.REPUL.0>
0

>  <SCORE.INTRA.SOLV>
-0.672314

>  <SCORE.INTRA.SOLV.lig_0>
-58.6125

>  <SCORE.INTRA.VDW>
0.109465

>  <SCORE.INTRA.VDW.0>
-0.432734

>  <SCORE.INTRA.norm>
-0.0695405

>  <SCORE.RESTR>
0

>  <SCORE.RESTR.CAVITY>
0

>  <SCORE.RESTR.norm>
0

>  <SCORE.SYSTEM>
0

>  <SCORE.SYSTEM.CONST>
0

>  <SCORE.SYSTEM.DIHEDRAL>
0

>  <SCORE.SYSTEM.SOLV>
0

>  <SCORE.SYSTEM.norm>
0

>  <SCORE.heavy>
16

>  <SCORE.norm>
-0.573671

>  <RMSD>
5.815

$$$$
ligand
 OpenBabel11021811463D
libRbt.so/2013.1/901 2013/11/27
 16 16  0  0  0  0  0  0  0  0999 V2000
   46.3269   11.1442   16.7008 P   0  0  2  0  0  0  0  0  0  0  0  0
   46.8317   11.1012   18.0953 O   0  0  0  0  0  0  0  0  0  0  0  0
   44.7204   11.2328   16.7134 O   0  5  0  0  0  0  0  0  0  0  0  0
   46.7691    9.7928   15.9407 O   0  0  0  0  0  0  0  0  0  0  0  0
   47.8668   14.3208   11.5675 C   0  0  2  0  0  0  0  0  0  0  0  0
   49.2452   14.4499   11.9350 O   0  0  0  0  0  0  0  0  0  0  0  0
   47.1129   15.6571   11.7908 C   0  0  2  0  0  0  0  0  0  0  0  0
   47.7471   16.7263   10.9961 N   0  0  0  0  0  0  0  0  0  0  0  0
   47.1712   16.0088   13.2869 C   0  0  1  0  0  0  0  0  0  0  0  0
   46.4687   17.2298   13.5335 O   0  0  0  0  0  0  0  0  0  0  0  0
   46.5068   14.8726   14.0624 C   0  0  2  0  0  0  0  0  0  0  0  0
   46.5520   15.1769   15.4506 O   0  0  0  0  0  0  0  0  0  0  0  0
   47.2805   13.5560   13.7796 C   0  0  2  0  0  0  0  0  0  0  0  0
   47.2562   13.2501   12.3516 O   0  0  0  0  0  0  0  0  0  0  0  0
   46.6378   12.3701   14.5407 C   0  0  0  0  0  0  0  0  0  0  0  0
   46.9403   12.4403   15.9461 O   0  0  0  0  0  0  0  0  0  0  0  0
  1  2  1  1  0  0  0
  1  3  1  0  0  0  0
  1  4  2  0  0  0  0
  1 16  1  0  0  0  0
  5  6  1  1  0  0  0
  5  7  1  0  0  0  0
  5 14  1  0  0  0  0
  7  8  1  6  0  0  0
  7  9  1  0  0  0  0
  9 10  1  6  0  0  0
  9 11  1  0  0  0  0
 11 12  1  1  0  0  0
 11 13  1  0  0  0  0
 13 14  1  0  0  0  0
 13 15  1  1  0  0  0
 15 16  1  0  0  0  0
M  CHG  1   3  -1
M  END
>  <CHROM.1>
-74.08469978,-176.80182709,170.51621172,46.90990850,13.47295797,14.41589050
-1.97866661,1.07843004,-0.40638692

>  <Name>
ligand

>  <RI>
0

>  <Rbt.Current_Directory>
/home/itssahil/PROJECTS/Mol_Feturizer/New_Systems/rnas/3B4C

>  <Rbt.Executable>
rbdock ($Id: //depot/dev/client3/rdock/2013.1/src/exe/rbdock.cxx#4 $)

>  <Rbt.Library>
libRbt.so (2013.1, Build901 2013/11/27)

>  <Rbt.Parameter_File>
/export/apps/rDock/src/rDock_2013.1_src/data/scripts/dock_solv.prm

>  <Rbt.Receptor>
prm/pocket_docking_7.prm

>  <SCORE>
-9.65372

>  <SCORE.INTER>
-8.67595

>  <SCORE.INTER.CONST>
1

>  <SCORE.INTER.POLAR>
-0.848528

>  <SCORE.INTER.ROT>
3

>  <SCORE.INTER.SOLV>
14.1145

>  <SCORE.INTER.VDW>
-13.2604

>  <SCORE.INTER.norm>
-0.542247

>  <SCORE.INTRA>
-0.977775

>  <SCORE.INTRA.DIHEDRAL>
-1.25562

>  <SCORE.INTRA.DIHEDRAL.0>
2.1318

>  <SCORE.INTRA.POLAR>
0

>  <SCORE.INTRA.POLAR.0>
0

>  <SCORE.INTRA.REPUL>
0

>  <SCORE.INTRA.REPUL.0>
0

>  <SCORE.INTRA.SOLV>
-0.103952

>  <SCORE.INTRA.SOLV.lig_0>
-58.6125

>  <SCORE.INTRA.VDW>
-0.29799

>  <SCORE.INTRA.VDW.0>
-0.432734

>  <SCORE.INTRA.norm>
-0.061111

>  <SCORE.RESTR>
0

>  <SCORE.RESTR.CAVITY>
0

>  <SCORE.RESTR.norm>
0

>  <SCORE.SYSTEM>
0

>  <SCORE.SYSTEM.CONST>
0

>  <SCORE.SYSTEM.DIHEDRAL>
0

>  <SCORE.SYSTEM.SOLV>
0

>  <SCORE.SYSTEM.norm>
0

>  <SCORE.heavy>
16

>  <SCORE.norm>
-0.603358

>  <RMSD>
5.816

$$$$
ligand
 OpenBabel11021811463D
libRbt.so/2013.1/901 2013/11/27
 16 16  0  0  0  0  0  0  0  0999 V2000
   44.1105   16.3660   14.1474 P   0  0  2  0  0  0  0  0  0  0  0  0
   44.1006   17.6082   14.9587 O   0  0  0  0  0  0  0  0  0  0  0  0
   45.3086   16.4340   13.0756 O   0  5  0  0  0  0  0  0  0  0  0  0
   42.7101   16.2437   13.3578 O   0  0  0  0  0  0  0  0  0  0  0  0
   45.0814   11.2976   16.9578 C   0  0  2  0  0  0  0  0  0  0  0  0
   45.5568   11.9901   18.1181 O   0  0  0  0  0  0  0  0  0  0  0  0
   46.1900   10.3860   16.3714 C   0  0  2  0  0  0  0  0  0  0  0  0
   46.6287    9.4149   17.3918 N   0  0  0  0  0  0  0  0  0  0  0  0
   47.3740   11.2685   15.9418 C   0  0  1  0  0  0  0  0  0  0  0  0
   48.4111   10.4610   15.3781 O   0  0  0  0  0  0  0  0  0  0  0  0
   46.8673   12.2547   14.8908 C   0  0  2  0  0  0  0  0  0  0  0  0
   47.9476   13.0834   14.4808 O   0  0  0  0  0  0  0  0  0  0  0  0
   45.7408   13.1193   15.5195 C   0  0  2  0  0  0  0  0  0  0  0  0
   44.6376   12.2707   15.9627 O   0  0  0  0  0  0  0  0  0  0  0  0
   45.1886   14.1326   14.4867 C   0  0  0  0  0  0  0  0  0  0  0  0
   44.3201   15.0885   15.1219 O   0  0  0  0  0  0  0  0  0  0  0  0
  1  2  1  1  0  0  0
  1  3  1  0  0  0  0
  1  4  2  0  0  0  0
  1 16  1  0  0  0  0
  5  6  1  1  0  0  0
  5  7  1  0  0  0  0
  5 14  1  0  0  0  0
  7  8  1  1  0  0  0
  7  9  1  0  0  0  0
  9 10  1  6  0  0  0
  9 11  1  0  0  0  0
 11 12  1  1  0  0  0
 11 13  1  0  0  0  0
 13 14  1  0  0  0  0
 13 15  1  6  0  0  0
 15 16  1  0  0  0  0
M  CHG  1   3  -1
M  END
>  <CHROM.1>
-169.78183785,163.38822378,-140.93980049,45.50456628,13.51533048,15.27014018
2.05917943,0.52995201,-0.66071007

>  <Name>
ligand

>  <RI>
0

>  <Rbt.Current_Directory>
/home/itssahil/PROJECTS/Mol_Feturizer/New_Systems/rnas/3B4C

>  <Rbt.Executable>
rbdock ($Id: //depot/dev/client3/rdock/2013.1/src/exe/rbdock.cxx#4 $)

>  <Rbt.Library>
libRbt.so (2013.1, Build901 2013/11/27)

>  <Rbt.Parameter_File>
/export/apps/rDock/src/rDock_2013.1_src/data/scripts/dock_solv.prm

>  <Rbt.Receptor>
prm/pocket_docking_6.prm

>  <SCORE>
-8.62107

>  <SCORE.INTER>
-9.50799

>  <SCORE.INTER.CONST>
1

>  <SCORE.INTER.POLAR>
-0.741742

>  <SCORE.INTER.ROT>
3

>  <SCORE.INTER.SOLV>
26.4294

>  <SCORE.INTER.VDW>
-18.276

>  <SCORE.INTER.norm>
-0.594249

>  <SCORE.INTRA>
0.878681

>  <SCORE.INTRA.DIHEDRAL>
1.27371

>  <SCORE.INTRA.DIHEDRAL.0>
2.1318

>  <SCORE.INTRA.POLAR>
0

>  <SCORE.INTRA.POLAR.0>
0

>  <SCORE.INTRA.REPUL>
0

>  <SCORE.INTRA.REPUL.0>
0

>  <SCORE.INTRA.SOLV>
-0.488349

>  <SCORE.INTRA.SOLV.lig_0>
-58.6125

>  <SCORE.INTRA.VDW>
0.485998

>  <SCORE.INTRA.VDW.0>
-0.432734

>  <SCORE.INTRA.norm>
0.0549175

>  <SCORE.RESTR>
0.0082414

>  <SCORE.RESTR.CAVITY>
0.0082414

>  <SCORE.RESTR.norm>
0.000515088

>  <SCORE.SYSTEM>
0

>  <SCORE.SYSTEM.CONST>
0

>  <SCORE.SYSTEM.DIHEDRAL>
0

>  <SCORE.SYSTEM.SOLV>
0

>  <SCORE.SYSTEM.norm>
0

>  <SCORE.heavy>
16

>  <SCORE.norm>
-0.538817

>  <RMSD>
5.909

$$$$
ligand
 OpenBabel11021811463D
libRbt.so/2013.1/901 2013/11/27
 16 16  0  0  0  0  0  0  0  0999 V2000
   45.4673   11.5080   16.6115 P   0  0  2  0  0  0  0  0  0  0  0  0
   45.6159   12.1340   17.9484 O   0  0  0  0  0  0  0  0  0  0  0  0
   43.9129   11.4911   16.1961 O   0  5  0  0  0  0  0  0  0  0  0  0
   46.0057    9.9898   16.6800 O   0  0  0  0  0  0  0  0  0  0  0  0
   47.3305   14.7261   12.1719 C   0  0  2  0  0  0  0  0  0  0  0  0
   47.0409   14.2255   10.8614 O   0  0  0  0  0  0  0  0  0  0  0  0
   48.8499   14.6386   12.4682 C   0  0  2  0  0  0  0  0  0  0  0  0
   49.6001   15.4096   11.4585 N   0  0  0  0  0  0  0  0  0  0  0  0
   49.2738   13.1609   12.4234 C   0  0  1  0  0  0  0  0  0  0  0  0
   50.6696   13.0401   12.7106 O   0  0  0  0  0  0  0  0  0  0  0  0
   48.4684   12.4092   13.4817 C   0  0  2  0  0  0  0  0  0  0  0  0
   48.8438   11.0380   13.4556 O   0  0  0  0  0  0  0  0  0  0  0  0
   46.9570   12.5546   13.1554 C   0  0  2  0  0  0  0  0  0  0  0  0
   46.5705   13.9631   13.1591 O   0  0  0  0  0  0  0  0  0  0  0  0
   46.0967   11.8128   14.2081 C   0  0  0  0  0  0  0  0  0  0  0  0
   46.3153   12.3568   15.5225 O   0  0  0  0  0  0  0  0  0  0  0  0
  1  2  1  1  0  0  0
  1  3  1  0  0  0  0
  1  4  2  0  0  0  0
  1 16  1  0  0  0  0
  5  6  1  6  0  0  0
  5  7  1  0  0  0  0
  5 14  1  0  0  0  0
  7  8  1  6  0  0  0
  7  9  1  0  0  0  0
  9 10  1  1  0  0  0
  9 11  1  0  0  0  0
 11 12  1  6  0  0  0
 11 13  1  0  0  0  0
 13 14  1  0  0  0  0
 13 15  1  1  0  0  0
 15 16  1  0  0  0  0
M  CHG  1   3  -1
M  END
>  <CHROM.1>
60.56951660,-176.83184122,-175.81957706,47.14445432,12.64739088,14.15366321
2.18289257,-0.32278407,2.31272380

>  <Name>
ligand

>  <RI>
0

>  <Rbt.Current_Directory>
/home/itssahil/PROJECTS/Mol_Feturizer/New_Systems/rnas/3B4C

>  <Rbt.Executable>
rbdock ($Id: //depot/dev/client3/rdock/2013.1/src/exe/rbdock.cxx#4 $)

>  <Rbt.Library>
libRbt.so (2013.1, Build901 2013/11/27)

>  <Rbt.Parameter_File>
/export/apps/rDock/src/rDock_2013.1_src/data/scripts/dock_solv.prm

>  <Rbt.Receptor>
prm/pocket_docking_7.prm

>  <SCORE>
-6.54439

>  <SCORE.INTER>
-5.06886

>  <SCORE.INTER.CONST>
1

>  <SCORE.INTER.POLAR>
0

>  <SCORE.INTER.ROT>
3

>  <SCORE.INTER.SOLV>
10.1909

>  <SCORE.INTER.VDW>
-12.3762

>  <SCORE.INTER.norm>
-0.316803

>  <SCORE.INTRA>
-1.47553

>  <SCORE.INTRA.DIHEDRAL>
-2.04863

>  <SCORE.INTRA.DIHEDRAL.0>
2.1318

>  <SCORE.INTRA.POLAR>
0

>  <SCORE.INTRA.POLAR.0>
0

>  <SCORE.INTRA.REPUL>
0

>  <SCORE.INTRA.REPUL.0>
0

>  <SCORE.INTRA.SOLV>
-0.170691

>  <SCORE.INTRA.SOLV.lig_0>
-58.6125

>  <SCORE.INTRA.VDW>
-0.365873

>  <SCORE.INTRA.VDW.0>
-0.432734

>  <SCORE.INTRA.norm>
-0.0922209

>  <SCORE.RESTR>
0

>  <SCORE.RESTR.CAVITY>
0

>  <SCORE.RESTR.norm>
0

>  <SCORE.SYSTEM>
0

>  <SCORE.SYSTEM.CONST>
0

>  <SCORE.SYSTEM.DIHEDRAL>
0

>  <SCORE.SYSTEM.SOLV>
0

>  <SCORE.SYSTEM.norm>
0

>  <SCORE.heavy>
16

>  <SCORE.norm>
-0.409024

>  <RMSD>
5.916

$$$$
ligand
 OpenBabel11021811463D
libRbt.so/2013.1/901 2013/11/27
 16 16  0  0  0  0  0  0  0  0999 V2000
   45.1785   13.4411   14.6464 P   0  0  2  0  0  0  0  0  0  0  0  0
   44.1791   13.0559   13.6197 O   0  0  0  0  0  0  0  0  0  0  0  0
   44.8605   12.6693   16.0219 O   0  5  0  0  0  0  0  0  0  0  0  0
   45.0802   15.0296   14.9046 O   0  0  0  0  0  0  0  0  0  0  0  0
   50.3905   11.0837   14.0260 C   0  0  2  0  0  0  0  0  0  0  0  0
   50.8382   11.9434   12.9713 O   0  0  0  0  0  0  0  0  0  0  0  0
   50.4671    9.5975   13.5909 C   0  0  2  0  0  0  0  0  0  0  0  0
   51.8539    9.2573   13.2195 N   0  0  0  0  0  0  0  0  0  0  0  0
   49.5342    9.3908   12.3858 C   0  0  1  0  0  0  0  0  0  0  0  0
   49.5655    8.0236   11.9674 O   0  0  0  0  0  0  0  0  0  0  0  0
   48.1167    9.7585   12.8210 C   0  0  2  0  0  0  0  0  0  0  0  0
   47.2367    9.5766   11.7190 O   0  0  0  0  0  0  0  0  0  0  0  0
   48.1032   11.2439   13.2745 C   0  0  2  0  0  0  0  0  0  0  0  0
   49.0223   11.4412   14.3924 O   0  0  0  0  0  0  0  0  0  0  0  0
   46.6845   11.6624   13.7333 C   0  0  0  0  0  0  0  0  0  0  0  0
   46.6621   13.0463   14.1281 O   0  0  0  0  0  0  0  0  0  0  0  0
  1  2  1  6  0  0  0
  1  3  1  0  0  0  0
  1  4  2  0  0  0  0
  1 16  1  0  0  0  0
  5  6  1  6  0  0  0
  5  7  1  0  0  0  0
  5 14  1  0  0  0  0
  7  8  1  6  0  0  0
  7  9  1  0  0  0  0
  9 10  1  1  0  0  0
  9 11  1  0  0  0  0
 11 12  1  6  0  0  0
 11 13  1  0  0  0  0
 13 14  1  0  0  0  0
 13 15  1  1  0  0  0
 15 16  1  0  0  0  0
M  CHG  1   3  -1
M  END
>  <CHROM.1>
-178.80380642,-178.21635783,-52.51210566,47.71967148,11.46790302,13.67531094
-2.44760932,0.10802184,-2.57366413

>  <Name>
ligand

>  <RI>
0

>  <Rbt.Current_Directory>
/home/itssahil/PROJECTS/Mol_Feturizer/New_Systems/rnas/3B4C

>  <Rbt.Executable>
rbdock ($Id: //depot/dev/client3/rdock/2013.1/src/exe/rbdock.cxx#4 $)

>  <Rbt.Library>
libRbt.so (2013.1, Build901 2013/11/27)

>  <Rbt.Parameter_File>
/export/apps/rDock/src/rDock_2013.1_src/data/scripts/dock_solv.prm

>  <Rbt.Receptor>
prm/pocket_docking_7.prm

>  <SCORE>
-8.42512

>  <SCORE.INTER>
-6.84716

>  <SCORE.INTER.CONST>
1

>  <SCORE.INTER.POLAR>
-1.03898

>  <SCORE.INTER.ROT>
3

>  <SCORE.INTER.SOLV>
14.3885

>  <SCORE.INTER.VDW>
-11.4977

>  <SCORE.INTER.norm>
-0.427948

>  <SCORE.INTRA>
-1.57795

>  <SCORE.INTRA.DIHEDRAL>
-2.01481

>  <SCORE.INTRA.DIHEDRAL.0>
2.1318

>  <SCORE.INTRA.POLAR>
0

>  <SCORE.INTRA.POLAR.0>
0

>  <SCORE.INTRA.REPUL>
0

>  <SCORE.INTRA.REPUL.0>
0

>  <SCORE.INTRA.SOLV>
-1.07481

>  <SCORE.INTRA.SOLV.lig_0>
-58.6125

>  <SCORE.INTRA.VDW>
-0.0331435

>  <SCORE.INTRA.VDW.0>
-0.432734

>  <SCORE.INTRA.norm>
-0.0986219

>  <SCORE.RESTR>
0

>  <SCORE.RESTR.CAVITY>
0

>  <SCORE.RESTR.norm>
0

>  <SCORE.SYSTEM>
0

>  <SCORE.SYSTEM.CONST>
0

>  <SCORE.SYSTEM.DIHEDRAL>
0

>  <SCORE.SYSTEM.SOLV>
0

>  <SCORE.SYSTEM.norm>
0

>  <SCORE.heavy>
16

>  <SCORE.norm>
-0.52657

>  <RMSD>
5.937

$$$$
ligand
 OpenBabel11021811463D
libRbt.so/2013.1/901 2013/11/27
 16 16  0  0  0  0  0  0  0  0999 V2000
   45.9954   11.2945   16.9677 P   0  0  2  0  0  0  0  0  0  0  0  0
   45.4658   12.1528   18.0558 O   0  0  0  0  0  0  0  0  0  0  0  0
   44.7705   10.6466   16.1500 O   0  5  0  0  0  0  0  0  0  0  0  0
   46.8755   10.1090   17.6155 O   0  0  0  0  0  0  0  0  0  0  0  0
   48.0291   13.8732   12.2247 C   0  0  2  0  0  0  0  0  0  0  0  0
   49.2811   14.2717   12.7951 O   0  0  0  0  0  0  0  0  0  0  0  0
   47.2579   15.1041   11.6823 C   0  0  2  0  0  0  0  0  0  0  0  0
   48.0746   15.7971   10.6678 N   0  0  0  0  0  0  0  0  0  0  0  0
   46.9609   16.0526   12.8560 C   0  0  1  0  0  0  0  0  0  0  0  0
   46.2327   17.1938   12.3948 O   0  0  0  0  0  0  0  0  0  0  0  0
   46.1185   15.2881   13.8757 C   0  0  2  0  0  0  0  0  0  0  0  0
   45.8341   16.1476   14.9722 O   0  0  0  0  0  0  0  0  0  0  0  0
   46.9235   14.0521   14.3619 C   0  0  2  0  0  0  0  0  0  0  0  0
   47.2377   13.1765   13.2358 O   0  0  0  0  0  0  0  0  0  0  0  0
   46.1052   13.2388   15.3951 C   0  0  0  0  0  0  0  0  0  0  0  0
   46.9058   12.1902   15.9705 O   0  0  0  0  0  0  0  0  0  0  0  0
  1  2  1  1  0  0  0
  1  3  1  0  0  0  0
  1  4  2  0  0  0  0
  1 16  1  0  0  0  0
  5  6  1  1  0  0  0
  5  7  1  0  0  0  0
  5 14  1  0  0  0  0
  7  8  1  6  0  0  0
  7  9  1  0  0  0  0
  9 10  1  6  0  0  0
  9 11  1  0  0  0  0
 11 12  1  1  0  0  0
 11 13  1  0  0  0  0
 13 14  1  0  0  0  0
 13 15  1  1  0  0  0
 15 16  1  0  0  0  0
M  CHG  1   3  -1
M  END
>  <CHROM.1>
-172.87683635,-176.06859796,-60.42052226,46.68587432,13.56287349,14.58215866
-1.88432785,0.82761676,-0.59189968

>  <Name>
ligand

>  <RI>
0

>  <Rbt.Current_Directory>
/home/itssahil/PROJECTS/Mol_Feturizer/New_Systems/rnas/3B4C

>  <Rbt.Executable>
rbdock ($Id: //depot/dev/client3/rdock/2013.1/src/exe/rbdock.cxx#4 $)

>  <Rbt.Library>
libRbt.so (2013.1, Build901 2013/11/27)

>  <Rbt.Parameter_File>
/export/apps/rDock/src/rDock_2013.1_src/data/scripts/dock_solv.prm

>  <Rbt.Receptor>
prm/pocket_docking_7.prm

>  <SCORE>
-10.8776

>  <SCORE.INTER>
-9.31785

>  <SCORE.INTER.CONST>
1

>  <SCORE.INTER.POLAR>
-0.846648

>  <SCORE.INTER.ROT>
3

>  <SCORE.INTER.SOLV>
16.1897

>  <SCORE.INTER.VDW>
-14.3863

>  <SCORE.INTER.norm>
-0.582366

>  <SCORE.INTRA>
-1.55971

>  <SCORE.INTRA.DIHEDRAL>
-1.86946

>  <SCORE.INTRA.DIHEDRAL.0>
2.1318

>  <SCORE.INTRA.POLAR>
0

>  <SCORE.INTRA.POLAR.0>
0

>  <SCORE.INTRA.REPUL>
0

>  <SCORE.INTRA.REPUL.0>
0

>  <SCORE.INTRA.SOLV>
-0.998699

>  <SCORE.INTRA.SOLV.lig_0>
-58.6125

>  <SCORE.INTRA.VDW>
-0.125635

>  <SCORE.INTRA.VDW.0>
-0.432734

>  <SCORE.INTRA.norm>
-0.0974821

>  <SCORE.RESTR>
0

>  <SCORE.RESTR.CAVITY>
0

>  <SCORE.RESTR.norm>
0

>  <SCORE.SYSTEM>
0

>  <SCORE.SYSTEM.CONST>
0

>  <SCORE.SYSTEM.DIHEDRAL>
0

>  <SCORE.SYSTEM.SOLV>
0

>  <SCORE.SYSTEM.norm>
0

>  <SCORE.heavy>
16

>  <SCORE.norm>
-0.679848

>  <RMSD>
5.966

$$$$
ligand
 OpenBabel11021811463D
libRbt.so/2013.1/901 2013/11/27
 16 16  0  0  0  0  0  0  0  0999 V2000
   44.0748   16.4778   14.1596 P   0  0  2  0  0  0  0  0  0  0  0  0
   44.0657   17.7571   14.9109 O   0  0  0  0  0  0  0  0  0  0  0  0
   45.2358   16.5169   13.0462 O   0  5  0  0  0  0  0  0  0  0  0  0
   42.6523   16.2910   13.4239 O   0  0  0  0  0  0  0  0  0  0  0  0
   44.9696   11.4377   17.0153 C   0  0  2  0  0  0  0  0  0  0  0  0
   45.4286   12.1105   18.1936 O   0  0  0  0  0  0  0  0  0  0  0  0
   46.0724   10.5040   16.4530 C   0  0  2  0  0  0  0  0  0  0  0  0
   46.4593    9.5156   17.4778 N   0  0  0  0  0  0  0  0  0  0  0  0
   47.2885   11.3611   16.0633 C   0  0  1  0  0  0  0  0  0  0  0  0
   48.3216   10.5330   15.5225 O   0  0  0  0  0  0  0  0  0  0  0  0
   46.8349   12.3662   15.0061 C   0  0  2  0  0  0  0  0  0  0  0  0
   47.9455   13.1718   14.6327 O   0  0  0  0  0  0  0  0  0  0  0  0
   45.7119   13.2531   15.6098 C   0  0  2  0  0  0  0  0  0  0  0  0
   44.5770   12.4280   16.0157 O   0  0  0  0  0  0  0  0  0  0  0  0
   45.2129   14.2865   14.5697 C   0  0  0  0  0  0  0  0  0  0  0  0
   44.3423   15.2528   15.1860 O   0  0  0  0  0  0  0  0  0  0  0  0
  1  2  1  1  0  0  0
  1  3  1  0  0  0  0
  1  4  2  0  0  0  0
  1 16  1  0  0  0  0
  5  6  1  1  0  0  0
  5  7  1  0  0  0  0
  5 14  1  0  0  0  0
  7  8  1  1  0  0  0
  7  9  1  0  0  0  0
  9 10  1  6  0  0  0
  9 11  1  0  0  0  0
 11 12  1  1  0  0  0
 11 13  1  0  0  0  0
 13 14  1  0  0  0  0
 13 15  1  6  0  0  0
 15 16  1  0  0  0  0
M  CHG  1   3  -1
M  END
>  <CHROM.1>
-170.18574592,168.78744860,-140.73973695,45.44580117,13.62994564,15.33540713
2.04023451,0.51066315,-0.65372917

>  <Name>
ligand

>  <RI>
0

>  <Rbt.Current_Directory>
/home/itssahil/PROJECTS/Mol_Feturizer/New_Systems/rnas/3B4C

>  <Rbt.Executable>
rbdock ($Id: //depot/dev/client3/rdock/2013.1/src/exe/rbdock.cxx#4 $)

>  <Rbt.Library>
libRbt.so (2013.1, Build901 2013/11/27)

>  <Rbt.Parameter_File>
/export/apps/rDock/src/rDock_2013.1_src/data/scripts/dock_solv.prm

>  <Rbt.Receptor>
prm/pocket_docking_7.prm

>  <SCORE>
-8.90265

>  <SCORE.INTER>
-9.46287

>  <SCORE.INTER.CONST>
1

>  <SCORE.INTER.POLAR>
-0.682612

>  <SCORE.INTER.ROT>
3

>  <SCORE.INTER.SOLV>
26.9286

>  <SCORE.INTER.VDW>
-18.6094

>  <SCORE.INTER.norm>
-0.591429

>  <SCORE.INTRA>
0.560218

>  <SCORE.INTRA.DIHEDRAL>
0.581538

>  <SCORE.INTRA.DIHEDRAL.0>
2.1318

>  <SCORE.INTRA.POLAR>
0

>  <SCORE.INTRA.POLAR.0>
0

>  <SCORE.INTRA.REPUL>
0

>  <SCORE.INTRA.REPUL.0>
0

>  <SCORE.INTRA.SOLV>
-0.497077

>  <SCORE.INTRA.SOLV.lig_0>
-58.6125

>  <SCORE.INTRA.VDW>
0.517988

>  <SCORE.INTRA.VDW.0>
-0.432734

>  <SCORE.INTRA.norm>
0.0350136

>  <SCORE.RESTR>
0

>  <SCORE.RESTR.CAVITY>
0

>  <SCORE.RESTR.norm>
0

>  <SCORE.SYSTEM>
0

>  <SCORE.SYSTEM.CONST>
0

>  <SCORE.SYSTEM.DIHEDRAL>
0

>  <SCORE.SYSTEM.SOLV>
0

>  <SCORE.SYSTEM.norm>
0

>  <SCORE.heavy>
16

>  <SCORE.norm>
-0.556416

>  <RMSD>
5.968

$$$$
ligand
 OpenBabel11021811463D
libRbt.so/2013.1/901 2013/11/27
 16 16  0  0  0  0  0  0  0  0999 V2000
   43.9550   16.4263   14.2306 P   0  0  2  0  0  0  0  0  0  0  0  0
   42.6110   16.2723   13.6214 O   0  0  0  0  0  0  0  0  0  0  0  0
   44.0107   17.7983   15.0694 O   0  5  0  0  0  0  0  0  0  0  0  0
   45.0593   16.4867   13.0573 O   0  0  0  0  0  0  0  0  0  0  0  0
   45.0154   11.4321   17.0373 C   0  0  2  0  0  0  0  0  0  0  0  0
   45.4982   12.0956   18.2114 O   0  0  0  0  0  0  0  0  0  0  0  0
   46.1054   10.5005   16.4474 C   0  0  2  0  0  0  0  0  0  0  0  0
   46.5100    9.5041   17.4574 N   0  0  0  0  0  0  0  0  0  0  0  0
   47.3154   11.3582   16.0405 C   0  0  1  0  0  0  0  0  0  0  0  0
   48.3363   10.5322   15.4741 O   0  0  0  0  0  0  0  0  0  0  0  0
   46.8436   12.3718   14.9994 C   0  0  2  0  0  0  0  0  0  0  0  0
   47.9483   13.1780   14.6106 O   0  0  0  0  0  0  0  0  0  0  0  0
   45.7340   13.2562   15.6309 C   0  0  2  0  0  0  0  0  0  0  0  0
   44.6056   12.4303   16.0525 O   0  0  0  0  0  0  0  0  0  0  0  0
   45.2172   14.2980   14.6080 C   0  0  0  0  0  0  0  0  0  0  0  0
   44.2472   15.1719   15.2138 O   0  0  0  0  0  0  0  0  0  0  0  0
  1  2  1  6  0  0  0
  1  3  1  0  0  0  0
  1  4  2  0  0  0  0
  1 16  1  0  0  0  0
  5  6  1  1  0  0  0
  5  7  1  0  0  0  0
  5 14  1  0  0  0  0
  7  8  1  1  0  0  0
  7  9  1  0  0  0  0
  9 10  1  6  0  0  0
  9 11  1  0  0  0  0
 11 12  1  1  0  0  0
 11 13  1  0  0  0  0
 13 14  1  0  0  0  0
 13 15  1  6  0  0  0
 15 16  1  0  0  0  0
M  CHG  1   3  -1
M  END
>  <CHROM.1>
-176.50406387,168.34468968,107.22079489,45.42517902,13.61735230,15.36961678
2.07437295,0.53177497,-0.66566116

>  <Name>
ligand

>  <RI>
0

>  <Rbt.Current_Directory>
/home/itssahil/PROJECTS/Mol_Feturizer/New_Systems/rnas/3B4C

>  <Rbt.Executable>
rbdock ($Id: //depot/dev/client3/rdock/2013.1/src/exe/rbdock.cxx#4 $)

>  <Rbt.Library>
libRbt.so (2013.1, Build901 2013/11/27)

>  <Rbt.Parameter_File>
/export/apps/rDock/src/rDock_2013.1_src/data/scripts/dock_solv.prm

>  <Rbt.Receptor>
prm/pocket_docking_7.prm

>  <SCORE>
-11.2232

>  <SCORE.INTER>
-11.8864

>  <SCORE.INTER.CONST>
1

>  <SCORE.INTER.POLAR>
-0.837787

>  <SCORE.INTER.ROT>
3

>  <SCORE.INTER.SOLV>
23.4654

>  <SCORE.INTER.VDW>
-18.5534

>  <SCORE.INTER.norm>
-0.742898

>  <SCORE.INTRA>
0.663189

>  <SCORE.INTRA.DIHEDRAL>
0.710473

>  <SCORE.INTRA.DIHEDRAL.0>
2.1318

>  <SCORE.INTRA.POLAR>
0

>  <SCORE.INTRA.POLAR.0>
0

>  <SCORE.INTRA.REPUL>
0

>  <SCORE.INTRA.REPUL.0>
0

>  <SCORE.INTRA.SOLV>
-0.633885

>  <SCORE.INTRA.SOLV.lig_0>
-58.6125

>  <SCORE.INTRA.VDW>
0.624895

>  <SCORE.INTRA.VDW.0>
-0.432734

>  <SCORE.INTRA.norm>
0.0414493

>  <SCORE.RESTR>
0

>  <SCORE.RESTR.CAVITY>
0

>  <SCORE.RESTR.norm>
0

>  <SCORE.SYSTEM>
0

>  <SCORE.SYSTEM.CONST>
0

>  <SCORE.SYSTEM.DIHEDRAL>
0

>  <SCORE.SYSTEM.SOLV>
0

>  <SCORE.SYSTEM.norm>
0

>  <SCORE.heavy>
16

>  <SCORE.norm>
-0.701448

>  <RMSD>
6.006

$$$$
ligand
 OpenBabel11021811463D
libRbt.so/2013.1/901 2013/11/27
 16 16  0  0  0  0  0  0  0  0999 V2000
   43.8878   16.3726   14.2962 P   0  0  2  0  0  0  0  0  0  0  0  0
   42.5299   16.3168   13.7009 O   0  0  0  0  0  0  0  0  0  0  0  0
   44.0149   17.6818   15.2227 O   0  5  0  0  0  0  0  0  0  0  0  0
   44.9771   16.4642   13.1110 O   0  0  0  0  0  0  0  0  0  0  0  0
   45.0532   11.3422   16.9783 C   0  0  2  0  0  0  0  0  0  0  0  0
   45.5245   12.0022   18.1590 O   0  0  0  0  0  0  0  0  0  0  0  0
   46.1637   10.4462   16.3716 C   0  0  2  0  0  0  0  0  0  0  0  0
   46.5976    9.4471   17.3668 N   0  0  0  0  0  0  0  0  0  0  0  0
   47.3500   11.3393   15.9711 C   0  0  1  0  0  0  0  0  0  0  0  0
   48.3888   10.5468   15.3897 O   0  0  0  0  0  0  0  0  0  0  0  0
   46.8482   12.3542   14.9455 C   0  0  2  0  0  0  0  0  0  0  0  0
   47.9306   13.1931   14.5628 O   0  0  0  0  0  0  0  0  0  0  0  0
   45.7196   13.2021   15.5932 C   0  0  2  0  0  0  0  0  0  0  0  0
   44.6142   12.3426   16.0085 O   0  0  0  0  0  0  0  0  0  0  0  0
   45.1723   14.2438   14.5863 C   0  0  0  0  0  0  0  0  0  0  0  0
   44.1389   15.0440   15.1892 O   0  0  0  0  0  0  0  0  0  0  0  0
  1  2  1  6  0  0  0
  1  3  1  0  0  0  0
  1  4  2  0  0  0  0
  1 16  1  0  0  0  0
  5  6  1  1  0  0  0
  5  7  1  0  0  0  0
  5 14  1  0  0  0  0
  7  8  1  1  0  0  0
  7  9  1  0  0  0  0
  9 10  1  6  0  0  0
  9 11  1  0  0  0  0
 11 12  1  1  0  0  0
 11 13  1  0  0  0  0
 13 14  1  0  0  0  0
 13 15  1  6  0  0  0
 15 16  1  0  0  0  0
M  CHG  1   3  -1
M  END
>  <CHROM.1>
-179.19574910,163.73361008,113.65832984,45.41299845,13.56873404,15.35826041
2.09637604,0.52574737,-0.65546820

>  <Name>
ligand

>  <RI>
0

>  <Rbt.Current_Directory>
/home/itssahil/PROJECTS/Mol_Feturizer/New_Systems/rnas/3B4C

>  <Rbt.Executable>
rbdock ($Id: //depot/dev/client3/rdock/2013.1/src/exe/rbdock.cxx#4 $)

>  <Rbt.Library>
libRbt.so (2013.1, Build901 2013/11/27)

>  <Rbt.Parameter_File>
/export/apps/rDock/src/rDock_2013.1_src/data/scripts/dock_solv.prm

>  <Rbt.Receptor>
prm/pocket_docking_6.prm

>  <SCORE>
-11.0154

>  <SCORE.INTER>
-12.1719

>  <SCORE.INTER.CONST>
1

>  <SCORE.INTER.POLAR>
-0.914186

>  <SCORE.INTER.ROT>
3

>  <SCORE.INTER.SOLV>
23.3565

>  <SCORE.INTER.VDW>
-18.4528

>  <SCORE.INTER.norm>
-0.760742

>  <SCORE.INTRA>
1.15325

>  <SCORE.INTRA.DIHEDRAL>
1.43827

>  <SCORE.INTRA.DIHEDRAL.0>
2.1318

>  <SCORE.INTRA.POLAR>
0

>  <SCORE.INTRA.POLAR.0>
0

>  <SCORE.INTRA.REPUL>
0

>  <SCORE.INTRA.REPUL.0>
0

>  <SCORE.INTRA.SOLV>
-0.582603

>  <SCORE.INTRA.SOLV.lig_0>
-58.6125

>  <SCORE.INTRA.VDW>
0.725419

>  <SCORE.INTRA.VDW.0>
-0.432734

>  <SCORE.INTRA.norm>
0.0720781

>  <SCORE.RESTR>
0.00325935

>  <SCORE.RESTR.CAVITY>
0.00325935

>  <SCORE.RESTR.norm>
0.000203709

>  <SCORE.SYSTEM>
0

>  <SCORE.SYSTEM.CONST>
0

>  <SCORE.SYSTEM.DIHEDRAL>
0

>  <SCORE.SYSTEM.SOLV>
0

>  <SCORE.SYSTEM.norm>
0

>  <SCORE.heavy>
16

>  <SCORE.norm>
-0.68846

>  <RMSD>
6.015

$$$$
ligand
 OpenBabel11021811463D
libRbt.so/2013.1/901 2013/11/27
 16 16  0  0  0  0  0  0  0  0999 V2000
   43.9904   16.5045   14.1624 P   0  0  2  0  0  0  0  0  0  0  0  0
   42.6685   16.3224   13.5137 O   0  0  0  0  0  0  0  0  0  0  0  0
   44.0127   17.9060   14.9523 O   0  5  0  0  0  0  0  0  0  0  0  0
   45.1340   16.5276   13.0260 O   0  0  0  0  0  0  0  0  0  0  0  0
   44.9269   11.4589   17.0422 C   0  0  2  0  0  0  0  0  0  0  0  0
   45.3481   12.1527   18.2224 O   0  0  0  0  0  0  0  0  0  0  0  0
   46.0677   10.5607   16.4983 C   0  0  2  0  0  0  0  0  0  0  0  0
   46.4755    9.5911   17.5330 N   0  0  0  0  0  0  0  0  0  0  0  0
   47.2586   11.4569   16.1189 C   0  0  1  0  0  0  0  0  0  0  0  0
   48.3259   10.6621   15.5951 O   0  0  0  0  0  0  0  0  0  0  0  0
   46.7840   12.4409   15.0509 C   0  0  2  0  0  0  0  0  0  0  0  0
   47.8710   13.2821   14.6868 O   0  0  0  0  0  0  0  0  0  0  0  0
   45.6241   13.2917   15.6363 C   0  0  2  0  0  0  0  0  0  0  0  0
   44.5131   12.4303   16.0327 O   0  0  0  0  0  0  0  0  0  0  0  0
   45.1030   14.3024   14.5848 C   0  0  0  0  0  0  0  0  0  0  0  0
   44.2529   15.2877   15.1997 O   0  0  0  0  0  0  0  0  0  0  0  0
  1  2  1  6  0  0  0
  1  3  1  0  0  0  0
  1  4  2  0  0  0  0
  1 16  1  0  0  0  0
  5  6  1  1  0  0  0
  5  7  1  0  0  0  0
  5 14  1  0  0  0  0
  7  8  1  1  0  0  0
  7  9  1  0  0  0  0
  9 10  1  6  0  0  0
  9 11  1  0  0  0  0
 11 12  1  1  0  0  0
 11 13  1  0  0  0  0
 13 14  1  0  0  0  0
 13 15  1  6  0  0  0
 15 16  1  0  0  0  0
M  CHG  1   3  -1
M  END
>  <CHROM.1>
-166.88408698,167.58099009,99.31226878,45.39097635,13.68548708,15.36881129
2.04197564,0.50168873,-0.65597459

>  <Name>
ligand

>  <RI>
0

>  <Rbt.Current_Directory>
/home/itssahil/PROJECTS/Mol_Feturizer/New_Systems/rnas/3B4C

>  <Rbt.Executable>
rbdock ($Id: //depot/dev/client3/rdock/2013.1/src/exe/rbdock.cxx#4 $)

>  <Rbt.Library>
libRbt.so (2013.1, Build901 2013/11/27)

>  <Rbt.Parameter_File>
/export/apps/rDock/src/rDock_2013.1_src/data/scripts/dock_solv.prm

>  <Rbt.Receptor>
prm/pocket_docking_7.prm

>  <SCORE>
-11.0091

>  <SCORE.INTER>
-11.5496

>  <SCORE.INTER.CONST>
1

>  <SCORE.INTER.POLAR>
-0.775752

>  <SCORE.INTER.ROT>
3

>  <SCORE.INTER.SOLV>
23.5701

>  <SCORE.INTER.VDW>
-18.5706

>  <SCORE.INTER.norm>
-0.721849

>  <SCORE.INTRA>
0.540503

>  <SCORE.INTRA.DIHEDRAL>
0.974437

>  <SCORE.INTRA.DIHEDRAL.0>
2.1318

>  <SCORE.INTRA.POLAR>
0

>  <SCORE.INTRA.POLAR.0>
0

>  <SCORE.INTRA.REPUL>
0

>  <SCORE.INTRA.REPUL.0>
0

>  <SCORE.INTRA.SOLV>
-0.717166

>  <SCORE.INTRA.SOLV.lig_0>
-58.6125

>  <SCORE.INTRA.VDW>
0.411867

>  <SCORE.INTRA.VDW.0>
-0.432734

>  <SCORE.INTRA.norm>
0.0337814

>  <SCORE.RESTR>
0

>  <SCORE.RESTR.CAVITY>
0

>  <SCORE.RESTR.norm>
0

>  <SCORE.SYSTEM>
0

>  <SCORE.SYSTEM.CONST>
0

>  <SCORE.SYSTEM.DIHEDRAL>
0

>  <SCORE.SYSTEM.SOLV>
0

>  <SCORE.SYSTEM.norm>
0

>  <SCORE.heavy>
16

>  <SCORE.norm>
-0.688068

>  <RMSD>
6.031

$$$$
ligand
 OpenBabel11021811463D
libRbt.so/2013.1/901 2013/11/27
 16 16  0  0  0  0  0  0  0  0999 V2000
   46.6705   11.3855   16.7629 P   0  0  2  0  0  0  0  0  0  0  0  0
   45.8777   11.6263   17.9937 O   0  0  0  0  0  0  0  0  0  0  0  0
   45.8711   10.3764   15.7978 O   0  5  0  0  0  0  0  0  0  0  0  0
   48.0789   10.7137   17.1688 O   0  0  0  0  0  0  0  0  0  0  0  0
   47.0333   16.0468   13.3505 C   0  0  2  0  0  0  0  0  0  0  0  0
   47.6131   16.8901   14.3528 O   0  0  0  0  0  0  0  0  0  0  0  0
   45.7113   16.6577   12.8184 C   0  0  2  0  0  0  0  0  0  0  0  0
   45.9709   17.9980   12.2590 N   0  0  0  0  0  0  0  0  0  0  0  0
   44.7137   16.7588   13.9846 C   0  0  1  0  0  0  0  0  0  0  0  0
   43.4733   17.3029   13.5258 O   0  0  0  0  0  0  0  0  0  0  0  0
   44.4826   15.3498   14.5281 C   0  0  2  0  0  0  0  0  0  0  0  0
   43.5634   15.4207   15.6106 O   0  0  0  0  0  0  0  0  0  0  0  0
   45.8397   14.7748   15.0177 C   0  0  2  0  0  0  0  0  0  0  0  0
   46.7952   14.7203   13.9143 O   0  0  0  0  0  0  0  0  0  0  0  0
   45.6573   13.3404   15.5726 C   0  0  0  0  0  0  0  0  0  0  0  0
   46.9182   12.7926   15.9985 O   0  0  0  0  0  0  0  0  0  0  0  0
  1  2  1  1  0  0  0
  1  3  1  0  0  0  0
  1  4  2  0  0  0  0
  1 16  1  0  0  0  0
  5  6  1  1  0  0  0
  5  7  1  0  0  0  0
  5 14  1  0  0  0  0
  7  8  1  1  0  0  0
  7  9  1  0  0  0  0
  9 10  1  6  0  0  0
  9 11  1  0  0  0  0
 11 12  1  1  0  0  0
 11 13  1  0  0  0  0
 13 14  1  0  0  0  0
 13 15  1  6  0  0  0
 15 16  1  0  0  0  0
M  CHG  1   3  -1
M  END
>  <CHROM.1>
178.65481130,172.02589852,-63.51865324,45.95920511,14.22244694,15.09928406
-1.36726096,0.20844438,-0.57897977

>  <Name>
ligand

>  <RI>
0

>  <Rbt.Current_Directory>
/home/itssahil/PROJECTS/Mol_Feturizer/New_Systems/rnas/3B4C

>  <Rbt.Executable>
rbdock ($Id: //depot/dev/client3/rdock/2013.1/src/exe/rbdock.cxx#4 $)

>  <Rbt.Library>
libRbt.so (2013.1, Build901 2013/11/27)

>  <Rbt.Parameter_File>
/export/apps/rDock/src/rDock_2013.1_src/data/scripts/dock_solv.prm

>  <Rbt.Receptor>
prm/pocket_docking_6.prm

>  <SCORE>
-10.746

>  <SCORE.INTER>
-9.22301

>  <SCORE.INTER.CONST>
1

>  <SCORE.INTER.POLAR>
-0.844097

>  <SCORE.INTER.ROT>
3

>  <SCORE.INTER.SOLV>
21.7367

>  <SCORE.INTER.VDW>
-16.1806

>  <SCORE.INTER.norm>
-0.576438

>  <SCORE.INTRA>
-1.52294

>  <SCORE.INTRA.DIHEDRAL>
-1.79464

>  <SCORE.INTRA.DIHEDRAL.0>
2.1318

>  <SCORE.INTRA.POLAR>
0

>  <SCORE.INTRA.POLAR.0>
0

>  <SCORE.INTRA.REPUL>
0

>  <SCORE.INTRA.REPUL.0>
0

>  <SCORE.INTRA.SOLV>
-1.02609

>  <SCORE.INTRA.SOLV.lig_0>
-58.6125

>  <SCORE.INTRA.VDW>
-0.112576

>  <SCORE.INTRA.VDW.0>
-0.432734

>  <SCORE.INTRA.norm>
-0.0951837

>  <SCORE.RESTR>
0

>  <SCORE.RESTR.CAVITY>
0

>  <SCORE.RESTR.norm>
0

>  <SCORE.SYSTEM>
0

>  <SCORE.SYSTEM.CONST>
0

>  <SCORE.SYSTEM.DIHEDRAL>
0

>  <SCORE.SYSTEM.SOLV>
0

>  <SCORE.SYSTEM.norm>
0

>  <SCORE.heavy>
16

>  <SCORE.norm>
-0.671622

>  <RMSD>
6.073

$$$$
ligand
 OpenBabel11021811463D
libRbt.so/2013.1/901 2013/11/27
 16 16  0  0  0  0  0  0  0  0999 V2000
   44.3465   15.5776   14.4608 P   0  0  2  0  0  0  0  0  0  0  0  0
   43.1083   15.8149   13.6785 O   0  0  0  0  0  0  0  0  0  0  0  0
   44.0065   15.6266   16.0327 O   0  5  0  0  0  0  0  0  0  0  0  0
   45.4126   16.7384   14.1209 O   0  0  0  0  0  0  0  0  0  0  0  0
   48.1577   11.5438   12.9970 C   0  0  2  0  0  0  0  0  0  0  0  0
   47.2070   10.5504   12.5955 O   0  0  0  0  0  0  0  0  0  0  0  0
   49.0952   10.9902   14.1010 C   0  0  2  0  0  0  0  0  0  0  0  0
   49.7991    9.7928   13.6033 N   0  0  0  0  0  0  0  0  0  0  0  0
   48.2445   10.6274   15.3299 C   0  0  1  0  0  0  0  0  0  0  0  0
   49.0805   10.1288   16.3776 O   0  0  0  0  0  0  0  0  0  0  0  0
   47.5370   11.8964   15.8022 C   0  0  2  0  0  0  0  0  0  0  0  0
   46.7418   11.5824   16.9383 O   0  0  0  0  0  0  0  0  0  0  0  0
   46.6378   12.4243   14.6512 C   0  0  2  0  0  0  0  0  0  0  0  0
   47.4470   12.7277   13.4737 O   0  0  0  0  0  0  0  0  0  0  0  0
   45.9030   13.7181   15.0813 C   0  0  0  0  0  0  0  0  0  0  0  0
   44.9550   14.1254   14.0778 O   0  0  0  0  0  0  0  0  0  0  0  0
  1  2  1  6  0  0  0
  1  3  1  0  0  0  0
  1  4  2  0  0  0  0
  1 16  1  0  0  0  0
  5  6  1  1  0  0  0
  5  7  1  0  0  0  0
  5 14  1  0  0  0  0
  7  8  1  6  0  0  0
  7  9  1  0  0  0  0
  9 10  1  1  0  0  0
  9 11  1  0  0  0  0
 11 12  1  1  0  0  0
 11 13  1  0  0  0  0
 13 14  1  0  0  0  0
 13 15  1  1  0  0  0
 15 16  1  0  0  0  0
M  CHG  1   3  -1
M  END
>  <CHROM.1>
-173.42772477,-172.57277954,-163.29949969,46.49938512,12.99930684,14.57958433
-3.03829647,-0.86121276,1.69153862

>  <Name>
ligand

>  <RI>
0

>  <Rbt.Current_Directory>
/home/itssahil/PROJECTS/Mol_Feturizer/New_Systems/rnas/3B4C

>  <Rbt.Executable>
rbdock ($Id: //depot/dev/client3/rdock/2013.1/src/exe/rbdock.cxx#4 $)

>  <Rbt.Library>
libRbt.so (2013.1, Build901 2013/11/27)

>  <Rbt.Parameter_File>
/export/apps/rDock/src/rDock_2013.1_src/data/scripts/dock_solv.prm

>  <Rbt.Receptor>
prm/pocket_docking_6.prm

>  <SCORE>
-9.40562

>  <SCORE.INTER>
-8.50197

>  <SCORE.INTER.CONST>
1

>  <SCORE.INTER.POLAR>
-1.06066

>  <SCORE.INTER.ROT>
3

>  <SCORE.INTER.SOLV>
17.521

>  <SCORE.INTER.VDW>
-13.5728

>  <SCORE.INTER.norm>
-0.531373

>  <SCORE.INTRA>
-0.903655

>  <SCORE.INTRA.DIHEDRAL>
-1.26909

>  <SCORE.INTRA.DIHEDRAL.0>
2.1318

>  <SCORE.INTRA.POLAR>
0

>  <SCORE.INTRA.POLAR.0>
0

>  <SCORE.INTRA.REPUL>
0

>  <SCORE.INTRA.REPUL.0>
0

>  <SCORE.INTRA.SOLV>
-0.364641

>  <SCORE.INTRA.SOLV.lig_0>
-58.6125

>  <SCORE.INTRA.VDW>
-0.0867872

>  <SCORE.INTRA.VDW.0>
-0.432734

>  <SCORE.INTRA.norm>
-0.0564784

>  <SCORE.RESTR>
0

>  <SCORE.RESTR.CAVITY>
0

>  <SCORE.RESTR.norm>
0

>  <SCORE.SYSTEM>
0

>  <SCORE.SYSTEM.CONST>
0

>  <SCORE.SYSTEM.DIHEDRAL>
0

>  <SCORE.SYSTEM.SOLV>
0

>  <SCORE.SYSTEM.norm>
0

>  <SCORE.heavy>
16

>  <SCORE.norm>
-0.587851

>  <RMSD>
6.075

$$$$
ligand
 OpenBabel11021811463D
libRbt.so/2013.1/901 2013/11/27
 16 16  0  0  0  0  0  0  0  0999 V2000
   43.9109   16.5867   13.9340 P   0  0  2  0  0  0  0  0  0  0  0  0
   44.0992   17.5449   15.0510 O   0  0  0  0  0  0  0  0  0  0  0  0
   44.8997   16.9709   12.7242 O   0  5  0  0  0  0  0  0  0  0  0  0
   42.3879   16.6806   13.4131 O   0  0  0  0  0  0  0  0  0  0  0  0
   44.9167   11.7629   16.9098 C   0  0  2  0  0  0  0  0  0  0  0  0
   45.9829   11.8170   17.8648 O   0  0  0  0  0  0  0  0  0  0  0  0
   45.2802   10.8173   15.7361 C   0  0  2  0  0  0  0  0  0  0  0  0
   45.5604    9.4645   16.2539 N   0  0  0  0  0  0  0  0  0  0  0  0
   46.5236   11.3758   15.0237 C   0  0  1  0  0  0  0  0  0  0  0  0
   46.8782   10.5365   13.9214 O   0  0  0  0  0  0  0  0  0  0  0  0
   46.1825   12.7739   14.5110 C   0  0  2  0  0  0  0  0  0  0  0  0
   47.3213   13.3105   13.8499 O   0  0  0  0  0  0  0  0  0  0  0  0
   45.7971   13.6688   15.7205 C   0  0  2  0  0  0  0  0  0  0  0  0
   44.6411   13.1101   16.4168 O   0  0  0  0  0  0  0  0  0  0  0  0
   45.4349   15.0988   15.2488 C   0  0  0  0  0  0  0  0  0  0  0  0
   44.2368   15.0861   14.4513 O   0  0  0  0  0  0  0  0  0  0  0  0
  1  2  1  1  0  0  0
  1  3  1  0  0  0  0
  1  4  2  0  0  0  0
  1 16  1  0  0  0  0
  5  6  1  1  0  0  0
  5  7  1  0  0  0  0
  5 14  1  0  0  0  0
  7  8  1  1  0  0  0
  7  9  1  0  0  0  0
  9 10  1  6  0  0  0
  9 11  1  0  0  0  0
 11 12  1  1  0  0  0
 11 13  1  0  0  0  0
 13 14  1  0  0  0  0
 13 15  1  6  0  0  0
 15 16  1  0  0  0  0
M  CHG  1   3  -1
M  END
>  <CHROM.1>
66.02399848,-178.18579618,-43.89619981,45.14098199,13.82511138,14.95591252
2.11988063,0.89622291,-0.77612192

>  <Name>
ligand

>  <RI>
0

>  <Rbt.Current_Directory>
/home/itssahil/PROJECTS/Mol_Feturizer/New_Systems/rnas/3B4C

>  <Rbt.Executable>
rbdock ($Id: //depot/dev/client3/rdock/2013.1/src/exe/rbdock.cxx#4 $)

>  <Rbt.Library>
libRbt.so (2013.1, Build901 2013/11/27)

>  <Rbt.Parameter_File>
/export/apps/rDock/src/rDock_2013.1_src/data/scripts/dock_solv.prm

>  <Rbt.Receptor>
prm/pocket_docking_6.prm

>  <SCORE>
-10.0425

>  <SCORE.INTER>
-8.77814

>  <SCORE.INTER.CONST>
1

>  <SCORE.INTER.POLAR>
-0.845783

>  <SCORE.INTER.ROT>
3

>  <SCORE.INTER.SOLV>
26.2984

>  <SCORE.INTER.VDW>
-17.399

>  <SCORE.INTER.norm>
-0.548634

>  <SCORE.INTRA>
-1.26435

>  <SCORE.INTRA.DIHEDRAL>
-1.57486

>  <SCORE.INTRA.DIHEDRAL.0>
2.1318

>  <SCORE.INTRA.POLAR>
0

>  <SCORE.INTRA.POLAR.0>
0

>  <SCORE.INTRA.REPUL>
0

>  <SCORE.INTRA.REPUL.0>
0

>  <SCORE.INTRA.SOLV>
-0.95898

>  <SCORE.INTRA.SOLV.lig_0>
-58.6125

>  <SCORE.INTRA.VDW>
0.00256478

>  <SCORE.INTRA.VDW.0>
-0.432734

>  <SCORE.INTRA.norm>
-0.0790222

>  <SCORE.RESTR>
0

>  <SCORE.RESTR.CAVITY>
0

>  <SCORE.RESTR.norm>
0

>  <SCORE.SYSTEM>
0

>  <SCORE.SYSTEM.CONST>
0

>  <SCORE.SYSTEM.DIHEDRAL>
0

>  <SCORE.SYSTEM.SOLV>
0

>  <SCORE.SYSTEM.norm>
0

>  <SCORE.heavy>
16

>  <SCORE.norm>
-0.627656

>  <RMSD>
6.079

$$$$
ligand
 OpenBabel11021811463D
libRbt.so/2013.1/901 2013/11/27
 16 16  0  0  0  0  0  0  0  0999 V2000
   44.1948   15.9268   14.2590 P   0  0  2  0  0  0  0  0  0  0  0  0
   43.0056   16.0126   13.3761 O   0  0  0  0  0  0  0  0  0  0  0  0
   43.7392   16.0997   15.7924 O   0  5  0  0  0  0  0  0  0  0  0  0
   45.2162   17.1156   13.8808 O   0  0  0  0  0  0  0  0  0  0  0  0
   48.3400   11.9400   14.3465 C   0  0  2  0  0  0  0  0  0  0  0  0
   47.7114   11.0431   13.4233 O   0  0  0  0  0  0  0  0  0  0  0  0
   48.6362   11.2246   15.6897 C   0  0  2  0  0  0  0  0  0  0  0  0
   49.5062   10.0570   15.4517 N   0  0  0  0  0  0  0  0  0  0  0  0
   47.3030   10.7699   16.3073 C   0  0  1  0  0  0  0  0  0  0  0  0
   47.5366   10.1200   17.5596 O   0  0  0  0  0  0  0  0  0  0  0  0
   46.4412   12.0115   16.5300 C   0  0  2  0  0  0  0  0  0  0  0  0
   45.2008   11.6128   17.0993 O   0  0  0  0  0  0  0  0  0  0  0  0
   46.2015   12.7049   15.1611 C   0  0  2  0  0  0  0  0  0  0  0  0
   47.4742   13.0969   14.5613 O   0  0  0  0  0  0  0  0  0  0  0  0
   45.3358   13.9770   15.3370 C   0  0  0  0  0  0  0  0  0  0  0  0
   44.9099   14.4864   14.0600 O   0  0  0  0  0  0  0  0  0  0  0  0
  1  2  1  6  0  0  0
  1  3  1  0  0  0  0
  1  4  2  0  0  0  0
  1 16  1  0  0  0  0
  5  6  1  6  0  0  0
  5  7  1  0  0  0  0
  5 14  1  0  0  0  0
  7  8  1  6  0  0  0
  7  9  1  0  0  0  0
  9 10  1  1  0  0  0
  9 11  1  0  0  0  0
 11 12  1  6  0  0  0
 11 13  1  0  0  0  0
 13 14  1  0  0  0  0
 13 15  1  1  0  0  0
 15 16  1  0  0  0  0
M  CHG  1   3  -1
M  END
>  <CHROM.1>
-169.62095269,-171.78626516,-139.35354056,46.09004370,13.27715331,15.09384342
-2.39575371,-0.66614114,2.26246338

>  <Name>
ligand

>  <RI>
0

>  <Rbt.Current_Directory>
/home/itssahil/PROJECTS/Mol_Feturizer/New_Systems/rnas/3B4C

>  <Rbt.Executable>
rbdock ($Id: //depot/dev/client3/rdock/2013.1/src/exe/rbdock.cxx#4 $)

>  <Rbt.Library>
libRbt.so (2013.1, Build901 2013/11/27)

>  <Rbt.Parameter_File>
/export/apps/rDock/src/rDock_2013.1_src/data/scripts/dock_solv.prm

>  <Rbt.Receptor>
prm/pocket_docking_6.prm

>  <SCORE>
-9.40426

>  <SCORE.INTER>
-9.94246

>  <SCORE.INTER.CONST>
1

>  <SCORE.INTER.POLAR>
-1.0546

>  <SCORE.INTER.ROT>
3

>  <SCORE.INTER.SOLV>
20.2066

>  <SCORE.INTER.VDW>
-15.4485

>  <SCORE.INTER.norm>
-0.621403

>  <SCORE.INTRA>
0.538195

>  <SCORE.INTRA.DIHEDRAL>
0.421387

>  <SCORE.INTRA.DIHEDRAL.0>
2.1318

>  <SCORE.INTRA.POLAR>
0

>  <SCORE.INTRA.POLAR.0>
0

>  <SCORE.INTRA.REPUL>
0

>  <SCORE.INTRA.REPUL.0>
0

>  <SCORE.INTRA.SOLV>
-0.450904

>  <SCORE.INTRA.SOLV.lig_0>
-58.6125

>  <SCORE.INTRA.VDW>
0.552953

>  <SCORE.INTRA.VDW.0>
-0.432734

>  <SCORE.INTRA.norm>
0.0336372

>  <SCORE.RESTR>
0

>  <SCORE.RESTR.CAVITY>
0

>  <SCORE.RESTR.norm>
0

>  <SCORE.SYSTEM>
0

>  <SCORE.SYSTEM.CONST>
0

>  <SCORE.SYSTEM.DIHEDRAL>
0

>  <SCORE.SYSTEM.SOLV>
0

>  <SCORE.SYSTEM.norm>
0

>  <SCORE.heavy>
16

>  <SCORE.norm>
-0.587766

>  <RMSD>
6.116

$$$$
ligand
 OpenBabel11021811463D
libRbt.so/2013.1/901 2013/11/27
 16 16  0  0  0  0  0  0  0  0999 V2000
   44.1792   15.9574   14.2507 P   0  0  2  0  0  0  0  0  0  0  0  0
   42.9766   15.9998   13.3828 O   0  0  0  0  0  0  0  0  0  0  0  0
   43.7353   16.0968   15.7909 O   0  5  0  0  0  0  0  0  0  0  0  0
   45.1437   17.1925   13.8716 O   0  0  0  0  0  0  0  0  0  0  0  0
   48.3195   12.0153   14.4605 C   0  0  2  0  0  0  0  0  0  0  0  0
   47.7880   11.1358   13.4626 O   0  0  0  0  0  0  0  0  0  0  0  0
   48.5421   11.2583   15.7952 C   0  0  2  0  0  0  0  0  0  0  0  0
   49.4644   10.1272   15.5793 N   0  0  0  0  0  0  0  0  0  0  0  0
   47.1837   10.7408   16.2977 C   0  0  1  0  0  0  0  0  0  0  0  0
   47.3483   10.0509   17.5395 O   0  0  0  0  0  0  0  0  0  0  0  0
   46.2683   11.9467   16.5017 C   0  0  2  0  0  0  0  0  0  0  0  0
   45.0039   11.4897   16.9647 O   0  0  0  0  0  0  0  0  0  0  0  0
   46.1044   12.6842   15.1447 C   0  0  2  0  0  0  0  0  0  0  0  0
   47.4033   13.1367   14.6533 O   0  0  0  0  0  0  0  0  0  0  0  0
   45.1875   13.9223   15.3028 C   0  0  0  0  0  0  0  0  0  0  0  0
   44.9531   14.5511   14.0296 O   0  0  0  0  0  0  0  0  0  0  0  0
  1  2  1  6  0  0  0
  1  3  1  0  0  0  0
  1  4  2  0  0  0  0
  1 16  1  0  0  0  0
  5  6  1  6  0  0  0
  5  7  1  0  0  0  0
  5 14  1  0  0  0  0
  7  8  1  6  0  0  0
  7  9  1  0  0  0  0
  9 10  1  1  0  0  0
  9 11  1  0  0  0  0
 11 12  1  6  0  0  0
 11 13  1  0  0  0  0
 13 14  1  0  0  0  0
 13 15  1  1  0  0  0
 15 16  1  0  0  0  0
M  CHG  1   3  -1
M  END
>  <CHROM.1>
-175.73146122,-171.67436323,-128.27937956,46.02349373,13.28568275,15.10285820
-2.33233944,-0.60775332,2.34424607

>  <Name>
ligand

>  <RI>
0

>  <Rbt.Current_Directory>
/home/itssahil/PROJECTS/Mol_Feturizer/New_Systems/rnas/3B4C

>  <Rbt.Executable>
rbdock ($Id: //depot/dev/client3/rdock/2013.1/src/exe/rbdock.cxx#4 $)

>  <Rbt.Library>
libRbt.so (2013.1, Build901 2013/11/27)

>  <Rbt.Parameter_File>
/export/apps/rDock/src/rDock_2013.1_src/data/scripts/dock_solv.prm

>  <Rbt.Receptor>
prm/pocket_docking_6.prm

>  <SCORE>
-9.08568

>  <SCORE.INTER>
-9.94924

>  <SCORE.INTER.CONST>
1

>  <SCORE.INTER.POLAR>
-1.05854

>  <SCORE.INTER.ROT>
3

>  <SCORE.INTER.SOLV>
20.2884

>  <SCORE.INTER.VDW>
-15.4672

>  <SCORE.INTER.norm>
-0.621828

>  <SCORE.INTRA>
0.863564

>  <SCORE.INTRA.DIHEDRAL>
0.565742

>  <SCORE.INTRA.DIHEDRAL.0>
2.1318

>  <SCORE.INTRA.POLAR>
0

>  <SCORE.INTRA.POLAR.0>
0

>  <SCORE.INTRA.REPUL>
0

>  <SCORE.INTRA.REPUL.0>
0

>  <SCORE.INTRA.SOLV>
-0.459751

>  <SCORE.INTRA.SOLV.lig_0>
-58.6125

>  <SCORE.INTRA.VDW>
0.810568

>  <SCORE.INTRA.VDW.0>
-0.432734

>  <SCORE.INTRA.norm>
0.0539727

>  <SCORE.RESTR>
0

>  <SCORE.RESTR.CAVITY>
0

>  <SCORE.RESTR.norm>
0

>  <SCORE.SYSTEM>
0

>  <SCORE.SYSTEM.CONST>
0

>  <SCORE.SYSTEM.DIHEDRAL>
0

>  <SCORE.SYSTEM.SOLV>
0

>  <SCORE.SYSTEM.norm>
0

>  <SCORE.heavy>
16

>  <SCORE.norm>
-0.567855

>  <RMSD>
6.127

$$$$
ligand
 OpenBabel11021811463D
libRbt.so/2013.1/901 2013/11/27
 16 16  0  0  0  0  0  0  0  0999 V2000
   43.7347   16.5807   14.0027 P   0  0  2  0  0  0  0  0  0  0  0  0
   42.2905   16.6284   13.6660 O   0  0  0  0  0  0  0  0  0  0  0  0
   44.0419   17.6126   15.1985 O   0  5  0  0  0  0  0  0  0  0  0  0
   44.5903   17.0141   12.7067 O   0  0  0  0  0  0  0  0  0  0  0  0
   44.8332   11.7655   16.8901 C   0  0  2  0  0  0  0  0  0  0  0  0
   45.8517   11.8498   17.8937 O   0  0  0  0  0  0  0  0  0  0  0  0
   45.2776   10.8304   15.7359 C   0  0  2  0  0  0  0  0  0  0  0  0
   45.5713    9.4860   16.2682 N   0  0  0  0  0  0  0  0  0  0  0  0
   46.5367   11.4236   15.0816 C   0  0  1  0  0  0  0  0  0  0  0  0
   46.9658   10.5945   13.9982 O   0  0  0  0  0  0  0  0  0  0  0  0
   46.1807   12.8115   14.5516 C   0  0  2  0  0  0  0  0  0  0  0  0
   47.3335   13.3799   13.9436 O   0  0  0  0  0  0  0  0  0  0  0  0
   45.7143   13.6953   15.7404 C   0  0  2  0  0  0  0  0  0  0  0  0
   44.5431   13.1044   16.3828 O   0  0  0  0  0  0  0  0  0  0  0  0
   45.3343   15.1145   15.2503 C   0  0  0  0  0  0  0  0  0  0  0  0
   44.1310   15.0781   14.4615 O   0  0  0  0  0  0  0  0  0  0  0  0
  1  2  1  6  0  0  0
  1  3  1  0  0  0  0
  1  4  2  0  0  0  0
  1 16  1  0  0  0  0
  5  6  1  1  0  0  0
  5  7  1  0  0  0  0
  5 14  1  0  0  0  0
  7  8  1  1  0  0  0
  7  9  1  0  0  0  0
  9 10  1  6  0  0  0
  9 11  1  0  0  0  0
 11 12  1  1  0  0  0
 11 13  1  0  0  0  0
 13 14  1  0  0  0  0
 13 15  1  6  0  0  0
 15 16  1  0  0  0  0
M  CHG  1   3  -1
M  END
>  <CHROM.1>
69.36192493,178.25606532,-158.35505926,45.06182233,13.84605097,15.00576705
2.12860004,0.85079687,-0.75486301

>  <Name>
ligand

>  <RI>
0

>  <Rbt.Current_Directory>
/home/itssahil/PROJECTS/Mol_Feturizer/New_Systems/rnas/3B4C

>  <Rbt.Executable>
rbdock ($Id: //depot/dev/client3/rdock/2013.1/src/exe/rbdock.cxx#4 $)

>  <Rbt.Library>
libRbt.so (2013.1, Build901 2013/11/27)

>  <Rbt.Parameter_File>
/export/apps/rDock/src/rDock_2013.1_src/data/scripts/dock_solv.prm

>  <Rbt.Receptor>
prm/pocket_docking_7.prm

>  <SCORE>
-13.0886

>  <SCORE.INTER>
-12.3476

>  <SCORE.INTER.CONST>
1

>  <SCORE.INTER.POLAR>
-1.05845

>  <SCORE.INTER.ROT>
3

>  <SCORE.INTER.SOLV>
22.1499

>  <SCORE.INTER.VDW>
-17.6869

>  <SCORE.INTER.norm>
-0.771727

>  <SCORE.INTRA>
-0.741002

>  <SCORE.INTRA.DIHEDRAL>
-1.104

>  <SCORE.INTRA.DIHEDRAL.0>
2.1318

>  <SCORE.INTRA.POLAR>
0

>  <SCORE.INTRA.POLAR.0>
0

>  <SCORE.INTRA.REPUL>
0

>  <SCORE.INTRA.REPUL.0>
0

>  <SCORE.INTRA.SOLV>
-0.214806

>  <SCORE.INTRA.SOLV.lig_0>
-58.6125

>  <SCORE.INTRA.VDW>
-0.0816003

>  <SCORE.INTRA.VDW.0>
-0.432734

>  <SCORE.INTRA.norm>
-0.0463126

>  <SCORE.RESTR>
0

>  <SCORE.RESTR.CAVITY>
0

>  <SCORE.RESTR.norm>
0

>  <SCORE.SYSTEM>
0

>  <SCORE.SYSTEM.CONST>
0

>  <SCORE.SYSTEM.DIHEDRAL>
0

>  <SCORE.SYSTEM.SOLV>
0

>  <SCORE.SYSTEM.norm>
0

>  <SCORE.heavy>
16

>  <SCORE.norm>
-0.81804

>  <RMSD>
6.159

$$$$
ligand
 OpenBabel11021811463D
libRbt.so/2013.1/901 2013/11/27
 16 16  0  0  0  0  0  0  0  0999 V2000
   43.7002   16.7234   13.8898 P   0  0  2  0  0  0  0  0  0  0  0  0
   42.2546   16.7660   13.5583 O   0  0  0  0  0  0  0  0  0  0  0  0
   44.0163   17.7891   15.0530 O   0  5  0  0  0  0  0  0  0  0  0  0
   44.5513   17.1151   12.5776 O   0  0  0  0  0  0  0  0  0  0  0  0
   45.2802   11.9305   16.7052 C   0  0  2  0  0  0  0  0  0  0  0  0
   46.5475   11.9739   17.3715 O   0  0  0  0  0  0  0  0  0  0  0  0
   45.3320   10.9661   15.4922 C   0  0  2  0  0  0  0  0  0  0  0  0
   45.7080    9.6135   15.9460 N   0  0  0  0  0  0  0  0  0  0  0  0
   46.3735   11.4934   14.4909 C   0  0  1  0  0  0  0  0  0  0  0  0
   46.4357   10.6362   13.3478 O   0  0  0  0  0  0  0  0  0  0  0  0
   45.9405   12.8925   14.0562 C   0  0  2  0  0  0  0  0  0  0  0  0
   46.8927   13.4004   13.1304 O   0  0  0  0  0  0  0  0  0  0  0  0
   45.8754   13.8069   15.3099 C   0  0  2  0  0  0  0  0  0  0  0  0
   44.9147   13.2777   16.2744 O   0  0  0  0  0  0  0  0  0  0  0  0
   45.4324   15.2387   14.9196 C   0  0  0  0  0  0  0  0  0  0  0  0
   44.0936   15.2336   14.3912 O   0  0  0  0  0  0  0  0  0  0  0  0
  1  2  1  6  0  0  0
  1  3  1  0  0  0  0
  1  4  2  0  0  0  0
  1 16  1  0  0  0  0
  5  6  1  6  0  0  0
  5  7  1  0  0  0  0
  5 14  1  0  0  0  0
  7  8  1  1  0  0  0
  7  9  1  0  0  0  0
  9 10  1  6  0  0  0
  9 11  1  0  0  0  0
 11 12  1  6  0  0  0
 11 13  1  0  0  0  0
 13 14  1  0  0  0  0
 13 15  1  6  0  0  0
 15 16  1  0  0  0  0
M  CHG  1   3  -1
M  END
>  <CHROM.1>
63.89060000,-175.77525447,-170.64236113,45.08138579,13.96569727,14.69350035
2.45968385,1.08496630,-1.09653312

>  <Name>
ligand

>  <RI>
0

>  <Rbt.Current_Directory>
/home/itssahil/PROJECTS/Mol_Feturizer/New_Systems/rnas/3B4C

>  <Rbt.Executable>
rbdock ($Id: //depot/dev/client3/rdock/2013.1/src/exe/rbdock.cxx#4 $)

>  <Rbt.Library>
libRbt.so (2013.1, Build901 2013/11/27)

>  <Rbt.Parameter_File>
/export/apps/rDock/src/rDock_2013.1_src/data/scripts/dock_solv.prm

>  <Rbt.Receptor>
prm/pocket_docking_7.prm

>  <SCORE>
-13.4325

>  <SCORE.INTER>
-12.0995

>  <SCORE.INTER.CONST>
1

>  <SCORE.INTER.POLAR>
-1.05944

>  <SCORE.INTER.ROT>
3

>  <SCORE.INTER.SOLV>
21.2919

>  <SCORE.INTER.VDW>
-17.2322

>  <SCORE.INTER.norm>
-0.75622

>  <SCORE.INTRA>
-1.333

>  <SCORE.INTRA.DIHEDRAL>
-1.8419

>  <SCORE.INTRA.DIHEDRAL.0>
2.1318

>  <SCORE.INTRA.POLAR>
0

>  <SCORE.INTRA.POLAR.0>
0

>  <SCORE.INTRA.REPUL>
0

>  <SCORE.INTRA.REPUL.0>
0

>  <SCORE.INTRA.SOLV>
-0.166471

>  <SCORE.INTRA.SOLV.lig_0>
-58.6125

>  <SCORE.INTRA.VDW>
-0.328812

>  <SCORE.INTRA.VDW.0>
-0.432734

>  <SCORE.INTRA.norm>
-0.0833123

>  <SCORE.RESTR>
0

>  <SCORE.RESTR.CAVITY>
0

>  <SCORE.RESTR.norm>
0

>  <SCORE.SYSTEM>
0

>  <SCORE.SYSTEM.CONST>
0

>  <SCORE.SYSTEM.DIHEDRAL>
0

>  <SCORE.SYSTEM.SOLV>
0

>  <SCORE.SYSTEM.norm>
0

>  <SCORE.heavy>
16

>  <SCORE.norm>
-0.839533

>  <RMSD>
6.216

$$$$
ligand
 OpenBabel11021811463D
libRbt.so/2013.1/901 2013/11/27
 16 16  0  0  0  0  0  0  0  0999 V2000
   43.7153   16.6884   13.8825 P   0  0  2  0  0  0  0  0  0  0  0  0
   42.2669   16.7280   13.5630 O   0  0  0  0  0  0  0  0  0  0  0  0
   44.0317   17.7254   15.0713 O   0  5  0  0  0  0  0  0  0  0  0  0
   44.5533   17.1217   12.5751 O   0  0  0  0  0  0  0  0  0  0  0  0
   44.7799   11.8852   16.8143 C   0  0  2  0  0  0  0  0  0  0  0  0
   45.7722   11.9792   17.8431 O   0  0  0  0  0  0  0  0  0  0  0  0
   45.2635   10.9574   15.6700 C   0  0  2  0  0  0  0  0  0  0  0  0
   45.5592    9.6155   16.2072 N   0  0  0  0  0  0  0  0  0  0  0  0
   46.5316   11.5662   15.0481 C   0  0  1  0  0  0  0  0  0  0  0  0
   46.9969   10.7441   13.9744 O   0  0  0  0  0  0  0  0  0  0  0  0
   46.1730   12.9510   14.5117 C   0  0  2  0  0  0  0  0  0  0  0  0
   47.3340   13.5336   13.9334 O   0  0  0  0  0  0  0  0  0  0  0  0
   45.6671   13.8271   15.6901 C   0  0  2  0  0  0  0  0  0  0  0  0
   44.4872   13.2217   16.3022 O   0  0  0  0  0  0  0  0  0  0  0  0
   45.2833   15.2428   15.1930 C   0  0  0  0  0  0  0  0  0  0  0  0
   44.1243   15.1890   14.3413 O   0  0  0  0  0  0  0  0  0  0  0  0
  1  2  1  6  0  0  0
  1  3  1  0  0  0  0
  1  4  2  0  0  0  0
  1 16  1  0  0  0  0
  5  6  1  1  0  0  0
  5  7  1  0  0  0  0
  5 14  1  0  0  0  0
  7  8  1  1  0  0  0
  7  9  1  0  0  0  0
  9 10  1  6  0  0  0
  9 11  1  0  0  0  0
 11 12  1  1  0  0  0
 11 13  1  0  0  0  0
 13 14  1  0  0  0  0
 13 15  1  6  0  0  0
 15 16  1  0  0  0  0
M  CHG  1   3  -1
M  END
>  <CHROM.1>
67.60652108,177.91801569,-154.35891430,45.03782671,13.96999546,14.92962863
2.11236294,0.82785823,-0.74716288

>  <Name>
ligand

>  <RI>
0

>  <Rbt.Current_Directory>
/home/itssahil/PROJECTS/Mol_Feturizer/New_Systems/rnas/3B4C

>  <Rbt.Executable>
rbdock ($Id: //depot/dev/client3/rdock/2013.1/src/exe/rbdock.cxx#4 $)

>  <Rbt.Library>
libRbt.so (2013.1, Build901 2013/11/27)

>  <Rbt.Parameter_File>
/export/apps/rDock/src/rDock_2013.1_src/data/scripts/dock_solv.prm

>  <Rbt.Receptor>
prm/pocket_docking_8.prm

>  <SCORE>
-13.1536

>  <SCORE.INTER>
-12.5786

>  <SCORE.INTER.CONST>
1

>  <SCORE.INTER.POLAR>
-1.06066

>  <SCORE.INTER.ROT>
3

>  <SCORE.INTER.SOLV>
21.7304

>  <SCORE.INTER.VDW>
-17.6936

>  <SCORE.INTER.norm>
-0.786162

>  <SCORE.INTRA>
-0.575057

>  <SCORE.INTRA.DIHEDRAL>
-0.965047

>  <SCORE.INTRA.DIHEDRAL.0>
2.1318

>  <SCORE.INTRA.POLAR>
0

>  <SCORE.INTRA.POLAR.0>
0

>  <SCORE.INTRA.REPUL>
0

>  <SCORE.INTRA.REPUL.0>
0

>  <SCORE.INTRA.SOLV>
-0.225959

>  <SCORE.INTRA.SOLV.lig_0>
-58.6125

>  <SCORE.INTRA.VDW>
0.0204455

>  <SCORE.INTRA.VDW.0>
-0.432734

>  <SCORE.INTRA.norm>
-0.0359411

>  <SCORE.RESTR>
0

>  <SCORE.RESTR.CAVITY>
0

>  <SCORE.RESTR.norm>
0

>  <SCORE.SYSTEM>
0

>  <SCORE.SYSTEM.CONST>
0

>  <SCORE.SYSTEM.DIHEDRAL>
0

>  <SCORE.SYSTEM.SOLV>
0

>  <SCORE.SYSTEM.norm>
0

>  <SCORE.heavy>
16

>  <SCORE.norm>
-0.822103

>  <RMSD>
6.226

$$$$
ligand
 OpenBabel11021811463D
libRbt.so/2013.1/901 2013/11/27
 16 16  0  0  0  0  0  0  0  0999 V2000
   43.6717   16.7090   13.9247 P   0  0  2  0  0  0  0  0  0  0  0  0
   42.2262   16.7724   13.5962 O   0  0  0  0  0  0  0  0  0  0  0  0
   44.0101   17.7871   15.0702 O   0  5  0  0  0  0  0  0  0  0  0  0
   44.5261   17.0647   12.6044 O   0  0  0  0  0  0  0  0  0  0  0  0
   45.0975   11.9163   16.8406 C   0  0  2  0  0  0  0  0  0  0  0  0
   46.3214   11.9660   17.5832 O   0  0  0  0  0  0  0  0  0  0  0  0
   45.2316   10.9605   15.6271 C   0  0  2  0  0  0  0  0  0  0  0  0
   45.5911    9.6082   16.0947 N   0  0  0  0  0  0  0  0  0  0  0  0
   46.3275   11.5032   14.6944 C   0  0  1  0  0  0  0  0  0  0  0  0
   46.4667   10.6542   13.5520 O   0  0  0  0  0  0  0  0  0  0  0  0
   45.9095   12.9014   14.2427 C   0  0  2  0  0  0  0  0  0  0  0  0
   46.9118   13.4235   13.3798 O   0  0  0  0  0  0  0  0  0  0  0  0
   45.7601   13.8069   15.4957 C   0  0  2  0  0  0  0  0  0  0  0  0
   44.7471   13.2632   16.3966 O   0  0  0  0  0  0  0  0  0  0  0  0
   45.3291   15.2375   15.0880 C   0  0  0  0  0  0  0  0  0  0  0  0
   44.0397   15.2205   14.4485 O   0  0  0  0  0  0  0  0  0  0  0  0
  1  2  1  6  0  0  0
  1  3  1  0  0  0  0
  1  4  2  0  0  0  0
  1 16  1  0  0  0  0
  5  6  1  6  0  0  0
  5  7  1  0  0  0  0
  5 14  1  0  0  0  0
  7  8  1  1  0  0  0
  7  9  1  0  0  0  0
  9 10  1  6  0  0  0
  9 11  1  0  0  0  0
 11 12  1  6  0  0  0
 11 13  1  0  0  0  0
 13 14  1  0  0  0  0
 13 15  1  6  0  0  0
 15 16  1  0  0  0  0
M  CHG  1   3  -1
M  END
>  <CHROM.1>
62.44740852,-175.33529843,-165.22286276,45.01206409,13.96095209,14.81792228
2.35691329,1.05230348,-1.00971069

>  <Name>
ligand

>  <RI>
0

>  <Rbt.Current_Directory>
/home/itssahil/PROJECTS/Mol_Feturizer/New_Systems/rnas/3B4C

>  <Rbt.Executable>
rbdock ($Id: //depot/dev/client3/rdock/2013.1/src/exe/rbdock.cxx#4 $)

>  <Rbt.Library>
libRbt.so (2013.1, Build901 2013/11/27)

>  <Rbt.Parameter_File>
/export/apps/rDock/src/rDock_2013.1_src/data/scripts/dock_solv.prm

>  <Rbt.Receptor>
prm/pocket_docking_7.prm

>  <SCORE>
-13.4892

>  <SCORE.INTER>
-12.3307

>  <SCORE.INTER.CONST>
1

>  <SCORE.INTER.POLAR>
-1.05164

>  <SCORE.INTER.ROT>
3

>  <SCORE.INTER.SOLV>
21.7866

>  <SCORE.INTER.VDW>
-17.5772

>  <SCORE.INTER.norm>
-0.770672

>  <SCORE.INTRA>
-1.15842

>  <SCORE.INTRA.DIHEDRAL>
-1.65443

>  <SCORE.INTRA.DIHEDRAL.0>
2.1318

>  <SCORE.INTRA.POLAR>
0

>  <SCORE.INTRA.POLAR.0>
0

>  <SCORE.INTRA.REPUL>
0

>  <SCORE.INTRA.REPUL.0>
0

>  <SCORE.INTRA.SOLV>
-0.170667

>  <SCORE.INTRA.SOLV.lig_0>
-58.6125

>  <SCORE.INTRA.VDW>
-0.245872

>  <SCORE.INTRA.VDW.0>
-0.432734

>  <SCORE.INTRA.norm>
-0.0724013

>  <SCORE.RESTR>
0

>  <SCORE.RESTR.CAVITY>
0

>  <SCORE.RESTR.norm>
0

>  <SCORE.SYSTEM>
0

>  <SCORE.SYSTEM.CONST>
0

>  <SCORE.SYSTEM.DIHEDRAL>
0

>  <SCORE.SYSTEM.SOLV>
0

>  <SCORE.SYSTEM.norm>
0

>  <SCORE.heavy>
16

>  <SCORE.norm>
-0.843073

>  <RMSD>
6.228

$$$$
ligand
 OpenBabel11021811463D
libRbt.so/2013.1/901 2013/11/27
 16 16  0  0  0  0  0  0  0  0999 V2000
   43.6761   16.7060   13.9316 P   0  0  2  0  0  0  0  0  0  0  0  0
   42.2372   16.7907   13.5799 O   0  0  0  0  0  0  0  0  0  0  0  0
   44.0095   17.7715   15.0902 O   0  5  0  0  0  0  0  0  0  0  0  0
   44.5568   17.0596   12.6282 O   0  0  0  0  0  0  0  0  0  0  0  0
   44.8952   11.8601   16.8272 C   0  0  2  0  0  0  0  0  0  0  0  0
   46.0415   11.9040   17.6850 O   0  0  0  0  0  0  0  0  0  0  0  0
   45.1542   10.9302   15.6140 C   0  0  2  0  0  0  0  0  0  0  0  0
   45.4799    9.5714   16.0876 N   0  0  0  0  0  0  0  0  0  0  0  0
   46.3295   11.4998   14.8018 C   0  0  1  0  0  0  0  0  0  0  0  0
   46.5859   10.6753   13.6619 O   0  0  0  0  0  0  0  0  0  0  0  0
   45.9437   12.9038   14.3393 C   0  0  2  0  0  0  0  0  0  0  0  0
   47.0193   13.4507   13.5872 O   0  0  0  0  0  0  0  0  0  0  0  0
   45.6660   13.7825   15.5894 C   0  0  2  0  0  0  0  0  0  0  0  0
   44.5763   13.2131   16.3778 O   0  0  0  0  0  0  0  0  0  0  0  0
   45.2627   15.2178   15.1699 C   0  0  0  0  0  0  0  0  0  0  0  0
   44.0160   15.2091   14.4508 O   0  0  0  0  0  0  0  0  0  0  0  0
  1  2  1  6  0  0  0
  1  3  1  0  0  0  0
  1  4  2  0  0  0  0
  1 16  1  0  0  0  0
  5  6  1  1  0  0  0
  5  7  1  0  0  0  0
  5 14  1  0  0  0  0
  7  8  1  1  0  0  0
  7  9  1  0  0  0  0
  9 10  1  6  0  0  0
  9 11  1  0  0  0  0
 11 12  1  1  0  0  0
 11 13  1  0  0  0  0
 13 14  1  0  0  0  0
 13 15  1  6  0  0  0
 15 16  1  0  0  0  0
M  CHG  1   3  -1
M  END
>  <CHROM.1>
64.52570208,-175.84908726,-162.34874856,44.97220280,13.94674325,14.86423848
2.22666460,0.98403364,-0.86847049

>  <Name>
ligand

>  <RI>
0

>  <Rbt.Current_Directory>
/home/itssahil/PROJECTS/Mol_Feturizer/New_Systems/rnas/3B4C

>  <Rbt.Executable>
rbdock ($Id: //depot/dev/client3/rdock/2013.1/src/exe/rbdock.cxx#4 $)

>  <Rbt.Library>
libRbt.so (2013.1, Build901 2013/11/27)

>  <Rbt.Parameter_File>
/export/apps/rDock/src/rDock_2013.1_src/data/scripts/dock_solv.prm

>  <Rbt.Receptor>
prm/pocket_docking_8.prm

>  <SCORE>
-13.5479

>  <SCORE.INTER>
-12.5207

>  <SCORE.INTER.CONST>
1

>  <SCORE.INTER.POLAR>
-1.05076

>  <SCORE.INTER.ROT>
3

>  <SCORE.INTER.SOLV>
21.8983

>  <SCORE.INTER.VDW>
-17.744

>  <SCORE.INTER.norm>
-0.782545

>  <SCORE.INTRA>
-1.02713

>  <SCORE.INTRA.DIHEDRAL>
-1.48785

>  <SCORE.INTRA.DIHEDRAL.0>
2.1318

>  <SCORE.INTRA.POLAR>
0

>  <SCORE.INTRA.POLAR.0>
0

>  <SCORE.INTRA.REPUL>
0

>  <SCORE.INTRA.REPUL.0>
0

>  <SCORE.INTRA.SOLV>
-0.186619

>  <SCORE.INTRA.SOLV.lig_0>
-58.6125

>  <SCORE.INTRA.VDW>
-0.189895

>  <SCORE.INTRA.VDW.0>
-0.432734

>  <SCORE.INTRA.norm>
-0.0641955

>  <SCORE.RESTR>
0

>  <SCORE.RESTR.CAVITY>
0

>  <SCORE.RESTR.norm>
0

>  <SCORE.SYSTEM>
0

>  <SCORE.SYSTEM.CONST>
0

>  <SCORE.SYSTEM.DIHEDRAL>
0

>  <SCORE.SYSTEM.SOLV>
0

>  <SCORE.SYSTEM.norm>
0

>  <SCORE.heavy>
16

>  <SCORE.norm>
-0.846741

>  <RMSD>
6.234

$$$$
ligand
 OpenBabel11021811463D
libRbt.so/2013.1/901 2013/11/27
 16 16  0  0  0  0  0  0  0  0999 V2000
   44.0318   16.8965   13.5892 P   0  0  2  0  0  0  0  0  0  0  0  0
   44.1138   17.9040   14.6753 O   0  0  0  0  0  0  0  0  0  0  0  0
   44.5007   17.5629   12.2018 O   0  5  0  0  0  0  0  0  0  0  0  0
   42.5029   16.4063   13.4423 O   0  0  0  0  0  0  0  0  0  0  0  0
   45.3644   11.6796   16.7515 C   0  0  2  0  0  0  0  0  0  0  0  0
   46.6414   12.0601   17.2772 O   0  0  0  0  0  0  0  0  0  0  0  0
   45.5333   10.7600   15.5147 C   0  0  2  0  0  0  0  0  0  0  0  0
   46.3016    9.5572   15.8886 N   0  0  0  0  0  0  0  0  0  0  0  0
   46.2798   11.5419   14.4207 C   0  0  1  0  0  0  0  0  0  0  0  0
   46.4381   10.7285   13.2551 O   0  0  0  0  0  0  0  0  0  0  0  0
   45.4467   12.7744   14.0732 C   0  0  2  0  0  0  0  0  0  0  0  0
   46.1212   13.5141   13.0634 O   0  0  0  0  0  0  0  0  0  0  0  0
   45.2829   13.6425   15.3506 C   0  0  2  0  0  0  0  0  0  0  0  0
   44.6101   12.8800   16.3992 O   0  0  0  0  0  0  0  0  0  0  0  0
   44.4365   14.9040   15.0492 C   0  0  0  0  0  0  0  0  0  0  0  0
   44.9930   15.6416   13.9457 O   0  0  0  0  0  0  0  0  0  0  0  0
  1  2  1  1  0  0  0
  1  3  1  0  0  0  0
  1  4  2  0  0  0  0
  1 16  1  0  0  0  0
  5  6  1  6  0  0  0
  5  7  1  0  0  0  0
  5 14  1  0  0  0  0
  7  8  1  1  0  0  0
  7  9  1  0  0  0  0
  9 10  1  6  0  0  0
  9 11  1  0  0  0  0
 11 12  1  6  0  0  0
 11 13  1  0  0  0  0
 13 14  1  0  0  0  0
 13 15  1  6  0  0  0
 15 16  1  0  0  0  0
M  CHG  1   3  -1
M  END
>  <CHROM.1>
-54.30314407,176.12883103,70.01957978,45.06713011,13.96161839,14.57184132
2.46189059,1.15702400,-1.17517257

>  <Name>
ligand

>  <RI>
0

>  <Rbt.Current_Directory>
/home/itssahil/PROJECTS/Mol_Feturizer/New_Systems/rnas/3B4C

>  <Rbt.Executable>
rbdock ($Id: //depot/dev/client3/rdock/2013.1/src/exe/rbdock.cxx#4 $)

>  <Rbt.Library>
libRbt.so (2013.1, Build901 2013/11/27)

>  <Rbt.Parameter_File>
/export/apps/rDock/src/rDock_2013.1_src/data/scripts/dock_solv.prm

>  <Rbt.Receptor>
prm/pocket_docking_7.prm

>  <SCORE>
-9.84138

>  <SCORE.INTER>
-8.94491

>  <SCORE.INTER.CONST>
1

>  <SCORE.INTER.POLAR>
-0.817056

>  <SCORE.INTER.ROT>
3

>  <SCORE.INTER.SOLV>
24.2814

>  <SCORE.INTER.VDW>
-16.9336

>  <SCORE.INTER.norm>
-0.559057

>  <SCORE.INTRA>
-0.896472

>  <SCORE.INTRA.DIHEDRAL>
-1.77303

>  <SCORE.INTRA.DIHEDRAL.0>
2.1318

>  <SCORE.INTRA.POLAR>
0

>  <SCORE.INTRA.POLAR.0>
0

>  <SCORE.INTRA.REPUL>
0

>  <SCORE.INTRA.REPUL.0>
0

>  <SCORE.INTRA.SOLV>
-0.390178

>  <SCORE.INTRA.SOLV.lig_0>
-58.6125

>  <SCORE.INTRA.VDW>
0.185134

>  <SCORE.INTRA.VDW.0>
-0.432734

>  <SCORE.INTRA.norm>
-0.0560295

>  <SCORE.RESTR>
0

>  <SCORE.RESTR.CAVITY>
0

>  <SCORE.RESTR.norm>
0

>  <SCORE.SYSTEM>
0

>  <SCORE.SYSTEM.CONST>
0

>  <SCORE.SYSTEM.DIHEDRAL>
0

>  <SCORE.SYSTEM.SOLV>
0

>  <SCORE.SYSTEM.norm>
0

>  <SCORE.heavy>
16

>  <SCORE.norm>
-0.615086

>  <RMSD>
6.237

$$$$
ligand
 OpenBabel11021811463D
libRbt.so/2013.1/901 2013/11/27
 16 16  0  0  0  0  0  0  0  0999 V2000
   44.0639   16.8994   13.5990 P   0  0  2  0  0  0  0  0  0  0  0  0
   44.1185   17.9600   14.6351 O   0  0  0  0  0  0  0  0  0  0  0  0
   44.6261   17.4786   12.2072 O   0  5  0  0  0  0  0  0  0  0  0  0
   42.5308   16.4445   13.3938 O   0  0  0  0  0  0  0  0  0  0  0  0
   44.9727   11.7147   16.9426 C   0  0  2  0  0  0  0  0  0  0  0  0
   46.1523   12.0805   17.6683 O   0  0  0  0  0  0  0  0  0  0  0  0
   45.3317   10.8165   15.7308 C   0  0  2  0  0  0  0  0  0  0  0  0
   46.0305    9.6041   16.1983 N   0  0  0  0  0  0  0  0  0  0  0  0
   46.2411   11.6146   14.7814 C   0  0  1  0  0  0  0  0  0  0  0  0
   46.5786   10.8215   13.6402 O   0  0  0  0  0  0  0  0  0  0  0  0
   45.4742   12.8566   14.3305 C   0  0  2  0  0  0  0  0  0  0  0  0
   46.2993   13.6114   13.4522 O   0  0  0  0  0  0  0  0  0  0  0  0
   45.1138   13.7025   15.5821 C   0  0  2  0  0  0  0  0  0  0  0  0
   44.2844   12.9243   16.4986 O   0  0  0  0  0  0  0  0  0  0  0  0
   44.3266   14.9727   15.1752 C   0  0  0  0  0  0  0  0  0  0  0  0
   44.9661   15.6389   14.0712 O   0  0  0  0  0  0  0  0  0  0  0  0
  1  2  1  1  0  0  0
  1  3  1  0  0  0  0
  1  4  2  0  0  0  0
  1 16  1  0  0  0  0
  5  6  1  6  0  0  0
  5  7  1  0  0  0  0
  5 14  1  0  0  0  0
  7  8  1  1  0  0  0
  7  9  1  0  0  0  0
  9 10  1  6  0  0  0
  9 11  1  0  0  0  0
 11 12  1  6  0  0  0
 11 13  1  0  0  0  0
 13 14  1  0  0  0  0
 13 15  1  6  0  0  0
 15 16  1  0  0  0  0
M  CHG  1   3  -1
M  END
>  <CHROM.1>
-47.17169123,175.88372322,70.25710385,44.98677657,14.00087089,14.74507690
2.17385841,1.06367444,-0.91886604

>  <Name>
ligand

>  <RI>
0

>  <Rbt.Current_Directory>
/home/itssahil/PROJECTS/Mol_Feturizer/New_Systems/rnas/3B4C

>  <Rbt.Executable>
rbdock ($Id: //depot/dev/client3/rdock/2013.1/src/exe/rbdock.cxx#4 $)

>  <Rbt.Library>
libRbt.so (2013.1, Build901 2013/11/27)

>  <Rbt.Parameter_File>
/export/apps/rDock/src/rDock_2013.1_src/data/scripts/dock_solv.prm

>  <Rbt.Receptor>
prm/pocket_docking_8.prm

>  <SCORE>
-9.65532

>  <SCORE.INTER>
-9.31223

>  <SCORE.INTER.CONST>
1

>  <SCORE.INTER.POLAR>
-0.780017

>  <SCORE.INTER.ROT>
3

>  <SCORE.INTER.SOLV>
23.9015

>  <SCORE.INTER.VDW>
-17.1753

>  <SCORE.INTER.norm>
-0.582015

>  <SCORE.INTRA>
-0.343082

>  <SCORE.INTRA.DIHEDRAL>
-1.29728

>  <SCORE.INTRA.DIHEDRAL.0>
2.1318

>  <SCORE.INTRA.POLAR>
0

>  <SCORE.INTRA.POLAR.0>
0

>  <SCORE.INTRA.REPUL>
0

>  <SCORE.INTRA.REPUL.0>
0

>  <SCORE.INTRA.SOLV>
-0.331264

>  <SCORE.INTRA.SOLV.lig_0>
-58.6125

>  <SCORE.INTRA.VDW>
0.471188

>  <SCORE.INTRA.VDW.0>
-0.432734

>  <SCORE.INTRA.norm>
-0.0214427

>  <SCORE.RESTR>
0

>  <SCORE.RESTR.CAVITY>
0

>  <SCORE.RESTR.norm>
0

>  <SCORE.SYSTEM>
0

>  <SCORE.SYSTEM.CONST>
0

>  <SCORE.SYSTEM.DIHEDRAL>
0

>  <SCORE.SYSTEM.SOLV>
0

>  <SCORE.SYSTEM.norm>
0

>  <SCORE.heavy>
16

>  <SCORE.norm>
-0.603457

>  <RMSD>
6.242

$$$$
ligand
 OpenBabel11021811463D
libRbt.so/2013.1/901 2013/11/27
 16 16  0  0  0  0  0  0  0  0999 V2000
   43.6370   16.7335   13.9864 P   0  0  2  0  0  0  0  0  0  0  0  0
   42.2099   16.8196   13.5897 O   0  0  0  0  0  0  0  0  0  0  0  0
   44.0000   17.9645   14.9568 O   0  5  0  0  0  0  0  0  0  0  0  0
   44.5555   16.8226   12.6643 O   0  0  0  0  0  0  0  0  0  0  0  0
   44.7030   11.8138   16.6142 C   0  0  2  0  0  0  0  0  0  0  0  0
   45.1426   12.3366   17.8733 O   0  0  0  0  0  0  0  0  0  0  0  0
   45.7754   10.8725   16.0076 C   0  0  2  0  0  0  0  0  0  0  0  0
   46.0533    9.7653   16.9422 N   0  0  0  0  0  0  0  0  0  0  0  0
   47.0571   11.6854   15.7592 C   0  0  1  0  0  0  0  0  0  0  0  0
   48.0651   10.8513   15.1817 O   0  0  0  0  0  0  0  0  0  0  0  0
   46.7153   12.8168   14.7912 C   0  0  2  0  0  0  0  0  0  0  0  0
   47.8880   13.5836   14.5494 O   0  0  0  0  0  0  0  0  0  0  0  0
   45.6180   13.7088   15.4335 C   0  0  2  0  0  0  0  0  0  0  0  0
   44.4183   12.9209   15.7046 O   0  0  0  0  0  0  0  0  0  0  0  0
   45.2317   14.8693   14.4835 C   0  0  0  0  0  0  0  0  0  0  0  0
   43.8972   15.3329   14.7587 O   0  0  0  0  0  0  0  0  0  0  0  0
  1  2  1  6  0  0  0
  1  3  1  0  0  0  0
  1  4  2  0  0  0  0
  1 16  1  0  0  0  0
  5  6  1  1  0  0  0
  5  7  1  0  0  0  0
  5 14  1  0  0  0  0
  7  8  1  1  0  0  0
  7  9  1  0  0  0  0
  9 10  1  6  0  0  0
  9 11  1  0  0  0  0
 11 12  1  1  0  0  0
 11 13  1  0  0  0  0
 13 14  1  0  0  0  0
 13 15  1  6  0  0  0
 15 16  1  0  0  0  0
M  CHG  1   3  -1
M  END
>  <CHROM.1>
155.16952996,167.85611257,147.31999753,45.16659273,13.97282973,15.09504150
2.06596659,0.45598439,-0.60774342

>  <Name>
ligand

>  <RI>
0

>  <Rbt.Current_Directory>
/home/itssahil/PROJECTS/Mol_Feturizer/New_Systems/rnas/3B4C

>  <Rbt.Executable>
rbdock ($Id: //depot/dev/client3/rdock/2013.1/src/exe/rbdock.cxx#4 $)

>  <Rbt.Library>
libRbt.so (2013.1, Build901 2013/11/27)

>  <Rbt.Parameter_File>
/export/apps/rDock/src/rDock_2013.1_src/data/scripts/dock_solv.prm

>  <Rbt.Receptor>
prm/pocket_docking_7.prm

>  <SCORE>
-11.2129

>  <SCORE.INTER>
-12.3913

>  <SCORE.INTER.CONST>
1

>  <SCORE.INTER.POLAR>
-1.06058

>  <SCORE.INTER.ROT>
3

>  <SCORE.INTER.SOLV>
20.6631

>  <SCORE.INTER.VDW>
-17.2133

>  <SCORE.INTER.norm>
-0.774459

>  <SCORE.INTRA>
1.17849

>  <SCORE.INTRA.DIHEDRAL>
1.86271

>  <SCORE.INTRA.DIHEDRAL.0>
2.1318

>  <SCORE.INTRA.POLAR>
0

>  <SCORE.INTRA.POLAR.0>
0

>  <SCORE.INTRA.REPUL>
0

>  <SCORE.INTRA.REPUL.0>
0

>  <SCORE.INTRA.SOLV>
-0.354707

>  <SCORE.INTRA.SOLV.lig_0>
-58.6125

>  <SCORE.INTRA.VDW>
0.424488

>  <SCORE.INTRA.VDW.0>
-0.432734

>  <SCORE.INTRA.norm>
0.0736555

>  <SCORE.RESTR>
0

>  <SCORE.RESTR.CAVITY>
0

>  <SCORE.RESTR.norm>
0

>  <SCORE.SYSTEM>
0

>  <SCORE.SYSTEM.CONST>
0

>  <SCORE.SYSTEM.DIHEDRAL>
0

>  <SCORE.SYSTEM.SOLV>
0

>  <SCORE.SYSTEM.norm>
0

>  <SCORE.heavy>
16

>  <SCORE.norm>
-0.700804

>  <RMSD>
6.277

$$$$
ligand
 OpenBabel11021811463D
libRbt.so/2013.1/901 2013/11/27
 16 16  0  0  0  0  0  0  0  0999 V2000
   43.8649   16.8099   13.6376 P   0  0  2  0  0  0  0  0  0  0  0  0
   42.4520   16.3573   13.6295 O   0  0  0  0  0  0  0  0  0  0  0  0
   44.0640   17.9290   14.7763 O   0  5  0  0  0  0  0  0  0  0  0  0
   44.2170   17.4565   12.2032 O   0  0  0  0  0  0  0  0  0  0  0  0
   45.3778   11.6159   16.7541 C   0  0  2  0  0  0  0  0  0  0  0  0
   46.6351   12.0332   17.2991 O   0  0  0  0  0  0  0  0  0  0  0  0
   45.5919   10.7221   15.5053 C   0  0  2  0  0  0  0  0  0  0  0  0
   46.3987    9.5417   15.8692 N   0  0  0  0  0  0  0  0  0  0  0  0
   46.3211   11.5469   14.4314 C   0  0  1  0  0  0  0  0  0  0  0  0
   46.5201   10.7579   13.2553 O   0  0  0  0  0  0  0  0  0  0  0  0
   45.4482   12.7543   14.0937 C   0  0  2  0  0  0  0  0  0  0  0  0
   46.1061   13.5331   13.1025 O   0  0  0  0  0  0  0  0  0  0  0  0
   45.2406   13.5961   15.3823 C   0  0  2  0  0  0  0  0  0  0  0  0
   44.5849   12.7941   16.4119 O   0  0  0  0  0  0  0  0  0  0  0  0
   44.3530   14.8314   15.0911 C   0  0  0  0  0  0  0  0  0  0  0  0
   44.8332   15.5458   13.9376 O   0  0  0  0  0  0  0  0  0  0  0  0
  1  2  1  6  0  0  0
  1  3  1  0  0  0  0
  1  4  2  0  0  0  0
  1 16  1  0  0  0  0
  5  6  1  6  0  0  0
  5  7  1  0  0  0  0
  5 14  1  0  0  0  0
  7  8  1  1  0  0  0
  7  9  1  0  0  0  0
  9 10  1  6  0  0  0
  9 11  1  0  0  0  0
 11 12  1  6  0  0  0
 11 13  1  0  0  0  0
 13 14  1  0  0  0  0
 13 15  1  6  0  0  0
 15 16  1  0  0  0  0
M  CHG  1   3  -1
M  END
>  <CHROM.1>
-49.68449793,178.64082374,-49.53345352,45.01882677,13.91921223,14.60449275
2.49549837,1.12855126,-1.19446308

>  <Name>
ligand

>  <RI>
0

>  <Rbt.Current_Directory>
/home/itssahil/PROJECTS/Mol_Feturizer/New_Systems/rnas/3B4C

>  <Rbt.Executable>
rbdock ($Id: //depot/dev/client3/rdock/2013.1/src/exe/rbdock.cxx#4 $)

>  <Rbt.Library>
libRbt.so (2013.1, Build901 2013/11/27)

>  <Rbt.Parameter_File>
/export/apps/rDock/src/rDock_2013.1_src/data/scripts/dock_solv.prm

>  <Rbt.Receptor>
prm/pocket_docking_8.prm

>  <SCORE>
-12.4216

>  <SCORE.INTER>
-11.8492

>  <SCORE.INTER.CONST>
1

>  <SCORE.INTER.POLAR>
-1.04925

>  <SCORE.INTER.ROT>
3

>  <SCORE.INTER.SOLV>
20.8996

>  <SCORE.INTER.VDW>
-16.9685

>  <SCORE.INTER.norm>
-0.740576

>  <SCORE.INTRA>
-0.572392

>  <SCORE.INTRA.DIHEDRAL>
-1.56278

>  <SCORE.INTRA.DIHEDRAL.0>
2.1318

>  <SCORE.INTRA.POLAR>
0

>  <SCORE.INTRA.POLAR.0>
0

>  <SCORE.INTRA.REPUL>
0

>  <SCORE.INTRA.REPUL.0>
0

>  <SCORE.INTRA.SOLV>
-0.595896

>  <SCORE.INTRA.SOLV.lig_0>
-58.6125

>  <SCORE.INTRA.VDW>
0.506945

>  <SCORE.INTRA.VDW.0>
-0.432734

>  <SCORE.INTRA.norm>
-0.0357745

>  <SCORE.RESTR>
0

>  <SCORE.RESTR.CAVITY>
0

>  <SCORE.RESTR.norm>
0

>  <SCORE.SYSTEM>
0

>  <SCORE.SYSTEM.CONST>
0

>  <SCORE.SYSTEM.DIHEDRAL>
0

>  <SCORE.SYSTEM.SOLV>
0

>  <SCORE.SYSTEM.norm>
0

>  <SCORE.heavy>
16

>  <SCORE.norm>
-0.776351

>  <RMSD>
6.278

$$$$
ligand
 OpenBabel11021811463D
libRbt.so/2013.1/901 2013/11/27
 16 16  0  0  0  0  0  0  0  0999 V2000
   43.9276   16.3013   14.0907 P   0  0  2  0  0  0  0  0  0  0  0  0
   42.4637   16.0773   14.0011 O   0  0  0  0  0  0  0  0  0  0  0  0
   44.2662   17.1057   15.4424 O   0  5  0  0  0  0  0  0  0  0  0  0
   44.4022   17.1822   12.8264 O   0  0  0  0  0  0  0  0  0  0  0  0
   47.5511   11.9138   14.8607 C   0  0  2  0  0  0  0  0  0  0  0  0
   46.8486   10.9580   14.0578 O   0  0  0  0  0  0  0  0  0  0  0  0
   47.7470   11.3791   16.3028 C   0  0  2  0  0  0  0  0  0  0  0  0
   48.4942   10.1075   16.2661 N   0  0  0  0  0  0  0  0  0  0  0  0
   46.3629   11.1577   16.9358 C   0  0  1  0  0  0  0  0  0  0  0  0
   46.5051   10.6804   18.2764 O   0  0  0  0  0  0  0  0  0  0  0  0
   45.6319   12.4991   16.9470 C   0  0  2  0  0  0  0  0  0  0  0  0
   44.3466   12.3162   17.5271 O   0  0  0  0  0  0  0  0  0  0  0  0
   45.4901   13.0026   15.4847 C   0  0  2  0  0  0  0  0  0  0  0  0
   46.8073   13.1711   14.8763 O   0  0  0  0  0  0  0  0  0  0  0  0
   44.7593   14.3674   15.4449 C   0  0  0  0  0  0  0  0  0  0  0  0
   44.6913   14.8722   14.0988 O   0  0  0  0  0  0  0  0  0  0  0  0
  1  2  1  6  0  0  0
  1  3  1  0  0  0  0
  1  4  2  0  0  0  0
  1 16  1  0  0  0  0
  5  6  1  6  0  0  0
  5  7  1  0  0  0  0
  5 14  1  0  0  0  0
  7  8  1  6  0  0  0
  7  9  1  0  0  0  0
  9 10  1  1  0  0  0
  9 11  1  0  0  0  0
 11 12  1  6  0  0  0
 11 13  1  0  0  0  0
 13 14  1  0  0  0  0
 13 15  1  1  0  0  0
 15 16  1  0  0  0  0
M  CHG  1   3  -1
M  END
>  <CHROM.1>
176.83150909,-179.77938660,-86.03109238,45.47192353,13.59107830,15.33923146
-2.27521137,-0.74810669,2.19435998

>  <Name>
ligand

>  <RI>
0

>  <Rbt.Current_Directory>
/home/itssahil/PROJECTS/Mol_Feturizer/New_Systems/rnas/3B4C

>  <Rbt.Executable>
rbdock ($Id: //depot/dev/client3/rdock/2013.1/src/exe/rbdock.cxx#4 $)

>  <Rbt.Library>
libRbt.so (2013.1, Build901 2013/11/27)

>  <Rbt.Parameter_File>
/export/apps/rDock/src/rDock_2013.1_src/data/scripts/dock_solv.prm

>  <Rbt.Receptor>
prm/pocket_docking_8.prm

>  <SCORE>
-14.5417

>  <SCORE.INTER>
-13.798

>  <SCORE.INTER.CONST>
1

>  <SCORE.INTER.POLAR>
-1.06066

>  <SCORE.INTER.ROT>
3

>  <SCORE.INTER.SOLV>
22.5326

>  <SCORE.INTER.VDW>
-18.774

>  <SCORE.INTER.norm>
-0.862374

>  <SCORE.INTRA>
-0.743668

>  <SCORE.INTRA.DIHEDRAL>
-1.14696

>  <SCORE.INTRA.DIHEDRAL.0>
2.1318

>  <SCORE.INTRA.POLAR>
0

>  <SCORE.INTRA.POLAR.0>
0

>  <SCORE.INTRA.REPUL>
0

>  <SCORE.INTRA.REPUL.0>
0

>  <SCORE.INTRA.SOLV>
-0.750547

>  <SCORE.INTRA.SOLV.lig_0>
-58.6125

>  <SCORE.INTRA.VDW>
0.205086

>  <SCORE.INTRA.VDW.0>
-0.432734

>  <SCORE.INTRA.norm>
-0.0464793

>  <SCORE.RESTR>
0

>  <SCORE.RESTR.CAVITY>
0

>  <SCORE.RESTR.norm>
0

>  <SCORE.SYSTEM>
0

>  <SCORE.SYSTEM.CONST>
0

>  <SCORE.SYSTEM.DIHEDRAL>
0

>  <SCORE.SYSTEM.SOLV>
0

>  <SCORE.SYSTEM.norm>
0

>  <SCORE.heavy>
16

>  <SCORE.norm>
-0.908853

>  <RMSD>
6.318

$$$$
ligand
 OpenBabel11021811463D
libRbt.so/2013.1/901 2013/11/27
 16 16  0  0  0  0  0  0  0  0999 V2000
   43.9050   16.3495   14.0571 P   0  0  2  0  0  0  0  0  0  0  0  0
   42.4464   16.0921   13.9708 O   0  0  0  0  0  0  0  0  0  0  0  0
   44.2267   17.1726   15.4017 O   0  5  0  0  0  0  0  0  0  0  0  0
   44.3587   17.2301   12.7849 O   0  0  0  0  0  0  0  0  0  0  0  0
   47.5086   11.9369   14.8423 C   0  0  2  0  0  0  0  0  0  0  0  0
   46.7935   10.9891   14.0410 O   0  0  0  0  0  0  0  0  0  0  0  0
   47.6972   11.4022   16.2854 C   0  0  2  0  0  0  0  0  0  0  0  0
   48.4274   10.1206   16.2510 N   0  0  0  0  0  0  0  0  0  0  0  0
   46.3102   11.2005   16.9186 C   0  0  1  0  0  0  0  0  0  0  0  0
   46.4459   10.7237   18.2600 O   0  0  0  0  0  0  0  0  0  0  0  0
   45.5972   12.5515   16.9272 C   0  0  2  0  0  0  0  0  0  0  0  0
   44.3095   12.3869   17.5075 O   0  0  0  0  0  0  0  0  0  0  0  0
   45.4624   13.0542   15.4639 C   0  0  2  0  0  0  0  0  0  0  0  0
   46.7817   13.2040   14.8555 O   0  0  0  0  0  0  0  0  0  0  0  0
   44.7498   14.4286   15.4216 C   0  0  0  0  0  0  0  0  0  0  0  0
   44.7004   14.9379   14.0763 O   0  0  0  0  0  0  0  0  0  0  0  0
  1  2  1  6  0  0  0
  1  3  1  0  0  0  0
  1  4  2  0  0  0  0
  1 16  1  0  0  0  0
  5  6  1  6  0  0  0
  5  7  1  0  0  0  0
  5 14  1  0  0  0  0
  7  8  1  6  0  0  0
  7  9  1  0  0  0  0
  9 10  1  1  0  0  0
  9 11  1  0  0  0  0
 11 12  1  6  0  0  0
 11 13  1  0  0  0  0
 13 14  1  0  0  0  0
 13 15  1  1  0  0  0
 15 16  1  0  0  0  0
M  CHG  1   3  -1
M  END
>  <CHROM.1>
176.26825053,178.03631232,-84.51520611,45.43718416,13.63479682,15.31488772
-2.27277761,-0.75563993,2.19176234

>  <Name>
ligand

>  <RI>
0

>  <Rbt.Current_Directory>
/home/itssahil/PROJECTS/Mol_Feturizer/New_Systems/rnas/3B4C

>  <Rbt.Executable>
rbdock ($Id: //depot/dev/client3/rdock/2013.1/src/exe/rbdock.cxx#4 $)

>  <Rbt.Library>
libRbt.so (2013.1, Build901 2013/11/27)

>  <Rbt.Parameter_File>
/export/apps/rDock/src/rDock_2013.1_src/data/scripts/dock_solv.prm

>  <Rbt.Receptor>
prm/pocket_docking_6.prm

>  <SCORE>
-14.5776

>  <SCORE.INTER>
-13.7603

>  <SCORE.INTER.CONST>
1

>  <SCORE.INTER.POLAR>
-1.06066

>  <SCORE.INTER.ROT>
3

>  <SCORE.INTER.SOLV>
22.257

>  <SCORE.INTER.VDW>
-18.657

>  <SCORE.INTER.norm>
-0.860017

>  <SCORE.INTRA>
-0.821085

>  <SCORE.INTRA.DIHEDRAL>
-1.20661

>  <SCORE.INTRA.DIHEDRAL.0>
2.1318

>  <SCORE.INTRA.POLAR>
0

>  <SCORE.INTRA.POLAR.0>
0

>  <SCORE.INTRA.REPUL>
0

>  <SCORE.INTRA.REPUL.0>
0

>  <SCORE.INTRA.SOLV>
-0.774822

>  <SCORE.INTRA.SOLV.lig_0>
-58.6125

>  <SCORE.INTRA.VDW>
0.169629

>  <SCORE.INTRA.VDW.0>
-0.432734

>  <SCORE.INTRA.norm>
-0.0513178

>  <SCORE.RESTR>
0.00373853

>  <SCORE.RESTR.CAVITY>
0.00373853

>  <SCORE.RESTR.norm>
0.000233658

>  <SCORE.SYSTEM>
0

>  <SCORE.SYSTEM.CONST>
0

>  <SCORE.SYSTEM.DIHEDRAL>
0

>  <SCORE.SYSTEM.SOLV>
0

>  <SCORE.SYSTEM.norm>
0

>  <SCORE.heavy>
16

>  <SCORE.norm>
-0.911101

>  <RMSD>
6.344

$$$$
ligand
 OpenBabel11021811463D
libRbt.so/2013.1/901 2013/11/27
 16 16  0  0  0  0  0  0  0  0999 V2000
   43.9034   16.3605   14.0663 P   0  0  2  0  0  0  0  0  0  0  0  0
   42.4500   16.0724   13.9897 O   0  0  0  0  0  0  0  0  0  0  0  0
   44.2155   17.1962   15.4054 O   0  5  0  0  0  0  0  0  0  0  0  0
   44.3313   17.2447   12.7878 O   0  0  0  0  0  0  0  0  0  0  0  0
   47.5441   11.9872   14.8629 C   0  0  2  0  0  0  0  0  0  0  0  0
   46.8575   11.0366   14.0402 O   0  0  0  0  0  0  0  0  0  0  0  0
   47.7177   11.4404   16.3033 C   0  0  2  0  0  0  0  0  0  0  0  0
   48.4689   10.1710   16.2678 N   0  0  0  0  0  0  0  0  0  0  0  0
   46.3240   11.2099   16.9115 C   0  0  1  0  0  0  0  0  0  0  0  0
   46.4454   10.7213   18.2500 O   0  0  0  0  0  0  0  0  0  0  0  0
   45.5893   12.5493   16.9223 C   0  0  2  0  0  0  0  0  0  0  0  0
   44.2952   12.3581   17.4795 O   0  0  0  0  0  0  0  0  0  0  0  0
   45.4703   13.0652   15.4622 C   0  0  2  0  0  0  0  0  0  0  0  0
   46.7968   13.2423   14.8771 O   0  0  0  0  0  0  0  0  0  0  0  0
   44.7365   14.4285   15.4223 C   0  0  0  0  0  0  0  0  0  0  0  0
   44.7282   14.9659   14.0871 O   0  0  0  0  0  0  0  0  0  0  0  0
  1  2  1  6  0  0  0
  1  3  1  0  0  0  0
  1  4  2  0  0  0  0
  1 16  1  0  0  0  0
  5  6  1  6  0  0  0
  5  7  1  0  0  0  0
  5 14  1  0  0  0  0
  7  8  1  6  0  0  0
  7  9  1  0  0  0  0
  9 10  1  1  0  0  0
  9 11  1  0  0  0  0
 11 12  1  6  0  0  0
 11 13  1  0  0  0  0
 13 14  1  0  0  0  0
 13 15  1  1  0  0  0
 15 16  1  0  0  0  0
M  CHG  1   3  -1
M  END
>  <CHROM.1>
174.91907124,177.73439136,-81.54561829,45.44578927,13.65087059,15.31948332
-2.26340686,-0.73481643,2.20934951

>  <Name>
ligand

>  <RI>
0

>  <Rbt.Current_Directory>
/home/itssahil/PROJECTS/Mol_Feturizer/New_Systems/rnas/3B4C

>  <Rbt.Executable>
rbdock ($Id: //depot/dev/client3/rdock/2013.1/src/exe/rbdock.cxx#4 $)

>  <Rbt.Library>
libRbt.so (2013.1, Build901 2013/11/27)

>  <Rbt.Parameter_File>
/export/apps/rDock/src/rDock_2013.1_src/data/scripts/dock_solv.prm

>  <Rbt.Receptor>
prm/pocket_docking_6.prm

>  <SCORE>
-14.6078

>  <SCORE.INTER>
-13.647

>  <SCORE.INTER.CONST>
1

>  <SCORE.INTER.POLAR>
-1.05759

>  <SCORE.INTER.ROT>
3

>  <SCORE.INTER.SOLV>
22.364

>  <SCORE.INTER.VDW>
-18.6273

>  <SCORE.INTER.norm>
-0.852935

>  <SCORE.INTRA>
-0.960834

>  <SCORE.INTRA.DIHEDRAL>
-1.33196

>  <SCORE.INTRA.DIHEDRAL.0>
2.1318

>  <SCORE.INTRA.POLAR>
0

>  <SCORE.INTRA.POLAR.0>
0

>  <SCORE.INTRA.REPUL>
0

>  <SCORE.INTRA.REPUL.0>
0

>  <SCORE.INTRA.SOLV>
-0.79951

>  <SCORE.INTRA.SOLV.lig_0>
-58.6125

>  <SCORE.INTRA.VDW>
0.104903

>  <SCORE.INTRA.VDW.0>
-0.432734

>  <SCORE.INTRA.norm>
-0.0600521

>  <SCORE.RESTR>
0

>  <SCORE.RESTR.CAVITY>
0

>  <SCORE.RESTR.norm>
0

>  <SCORE.SYSTEM>
0

>  <SCORE.SYSTEM.CONST>
0

>  <SCORE.SYSTEM.DIHEDRAL>
0

>  <SCORE.SYSTEM.SOLV>
0

>  <SCORE.SYSTEM.norm>
0

>  <SCORE.heavy>
16

>  <SCORE.norm>
-0.912988

>  <RMSD>
6.350

$$$$
ligand
 OpenBabel11021811463D
libRbt.so/2013.1/901 2013/11/27
 16 16  0  0  0  0  0  0  0  0999 V2000
   43.8946   16.3711   14.0561 P   0  0  2  0  0  0  0  0  0  0  0  0
   42.4389   16.0958   13.9751 O   0  0  0  0  0  0  0  0  0  0  0  0
   44.2107   17.2000   15.3985 O   0  5  0  0  0  0  0  0  0  0  0  0
   44.3331   17.2555   12.7812 O   0  0  0  0  0  0  0  0  0  0  0  0
   47.4742   11.9431   14.8038 C   0  0  2  0  0  0  0  0  0  0  0  0
   46.7491   10.9940   14.0131 O   0  0  0  0  0  0  0  0  0  0  0  0
   47.6801   11.4112   16.2456 C   0  0  2  0  0  0  0  0  0  0  0  0
   48.4094   10.1293   16.2049 N   0  0  0  0  0  0  0  0  0  0  0  0
   46.3008   11.2112   16.8959 C   0  0  1  0  0  0  0  0  0  0  0  0
   46.4526   10.7371   18.2366 O   0  0  0  0  0  0  0  0  0  0  0  0
   45.5884   12.5626   16.9106 C   0  0  2  0  0  0  0  0  0  0  0  0
   44.3078   12.3996   17.5067 O   0  0  0  0  0  0  0  0  0  0  0  0
   45.4360   13.0624   15.4480 C   0  0  2  0  0  0  0  0  0  0  0  0
   46.7480   13.2105   14.8233 O   0  0  0  0  0  0  0  0  0  0  0  0
   44.7235   14.4370   15.4116 C   0  0  0  0  0  0  0  0  0  0  0  0
   44.7073   14.9694   14.0745 O   0  0  0  0  0  0  0  0  0  0  0  0
  1  2  1  6  0  0  0
  1  3  1  0  0  0  0
  1  4  2  0  0  0  0
  1 16  1  0  0  0  0
  5  6  1  6  0  0  0
  5  7  1  0  0  0  0
  5 14  1  0  0  0  0
  7  8  1  6  0  0  0
  7  9  1  0  0  0  0
  9 10  1  1  0  0  0
  9 11  1  0  0  0  0
 11 12  1  6  0  0  0
 11 13  1  0  0  0  0
 13 14  1  0  0  0  0
 13 15  1  1  0  0  0
 15 16  1  0  0  0  0
M  CHG  1   3  -1
M  END
>  <CHROM.1>
173.86806866,177.29844385,-82.32973009,45.42116586,13.64868754,15.29911823
-2.27934139,-0.76544229,2.18677630

>  <Name>
ligand

>  <RI>
0

>  <Rbt.Current_Directory>
/home/itssahil/PROJECTS/Mol_Feturizer/New_Systems/rnas/3B4C

>  <Rbt.Executable>
rbdock ($Id: //depot/dev/client3/rdock/2013.1/src/exe/rbdock.cxx#4 $)

>  <Rbt.Library>
libRbt.so (2013.1, Build901 2013/11/27)

>  <Rbt.Parameter_File>
/export/apps/rDock/src/rDock_2013.1_src/data/scripts/dock_solv.prm

>  <Rbt.Receptor>
prm/pocket_docking_6.prm

>  <SCORE>
-14.6805

>  <SCORE.INTER>
-13.796

>  <SCORE.INTER.CONST>
1

>  <SCORE.INTER.POLAR>
-1.06034

>  <SCORE.INTER.ROT>
3

>  <SCORE.INTER.SOLV>
22.0682

>  <SCORE.INTER.VDW>
-18.6189

>  <SCORE.INTER.norm>
-0.86225

>  <SCORE.INTRA>
-0.886057

>  <SCORE.INTRA.DIHEDRAL>
-1.23481

>  <SCORE.INTRA.DIHEDRAL.0>
2.1318

>  <SCORE.INTRA.POLAR>
0

>  <SCORE.INTRA.POLAR.0>
0

>  <SCORE.INTRA.REPUL>
0

>  <SCORE.INTRA.REPUL.0>
0

>  <SCORE.INTRA.SOLV>
-0.791057

>  <SCORE.INTRA.SOLV.lig_0>
-58.6125

>  <SCORE.INTRA.VDW>
0.126874

>  <SCORE.INTRA.VDW.0>
-0.432734

>  <SCORE.INTRA.norm>
-0.0553786

>  <SCORE.RESTR>
0.00154014

>  <SCORE.RESTR.CAVITY>
0.00154014

>  <SCORE.RESTR.norm>
9.62586e-05

>  <SCORE.SYSTEM>
0

>  <SCORE.SYSTEM.CONST>
0

>  <SCORE.SYSTEM.DIHEDRAL>
0

>  <SCORE.SYSTEM.SOLV>
0

>  <SCORE.SYSTEM.norm>
0

>  <SCORE.heavy>
16

>  <SCORE.norm>
-0.917532

>  <RMSD>
6.357

$$$$
ligand
 OpenBabel11021811463D
libRbt.so/2013.1/901 2013/11/27
 16 16  0  0  0  0  0  0  0  0999 V2000
   43.7413   16.5192   13.9298 P   0  0  2  0  0  0  0  0  0  0  0  0
   42.2862   16.6037   13.6525 O   0  0  0  0  0  0  0  0  0  0  0  0
   44.1062   17.4668   15.1779 O   0  5  0  0  0  0  0  0  0  0  0  0
   44.5531   17.0282   12.6331 O   0  0  0  0  0  0  0  0  0  0  0  0
   47.8332   11.8803   14.6831 C   0  0  2  0  0  0  0  0  0  0  0  0
   47.1015   10.9592   13.8658 O   0  0  0  0  0  0  0  0  0  0  0  0
   47.6475   11.5462   16.1857 C   0  0  2  0  0  0  0  0  0  0  0  0
   48.1029   10.1680   16.4502 N   0  0  0  0  0  0  0  0  0  0  0  0
   46.1568   11.6843   16.5380 C   0  0  1  0  0  0  0  0  0  0  0  0
   45.9500   11.4003   17.9243 O   0  0  0  0  0  0  0  0  0  0  0  0
   45.7364   13.1233   16.2440 C   0  0  2  0  0  0  0  0  0  0  0  0
   44.3583   13.2724   16.5611 O   0  0  0  0  0  0  0  0  0  0  0  0
   45.9712   13.4139   14.7365 C   0  0  2  0  0  0  0  0  0  0  0  0
   47.3820   13.2406   14.4003 O   0  0  0  0  0  0  0  0  0  0  0  0
   45.5651   14.8678   14.3904 C   0  0  0  0  0  0  0  0  0  0  0  0
   44.1354   14.9855   14.2737 O   0  0  0  0  0  0  0  0  0  0  0  0
  1  2  1  6  0  0  0
  1  3  1  0  0  0  0
  1  4  2  0  0  0  0
  1 16  1  0  0  0  0
  5  6  1  6  0  0  0
  5  7  1  0  0  0  0
  5 14  1  0  0  0  0
  7  8  1  6  0  0  0
  7  9  1  0  0  0  0
  9 10  1  1  0  0  0
  9 11  1  0  0  0  0
 11 12  1  6  0  0  0
 11 13  1  0  0  0  0
 13 14  1  0  0  0  0
 13 15  1  1  0  0  0
 15 16  1  0  0  0  0
M  CHG  1   3  -1
M  END
>  <CHROM.1>
-78.01672707,179.30762432,173.34827135,45.47206912,13.90123980,14.99416500
-2.33806336,-0.73731269,2.18984372

>  <Name>
ligand

>  <RI>
0

>  <Rbt.Current_Directory>
/home/itssahil/PROJECTS/Mol_Feturizer/New_Systems/rnas/3B4C

>  <Rbt.Executable>
rbdock ($Id: //depot/dev/client3/rdock/2013.1/src/exe/rbdock.cxx#4 $)

>  <Rbt.Library>
libRbt.so (2013.1, Build901 2013/11/27)

>  <Rbt.Parameter_File>
/export/apps/rDock/src/rDock_2013.1_src/data/scripts/dock_solv.prm

>  <Rbt.Receptor>
prm/pocket_docking_6.prm

>  <SCORE>
-14.1452

>  <SCORE.INTER>
-13.2499

>  <SCORE.INTER.CONST>
1

>  <SCORE.INTER.POLAR>
-1.06066

>  <SCORE.INTER.ROT>
3

>  <SCORE.INTER.SOLV>
20.8468

>  <SCORE.INTER.VDW>
-17.8466

>  <SCORE.INTER.norm>
-0.828118

>  <SCORE.INTRA>
-0.895308

>  <SCORE.INTRA.DIHEDRAL>
-0.972822

>  <SCORE.INTRA.DIHEDRAL.0>
2.1318

>  <SCORE.INTRA.POLAR>
0

>  <SCORE.INTRA.POLAR.0>
0

>  <SCORE.INTRA.REPUL>
0

>  <SCORE.INTRA.REPUL.0>
0

>  <SCORE.INTRA.SOLV>
-0.0979623

>  <SCORE.INTRA.SOLV.lig_0>
-58.6125

>  <SCORE.INTRA.VDW>
-0.359916

>  <SCORE.INTRA.VDW.0>
-0.432734

>  <SCORE.INTRA.norm>
-0.0559567

>  <SCORE.RESTR>
0

>  <SCORE.RESTR.CAVITY>
0

>  <SCORE.RESTR.norm>
0

>  <SCORE.SYSTEM>
0

>  <SCORE.SYSTEM.CONST>
0

>  <SCORE.SYSTEM.DIHEDRAL>
0

>  <SCORE.SYSTEM.SOLV>
0

>  <SCORE.SYSTEM.norm>
0

>  <SCORE.heavy>
16

>  <SCORE.norm>
-0.884074

>  <RMSD>
6.359

$$$$
ligand
 OpenBabel11021811463D
libRbt.so/2013.1/901 2013/11/27
 16 16  0  0  0  0  0  0  0  0999 V2000
   43.9802   16.5189   13.9588 P   0  0  2  0  0  0  0  0  0  0  0  0
   44.1798   17.3023   15.2029 O   0  0  0  0  0  0  0  0  0  0  0  0
   44.4242   17.4032   12.6901 O   0  5  0  0  0  0  0  0  0  0  0  0
   42.4173   16.1494   13.8163 O   0  0  0  0  0  0  0  0  0  0  0  0
   47.5472   12.0983   14.8109 C   0  0  2  0  0  0  0  0  0  0  0  0
   46.8587   11.1630   13.9724 O   0  0  0  0  0  0  0  0  0  0  0  0
   47.6876   11.5424   16.2514 C   0  0  2  0  0  0  0  0  0  0  0  0
   48.4181   10.2608   16.2224 N   0  0  0  0  0  0  0  0  0  0  0  0
   46.2803   11.3325   16.8353 C   0  0  1  0  0  0  0  0  0  0  0  0
   46.3713   10.8360   18.1733 O   0  0  0  0  0  0  0  0  0  0  0  0
   45.5679   12.6839   16.8402 C   0  0  2  0  0  0  0  0  0  0  0  0
   44.2617   12.5119   17.3749 O   0  0  0  0  0  0  0  0  0  0  0  0
   45.4818   13.2081   15.3807 C   0  0  2  0  0  0  0  0  0  0  0  0
   46.8207   13.3657   14.8186 O   0  0  0  0  0  0  0  0  0  0  0  0
   44.7716   14.5836   15.3350 C   0  0  0  0  0  0  0  0  0  0  0  0
   44.8736   15.1686   14.0240 O   0  0  0  0  0  0  0  0  0  0  0  0
  1  2  1  1  0  0  0
  1  3  1  0  0  0  0
  1  4  2  0  0  0  0
  1 16  1  0  0  0  0
  5  6  1  6  0  0  0
  5  7  1  0  0  0  0
  5 14  1  0  0  0  0
  7  8  1  6  0  0  0
  7  9  1  0  0  0  0
  9 10  1  1  0  0  0
  9 11  1  0  0  0  0
 11 12  1  6  0  0  0
 11 13  1  0  0  0  0
 13 14  1  0  0  0  0
 13 15  1  1  0  0  0
 15 16  1  0  0  0  0
M  CHG  1   3  -1
M  END
>  <CHROM.1>
171.00065441,173.50171377,42.84252664,45.45572177,13.78306684,15.22757765
-2.22796293,-0.71609879,2.24017217

>  <Name>
ligand

>  <RI>
0

>  <Rbt.Current_Directory>
/home/itssahil/PROJECTS/Mol_Feturizer/New_Systems/rnas/3B4C

>  <Rbt.Executable>
rbdock ($Id: //depot/dev/client3/rdock/2013.1/src/exe/rbdock.cxx#4 $)

>  <Rbt.Library>
libRbt.so (2013.1, Build901 2013/11/27)

>  <Rbt.Parameter_File>
/export/apps/rDock/src/rDock_2013.1_src/data/scripts/dock_solv.prm

>  <Rbt.Receptor>
prm/pocket_docking_6.prm

>  <SCORE>
-11.7747

>  <SCORE.INTER>
-10.8286

>  <SCORE.INTER.CONST>
1

>  <SCORE.INTER.POLAR>
-0.847296

>  <SCORE.INTER.ROT>
3

>  <SCORE.INTER.SOLV>
25.7373

>  <SCORE.INTER.VDW>
-18.5739

>  <SCORE.INTER.norm>
-0.676787

>  <SCORE.INTRA>
-0.946073

>  <SCORE.INTRA.DIHEDRAL>
-1.19021

>  <SCORE.INTRA.DIHEDRAL.0>
2.1318

>  <SCORE.INTRA.POLAR>
0

>  <SCORE.INTRA.POLAR.0>
0

>  <SCORE.INTRA.REPUL>
0

>  <SCORE.INTRA.REPUL.0>
0

>  <SCORE.INTRA.SOLV>
-1.1418

>  <SCORE.INTRA.SOLV.lig_0>
-58.6125

>  <SCORE.INTRA.VDW>
0.219929

>  <SCORE.INTRA.VDW.0>
-0.432734

>  <SCORE.INTRA.norm>
-0.0591296

>  <SCORE.RESTR>
0

>  <SCORE.RESTR.CAVITY>
0

>  <SCORE.RESTR.norm>
0

>  <SCORE.SYSTEM>
0

>  <SCORE.SYSTEM.CONST>
0

>  <SCORE.SYSTEM.DIHEDRAL>
0

>  <SCORE.SYSTEM.SOLV>
0

>  <SCORE.SYSTEM.norm>
0

>  <SCORE.heavy>
16

>  <SCORE.norm>
-0.735917

>  <RMSD>
6.362

$$$$
ligand
 OpenBabel11021811463D
libRbt.so/2013.1/901 2013/11/27
 16 16  0  0  0  0  0  0  0  0999 V2000
   43.8849   16.4664   13.9543 P   0  0  2  0  0  0  0  0  0  0  0  0
   42.4439   16.1232   13.8684 O   0  0  0  0  0  0  0  0  0  0  0  0
   44.1524   17.3334   15.2830 O   0  5  0  0  0  0  0  0  0  0  0  0
   44.2925   17.3461   12.6661 O   0  0  0  0  0  0  0  0  0  0  0  0
   47.5561   12.1360   14.8463 C   0  0  2  0  0  0  0  0  0  0  0  0
   46.9101   11.1851   13.9918 O   0  0  0  0  0  0  0  0  0  0  0  0
   47.6855   11.5783   16.2872 C   0  0  2  0  0  0  0  0  0  0  0  0
   48.4524   10.3180   16.2672 N   0  0  0  0  0  0  0  0  0  0  0  0
   46.2741   11.3263   16.8439 C   0  0  1  0  0  0  0  0  0  0  0  0
   46.3542   10.8270   18.1816 O   0  0  0  0  0  0  0  0  0  0  0  0
   45.5237   12.6570   16.8403 C   0  0  2  0  0  0  0  0  0  0  0  0
   44.2131   12.4459   17.3499 O   0  0  0  0  0  0  0  0  0  0  0  0
   45.4499   13.1846   15.3815 C   0  0  2  0  0  0  0  0  0  0  0  0
   46.7940   13.3823   14.8451 O   0  0  0  0  0  0  0  0  0  0  0  0
   44.7020   14.5397   15.3275 C   0  0  0  0  0  0  0  0  0  0  0  0
   44.7604   15.1038   14.0047 O   0  0  0  0  0  0  0  0  0  0  0  0
  1  2  1  6  0  0  0
  1  3  1  0  0  0  0
  1  4  2  0  0  0  0
  1 16  1  0  0  0  0
  5  6  1  6  0  0  0
  5  7  1  0  0  0  0
  5 14  1  0  0  0  0
  7  8  1  6  0  0  0
  7  9  1  0  0  0  0
  9 10  1  1  0  0  0
  9 11  1  0  0  0  0
 11 12  1  6  0  0  0
 11 13  1  0  0  0  0
 13 14  1  0  0  0  0
 13 15  1  1  0  0  0
 15 16  1  0  0  0  0
M  CHG  1   3  -1
M  END
>  <CHROM.1>
173.60300253,176.11099576,-77.74362752,45.41995504,13.76849652,15.24073498
-2.23762034,-0.70335897,2.23367345

>  <Name>
ligand

>  <RI>
0

>  <Rbt.Current_Directory>
/home/itssahil/PROJECTS/Mol_Feturizer/New_Systems/rnas/3B4C

>  <Rbt.Executable>
rbdock ($Id: //depot/dev/client3/rdock/2013.1/src/exe/rbdock.cxx#4 $)

>  <Rbt.Library>
libRbt.so (2013.1, Build901 2013/11/27)

>  <Rbt.Parameter_File>
/export/apps/rDock/src/rDock_2013.1_src/data/scripts/dock_solv.prm

>  <Rbt.Receptor>
prm/pocket_docking_6.prm

>  <SCORE>
-14.6119

>  <SCORE.INTER>
-13.5086

>  <SCORE.INTER.CONST>
1

>  <SCORE.INTER.POLAR>
-1.05971

>  <SCORE.INTER.ROT>
3

>  <SCORE.INTER.SOLV>
22.0132

>  <SCORE.INTER.VDW>
-18.4111

>  <SCORE.INTER.norm>
-0.844286

>  <SCORE.INTRA>
-1.10335

>  <SCORE.INTRA.DIHEDRAL>
-1.43322

>  <SCORE.INTRA.DIHEDRAL.0>
2.1318

>  <SCORE.INTRA.POLAR>
0

>  <SCORE.INTRA.POLAR.0>
0

>  <SCORE.INTRA.REPUL>
0

>  <SCORE.INTRA.REPUL.0>
0

>  <SCORE.INTRA.SOLV>
-0.842084

>  <SCORE.INTRA.SOLV.lig_0>
-58.6125

>  <SCORE.INTRA.VDW>
0.0343031

>  <SCORE.INTRA.VDW.0>
-0.432734

>  <SCORE.INTRA.norm>
-0.0689594

>  <SCORE.RESTR>
0

>  <SCORE.RESTR.CAVITY>
0

>  <SCORE.RESTR.norm>
0

>  <SCORE.SYSTEM>
0

>  <SCORE.SYSTEM.CONST>
0

>  <SCORE.SYSTEM.DIHEDRAL>
0

>  <SCORE.SYSTEM.SOLV>
0

>  <SCORE.SYSTEM.norm>
0

>  <SCORE.heavy>
16

>  <SCORE.norm>
-0.913245

>  <RMSD>
6.400

$$$$
ligand
 OpenBabel11021811463D
libRbt.so/2013.1/901 2013/11/27
 16 16  0  0  0  0  0  0  0  0999 V2000
   43.8923   16.4727   13.9345 P   0  0  2  0  0  0  0  0  0  0  0  0
   42.4589   16.0982   13.8548 O   0  0  0  0  0  0  0  0  0  0  0  0
   44.1439   17.3573   15.2547 O   0  5  0  0  0  0  0  0  0  0  0  0
   44.2786   17.3493   12.6375 O   0  0  0  0  0  0  0  0  0  0  0  0
   47.5951   12.1812   14.8553 C   0  0  2  0  0  0  0  0  0  0  0  0
   46.9803   11.2292   13.9792 O   0  0  0  0  0  0  0  0  0  0  0  0
   47.7047   11.6113   16.2931 C   0  0  2  0  0  0  0  0  0  0  0  0
   48.4908   10.3629   16.2762 N   0  0  0  0  0  0  0  0  0  0  0  0
   46.2867   11.3329   16.8195 C   0  0  1  0  0  0  0  0  0  0  0  0
   46.3482   10.8218   18.1537 O   0  0  0  0  0  0  0  0  0  0  0  0
   45.5165   12.6523   16.8138 C   0  0  2  0  0  0  0  0  0  0  0  0
   44.1996   12.4167   17.2955 O   0  0  0  0  0  0  0  0  0  0  0  0
   45.4632   13.1930   15.3589 C   0  0  2  0  0  0  0  0  0  0  0  0
   46.8144   13.4160   14.8509 O   0  0  0  0  0  0  0  0  0  0  0  0
   44.6961   14.5372   15.3031 C   0  0  0  0  0  0  0  0  0  0  0  0
   44.7969   15.1297   13.9953 O   0  0  0  0  0  0  0  0  0  0  0  0
  1  2  1  6  0  0  0
  1  3  1  0  0  0  0
  1  4  2  0  0  0  0
  1 16  1  0  0  0  0
  5  6  1  6  0  0  0
  5  7  1  0  0  0  0
  5 14  1  0  0  0  0
  7  8  1  6  0  0  0
  7  9  1  0  0  0  0
  9 10  1  1  0  0  0
  9 11  1  0  0  0  0
 11 12  1  6  0  0  0
 11 13  1  0  0  0  0
 13 14  1  0  0  0  0
 13 15  1  1  0  0  0
 15 16  1  0  0  0  0
M  CHG  1   3  -1
M  END
>  <CHROM.1>
172.31756328,175.64750454,-74.69515892,45.43298499,13.78072254,15.22368894
-2.22671763,-0.68064942,2.25088898

>  <Name>
ligand

>  <RI>
0

>  <Rbt.Current_Directory>
/home/itssahil/PROJECTS/Mol_Feturizer/New_Systems/rnas/3B4C

>  <Rbt.Executable>
rbdock ($Id: //depot/dev/client3/rdock/2013.1/src/exe/rbdock.cxx#4 $)

>  <Rbt.Library>
libRbt.so (2013.1, Build901 2013/11/27)

>  <Rbt.Parameter_File>
/export/apps/rDock/src/rDock_2013.1_src/data/scripts/dock_solv.prm

>  <Rbt.Receptor>
prm/pocket_docking_7.prm

>  <SCORE>
-14.5887

>  <SCORE.INTER>
-13.3968

>  <SCORE.INTER.CONST>
1

>  <SCORE.INTER.POLAR>
-1.05986

>  <SCORE.INTER.ROT>
3

>  <SCORE.INTER.SOLV>
21.9754

>  <SCORE.INTER.VDW>
-18.3235

>  <SCORE.INTER.norm>
-0.837301

>  <SCORE.INTRA>
-1.19189

>  <SCORE.INTRA.DIHEDRAL>
-1.49403

>  <SCORE.INTRA.DIHEDRAL.0>
2.1318

>  <SCORE.INTRA.POLAR>
0

>  <SCORE.INTRA.POLAR.0>
0

>  <SCORE.INTRA.REPUL>
0

>  <SCORE.INTRA.REPUL.0>
0

>  <SCORE.INTRA.SOLV>
-0.870794

>  <SCORE.INTRA.SOLV.lig_0>
-58.6125

>  <SCORE.INTRA.VDW>
-0.00947763

>  <SCORE.INTRA.VDW.0>
-0.432734

>  <SCORE.INTRA.norm>
-0.074493

>  <SCORE.RESTR>
0

>  <SCORE.RESTR.CAVITY>
0

>  <SCORE.RESTR.norm>
0

>  <SCORE.SYSTEM>
0

>  <SCORE.SYSTEM.CONST>
0

>  <SCORE.SYSTEM.DIHEDRAL>
0

>  <SCORE.SYSTEM.SOLV>
0

>  <SCORE.SYSTEM.norm>
0

>  <SCORE.heavy>
16

>  <SCORE.norm>
-0.911794

>  <RMSD>
6.401

$$$$
ligand
 OpenBabel11021811463D
libRbt.so/2013.1/901 2013/11/27
 16 16  0  0  0  0  0  0  0  0999 V2000
   43.8732   16.4837   13.9481 P   0  0  2  0  0  0  0  0  0  0  0  0
   42.4329   16.1369   13.8665 O   0  0  0  0  0  0  0  0  0  0  0  0
   44.1420   17.3537   15.2746 O   0  5  0  0  0  0  0  0  0  0  0  0
   44.2755   17.3621   12.6574 O   0  0  0  0  0  0  0  0  0  0  0  0
   47.4542   12.0641   14.7456 C   0  0  2  0  0  0  0  0  0  0  0  0
   46.7357   11.1173   13.9462 O   0  0  0  0  0  0  0  0  0  0  0  0
   47.6426   11.5309   16.1893 C   0  0  2  0  0  0  0  0  0  0  0  0
   48.3692   10.2472   16.1560 N   0  0  0  0  0  0  0  0  0  0  0  0
   46.2556   11.3338   16.8240 C   0  0  1  0  0  0  0  0  0  0  0  0
   46.3911   10.8584   18.1659 O   0  0  0  0  0  0  0  0  0  0  0  0
   45.5463   12.6869   16.8315 C   0  0  2  0  0  0  0  0  0  0  0  0
   44.2587   12.5266   17.4130 O   0  0  0  0  0  0  0  0  0  0  0  0
   45.4116   13.1880   15.3676 C   0  0  2  0  0  0  0  0  0  0  0  0
   46.7308   13.3333   14.7578 O   0  0  0  0  0  0  0  0  0  0  0  0
   44.7028   14.5643   15.3241 C   0  0  0  0  0  0  0  0  0  0  0  0
   44.7522   15.1234   13.9987 O   0  0  0  0  0  0  0  0  0  0  0  0
  1  2  1  6  0  0  0
  1  3  1  0  0  0  0
  1  4  2  0  0  0  0
  1 16  1  0  0  0  0
  5  6  1  6  0  0  0
  5  7  1  0  0  0  0
  5 14  1  0  0  0  0
  7  8  1  6  0  0  0
  7  9  1  0  0  0  0
  9 10  1  1  0  0  0
  9 11  1  0  0  0  0
 11 12  1  6  0  0  0
 11 13  1  0  0  0  0
 13 14  1  0  0  0  0
 13 15  1  1  0  0  0
 15 16  1  0  0  0  0
M  CHG  1   3  -1
M  END
>  <CHROM.1>
171.44789701,174.13547336,-77.97257924,45.39191304,13.76810123,15.21415077
-2.26892513,-0.75853272,2.19162874

>  <Name>
ligand

>  <RI>
0

>  <Rbt.Current_Directory>
/home/itssahil/PROJECTS/Mol_Feturizer/New_Systems/rnas/3B4C

>  <Rbt.Executable>
rbdock ($Id: //depot/dev/client3/rdock/2013.1/src/exe/rbdock.cxx#4 $)

>  <Rbt.Library>
libRbt.so (2013.1, Build901 2013/11/27)

>  <Rbt.Parameter_File>
/export/apps/rDock/src/rDock_2013.1_src/data/scripts/dock_solv.prm

>  <Rbt.Receptor>
prm/pocket_docking_7.prm

>  <SCORE>
-14.6596

>  <SCORE.INTER>
-13.6793

>  <SCORE.INTER.CONST>
1

>  <SCORE.INTER.POLAR>
-1.05985

>  <SCORE.INTER.ROT>
3

>  <SCORE.INTER.SOLV>
21.5967

>  <SCORE.INTER.VDW>
-18.3856

>  <SCORE.INTER.norm>
-0.854955

>  <SCORE.INTRA>
-0.980337

>  <SCORE.INTRA.DIHEDRAL>
-1.21487

>  <SCORE.INTRA.DIHEDRAL.0>
2.1318

>  <SCORE.INTRA.POLAR>
0

>  <SCORE.INTRA.POLAR.0>
0

>  <SCORE.INTRA.REPUL>
0

>  <SCORE.INTRA.REPUL.0>
0

>  <SCORE.INTRA.SOLV>
-0.843164

>  <SCORE.INTRA.SOLV.lig_0>
-58.6125

>  <SCORE.INTRA.VDW>
0.0486799

>  <SCORE.INTRA.VDW.0>
-0.432734

>  <SCORE.INTRA.norm>
-0.061271

>  <SCORE.RESTR>
0

>  <SCORE.RESTR.CAVITY>
0

>  <SCORE.RESTR.norm>
0

>  <SCORE.SYSTEM>
0

>  <SCORE.SYSTEM.CONST>
0

>  <SCORE.SYSTEM.DIHEDRAL>
0

>  <SCORE.SYSTEM.SOLV>
0

>  <SCORE.SYSTEM.norm>
0

>  <SCORE.heavy>
16

>  <SCORE.norm>
-0.916226

>  <RMSD>
6.411

$$$$
ligand
 OpenBabel11021811463D
libRbt.so/2013.1/901 2013/11/27
 16 16  0  0  0  0  0  0  0  0999 V2000
   43.8671   16.4880   13.9518 P   0  0  2  0  0  0  0  0  0  0  0  0
   42.4271   16.1384   13.8777 O   0  0  0  0  0  0  0  0  0  0  0  0
   44.1410   17.3587   15.2768 O   0  5  0  0  0  0  0  0  0  0  0  0
   44.2611   17.3670   12.6589 O   0  0  0  0  0  0  0  0  0  0  0  0
   47.5464   12.1576   14.8105 C   0  0  2  0  0  0  0  0  0  0  0  0
   46.8873   11.2044   13.9686 O   0  0  0  0  0  0  0  0  0  0  0  0
   47.6950   11.6051   16.2515 C   0  0  2  0  0  0  0  0  0  0  0  0
   48.4599   10.3437   16.2257 N   0  0  0  0  0  0  0  0  0  0  0  0
   46.2912   11.3572   16.8287 C   0  0  1  0  0  0  0  0  0  0  0  0
   46.3892   10.8628   18.1670 O   0  0  0  0  0  0  0  0  0  0  0  0
   45.5426   12.6890   16.8306 C   0  0  2  0  0  0  0  0  0  0  0  0
   44.2390   12.4816   17.3591 O   0  0  0  0  0  0  0  0  0  0  0  0
   45.4493   13.2112   15.3709 C   0  0  2  0  0  0  0  0  0  0  0  0
   46.7861   13.4050   14.8151 O   0  0  0  0  0  0  0  0  0  0  0  0
   44.7025   14.5671   15.3222 C   0  0  0  0  0  0  0  0  0  0  0  0
   44.7489   15.1293   13.9981 O   0  0  0  0  0  0  0  0  0  0  0  0
  1  2  1  6  0  0  0
  1  3  1  0  0  0  0
  1  4  2  0  0  0  0
  1 16  1  0  0  0  0
  5  6  1  6  0  0  0
  5  7  1  0  0  0  0
  5 14  1  0  0  0  0
  7  8  1  6  0  0  0
  7  9  1  0  0  0  0
  9 10  1  1  0  0  0
  9 11  1  0  0  0  0
 11 12  1  6  0  0  0
 11 13  1  0  0  0  0
 13 14  1  0  0  0  0
 13 15  1  1  0  0  0
 15 16  1  0  0  0  0
M  CHG  1   3  -1
M  END
>  <CHROM.1>
173.32116349,175.76345067,-77.71426040,45.41742379,13.79393514,15.22791268
-2.25134929,-0.71268347,2.22072203

>  <Name>
ligand

>  <RI>
0

>  <Rbt.Current_Directory>
/home/itssahil/PROJECTS/Mol_Feturizer/New_Systems/rnas/3B4C

>  <Rbt.Executable>
rbdock ($Id: //depot/dev/client3/rdock/2013.1/src/exe/rbdock.cxx#4 $)

>  <Rbt.Library>
libRbt.so (2013.1, Build901 2013/11/27)

>  <Rbt.Parameter_File>
/export/apps/rDock/src/rDock_2013.1_src/data/scripts/dock_solv.prm

>  <Rbt.Receptor>
prm/pocket_docking_8.prm

>  <SCORE>
-14.7117

>  <SCORE.INTER>
-13.6212

>  <SCORE.INTER.CONST>
1

>  <SCORE.INTER.POLAR>
-1.06066

>  <SCORE.INTER.ROT>
3

>  <SCORE.INTER.SOLV>
21.9215

>  <SCORE.INTER.VDW>
-18.4524

>  <SCORE.INTER.norm>
-0.851322

>  <SCORE.INTRA>
-1.09058

>  <SCORE.INTRA.DIHEDRAL>
-1.40789

>  <SCORE.INTRA.DIHEDRAL.0>
2.1318

>  <SCORE.INTRA.POLAR>
0

>  <SCORE.INTRA.POLAR.0>
0

>  <SCORE.INTRA.REPUL>
0

>  <SCORE.INTRA.REPUL.0>
0

>  <SCORE.INTRA.SOLV>
-0.843409

>  <SCORE.INTRA.SOLV.lig_0>
-58.6125

>  <SCORE.INTRA.VDW>
0.0350728

>  <SCORE.INTRA.VDW.0>
-0.432734

>  <SCORE.INTRA.norm>
-0.068161

>  <SCORE.RESTR>
0

>  <SCORE.RESTR.CAVITY>
0

>  <SCORE.RESTR.norm>
0

>  <SCORE.SYSTEM>
0

>  <SCORE.SYSTEM.CONST>
0

>  <SCORE.SYSTEM.DIHEDRAL>
0

>  <SCORE.SYSTEM.SOLV>
0

>  <SCORE.SYSTEM.norm>
0

>  <SCORE.heavy>
16

>  <SCORE.norm>
-0.919483

>  <RMSD>
6.416

$$$$
ligand
 OpenBabel11021811463D
libRbt.so/2013.1/901 2013/11/27
 16 16  0  0  0  0  0  0  0  0999 V2000
   43.8664   16.4887   13.9585 P   0  0  2  0  0  0  0  0  0  0  0  0
   42.4327   16.1117   13.8973 O   0  0  0  0  0  0  0  0  0  0  0  0
   44.1322   17.3789   15.2722 O   0  5  0  0  0  0  0  0  0  0  0  0
   44.2359   17.3606   12.6536 O   0  0  0  0  0  0  0  0  0  0  0  0
   47.5476   12.1566   14.8174 C   0  0  2  0  0  0  0  0  0  0  0  0
   46.8844   11.2073   13.9743 O   0  0  0  0  0  0  0  0  0  0  0  0
   47.6946   11.6014   16.2576 C   0  0  2  0  0  0  0  0  0  0  0  0
   48.4545   10.3370   16.2295 N   0  0  0  0  0  0  0  0  0  0  0  0
   46.2900   11.3581   16.8349 C   0  0  1  0  0  0  0  0  0  0  0  0
   46.3866   10.8613   18.1725 O   0  0  0  0  0  0  0  0  0  0  0  0
   45.5466   12.6927   16.8390 C   0  0  2  0  0  0  0  0  0  0  0  0
   44.2424   12.4897   17.3678 O   0  0  0  0  0  0  0  0  0  0  0  0
   45.4548   13.2175   15.3802 C   0  0  2  0  0  0  0  0  0  0  0  0
   46.7921   13.4069   14.8242 O   0  0  0  0  0  0  0  0  0  0  0  0
   44.7132   14.5764   15.3338 C   0  0  0  0  0  0  0  0  0  0  0  0
   44.7736   15.1472   14.0140 O   0  0  0  0  0  0  0  0  0  0  0  0
  1  2  1  6  0  0  0
  1  3  1  0  0  0  0
  1  4  2  0  0  0  0
  1 16  1  0  0  0  0
  5  6  1  6  0  0  0
  5  7  1  0  0  0  0
  5 14  1  0  0  0  0
  7  8  1  6  0  0  0
  7  9  1  0  0  0  0
  9 10  1  1  0  0  0
  9 11  1  0  0  0  0
 11 12  1  6  0  0  0
 11 13  1  0  0  0  0
 13 14  1  0  0  0  0
 13 15  1  1  0  0  0
 15 16  1  0  0  0  0
M  CHG  1   3  -1
M  END
>  <CHROM.1>
172.70643377,174.32306813,-75.98428260,45.41810919,13.79551684,15.23495819
-2.25235361,-0.71420839,2.21943200

>  <Name>
ligand

>  <RI>
0

>  <Rbt.Current_Directory>
/home/itssahil/PROJECTS/Mol_Feturizer/New_Systems/rnas/3B4C

>  <Rbt.Executable>
rbdock ($Id: //depot/dev/client3/rdock/2013.1/src/exe/rbdock.cxx#4 $)

>  <Rbt.Library>
libRbt.so (2013.1, Build901 2013/11/27)

>  <Rbt.Parameter_File>
/export/apps/rDock/src/rDock_2013.1_src/data/scripts/dock_solv.prm

>  <Rbt.Receptor>
prm/pocket_docking_7.prm

>  <SCORE>
-14.6906

>  <SCORE.INTER>
-13.5702

>  <SCORE.INTER.CONST>
1

>  <SCORE.INTER.POLAR>
-1.05807

>  <SCORE.INTER.ROT>
3

>  <SCORE.INTER.SOLV>
22.0123

>  <SCORE.INTER.VDW>
-18.4573

>  <SCORE.INTER.norm>
-0.84814

>  <SCORE.INTRA>
-1.12036

>  <SCORE.INTRA.DIHEDRAL>
-1.39163

>  <SCORE.INTRA.DIHEDRAL.0>
2.1318

>  <SCORE.INTRA.POLAR>
0

>  <SCORE.INTRA.POLAR.0>
0

>  <SCORE.INTRA.REPUL>
0

>  <SCORE.INTRA.REPUL.0>
0

>  <SCORE.INTRA.SOLV>
-0.866427

>  <SCORE.INTRA.SOLV.lig_0>
-58.6125

>  <SCORE.INTRA.VDW>
0.0086723

>  <SCORE.INTRA.VDW.0>
-0.432734

>  <SCORE.INTRA.norm>
-0.0700223

>  <SCORE.RESTR>
0

>  <SCORE.RESTR.CAVITY>
0

>  <SCORE.RESTR.norm>
0

>  <SCORE.SYSTEM>
0

>  <SCORE.SYSTEM.CONST>
0

>  <SCORE.SYSTEM.DIHEDRAL>
0

>  <SCORE.SYSTEM.SOLV>
0

>  <SCORE.SYSTEM.norm>
0

>  <SCORE.heavy>
16

>  <SCORE.norm>
-0.918162

>  <RMSD>
6.417

$$$$
ligand
 OpenBabel11021811463D
libRbt.so/2013.1/901 2013/11/27
 16 16  0  0  0  0  0  0  0  0999 V2000
   43.9081   16.4363   13.9570 P   0  0  2  0  0  0  0  0  0  0  0  0
   44.3323   17.2379   12.7828 O   0  0  0  0  0  0  0  0  0  0  0  0
   42.3355   16.1139   13.8475 O   0  5  0  0  0  0  0  0  0  0  0  0
   44.1737   17.2898   15.2988 O   0  0  0  0  0  0  0  0  0  0  0  0
   47.5302   12.0585   14.7953 C   0  0  2  0  0  0  0  0  0  0  0  0
   46.8463   11.1048   13.9740 O   0  0  0  0  0  0  0  0  0  0  0  0
   47.6956   11.5190   16.2394 C   0  0  2  0  0  0  0  0  0  0  0  0
   48.4449   10.2482   16.2144 N   0  0  0  0  0  0  0  0  0  0  0  0
   46.2984   11.2939   16.8416 C   0  0  1  0  0  0  0  0  0  0  0  0
   46.4122   10.8120   18.1833 O   0  0  0  0  0  0  0  0  0  0  0  0
   45.5658   12.6345   16.8417 C   0  0  2  0  0  0  0  0  0  0  0  0
   44.2685   12.4482   17.3932 O   0  0  0  0  0  0  0  0  0  0  0  0
   45.4551   13.1429   15.3783 C   0  0  2  0  0  0  0  0  0  0  0  0
   46.7849   13.3149   14.7992 O   0  0  0  0  0  0  0  0  0  0  0  0
   44.7237   14.5071   15.3276 C   0  0  0  0  0  0  0  0  0  0  0  0
   44.7490   15.0517   13.9955 O   0  0  0  0  0  0  0  0  0  0  0  0
  1  2  1  6  0  0  0
  1  3  1  0  0  0  0
  1  4  2  0  0  0  0
  1 16  1  0  0  0  0
  5  6  1  6  0  0  0
  5  7  1  0  0  0  0
  5 14  1  0  0  0  0
  7  8  1  6  0  0  0
  7  9  1  0  0  0  0
  9 10  1  1  0  0  0
  9 11  1  0  0  0  0
 11 12  1  6  0  0  0
 11 13  1  0  0  0  0
 13 14  1  0  0  0  0
 13 15  1  1  0  0  0
 15 16  1  0  0  0  0
M  CHG  1   3  -1
M  END
>  <CHROM.1>
173.64115011,176.91960201,159.16076077,45.42531770,13.72331941,15.23814778
-2.26204881,-0.72663267,2.21050769

>  <Name>
ligand

>  <RI>
0

>  <Rbt.Current_Directory>
/home/itssahil/PROJECTS/Mol_Feturizer/New_Systems/rnas/3B4C

>  <Rbt.Executable>
rbdock ($Id: //depot/dev/client3/rdock/2013.1/src/exe/rbdock.cxx#4 $)

>  <Rbt.Library>
libRbt.so (2013.1, Build901 2013/11/27)

>  <Rbt.Parameter_File>
/export/apps/rDock/src/rDock_2013.1_src/data/scripts/dock_solv.prm

>  <Rbt.Receptor>
prm/pocket_docking_7.prm

>  <SCORE>
-11.5354

>  <SCORE.INTER>
-10.687

>  <SCORE.INTER.CONST>
1

>  <SCORE.INTER.POLAR>
-1.05612

>  <SCORE.INTER.ROT>
3

>  <SCORE.INTER.SOLV>
27.1689

>  <SCORE.INTER.VDW>
-18.2606

>  <SCORE.INTER.norm>
-0.667939

>  <SCORE.INTRA>
-0.848422

>  <SCORE.INTRA.DIHEDRAL>
-1.29854

>  <SCORE.INTRA.DIHEDRAL.0>
2.1318

>  <SCORE.INTRA.POLAR>
0

>  <SCORE.INTRA.POLAR.0>
0

>  <SCORE.INTRA.REPUL>
0

>  <SCORE.INTRA.REPUL.0>
0

>  <SCORE.INTRA.SOLV>
-0.389664

>  <SCORE.INTRA.SOLV.lig_0>
-58.6125

>  <SCORE.INTRA.VDW>
-0.00432088

>  <SCORE.INTRA.VDW.0>
-0.432734

>  <SCORE.INTRA.norm>
-0.0530264

>  <SCORE.RESTR>
0

>  <SCORE.RESTR.CAVITY>
0

>  <SCORE.RESTR.norm>
0

>  <SCORE.SYSTEM>
0

>  <SCORE.SYSTEM.CONST>
0

>  <SCORE.SYSTEM.DIHEDRAL>
0

>  <SCORE.SYSTEM.SOLV>
0

>  <SCORE.SYSTEM.norm>
0

>  <SCORE.heavy>
16

>  <SCORE.norm>
-0.720965

>  <RMSD>
6.422

$$$$
ligand
 OpenBabel11021811463D
libRbt.so/2013.1/901 2013/11/27
 16 16  0  0  0  0  0  0  0  0999 V2000
   43.7241   16.5186   13.9131 P   0  0  2  0  0  0  0  0  0  0  0  0
   44.4897   16.9215   12.7077 O   0  0  0  0  0  0  0  0  0  0  0  0
   42.1478   16.6330   13.6113 O   0  5  0  0  0  0  0  0  0  0  0  0
   44.0964   17.5116   15.1275 O   0  0  0  0  0  0  0  0  0  0  0  0
   47.7400   11.8101   14.6030 C   0  0  2  0  0  0  0  0  0  0  0  0
   46.9570   10.8984   13.8236 O   0  0  0  0  0  0  0  0  0  0  0  0
   47.6064   11.4929   16.1148 C   0  0  2  0  0  0  0  0  0  0  0  0
   48.0419   10.1073   16.3741 N   0  0  0  0  0  0  0  0  0  0  0  0
   46.1340   11.6667   16.5238 C   0  0  1  0  0  0  0  0  0  0  0  0
   45.9757   11.3990   17.9197 O   0  0  0  0  0  0  0  0  0  0  0  0
   45.7335   13.1120   16.2332 C   0  0  2  0  0  0  0  0  0  0  0  0
   44.3725   13.2940   16.6025 O   0  0  0  0  0  0  0  0  0  0  0  0
   45.9151   13.3847   14.7150 C   0  0  2  0  0  0  0  0  0  0  0  0
   47.3075   13.1776   14.3255 O   0  0  0  0  0  0  0  0  0  0  0  0
   45.5273   14.8442   14.3716 C   0  0  0  0  0  0  0  0  0  0  0  0
   44.0971   14.9904   14.3016 O   0  0  0  0  0  0  0  0  0  0  0  0
  1  2  1  6  0  0  0
  1  3  1  0  0  0  0
  1  4  2  0  0  0  0
  1 16  1  0  0  0  0
  5  6  1  6  0  0  0
  5  7  1  0  0  0  0
  5 14  1  0  0  0  0
  7  8  1  6  0  0  0
  7  9  1  0  0  0  0
  9 10  1  1  0  0  0
  9 11  1  0  0  0  0
 11 12  1  6  0  0  0
 11 13  1  0  0  0  0
 13 14  1  0  0  0  0
 13 15  1  1  0  0  0
 15 16  1  0  0  0  0
M  CHG  1   3  -1
M  END
>  <CHROM.1>
-78.37739070,-178.90910145,51.14401087,45.42608043,13.87877290,14.97226465
-2.36910806,-0.77085531,2.15448901

>  <Name>
ligand

>  <RI>
0

>  <Rbt.Current_Directory>
/home/itssahil/PROJECTS/Mol_Feturizer/New_Systems/rnas/3B4C

>  <Rbt.Executable>
rbdock ($Id: //depot/dev/client3/rdock/2013.1/src/exe/rbdock.cxx#4 $)

>  <Rbt.Library>
libRbt.so (2013.1, Build901 2013/11/27)

>  <Rbt.Parameter_File>
/export/apps/rDock/src/rDock_2013.1_src/data/scripts/dock_solv.prm

>  <Rbt.Receptor>
prm/pocket_docking_7.prm

>  <SCORE>
-11.5825

>  <SCORE.INTER>
-10.5606

>  <SCORE.INTER.CONST>
1

>  <SCORE.INTER.POLAR>
-1.06066

>  <SCORE.INTER.ROT>
3

>  <SCORE.INTER.SOLV>
26.1696

>  <SCORE.INTER.VDW>
-17.8281

>  <SCORE.INTER.norm>
-0.66004

>  <SCORE.INTRA>
-1.02186

>  <SCORE.INTRA.DIHEDRAL>
-0.874722

>  <SCORE.INTRA.DIHEDRAL.0>
2.1318

>  <SCORE.INTRA.POLAR>
0

>  <SCORE.INTRA.POLAR.0>
0

>  <SCORE.INTRA.REPUL>
0

>  <SCORE.INTRA.REPUL.0>
0

>  <SCORE.INTRA.SOLV>
-0.853219

>  <SCORE.INTRA.SOLV.lig_0>
-58.6125

>  <SCORE.INTRA.VDW>
-0.157888

>  <SCORE.INTRA.VDW.0>
-0.432734

>  <SCORE.INTRA.norm>
-0.0638661

>  <SCORE.RESTR>
0

>  <SCORE.RESTR.CAVITY>
0

>  <SCORE.RESTR.norm>
0

>  <SCORE.SYSTEM>
0

>  <SCORE.SYSTEM.CONST>
0

>  <SCORE.SYSTEM.DIHEDRAL>
0

>  <SCORE.SYSTEM.SOLV>
0

>  <SCORE.SYSTEM.norm>
0

>  <SCORE.heavy>
16

>  <SCORE.norm>
-0.723906

>  <RMSD>
6.435

$$$$
ligand
 OpenBabel11021811463D
libRbt.so/2013.1/901 2013/11/27
 16 16  0  0  0  0  0  0  0  0999 V2000
   43.6349   16.8461   13.6204 P   0  0  2  0  0  0  0  0  0  0  0  0
   42.1584   16.7085   13.6657 O   0  0  0  0  0  0  0  0  0  0  0  0
   44.0992   17.9954   14.6462 O   0  5  0  0  0  0  0  0  0  0  0  0
   44.0771   17.2684   12.1285 O   0  0  0  0  0  0  0  0  0  0  0  0
   44.9154   11.7607   16.5414 C   0  0  2  0  0  0  0  0  0  0  0  0
   45.5729   11.9984   17.7916 O   0  0  0  0  0  0  0  0  0  0  0  0
   45.9340   11.3054   15.4647 C   0  0  2  0  0  0  0  0  0  0  0  0
   46.6193   10.0784   15.9136 N   0  0  0  0  0  0  0  0  0  0  0  0
   46.9589   12.4323   15.2519 C   0  0  1  0  0  0  0  0  0  0  0  0
   47.9062   12.0536   14.2497 O   0  0  0  0  0  0  0  0  0  0  0  0
   46.2002   13.6761   14.7924 C   0  0  2  0  0  0  0  0  0  0  0  0
   47.1303   14.7327   14.5917 O   0  0  0  0  0  0  0  0  0  0  0  0
   45.1750   14.0696   15.8907 C   0  0  2  0  0  0  0  0  0  0  0  0
   44.2302   12.9790   16.1168 O   0  0  0  0  0  0  0  0  0  0  0  0
   44.3739   15.3252   15.4660 C   0  0  0  0  0  0  0  0  0  0  0  0
   44.3197   15.4364   14.0320 O   0  0  0  0  0  0  0  0  0  0  0  0
  1  2  1  1  0  0  0
  1  3  1  0  0  0  0
  1  4  2  0  0  0  0
  1 16  1  0  0  0  0
  5  6  1  1  0  0  0
  5  7  1  0  0  0  0
  5 14  1  0  0  0  0
  7  8  1  1  0  0  0
  7  9  1  0  0  0  0
  9 10  1  6  0  0  0
  9 11  1  0  0  0  0
 11 12  1  1  0  0  0
 11 13  1  0  0  0  0
 13 14  1  0  0  0  0
 13 15  1  6  0  0  0
 15 16  1  0  0  0  0
M  CHG  1   3  -1
M  END
>  <CHROM.1>
26.08269446,-173.17366515,-82.77015923,45.07133774,14.31183929,14.88277704
2.07636672,0.52683595,-0.67996869

>  <Name>
ligand

>  <RI>
0

>  <Rbt.Current_Directory>
/home/itssahil/PROJECTS/Mol_Feturizer/New_Systems/rnas/3B4C

>  <Rbt.Executable>
rbdock ($Id: //depot/dev/client3/rdock/2013.1/src/exe/rbdock.cxx#4 $)

>  <Rbt.Library>
libRbt.so (2013.1, Build901 2013/11/27)

>  <Rbt.Parameter_File>
/export/apps/rDock/src/rDock_2013.1_src/data/scripts/dock_solv.prm

>  <Rbt.Receptor>
prm/pocket_docking_8.prm

>  <SCORE>
-11.9895

>  <SCORE.INTER>
-13.3393

>  <SCORE.INTER.CONST>
1

>  <SCORE.INTER.POLAR>
-1.04217

>  <SCORE.INTER.ROT>
3

>  <SCORE.INTER.SOLV>
19.5352

>  <SCORE.INTER.VDW>
-17.5307

>  <SCORE.INTER.norm>
-0.833704

>  <SCORE.INTRA>
1.34972

>  <SCORE.INTRA.DIHEDRAL>
2.01799

>  <SCORE.INTRA.DIHEDRAL.0>
2.1318

>  <SCORE.INTRA.POLAR>
0

>  <SCORE.INTRA.POLAR.0>
0

>  <SCORE.INTRA.REPUL>
0

>  <SCORE.INTRA.REPUL.0>
0

>  <SCORE.INTRA.SOLV>
-0.322601

>  <SCORE.INTRA.SOLV.lig_0>
-58.6125

>  <SCORE.INTRA.VDW>
0.502021

>  <SCORE.INTRA.VDW.0>
-0.432734

>  <SCORE.INTRA.norm>
0.0843573

>  <SCORE.RESTR>
0

>  <SCORE.RESTR.CAVITY>
0

>  <SCORE.RESTR.norm>
0

>  <SCORE.SYSTEM>
0

>  <SCORE.SYSTEM.CONST>
0

>  <SCORE.SYSTEM.DIHEDRAL>
0

>  <SCORE.SYSTEM.SOLV>
0

>  <SCORE.SYSTEM.norm>
0

>  <SCORE.heavy>
16

>  <SCORE.norm>
-0.749346

>  <RMSD>
6.452

$$$$
ligand
 OpenBabel11021811463D
libRbt.so/2013.1/901 2013/11/27
 16 16  0  0  0  0  0  0  0  0999 V2000
   43.8242   16.6109   13.8727 P   0  0  2  0  0  0  0  0  0  0  0  0
   42.3960   16.2119   13.8231 O   0  0  0  0  0  0  0  0  0  0  0  0
   44.0859   17.5090   15.1818 O   0  5  0  0  0  0  0  0  0  0  0  0
   44.1708   17.4846   12.5626 O   0  0  0  0  0  0  0  0  0  0  0  0
   47.4165   12.2017   14.5746 C   0  0  2  0  0  0  0  0  0  0  0  0
   46.6797   11.2483   13.8001 O   0  0  0  0  0  0  0  0  0  0  0  0
   47.6529   11.6734   16.0130 C   0  0  2  0  0  0  0  0  0  0  0  0
   48.3862   10.3942   15.9603 N   0  0  0  0  0  0  0  0  0  0  0  0
   46.2875   11.4694   16.6908 C   0  0  1  0  0  0  0  0  0  0  0  0
   46.4675   10.9984   18.0291 O   0  0  0  0  0  0  0  0  0  0  0  0
   45.5702   12.8180   16.7170 C   0  0  2  0  0  0  0  0  0  0  0  0
   44.3023   12.6512   17.3386 O   0  0  0  0  0  0  0  0  0  0  0  0
   45.3871   13.3144   15.2568 C   0  0  2  0  0  0  0  0  0  0  0  0
   46.6859   13.4663   14.6061 O   0  0  0  0  0  0  0  0  0  0  0  0
   44.6687   14.6862   15.2319 C   0  0  0  0  0  0  0  0  0  0  0  0
   44.7523   15.2837   13.9252 O   0  0  0  0  0  0  0  0  0  0  0  0
  1  2  1  6  0  0  0
  1  3  1  0  0  0  0
  1  4  2  0  0  0  0
  1 16  1  0  0  0  0
  5  6  1  6  0  0  0
  5  7  1  0  0  0  0
  5 14  1  0  0  0  0
  7  8  1  6  0  0  0
  7  9  1  0  0  0  0
  9 10  1  1  0  0  0
  9 11  1  0  0  0  0
 11 12  1  6  0  0  0
 11 13  1  0  0  0  0
 13 14  1  0  0  0  0
 13 15  1  1  0  0  0
 15 16  1  0  0  0  0
M  CHG  1   3  -1
M  END
>  <CHROM.1>
167.54859412,172.23202515,-73.72742734,45.37377599,13.89957385,15.10080032
-2.30027673,-0.77359327,2.16786985

>  <Name>
ligand

>  <RI>
0

>  <Rbt.Current_Directory>
/home/itssahil/PROJECTS/Mol_Feturizer/New_Systems/rnas/3B4C

>  <Rbt.Executable>
rbdock ($Id: //depot/dev/client3/rdock/2013.1/src/exe/rbdock.cxx#4 $)

>  <Rbt.Library>
libRbt.so (2013.1, Build901 2013/11/27)

>  <Rbt.Parameter_File>
/export/apps/rDock/src/rDock_2013.1_src/data/scripts/dock_solv.prm

>  <Rbt.Receptor>
prm/pocket_docking_8.prm

>  <SCORE>
-14.5525

>  <SCORE.INTER>
-13.612

>  <SCORE.INTER.CONST>
1

>  <SCORE.INTER.POLAR>
-1.06008

>  <SCORE.INTER.ROT>
3

>  <SCORE.INTER.SOLV>
20.725

>  <SCORE.INTER.VDW>
-18.0494

>  <SCORE.INTER.norm>
-0.850751

>  <SCORE.INTRA>
-0.940454

>  <SCORE.INTRA.DIHEDRAL>
-1.00532

>  <SCORE.INTRA.DIHEDRAL.0>
2.1318

>  <SCORE.INTRA.POLAR>
0

>  <SCORE.INTRA.POLAR.0>
0

>  <SCORE.INTRA.REPUL>
0

>  <SCORE.INTRA.REPUL.0>
0

>  <SCORE.INTRA.SOLV>
-0.881782

>  <SCORE.INTRA.SOLV.lig_0>
-58.6125

>  <SCORE.INTRA.VDW>
0.00309751

>  <SCORE.INTRA.VDW.0>
-0.432734

>  <SCORE.INTRA.norm>
-0.0587784

>  <SCORE.RESTR>
0

>  <SCORE.RESTR.CAVITY>
0

>  <SCORE.RESTR.norm>
0

>  <SCORE.SYSTEM>
0

>  <SCORE.SYSTEM.CONST>
0

>  <SCORE.SYSTEM.DIHEDRAL>
0

>  <SCORE.SYSTEM.SOLV>
0

>  <SCORE.SYSTEM.norm>
0

>  <SCORE.heavy>
16

>  <SCORE.norm>
-0.90953

>  <RMSD>
6.483

$$$$
ligand
 OpenBabel11021811463D
libRbt.so/2013.1/901 2013/11/27
 16 16  0  0  0  0  0  0  0  0999 V2000
   44.2200   17.6606   13.6033 P   0  0  2  0  0  0  0  0  0  0  0  0
   42.7570   17.5416   13.8198 O   0  0  0  0  0  0  0  0  0  0  0  0
   44.6938   19.1593   13.9472 O   0  5  0  0  0  0  0  0  0  0  0  0
   44.5484   17.3516   12.0554 O   0  0  0  0  0  0  0  0  0  0  0  0
   44.8848   12.0912   16.3486 C   0  0  2  0  0  0  0  0  0  0  0  0
   45.2395   12.6004   17.6396 O   0  0  0  0  0  0  0  0  0  0  0  0
   46.1430   11.5930   15.5917 C   0  0  2  0  0  0  0  0  0  0  0  0
   46.8153   10.5421   16.3792 N   0  0  0  0  0  0  0  0  0  0  0  0
   47.0937   12.7840   15.3841 C   0  0  1  0  0  0  0  0  0  0  0  0
   48.2604   12.3644   14.6713 O   0  0  0  0  0  0  0  0  0  0  0  0
   46.3508   13.8412   14.5690 C   0  0  2  0  0  0  0  0  0  0  0  0
   47.2125   14.9541   14.3673 O   0  0  0  0  0  0  0  0  0  0  0  0
   45.0867   14.2814   15.3566 C   0  0  2  0  0  0  0  0  0  0  0  0
   44.2081   13.1375   15.5861 O   0  0  0  0  0  0  0  0  0  0  0  0
   44.2941   15.3506   14.5646 C   0  0  0  0  0  0  0  0  0  0  0  0
   44.9933   16.6086   14.5631 O   0  0  0  0  0  0  0  0  0  0  0  0
  1  2  1  1  0  0  0
  1  3  1  0  0  0  0
  1  4  2  0  0  0  0
  1 16  1  0  0  0  0
  5  6  1  1  0  0  0
  5  7  1  0  0  0  0
  5 14  1  0  0  0  0
  7  8  1  1  0  0  0
  7  9  1  0  0  0  0
  9 10  1  6  0  0  0
  9 11  1  0  0  0  0
 11 12  1  1  0  0  0
 11 13  1  0  0  0  0
 13 14  1  0  0  0  0
 13 15  1  6  0  0  0
 15 16  1  0  0  0  0
M  CHG  1   3  -1
M  END
>  <CHROM.1>
-71.77442574,174.20011511,41.92511310,45.32259523,14.79709298,14.78436985
1.93722865,0.40815402,-0.54664469

>  <Name>
ligand

>  <RI>
0

>  <Rbt.Current_Directory>
/home/itssahil/PROJECTS/Mol_Feturizer/New_Systems/rnas/3B4C

>  <Rbt.Executable>
rbdock ($Id: //depot/dev/client3/rdock/2013.1/src/exe/rbdock.cxx#4 $)

>  <Rbt.Library>
libRbt.so (2013.1, Build901 2013/11/27)

>  <Rbt.Parameter_File>
/export/apps/rDock/src/rDock_2013.1_src/data/scripts/dock_solv.prm

>  <Rbt.Receptor>
prm/pocket_docking_8.prm

>  <SCORE>
-9.40337

>  <SCORE.INTER>
-8.66628

>  <SCORE.INTER.CONST>
1

>  <SCORE.INTER.POLAR>
-1.07673

>  <SCORE.INTER.ROT>
3

>  <SCORE.INTER.SOLV>
18.3127

>  <SCORE.INTER.VDW>
-13.8926

>  <SCORE.INTER.norm>
-0.541642

>  <SCORE.INTRA>
-0.737091

>  <SCORE.INTRA.DIHEDRAL>
-0.988748

>  <SCORE.INTRA.DIHEDRAL.0>
2.1318

>  <SCORE.INTRA.POLAR>
0

>  <SCORE.INTRA.POLAR.0>
0

>  <SCORE.INTRA.REPUL>
0

>  <SCORE.INTRA.REPUL.0>
0

>  <SCORE.INTRA.SOLV>
-0.670933

>  <SCORE.INTRA.SOLV.lig_0>
-58.6125

>  <SCORE.INTRA.VDW>
0.0927495

>  <SCORE.INTRA.VDW.0>
-0.432734

>  <SCORE.INTRA.norm>
-0.0460682

>  <SCORE.RESTR>
0

>  <SCORE.RESTR.CAVITY>
0

>  <SCORE.RESTR.norm>
0

>  <SCORE.SYSTEM>
0

>  <SCORE.SYSTEM.CONST>
0

>  <SCORE.SYSTEM.DIHEDRAL>
0

>  <SCORE.SYSTEM.SOLV>
0

>  <SCORE.SYSTEM.norm>
0

>  <SCORE.heavy>
16

>  <SCORE.norm>
-0.587711

>  <RMSD>
6.484

$$$$
ligand
 OpenBabel11021811463D
libRbt.so/2013.1/901 2013/11/27
 16 16  0  0  0  0  0  0  0  0999 V2000
   43.8186   16.6198   13.8733 P   0  0  2  0  0  0  0  0  0  0  0  0
   42.3853   16.2413   13.8134 O   0  0  0  0  0  0  0  0  0  0  0  0
   44.0846   17.5110   15.1863 O   0  5  0  0  0  0  0  0  0  0  0  0
   44.1863   17.4915   12.5677 O   0  0  0  0  0  0  0  0  0  0  0  0
   47.3659   12.1676   14.6052 C   0  0  2  0  0  0  0  0  0  0  0  0
   46.6126   11.2251   13.8331 O   0  0  0  0  0  0  0  0  0  0  0  0
   47.5896   11.6407   16.0461 C   0  0  2  0  0  0  0  0  0  0  0  0
   48.2987   10.3477   15.9999 N   0  0  0  0  0  0  0  0  0  0  0  0
   46.2194   11.4652   16.7222 C   0  0  1  0  0  0  0  0  0  0  0  0
   46.3880   10.9963   18.0626 O   0  0  0  0  0  0  0  0  0  0  0  0
   45.5277   12.8273   16.7416 C   0  0  2  0  0  0  0  0  0  0  0  0
   44.2557   12.6870   17.3614 O   0  0  0  0  0  0  0  0  0  0  0  0
   45.3566   13.3211   15.2791 C   0  0  2  0  0  0  0  0  0  0  0  0
   46.6593   13.4459   14.6302 O   0  0  0  0  0  0  0  0  0  0  0  0
   44.6643   14.7062   15.2473 C   0  0  0  0  0  0  0  0  0  0  0  0
   44.7274   15.2794   13.9287 O   0  0  0  0  0  0  0  0  0  0  0  0
  1  2  1  6  0  0  0
  1  3  1  0  0  0  0
  1  4  2  0  0  0  0
  1 16  1  0  0  0  0
  5  6  1  6  0  0  0
  5  7  1  0  0  0  0
  5 14  1  0  0  0  0
  7  8  1  6  0  0  0
  7  9  1  0  0  0  0
  9 10  1  1  0  0  0
  9 11  1  0  0  0  0
 11 12  1  6  0  0  0
 11 13  1  0  0  0  0
 13 14  1  0  0  0  0
 13 15  1  1  0  0  0
 15 16  1  0  0  0  0
M  CHG  1   3  -1
M  END
>  <CHROM.1>
169.23426702,171.98184743,-75.75363269,45.33952482,13.89788592,15.11866094
-2.29169471,-0.78464295,2.16769427

>  <Name>
ligand

>  <RI>
0

>  <Rbt.Current_Directory>
/home/itssahil/PROJECTS/Mol_Feturizer/New_Systems/rnas/3B4C

>  <Rbt.Executable>
rbdock ($Id: //depot/dev/client3/rdock/2013.1/src/exe/rbdock.cxx#4 $)

>  <Rbt.Library>
libRbt.so (2013.1, Build901 2013/11/27)

>  <Rbt.Parameter_File>
/export/apps/rDock/src/rDock_2013.1_src/data/scripts/dock_solv.prm

>  <Rbt.Receptor>
prm/pocket_docking_7.prm

>  <SCORE>
-14.5088

>  <SCORE.INTER>
-13.5822

>  <SCORE.INTER.CONST>
1

>  <SCORE.INTER.POLAR>
-1.06066

>  <SCORE.INTER.ROT>
3

>  <SCORE.INTER.SOLV>
20.7834

>  <SCORE.INTER.VDW>
-18.0471

>  <SCORE.INTER.norm>
-0.848887

>  <SCORE.INTRA>
-0.926633

>  <SCORE.INTRA.DIHEDRAL>
-1.0305

>  <SCORE.INTRA.DIHEDRAL.0>
2.1318

>  <SCORE.INTRA.POLAR>
0

>  <SCORE.INTRA.POLAR.0>
0

>  <SCORE.INTRA.REPUL>
0

>  <SCORE.INTRA.REPUL.0>
0

>  <SCORE.INTRA.SOLV>
-0.867969

>  <SCORE.INTRA.SOLV.lig_0>
-58.6125

>  <SCORE.INTRA.VDW>
0.0226018

>  <SCORE.INTRA.VDW.0>
-0.432734

>  <SCORE.INTRA.norm>
-0.0579146

>  <SCORE.RESTR>
0

>  <SCORE.RESTR.CAVITY>
0

>  <SCORE.RESTR.norm>
0

>  <SCORE.SYSTEM>
0

>  <SCORE.SYSTEM.CONST>
0

>  <SCORE.SYSTEM.DIHEDRAL>
0

>  <SCORE.SYSTEM.SOLV>
0

>  <SCORE.SYSTEM.norm>
0

>  <SCORE.heavy>
16

>  <SCORE.norm>
-0.906801

>  <RMSD>
6.487

$$$$
ligand
 OpenBabel11021811463D
libRbt.so/2013.1/901 2013/11/27
 16 16  0  0  0  0  0  0  0  0999 V2000
   45.5908   11.6145   16.5035 P   0  0  2  0  0  0  0  0  0  0  0  0
   45.8474   12.1631   17.8579 O   0  0  0  0  0  0  0  0  0  0  0  0
   44.1331   10.9344   16.4667 O   0  5  0  0  0  0  0  0  0  0  0  0
   46.6993   10.4911   16.1736 O   0  0  0  0  0  0  0  0  0  0  0  0
   43.3890   16.9064   14.0802 C   0  0  2  0  0  0  0  0  0  0  0  0
   42.7167   16.2441   13.0025 O   0  0  0  0  0  0  0  0  0  0  0  0
   44.6968   17.5738   13.5821 C   0  0  2  0  0  0  0  0  0  0  0  0
   44.3870   18.5415   12.5124 N   0  0  0  0  0  0  0  0  0  0  0  0
   45.6327   16.4778   13.0450 C   0  0  1  0  0  0  0  0  0  0  0  0
   46.8597   17.0563   12.5922 O   0  0  0  0  0  0  0  0  0  0  0  0
   45.9188   15.5039   14.1867 C   0  0  2  0  0  0  0  0  0  0  0  0
   46.7819   14.4794   13.7102 O   0  0  0  0  0  0  0  0  0  0  0  0
   44.5757   14.8892   14.6668 C   0  0  2  0  0  0  0  0  0  0  0  0
   43.6764   15.9397   15.1369 O   0  0  0  0  0  0  0  0  0  0  0  0
   44.8143   13.8974   15.8322 C   0  0  0  0  0  0  0  0  0  0  0  0
   45.6631   12.8126   15.4149 O   0  0  0  0  0  0  0  0  0  0  0  0
  1  2  1  1  0  0  0
  1  3  1  0  0  0  0
  1  4  2  0  0  0  0
  1 16  1  0  0  0  0
  5  6  1  6  0  0  0
  5  7  1  0  0  0  0
  5 14  1  0  0  0  0
  7  8  1  6  0  0  0
  7  9  1  0  0  0  0
  9 10  1  1  0  0  0
  9 11  1  0  0  0  0
 11 12  1  6  0  0  0
 11 13  1  0  0  0  0
 13 14  1  0  0  0  0
 13 15  1  1  0  0  0
 15 16  1  0  0  0  0
M  CHG  1   3  -1
M  END
>  <CHROM.1>
-60.79957246,-165.59489836,-51.49621752,45.13845401,14.42043243,14.83444314
1.42262775,-0.27864561,2.56184996

>  <Name>
ligand

>  <RI>
0

>  <Rbt.Current_Directory>
/home/itssahil/PROJECTS/Mol_Feturizer/New_Systems/rnas/3B4C

>  <Rbt.Executable>
rbdock ($Id: //depot/dev/client3/rdock/2013.1/src/exe/rbdock.cxx#4 $)

>  <Rbt.Library>
libRbt.so (2013.1, Build901 2013/11/27)

>  <Rbt.Parameter_File>
/export/apps/rDock/src/rDock_2013.1_src/data/scripts/dock_solv.prm

>  <Rbt.Receptor>
prm/pocket_docking_8.prm

>  <SCORE>
-7.23338

>  <SCORE.INTER>
-6.5056

>  <SCORE.INTER.CONST>
1

>  <SCORE.INTER.POLAR>
0

>  <SCORE.INTER.ROT>
3

>  <SCORE.INTER.SOLV>
17.9498

>  <SCORE.INTER.VDW>
-15.9203

>  <SCORE.INTER.norm>
-0.4066

>  <SCORE.INTRA>
-0.727777

>  <SCORE.INTRA.DIHEDRAL>
-1.03143

>  <SCORE.INTRA.DIHEDRAL.0>
2.1318

>  <SCORE.INTRA.POLAR>
0

>  <SCORE.INTRA.POLAR.0>
0

>  <SCORE.INTRA.REPUL>
0

>  <SCORE.INTRA.REPUL.0>
0

>  <SCORE.INTRA.SOLV>
-0.687878

>  <SCORE.INTRA.SOLV.lig_0>
-58.6125

>  <SCORE.INTRA.VDW>
0.131876

>  <SCORE.INTRA.VDW.0>
-0.432734

>  <SCORE.INTRA.norm>
-0.045486

>  <SCORE.RESTR>
0

>  <SCORE.RESTR.CAVITY>
0

>  <SCORE.RESTR.norm>
0

>  <SCORE.SYSTEM>
0

>  <SCORE.SYSTEM.CONST>
0

>  <SCORE.SYSTEM.DIHEDRAL>
0

>  <SCORE.SYSTEM.SOLV>
0

>  <SCORE.SYSTEM.norm>
0

>  <SCORE.heavy>
16

>  <SCORE.norm>
-0.452086

>  <RMSD>
6.547

$$$$
ligand
 OpenBabel11021811463D
libRbt.so/2013.1/901 2013/11/27
 16 16  0  0  0  0  0  0  0  0999 V2000
   43.8012   16.7725   13.7524 P   0  0  2  0  0  0  0  0  0  0  0  0
   42.4098   16.2580   13.7770 O   0  0  0  0  0  0  0  0  0  0  0  0
   44.0419   17.7316   15.0218 O   0  5  0  0  0  0  0  0  0  0  0  0
   44.0210   17.6275   12.4033 O   0  0  0  0  0  0  0  0  0  0  0  0
   47.6080   12.5177   14.4689 C   0  0  2  0  0  0  0  0  0  0  0  0
   46.9804   11.6116   13.5540 O   0  0  0  0  0  0  0  0  0  0  0  0
   47.7341   11.8764   15.8749 C   0  0  2  0  0  0  0  0  0  0  0  0
   48.5173   10.6292   15.7858 N   0  0  0  0  0  0  0  0  0  0  0  0
   46.3221   11.5741   16.4043 C   0  0  1  0  0  0  0  0  0  0  0  0
   46.3990   10.9967   17.7104 O   0  0  0  0  0  0  0  0  0  0  0  0
   45.5547   12.8932   16.4742 C   0  0  2  0  0  0  0  0  0  0  0  0
   44.2433   12.6357   16.9599 O   0  0  0  0  0  0  0  0  0  0  0  0
   45.4846   13.5061   15.0489 C   0  0  2  0  0  0  0  0  0  0  0  0
   46.8299   13.7522   14.5359 O   0  0  0  0  0  0  0  0  0  0  0  0
   44.7197   14.8526   15.0699 C   0  0  0  0  0  0  0  0  0  0  0  0
   44.8365   15.5270   13.8038 O   0  0  0  0  0  0  0  0  0  0  0  0
  1  2  1  1  0  0  0
  1  3  1  0  0  0  0
  1  4  2  0  0  0  0
  1 16  1  0  0  0  0
  5  6  1  6  0  0  0
  5  7  1  0  0  0  0
  5 14  1  0  0  0  0
  7  8  1  6  0  0  0
  7  9  1  0  0  0  0
  9 10  1  1  0  0  0
  9 11  1  0  0  0  0
 11 12  1  6  0  0  0
 11 13  1  0  0  0  0
 13 14  1  0  0  0  0
 13 15  1  1  0  0  0
 15 16  1  0  0  0  0
M  CHG  1   3  -1
M  END
>  <CHROM.1>
170.72883230,168.92107319,-65.75259588,45.41524722,14.06941970,14.92141791
-2.25740038,-0.67927247,2.26795644

>  <Name>
ligand

>  <RI>
0

>  <Rbt.Current_Directory>
/home/itssahil/PROJECTS/Mol_Feturizer/New_Systems/rnas/3B4C

>  <Rbt.Executable>
rbdock ($Id: //depot/dev/client3/rdock/2013.1/src/exe/rbdock.cxx#4 $)

>  <Rbt.Library>
libRbt.so (2013.1, Build901 2013/11/27)

>  <Rbt.Parameter_File>
/export/apps/rDock/src/rDock_2013.1_src/data/scripts/dock_solv.prm

>  <Rbt.Receptor>
prm/pocket_docking_8.prm

>  <SCORE>
-14.3476

>  <SCORE.INTER>
-13.1812

>  <SCORE.INTER.CONST>
1

>  <SCORE.INTER.POLAR>
-1.05943

>  <SCORE.INTER.ROT>
3

>  <SCORE.INTER.SOLV>
19.3536

>  <SCORE.INTER.VDW>
-17.3072

>  <SCORE.INTER.norm>
-0.823825

>  <SCORE.INTRA>
-1.16645

>  <SCORE.INTRA.DIHEDRAL>
-1.18625

>  <SCORE.INTRA.DIHEDRAL.0>
2.1318

>  <SCORE.INTRA.POLAR>
0

>  <SCORE.INTRA.POLAR.0>
0

>  <SCORE.INTRA.REPUL>
0

>  <SCORE.INTRA.REPUL.0>
0

>  <SCORE.INTRA.SOLV>
-0.987974

>  <SCORE.INTRA.SOLV.lig_0>
-58.6125

>  <SCORE.INTRA.VDW>
-0.0793447

>  <SCORE.INTRA.VDW.0>
-0.432734

>  <SCORE.INTRA.norm>
-0.0729034

>  <SCORE.RESTR>
0

>  <SCORE.RESTR.CAVITY>
0

>  <SCORE.RESTR.norm>
0

>  <SCORE.SYSTEM>
0

>  <SCORE.SYSTEM.CONST>
0

>  <SCORE.SYSTEM.DIHEDRAL>
0

>  <SCORE.SYSTEM.SOLV>
0

>  <SCORE.SYSTEM.norm>
0

>  <SCORE.heavy>
16

>  <SCORE.norm>
-0.896728

>  <RMSD>
6.554

$$$$
ligand
 OpenBabel11021811463D
libRbt.so/2013.1/901 2013/11/27
 16 16  0  0  0  0  0  0  0  0999 V2000
   43.2671   10.1935   15.3791 P   0  0  2  0  0  0  0  0  0  0  0  0
   42.1664   10.4074   14.4074 O   0  0  0  0  0  0  0  0  0  0  0  0
   43.5056    8.6152   15.5818 O   0  5  0  0  0  0  0  0  0  0  0  0
   42.8518   10.8447   16.7944 O   0  0  0  0  0  0  0  0  0  0  0  0
   47.3105   13.2299   12.5182 C   0  0  2  0  0  0  0  0  0  0  0  0
   48.4019   12.7469   13.3102 O   0  0  0  0  0  0  0  0  0  0  0  0
   47.2258   14.7765   12.5875 C   0  0  2  0  0  0  0  0  0  0  0  0
   48.4916   15.3671   12.1125 N   0  0  0  0  0  0  0  0  0  0  0  0
   46.9682   15.1884   14.0468 C   0  0  1  0  0  0  0  0  0  0  0  0
   46.8661   16.6114   14.1461 O   0  0  0  0  0  0  0  0  0  0  0  0
   45.6524   14.5506   14.4893 C   0  0  2  0  0  0  0  0  0  0  0  0
   45.3960   14.9174   15.8389 O   0  0  0  0  0  0  0  0  0  0  0  0
   45.7813   13.0074   14.3714 C   0  0  2  0  0  0  0  0  0  0  0  0
   46.0668   12.6263   12.9906 O   0  0  0  0  0  0  0  0  0  0  0  0
   44.4654   12.3144   14.8036 C   0  0  0  0  0  0  0  0  0  0  0  0
   44.6217   10.8838   14.8183 O   0  0  0  0  0  0  0  0  0  0  0  0
  1  2  1  6  0  0  0
  1  3  1  0  0  0  0
  1  4  2  0  0  0  0
  1 16  1  0  0  0  0
  5  6  1  1  0  0  0
  5  7  1  0  0  0  0
  5 14  1  0  0  0  0
  7  8  1  1  0  0  0
  7  9  1  0  0  0  0
  9 10  1  6  0  0  0
  9 11  1  0  0  0  0
 11 12  1  1  0  0  0
 11 13  1  0  0  0  0
 13 14  1  0  0  0  0
 13 15  1  6  0  0  0
 15 16  1  0  0  0  0
M  CHG  1   3  -1
M  END
>  <CHROM.1>
-174.49136673,175.80454329,67.33891061,45.35342555,12.64282797,14.38035125
-2.52359283,0.70477730,0.32304062

>  <Name>
ligand

>  <RI>
0

>  <Rbt.Current_Directory>
/home/itssahil/PROJECTS/Mol_Feturizer/New_Systems/rnas/3B4C

>  <Rbt.Executable>
rbdock ($Id: //depot/dev/client3/rdock/2013.1/src/exe/rbdock.cxx#4 $)

>  <Rbt.Library>
libRbt.so (2013.1, Build901 2013/11/27)

>  <Rbt.Parameter_File>
/export/apps/rDock/src/rDock_2013.1_src/data/scripts/dock_solv.prm

>  <Rbt.Receptor>
prm/pocket_docking_6.prm

>  <SCORE>
-8.41559

>  <SCORE.INTER>
-6.87414

>  <SCORE.INTER.CONST>
1

>  <SCORE.INTER.POLAR>
-0.838764

>  <SCORE.INTER.ROT>
3

>  <SCORE.INTER.SOLV>
20.9245

>  <SCORE.INTER.VDW>
-14.3617

>  <SCORE.INTER.norm>
-0.429634

>  <SCORE.INTRA>
-1.54145

>  <SCORE.INTRA.DIHEDRAL>
-1.84238

>  <SCORE.INTRA.DIHEDRAL.0>
2.1318

>  <SCORE.INTRA.POLAR>
0

>  <SCORE.INTRA.POLAR.0>
0

>  <SCORE.INTRA.REPUL>
0

>  <SCORE.INTRA.REPUL.0>
0

>  <SCORE.INTRA.SOLV>
-0.966532

>  <SCORE.INTRA.SOLV.lig_0>
-58.6125

>  <SCORE.INTRA.VDW>
-0.136992

>  <SCORE.INTRA.VDW.0>
-0.432734

>  <SCORE.INTRA.norm>
-0.0963405

>  <SCORE.RESTR>
0

>  <SCORE.RESTR.CAVITY>
0

>  <SCORE.RESTR.norm>
0

>  <SCORE.SYSTEM>
0

>  <SCORE.SYSTEM.CONST>
0

>  <SCORE.SYSTEM.DIHEDRAL>
0

>  <SCORE.SYSTEM.SOLV>
0

>  <SCORE.SYSTEM.norm>
0

>  <SCORE.heavy>
16

>  <SCORE.norm>
-0.525974

>  <RMSD>
6.623

$$$$
ligand
 OpenBabel11021811463D
libRbt.so/2013.1/901 2013/11/27
 16 16  0  0  0  0  0  0  0  0999 V2000
   51.0537   13.5703    9.8714 P   0  0  2  0  0  0  0  0  0  0  0  0
   50.3496   13.3000    8.5938 O   0  0  0  0  0  0  0  0  0  0  0  0
   50.2655   14.7104   10.6885 O   0  5  0  0  0  0  0  0  0  0  0  0
   52.5437   14.0952    9.5488 O   0  0  0  0  0  0  0  0  0  0  0  0
   50.9737    8.2102   12.1416 C   0  0  2  0  0  0  0  0  0  0  0  0
   51.5907    8.6138   13.3697 O   0  0  0  0  0  0  0  0  0  0  0  0
   51.8227    7.1231   11.4335 C   0  0  2  0  0  0  0  0  0  0  0  0
   51.9821    5.9568   12.3230 N   0  0  0  0  0  0  0  0  0  0  0  0
   53.1997    7.7192   11.0960 C   0  0  1  0  0  0  0  0  0  0  0  0
   54.0056    6.7476   10.4240 O   0  0  0  0  0  0  0  0  0  0  0  0
   52.9789    8.9209   10.1789 C   0  0  2  0  0  0  0  0  0  0  0  0
   54.2415    9.4896    9.8559 O   0  0  0  0  0  0  0  0  0  0  0  0
   52.0999    9.9624   10.9237 C   0  0  2  0  0  0  0  0  0  0  0  0
   50.8095    9.3767   11.2776 O   0  0  0  0  0  0  0  0  0  0  0  0
   51.8417   11.1997   10.0286 C   0  0  0  0  0  0  0  0  0  0  0  0
   51.1146   12.2105   10.7505 O   0  0  0  0  0  0  0  0  0  0  0  0
  1  2  1  6  0  0  0
  1  3  1  0  0  0  0
  1  4  2  0  0  0  0
  1 16  1  0  0  0  0
  5  6  1  1  0  0  0
  5  7  1  0  0  0  0
  5 14  1  0  0  0  0
  7  8  1  1  0  0  0
  7  9  1  0  0  0  0
  9 10  1  6  0  0  0
  9 11  1  0  0  0  0
 11 12  1  1  0  0  0
 11 13  1  0  0  0  0
 13 14  1  0  0  0  0
 13 15  1  6  0  0  0
 15 16  1  0  0  0  0
M  CHG  1   3  -1
M  END
>  <CHROM.1>
-175.59166509,171.54335739,60.91734966,51.86094370,10.40656460,10.69917389
1.84986513,0.64425916,-0.43088058

>  <Name>
ligand

>  <RI>
0

>  <Rbt.Current_Directory>
/home/itssahil/PROJECTS/Mol_Feturizer/New_Systems/rnas/3B4C

>  <Rbt.Executable>
rbdock ($Id: //depot/dev/client3/rdock/2013.1/src/exe/rbdock.cxx#4 $)

>  <Rbt.Library>
libRbt.so (2013.1, Build901 2013/11/27)

>  <Rbt.Parameter_File>
/export/apps/rDock/src/rDock_2013.1_src/data/scripts/dock_solv.prm

>  <Rbt.Receptor>
prm/pocket_docking_7.prm

>  <SCORE>
-7.56964

>  <SCORE.INTER>
-6.07422

>  <SCORE.INTER.CONST>
1

>  <SCORE.INTER.POLAR>
-1.03864

>  <SCORE.INTER.ROT>
3

>  <SCORE.INTER.SOLV>
9.28063

>  <SCORE.INTER.VDW>
-9.28088

>  <SCORE.INTER.norm>
-0.379639

>  <SCORE.INTRA>
-1.49542

>  <SCORE.INTRA.DIHEDRAL>
-1.70903

>  <SCORE.INTRA.DIHEDRAL.0>
2.1318

>  <SCORE.INTRA.POLAR>
0

>  <SCORE.INTRA.POLAR.0>
0

>  <SCORE.INTRA.REPUL>
0

>  <SCORE.INTRA.REPUL.0>
0

>  <SCORE.INTRA.SOLV>
-1.01874

>  <SCORE.INTRA.SOLV.lig_0>
-58.6125

>  <SCORE.INTRA.VDW>
-0.131541

>  <SCORE.INTRA.VDW.0>
-0.432734

>  <SCORE.INTRA.norm>
-0.093464

>  <SCORE.RESTR>
0

>  <SCORE.RESTR.CAVITY>
0

>  <SCORE.RESTR.norm>
0

>  <SCORE.SYSTEM>
0

>  <SCORE.SYSTEM.CONST>
0

>  <SCORE.SYSTEM.DIHEDRAL>
0

>  <SCORE.SYSTEM.SOLV>
0

>  <SCORE.SYSTEM.norm>
0

>  <SCORE.heavy>
16

>  <SCORE.norm>
-0.473103

>  <RMSD>
7.432

$$$$
ligand
 OpenBabel11021811463D
libRbt.so/2013.1/901 2013/11/27
 16 16  0  0  0  0  0  0  0  0999 V2000
   56.2261    9.8511   13.4106 P   0  0  2  0  0  0  0  0  0  0  0  0
   57.6730    9.7293   13.7157 O   0  0  0  0  0  0  0  0  0  0  0  0
   55.4878    8.4611   13.7446 O   0  5  0  0  0  0  0  0  0  0  0  0
   56.0461   10.1737   11.8412 O   0  0  0  0  0  0  0  0  0  0  0  0
   54.0950   11.6498   18.3407 C   0  0  2  0  0  0  0  0  0  0  0  0
   53.1653   12.5834   17.7787 O   0  0  0  0  0  0  0  0  0  0  0  0
   55.0267   12.3520   19.3619 C   0  0  2  0  0  0  0  0  0  0  0  0
   54.2196   12.9650   20.4341 N   0  0  0  0  0  0  0  0  0  0  0  0
   55.8329   13.4353   18.6256 C   0  0  1  0  0  0  0  0  0  0  0  0
   56.7186   14.0935   19.5353 O   0  0  0  0  0  0  0  0  0  0  0  0
   56.6456   12.7508   17.5279 C   0  0  2  0  0  0  0  0  0  0  0  0
   57.3980   13.7364   16.8320 O   0  0  0  0  0  0  0  0  0  0  0  0
   55.6680   12.0395   16.5530 C   0  0  2  0  0  0  0  0  0  0  0  0
   54.8766   11.0409   17.2672 O   0  0  0  0  0  0  0  0  0  0  0  0
   56.4480   11.3227   15.4232 C   0  0  0  0  0  0  0  0  0  0  0  0
   55.5855   11.0398   14.3062 O   0  0  0  0  0  0  0  0  0  0  0  0
  1  2  1  1  0  0  0
  1  3  1  0  0  0  0
  1  4  2  0  0  0  0
  1 16  1  0  0  0  0
  5  6  1  6  0  0  0
  5  7  1  0  0  0  0
  5 14  1  0  0  0  0
  7  8  1  1  0  0  0
  7  9  1  0  0  0  0
  9 10  1  1  0  0  0
  9 11  1  0  0  0  0
 11 12  1  6  0  0  0
 11 13  1  0  0  0  0
 13 14  1  0  0  0  0
 13 15  1  6  0  0  0
 15 16  1  0  0  0  0
M  CHG  1   3  -1
M  END
>  <CHROM.1>
-161.40961463,-159.09438981,-19.08533224,55.74613278,11.54060063,16.24460135
1.39766398,-0.49351079,-2.16977799

>  <Name>
ligand

>  <RI>
0

>  <Rbt.Current_Directory>
/home/itssahil/PROJECTS/Mol_Feturizer/New_Systems/rnas/3B4C

>  <Rbt.Executable>
rbdock ($Id: //depot/dev/client3/rdock/2013.1/src/exe/rbdock.cxx#4 $)

>  <Rbt.Library>
libRbt.so (2013.1, Build901 2013/11/27)

>  <Rbt.Parameter_File>
/export/apps/rDock/src/rDock_2013.1_src/data/scripts/dock_solv.prm

>  <Rbt.Receptor>
prm/pocket_docking_8.prm

>  <SCORE>
-8.28037

>  <SCORE.INTER>
-10.0905

>  <SCORE.INTER.CONST>
1

>  <SCORE.INTER.POLAR>
-1.29904

>  <SCORE.INTER.ROT>
3

>  <SCORE.INTER.SOLV>
15.781

>  <SCORE.INTER.VDW>
-13.2572

>  <SCORE.INTER.norm>
-0.630655

>  <SCORE.INTRA>
1.8101

>  <SCORE.INTRA.DIHEDRAL>
2.83344

>  <SCORE.INTRA.DIHEDRAL.0>
2.1318

>  <SCORE.INTRA.POLAR>
0

>  <SCORE.INTRA.POLAR.0>
0

>  <SCORE.INTRA.REPUL>
0

>  <SCORE.INTRA.REPUL.0>
0

>  <SCORE.INTRA.SOLV>
-1.17516

>  <SCORE.INTRA.SOLV.lig_0>
-58.6125

>  <SCORE.INTRA.VDW>
0.980963

>  <SCORE.INTRA.VDW.0>
-0.432734

>  <SCORE.INTRA.norm>
0.113132

>  <SCORE.RESTR>
0

>  <SCORE.RESTR.CAVITY>
0

>  <SCORE.RESTR.norm>
0

>  <SCORE.SYSTEM>
0

>  <SCORE.SYSTEM.CONST>
0

>  <SCORE.SYSTEM.DIHEDRAL>
0

>  <SCORE.SYSTEM.SOLV>
0

>  <SCORE.SYSTEM.norm>
0

>  <SCORE.heavy>
16

>  <SCORE.norm>
-0.517523

>  <RMSD>
8.007

$$$$
ligand
 OpenBabel11021811463D
libRbt.so/2013.1/901 2013/11/27
 16 16  0  0  0  0  0  0  0  0999 V2000
   56.0011   10.1131   13.5309 P   0  0  2  0  0  0  0  0  0  0  0  0
   55.5805    8.7665   13.9903 O   0  0  0  0  0  0  0  0  0  0  0  0
   55.4574   10.3654   12.0377 O   0  5  0  0  0  0  0  0  0  0  0  0
   57.6118   10.1842   13.5189 O   0  0  0  0  0  0  0  0  0  0  0  0
   54.0714   11.8472   18.6656 C   0  0  2  0  0  0  0  0  0  0  0  0
   53.1366   12.7898   18.1276 O   0  0  0  0  0  0  0  0  0  0  0  0
   55.0633   12.5484   19.6291 C   0  0  2  0  0  0  0  0  0  0  0  0
   54.3191   13.1993   20.7242 N   0  0  0  0  0  0  0  0  0  0  0  0
   55.8574   13.5996   18.8354 C   0  0  1  0  0  0  0  0  0  0  0  0
   56.7973   14.2558   19.6904 O   0  0  0  0  0  0  0  0  0  0  0  0
   56.6045   12.8767   17.7159 C   0  0  2  0  0  0  0  0  0  0  0  0
   57.3446   13.8322   16.9669 O   0  0  0  0  0  0  0  0  0  0  0  0
   55.5687   12.1682   16.8009 C   0  0  2  0  0  0  0  0  0  0  0  0
   54.7902   11.2010   17.5702 O   0  0  0  0  0  0  0  0  0  0  0  0
   56.2810   11.4131   15.6515 C   0  0  0  0  0  0  0  0  0  0  0  0
   55.3961   11.2359   14.5304 O   0  0  0  0  0  0  0  0  0  0  0  0
  1  2  1  1  0  0  0
  1  3  1  0  0  0  0
  1  4  2  0  0  0  0
  1 16  1  0  0  0  0
  5  6  1  6  0  0  0
  5  7  1  0  0  0  0
  5 14  1  0  0  0  0
  7  8  1  1  0  0  0
  7  9  1  0  0  0  0
  9 10  1  1  0  0  0
  9 11  1  0  0  0  0
 11 12  1  6  0  0  0
 11 13  1  0  0  0  0
 13 14  1  0  0  0  0
 13 15  1  6  0  0  0
 15 16  1  0  0  0  0
M  CHG  1   3  -1
M  END
>  <CHROM.1>
-156.12428416,-164.38493102,85.68482960,55.65633175,11.74531617,16.44171450
1.43514615,-0.47515537,-2.12371204

>  <Name>
ligand

>  <RI>
0

>  <Rbt.Current_Directory>
/home/itssahil/PROJECTS/Mol_Feturizer/New_Systems/rnas/3B4C

>  <Rbt.Executable>
rbdock ($Id: //depot/dev/client3/rdock/2013.1/src/exe/rbdock.cxx#4 $)

>  <Rbt.Library>
libRbt.so (2013.1, Build901 2013/11/27)

>  <Rbt.Parameter_File>
/export/apps/rDock/src/rDock_2013.1_src/data/scripts/dock_solv.prm

>  <Rbt.Receptor>
prm/pocket_docking_8.prm

>  <SCORE>
-6.84655

>  <SCORE.INTER>
-7.41456

>  <SCORE.INTER.CONST>
1

>  <SCORE.INTER.POLAR>
-1.03923

>  <SCORE.INTER.ROT>
3

>  <SCORE.INTER.SOLV>
17.8427

>  <SCORE.INTER.VDW>
-13.0265

>  <SCORE.INTER.norm>
-0.46341

>  <SCORE.INTRA>
0.56802

>  <SCORE.INTRA.DIHEDRAL>
1.75724

>  <SCORE.INTRA.DIHEDRAL.0>
2.1318

>  <SCORE.INTRA.POLAR>
0

>  <SCORE.INTRA.POLAR.0>
0

>  <SCORE.INTRA.REPUL>
0

>  <SCORE.INTRA.REPUL.0>
0

>  <SCORE.INTRA.SOLV>
-0.781598

>  <SCORE.INTRA.SOLV.lig_0>
-58.6125

>  <SCORE.INTRA.VDW>
0.0801973

>  <SCORE.INTRA.VDW.0>
-0.432734

>  <SCORE.INTRA.norm>
0.0355012

>  <SCORE.RESTR>
0

>  <SCORE.RESTR.CAVITY>
0

>  <SCORE.RESTR.norm>
0

>  <SCORE.SYSTEM>
0

>  <SCORE.SYSTEM.CONST>
0

>  <SCORE.SYSTEM.DIHEDRAL>
0

>  <SCORE.SYSTEM.SOLV>
0

>  <SCORE.SYSTEM.norm>
0

>  <SCORE.heavy>
16

>  <SCORE.norm>
-0.427909

>  <RMSD>
8.015

$$$$
ligand
 OpenBabel11021811463D
libRbt.so/2013.1/901 2013/11/27
 16 16  0  0  0  0  0  0  0  0999 V2000
   55.8168    9.5974   13.6706 P   0  0  2  0  0  0  0  0  0  0  0  0
   57.2388    9.1875   13.7766 O   0  0  0  0  0  0  0  0  0  0  0  0
   54.9474    8.3753   13.0880 O   0  5  0  0  0  0  0  0  0  0  0  0
   55.7050   10.8469   12.6578 O   0  0  0  0  0  0  0  0  0  0  0  0
   54.6982   11.0213   19.1915 C   0  0  2  0  0  0  0  0  0  0  0  0
   53.3879   11.5233   18.9034 O   0  0  0  0  0  0  0  0  0  0  0  0
   55.5760   12.1222   19.8407 C   0  0  2  0  0  0  0  0  0  0  0  0
   54.9375   12.6021   21.0812 N   0  0  0  0  0  0  0  0  0  0  0  0
   55.7245   13.2828   18.8425 C   0  0  1  0  0  0  0  0  0  0  0  0
   56.5452   14.3116   19.4021 O   0  0  0  0  0  0  0  0  0  0  0  0
   56.3854   12.7338   17.5793 C   0  0  2  0  0  0  0  0  0  0  0  0
   56.5302   13.7919   16.6406 O   0  0  0  0  0  0  0  0  0  0  0  0
   55.4823   11.6168   16.9886 C   0  0  2  0  0  0  0  0  0  0  0  0
   55.3119   10.5371   17.9574 O   0  0  0  0  0  0  0  0  0  0  0  0
   56.1160   11.0226   15.7065 C   0  0  0  0  0  0  0  0  0  0  0  0
   55.2652   10.0110   15.1370 O   0  0  0  0  0  0  0  0  0  0  0  0
  1  2  1  1  0  0  0
  1  3  1  0  0  0  0
  1  4  2  0  0  0  0
  1 16  1  0  0  0  0
  5  6  1  6  0  0  0
  5  7  1  0  0  0  0
  5 14  1  0  0  0  0
  7  8  1  1  0  0  0
  7  9  1  0  0  0  0
  9 10  1  1  0  0  0
  9 11  1  0  0  0  0
 11 12  1  6  0  0  0
 11 13  1  0  0  0  0
 13 14  1  0  0  0  0
 13 15  1  6  0  0  0
 15 16  1  0  0  0  0
M  CHG  1   3  -1
M  END
>  <CHROM.1>
-178.50914082,169.99824713,54.78015839,55.61999054,11.25338939,16.59459941
1.46632763,-0.93872857,-2.15089537

>  <Name>
ligand

>  <RI>
0

>  <Rbt.Current_Directory>
/home/itssahil/PROJECTS/Mol_Feturizer/New_Systems/rnas/3B4C

>  <Rbt.Executable>
rbdock ($Id: //depot/dev/client3/rdock/2013.1/src/exe/rbdock.cxx#4 $)

>  <Rbt.Library>
libRbt.so (2013.1, Build901 2013/11/27)

>  <Rbt.Parameter_File>
/export/apps/rDock/src/rDock_2013.1_src/data/scripts/dock_solv.prm

>  <Rbt.Receptor>
prm/pocket_docking_8.prm

>  <SCORE>
-8.94188

>  <SCORE.INTER>
-7.5426

>  <SCORE.INTER.CONST>
1

>  <SCORE.INTER.POLAR>
-1.29198

>  <SCORE.INTER.ROT>
3

>  <SCORE.INTER.SOLV>
18.728

>  <SCORE.INTER.VDW>
-12.5645

>  <SCORE.INTER.norm>
-0.471412

>  <SCORE.INTRA>
-1.39928

>  <SCORE.INTRA.DIHEDRAL>
-1.59524

>  <SCORE.INTRA.DIHEDRAL.0>
2.1318

>  <SCORE.INTRA.POLAR>
0

>  <SCORE.INTRA.POLAR.0>
0

>  <SCORE.INTRA.REPUL>
0

>  <SCORE.INTRA.REPUL.0>
0

>  <SCORE.INTRA.SOLV>
-1.06177

>  <SCORE.INTRA.SOLV.lig_0>
-58.6125

>  <SCORE.INTRA.VDW>
-0.0707771

>  <SCORE.INTRA.VDW.0>
-0.432734

>  <SCORE.INTRA.norm>
-0.0874551

>  <SCORE.RESTR>
0

>  <SCORE.RESTR.CAVITY>
0

>  <SCORE.RESTR.norm>
0

>  <SCORE.SYSTEM>
0

>  <SCORE.SYSTEM.CONST>
0

>  <SCORE.SYSTEM.DIHEDRAL>
0

>  <SCORE.SYSTEM.SOLV>
0

>  <SCORE.SYSTEM.norm>
0

>  <SCORE.heavy>
16

>  <SCORE.norm>
-0.558867

>  <RMSD>
8.029

$$$$
ligand
 OpenBabel11021811463D
libRbt.so/2013.1/901 2013/11/27
 16 16  0  0  0  0  0  0  0  0999 V2000
   56.4587   10.4710   13.9664 P   0  0  2  0  0  0  0  0  0  0  0  0
   55.2210    9.6530   13.9465 O   0  0  0  0  0  0  0  0  0  0  0  0
   56.5249   11.3775   12.6387 O   0  5  0  0  0  0  0  0  0  0  0  0
   57.7367    9.4884   13.9917 O   0  0  0  0  0  0  0  0  0  0  0  0
   55.5738   13.9173   18.4176 C   0  0  2  0  0  0  0  0  0  0  0  0
   56.8694   13.8413   19.0239 O   0  0  0  0  0  0  0  0  0  0  0  0
   54.4704   13.5194   19.4316 C   0  0  2  0  0  0  0  0  0  0  0  0
   54.5285   14.4097   20.6067 N   0  0  0  0  0  0  0  0  0  0  0  0
   54.7043   12.0620   19.8638 C   0  0  1  0  0  0  0  0  0  0  0  0
   53.6920   11.6540   20.7880 O   0  0  0  0  0  0  0  0  0  0  0  0
   54.6374   11.1854   18.6145 C   0  0  2  0  0  0  0  0  0  0  0  0
   54.8538    9.8317   18.9918 O   0  0  0  0  0  0  0  0  0  0  0  0
   55.7404   11.6453   17.6224 C   0  0  2  0  0  0  0  0  0  0  0  0
   55.5358   13.0423   17.2484 O   0  0  0  0  0  0  0  0  0  0  0  0
   55.7076   10.7881   16.3330 C   0  0  0  0  0  0  0  0  0  0  0  0
   56.4543   11.4219   15.2783 O   0  0  0  0  0  0  0  0  0  0  0  0
  1  2  1  6  0  0  0
  1  3  1  0  0  0  0
  1  4  2  0  0  0  0
  1 16  1  0  0  0  0
  5  6  1  1  0  0  0
  5  7  1  0  0  0  0
  5 14  1  0  0  0  0
  7  8  1  1  0  0  0
  7  9  1  0  0  0  0
  9 10  1  1  0  0  0
  9 11  1  0  0  0  0
 11 12  1  1  0  0  0
 11 13  1  0  0  0  0
 13 14  1  0  0  0  0
 13 15  1  6  0  0  0
 15 16  1  0  0  0  0
M  CHG  1   3  -1
M  END
>  <CHROM.1>
164.17310412,177.41140132,28.93677757,55.63605329,11.63777355,16.99300847
-0.97911965,1.08676137,0.64108946

>  <Name>
ligand

>  <RI>
0

>  <Rbt.Current_Directory>
/home/itssahil/PROJECTS/Mol_Feturizer/New_Systems/rnas/3B4C

>  <Rbt.Executable>
rbdock ($Id: //depot/dev/client3/rdock/2013.1/src/exe/rbdock.cxx#4 $)

>  <Rbt.Library>
libRbt.so (2013.1, Build901 2013/11/27)

>  <Rbt.Parameter_File>
/export/apps/rDock/src/rDock_2013.1_src/data/scripts/dock_solv.prm

>  <Rbt.Receptor>
prm/pocket_docking_8.prm

>  <SCORE>
-5.17452

>  <SCORE.INTER>
-5.29751

>  <SCORE.INTER.CONST>
1

>  <SCORE.INTER.POLAR>
-1.03923

>  <SCORE.INTER.ROT>
3

>  <SCORE.INTER.SOLV>
22.6955

>  <SCORE.INTER.VDW>
-13.2328

>  <SCORE.INTER.norm>
-0.331095

>  <SCORE.INTRA>
0.122999

>  <SCORE.INTRA.DIHEDRAL>
0.0151849

>  <SCORE.INTRA.DIHEDRAL.0>
2.1318

>  <SCORE.INTRA.POLAR>
0

>  <SCORE.INTRA.POLAR.0>
0

>  <SCORE.INTRA.REPUL>
0

>  <SCORE.INTRA.REPUL.0>
0

>  <SCORE.INTRA.SOLV>
-1.24069

>  <SCORE.INTRA.SOLV.lig_0>
-58.6125

>  <SCORE.INTRA.VDW>
0.735751

>  <SCORE.INTRA.VDW.0>
-0.432734

>  <SCORE.INTRA.norm>
0.00768743

>  <SCORE.RESTR>
0

>  <SCORE.RESTR.CAVITY>
0

>  <SCORE.RESTR.norm>
0

>  <SCORE.SYSTEM>
0

>  <SCORE.SYSTEM.CONST>
0

>  <SCORE.SYSTEM.DIHEDRAL>
0

>  <SCORE.SYSTEM.SOLV>
0

>  <SCORE.SYSTEM.norm>
0

>  <SCORE.heavy>
16

>  <SCORE.norm>
-0.323407

>  <RMSD>
8.087

$$$$
ligand
 OpenBabel11021811463D
libRbt.so/2013.1/901 2013/11/27
 16 16  0  0  0  0  0  0  0  0999 V2000
   56.2871   10.6654   13.9380 P   0  0  2  0  0  0  0  0  0  0  0  0
   57.6854   10.2105   14.1363 O   0  0  0  0  0  0  0  0  0  0  0  0
   55.3155    9.3868   13.8371 O   0  5  0  0  0  0  0  0  0  0  0  0
   56.1968   11.4995   12.5612 O   0  0  0  0  0  0  0  0  0  0  0  0
   54.6308   11.4635   19.8919 C   0  0  2  0  0  0  0  0  0  0  0  0
   53.3592   12.0402   19.5721 O   0  0  0  0  0  0  0  0  0  0  0  0
   55.6310   12.5588   20.3436 C   0  0  2  0  0  0  0  0  0  0  0  0
   55.0929   13.2719   21.5178 N   0  0  0  0  0  0  0  0  0  0  0  0
   55.8385   13.5430   19.1802 C   0  0  1  0  0  0  0  0  0  0  0  0
   56.7715   14.5597   19.5557 O   0  0  0  0  0  0  0  0  0  0  0  0
   56.3918   12.7565   17.9930 C   0  0  2  0  0  0  0  0  0  0  0  0
   56.5892   13.6487   16.9036 O   0  0  0  0  0  0  0  0  0  0  0  0
   55.3677   11.6562   17.6023 C   0  0  2  0  0  0  0  0  0  0  0  0
   55.1442   10.7495   18.7254 O   0  0  0  0  0  0  0  0  0  0  0  0
   55.8890   10.8250   16.4040 C   0  0  0  0  0  0  0  0  0  0  0  0
   55.8409   11.5942   15.1885 O   0  0  0  0  0  0  0  0  0  0  0  0
  1  2  1  1  0  0  0
  1  3  1  0  0  0  0
  1  4  2  0  0  0  0
  1 16  1  0  0  0  0
  5  6  1  6  0  0  0
  5  7  1  0  0  0  0
  5 14  1  0  0  0  0
  7  8  1  1  0  0  0
  7  9  1  0  0  0  0
  9 10  1  1  0  0  0
  9 11  1  0  0  0  0
 11 12  1  6  0  0  0
 11 13  1  0  0  0  0
 13 14  1  0  0  0  0
 13 15  1  6  0  0  0
 15 16  1  0  0  0  0
M  CHG  1   3  -1
M  END
>  <CHROM.1>
-72.05294597,-175.82612678,-61.79128546,55.79853642,11.79679219,17.00828951
1.33064643,-0.88857171,-2.11171461

>  <Name>
ligand

>  <RI>
0

>  <Rbt.Current_Directory>
/home/itssahil/PROJECTS/Mol_Feturizer/New_Systems/rnas/3B4C

>  <Rbt.Executable>
rbdock ($Id: //depot/dev/client3/rdock/2013.1/src/exe/rbdock.cxx#4 $)

>  <Rbt.Library>
libRbt.so (2013.1, Build901 2013/11/27)

>  <Rbt.Parameter_File>
/export/apps/rDock/src/rDock_2013.1_src/data/scripts/dock_solv.prm

>  <Rbt.Receptor>
prm/pocket_docking_8.prm

>  <SCORE>
-11.228

>  <SCORE.INTER>
-9.90956

>  <SCORE.INTER.CONST>
1

>  <SCORE.INTER.POLAR>
-1.29877

>  <SCORE.INTER.ROT>
3

>  <SCORE.INTER.SOLV>
18.4034

>  <SCORE.INTER.VDW>
-14.0116

>  <SCORE.INTER.norm>
-0.619348

>  <SCORE.INTRA>
-1.3184

>  <SCORE.INTRA.DIHEDRAL>
-1.53461

>  <SCORE.INTRA.DIHEDRAL.0>
2.1318

>  <SCORE.INTRA.POLAR>
0

>  <SCORE.INTRA.POLAR.0>
0

>  <SCORE.INTRA.REPUL>
0

>  <SCORE.INTRA.REPUL.0>
0

>  <SCORE.INTRA.SOLV>
-0.689385

>  <SCORE.INTRA.SOLV.lig_0>
-58.6125

>  <SCORE.INTRA.VDW>
-0.206404

>  <SCORE.INTRA.VDW.0>
-0.432734

>  <SCORE.INTRA.norm>
-0.0824

>  <SCORE.RESTR>
0

>  <SCORE.RESTR.CAVITY>
0

>  <SCORE.RESTR.norm>
0

>  <SCORE.SYSTEM>
0

>  <SCORE.SYSTEM.CONST>
0

>  <SCORE.SYSTEM.DIHEDRAL>
0

>  <SCORE.SYSTEM.SOLV>
0

>  <SCORE.SYSTEM.norm>
0

>  <SCORE.heavy>
16

>  <SCORE.norm>
-0.701748

>  <RMSD>
8.162

$$$$
ligand
 OpenBabel11021811463D
libRbt.so/2013.1/901 2013/11/27
 16 16  0  0  0  0  0  0  0  0999 V2000
   55.6752    9.7595   12.7032 P   0  0  2  0  0  0  0  0  0  0  0  0
   54.4846   10.0640   13.5345 O   0  0  0  0  0  0  0  0  0  0  0  0
   55.9427   10.9742   11.6825 O   0  5  0  0  0  0  0  0  0  0  0  0
   55.3938    8.4175   11.8550 O   0  0  0  0  0  0  0  0  0  0  0  0
   55.3268   10.8955   17.2348 C   0  0  2  0  0  0  0  0  0  0  0  0
   54.0542   11.1818   16.6427 O   0  0  0  0  0  0  0  0  0  0  0  0
   55.9039   12.1560   17.9289 C   0  0  2  0  0  0  0  0  0  0  0  0
   54.9641   12.6308   18.9624 N   0  0  0  0  0  0  0  0  0  0  0  0
   56.1130   13.2483   16.8665 C   0  0  1  0  0  0  0  0  0  0  0  0
   56.6627   14.4228   17.4693 O   0  0  0  0  0  0  0  0  0  0  0  0
   57.0880   12.7069   15.8223 C   0  0  2  0  0  0  0  0  0  0  0  0
   57.2938   13.7019   14.8276 O   0  0  0  0  0  0  0  0  0  0  0  0
   56.4760   11.4312   15.1819 C   0  0  2  0  0  0  0  0  0  0  0  0
   56.2418   10.4135   16.2031 O   0  0  0  0  0  0  0  0  0  0  0  0
   57.4343   10.8399   14.1186 C   0  0  0  0  0  0  0  0  0  0  0  0
   56.9647    9.5578   13.6634 O   0  0  0  0  0  0  0  0  0  0  0  0
  1  2  1  1  0  0  0
  1  3  1  0  0  0  0
  1  4  2  0  0  0  0
  1 16  1  0  0  0  0
  5  6  1  6  0  0  0
  5  7  1  0  0  0  0
  5 14  1  0  0  0  0
  7  8  1  1  0  0  0
  7  9  1  0  0  0  0
  9 10  1  1  0  0  0
  9 11  1  0  0  0  0
 11 12  1  6  0  0  0
 11 13  1  0  0  0  0
 13 14  1  0  0  0  0
 13 15  1  6  0  0  0
 15 16  1  0  0  0  0
M  CHG  1   3  -1
M  END
>  <CHROM.1>
171.63055672,73.32950144,-76.33529297,55.96818131,11.25664794,15.04220928
1.61720724,-0.87193485,-2.11504181

>  <Name>
ligand

>  <RI>
0

>  <Rbt.Current_Directory>
/home/itssahil/PROJECTS/Mol_Feturizer/New_Systems/rnas/3B4C

>  <Rbt.Executable>
rbdock ($Id: //depot/dev/client3/rdock/2013.1/src/exe/rbdock.cxx#4 $)

>  <Rbt.Library>
libRbt.so (2013.1, Build901 2013/11/27)

>  <Rbt.Parameter_File>
/export/apps/rDock/src/rDock_2013.1_src/data/scripts/dock_solv.prm

>  <Rbt.Receptor>
prm/pocket_docking_8.prm

>  <SCORE>
-9.49803

>  <SCORE.INTER>
-9.10459

>  <SCORE.INTER.CONST>
1

>  <SCORE.INTER.POLAR>
-1.03766

>  <SCORE.INTER.ROT>
3

>  <SCORE.INTER.SOLV>
10.3513

>  <SCORE.INTER.VDW>
-11.6613

>  <SCORE.INTER.norm>
-0.569037

>  <SCORE.INTRA>
-0.393441

>  <SCORE.INTRA.DIHEDRAL>
-0.632384

>  <SCORE.INTRA.DIHEDRAL.0>
2.1318

>  <SCORE.INTRA.POLAR>
0

>  <SCORE.INTRA.POLAR.0>
0

>  <SCORE.INTRA.REPUL>
0

>  <SCORE.INTRA.REPUL.0>
0

>  <SCORE.INTRA.SOLV>
0.458397

>  <SCORE.INTRA.SOLV.lig_0>
-58.6125

>  <SCORE.INTRA.VDW>
-0.306447

>  <SCORE.INTRA.VDW.0>
-0.432734

>  <SCORE.INTRA.norm>
-0.0245901

>  <SCORE.RESTR>
0

>  <SCORE.RESTR.CAVITY>
0

>  <SCORE.RESTR.norm>
0

>  <SCORE.SYSTEM>
0

>  <SCORE.SYSTEM.CONST>
0

>  <SCORE.SYSTEM.DIHEDRAL>
0

>  <SCORE.SYSTEM.SOLV>
0

>  <SCORE.SYSTEM.norm>
0

>  <SCORE.heavy>
16

>  <SCORE.norm>
-0.593627

>  <RMSD>
8.212

$$$$
ligand
 OpenBabel11021811463D
libRbt.so/2013.1/901 2013/11/27
 16 16  0  0  0  0  0  0  0  0999 V2000
   55.6361    9.9872   12.5347 P   0  0  2  0  0  0  0  0  0  0  0  0
   55.4283   10.4732   11.1483 O   0  0  0  0  0  0  0  0  0  0  0  0
   56.1829    8.4744   12.4974 O   0  5  0  0  0  0  0  0  0  0  0  0
   54.2266   10.0136   13.3169 O   0  0  0  0  0  0  0  0  0  0  0  0
   55.4504   11.4352   17.9455 C   0  0  2  0  0  0  0  0  0  0  0  0
   54.0900   11.6280   17.5406 O   0  0  0  0  0  0  0  0  0  0  0  0
   56.1545   12.7988   18.1666 C   0  0  2  0  0  0  0  0  0  0  0  0
   55.4300   13.5739   19.1918 N   0  0  0  0  0  0  0  0  0  0  0  0
   56.1633   13.5676   16.8346 C   0  0  1  0  0  0  0  0  0  0  0  0
   56.8227   14.8262   16.9967 O   0  0  0  0  0  0  0  0  0  0  0  0
   56.9201   12.7236   15.8105 C   0  0  2  0  0  0  0  0  0  0  0  0
   56.9380   13.4162   14.5687 O   0  0  0  0  0  0  0  0  0  0  0  0
   56.1919   11.3611   15.6506 C   0  0  2  0  0  0  0  0  0  0  0  0
   56.1510   10.6549   16.9285 O   0  0  0  0  0  0  0  0  0  0  0  0
   56.9284   10.4649   14.6245 C   0  0  0  0  0  0  0  0  0  0  0  0
   56.7125   10.9396   13.2830 O   0  0  0  0  0  0  0  0  0  0  0  0
  1  2  1  6  0  0  0
  1  3  1  0  0  0  0
  1  4  2  0  0  0  0
  1 16  1  0  0  0  0
  5  6  1  6  0  0  0
  5  7  1  0  0  0  0
  5 14  1  0  0  0  0
  7  8  1  1  0  0  0
  7  9  1  0  0  0  0
  9 10  1  1  0  0  0
  9 11  1  0  0  0  0
 11 12  1  6  0  0  0
 11 13  1  0  0  0  0
 13 14  1  0  0  0  0
 13 15  1  6  0  0  0
 15 16  1  0  0  0  0
M  CHG  1   3  -1
M  END
>  <CHROM.1>
-73.49172083,-103.85042067,-179.42563290,55.92883194,11.49839940,15.15885810
1.63731272,-1.03875639,-2.06051940

>  <Name>
ligand

>  <RI>
0

>  <Rbt.Current_Directory>
/home/itssahil/PROJECTS/Mol_Feturizer/New_Systems/rnas/3B4C

>  <Rbt.Executable>
rbdock ($Id: //depot/dev/client3/rdock/2013.1/src/exe/rbdock.cxx#4 $)

>  <Rbt.Library>
libRbt.so (2013.1, Build901 2013/11/27)

>  <Rbt.Parameter_File>
/export/apps/rDock/src/rDock_2013.1_src/data/scripts/dock_solv.prm

>  <Rbt.Receptor>
prm/pocket_docking_8.prm

>  <SCORE>
-7.3237

>  <SCORE.INTER>
-9.51576

>  <SCORE.INTER.CONST>
1

>  <SCORE.INTER.POLAR>
-1.29904

>  <SCORE.INTER.ROT>
3

>  <SCORE.INTER.SOLV>
12.1477

>  <SCORE.INTER.VDW>
-11.6629

>  <SCORE.INTER.norm>
-0.594735

>  <SCORE.INTRA>
2.19206

>  <SCORE.INTRA.DIHEDRAL>
4.48636

>  <SCORE.INTRA.DIHEDRAL.0>
2.1318

>  <SCORE.INTRA.POLAR>
0

>  <SCORE.INTRA.POLAR.0>
0

>  <SCORE.INTRA.REPUL>
0

>  <SCORE.INTRA.REPUL.0>
0

>  <SCORE.INTRA.SOLV>
1.01177

>  <SCORE.INTRA.SOLV.lig_0>
-58.6125

>  <SCORE.INTRA.VDW>
-0.556999

>  <SCORE.INTRA.VDW.0>
-0.432734

>  <SCORE.INTRA.norm>
0.137004

>  <SCORE.RESTR>
0

>  <SCORE.RESTR.CAVITY>
0

>  <SCORE.RESTR.norm>
0

>  <SCORE.SYSTEM>
0

>  <SCORE.SYSTEM.CONST>
0

>  <SCORE.SYSTEM.DIHEDRAL>
0

>  <SCORE.SYSTEM.SOLV>
0

>  <SCORE.SYSTEM.norm>
0

>  <SCORE.heavy>
16

>  <SCORE.norm>
-0.457731

>  <RMSD>
8.231

$$$$
ligand
 OpenBabel11021811463D
libRbt.so/2013.1/901 2013/11/27
 16 16  0  0  0  0  0  0  0  0999 V2000
   51.7054    9.9852   22.9187 P   0  0  2  0  0  0  0  0  0  0  0  0
   52.7413    9.0208   23.3639 O   0  0  0  0  0  0  0  0  0  0  0  0
   51.2437   10.8914   24.1655 O   0  5  0  0  0  0  0  0  0  0  0  0
   50.4299    9.1679   22.3668 O   0  0  0  0  0  0  0  0  0  0  0  0
   55.2641   12.4092   19.0212 C   0  0  2  0  0  0  0  0  0  0  0  0
   54.4013   13.5178   18.7414 O   0  0  0  0  0  0  0  0  0  0  0  0
   55.5618   11.6069   17.7283 C   0  0  2  0  0  0  0  0  0  0  0  0
   56.1875   12.4904   16.7259 N   0  0  0  0  0  0  0  0  0  0  0  0
   54.2371   11.0476   17.1825 C   0  0  1  0  0  0  0  0  0  0  0  0
   54.4760   10.2847   15.9967 O   0  0  0  0  0  0  0  0  0  0  0  0
   53.6308   10.1454   18.2559 C   0  0  2  0  0  0  0  0  0  0  0  0
   52.4019    9.6187   17.7719 O   0  0  0  0  0  0  0  0  0  0  0  0
   53.3820   10.9896   19.5355 C   0  0  2  0  0  0  0  0  0  0  0  0
   54.6383   11.5515   20.0246 O   0  0  0  0  0  0  0  0  0  0  0  0
   52.7726   10.1139   20.6582 C   0  0  0  0  0  0  0  0  0  0  0  0
   52.3156   10.9299   21.7521 O   0  0  0  0  0  0  0  0  0  0  0  0
  1  2  1  1  0  0  0
  1  3  1  0  0  0  0
  1  4  2  0  0  0  0
  1 16  1  0  0  0  0
  5  6  1  6  0  0  0
  5  7  1  0  0  0  0
  5 14  1  0  0  0  0
  7  8  1  6  0  0  0
  7  9  1  0  0  0  0
  9 10  1  6  0  0  0
  9 11  1  0  0  0  0
 11 12  1  6  0  0  0
 11 13  1  0  0  0  0
 13 14  1  0  0  0  0
 13 15  1  1  0  0  0
 15 16  1  0  0  0  0
M  CHG  1   3  -1
M  END
>  <CHROM.1>
-169.48554123,-179.12740143,57.76685256,53.28499638,10.77923927,20.05137449
-2.39356308,-0.84494754,-1.96679636

>  <Name>
ligand

>  <RI>
0

>  <Rbt.Current_Directory>
/home/itssahil/PROJECTS/Mol_Feturizer/New_Systems/rnas/3B4C

>  <Rbt.Executable>
rbdock ($Id: //depot/dev/client3/rdock/2013.1/src/exe/rbdock.cxx#4 $)

>  <Rbt.Library>
libRbt.so (2013.1, Build901 2013/11/27)

>  <Rbt.Parameter_File>
/export/apps/rDock/src/rDock_2013.1_src/data/scripts/dock_solv.prm

>  <Rbt.Receptor>
prm/blind_docking_80.prm

>  <SCORE>
-10.6017

>  <SCORE.INTER>
-9.08303

>  <SCORE.INTER.CONST>
1

>  <SCORE.INTER.POLAR>
-1.03338

>  <SCORE.INTER.ROT>
3

>  <SCORE.INTER.SOLV>
22.8499

>  <SCORE.INTER.VDW>
-15.8274

>  <SCORE.INTER.norm>
-0.567689

>  <SCORE.INTRA>
-1.51871

>  <SCORE.INTRA.DIHEDRAL>
-1.72495

>  <SCORE.INTRA.DIHEDRAL.0>
2.1318

>  <SCORE.INTRA.POLAR>
0

>  <SCORE.INTRA.POLAR.0>
0

>  <SCORE.INTRA.REPUL>
0

>  <SCORE.INTRA.REPUL.0>
0

>  <SCORE.INTRA.SOLV>
-1.07548

>  <SCORE.INTRA.SOLV.lig_0>
-58.6125

>  <SCORE.INTRA.VDW>
-0.118492

>  <SCORE.INTRA.VDW.0>
-0.432734

>  <SCORE.INTRA.norm>
-0.0949191

>  <SCORE.RESTR>
0

>  <SCORE.RESTR.CAVITY>
0

>  <SCORE.RESTR.norm>
0

>  <SCORE.SYSTEM>
0

>  <SCORE.SYSTEM.CONST>
0

>  <SCORE.SYSTEM.DIHEDRAL>
0

>  <SCORE.SYSTEM.SOLV>
0

>  <SCORE.SYSTEM.norm>
0

>  <SCORE.heavy>
16

>  <SCORE.norm>
-0.662609

>  <RMSD>
8.258

$$$$
ligand
 OpenBabel11021811463D
libRbt.so/2013.1/901 2013/11/27
 16 16  0  0  0  0  0  0  0  0999 V2000
   51.6233   10.0273   22.9484 P   0  0  2  0  0  0  0  0  0  0  0  0
   50.5457    9.1788   22.3827 O   0  0  0  0  0  0  0  0  0  0  0  0
   52.7847    9.0904   23.5503 O   0  5  0  0  0  0  0  0  0  0  0  0
   51.0119   10.9291   24.1368 O   0  0  0  0  0  0  0  0  0  0  0  0
   55.1709   12.5259   19.0022 C   0  0  2  0  0  0  0  0  0  0  0  0
   54.2461   13.5818   18.7165 O   0  0  0  0  0  0  0  0  0  0  0  0
   55.4758   11.7039   17.7233 C   0  0  2  0  0  0  0  0  0  0  0  0
   56.0301   12.5895   16.6816 N   0  0  0  0  0  0  0  0  0  0  0  0
   54.1677   11.0642   17.2284 C   0  0  1  0  0  0  0  0  0  0  0  0
   54.4146   10.2816   16.0571 O   0  0  0  0  0  0  0  0  0  0  0  0
   53.6356   10.1628   18.3411 C   0  0  2  0  0  0  0  0  0  0  0  0
   52.4230    9.5622   17.9044 O   0  0  0  0  0  0  0  0  0  0  0  0
   53.3770   11.0288   19.6042 C   0  0  2  0  0  0  0  0  0  0  0  0
   54.6153   11.6661   20.0444 O   0  0  0  0  0  0  0  0  0  0  0  0
   52.8417   10.1551   20.7656 C   0  0  0  0  0  0  0  0  0  0  0  0
   52.2325   10.9724   21.7817 O   0  0  0  0  0  0  0  0  0  0  0  0
  1  2  1  6  0  0  0
  1  3  1  0  0  0  0
  1  4  2  0  0  0  0
  1 16  1  0  0  0  0
  5  6  1  6  0  0  0
  5  7  1  0  0  0  0
  5 14  1  0  0  0  0
  7  8  1  6  0  0  0
  7  9  1  0  0  0  0
  9 10  1  6  0  0  0
  9 11  1  0  0  0  0
 11 12  1  6  0  0  0
 11 13  1  0  0  0  0
 13 14  1  0  0  0  0
 13 15  1  1  0  0  0
 15 16  1  0  0  0  0
M  CHG  1   3  -1
M  END
>  <CHROM.1>
-162.87329673,177.43524391,-63.37020482,53.23342011,10.82478351,20.09242637
-2.44015585,-0.88999262,-2.02887110

>  <Name>
ligand

>  <RI>
0

>  <Rbt.Current_Directory>
/home/itssahil/PROJECTS/Mol_Feturizer/New_Systems/rnas/3B4C

>  <Rbt.Executable>
rbdock ($Id: //depot/dev/client3/rdock/2013.1/src/exe/rbdock.cxx#4 $)

>  <Rbt.Library>
libRbt.so (2013.1, Build901 2013/11/27)

>  <Rbt.Parameter_File>
/export/apps/rDock/src/rDock_2013.1_src/data/scripts/dock_solv.prm

>  <Rbt.Receptor>
prm/blind_docking_80.prm

>  <SCORE>
-11.6873

>  <SCORE.INTER>
-10.4836

>  <SCORE.INTER.CONST>
1

>  <SCORE.INTER.POLAR>
-1.03632

>  <SCORE.INTER.ROT>
3

>  <SCORE.INTER.SOLV>
19.7445

>  <SCORE.INTER.VDW>
-15.7162

>  <SCORE.INTER.norm>
-0.655224

>  <SCORE.INTRA>
-1.20371

>  <SCORE.INTRA.DIHEDRAL>
-1.08296

>  <SCORE.INTRA.DIHEDRAL.0>
2.1318

>  <SCORE.INTRA.POLAR>
0

>  <SCORE.INTRA.POLAR.0>
0

>  <SCORE.INTRA.REPUL>
0

>  <SCORE.INTRA.REPUL.0>
0

>  <SCORE.INTRA.SOLV>
-1.05631

>  <SCORE.INTRA.SOLV.lig_0>
-58.6125

>  <SCORE.INTRA.VDW>
-0.134077

>  <SCORE.INTRA.VDW.0>
-0.432734

>  <SCORE.INTRA.norm>
-0.0752318

>  <SCORE.RESTR>
0

>  <SCORE.RESTR.CAVITY>
0

>  <SCORE.RESTR.norm>
0

>  <SCORE.SYSTEM>
0

>  <SCORE.SYSTEM.CONST>
0

>  <SCORE.SYSTEM.DIHEDRAL>
0

>  <SCORE.SYSTEM.SOLV>
0

>  <SCORE.SYSTEM.norm>
0

>  <SCORE.heavy>
16

>  <SCORE.norm>
-0.730456

>  <RMSD>
8.292

$$$$
ligand
 OpenBabel11021811463D
libRbt.so/2013.1/901 2013/11/27
 16 16  0  0  0  0  0  0  0  0999 V2000
   56.3010   10.3946   13.8525 P   0  0  2  0  0  0  0  0  0  0  0  0
   55.3357    9.8513   14.8396 O   0  0  0  0  0  0  0  0  0  0  0  0
   55.8641    9.9455   12.3705 O   0  5  0  0  0  0  0  0  0  0  0  0
   57.7656    9.7988   14.1679 O   0  0  0  0  0  0  0  0  0  0  0  0
   55.2087   11.1997   18.1258 C   0  0  2  0  0  0  0  0  0  0  0  0
   53.8854   11.5967   17.7475 O   0  0  0  0  0  0  0  0  0  0  0  0
   55.7811   12.1575   19.2024 C   0  0  2  0  0  0  0  0  0  0  0  0
   54.8999   12.1616   20.3857 N   0  0  0  0  0  0  0  0  0  0  0  0
   55.8658   13.5722   18.6048 C   0  0  1  0  0  0  0  0  0  0  0  0
   56.4078   14.4814   19.5664 O   0  0  0  0  0  0  0  0  0  0  0  0
   56.7841   13.5124   17.3853 C   0  0  2  0  0  0  0  0  0  0  0  0
   56.8745   14.8118   16.8151 O   0  0  0  0  0  0  0  0  0  0  0  0
   56.1815   12.5187   16.3550 C   0  0  2  0  0  0  0  0  0  0  0  0
   56.0657   11.1866   16.9428 O   0  0  0  0  0  0  0  0  0  0  0  0
   57.0839   12.4184   15.1003 C   0  0  0  0  0  0  0  0  0  0  0  0
   56.3186   12.0119   13.9511 O   0  0  0  0  0  0  0  0  0  0  0  0
  1  2  1  1  0  0  0
  1  3  1  0  0  0  0
  1  4  2  0  0  0  0
  1 16  1  0  0  0  0
  5  6  1  6  0  0  0
  5  7  1  0  0  0  0
  5 14  1  0  0  0  0
  7  8  1  1  0  0  0
  7  9  1  0  0  0  0
  9 10  1  1  0  0  0
  9 11  1  0  0  0  0
 11 12  1  6  0  0  0
 11 13  1  0  0  0  0
 13 14  1  0  0  0  0
 13 15  1  6  0  0  0
 15 16  1  0  0  0  0
M  CHG  1   3  -1
M  END
>  <CHROM.1>
-154.78772644,-89.22735325,77.41930969,56.05977045,11.84091804,16.32783599
1.39049669,-0.97741310,-2.21261419

>  <Name>
ligand

>  <RI>
0

>  <Rbt.Current_Directory>
/home/itssahil/PROJECTS/Mol_Feturizer/New_Systems/rnas/3B4C

>  <Rbt.Executable>
rbdock ($Id: //depot/dev/client3/rdock/2013.1/src/exe/rbdock.cxx#4 $)

>  <Rbt.Library>
libRbt.so (2013.1, Build901 2013/11/27)

>  <Rbt.Parameter_File>
/export/apps/rDock/src/rDock_2013.1_src/data/scripts/dock_solv.prm

>  <Rbt.Receptor>
prm/pocket_docking_8.prm

>  <SCORE>
-8.19288

>  <SCORE.INTER>
-9.95313

>  <SCORE.INTER.CONST>
1

>  <SCORE.INTER.POLAR>
-1.02935

>  <SCORE.INTER.ROT>
3

>  <SCORE.INTER.SOLV>
16.278

>  <SCORE.INTER.VDW>
-14.2303

>  <SCORE.INTER.norm>
-0.622071

>  <SCORE.INTRA>
1.76025

>  <SCORE.INTRA.DIHEDRAL>
3.7844

>  <SCORE.INTRA.DIHEDRAL.0>
2.1318

>  <SCORE.INTRA.POLAR>
0

>  <SCORE.INTRA.POLAR.0>
0

>  <SCORE.INTRA.REPUL>
0

>  <SCORE.INTRA.REPUL.0>
0

>  <SCORE.INTRA.SOLV>
0.726484

>  <SCORE.INTRA.SOLV.lig_0>
-58.6125

>  <SCORE.INTRA.VDW>
-0.495194

>  <SCORE.INTRA.VDW.0>
-0.432734

>  <SCORE.INTRA.norm>
0.110015

>  <SCORE.RESTR>
0

>  <SCORE.RESTR.CAVITY>
0

>  <SCORE.RESTR.norm>
0

>  <SCORE.SYSTEM>
0

>  <SCORE.SYSTEM.CONST>
0

>  <SCORE.SYSTEM.DIHEDRAL>
0

>  <SCORE.SYSTEM.SOLV>
0

>  <SCORE.SYSTEM.norm>
0

>  <SCORE.heavy>
16

>  <SCORE.norm>
-0.512055

>  <RMSD>
8.306

$$$$
ligand
 OpenBabel11021811463D
libRbt.so/2013.1/901 2013/11/27
 16 16  0  0  0  0  0  0  0  0999 V2000
   56.4935   10.3247   13.8841 P   0  0  2  0  0  0  0  0  0  0  0  0
   57.8745    9.8930   14.2126 O   0  0  0  0  0  0  0  0  0  0  0  0
   55.4611    9.6592   14.9235 O   0  5  0  0  0  0  0  0  0  0  0  0
   56.1283    9.8269   12.3947 O   0  0  0  0  0  0  0  0  0  0  0  0
   55.1669   11.2238   18.0989 C   0  0  2  0  0  0  0  0  0  0  0  0
   53.8661   11.6738   17.7023 O   0  0  0  0  0  0  0  0  0  0  0  0
   55.7554   12.1482   19.1958 C   0  0  2  0  0  0  0  0  0  0  0  0
   54.8541   12.1726   20.3637 N   0  0  0  0  0  0  0  0  0  0  0  0
   55.9030   13.5649   18.6156 C   0  0  1  0  0  0  0  0  0  0  0  0
   56.4613   14.4430   19.5966 O   0  0  0  0  0  0  0  0  0  0  0  0
   56.8398   13.4837   17.4116 C   0  0  2  0  0  0  0  0  0  0  0  0
   56.9884   14.7848   16.8576 O   0  0  0  0  0  0  0  0  0  0  0  0
   56.2191   12.5241   16.3599 C   0  0  2  0  0  0  0  0  0  0  0  0
   56.0436   11.1912   16.9308 O   0  0  0  0  0  0  0  0  0  0  0  0
   57.1391   12.4034   15.1199 C   0  0  0  0  0  0  0  0  0  0  0  0
   56.3982   11.9396   13.9766 O   0  0  0  0  0  0  0  0  0  0  0  0
  1  2  1  1  0  0  0
  1  3  1  0  0  0  0
  1  4  2  0  0  0  0
  1 16  1  0  0  0  0
  5  6  1  6  0  0  0
  5  7  1  0  0  0  0
  5 14  1  0  0  0  0
  7  8  1  1  0  0  0
  7  9  1  0  0  0  0
  9 10  1  1  0  0  0
  9 11  1  0  0  0  0
 11 12  1  6  0  0  0
 11 13  1  0  0  0  0
 13 14  1  0  0  0  0
 13 15  1  6  0  0  0
 15 16  1  0  0  0  0
M  CHG  1   3  -1
M  END
>  <CHROM.1>
-159.16419625,-92.52709807,-40.75184580,56.13187949,11.81398865,16.34431288
1.35596904,-0.93732920,-2.24892232

>  <Name>
ligand

>  <RI>
0

>  <Rbt.Current_Directory>
/home/itssahil/PROJECTS/Mol_Feturizer/New_Systems/rnas/3B4C

>  <Rbt.Executable>
rbdock ($Id: //depot/dev/client3/rdock/2013.1/src/exe/rbdock.cxx#4 $)

>  <Rbt.Library>
libRbt.so (2013.1, Build901 2013/11/27)

>  <Rbt.Parameter_File>
/export/apps/rDock/src/rDock_2013.1_src/data/scripts/dock_solv.prm

>  <Rbt.Receptor>
prm/pocket_docking_8.prm

>  <SCORE>
-10.1978

>  <SCORE.INTER>
-12.9125

>  <SCORE.INTER.CONST>
1

>  <SCORE.INTER.POLAR>
-1.29561

>  <SCORE.INTER.ROT>
3

>  <SCORE.INTER.SOLV>
14.3366

>  <SCORE.INTER.VDW>
-14.6685

>  <SCORE.INTER.norm>
-0.807034

>  <SCORE.INTRA>
2.71478

>  <SCORE.INTRA.DIHEDRAL>
3.93556

>  <SCORE.INTRA.DIHEDRAL.0>
2.1318

>  <SCORE.INTRA.POLAR>
0

>  <SCORE.INTRA.POLAR.0>
0

>  <SCORE.INTRA.REPUL>
0

>  <SCORE.INTRA.REPUL.0>
0

>  <SCORE.INTRA.SOLV>
1.99677

>  <SCORE.INTRA.SOLV.lig_0>
-58.6125

>  <SCORE.INTRA.VDW>
-0.25138

>  <SCORE.INTRA.VDW.0>
-0.432734

>  <SCORE.INTRA.norm>
0.169674

>  <SCORE.RESTR>
0

>  <SCORE.RESTR.CAVITY>
0

>  <SCORE.RESTR.norm>
0

>  <SCORE.SYSTEM>
0

>  <SCORE.SYSTEM.CONST>
0

>  <SCORE.SYSTEM.DIHEDRAL>
0

>  <SCORE.SYSTEM.SOLV>
0

>  <SCORE.SYSTEM.norm>
0

>  <SCORE.heavy>
16

>  <SCORE.norm>
-0.63736

>  <RMSD>
8.324

$$$$
ligand
 OpenBabel11021811463D
libRbt.so/2013.1/901 2013/11/27
 16 16  0  0  0  0  0  0  0  0999 V2000
   56.7671    9.9044   13.9149 P   0  0  2  0  0  0  0  0  0  0  0  0
   58.0726    9.1994   13.9153 O   0  0  0  0  0  0  0  0  0  0  0  0
   55.5746    8.8269   13.9900 O   0  5  0  0  0  0  0  0  0  0  0  0
   56.6253   10.7455   12.5467 O   0  0  0  0  0  0  0  0  0  0  0  0
   55.5036   12.4737   18.9428 C   0  0  2  0  0  0  0  0  0  0  0  0
   54.1512   12.9172   19.1051 O   0  0  0  0  0  0  0  0  0  0  0  0
   56.4656   13.6834   18.8196 C   0  0  2  0  0  0  0  0  0  0  0  0
   56.3557   14.5324   20.0212 N   0  0  0  0  0  0  0  0  0  0  0  0
   56.0804   14.4906   17.5684 C   0  0  1  0  0  0  0  0  0  0  0  0
   56.9603   15.6071   17.4125 O   0  0  0  0  0  0  0  0  0  0  0  0
   56.2075   13.5682   16.3572 C   0  0  2  0  0  0  0  0  0  0  0  0
   55.8531   14.2952   15.1878 O   0  0  0  0  0  0  0  0  0  0  0  0
   55.2484   12.3613   16.5460 C   0  0  2  0  0  0  0  0  0  0  0  0
   55.5941   11.6235   17.7583 O   0  0  0  0  0  0  0  0  0  0  0  0
   55.3472   11.3911   15.3429 C   0  0  0  0  0  0  0  0  0  0  0  0
   56.6903   10.8954   15.1947 O   0  0  0  0  0  0  0  0  0  0  0  0
  1  2  1  1  0  0  0
  1  3  1  0  0  0  0
  1  4  2  0  0  0  0
  1 16  1  0  0  0  0
  5  6  1  6  0  0  0
  5  7  1  0  0  0  0
  5 14  1  0  0  0  0
  7  8  1  1  0  0  0
  7  9  1  0  0  0  0
  9 10  1  6  0  0  0
  9 11  1  0  0  0  0
 11 12  1  6  0  0  0
 11 13  1  0  0  0  0
 13 14  1  0  0  0  0
 13 15  1  6  0  0  0
 15 16  1  0  0  0  0
M  CHG  1   3  -1
M  END
>  <CHROM.1>
59.29657510,-179.04807424,-169.35380961,56.14870713,12.06908140,16.17248993
1.23397848,-1.17683424,-2.60893973

>  <Name>
ligand

>  <RI>
0

>  <Rbt.Current_Directory>
/home/itssahil/PROJECTS/Mol_Feturizer/New_Systems/rnas/3B4C

>  <Rbt.Executable>
rbdock ($Id: //depot/dev/client3/rdock/2013.1/src/exe/rbdock.cxx#4 $)

>  <Rbt.Library>
libRbt.so (2013.1, Build901 2013/11/27)

>  <Rbt.Parameter_File>
/export/apps/rDock/src/rDock_2013.1_src/data/scripts/dock_solv.prm

>  <Rbt.Receptor>
prm/pocket_docking_8.prm

>  <SCORE>
-11.9435

>  <SCORE.INTER>
-10.5929

>  <SCORE.INTER.CONST>
1

>  <SCORE.INTER.POLAR>
-1.29676

>  <SCORE.INTER.ROT>
3

>  <SCORE.INTER.SOLV>
20.1608

>  <SCORE.INTER.VDW>
-15.0596

>  <SCORE.INTER.norm>
-0.662054

>  <SCORE.INTRA>
-1.35064

>  <SCORE.INTRA.DIHEDRAL>
-1.9386

>  <SCORE.INTRA.DIHEDRAL.0>
2.1318

>  <SCORE.INTRA.POLAR>
0

>  <SCORE.INTRA.POLAR.0>
0

>  <SCORE.INTRA.REPUL>
0

>  <SCORE.INTRA.REPUL.0>
0

>  <SCORE.INTRA.SOLV>
-0.179093

>  <SCORE.INTRA.SOLV.lig_0>
-58.6125

>  <SCORE.INTRA.VDW>
-0.291786

>  <SCORE.INTRA.VDW.0>
-0.432734

>  <SCORE.INTRA.norm>
-0.0844147

>  <SCORE.RESTR>
0

>  <SCORE.RESTR.CAVITY>
0

>  <SCORE.RESTR.norm>
0

>  <SCORE.SYSTEM>
0

>  <SCORE.SYSTEM.CONST>
0

>  <SCORE.SYSTEM.DIHEDRAL>
0

>  <SCORE.SYSTEM.SOLV>
0

>  <SCORE.SYSTEM.norm>
0

>  <SCORE.heavy>
16

>  <SCORE.norm>
-0.746469

>  <RMSD>
8.357

$$$$
ligand
 OpenBabel11021811463D
libRbt.so/2013.1/901 2013/11/27
 16 16  0  0  0  0  0  0  0  0999 V2000
   55.1942    8.7820   12.0661 P   0  0  2  0  0  0  0  0  0  0  0  0
   53.8026    8.6842   12.5713 O   0  0  0  0  0  0  0  0  0  0  0  0
   55.2078    9.6089   10.6859 O   0  5  0  0  0  0  0  0  0  0  0  0
   55.7580    7.2969   11.7903 O   0  0  0  0  0  0  0  0  0  0  0  0
   56.9780   13.6552   15.5088 C   0  0  2  0  0  0  0  0  0  0  0  0
   58.2166   13.0666   15.9226 O   0  0  0  0  0  0  0  0  0  0  0  0
   55.9189   13.5519   16.6365 C   0  0  2  0  0  0  0  0  0  0  0  0
   56.4156   14.2272   17.8506 N   0  0  0  0  0  0  0  0  0  0  0  0
   55.6594   12.0648   16.9307 C   0  0  1  0  0  0  0  0  0  0  0  0
   54.6717   11.9307   17.9562 O   0  0  0  0  0  0  0  0  0  0  0  0
   55.1516   11.4137   15.6453 C   0  0  2  0  0  0  0  0  0  0  0  0
   54.9072   10.0354   15.8948 O   0  0  0  0  0  0  0  0  0  0  0  0
   56.2349   11.5723   14.5437 C   0  0  2  0  0  0  0  0  0  0  0  0
   56.5060   12.9865   14.2988 O   0  0  0  0  0  0  0  0  0  0  0  0
   55.7614   10.9321   13.2153 C   0  0  0  0  0  0  0  0  0  0  0  0
   56.1141    9.5376   13.1654 O   0  0  0  0  0  0  0  0  0  0  0  0
  1  2  1  1  0  0  0
  1  3  1  0  0  0  0
  1  4  2  0  0  0  0
  1 16  1  0  0  0  0
  5  6  1  1  0  0  0
  5  7  1  0  0  0  0
  5 14  1  0  0  0  0
  7  8  1  1  0  0  0
  7  9  1  0  0  0  0
  9 10  1  1  0  0  0
  9 11  1  0  0  0  0
 11 12  1  1  0  0  0
 11 13  1  0  0  0  0
 13 14  1  0  0  0  0
 13 15  1  6  0  0  0
 15 16  1  0  0  0  0
M  CHG  1   3  -1
M  END
>  <CHROM.1>
-88.11146882,160.29310864,-70.98357744,55.72913995,10.96981050,14.42925378
1.82185592,-0.84775977,-2.12217381

>  <Name>
ligand

>  <RI>
0

>  <Rbt.Current_Directory>
/home/itssahil/PROJECTS/Mol_Feturizer/New_Systems/rnas/3B4C

>  <Rbt.Executable>
rbdock ($Id: //depot/dev/client3/rdock/2013.1/src/exe/rbdock.cxx#4 $)

>  <Rbt.Library>
libRbt.so (2013.1, Build901 2013/11/27)

>  <Rbt.Parameter_File>
/export/apps/rDock/src/rDock_2013.1_src/data/scripts/dock_solv.prm

>  <Rbt.Receptor>
prm/pocket_docking_8.prm

>  <SCORE>
-8.45591

>  <SCORE.INTER>
-8.94414

>  <SCORE.INTER.CONST>
1

>  <SCORE.INTER.POLAR>
-2.03891

>  <SCORE.INTER.ROT>
3

>  <SCORE.INTER.SOLV>
14.6569

>  <SCORE.INTER.VDW>
-9.65201

>  <SCORE.INTER.norm>
-0.559009

>  <SCORE.INTRA>
0.488235

>  <SCORE.INTRA.DIHEDRAL>
2.18387

>  <SCORE.INTRA.DIHEDRAL.0>
2.1318

>  <SCORE.INTRA.POLAR>
0

>  <SCORE.INTRA.POLAR.0>
0

>  <SCORE.INTRA.REPUL>
0

>  <SCORE.INTRA.REPUL.0>
0

>  <SCORE.INTRA.SOLV>
-0.487909

>  <SCORE.INTRA.SOLV.lig_0>
-58.6125

>  <SCORE.INTRA.VDW>
-0.359748

>  <SCORE.INTRA.VDW.0>
-0.432734

>  <SCORE.INTRA.norm>
0.0305147

>  <SCORE.RESTR>
0

>  <SCORE.RESTR.CAVITY>
0

>  <SCORE.RESTR.norm>
0

>  <SCORE.SYSTEM>
0

>  <SCORE.SYSTEM.CONST>
0

>  <SCORE.SYSTEM.DIHEDRAL>
0

>  <SCORE.SYSTEM.SOLV>
0

>  <SCORE.SYSTEM.norm>
0

>  <SCORE.heavy>
16

>  <SCORE.norm>
-0.528494

>  <RMSD>
8.494

$$$$
ligand
 OpenBabel11021811463D
libRbt.so/2013.1/901 2013/11/27
 16 16  0  0  0  0  0  0  0  0999 V2000
   56.1586    9.5885   13.4992 P   0  0  2  0  0  0  0  0  0  0  0  0
   57.5532    9.2263   13.8530 O   0  0  0  0  0  0  0  0  0  0  0  0
   55.2611    8.2555   13.4197 O   0  5  0  0  0  0  0  0  0  0  0  0
   56.1532   10.3080   12.0564 O   0  0  0  0  0  0  0  0  0  0  0  0
   55.6533   12.5262   18.4542 C   0  0  2  0  0  0  0  0  0  0  0  0
   54.2686   12.8492   18.2804 O   0  0  0  0  0  0  0  0  0  0  0  0
   56.4996   13.8148   18.6197 C   0  0  2  0  0  0  0  0  0  0  0  0
   56.0136   14.5851   19.7804 N   0  0  0  0  0  0  0  0  0  0  0  0
   56.3685   14.6553   17.3384 C   0  0  1  0  0  0  0  0  0  0  0  0
   57.1525   15.8463   17.4484 O   0  0  0  0  0  0  0  0  0  0  0  0
   56.8803   13.8138   16.1706 C   0  0  2  0  0  0  0  0  0  0  0  0
   56.7656   14.5726   14.9736 O   0  0  0  0  0  0  0  0  0  0  0  0
   56.0200   12.5248   16.0694 C   0  0  2  0  0  0  0  0  0  0  0  0
   56.1165   11.7522   17.3051 O   0  0  0  0  0  0  0  0  0  0  0  0
   56.5070   11.6330   14.9005 C   0  0  0  0  0  0  0  0  0  0  0  0
   55.5588   10.5854   14.6270 O   0  0  0  0  0  0  0  0  0  0  0  0
  1  2  1  1  0  0  0
  1  3  1  0  0  0  0
  1  4  2  0  0  0  0
  1 16  1  0  0  0  0
  5  6  1  6  0  0  0
  5  7  1  0  0  0  0
  5 14  1  0  0  0  0
  7  8  1  1  0  0  0
  7  9  1  0  0  0  0
  9 10  1  1  0  0  0
  9 11  1  0  0  0  0
 11 12  1  6  0  0  0
 11 13  1  0  0  0  0
 13 14  1  0  0  0  0
 13 15  1  6  0  0  0
 15 16  1  0  0  0  0
M  CHG  1   3  -1
M  END
>  <CHROM.1>
-168.19571614,-174.64581990,47.63932438,56.17451609,12.04040894,15.80203937
1.58850770,-1.10769843,-2.34830862

>  <Name>
ligand

>  <RI>
0

>  <Rbt.Current_Directory>
/home/itssahil/PROJECTS/Mol_Feturizer/New_Systems/rnas/3B4C

>  <Rbt.Executable>
rbdock ($Id: //depot/dev/client3/rdock/2013.1/src/exe/rbdock.cxx#4 $)

>  <Rbt.Library>
libRbt.so (2013.1, Build901 2013/11/27)

>  <Rbt.Parameter_File>
/export/apps/rDock/src/rDock_2013.1_src/data/scripts/dock_solv.prm

>  <Rbt.Receptor>
prm/pocket_docking_8.prm

>  <SCORE>
-9.69833

>  <SCORE.INTER>
-8.50424

>  <SCORE.INTER.CONST>
1

>  <SCORE.INTER.POLAR>
-0.964231

>  <SCORE.INTER.ROT>
3

>  <SCORE.INTER.SOLV>
19.3889

>  <SCORE.INTER.VDW>
-14.5184

>  <SCORE.INTER.norm>
-0.531515

>  <SCORE.INTRA>
-1.19409

>  <SCORE.INTRA.DIHEDRAL>
-1.25783

>  <SCORE.INTRA.DIHEDRAL.0>
2.1318

>  <SCORE.INTRA.POLAR>
0

>  <SCORE.INTRA.POLAR.0>
0

>  <SCORE.INTRA.REPUL>
0

>  <SCORE.INTRA.REPUL.0>
0

>  <SCORE.INTRA.SOLV>
-1.16911

>  <SCORE.INTRA.SOLV.lig_0>
-58.6125

>  <SCORE.INTRA.VDW>
0.019385

>  <SCORE.INTRA.VDW.0>
-0.432734

>  <SCORE.INTRA.norm>
-0.0746304

>  <SCORE.RESTR>
0

>  <SCORE.RESTR.CAVITY>
0

>  <SCORE.RESTR.norm>
0

>  <SCORE.SYSTEM>
0

>  <SCORE.SYSTEM.CONST>
0

>  <SCORE.SYSTEM.DIHEDRAL>
0

>  <SCORE.SYSTEM.SOLV>
0

>  <SCORE.SYSTEM.norm>
0

>  <SCORE.heavy>
16

>  <SCORE.norm>
-0.606145

>  <RMSD>
8.536

$$$$
ligand
 OpenBabel11021811463D
libRbt.so/2013.1/901 2013/11/27
 16 16  0  0  0  0  0  0  0  0999 V2000
   51.1186   10.0406   22.2621 P   0  0  2  0  0  0  0  0  0  0  0  0
   50.3440    8.7763   22.2083 O   0  0  0  0  0  0  0  0  0  0  0  0
   51.9066   10.1287   23.6621 O   0  5  0  0  0  0  0  0  0  0  0  0
   50.0993   11.2855   22.1576 O   0  0  0  0  0  0  0  0  0  0  0  0
   54.0443   11.5822   17.5524 C   0  0  2  0  0  0  0  0  0  0  0  0
   54.7792   10.3612   17.4080 O   0  0  0  0  0  0  0  0  0  0  0  0
   55.0081   12.7919   17.6605 C   0  0  2  0  0  0  0  0  0  0  0  0
   55.8620   12.8582   16.4592 N   0  0  0  0  0  0  0  0  0  0  0  0
   55.8790   12.6143   18.9156 C   0  0  1  0  0  0  0  0  0  0  0  0
   56.7703   13.7236   19.0577 O   0  0  0  0  0  0  0  0  0  0  0  0
   54.9496   12.5486   20.1264 C   0  0  2  0  0  0  0  0  0  0  0  0
   55.7356   12.3818   21.2995 O   0  0  0  0  0  0  0  0  0  0  0  0
   53.9881   11.3413   19.9526 C   0  0  2  0  0  0  0  0  0  0  0  0
   53.1935   11.4966   18.7369 O   0  0  0  0  0  0  0  0  0  0  0  0
   53.0185   11.2373   21.1558 C   0  0  0  0  0  0  0  0  0  0  0  0
   52.1770   10.0759   21.0356 O   0  0  0  0  0  0  0  0  0  0  0  0
  1  2  1  6  0  0  0
  1  3  1  0  0  0  0
  1  4  2  0  0  0  0
  1 16  1  0  0  0  0
  5  6  1  1  0  0  0
  5  7  1  0  0  0  0
  5 14  1  0  0  0  0
  7  8  1  6  0  0  0
  7  9  1  0  0  0  0
  9 10  1  1  0  0  0
  9 11  1  0  0  0  0
 11 12  1  1  0  0  0
 11 13  1  0  0  0  0
 13 14  1  0  0  0  0
 13 15  1  1  0  0  0
 15 16  1  0  0  0  0
M  CHG  1   3  -1
M  END
>  <CHROM.1>
-176.72360945,-176.78215577,-174.50179411,53.45071480,11.31670858,20.19960071
2.53039769,0.59857896,1.42744566

>  <Name>
ligand

>  <RI>
0

>  <Rbt.Current_Directory>
/home/itssahil/PROJECTS/Mol_Feturizer/New_Systems/rnas/3B4C

>  <Rbt.Executable>
rbdock ($Id: //depot/dev/client3/rdock/2013.1/src/exe/rbdock.cxx#4 $)

>  <Rbt.Library>
libRbt.so (2013.1, Build901 2013/11/27)

>  <Rbt.Parameter_File>
/export/apps/rDock/src/rDock_2013.1_src/data/scripts/dock_solv.prm

>  <Rbt.Receptor>
prm/pocket_docking_8.prm

>  <SCORE>
-8.47999

>  <SCORE.INTER>
-7.08669

>  <SCORE.INTER.CONST>
1

>  <SCORE.INTER.POLAR>
0

>  <SCORE.INTER.ROT>
3

>  <SCORE.INTER.SOLV>
17.4852

>  <SCORE.INTER.VDW>
-16.1528

>  <SCORE.INTER.norm>
-0.442918

>  <SCORE.INTRA>
-1.3933

>  <SCORE.INTRA.DIHEDRAL>
-1.98751

>  <SCORE.INTRA.DIHEDRAL.0>
2.1318

>  <SCORE.INTRA.POLAR>
0

>  <SCORE.INTRA.POLAR.0>
0

>  <SCORE.INTRA.REPUL>
0

>  <SCORE.INTRA.REPUL.0>
0

>  <SCORE.INTRA.SOLV>
-0.371739

>  <SCORE.INTRA.SOLV.lig_0>
-58.6125

>  <SCORE.INTRA.VDW>
-0.213671

>  <SCORE.INTRA.VDW.0>
-0.432734

>  <SCORE.INTRA.norm>
-0.087081

>  <SCORE.RESTR>
0

>  <SCORE.RESTR.CAVITY>
0

>  <SCORE.RESTR.norm>
0

>  <SCORE.SYSTEM>
0

>  <SCORE.SYSTEM.CONST>
0

>  <SCORE.SYSTEM.DIHEDRAL>
0

>  <SCORE.SYSTEM.SOLV>
0

>  <SCORE.SYSTEM.norm>
0

>  <SCORE.heavy>
16

>  <SCORE.norm>
-0.529999

>  <RMSD>
8.697

$$$$
ligand
 OpenBabel11021811463D
libRbt.so/2013.1/901 2013/11/27
 16 16  0  0  0  0  0  0  0  0999 V2000
   51.3476   10.0663   22.9528 P   0  0  2  0  0  0  0  0  0  0  0  0
   50.4738    9.1318   22.2014 O   0  0  0  0  0  0  0  0  0  0  0  0
   52.4974    9.2344   23.7111 O   0  5  0  0  0  0  0  0  0  0  0  0
   50.4602   10.8481   24.0487 O   0  0  0  0  0  0  0  0  0  0  0  0
   55.3369   13.0487   20.0309 C   0  0  2  0  0  0  0  0  0  0  0  0
   54.4394   14.0559   19.5495 O   0  0  0  0  0  0  0  0  0  0  0  0
   56.0494   12.3403   18.8500 C   0  0  2  0  0  0  0  0  0  0  0  0
   56.7904   13.3319   18.0473 N   0  0  0  0  0  0  0  0  0  0  0  0
   54.9863   11.6481   17.9804 C   0  0  1  0  0  0  0  0  0  0  0  0
   55.6104   10.9674   16.8884 O   0  0  0  0  0  0  0  0  0  0  0  0
   54.2485   10.6374   18.8566 C   0  0  2  0  0  0  0  0  0  0  0  0
   53.2577    9.9866   18.0714 O   0  0  0  0  0  0  0  0  0  0  0  0
   53.5810   11.3939   20.0374 C   0  0  2  0  0  0  0  0  0  0  0  0
   54.5924   12.0827   20.8349 O   0  0  0  0  0  0  0  0  0  0  0  0
   52.8244   10.4071   20.9608 C   0  0  0  0  0  0  0  0  0  0  0  0
   52.0231   11.1182   21.9219 O   0  0  0  0  0  0  0  0  0  0  0  0
  1  2  1  6  0  0  0
  1  3  1  0  0  0  0
  1  4  2  0  0  0  0
  1 16  1  0  0  0  0
  5  6  1  6  0  0  0
  5  7  1  0  0  0  0
  5 14  1  0  0  0  0
  7  8  1  6  0  0  0
  7  9  1  0  0  0  0
  9 10  1  6  0  0  0
  9 11  1  0  0  0  0
 11 12  1  6  0  0  0
 11 13  1  0  0  0  0
 13 14  1  0  0  0  0
 13 15  1  1  0  0  0
 15 16  1  0  0  0  0
M  CHG  1   3  -1
M  END
>  <CHROM.1>
-170.35283434,-175.08878743,-60.81874911,53.43204053,11.15546171,20.54723726
-2.79495008,-0.83986232,-2.25066574

>  <Name>
ligand

>  <RI>
0

>  <Rbt.Current_Directory>
/home/itssahil/PROJECTS/Mol_Feturizer/New_Systems/rnas/3B4C

>  <Rbt.Executable>
rbdock ($Id: //depot/dev/client3/rdock/2013.1/src/exe/rbdock.cxx#4 $)

>  <Rbt.Library>
libRbt.so (2013.1, Build901 2013/11/27)

>  <Rbt.Parameter_File>
/export/apps/rDock/src/rDock_2013.1_src/data/scripts/dock_solv.prm

>  <Rbt.Receptor>
prm/blind_docking_100.prm

>  <SCORE>
-10.7217

>  <SCORE.INTER>
-9.23646

>  <SCORE.INTER.CONST>
1

>  <SCORE.INTER.POLAR>
0

>  <SCORE.INTER.ROT>
3

>  <SCORE.INTER.SOLV>
19.946

>  <SCORE.INTER.VDW>
-18.4063

>  <SCORE.INTER.norm>
-0.577278

>  <SCORE.INTRA>
-1.48527

>  <SCORE.INTRA.DIHEDRAL>
-1.67758

>  <SCORE.INTRA.DIHEDRAL.0>
2.1318

>  <SCORE.INTRA.POLAR>
0

>  <SCORE.INTRA.POLAR.0>
0

>  <SCORE.INTRA.REPUL>
0

>  <SCORE.INTRA.REPUL.0>
0

>  <SCORE.INTRA.SOLV>
-0.993091

>  <SCORE.INTRA.SOLV.lig_0>
-58.6125

>  <SCORE.INTRA.VDW>
-0.149939

>  <SCORE.INTRA.VDW.0>
-0.432734

>  <SCORE.INTRA.norm>
-0.0928296

>  <SCORE.RESTR>
0

>  <SCORE.RESTR.CAVITY>
0

>  <SCORE.RESTR.norm>
0

>  <SCORE.SYSTEM>
0

>  <SCORE.SYSTEM.CONST>
0

>  <SCORE.SYSTEM.DIHEDRAL>
0

>  <SCORE.SYSTEM.SOLV>
0

>  <SCORE.SYSTEM.norm>
0

>  <SCORE.heavy>
16

>  <SCORE.norm>
-0.670108

>  <RMSD>
8.769

$$$$
ligand
 OpenBabel11021811463D
libRbt.so/2013.1/901 2013/11/27
 16 16  0  0  0  0  0  0  0  0999 V2000
   52.0991    9.6903   23.3494 P   0  0  2  0  0  0  0  0  0  0  0  0
   51.7492   10.7823   24.2909 O   0  0  0  0  0  0  0  0  0  0  0  0
   50.7574    9.1104   22.6768 O   0  5  0  0  0  0  0  0  0  0  0  0
   52.8272    8.5062   24.1664 O   0  0  0  0  0  0  0  0  0  0  0  0
   55.2762   13.2939   20.2597 C   0  0  2  0  0  0  0  0  0  0  0  0
   54.5659   14.2993   19.5273 O   0  0  0  0  0  0  0  0  0  0  0  0
   55.9757   12.3037   19.2932 C   0  0  2  0  0  0  0  0  0  0  0  0
   56.9066   13.0377   18.4148 N   0  0  0  0  0  0  0  0  0  0  0  0
   54.8998   11.6004   18.4487 C   0  0  1  0  0  0  0  0  0  0  0  0
   55.5089   10.6639   17.5557 O   0  0  0  0  0  0  0  0  0  0  0  0
   53.9637   10.8606   19.4027 C   0  0  2  0  0  0  0  0  0  0  0  0
   52.9581   10.2041   18.6413 O   0  0  0  0  0  0  0  0  0  0  0  0
   53.3151   11.8922   20.3656 C   0  0  2  0  0  0  0  0  0  0  0  0
   54.3452   12.5855   21.1347 O   0  0  0  0  0  0  0  0  0  0  0  0
   52.3600   11.1866   21.3599 C   0  0  0  0  0  0  0  0  0  0  0  0
   53.0830   10.2669   22.1983 O   0  0  0  0  0  0  0  0  0  0  0  0
  1  2  1  1  0  0  0
  1  3  1  0  0  0  0
  1  4  2  0  0  0  0
  1 16  1  0  0  0  0
  5  6  1  6  0  0  0
  5  7  1  0  0  0  0
  5 14  1  0  0  0  0
  7  8  1  6  0  0  0
  7  9  1  0  0  0  0
  9 10  1  6  0  0  0
  9 11  1  0  0  0  0
 11 12  1  6  0  0  0
 11 13  1  0  0  0  0
 13 14  1  0  0  0  0
 13 15  1  1  0  0  0
 15 16  1  0  0  0  0
M  CHG  1   3  -1
M  END
>  <CHROM.1>
62.90015833,172.68919372,-68.13953317,53.62004829,11.11797590,20.93074360
-2.85005175,-0.97495046,-2.25142580

>  <Name>
ligand

>  <RI>
0

>  <Rbt.Current_Directory>
/home/itssahil/PROJECTS/Mol_Feturizer/New_Systems/rnas/3B4C

>  <Rbt.Executable>
rbdock ($Id: //depot/dev/client3/rdock/2013.1/src/exe/rbdock.cxx#4 $)

>  <Rbt.Library>
libRbt.so (2013.1, Build901 2013/11/27)

>  <Rbt.Parameter_File>
/export/apps/rDock/src/rDock_2013.1_src/data/scripts/dock_solv.prm

>  <Rbt.Receptor>
prm/blind_docking_80.prm

>  <SCORE>
-6.30726

>  <SCORE.INTER>
-4.81536

>  <SCORE.INTER.CONST>
1

>  <SCORE.INTER.POLAR>
0

>  <SCORE.INTER.ROT>
3

>  <SCORE.INTER.SOLV>
24.0252

>  <SCORE.INTER.VDW>
-16.8186

>  <SCORE.INTER.norm>
-0.30096

>  <SCORE.INTRA>
-1.49189

>  <SCORE.INTRA.DIHEDRAL>
-1.73239

>  <SCORE.INTRA.DIHEDRAL.0>
2.1318

>  <SCORE.INTRA.POLAR>
0

>  <SCORE.INTRA.POLAR.0>
0

>  <SCORE.INTRA.REPUL>
0

>  <SCORE.INTRA.REPUL.0>
0

>  <SCORE.INTRA.SOLV>
-0.748891

>  <SCORE.INTRA.SOLV.lig_0>
-58.6125

>  <SCORE.INTRA.VDW>
-0.251252

>  <SCORE.INTRA.VDW.0>
-0.432734

>  <SCORE.INTRA.norm>
-0.0932434

>  <SCORE.RESTR>
0

>  <SCORE.RESTR.CAVITY>
0

>  <SCORE.RESTR.norm>
0

>  <SCORE.SYSTEM>
0

>  <SCORE.SYSTEM.CONST>
0

>  <SCORE.SYSTEM.DIHEDRAL>
0

>  <SCORE.SYSTEM.SOLV>
0

>  <SCORE.SYSTEM.norm>
0

>  <SCORE.heavy>
16

>  <SCORE.norm>
-0.394203

>  <RMSD>
8.967

$$$$
ligand
 OpenBabel11021811463D
libRbt.so/2013.1/901 2013/11/27
 16 16  0  0  0  0  0  0  0  0999 V2000
   51.5798   10.0217   22.9620 P   0  0  2  0  0  0  0  0  0  0  0  0
   52.5902    9.2465   23.7233 O   0  0  0  0  0  0  0  0  0  0  0  0
   50.8134   11.0278   23.9566 O   0  5  0  0  0  0  0  0  0  0  0  0
   50.5072    9.0012   22.3235 O   0  0  0  0  0  0  0  0  0  0  0  0
   54.1872   12.0941   18.1173 C   0  0  2  0  0  0  0  0  0  0  0  0
   55.2421   11.2798   17.5920 O   0  0  0  0  0  0  0  0  0  0  0  0
   54.7629   13.3545   18.8131 C   0  0  2  0  0  0  0  0  0  0  0  0
   55.5665   14.1322   17.8507 N   0  0  0  0  0  0  0  0  0  0  0  0
   55.6432   12.9050   19.9913 C   0  0  1  0  0  0  0  0  0  0  0  0
   56.1781   14.0449   20.6693 O   0  0  0  0  0  0  0  0  0  0  0  0
   54.7671   12.1043   20.9532 C   0  0  2  0  0  0  0  0  0  0  0  0
   55.5634   11.6763   22.0507 O   0  0  0  0  0  0  0  0  0  0  0  0
   54.1932   10.8739   20.1990 C   0  0  2  0  0  0  0  0  0  0  0  0
   53.3922   11.3073   19.0570 O   0  0  0  0  0  0  0  0  0  0  0  0
   53.2895   10.0324   21.1338 C   0  0  0  0  0  0  0  0  0  0  0  0
   52.3183   10.8658   21.7925 O   0  0  0  0  0  0  0  0  0  0  0  0
  1  2  1  1  0  0  0
  1  3  1  0  0  0  0
  1  4  2  0  0  0  0
  1 16  1  0  0  0  0
  5  6  1  1  0  0  0
  5  7  1  0  0  0  0
  5 14  1  0  0  0  0
  7  8  1  6  0  0  0
  7  9  1  0  0  0  0
  9 10  1  1  0  0  0
  9 11  1  0  0  0  0
 11 12  1  1  0  0  0
 11 13  1  0  0  0  0
 13 14  1  0  0  0  0
 13 15  1  1  0  0  0
 15 16  1  0  0  0  0
M  CHG  1   3  -1
M  END
>  <CHROM.1>
50.44381412,-169.34756938,44.00922486,53.59126004,11.35551037,20.91671125
-2.48152519,-0.71582894,-1.64819367

>  <Name>
ligand

>  <RI>
0

>  <Rbt.Current_Directory>
/home/itssahil/PROJECTS/Mol_Feturizer/New_Systems/rnas/3B4C

>  <Rbt.Executable>
rbdock ($Id: //depot/dev/client3/rdock/2013.1/src/exe/rbdock.cxx#4 $)

>  <Rbt.Library>
libRbt.so (2013.1, Build901 2013/11/27)

>  <Rbt.Parameter_File>
/export/apps/rDock/src/rDock_2013.1_src/data/scripts/dock_solv.prm

>  <Rbt.Receptor>
prm/blind_docking_100.prm

>  <SCORE>
-9.37326

>  <SCORE.INTER>
-8.52128

>  <SCORE.INTER.CONST>
1

>  <SCORE.INTER.POLAR>
0

>  <SCORE.INTER.ROT>
3

>  <SCORE.INTER.SOLV>
20.5904

>  <SCORE.INTER.VDW>
-18.1443

>  <SCORE.INTER.norm>
-0.53258

>  <SCORE.INTRA>
-0.851974

>  <SCORE.INTRA.DIHEDRAL>
-0.870941

>  <SCORE.INTRA.DIHEDRAL.0>
2.1318

>  <SCORE.INTRA.POLAR>
0

>  <SCORE.INTRA.POLAR.0>
0

>  <SCORE.INTRA.REPUL>
0

>  <SCORE.INTRA.REPUL.0>
0

>  <SCORE.INTRA.SOLV>
-0.918842

>  <SCORE.INTRA.SOLV.lig_0>
-58.6125

>  <SCORE.INTRA.VDW>
0.0429177

>  <SCORE.INTRA.VDW.0>
-0.432734

>  <SCORE.INTRA.norm>
-0.0532484

>  <SCORE.RESTR>
0

>  <SCORE.RESTR.CAVITY>
0

>  <SCORE.RESTR.norm>
0

>  <SCORE.SYSTEM>
0

>  <SCORE.SYSTEM.CONST>
0

>  <SCORE.SYSTEM.DIHEDRAL>
0

>  <SCORE.SYSTEM.SOLV>
0

>  <SCORE.SYSTEM.norm>
0

>  <SCORE.heavy>
16

>  <SCORE.norm>
-0.585828

>  <RMSD>
8.998

$$$$
ligand
 OpenBabel11021811463D
libRbt.so/2013.1/901 2013/11/27
 16 16  0  0  0  0  0  0  0  0999 V2000
   51.2826    9.9144   23.0023 P   0  0  2  0  0  0  0  0  0  0  0  0
   50.4005    8.9431   22.3097 O   0  0  0  0  0  0  0  0  0  0  0  0
   52.2532    9.1297   24.0177 O   0  5  0  0  0  0  0  0  0  0  0  0
   50.3709   10.9447   23.8430 O   0  0  0  0  0  0  0  0  0  0  0  0
   54.0792   11.6829   18.2334 C   0  0  2  0  0  0  0  0  0  0  0  0
   55.1045   10.8111   17.7429 O   0  0  0  0  0  0  0  0  0  0  0  0
   54.6969   12.9745   18.8285 C   0  0  2  0  0  0  0  0  0  0  0  0
   55.4947   13.6664   17.7981 N   0  0  0  0  0  0  0  0  0  0  0  0
   55.5941   12.5867   20.0159 C   0  0  1  0  0  0  0  0  0  0  0  0
   56.1682   13.7579   20.6025 O   0  0  0  0  0  0  0  0  0  0  0  0
   54.7234   11.8735   21.0489 C   0  0  2  0  0  0  0  0  0  0  0  0
   55.5352   11.5035   22.1561 O   0  0  0  0  0  0  0  0  0  0  0  0
   54.1067   10.6078   20.3933 C   0  0  2  0  0  0  0  0  0  0  0  0
   53.2893   10.9802   19.2415 O   0  0  0  0  0  0  0  0  0  0  0  0
   53.2069    9.8527   21.4027 C   0  0  0  0  0  0  0  0  0  0  0  0
   52.1689   10.7133   21.9059 O   0  0  0  0  0  0  0  0  0  0  0  0
  1  2  1  6  0  0  0
  1  3  1  0  0  0  0
  1  4  2  0  0  0  0
  1 16  1  0  0  0  0
  5  6  1  1  0  0  0
  5  7  1  0  0  0  0
  5 14  1  0  0  0  0
  7  8  1  6  0  0  0
  7  9  1  0  0  0  0
  9 10  1  1  0  0  0
  9 11  1  0  0  0  0
 11 12  1  1  0  0  0
 11 13  1  0  0  0  0
 13 14  1  0  0  0  0
 13 15  1  1  0  0  0
 15 16  1  0  0  0  0
M  CHG  1   3  -1
M  END
>  <CHROM.1>
57.19184655,-177.72412789,-74.49232189,53.44449810,11.11777150,20.99828460
2.48691477,0.65184515,1.48364872

>  <Name>
ligand

>  <RI>
0

>  <Rbt.Current_Directory>
/home/itssahil/PROJECTS/Mol_Feturizer/New_Systems/rnas/3B4C

>  <Rbt.Executable>
rbdock ($Id: //depot/dev/client3/rdock/2013.1/src/exe/rbdock.cxx#4 $)

>  <Rbt.Library>
libRbt.so (2013.1, Build901 2013/11/27)

>  <Rbt.Parameter_File>
/export/apps/rDock/src/rDock_2013.1_src/data/scripts/dock_solv.prm

>  <Rbt.Receptor>
prm/blind_docking_100.prm

>  <SCORE>
-11.5949

>  <SCORE.INTER>
-10.2159

>  <SCORE.INTER.CONST>
1

>  <SCORE.INTER.POLAR>
0

>  <SCORE.INTER.ROT>
3

>  <SCORE.INTER.SOLV>
17.1934

>  <SCORE.INTER.VDW>
-18.1417

>  <SCORE.INTER.norm>
-0.638494

>  <SCORE.INTRA>
-1.37904

>  <SCORE.INTRA.DIHEDRAL>
-1.75086

>  <SCORE.INTRA.DIHEDRAL.0>
2.1318

>  <SCORE.INTRA.POLAR>
0

>  <SCORE.INTRA.POLAR.0>
0

>  <SCORE.INTRA.REPUL>
0

>  <SCORE.INTRA.REPUL.0>
0

>  <SCORE.INTRA.SOLV>
-0.657892

>  <SCORE.INTRA.SOLV.lig_0>
-58.6125

>  <SCORE.INTRA.VDW>
-0.174664

>  <SCORE.INTRA.VDW.0>
-0.432734

>  <SCORE.INTRA.norm>
-0.08619

>  <SCORE.RESTR>
0

>  <SCORE.RESTR.CAVITY>
0

>  <SCORE.RESTR.norm>
0

>  <SCORE.SYSTEM>
0

>  <SCORE.SYSTEM.CONST>
0

>  <SCORE.SYSTEM.DIHEDRAL>
0

>  <SCORE.SYSTEM.SOLV>
0

>  <SCORE.SYSTEM.norm>
0

>  <SCORE.heavy>
16

>  <SCORE.norm>
-0.724684

>  <RMSD>
9.036

$$$$
ligand
 OpenBabel11021811463D
libRbt.so/2013.1/901 2013/11/27
 16 16  0  0  0  0  0  0  0  0999 V2000
   51.4208    9.9885   22.8657 P   0  0  2  0  0  0  0  0  0  0  0  0
   50.5411    9.0368   22.1434 O   0  0  0  0  0  0  0  0  0  0  0  0
   52.4108    9.1735   23.8375 O   0  5  0  0  0  0  0  0  0  0  0  0
   50.5078   10.9735   23.7578 O   0  0  0  0  0  0  0  0  0  0  0  0
   54.1938   11.9773   18.1897 C   0  0  2  0  0  0  0  0  0  0  0  0
   55.2437   11.1492   17.6762 O   0  0  0  0  0  0  0  0  0  0  0  0
   54.7738   13.2717   18.8159 C   0  0  2  0  0  0  0  0  0  0  0  0
   55.5482   14.0127   17.8019 N   0  0  0  0  0  0  0  0  0  0  0  0
   55.6849   12.8817   19.9920 C   0  0  1  0  0  0  0  0  0  0  0  0
   56.2248   14.0546   20.6067 O   0  0  0  0  0  0  0  0  0  0  0  0
   54.8382   12.1171   21.0081 C   0  0  2  0  0  0  0  0  0  0  0  0
   55.6632   11.7443   22.1046 O   0  0  0  0  0  0  0  0  0  0  0  0
   54.2583   10.8501   20.3221 C   0  0  2  0  0  0  0  0  0  0  0  0
   53.4276   11.2264   19.1812 O   0  0  0  0  0  0  0  0  0  0  0  0
   53.3839   10.0435   21.3138 C   0  0  0  0  0  0  0  0  0  0  0  0
   52.2862   10.8413   21.7935 O   0  0  0  0  0  0  0  0  0  0  0  0
  1  2  1  6  0  0  0
  1  3  1  0  0  0  0
  1  4  2  0  0  0  0
  1 16  1  0  0  0  0
  5  6  1  1  0  0  0
  5  7  1  0  0  0  0
  5 14  1  0  0  0  0
  7  8  1  6  0  0  0
  7  9  1  0  0  0  0
  9 10  1  1  0  0  0
  9 11  1  0  0  0  0
 11 12  1  1  0  0  0
 11 13  1  0  0  0  0
 13 14  1  0  0  0  0
 13 15  1  1  0  0  0
 15 16  1  0  0  0  0
M  CHG  1   3  -1
M  END
>  <CHROM.1>
59.79373726,-178.06847263,-78.48539985,53.56702329,11.31746504,20.92123150
2.49696888,0.67615150,1.51336081

>  <Name>
ligand

>  <RI>
0

>  <Rbt.Current_Directory>
/home/itssahil/PROJECTS/Mol_Feturizer/New_Systems/rnas/3B4C

>  <Rbt.Executable>
rbdock ($Id: //depot/dev/client3/rdock/2013.1/src/exe/rbdock.cxx#4 $)

>  <Rbt.Library>
libRbt.so (2013.1, Build901 2013/11/27)

>  <Rbt.Parameter_File>
/export/apps/rDock/src/rDock_2013.1_src/data/scripts/dock_solv.prm

>  <Rbt.Receptor>
prm/blind_docking_80.prm

>  <SCORE>
-11.6524

>  <SCORE.INTER>
-10.4239

>  <SCORE.INTER.CONST>
1

>  <SCORE.INTER.POLAR>
0

>  <SCORE.INTER.ROT>
3

>  <SCORE.INTER.SOLV>
17.3709

>  <SCORE.INTER.VDW>
-18.3396

>  <SCORE.INTER.norm>
-0.651492

>  <SCORE.INTRA>
-1.22854

>  <SCORE.INTRA.DIHEDRAL>
-1.59587

>  <SCORE.INTRA.DIHEDRAL.0>
2.1318

>  <SCORE.INTRA.POLAR>
0

>  <SCORE.INTRA.POLAR.0>
0

>  <SCORE.INTRA.REPUL>
0

>  <SCORE.INTRA.REPUL.0>
0

>  <SCORE.INTRA.SOLV>
-0.621855

>  <SCORE.INTRA.SOLV.lig_0>
-58.6125

>  <SCORE.INTRA.VDW>
-0.119679

>  <SCORE.INTRA.VDW.0>
-0.432734

>  <SCORE.INTRA.norm>
-0.0767838

>  <SCORE.RESTR>
0

>  <SCORE.RESTR.CAVITY>
0

>  <SCORE.RESTR.norm>
0

>  <SCORE.SYSTEM>
0

>  <SCORE.SYSTEM.CONST>
0

>  <SCORE.SYSTEM.DIHEDRAL>
0

>  <SCORE.SYSTEM.SOLV>
0

>  <SCORE.SYSTEM.norm>
0

>  <SCORE.heavy>
16

>  <SCORE.norm>
-0.728276

>  <RMSD>
9.057

$$$$
ligand
 OpenBabel11021811463D
libRbt.so/2013.1/901 2013/11/27
 16 16  0  0  0  0  0  0  0  0999 V2000
   55.8068   11.2056   15.8075 P   0  0  2  0  0  0  0  0  0  0  0  0
   56.0802   10.4194   17.0358 O   0  0  0  0  0  0  0  0  0  0  0  0
   55.3588   12.6968   16.2128 O   0  5  0  0  0  0  0  0  0  0  0  0
   54.6066   10.5036   14.9914 O   0  0  0  0  0  0  0  0  0  0  0  0
   57.0525   10.8881   10.4705 C   0  0  2  0  0  0  0  0  0  0  0  0
   56.0311   11.8908   10.5260 O   0  0  0  0  0  0  0  0  0  0  0  0
   56.4819    9.5549    9.9217 C   0  0  2  0  0  0  0  0  0  0  0  0
   55.9158    9.7708    8.5765 N   0  0  0  0  0  0  0  0  0  0  0  0
   55.3860    9.0593   10.8802 C   0  0  1  0  0  0  0  0  0  0  0  0
   54.8480    7.8190   10.4140 O   0  0  0  0  0  0  0  0  0  0  0  0
   56.0215    8.8551   12.2544 C   0  0  2  0  0  0  0  0  0  0  0  0
   55.0232    8.3984   13.1581 O   0  0  0  0  0  0  0  0  0  0  0  0
   56.6025   10.2103   12.7421 C   0  0  2  0  0  0  0  0  0  0  0  0
   57.6130   10.6953   11.8056 O   0  0  0  0  0  0  0  0  0  0  0  0
   57.2659   10.0519   14.1325 C   0  0  0  0  0  0  0  0  0  0  0  0
   57.1462   11.2652   14.8975 O   0  0  0  0  0  0  0  0  0  0  0  0
  1  2  1  1  0  0  0
  1  3  1  0  0  0  0
  1  4  2  0  0  0  0
  1 16  1  0  0  0  0
  5  6  1  1  0  0  0
  5  7  1  0  0  0  0
  5 14  1  0  0  0  0
  7  8  1  6  0  0  0
  7  9  1  0  0  0  0
  9 10  1  6  0  0  0
  9 11  1  0  0  0  0
 11 12  1  1  0  0  0
 11 13  1  0  0  0  0
 13 14  1  0  0  0  0
 13 15  1  1  0  0  0
 15 16  1  0  0  0  0
M  CHG  1   3  -1
M  END
>  <CHROM.1>
-148.53408866,92.24157995,81.34727634,56.03971191,10.29840722,13.03122411
-1.61458483,-1.05625355,-1.88040217

>  <Name>
ligand

>  <RI>
0

>  <Rbt.Current_Directory>
/home/itssahil/PROJECTS/Mol_Feturizer/New_Systems/rnas/3B4C

>  <Rbt.Executable>
rbdock ($Id: //depot/dev/client3/rdock/2013.1/src/exe/rbdock.cxx#4 $)

>  <Rbt.Library>
libRbt.so (2013.1, Build901 2013/11/27)

>  <Rbt.Parameter_File>
/export/apps/rDock/src/rDock_2013.1_src/data/scripts/dock_solv.prm

>  <Rbt.Receptor>
prm/pocket_docking_8.prm

>  <SCORE>
-8.94545

>  <SCORE.INTER>
-12.2843

>  <SCORE.INTER.CONST>
1

>  <SCORE.INTER.POLAR>
-2.33827

>  <SCORE.INTER.ROT>
3

>  <SCORE.INTER.SOLV>
13.0542

>  <SCORE.INTER.VDW>
-10.3467

>  <SCORE.INTER.norm>
-0.767769

>  <SCORE.INTRA>
3.33885

>  <SCORE.INTRA.DIHEDRAL>
5.41813

>  <SCORE.INTRA.DIHEDRAL.0>
2.1318

>  <SCORE.INTRA.POLAR>
0

>  <SCORE.INTRA.POLAR.0>
0

>  <SCORE.INTRA.REPUL>
0

>  <SCORE.INTRA.REPUL.0>
0

>  <SCORE.INTRA.SOLV>
2.1696

>  <SCORE.INTRA.SOLV.lig_0>
-58.6125

>  <SCORE.INTRA.VDW>
-0.455013

>  <SCORE.INTRA.VDW.0>
-0.432734

>  <SCORE.INTRA.norm>
0.208678

>  <SCORE.RESTR>
0

>  <SCORE.RESTR.CAVITY>
0

>  <SCORE.RESTR.norm>
0

>  <SCORE.SYSTEM>
0

>  <SCORE.SYSTEM.CONST>
0

>  <SCORE.SYSTEM.DIHEDRAL>
0

>  <SCORE.SYSTEM.SOLV>
0

>  <SCORE.SYSTEM.norm>
0

>  <SCORE.heavy>
16

>  <SCORE.norm>
-0.559091

>  <RMSD>
9.193

$$$$
ligand
 OpenBabel11021811463D
libRbt.so/2013.1/901 2013/11/27
 16 16  0  0  0  0  0  0  0  0999 V2000
   43.0320   10.1795   15.5287 P   0  0  2  0  0  0  0  0  0  0  0  0
   44.1437   10.5211   14.6075 O   0  0  0  0  0  0  0  0  0  0  0  0
   43.2305   10.9586   16.9224 O   0  5  0  0  0  0  0  0  0  0  0  0
   43.0528    8.5922   15.8105 O   0  0  0  0  0  0  0  0  0  0  0  0
   39.1860   10.2528   10.6571 C   0  0  2  0  0  0  0  0  0  0  0  0
   39.5929   11.5700   10.2685 O   0  0  0  0  0  0  0  0  0  0  0  0
   37.7937   10.2883   11.3384 C   0  0  2  0  0  0  0  0  0  0  0  0
   36.8009   10.8689   10.4142 N   0  0  0  0  0  0  0  0  0  0  0  0
   37.8923   11.1462   12.6110 C   0  0  1  0  0  0  0  0  0  0  0  0
   36.6274   11.1868   13.2769 O   0  0  0  0  0  0  0  0  0  0  0  0
   38.9317   10.5059   13.5294 C   0  0  2  0  0  0  0  0  0  0  0  0
   39.0406   11.2861   14.7131 O   0  0  0  0  0  0  0  0  0  0  0  0
   40.2963   10.4675   12.7886 C   0  0  2  0  0  0  0  0  0  0  0  0
   40.1847    9.6856   11.5600 O   0  0  0  0  0  0  0  0  0  0  0  0
   41.3839    9.8182   13.6798 C   0  0  0  0  0  0  0  0  0  0  0  0
   41.6231   10.6128   14.8557 O   0  0  0  0  0  0  0  0  0  0  0  0
  1  2  1  6  0  0  0
  1  3  1  0  0  0  0
  1  4  2  0  0  0  0
  1 16  1  0  0  0  0
  5  6  1  1  0  0  0
  5  7  1  0  0  0  0
  5 14  1  0  0  0  0
  7  8  1  6  0  0  0
  7  9  1  0  0  0  0
  9 10  1  1  0  0  0
  9 11  1  0  0  0  0
 11 12  1  1  0  0  0
 11 13  1  0  0  0  0
 13 14  1  0  0  0  0
 13 15  1  1  0  0  0
 15 16  1  0  0  0  0
M  CHG  1   3  -1
M  END
>  <CHROM.1>
-64.05128345,-163.07474628,65.57548427,40.44281400,10.47770144,13.50302241
-0.65522286,0.20978942,-1.67094981

>  <Name>
ligand

>  <RI>
0

>  <Rbt.Current_Directory>
/home/itssahil/PROJECTS/Mol_Feturizer/New_Systems/rnas/3B4C

>  <Rbt.Executable>
rbdock ($Id: //depot/dev/client3/rdock/2013.1/src/exe/rbdock.cxx#4 $)

>  <Rbt.Library>
libRbt.so (2013.1, Build901 2013/11/27)

>  <Rbt.Parameter_File>
/export/apps/rDock/src/rDock_2013.1_src/data/scripts/dock_solv.prm

>  <Rbt.Receptor>
prm/blind_docking_80.prm

>  <SCORE>
-9.77602

>  <SCORE.INTER>
-9.0226

>  <SCORE.INTER.CONST>
1

>  <SCORE.INTER.POLAR>
0

>  <SCORE.INTER.ROT>
3

>  <SCORE.INTER.SOLV>
22.4294

>  <SCORE.INTER.VDW>
-19.0915

>  <SCORE.INTER.norm>
-0.563912

>  <SCORE.INTRA>
-0.75342

>  <SCORE.INTRA.DIHEDRAL>
-0.695577

>  <SCORE.INTRA.DIHEDRAL.0>
2.1318

>  <SCORE.INTRA.POLAR>
0

>  <SCORE.INTRA.POLAR.0>
0

>  <SCORE.INTRA.REPUL>
0

>  <SCORE.INTRA.REPUL.0>
0

>  <SCORE.INTRA.SOLV>
-0.716606

>  <SCORE.INTRA.SOLV.lig_0>
-58.6125

>  <SCORE.INTRA.VDW>
-0.0473288

>  <SCORE.INTRA.VDW.0>
-0.432734

>  <SCORE.INTRA.norm>
-0.0470888

>  <SCORE.RESTR>
0

>  <SCORE.RESTR.CAVITY>
0

>  <SCORE.RESTR.norm>
0

>  <SCORE.SYSTEM>
0

>  <SCORE.SYSTEM.CONST>
0

>  <SCORE.SYSTEM.DIHEDRAL>
0

>  <SCORE.SYSTEM.SOLV>
0

>  <SCORE.SYSTEM.norm>
0

>  <SCORE.heavy>
16

>  <SCORE.norm>
-0.611001

>  <RMSD>
9.384

$$$$
ligand
 OpenBabel11021811463D
libRbt.so/2013.1/901 2013/11/27
 16 16  0  0  0  0  0  0  0  0999 V2000
   53.5439    8.8103   25.4190 P   0  0  2  0  0  0  0  0  0  0  0  0
   52.7663    7.6276   24.9741 O   0  0  0  0  0  0  0  0  0  0  0  0
   55.0847    8.3944   25.6230 O   0  5  0  0  0  0  0  0  0  0  0  0
   52.9523    9.3282   26.8266 O   0  0  0  0  0  0  0  0  0  0  0  0
   55.3486   11.9423   20.9198 C   0  0  2  0  0  0  0  0  0  0  0  0
   54.5914   13.1074   21.2674 O   0  0  0  0  0  0  0  0  0  0  0  0
   54.9790   11.4538   19.4954 C   0  0  2  0  0  0  0  0  0  0  0  0
   55.2336   12.5289   18.5177 N   0  0  0  0  0  0  0  0  0  0  0  0
   53.4896   11.0704   19.4798 C   0  0  1  0  0  0  0  0  0  0  0  0
   53.1166   10.5970   18.1829 O   0  0  0  0  0  0  0  0  0  0  0  0
   53.2799    9.9600   20.5078 C   0  0  2  0  0  0  0  0  0  0  0  0
   51.9066    9.5916   20.5114 O   0  0  0  0  0  0  0  0  0  0  0  0
   53.6931   10.4912   21.9076 C   0  0  2  0  0  0  0  0  0  0  0  0
   55.0977   10.8920   21.9036 O   0  0  0  0  0  0  0  0  0  0  0  0
   53.5044    9.3953   22.9855 C   0  0  0  0  0  0  0  0  0  0  0  0
   53.4358    9.9774   24.3001 O   0  0  0  0  0  0  0  0  0  0  0  0
  1  2  1  6  0  0  0
  1  3  1  0  0  0  0
  1  4  2  0  0  0  0
  1 16  1  0  0  0  0
  5  6  1  1  0  0  0
  5  7  1  0  0  0  0
  5 14  1  0  0  0  0
  7  8  1  6  0  0  0
  7  9  1  0  0  0  0
  9 10  1  6  0  0  0
  9 11  1  0  0  0  0
 11 12  1  1  0  0  0
 11 13  1  0  0  0  0
 13 14  1  0  0  0  0
 13 15  1  1  0  0  0
 15 16  1  0  0  0  0
M  CHG  1   3  -1
M  END
>  <CHROM.1>
-160.29103737,-168.50529361,-39.75798333,53.83224767,10.18390300,22.36597068
-1.71274273,-0.77551522,-1.24350609

>  <Name>
ligand

>  <RI>
0

>  <Rbt.Current_Directory>
/home/itssahil/PROJECTS/Mol_Feturizer/New_Systems/rnas/3B4C

>  <Rbt.Executable>
rbdock ($Id: //depot/dev/client3/rdock/2013.1/src/exe/rbdock.cxx#4 $)

>  <Rbt.Library>
libRbt.so (2013.1, Build901 2013/11/27)

>  <Rbt.Parameter_File>
/export/apps/rDock/src/rDock_2013.1_src/data/scripts/dock_solv.prm

>  <Rbt.Receptor>
prm/blind_docking_80.prm

>  <SCORE>
-7.8758

>  <SCORE.INTER>
-7.74112

>  <SCORE.INTER.CONST>
1

>  <SCORE.INTER.POLAR>
0

>  <SCORE.INTER.ROT>
3

>  <SCORE.INTER.SOLV>
16.9163

>  <SCORE.INTER.VDW>
-16.3995

>  <SCORE.INTER.norm>
-0.48382

>  <SCORE.INTRA>
-0.134679

>  <SCORE.INTRA.DIHEDRAL>
0.41096

>  <SCORE.INTRA.DIHEDRAL.0>
2.1318

>  <SCORE.INTRA.POLAR>
0

>  <SCORE.INTRA.POLAR.0>
0

>  <SCORE.INTRA.REPUL>
0

>  <SCORE.INTRA.REPUL.0>
0

>  <SCORE.INTRA.SOLV>
-1.14677

>  <SCORE.INTRA.SOLV.lig_0>
-58.6125

>  <SCORE.INTRA.VDW>
0.233223

>  <SCORE.INTRA.VDW.0>
-0.432734

>  <SCORE.INTRA.norm>
-0.00841745

>  <SCORE.RESTR>
0

>  <SCORE.RESTR.CAVITY>
0

>  <SCORE.RESTR.norm>
0

>  <SCORE.SYSTEM>
0

>  <SCORE.SYSTEM.CONST>
0

>  <SCORE.SYSTEM.DIHEDRAL>
0

>  <SCORE.SYSTEM.SOLV>
0

>  <SCORE.SYSTEM.norm>
0

>  <SCORE.heavy>
16

>  <SCORE.norm>
-0.492237

>  <RMSD>
9.652

$$$$
ligand
 OpenBabel11021811463D
libRbt.so/2013.1/901 2013/11/27
 16 16  0  0  0  0  0  0  0  0999 V2000
   55.8192    9.2612   26.0707 P   0  0  2  0  0  0  0  0  0  0  0  0
   57.0939    9.9678   25.7932 O   0  0  0  0  0  0  0  0  0  0  0  0
   55.2981    9.6511   27.5422 O   0  5  0  0  0  0  0  0  0  0  0  0
   56.0774    7.6707   26.0129 O   0  0  0  0  0  0  0  0  0  0  0  0
   50.6444   10.7041   23.8070 C   0  0  2  0  0  0  0  0  0  0  0  0
   49.7347    9.6210   23.5812 O   0  0  0  0  0  0  0  0  0  0  0  0
   51.1858   11.2540   22.4622 C   0  0  2  0  0  0  0  0  0  0  0  0
   50.0623   11.7083   21.6207 N   0  0  0  0  0  0  0  0  0  0  0  0
   51.9572   10.1312   21.7484 C   0  0  1  0  0  0  0  0  0  0  0  0
   52.4876   10.6088   20.5092 O   0  0  0  0  0  0  0  0  0  0  0  0
   53.1034    9.6963   22.6599 C   0  0  2  0  0  0  0  0  0  0  0  0
   53.8295    8.6552   22.0190 O   0  0  0  0  0  0  0  0  0  0  0  0
   52.5087    9.1846   24.0003 C   0  0  2  0  0  0  0  0  0  0  0  0
   51.7431   10.2436   24.6526 O   0  0  0  0  0  0  0  0  0  0  0  0
   53.6363    8.7377   24.9633 C   0  0  0  0  0  0  0  0  0  0  0  0
   54.7138    9.6919   24.9670 O   0  0  0  0  0  0  0  0  0  0  0  0
  1  2  1  6  0  0  0
  1  3  1  0  0  0  0
  1  4  2  0  0  0  0
  1 16  1  0  0  0  0
  5  6  1  6  0  0  0
  5  7  1  0  0  0  0
  5 14  1  0  0  0  0
  7  8  1  6  0  0  0
  7  9  1  0  0  0  0
  9 10  1  6  0  0  0
  9 11  1  0  0  0  0
 11 12  1  6  0  0  0
 11 13  1  0  0  0  0
 13 14  1  0  0  0  0
 13 15  1  1  0  0  0
 15 16  1  0  0  0  0
M  CHG  1   3  -1
M  END
>  <CHROM.1>
44.07942183,175.37789385,162.41533398,53.37222083,9.73712735,24.09628346
0.67730947,-0.24849112,1.62134296

>  <Name>
ligand

>  <RI>
0

>  <Rbt.Current_Directory>
/home/itssahil/PROJECTS/Mol_Feturizer/New_Systems/rnas/3B4C

>  <Rbt.Executable>
rbdock ($Id: //depot/dev/client3/rdock/2013.1/src/exe/rbdock.cxx#4 $)

>  <Rbt.Library>
libRbt.so (2013.1, Build901 2013/11/27)

>  <Rbt.Parameter_File>
/export/apps/rDock/src/rDock_2013.1_src/data/scripts/dock_solv.prm

>  <Rbt.Receptor>
prm/blind_docking_80.prm

>  <SCORE>
-6.28808

>  <SCORE.INTER>
-5.82375

>  <SCORE.INTER.CONST>
1

>  <SCORE.INTER.POLAR>
0

>  <SCORE.INTER.ROT>
3

>  <SCORE.INTER.SOLV>
24.4373

>  <SCORE.INTER.VDW>
-17.6283

>  <SCORE.INTER.norm>
-0.363985

>  <SCORE.INTRA>
-0.464324

>  <SCORE.INTRA.DIHEDRAL>
-0.695287

>  <SCORE.INTRA.DIHEDRAL.0>
2.1318

>  <SCORE.INTRA.POLAR>
0

>  <SCORE.INTRA.POLAR.0>
0

>  <SCORE.INTRA.REPUL>
0

>  <SCORE.INTRA.REPUL.0>
0

>  <SCORE.INTRA.SOLV>
-0.17427

>  <SCORE.INTRA.SOLV.lig_0>
-58.6125

>  <SCORE.INTRA.VDW>
-0.0295449

>  <SCORE.INTRA.VDW.0>
-0.432734

>  <SCORE.INTRA.norm>
-0.0290202

>  <SCORE.RESTR>
0

>  <SCORE.RESTR.CAVITY>
0

>  <SCORE.RESTR.norm>
0

>  <SCORE.SYSTEM>
0

>  <SCORE.SYSTEM.CONST>
0

>  <SCORE.SYSTEM.DIHEDRAL>
0

>  <SCORE.SYSTEM.SOLV>
0

>  <SCORE.SYSTEM.norm>
0

>  <SCORE.heavy>
16

>  <SCORE.norm>
-0.393005

>  <RMSD>
9.938

$$$$
ligand
 OpenBabel11021811463D
libRbt.so/2013.1/901 2013/11/27
 16 16  0  0  0  0  0  0  0  0999 V2000
   55.5403    6.5394   12.3671 P   0  0  2  0  0  0  0  0  0  0  0  0
   56.3367    7.0866   11.2412 O   0  0  0  0  0  0  0  0  0  0  0  0
   54.6320    7.7070   13.0000 O   0  5  0  0  0  0  0  0  0  0  0  0
   56.5448    5.9871   13.5009 O   0  0  0  0  0  0  0  0  0  0  0  0
   52.9010    2.5426    9.1689 C   0  0  2  0  0  0  0  0  0  0  0  0
   52.1497    3.0219    8.0475 O   0  0  0  0  0  0  0  0  0  0  0  0
   51.9577    1.9478   10.2462 C   0  0  2  0  0  0  0  0  0  0  0  0
   51.1666    0.8471    9.6636 N   0  0  0  0  0  0  0  0  0  0  0  0
   51.0215    3.0607   10.7465 C   0  0  1  0  0  0  0  0  0  0  0  0
   50.1469    2.5514   11.7569 O   0  0  0  0  0  0  0  0  0  0  0  0
   51.8875    4.1732   11.3352 C   0  0  2  0  0  0  0  0  0  0  0  0
   51.0404    5.2152   11.8025 O   0  0  0  0  0  0  0  0  0  0  0  0
   52.8318    4.7108   10.2256 C   0  0  2  0  0  0  0  0  0  0  0  0
   53.6893    3.6390    9.7262 O   0  0  0  0  0  0  0  0  0  0  0  0
   53.7376    5.8390   10.7780 C   0  0  0  0  0  0  0  0  0  0  0  0
   54.5925    5.3426   11.8241 O   0  0  0  0  0  0  0  0  0  0  0  0
  1  2  1  6  0  0  0
  1  3  1  0  0  0  0
  1  4  2  0  0  0  0
  1 16  1  0  0  0  0
  5  6  1  6  0  0  0
  5  7  1  0  0  0  0
  5 14  1  0  0  0  0
  7  8  1  6  0  0  0
  7  9  1  0  0  0  0
  9 10  1  1  0  0  0
  9 11  1  0  0  0  0
 11 12  1  6  0  0  0
 11 13  1  0  0  0  0
 13 14  1  0  0  0  0
 13 15  1  1  0  0  0
 15 16  1  0  0  0  0
M  CHG  1   3  -1
M  END
>  <CHROM.1>
62.56780291,179.24251416,-57.93848693,53.34976006,4.59773815,11.09611125
-0.78060507,-0.42048690,-2.23477367

>  <Name>
ligand

>  <RI>
0

>  <Rbt.Current_Directory>
/home/itssahil/PROJECTS/Mol_Feturizer/New_Systems/rnas/3B4C

>  <Rbt.Executable>
rbdock ($Id: //depot/dev/client3/rdock/2013.1/src/exe/rbdock.cxx#4 $)

>  <Rbt.Library>
libRbt.so (2013.1, Build901 2013/11/27)

>  <Rbt.Parameter_File>
/export/apps/rDock/src/rDock_2013.1_src/data/scripts/dock_solv.prm

>  <Rbt.Receptor>
prm/blind_docking_60.prm

>  <SCORE>
-9.88718

>  <SCORE.INTER>
-8.1785

>  <SCORE.INTER.CONST>
1

>  <SCORE.INTER.POLAR>
-1.29885

>  <SCORE.INTER.ROT>
3

>  <SCORE.INTER.SOLV>
18.2195

>  <SCORE.INTER.VDW>
-12.796

>  <SCORE.INTER.norm>
-0.511156

>  <SCORE.INTRA>
-1.70868

>  <SCORE.INTRA.DIHEDRAL>
-2.09419

>  <SCORE.INTRA.DIHEDRAL.0>
2.1318

>  <SCORE.INTRA.POLAR>
0

>  <SCORE.INTRA.POLAR.0>
0

>  <SCORE.INTRA.REPUL>
0

>  <SCORE.INTRA.REPUL.0>
0

>  <SCORE.INTRA.SOLV>
-0.836203

>  <SCORE.INTRA.SOLV.lig_0>
-58.6125

>  <SCORE.INTRA.VDW>
-0.243485

>  <SCORE.INTRA.VDW.0>
-0.432734

>  <SCORE.INTRA.norm>
-0.106793

>  <SCORE.RESTR>
0

>  <SCORE.RESTR.CAVITY>
0

>  <SCORE.RESTR.norm>
0

>  <SCORE.SYSTEM>
0

>  <SCORE.SYSTEM.CONST>
0

>  <SCORE.SYSTEM.DIHEDRAL>
0

>  <SCORE.SYSTEM.SOLV>
0

>  <SCORE.SYSTEM.norm>
0

>  <SCORE.heavy>
16

>  <SCORE.norm>
-0.617949

>  <RMSD>
10.054

$$$$
ligand
 OpenBabel11021811463D
libRbt.so/2013.1/901 2013/11/27
 16 16  0  0  0  0  0  0  0  0999 V2000
   55.3772    9.9401   26.1507 P   0  0  2  0  0  0  0  0  0  0  0  0
   54.8536   10.9351   27.1187 O   0  0  0  0  0  0  0  0  0  0  0  0
   56.7650    9.3371   26.6978 O   0  5  0  0  0  0  0  0  0  0  0  0
   55.6465   10.6722   24.7396 O   0  0  0  0  0  0  0  0  0  0  0  0
   53.7298    9.3648   21.9414 C   0  0  2  0  0  0  0  0  0  0  0  0
   54.5120   10.5633   21.8822 O   0  0  0  0  0  0  0  0  0  0  0  0
   52.3014    9.6154   21.3927 C   0  0  2  0  0  0  0  0  0  0  0  0
   52.3794   10.0965   20.0002 N   0  0  0  0  0  0  0  0  0  0  0  0
   51.6151   10.6708   22.2762 C   0  0  1  0  0  0  0  0  0  0  0  0
   50.2855   10.9147   21.8092 O   0  0  0  0  0  0  0  0  0  0  0  0
   51.5627   10.1266   23.7027 C   0  0  2  0  0  0  0  0  0  0  0  0
   50.9329   11.0895   24.5381 O   0  0  0  0  0  0  0  0  0  0  0  0
   53.0138    9.8650   24.1907 C   0  0  2  0  0  0  0  0  0  0  0  0
   53.6732    8.8928   23.3228 O   0  0  0  0  0  0  0  0  0  0  0  0
   53.0121    9.3039   25.6342 C   0  0  0  0  0  0  0  0  0  0  0  0
   54.2965    8.7467   25.9678 O   0  0  0  0  0  0  0  0  0  0  0  0
  1  2  1  1  0  0  0
  1  3  1  0  0  0  0
  1  4  2  0  0  0  0
  1 16  1  0  0  0  0
  5  6  1  1  0  0  0
  5  7  1  0  0  0  0
  5 14  1  0  0  0  0
  7  8  1  6  0  0  0
  7  9  1  0  0  0  0
  9 10  1  6  0  0  0
  9 11  1  0  0  0  0
 11 12  1  1  0  0  0
 11 13  1  0  0  0  0
 13 14  1  0  0  0  0
 13 15  1  1  0  0  0
 15 16  1  0  0  0  0
M  CHG  1   3  -1
M  END
>  <CHROM.1>
165.41717343,71.32544156,52.96672271,53.55691263,10.01388670,24.05615908
-0.88500280,0.20201652,-1.63492484

>  <Name>
ligand

>  <RI>
0

>  <Rbt.Current_Directory>
/home/itssahil/PROJECTS/Mol_Feturizer/New_Systems/rnas/3B4C

>  <Rbt.Executable>
rbdock ($Id: //depot/dev/client3/rdock/2013.1/src/exe/rbdock.cxx#4 $)

>  <Rbt.Library>
libRbt.so (2013.1, Build901 2013/11/27)

>  <Rbt.Parameter_File>
/export/apps/rDock/src/rDock_2013.1_src/data/scripts/dock_solv.prm

>  <Rbt.Receptor>
prm/blind_docking_80.prm

>  <SCORE>
-8.92121

>  <SCORE.INTER>
-9.79916

>  <SCORE.INTER.CONST>
1

>  <SCORE.INTER.POLAR>
0

>  <SCORE.INTER.ROT>
3

>  <SCORE.INTER.SOLV>
23.1186

>  <SCORE.INTER.VDW>
-19.839

>  <SCORE.INTER.norm>
-0.612447

>  <SCORE.INTRA>
0.877949

>  <SCORE.INTRA.DIHEDRAL>
-0.708372

>  <SCORE.INTRA.DIHEDRAL.0>
2.1318

>  <SCORE.INTRA.POLAR>
0

>  <SCORE.INTRA.POLAR.0>
0

>  <SCORE.INTRA.REPUL>
0

>  <SCORE.INTRA.REPUL.0>
0

>  <SCORE.INTRA.SOLV>
2.75639

>  <SCORE.INTRA.SOLV.lig_0>
-58.6125

>  <SCORE.INTRA.VDW>
-0.146061

>  <SCORE.INTRA.VDW.0>
-0.432734

>  <SCORE.INTRA.norm>
0.0548718

>  <SCORE.RESTR>
0

>  <SCORE.RESTR.CAVITY>
0

>  <SCORE.RESTR.norm>
0

>  <SCORE.SYSTEM>
0

>  <SCORE.SYSTEM.CONST>
0

>  <SCORE.SYSTEM.DIHEDRAL>
0

>  <SCORE.SYSTEM.SOLV>
0

>  <SCORE.SYSTEM.norm>
0

>  <SCORE.heavy>
16

>  <SCORE.norm>
-0.557576

>  <RMSD>
10.184

$$$$
ligand
 OpenBabel11021811463D
libRbt.so/2013.1/901 2013/11/27
 16 16  0  0  0  0  0  0  0  0999 V2000
   51.8200    6.4252   12.1249 P   0  0  2  0  0  0  0  0  0  0  0  0
   50.9106    7.0940   11.1621 O   0  0  0  0  0  0  0  0  0  0  0  0
   51.8821    7.2789   13.4873 O   0  5  0  0  0  0  0  0  0  0  0  0
   53.2988    6.3527   11.4865 O   0  0  0  0  0  0  0  0  0  0  0  0
   48.8969    1.4237   12.1419 C   0  0  2  0  0  0  0  0  0  0  0  0
   49.5548    0.8887   13.2964 O   0  0  0  0  0  0  0  0  0  0  0  0
   49.0765    0.4819   10.9235 C   0  0  2  0  0  0  0  0  0  0  0  0
   48.5315   -0.8522   11.2396 N   0  0  0  0  0  0  0  0  0  0  0  0
   50.5771    0.3747   10.6039 C   0  0  1  0  0  0  0  0  0  0  0  0
   50.7799   -0.4743    9.4711 O   0  0  0  0  0  0  0  0  0  0  0  0
   51.0912    1.7782   10.2878 C   0  0  2  0  0  0  0  0  0  0  0  0
   52.4797    1.7021    9.9912 O   0  0  0  0  0  0  0  0  0  0  0  0
   50.8595    2.6854   11.5269 C   0  0  2  0  0  0  0  0  0  0  0  0
   49.4364    2.7495   11.8497 O   0  0  0  0  0  0  0  0  0  0  0  0
   51.3596    4.1251   11.2513 C   0  0  0  0  0  0  0  0  0  0  0  0
   51.2692    4.9339   12.4384 O   0  0  0  0  0  0  0  0  0  0  0  0
  1  2  1  6  0  0  0
  1  3  1  0  0  0  0
  1  4  2  0  0  0  0
  1 16  1  0  0  0  0
  5  6  1  1  0  0  0
  5  7  1  0  0  0  0
  5 14  1  0  0  0  0
  7  8  1  1  0  0  0
  7  9  1  0  0  0  0
  9 10  1  6  0  0  0
  9 11  1  0  0  0  0
 11 12  1  1  0  0  0
 11 13  1  0  0  0  0
 13 14  1  0  0  0  0
 13 15  1  6  0  0  0
 15 16  1  0  0  0  0
M  CHG  1   3  -1
M  END
>  <CHROM.1>
-174.29180350,179.13158048,66.44236768,50.85355066,3.25717895,11.51942123
1.15237833,0.70370133,0.46484995

>  <Name>
ligand

>  <RI>
0

>  <Rbt.Current_Directory>
/home/itssahil/PROJECTS/Mol_Feturizer/New_Systems/rnas/3B4C

>  <Rbt.Executable>
rbdock ($Id: //depot/dev/client3/rdock/2013.1/src/exe/rbdock.cxx#4 $)

>  <Rbt.Library>
libRbt.so (2013.1, Build901 2013/11/27)

>  <Rbt.Parameter_File>
/export/apps/rDock/src/rDock_2013.1_src/data/scripts/dock_solv.prm

>  <Rbt.Receptor>
prm/blind_docking_100.prm

>  <SCORE>
-13.003

>  <SCORE.INTER>
-11.5903

>  <SCORE.INTER.CONST>
1

>  <SCORE.INTER.POLAR>
-1.29904

>  <SCORE.INTER.ROT>
3

>  <SCORE.INTER.SOLV>
16.1529

>  <SCORE.INTER.VDW>
-14.381

>  <SCORE.INTER.norm>
-0.724394

>  <SCORE.INTRA>
-1.59817

>  <SCORE.INTRA.DIHEDRAL>
-1.93726

>  <SCORE.INTRA.DIHEDRAL.0>
2.1318

>  <SCORE.INTRA.POLAR>
0

>  <SCORE.INTRA.POLAR.0>
0

>  <SCORE.INTRA.REPUL>
0

>  <SCORE.INTRA.REPUL.0>
0

>  <SCORE.INTRA.SOLV>
-0.976437

>  <SCORE.INTRA.SOLV.lig_0>
-58.6125

>  <SCORE.INTRA.VDW>
-0.141325

>  <SCORE.INTRA.VDW.0>
-0.432734

>  <SCORE.INTRA.norm>
-0.0998859

>  <SCORE.RESTR>
0.185486

>  <SCORE.RESTR.CAVITY>
0.185486

>  <SCORE.RESTR.norm>
0.0115929

>  <SCORE.SYSTEM>
0

>  <SCORE.SYSTEM.CONST>
0

>  <SCORE.SYSTEM.DIHEDRAL>
0

>  <SCORE.SYSTEM.SOLV>
0

>  <SCORE.SYSTEM.norm>
0

>  <SCORE.heavy>
16

>  <SCORE.norm>
-0.812687

>  <RMSD>
10.236

$$$$
ligand
 OpenBabel11021811463D
libRbt.so/2013.1/901 2013/11/27
 16 16  0  0  0  0  0  0  0  0999 V2000
   52.7575    6.1093   12.3147 P   0  0  2  0  0  0  0  0  0  0  0  0
   52.5647    6.5303   13.7243 O   0  0  0  0  0  0  0  0  0  0  0  0
   54.2620    6.4460   11.8544 O   0  5  0  0  0  0  0  0  0  0  0  0
   51.7301    6.9257   11.3779 O   0  0  0  0  0  0  0  0  0  0  0  0
   49.0145    1.1321   11.9022 C   0  0  2  0  0  0  0  0  0  0  0  0
   49.6346    0.4119   12.9739 O   0  0  0  0  0  0  0  0  0  0  0  0
   49.4628    0.5658   10.5302 C   0  0  2  0  0  0  0  0  0  0  0  0
   49.1133   -0.8649   10.4429 N   0  0  0  0  0  0  0  0  0  0  0  0
   50.9848    0.7443   10.3999 C   0  0  1  0  0  0  0  0  0  0  0  0
   51.4324    0.2480    9.1355 O   0  0  0  0  0  0  0  0  0  0  0  0
   51.2926    2.2373   10.4997 C   0  0  2  0  0  0  0  0  0  0  0  0
   52.6973    2.4249   10.3838 O   0  0  0  0  0  0  0  0  0  0  0  0
   50.7968    2.7583   11.8762 C   0  0  2  0  0  0  0  0  0  0  0  0
   49.3576    2.5480   12.0097 O   0  0  0  0  0  0  0  0  0  0  0  0
   51.0811    4.2738   12.0217 C   0  0  0  0  0  0  0  0  0  0  0  0
   52.4901    4.5162   12.1875 O   0  0  0  0  0  0  0  0  0  0  0  0
  1  2  1  1  0  0  0
  1  3  1  0  0  0  0
  1  4  2  0  0  0  0
  1 16  1  0  0  0  0
  5  6  1  1  0  0  0
  5  7  1  0  0  0  0
  5 14  1  0  0  0  0
  7  8  1  1  0  0  0
  7  9  1  0  0  0  0
  9 10  1  6  0  0  0
  9 11  1  0  0  0  0
 11 12  1  1  0  0  0
 11 13  1  0  0  0  0
 13 14  1  0  0  0  0
 13 15  1  6  0  0  0
 15 16  1  0  0  0  0
M  CHG  1   3  -1
M  END
>  <CHROM.1>
-71.37749927,179.16384064,84.73110968,51.32903818,3.23167314,11.55655798
0.99225474,0.65509717,0.62359401

>  <Name>
ligand

>  <RI>
0

>  <Rbt.Current_Directory>
/home/itssahil/PROJECTS/Mol_Feturizer/New_Systems/rnas/3B4C

>  <Rbt.Executable>
rbdock ($Id: //depot/dev/client3/rdock/2013.1/src/exe/rbdock.cxx#4 $)

>  <Rbt.Library>
libRbt.so (2013.1, Build901 2013/11/27)

>  <Rbt.Parameter_File>
/export/apps/rDock/src/rDock_2013.1_src/data/scripts/dock_solv.prm

>  <Rbt.Receptor>
prm/blind_docking_100.prm

>  <SCORE>
-11.0837

>  <SCORE.INTER>
-10.4923

>  <SCORE.INTER.CONST>
1

>  <SCORE.INTER.POLAR>
-1.00382

>  <SCORE.INTER.ROT>
3

>  <SCORE.INTER.SOLV>
12.4279

>  <SCORE.INTER.VDW>
-13.3914

>  <SCORE.INTER.norm>
-0.65577

>  <SCORE.INTRA>
-0.591361

>  <SCORE.INTRA.DIHEDRAL>
-0.796517

>  <SCORE.INTRA.DIHEDRAL.0>
2.1318

>  <SCORE.INTRA.POLAR>
0

>  <SCORE.INTRA.POLAR.0>
0

>  <SCORE.INTRA.REPUL>
0

>  <SCORE.INTRA.REPUL.0>
0

>  <SCORE.INTRA.SOLV>
-0.431733

>  <SCORE.INTRA.SOLV.lig_0>
-58.6125

>  <SCORE.INTRA.VDW>
0.0227637

>  <SCORE.INTRA.VDW.0>
-0.432734

>  <SCORE.INTRA.norm>
-0.0369601

>  <SCORE.RESTR>
0

>  <SCORE.RESTR.CAVITY>
0

>  <SCORE.RESTR.norm>
0

>  <SCORE.SYSTEM>
0

>  <SCORE.SYSTEM.CONST>
0

>  <SCORE.SYSTEM.DIHEDRAL>
0

>  <SCORE.SYSTEM.SOLV>
0

>  <SCORE.SYSTEM.norm>
0

>  <SCORE.heavy>
16

>  <SCORE.norm>
-0.69273

>  <RMSD>
10.266

$$$$
ligand
 OpenBabel11021811463D
libRbt.so/2013.1/901 2013/11/27
 16 16  0  0  0  0  0  0  0  0999 V2000
   55.1445   10.1663   26.4487 P   0  0  2  0  0  0  0  0  0  0  0  0
   55.4788   10.8971   25.2014 O   0  0  0  0  0  0  0  0  0  0  0  0
   55.7470   10.9582   27.7131 O   0  5  0  0  0  0  0  0  0  0  0  0
   55.8060    8.6971   26.3894 O   0  0  0  0  0  0  0  0  0  0  0  0
   53.7433    9.3653   21.9246 C   0  0  2  0  0  0  0  0  0  0  0  0
   54.5524   10.5474   21.9261 O   0  0  0  0  0  0  0  0  0  0  0  0
   52.3208    9.6760   21.3918 C   0  0  2  0  0  0  0  0  0  0  0  0
   52.4090   10.2266   20.0258 N   0  0  0  0  0  0  0  0  0  0  0  0
   51.6587   10.6995   22.3296 C   0  0  1  0  0  0  0  0  0  0  0  0
   50.3349   10.9971   21.8779 O   0  0  0  0  0  0  0  0  0  0  0  0
   51.5947   10.0837   23.7262 C   0  0  2  0  0  0  0  0  0  0  0  0
   50.9871   11.0161   24.6112 O   0  0  0  0  0  0  0  0  0  0  0  0
   53.0397    9.7646   24.1978 C   0  0  2  0  0  0  0  0  0  0  0  0
   53.6767    8.8240   23.2798 O   0  0  0  0  0  0  0  0  0  0  0  0
   53.0259    9.1299   25.6104 C   0  0  0  0  0  0  0  0  0  0  0  0
   53.5344   10.0528   26.5908 O   0  0  0  0  0  0  0  0  0  0  0  0
  1  2  1  6  0  0  0
  1  3  1  0  0  0  0
  1  4  2  0  0  0  0
  1 16  1  0  0  0  0
  5  6  1  1  0  0  0
  5  7  1  0  0  0  0
  5 14  1  0  0  0  0
  7  8  1  6  0  0  0
  7  9  1  0  0  0  0
  9 10  1  6  0  0  0
  9 11  1  0  0  0  0
 11 12  1  1  0  0  0
 11 13  1  0  0  0  0
 13 14  1  0  0  0  0
 13 15  1  1  0  0  0
 15 16  1  0  0  0  0
M  CHG  1   3  -1
M  END
>  <CHROM.1>
-108.55827369,-74.38096900,71.02663379,53.48383449,10.08968269,24.19235966
-0.97481619,0.21007466,-1.66805175

>  <Name>
ligand

>  <RI>
0

>  <Rbt.Current_Directory>
/home/itssahil/PROJECTS/Mol_Feturizer/New_Systems/rnas/3B4C

>  <Rbt.Executable>
rbdock ($Id: //depot/dev/client3/rdock/2013.1/src/exe/rbdock.cxx#4 $)

>  <Rbt.Library>
libRbt.so (2013.1, Build901 2013/11/27)

>  <Rbt.Parameter_File>
/export/apps/rDock/src/rDock_2013.1_src/data/scripts/dock_solv.prm

>  <Rbt.Receptor>
prm/blind_docking_100.prm

>  <SCORE>
-7.26098

>  <SCORE.INTER>
-9.03444

>  <SCORE.INTER.CONST>
1

>  <SCORE.INTER.POLAR>
0

>  <SCORE.INTER.ROT>
3

>  <SCORE.INTER.SOLV>
22.201

>  <SCORE.INTER.VDW>
-19.0233

>  <SCORE.INTER.norm>
-0.564652

>  <SCORE.INTRA>
1.77346

>  <SCORE.INTRA.DIHEDRAL>
3.85365

>  <SCORE.INTRA.DIHEDRAL.0>
2.1318

>  <SCORE.INTRA.POLAR>
0

>  <SCORE.INTRA.POLAR.0>
0

>  <SCORE.INTRA.REPUL>
0

>  <SCORE.INTRA.REPUL.0>
0

>  <SCORE.INTRA.SOLV>
0.535255

>  <SCORE.INTRA.SOLV.lig_0>
-58.6125

>  <SCORE.INTRA.VDW>
-0.420993

>  <SCORE.INTRA.VDW.0>
-0.432734

>  <SCORE.INTRA.norm>
0.110841

>  <SCORE.RESTR>
0

>  <SCORE.RESTR.CAVITY>
0

>  <SCORE.RESTR.norm>
0

>  <SCORE.SYSTEM>
0

>  <SCORE.SYSTEM.CONST>
0

>  <SCORE.SYSTEM.DIHEDRAL>
0

>  <SCORE.SYSTEM.SOLV>
0

>  <SCORE.SYSTEM.norm>
0

>  <SCORE.heavy>
16

>  <SCORE.norm>
-0.453811

>  <RMSD>
10.283

$$$$
ligand
 OpenBabel11021811463D
libRbt.so/2013.1/901 2013/11/27
 16 16  0  0  0  0  0  0  0  0999 V2000
   48.9062    1.0121   11.7861 P   0  0  2  0  0  0  0  0  0  0  0  0
   49.5719    0.4379   12.9813 O   0  0  0  0  0  0  0  0  0  0  0  0
   47.3124    1.0114   12.0066 O   0  5  0  0  0  0  0  0  0  0  0  0
   49.2559    0.1016   10.5023 O   0  0  0  0  0  0  0  0  0  0  0  0
   51.5065    5.9233   12.6810 C   0  0  2  0  0  0  0  0  0  0  0  0
   50.9624    6.7291   11.6291 O   0  0  0  0  0  0  0  0  0  0  0  0
   53.0562    5.9335   12.6331 C   0  0  2  0  0  0  0  0  0  0  0  0
   53.5498    7.3186   12.7543 N   0  0  0  0  0  0  0  0  0  0  0  0
   53.5092    5.3291   11.2934 C   0  0  1  0  0  0  0  0  0  0  0  0
   54.9373    5.3058   11.2215 O   0  0  0  0  0  0  0  0  0  0  0  0
   52.9715    3.9012   11.2170 C   0  0  2  0  0  0  0  0  0  0  0  0
   53.3775    3.3236    9.9827 O   0  0  0  0  0  0  0  0  0  0  0  0
   51.4212    3.9465   11.3000 C   0  0  2  0  0  0  0  0  0  0  0  0
   50.9983    4.5593   12.5566 O   0  0  0  0  0  0  0  0  0  0  0  0
   50.8283    2.5173   11.2336 C   0  0  0  0  0  0  0  0  0  0  0  0
   49.4261    2.5298   11.5576 O   0  0  0  0  0  0  0  0  0  0  0  0
  1  2  1  1  0  0  0
  1  3  1  0  0  0  0
  1  4  2  0  0  0  0
  1 16  1  0  0  0  0
  5  6  1  6  0  0  0
  5  7  1  0  0  0  0
  5 14  1  0  0  0  0
  7  8  1  6  0  0  0
  7  9  1  0  0  0  0
  9 10  1  1  0  0  0
  9 11  1  0  0  0  0
 11 12  1  6  0  0  0
 11 13  1  0  0  0  0
 13 14  1  0  0  0  0
 13 15  1  1  0  0  0
 15 16  1  0  0  0  0
M  CHG  1   3  -1
M  END
>  <CHROM.1>
169.29601398,-168.16538186,65.32453316,51.12336729,3.48690047,11.70169537
2.36799485,-0.37690669,-2.76319721

>  <Name>
ligand

>  <RI>
0

>  <Rbt.Current_Directory>
/home/itssahil/PROJECTS/Mol_Feturizer/New_Systems/rnas/3B4C

>  <Rbt.Executable>
rbdock ($Id: //depot/dev/client3/rdock/2013.1/src/exe/rbdock.cxx#4 $)

>  <Rbt.Library>
libRbt.so (2013.1, Build901 2013/11/27)

>  <Rbt.Parameter_File>
/export/apps/rDock/src/rDock_2013.1_src/data/scripts/dock_solv.prm

>  <Rbt.Receptor>
prm/blind_docking_60.prm

>  <SCORE>
-10.8695

>  <SCORE.INTER>
-9.77851

>  <SCORE.INTER.CONST>
1

>  <SCORE.INTER.POLAR>
-1.01216

>  <SCORE.INTER.ROT>
3

>  <SCORE.INTER.SOLV>
18.8526

>  <SCORE.INTER.VDW>
-15.0293

>  <SCORE.INTER.norm>
-0.611157

>  <SCORE.INTRA>
-1.09101

>  <SCORE.INTRA.DIHEDRAL>
-1.01192

>  <SCORE.INTRA.DIHEDRAL.0>
2.1318

>  <SCORE.INTRA.POLAR>
0

>  <SCORE.INTRA.POLAR.0>
0

>  <SCORE.INTRA.REPUL>
0

>  <SCORE.INTRA.REPUL.0>
0

>  <SCORE.INTRA.SOLV>
-0.910745

>  <SCORE.INTRA.SOLV.lig_0>
-58.6125

>  <SCORE.INTRA.VDW>
-0.129679

>  <SCORE.INTRA.VDW.0>
-0.432734

>  <SCORE.INTRA.norm>
-0.0681883

>  <SCORE.RESTR>
0

>  <SCORE.RESTR.CAVITY>
0

>  <SCORE.RESTR.norm>
0

>  <SCORE.SYSTEM>
0

>  <SCORE.SYSTEM.CONST>
0

>  <SCORE.SYSTEM.DIHEDRAL>
0

>  <SCORE.SYSTEM.SOLV>
0

>  <SCORE.SYSTEM.norm>
0

>  <SCORE.heavy>
16

>  <SCORE.norm>
-0.679345

>  <RMSD>
10.368

$$$$
ligand
 OpenBabel11021811463D
libRbt.so/2013.1/901 2013/11/27
 16 16  0  0  0  0  0  0  0  0999 V2000
   55.7266   10.1898   26.9344 P   0  0  2  0  0  0  0  0  0  0  0  0
   55.2457   11.5587   27.2448 O   0  0  0  0  0  0  0  0  0  0  0  0
   56.6248    9.6465   28.1538 O   0  5  0  0  0  0  0  0  0  0  0  0
   56.6323   10.2414   25.6015 O   0  0  0  0  0  0  0  0  0  0  0  0
   53.1180    9.4591   22.0385 C   0  0  2  0  0  0  0  0  0  0  0  0
   53.8434   10.6690   21.7900 O   0  0  0  0  0  0  0  0  0  0  0  0
   51.6517    9.7710   22.4340 C   0  0  2  0  0  0  0  0  0  0  0  0
   50.9967   10.5376   21.3569 N   0  0  0  0  0  0  0  0  0  0  0  0
   51.6588   10.5922   23.7345 C   0  0  1  0  0  0  0  0  0  0  0  0
   50.3188   10.8836   24.1402 O   0  0  0  0  0  0  0  0  0  0  0  0
   52.3481    9.7577   24.8127 C   0  0  2  0  0  0  0  0  0  0  0  0
   52.3677   10.5006   26.0249 O   0  0  0  0  0  0  0  0  0  0  0  0
   53.7991    9.4486   24.3532 C   0  0  2  0  0  0  0  0  0  0  0  0
   53.7854    8.7045   23.0964 O   0  0  0  0  0  0  0  0  0  0  0  0
   54.5382    8.5957   25.4138 C   0  0  0  0  0  0  0  0  0  0  0  0
   54.4550    9.2102   26.7127 O   0  0  0  0  0  0  0  0  0  0  0  0
  1  2  1  1  0  0  0
  1  3  1  0  0  0  0
  1  4  2  0  0  0  0
  1 16  1  0  0  0  0
  5  6  1  1  0  0  0
  5  7  1  0  0  0  0
  5 14  1  0  0  0  0
  7  8  1  6  0  0  0
  7  9  1  0  0  0  0
  9 10  1  1  0  0  0
  9 11  1  0  0  0  0
 11 12  1  1  0  0  0
 11 13  1  0  0  0  0
 13 14  1  0  0  0  0
 13 15  1  1  0  0  0
 15 16  1  0  0  0  0
M  CHG  1   3  -1
M  END
>  <CHROM.1>
-52.58750625,-91.02861455,123.45884400,53.77260802,10.01465853,24.83984185
-0.81948286,0.23477848,-1.76164103

>  <Name>
ligand

>  <RI>
0

>  <Rbt.Current_Directory>
/home/itssahil/PROJECTS/Mol_Feturizer/New_Systems/rnas/3B4C

>  <Rbt.Executable>
rbdock ($Id: //depot/dev/client3/rdock/2013.1/src/exe/rbdock.cxx#4 $)

>  <Rbt.Library>
libRbt.so (2013.1, Build901 2013/11/27)

>  <Rbt.Parameter_File>
/export/apps/rDock/src/rDock_2013.1_src/data/scripts/dock_solv.prm

>  <Rbt.Receptor>
prm/blind_docking_80.prm

>  <SCORE>
-3.32689

>  <SCORE.INTER>
-6.91213

>  <SCORE.INTER.CONST>
1

>  <SCORE.INTER.POLAR>
0

>  <SCORE.INTER.ROT>
3

>  <SCORE.INTER.SOLV>
22.1166

>  <SCORE.INTER.VDW>
-17.5803

>  <SCORE.INTER.norm>
-0.432008

>  <SCORE.INTRA>
3.58524

>  <SCORE.INTRA.DIHEDRAL>
4.24242

>  <SCORE.INTRA.DIHEDRAL.0>
2.1318

>  <SCORE.INTRA.POLAR>
0

>  <SCORE.INTRA.POLAR.0>
0

>  <SCORE.INTRA.REPUL>
0

>  <SCORE.INTRA.REPUL.0>
0

>  <SCORE.INTRA.SOLV>
1.5276

>  <SCORE.INTRA.SOLV.lig_0>
-58.6125

>  <SCORE.INTRA.VDW>
0.700233

>  <SCORE.INTRA.VDW.0>
-0.432734

>  <SCORE.INTRA.norm>
0.224078

>  <SCORE.RESTR>
0

>  <SCORE.RESTR.CAVITY>
0

>  <SCORE.RESTR.norm>
0

>  <SCORE.SYSTEM>
0

>  <SCORE.SYSTEM.CONST>
0

>  <SCORE.SYSTEM.DIHEDRAL>
0

>  <SCORE.SYSTEM.SOLV>
0

>  <SCORE.SYSTEM.norm>
0

>  <SCORE.heavy>
16

>  <SCORE.norm>
-0.20793

>  <RMSD>
10.862

$$$$
ligand
 OpenBabel11021811463D
libRbt.so/2013.1/901 2013/11/27
 16 16  0  0  0  0  0  0  0  0999 V2000
   55.9299    7.1201   12.4476 P   0  0  2  0  0  0  0  0  0  0  0  0
   57.1076    6.3110   12.8472 O   0  0  0  0  0  0  0  0  0  0  0  0
   56.3507    8.1389   11.2755 O   0  5  0  0  0  0  0  0  0  0  0  0
   55.4207    7.9698   13.7198 O   0  0  0  0  0  0  0  0  0  0  0  0
   52.0602    3.5204    9.9223 C   0  0  2  0  0  0  0  0  0  0  0  0
   52.1053    2.6339   11.0466 O   0  0  0  0  0  0  0  0  0  0  0  0
   52.5211    2.7934    8.6328 C   0  0  2  0  0  0  0  0  0  0  0  0
   51.6583    1.6226    8.3847 N   0  0  0  0  0  0  0  0  0  0  0  0
   53.9795    2.3419    8.8192 C   0  0  1  0  0  0  0  0  0  0  0  0
   54.4452    1.6815    7.6393 O   0  0  0  0  0  0  0  0  0  0  0  0
   54.8272    3.5868    9.0751 C   0  0  2  0  0  0  0  0  0  0  0  0
   56.1813    3.1910    9.2530 O   0  0  0  0  0  0  0  0  0  0  0  0
   54.3049    4.2915   10.3568 C   0  0  2  0  0  0  0  0  0  0  0  0
   52.9073    4.6806   10.1879 O   0  0  0  0  0  0  0  0  0  0  0  0
   55.1311    5.5673   10.6543 C   0  0  0  0  0  0  0  0  0  0  0  0
   54.7546    6.1364   11.9215 O   0  0  0  0  0  0  0  0  0  0  0  0
  1  2  1  1  0  0  0
  1  3  1  0  0  0  0
  1  4  2  0  0  0  0
  1 16  1  0  0  0  0
  5  6  1  1  0  0  0
  5  7  1  0  0  0  0
  5 14  1  0  0  0  0
  7  8  1  1  0  0  0
  7  9  1  0  0  0  0
  9 10  1  6  0  0  0
  9 11  1  0  0  0  0
 11 12  1  1  0  0  0
 11 13  1  0  0  0  0
 13 14  1  0  0  0  0
 13 15  1  6  0  0  0
 15 16  1  0  0  0  0
M  CHG  1   3  -1
M  END
>  <CHROM.1>
-173.27548334,160.50708093,-70.41536313,54.51237062,4.71435158,10.58324050
1.10870862,0.24826578,0.76572263

>  <Name>
ligand

>  <RI>
0

>  <Rbt.Current_Directory>
/home/itssahil/PROJECTS/Mol_Feturizer/New_Systems/rnas/3B4C

>  <Rbt.Executable>
rbdock ($Id: //depot/dev/client3/rdock/2013.1/src/exe/rbdock.cxx#4 $)

>  <Rbt.Library>
libRbt.so (2013.1, Build901 2013/11/27)

>  <Rbt.Parameter_File>
/export/apps/rDock/src/rDock_2013.1_src/data/scripts/dock_solv.prm

>  <Rbt.Receptor>
prm/blind_docking_60.prm

>  <SCORE>
-8.27179

>  <SCORE.INTER>
-7.62771

>  <SCORE.INTER.CONST>
1

>  <SCORE.INTER.POLAR>
-1.29729

>  <SCORE.INTER.ROT>
3

>  <SCORE.INTER.SOLV>
15.8255

>  <SCORE.INTER.VDW>
-11.636

>  <SCORE.INTER.norm>
-0.476732

>  <SCORE.INTRA>
-0.654873

>  <SCORE.INTRA.DIHEDRAL>
-0.0762646

>  <SCORE.INTRA.DIHEDRAL.0>
2.1318

>  <SCORE.INTRA.POLAR>
0

>  <SCORE.INTRA.POLAR.0>
0

>  <SCORE.INTRA.REPUL>
0

>  <SCORE.INTRA.REPUL.0>
0

>  <SCORE.INTRA.SOLV>
-1.0246

>  <SCORE.INTRA.SOLV.lig_0>
-58.6125

>  <SCORE.INTRA.VDW>
-0.104441

>  <SCORE.INTRA.VDW.0>
-0.432734

>  <SCORE.INTRA.norm>
-0.0409296

>  <SCORE.RESTR>
0.010788

>  <SCORE.RESTR.CAVITY>
0.010788

>  <SCORE.RESTR.norm>
0.000674252

>  <SCORE.SYSTEM>
0

>  <SCORE.SYSTEM.CONST>
0

>  <SCORE.SYSTEM.DIHEDRAL>
0

>  <SCORE.SYSTEM.SOLV>
0

>  <SCORE.SYSTEM.norm>
0

>  <SCORE.heavy>
16

>  <SCORE.norm>
-0.516987

>  <RMSD>
10.892

$$$$
ligand
 OpenBabel11021811463D
libRbt.so/2013.1/901 2013/11/27
 16 16  0  0  0  0  0  0  0  0999 V2000
   53.1586   10.0513   28.2698 P   0  0  2  0  0  0  0  0  0  0  0  0
   53.0253   11.2096   29.1873 O   0  0  0  0  0  0  0  0  0  0  0  0
   52.1225    8.8996   28.7044 O   0  5  0  0  0  0  0  0  0  0  0  0
   54.6588    9.4698   28.3731 O   0  0  0  0  0  0  0  0  0  0  0  0
   53.6780    9.3470   22.1139 C   0  0  2  0  0  0  0  0  0  0  0  0
   54.4714   10.5298   21.9611 O   0  0  0  0  0  0  0  0  0  0  0  0
   52.2266    9.5944   21.6280 C   0  0  2  0  0  0  0  0  0  0  0  0
   52.2388   10.0122   20.2130 N   0  0  0  0  0  0  0  0  0  0  0  0
   51.6002   10.6981   22.4969 C   0  0  1  0  0  0  0  0  0  0  0  0
   50.2516   10.9410   22.0878 O   0  0  0  0  0  0  0  0  0  0  0  0
   51.6146   10.2184   23.9473 C   0  0  2  0  0  0  0  0  0  0  0  0
   51.0409   11.2267   24.7695 O   0  0  0  0  0  0  0  0  0  0  0  0
   53.0854    9.9568   24.3720 C   0  0  2  0  0  0  0  0  0  0  0  0
   53.6868    8.9374   23.5161 O   0  0  0  0  0  0  0  0  0  0  0  0
   53.1510    9.4602   25.8375 C   0  0  0  0  0  0  0  0  0  0  0  0
   52.8431   10.5270   26.7532 O   0  0  0  0  0  0  0  0  0  0  0  0
  1  2  1  1  0  0  0
  1  3  1  0  0  0  0
  1  4  2  0  0  0  0
  1 16  1  0  0  0  0
  5  6  1  1  0  0  0
  5  7  1  0  0  0  0
  5 14  1  0  0  0  0
  7  8  1  6  0  0  0
  7  9  1  0  0  0  0
  9 10  1  6  0  0  0
  9 11  1  0  0  0  0
 11 12  1  1  0  0  0
 11 13  1  0  0  0  0
 13 14  1  0  0  0  0
 13 15  1  1  0  0  0
 15 16  1  0  0  0  0
M  CHG  1   3  -1
M  END
>  <CHROM.1>
-71.40677666,-170.60168429,172.00413975,52.72068128,10.07785804,24.98282597
-1.43411310,0.38828697,-1.60081890

>  <Name>
ligand

>  <RI>
0

>  <Rbt.Current_Directory>
/home/itssahil/PROJECTS/Mol_Feturizer/New_Systems/rnas/3B4C

>  <Rbt.Executable>
rbdock ($Id: //depot/dev/client3/rdock/2013.1/src/exe/rbdock.cxx#4 $)

>  <Rbt.Library>
libRbt.so (2013.1, Build901 2013/11/27)

>  <Rbt.Parameter_File>
/export/apps/rDock/src/rDock_2013.1_src/data/scripts/dock_solv.prm

>  <Rbt.Receptor>
prm/blind_docking_80.prm

>  <SCORE>
-7.26958

>  <SCORE.INTER>
-6.36181

>  <SCORE.INTER.CONST>
1

>  <SCORE.INTER.POLAR>
0

>  <SCORE.INTER.ROT>
3

>  <SCORE.INTER.SOLV>
17.8075

>  <SCORE.INTER.VDW>
-15.7771

>  <SCORE.INTER.norm>
-0.397613

>  <SCORE.INTRA>
-0.90777

>  <SCORE.INTRA.DIHEDRAL>
-1.14772

>  <SCORE.INTRA.DIHEDRAL.0>
2.1318

>  <SCORE.INTRA.POLAR>
0

>  <SCORE.INTRA.POLAR.0>
0

>  <SCORE.INTRA.REPUL>
0

>  <SCORE.INTRA.REPUL.0>
0

>  <SCORE.INTRA.SOLV>
-0.121147

>  <SCORE.INTRA.SOLV.lig_0>
-58.6125

>  <SCORE.INTRA.VDW>
-0.273336

>  <SCORE.INTRA.VDW.0>
-0.432734

>  <SCORE.INTRA.norm>
-0.0567356

>  <SCORE.RESTR>
0

>  <SCORE.RESTR.CAVITY>
0

>  <SCORE.RESTR.norm>
0

>  <SCORE.SYSTEM>
0

>  <SCORE.SYSTEM.CONST>
0

>  <SCORE.SYSTEM.DIHEDRAL>
0

>  <SCORE.SYSTEM.SOLV>
0

>  <SCORE.SYSTEM.norm>
0

>  <SCORE.heavy>
16

>  <SCORE.norm>
-0.454349

>  <RMSD>
10.910

$$$$
ligand
 OpenBabel11021811463D
libRbt.so/2013.1/901 2013/11/27
 16 16  0  0  0  0  0  0  0  0999 V2000
   50.4874   11.4329   28.2675 P   0  0  2  0  0  0  0  0  0  0  0  0
   49.1528   11.7529   28.8311 O   0  0  0  0  0  0  0  0  0  0  0  0
   50.9771   10.0048   28.8238 O   0  5  0  0  0  0  0  0  0  0  0  0
   51.5387   12.5630   28.7335 O   0  0  0  0  0  0  0  0  0  0  0  0
   51.0126   11.1311   22.3963 C   0  0  2  0  0  0  0  0  0  0  0  0
   49.9440   10.1785   22.3473 O   0  0  0  0  0  0  0  0  0  0  0  0
   52.3305   10.5031   21.8739 C   0  0  2  0  0  0  0  0  0  0  0  0
   52.1426   10.0291   20.4894 N   0  0  0  0  0  0  0  0  0  0  0  0
   52.7073    9.3242   22.7869 C   0  0  1  0  0  0  0  0  0  0  0  0
   53.9308    8.7304   22.3446 O   0  0  0  0  0  0  0  0  0  0  0  0
   52.8867    9.8665   24.2038 C   0  0  2  0  0  0  0  0  0  0  0  0
   53.2337    8.7906   25.0662 O   0  0  0  0  0  0  0  0  0  0  0  0
   51.5504   10.5098   24.6649 C   0  0  2  0  0  0  0  0  0  0  0  0
   51.1775   11.6017   23.7694 O   0  0  0  0  0  0  0  0  0  0  0  0
   51.6851   11.0821   26.0977 C   0  0  0  0  0  0  0  0  0  0  0  0
   50.3916   11.3865   26.6506 O   0  0  0  0  0  0  0  0  0  0  0  0
  1  2  1  1  0  0  0
  1  3  1  0  0  0  0
  1  4  2  0  0  0  0
  1 16  1  0  0  0  0
  5  6  1  1  0  0  0
  5  7  1  0  0  0  0
  5 14  1  0  0  0  0
  7  8  1  6  0  0  0
  7  9  1  0  0  0  0
  9 10  1  6  0  0  0
  9 11  1  0  0  0  0
 11 12  1  1  0  0  0
 11 13  1  0  0  0  0
 13 14  1  0  0  0  0
 13 15  1  1  0  0  0
 15 16  1  0  0  0  0
M  CHG  1   3  -1
M  END
>  <CHROM.1>
-166.24745250,158.55865111,179.75093049,51.47092153,10.62466190,25.16005022
1.90830078,-0.63180578,1.52384712

>  <Name>
ligand

>  <RI>
0

>  <Rbt.Current_Directory>
/home/itssahil/PROJECTS/Mol_Feturizer/New_Systems/rnas/3B4C

>  <Rbt.Executable>
rbdock ($Id: //depot/dev/client3/rdock/2013.1/src/exe/rbdock.cxx#4 $)

>  <Rbt.Library>
libRbt.so (2013.1, Build901 2013/11/27)

>  <Rbt.Parameter_File>
/export/apps/rDock/src/rDock_2013.1_src/data/scripts/dock_solv.prm

>  <Rbt.Receptor>
prm/blind_docking_80.prm

>  <SCORE>
-1.65281

>  <SCORE.INTER>
-1.41686

>  <SCORE.INTER.CONST>
1

>  <SCORE.INTER.POLAR>
0

>  <SCORE.INTER.ROT>
3

>  <SCORE.INTER.SOLV>
23.0368

>  <SCORE.INTER.VDW>
-14.2235

>  <SCORE.INTER.norm>
-0.0885537

>  <SCORE.INTRA>
-0.23595

>  <SCORE.INTRA.DIHEDRAL>
0.569884

>  <SCORE.INTRA.DIHEDRAL.0>
2.1318

>  <SCORE.INTRA.POLAR>
0

>  <SCORE.INTRA.POLAR.0>
0

>  <SCORE.INTRA.REPUL>
0

>  <SCORE.INTRA.REPUL.0>
0

>  <SCORE.INTRA.SOLV>
-0.395824

>  <SCORE.INTRA.SOLV.lig_0>
-58.6125

>  <SCORE.INTRA.VDW>
-0.32298

>  <SCORE.INTRA.VDW.0>
-0.432734

>  <SCORE.INTRA.norm>
-0.0147469

>  <SCORE.RESTR>
0

>  <SCORE.RESTR.CAVITY>
0

>  <SCORE.RESTR.norm>
0

>  <SCORE.SYSTEM>
0

>  <SCORE.SYSTEM.CONST>
0

>  <SCORE.SYSTEM.DIHEDRAL>
0

>  <SCORE.SYSTEM.SOLV>
0

>  <SCORE.SYSTEM.norm>
0

>  <SCORE.heavy>
16

>  <SCORE.norm>
-0.103301

>  <RMSD>
10.985

$$$$
ligand
 OpenBabel11021811463D
libRbt.so/2013.1/901 2013/11/27
 16 16  0  0  0  0  0  0  0  0999 V2000
   51.1868   10.0519   22.4578 P   0  0  2  0  0  0  0  0  0  0  0  0
   50.4074   11.3059   22.3119 O   0  0  0  0  0  0  0  0  0  0  0  0
   51.9619    9.7382   21.0831 O   0  5  0  0  0  0  0  0  0  0  0  0
   50.1738    8.8382   22.7744 O   0  0  0  0  0  0  0  0  0  0  0  0
   55.8986   10.5294   25.8067 C   0  0  2  0  0  0  0  0  0  0  0  0
   56.8084    9.4233   25.7796 O   0  0  0  0  0  0  0  0  0  0  0  0
   55.1707   10.6064   27.1735 C   0  0  2  0  0  0  0  0  0  0  0  0
   56.1607   10.7431   28.2589 N   0  0  0  0  0  0  0  0  0  0  0  0
   54.3530    9.3182   27.3666 C   0  0  1  0  0  0  0  0  0  0  0  0
   53.6519    9.3620   28.6123 O   0  0  0  0  0  0  0  0  0  0  0  0
   53.3487    9.2233   26.2193 C   0  0  2  0  0  0  0  0  0  0  0  0
   52.5825    8.0360   26.3775 O   0  0  0  0  0  0  0  0  0  0  0  0
   54.1276    9.1803   24.8764 C   0  0  2  0  0  0  0  0  0  0  0  0
   54.9339   10.3880   24.7188 O   0  0  0  0  0  0  0  0  0  0  0  0
   53.1488    9.0910   23.6795 C   0  0  0  0  0  0  0  0  0  0  0  0
   52.2568   10.2204   23.6629 O   0  0  0  0  0  0  0  0  0  0  0  0
  1  2  1  6  0  0  0
  1  3  1  0  0  0  0
  1  4  2  0  0  0  0
  1 16  1  0  0  0  0
  5  6  1  1  0  0  0
  5  7  1  0  0  0  0
  5 14  1  0  0  0  0
  7  8  1  1  0  0  0
  7  9  1  0  0  0  0
  9 10  1  1  0  0  0
  9 11  1  0  0  0  0
 11 12  1  1  0  0  0
 11 13  1  0  0  0  0
 13 14  1  0  0  0  0
 13 15  1  6  0  0  0
 15 16  1  0  0  0  0
M  CHG  1   3  -1
M  END
>  <CHROM.1>
59.18437638,-176.44999870,-171.37243861,53.29137045,9.76750182,24.83096806
-2.30985507,0.27124526,1.82856223

>  <Name>
ligand

>  <RI>
0

>  <Rbt.Current_Directory>
/home/itssahil/PROJECTS/Mol_Feturizer/New_Systems/rnas/3B4C

>  <Rbt.Executable>
rbdock ($Id: //depot/dev/client3/rdock/2013.1/src/exe/rbdock.cxx#4 $)

>  <Rbt.Library>
libRbt.so (2013.1, Build901 2013/11/27)

>  <Rbt.Parameter_File>
/export/apps/rDock/src/rDock_2013.1_src/data/scripts/dock_solv.prm

>  <Rbt.Receptor>
prm/blind_docking_100.prm

>  <SCORE>
-12.3177

>  <SCORE.INTER>
-10.9403

>  <SCORE.INTER.CONST>
1

>  <SCORE.INTER.POLAR>
0

>  <SCORE.INTER.ROT>
3

>  <SCORE.INTER.SOLV>
26.4703

>  <SCORE.INTER.VDW>
-21.717

>  <SCORE.INTER.norm>
-0.68377

>  <SCORE.INTRA>
-1.37736

>  <SCORE.INTRA.DIHEDRAL>
-1.94229

>  <SCORE.INTRA.DIHEDRAL.0>
2.1318

>  <SCORE.INTRA.POLAR>
0

>  <SCORE.INTRA.POLAR.0>
0

>  <SCORE.INTRA.REPUL>
0

>  <SCORE.INTRA.REPUL.0>
0

>  <SCORE.INTRA.SOLV>
-0.165691

>  <SCORE.INTRA.SOLV.lig_0>
-58.6125

>  <SCORE.INTRA.VDW>
-0.323364

>  <SCORE.INTRA.VDW.0>
-0.432734

>  <SCORE.INTRA.norm>
-0.0860847

>  <SCORE.RESTR>
0

>  <SCORE.RESTR.CAVITY>
0

>  <SCORE.RESTR.norm>
0

>  <SCORE.SYSTEM>
0

>  <SCORE.SYSTEM.CONST>
0

>  <SCORE.SYSTEM.DIHEDRAL>
0

>  <SCORE.SYSTEM.SOLV>
0

>  <SCORE.SYSTEM.norm>
0

>  <SCORE.heavy>
16

>  <SCORE.norm>
-0.769854

>  <RMSD>
11.958

$$$$
ligand
 OpenBabel11021811463D
libRbt.so/2013.1/901 2013/11/27
 16 16  0  0  0  0  0  0  0  0999 V2000
   50.7036    9.9461   22.6213 P   0  0  2  0  0  0  0  0  0  0  0  0
   51.5681    9.8570   21.4189 O   0  0  0  0  0  0  0  0  0  0  0  0
   50.0478    8.5074   22.9194 O   0  5  0  0  0  0  0  0  0  0  0  0
   49.5242   11.0095   22.3422 O   0  0  0  0  0  0  0  0  0  0  0  0
   53.7016    9.6833   27.6069 C   0  0  2  0  0  0  0  0  0  0  0  0
   53.6693   11.0984   27.8269 O   0  0  0  0  0  0  0  0  0  0  0  0
   55.1641    9.1741   27.5310 C   0  0  2  0  0  0  0  0  0  0  0  0
   55.8729    9.5046   28.7821 N   0  0  0  0  0  0  0  0  0  0  0  0
   55.8582    9.8528   26.3381 C   0  0  1  0  0  0  0  0  0  0  0  0
   57.2074    9.3921   26.2262 O   0  0  0  0  0  0  0  0  0  0  0  0
   55.0862    9.4823   25.0730 C   0  0  2  0  0  0  0  0  0  0  0  0
   55.7109   10.1026   23.9563 O   0  0  0  0  0  0  0  0  0  0  0  0
   53.6243    9.9871   25.2145 C   0  0  2  0  0  0  0  0  0  0  0  0
   52.9845    9.3699   26.3734 O   0  0  0  0  0  0  0  0  0  0  0  0
   52.7975    9.6275   23.9552 C   0  0  0  0  0  0  0  0  0  0  0  0
   51.5945   10.4148   23.8911 O   0  0  0  0  0  0  0  0  0  0  0  0
  1  2  1  6  0  0  0
  1  3  1  0  0  0  0
  1  4  2  0  0  0  0
  1 16  1  0  0  0  0
  5  6  1  6  0  0  0
  5  7  1  0  0  0  0
  5 14  1  0  0  0  0
  7  8  1  1  0  0  0
  7  9  1  0  0  0  0
  9 10  1  6  0  0  0
  9 11  1  0  0  0  0
 11 12  1  6  0  0  0
 11 13  1  0  0  0  0
 13 14  1  0  0  0  0
 13 15  1  6  0  0  0
 15 16  1  0  0  0  0
M  CHG  1   3  -1
M  END
>  <CHROM.1>
-162.73555582,-176.15533870,-47.90308227,53.19430285,9.83536768,24.88879282
2.39354239,0.08785249,-1.61323928

>  <Name>
ligand

>  <RI>
0

>  <Rbt.Current_Directory>
/home/itssahil/PROJECTS/Mol_Feturizer/New_Systems/rnas/3B4C

>  <Rbt.Executable>
rbdock ($Id: //depot/dev/client3/rdock/2013.1/src/exe/rbdock.cxx#4 $)

>  <Rbt.Library>
libRbt.so (2013.1, Build901 2013/11/27)

>  <Rbt.Parameter_File>
/export/apps/rDock/src/rDock_2013.1_src/data/scripts/dock_solv.prm

>  <Rbt.Receptor>
prm/blind_docking_80.prm

>  <SCORE>
-11.9744

>  <SCORE.INTER>
-11.0344

>  <SCORE.INTER.CONST>
1

>  <SCORE.INTER.POLAR>
0

>  <SCORE.INTER.ROT>
3

>  <SCORE.INTER.SOLV>
25.6178

>  <SCORE.INTER.VDW>
-21.4955

>  <SCORE.INTER.norm>
-0.689651

>  <SCORE.INTRA>
-0.93997

>  <SCORE.INTRA.DIHEDRAL>
-0.809288

>  <SCORE.INTRA.DIHEDRAL.0>
2.1318

>  <SCORE.INTRA.POLAR>
0

>  <SCORE.INTRA.POLAR.0>
0

>  <SCORE.INTRA.REPUL>
0

>  <SCORE.INTRA.REPUL.0>
0

>  <SCORE.INTRA.SOLV>
-1.14978

>  <SCORE.INTRA.SOLV.lig_0>
-58.6125

>  <SCORE.INTRA.VDW>
0.0395668

>  <SCORE.INTRA.VDW.0>
-0.432734

>  <SCORE.INTRA.norm>
-0.0587481

>  <SCORE.RESTR>
0

>  <SCORE.RESTR.CAVITY>
0

>  <SCORE.RESTR.norm>
0

>  <SCORE.SYSTEM>
0

>  <SCORE.SYSTEM.CONST>
0

>  <SCORE.SYSTEM.DIHEDRAL>
0

>  <SCORE.SYSTEM.SOLV>
0

>  <SCORE.SYSTEM.norm>
0

>  <SCORE.heavy>
16

>  <SCORE.norm>
-0.748399

>  <RMSD>
11.993

$$$$
ligand
 OpenBabel11021811463D
libRbt.so/2013.1/901 2013/11/27
 16 16  0  0  0  0  0  0  0  0999 V2000
   50.7859    9.9185   22.6891 P   0  0  2  0  0  0  0  0  0  0  0  0
   50.1539    8.5982   22.9314 O   0  0  0  0  0  0  0  0  0  0  0  0
   49.6464   11.0101   22.3749 O   0  5  0  0  0  0  0  0  0  0  0  0
   51.7658    9.8050   21.4137 O   0  0  0  0  0  0  0  0  0  0  0  0
   53.6199    9.8158   27.7875 C   0  0  2  0  0  0  0  0  0  0  0  0
   53.6735   11.2424   27.9046 O   0  0  0  0  0  0  0  0  0  0  0  0
   55.0480    9.2120   27.7905 C   0  0  2  0  0  0  0  0  0  0  0  0
   55.7460    9.5884   29.0346 N   0  0  0  0  0  0  0  0  0  0  0  0
   55.8131    9.7569   26.5726 C   0  0  1  0  0  0  0  0  0  0  0  0
   57.1322    9.2058   26.5329 O   0  0  0  0  0  0  0  0  0  0  0  0
   55.0497    9.3437   25.3155 C   0  0  2  0  0  0  0  0  0  0  0  0
   55.7400    9.8402   24.1758 O   0  0  0  0  0  0  0  0  0  0  0  0
   53.6203    9.9478   25.3782 C   0  0  2  0  0  0  0  0  0  0  0  0
   52.9142    9.4583   26.5594 O   0  0  0  0  0  0  0  0  0  0  0  0
   52.8030    9.5492   24.1246 C   0  0  0  0  0  0  0  0  0  0  0  0
   51.6227   10.3639   24.0032 O   0  0  0  0  0  0  0  0  0  0  0  0
  1  2  1  1  0  0  0
  1  3  1  0  0  0  0
  1  4  2  0  0  0  0
  1 16  1  0  0  0  0
  5  6  1  6  0  0  0
  5  7  1  0  0  0  0
  5 14  1  0  0  0  0
  7  8  1  1  0  0  0
  7  9  1  0  0  0  0
  9 10  1  6  0  0  0
  9 11  1  0  0  0  0
 11 12  1  6  0  0  0
 11 13  1  0  0  0  0
 13 14  1  0  0  0  0
 13 15  1  6  0  0  0
 15 16  1  0  0  0  0
M  CHG  1   3  -1
M  END
>  <CHROM.1>
-165.33735753,-179.70070931,71.64312086,53.20474071,9.81247009,25.03615033
2.36177894,0.16384593,-1.68341276

>  <Name>
ligand

>  <RI>
0

>  <Rbt.Current_Directory>
/home/itssahil/PROJECTS/Mol_Feturizer/New_Systems/rnas/3B4C

>  <Rbt.Executable>
rbdock ($Id: //depot/dev/client3/rdock/2013.1/src/exe/rbdock.cxx#4 $)

>  <Rbt.Library>
libRbt.so (2013.1, Build901 2013/11/27)

>  <Rbt.Parameter_File>
/export/apps/rDock/src/rDock_2013.1_src/data/scripts/dock_solv.prm

>  <Rbt.Receptor>
prm/blind_docking_100.prm

>  <SCORE>
-14.0402

>  <SCORE.INTER>
-12.8639

>  <SCORE.INTER.CONST>
1

>  <SCORE.INTER.POLAR>
0

>  <SCORE.INTER.ROT>
3

>  <SCORE.INTER.SOLV>
20.9863

>  <SCORE.INTER.VDW>
-21.1714

>  <SCORE.INTER.norm>
-0.803997

>  <SCORE.INTRA>
-1.17629

>  <SCORE.INTRA.DIHEDRAL>
-1.16518

>  <SCORE.INTRA.DIHEDRAL.0>
2.1318

>  <SCORE.INTRA.POLAR>
0

>  <SCORE.INTRA.POLAR.0>
0

>  <SCORE.INTRA.REPUL>
0

>  <SCORE.INTRA.REPUL.0>
0

>  <SCORE.INTRA.SOLV>
-0.952666

>  <SCORE.INTRA.SOLV.lig_0>
-58.6125

>  <SCORE.INTRA.VDW>
-0.117363

>  <SCORE.INTRA.VDW.0>
-0.432734

>  <SCORE.INTRA.norm>
-0.073518

>  <SCORE.RESTR>
0

>  <SCORE.RESTR.CAVITY>
0

>  <SCORE.RESTR.norm>
0

>  <SCORE.SYSTEM>
0

>  <SCORE.SYSTEM.CONST>
0

>  <SCORE.SYSTEM.DIHEDRAL>
0

>  <SCORE.SYSTEM.SOLV>
0

>  <SCORE.SYSTEM.norm>
0

>  <SCORE.heavy>
16

>  <SCORE.norm>
-0.877515

>  <RMSD>
12.093

$$$$
ligand
 OpenBabel11021811463D
libRbt.so/2013.1/901 2013/11/27
 16 16  0  0  0  0  0  0  0  0999 V2000
   50.8046    9.9649   22.6786 P   0  0  2  0  0  0  0  0  0  0  0  0
   51.7332    9.8537   21.5268 O   0  0  0  0  0  0  0  0  0  0  0  0
   50.0936    8.5444   22.9346 O   0  5  0  0  0  0  0  0  0  0  0  0
   49.6728   11.0610   22.3364 O   0  0  0  0  0  0  0  0  0  0  0  0
   53.6005    9.8238   27.8146 C   0  0  2  0  0  0  0  0  0  0  0  0
   53.6485   11.2504   27.9340 O   0  0  0  0  0  0  0  0  0  0  0  0
   55.0309    9.2255   27.8181 C   0  0  2  0  0  0  0  0  0  0  0  0
   55.7263    9.6026   29.0635 N   0  0  0  0  0  0  0  0  0  0  0  0
   55.7951    9.7751   26.6018 C   0  0  1  0  0  0  0  0  0  0  0  0
   57.1164    9.2292   26.5626 O   0  0  0  0  0  0  0  0  0  0  0  0
   55.0346    9.3610   25.3433 C   0  0  2  0  0  0  0  0  0  0  0  0
   55.7241    9.8619   24.2051 O   0  0  0  0  0  0  0  0  0  0  0  0
   53.6029    9.9595   25.4055 C   0  0  2  0  0  0  0  0  0  0  0  0
   52.8975    9.4654   26.5852 O   0  0  0  0  0  0  0  0  0  0  0  0
   52.7883    9.5597   24.1505 C   0  0  0  0  0  0  0  0  0  0  0  0
   51.6347   10.4068   23.9982 O   0  0  0  0  0  0  0  0  0  0  0  0
  1  2  1  6  0  0  0
  1  3  1  0  0  0  0
  1  4  2  0  0  0  0
  1 16  1  0  0  0  0
  5  6  1  6  0  0  0
  5  7  1  0  0  0  0
  5 14  1  0  0  0  0
  7  8  1  1  0  0  0
  7  9  1  0  0  0  0
  9 10  1  6  0  0  0
  9 11  1  0  0  0  0
 11 12  1  6  0  0  0
 11 13  1  0  0  0  0
 13 14  1  0  0  0  0
 13 15  1  6  0  0  0
 15 16  1  0  0  0  0
M  CHG  1   3  -1
M  END
>  <CHROM.1>
-162.93039402,179.97842579,-49.64071641,53.19252609,9.83253518,25.05695607
2.35788799,0.16016698,-1.67618745

>  <Name>
ligand

>  <RI>
0

>  <Rbt.Current_Directory>
/home/itssahil/PROJECTS/Mol_Feturizer/New_Systems/rnas/3B4C

>  <Rbt.Executable>
rbdock ($Id: //depot/dev/client3/rdock/2013.1/src/exe/rbdock.cxx#4 $)

>  <Rbt.Library>
libRbt.so (2013.1, Build901 2013/11/27)

>  <Rbt.Parameter_File>
/export/apps/rDock/src/rDock_2013.1_src/data/scripts/dock_solv.prm

>  <Rbt.Receptor>
prm/blind_docking_80.prm

>  <SCORE>
-12.0131

>  <SCORE.INTER>
-10.9523

>  <SCORE.INTER.CONST>
1

>  <SCORE.INTER.POLAR>
0

>  <SCORE.INTER.ROT>
3

>  <SCORE.INTER.SOLV>
24.5834

>  <SCORE.INTER.VDW>
-21.096

>  <SCORE.INTER.norm>
-0.684516

>  <SCORE.INTRA>
-1.06084

>  <SCORE.INTRA.DIHEDRAL>
-0.964037

>  <SCORE.INTRA.DIHEDRAL.0>
2.1318

>  <SCORE.INTRA.POLAR>
0

>  <SCORE.INTRA.POLAR.0>
0

>  <SCORE.INTRA.REPUL>
0

>  <SCORE.INTRA.REPUL.0>
0

>  <SCORE.INTRA.SOLV>
-1.16848

>  <SCORE.INTRA.SOLV.lig_0>
-58.6125

>  <SCORE.INTRA.VDW>
0.00542188

>  <SCORE.INTRA.VDW.0>
-0.432734

>  <SCORE.INTRA.norm>
-0.0663023

>  <SCORE.RESTR>
0

>  <SCORE.RESTR.CAVITY>
0

>  <SCORE.RESTR.norm>
0

>  <SCORE.SYSTEM>
0

>  <SCORE.SYSTEM.CONST>
0

>  <SCORE.SYSTEM.DIHEDRAL>
0

>  <SCORE.SYSTEM.SOLV>
0

>  <SCORE.SYSTEM.norm>
0

>  <SCORE.heavy>
16

>  <SCORE.norm>
-0.750819

>  <RMSD>
12.119

$$$$
ligand
 OpenBabel11021811463D
libRbt.so/2013.1/901 2013/11/27
 16 16  0  0  0  0  0  0  0  0999 V2000
   50.8204    9.9304   22.7244 P   0  0  2  0  0  0  0  0  0  0  0  0
   50.1448    8.6301   22.9573 O   0  0  0  0  0  0  0  0  0  0  0  0
   49.7216   11.0503   22.3674 O   0  5  0  0  0  0  0  0  0  0  0  0
   51.8349    9.7793   21.4805 O   0  0  0  0  0  0  0  0  0  0  0  0
   53.5689    9.8324   27.8832 C   0  0  2  0  0  0  0  0  0  0  0  0
   53.6336   11.2598   27.9838 O   0  0  0  0  0  0  0  0  0  0  0  0
   54.9915    9.2164   27.9096 C   0  0  2  0  0  0  0  0  0  0  0  0
   55.6788    9.6018   29.1570 N   0  0  0  0  0  0  0  0  0  0  0  0
   55.7750    9.7399   26.6941 C   0  0  1  0  0  0  0  0  0  0  0  0
   57.0896    9.1771   26.6760 O   0  0  0  0  0  0  0  0  0  0  0  0
   55.0223    9.3181   25.4334 C   0  0  2  0  0  0  0  0  0  0  0  0
   55.7296    9.7949   24.2957 O   0  0  0  0  0  0  0  0  0  0  0  0
   53.5976    9.9352   25.4726 C   0  0  2  0  0  0  0  0  0  0  0  0
   52.8740    9.4661   26.6515 O   0  0  0  0  0  0  0  0  0  0  0  0
   52.7910    9.5286   24.2146 C   0  0  0  0  0  0  0  0  0  0  0  0
   51.6289   10.3636   24.0602 O   0  0  0  0  0  0  0  0  0  0  0  0
  1  2  1  1  0  0  0
  1  3  1  0  0  0  0
  1  4  2  0  0  0  0
  1 16  1  0  0  0  0
  5  6  1  6  0  0  0
  5  7  1  0  0  0  0
  5 14  1  0  0  0  0
  7  8  1  1  0  0  0
  7  9  1  0  0  0  0
  9 10  1  6  0  0  0
  9 11  1  0  0  0  0
 11 12  1  6  0  0  0
 11 13  1  0  0  0  0
 13 14  1  0  0  0  0
 13 15  1  6  0  0  0
 15 16  1  0  0  0  0
M  CHG  1   3  -1
M  END
>  <CHROM.1>
-164.56327131,179.07263608,72.34818258,53.19500348,9.81159347,25.11722049
2.34522388,0.17894561,-1.68998910

>  <Name>
ligand

>  <RI>
0

>  <Rbt.Current_Directory>
/home/itssahil/PROJECTS/Mol_Feturizer/New_Systems/rnas/3B4C

>  <Rbt.Executable>
rbdock ($Id: //depot/dev/client3/rdock/2013.1/src/exe/rbdock.cxx#4 $)

>  <Rbt.Library>
libRbt.so (2013.1, Build901 2013/11/27)

>  <Rbt.Parameter_File>
/export/apps/rDock/src/rDock_2013.1_src/data/scripts/dock_solv.prm

>  <Rbt.Receptor>
prm/blind_docking_100.prm

>  <SCORE>
-14.016

>  <SCORE.INTER>
-12.9016

>  <SCORE.INTER.CONST>
1

>  <SCORE.INTER.POLAR>
0

>  <SCORE.INTER.ROT>
3

>  <SCORE.INTER.SOLV>
20.4099

>  <SCORE.INTER.VDW>
-21.0044

>  <SCORE.INTER.norm>
-0.80635

>  <SCORE.INTRA>
-1.11444

>  <SCORE.INTRA.DIHEDRAL>
-1.05922

>  <SCORE.INTRA.DIHEDRAL.0>
2.1318

>  <SCORE.INTRA.POLAR>
0

>  <SCORE.INTRA.POLAR.0>
0

>  <SCORE.INTRA.REPUL>
0

>  <SCORE.INTRA.REPUL.0>
0

>  <SCORE.INTRA.SOLV>
-0.949403

>  <SCORE.INTRA.SOLV.lig_0>
-58.6125

>  <SCORE.INTRA.VDW>
-0.110124

>  <SCORE.INTRA.VDW.0>
-0.432734

>  <SCORE.INTRA.norm>
-0.0696523

>  <SCORE.RESTR>
0

>  <SCORE.RESTR.CAVITY>
0

>  <SCORE.RESTR.norm>
0

>  <SCORE.SYSTEM>
0

>  <SCORE.SYSTEM.CONST>
0

>  <SCORE.SYSTEM.DIHEDRAL>
0

>  <SCORE.SYSTEM.SOLV>
0

>  <SCORE.SYSTEM.norm>
0

>  <SCORE.heavy>
16

>  <SCORE.norm>
-0.876002

>  <RMSD>
12.149

$$$$
ligand
 OpenBabel11021811463D
libRbt.so/2013.1/901 2013/11/27
 16 16  0  0  0  0  0  0  0  0999 V2000
   51.4476   10.1385   22.9146 P   0  0  2  0  0  0  0  0  0  0  0  0
   50.1927    9.3472   22.9376 O   0  0  0  0  0  0  0  0  0  0  0  0
   51.1251   11.6435   22.4460 O   0  5  0  0  0  0  0  0  0  0  0  0
   52.4695    9.4713   21.8610 O   0  0  0  0  0  0  0  0  0  0  0  0
   53.4132   10.6503   28.3694 C   0  0  2  0  0  0  0  0  0  0  0  0
   53.0717    9.2935   28.6762 O   0  0  0  0  0  0  0  0  0  0  0  0
   52.6666   11.6295   29.3116 C   0  0  2  0  0  0  0  0  0  0  0  0
   53.0091   11.3300   30.7151 N   0  0  0  0  0  0  0  0  0  0  0  0
   51.1534   11.4628   29.0924 C   0  0  1  0  0  0  0  0  0  0  0  0
   50.4315   12.3657   29.9344 O   0  0  0  0  0  0  0  0  0  0  0  0
   50.8534   11.7804   27.6285 C   0  0  2  0  0  0  0  0  0  0  0  0
   49.4575   11.6298   27.4033 O   0  0  0  0  0  0  0  0  0  0  0  0
   51.6480   10.7932   26.7306 C   0  0  2  0  0  0  0  0  0  0  0  0
   53.0818   10.9280   26.9740 O   0  0  0  0  0  0  0  0  0  0  0  0
   51.3811   11.0812   25.2324 C   0  0  0  0  0  0  0  0  0  0  0  0
   52.1003   10.1553   24.3976 O   0  0  0  0  0  0  0  0  0  0  0  0
  1  2  1  1  0  0  0
  1  3  1  0  0  0  0
  1  4  2  0  0  0  0
  1 16  1  0  0  0  0
  5  6  1  1  0  0  0
  5  7  1  0  0  0  0
  5 14  1  0  0  0  0
  7  8  1  1  0  0  0
  7  9  1  0  0  0  0
  9 10  1  1  0  0  0
  9 11  1  0  0  0  0
 11 12  1  1  0  0  0
 11 13  1  0  0  0  0
 13 14  1  0  0  0  0
 13 15  1  6  0  0  0
 15 16  1  0  0  0  0
M  CHG  1   3  -1
M  END
>  <CHROM.1>
-179.14336906,161.19399277,-76.97258092,51.68175515,10.78406289,26.20120809
-1.66131980,-0.47598284,1.34942332

>  <Name>
ligand

>  <RI>
0

>  <Rbt.Current_Directory>
/home/itssahil/PROJECTS/Mol_Feturizer/New_Systems/rnas/3B4C

>  <Rbt.Executable>
rbdock ($Id: //depot/dev/client3/rdock/2013.1/src/exe/rbdock.cxx#4 $)

>  <Rbt.Library>
libRbt.so (2013.1, Build901 2013/11/27)

>  <Rbt.Parameter_File>
/export/apps/rDock/src/rDock_2013.1_src/data/scripts/dock_solv.prm

>  <Rbt.Receptor>
prm/blind_docking_80.prm

>  <SCORE>
-6.76555

>  <SCORE.INTER>
-6.28418

>  <SCORE.INTER.CONST>
1

>  <SCORE.INTER.POLAR>
0

>  <SCORE.INTER.ROT>
3

>  <SCORE.INTER.SOLV>
21.5801

>  <SCORE.INTER.VDW>
-16.9828

>  <SCORE.INTER.norm>
-0.392762

>  <SCORE.INTRA>
-0.511201

>  <SCORE.INTRA.DIHEDRAL>
-0.0784898

>  <SCORE.INTRA.DIHEDRAL.0>
2.1318

>  <SCORE.INTRA.POLAR>
0

>  <SCORE.INTRA.POLAR.0>
0

>  <SCORE.INTRA.REPUL>
0

>  <SCORE.INTRA.REPUL.0>
0

>  <SCORE.INTRA.SOLV>
-0.929733

>  <SCORE.INTRA.SOLV.lig_0>
-58.6125

>  <SCORE.INTRA.VDW>
-0.00709

>  <SCORE.INTRA.VDW.0>
-0.432734

>  <SCORE.INTRA.norm>
-0.0319501

>  <SCORE.RESTR>
0.0298404

>  <SCORE.RESTR.CAVITY>
0.0298404

>  <SCORE.RESTR.norm>
0.00186502

>  <SCORE.SYSTEM>
0

>  <SCORE.SYSTEM.CONST>
0

>  <SCORE.SYSTEM.DIHEDRAL>
0

>  <SCORE.SYSTEM.SOLV>
0

>  <SCORE.SYSTEM.norm>
0

>  <SCORE.heavy>
16

>  <SCORE.norm>
-0.422847

>  <RMSD>
12.161

$$$$
ligand
 OpenBabel11021811463D
libRbt.so/2013.1/901 2013/11/27
 16 16  0  0  0  0  0  0  0  0999 V2000
   51.5063   10.0375   23.1709 P   0  0  2  0  0  0  0  0  0  0  0  0
   51.3791   11.0323   24.2642 O   0  0  0  0  0  0  0  0  0  0  0  0
   52.3446   10.6783   21.9563 O   0  5  0  0  0  0  0  0  0  0  0  0
   50.0340    9.6487   22.6411 O   0  0  0  0  0  0  0  0  0  0  0  0
   52.5913    9.3327   27.8235 C   0  0  2  0  0  0  0  0  0  0  0  0
   51.8707   10.5698   27.7778 O   0  0  0  0  0  0  0  0  0  0  0  0
   53.9857    9.5347   28.4705 C   0  0  2  0  0  0  0  0  0  0  0  0
   53.8292   10.0759   29.8341 N   0  0  0  0  0  0  0  0  0  0  0  0
   54.7906   10.5177   27.6037 C   0  0  1  0  0  0  0  0  0  0  0  0
   56.0925   10.7146   28.1619 O   0  0  0  0  0  0  0  0  0  0  0  0
   54.9209    9.9135   26.2066 C   0  0  2  0  0  0  0  0  0  0  0  0
   55.6610   10.8089   25.3868 O   0  0  0  0  0  0  0  0  0  0  0  0
   53.4987    9.7040   25.6187 C   0  0  2  0  0  0  0  0  0  0  0  0
   52.7261    8.8021   26.4691 O   0  0  0  0  0  0  0  0  0  0  0  0
   53.5789    9.0847   24.2015 C   0  0  0  0  0  0  0  0  0  0  0  0
   52.2695    8.7208   23.7275 O   0  0  0  0  0  0  0  0  0  0  0  0
  1  2  1  1  0  0  0
  1  3  1  0  0  0  0
  1  4  2  0  0  0  0
  1 16  1  0  0  0  0
  5  6  1  6  0  0  0
  5  7  1  0  0  0  0
  5 14  1  0  0  0  0
  7  8  1  1  0  0  0
  7  9  1  0  0  0  0
  9 10  1  1  0  0  0
  9 11  1  0  0  0  0
 11 12  1  6  0  0  0
 11 13  1  0  0  0  0
 13 14  1  0  0  0  0
 13 15  1  6  0  0  0
 15 16  1  0  0  0  0
M  CHG  1   3  -1
M  END
>  <CHROM.1>
172.15876761,79.89448275,-59.87798727,53.03900147,9.96830230,25.57759769
2.09880151,-0.16316384,-1.51141858

>  <Name>
ligand

>  <RI>
0

>  <Rbt.Current_Directory>
/home/itssahil/PROJECTS/Mol_Feturizer/New_Systems/rnas/3B4C

>  <Rbt.Executable>
rbdock ($Id: //depot/dev/client3/rdock/2013.1/src/exe/rbdock.cxx#4 $)

>  <Rbt.Library>
libRbt.so (2013.1, Build901 2013/11/27)

>  <Rbt.Parameter_File>
/export/apps/rDock/src/rDock_2013.1_src/data/scripts/dock_solv.prm

>  <Rbt.Receptor>
prm/blind_docking_100.prm

>  <SCORE>
-12.0114

>  <SCORE.INTER>
-11.6203

>  <SCORE.INTER.CONST>
1

>  <SCORE.INTER.POLAR>
0

>  <SCORE.INTER.ROT>
3

>  <SCORE.INTER.SOLV>
17.9829

>  <SCORE.INTER.VDW>
-19.3412

>  <SCORE.INTER.norm>
-0.72627

>  <SCORE.INTRA>
-0.391057

>  <SCORE.INTRA.DIHEDRAL>
-0.129743

>  <SCORE.INTRA.DIHEDRAL.0>
2.1318

>  <SCORE.INTRA.POLAR>
0

>  <SCORE.INTRA.POLAR.0>
0

>  <SCORE.INTRA.REPUL>
0

>  <SCORE.INTRA.REPUL.0>
0

>  <SCORE.INTRA.SOLV>
-0.0565119

>  <SCORE.INTRA.SOLV.lig_0>
-58.6125

>  <SCORE.INTRA.VDW>
-0.297929

>  <SCORE.INTRA.VDW.0>
-0.432734

>  <SCORE.INTRA.norm>
-0.024441

>  <SCORE.RESTR>
0

>  <SCORE.RESTR.CAVITY>
0

>  <SCORE.RESTR.norm>
0

>  <SCORE.SYSTEM>
0

>  <SCORE.SYSTEM.CONST>
0

>  <SCORE.SYSTEM.DIHEDRAL>
0

>  <SCORE.SYSTEM.SOLV>
0

>  <SCORE.SYSTEM.norm>
0

>  <SCORE.heavy>
16

>  <SCORE.norm>
-0.750711

>  <RMSD>
12.171

$$$$
ligand
 OpenBabel11021811463D
libRbt.so/2013.1/901 2013/11/27
 16 16  0  0  0  0  0  0  0  0999 V2000
   51.0258    9.9217   22.7606 P   0  0  2  0  0  0  0  0  0  0  0  0
   50.2664    8.6700   23.0014 O   0  0  0  0  0  0  0  0  0  0  0  0
   50.0113   11.0883   22.3149 O   0  5  0  0  0  0  0  0  0  0  0  0
   52.0873    9.6713   21.5731 O   0  0  0  0  0  0  0  0  0  0  0  0
   53.5370    9.8678   28.0258 C   0  0  2  0  0  0  0  0  0  0  0  0
   53.6777   11.2920   28.0879 O   0  0  0  0  0  0  0  0  0  0  0  0
   54.9193    9.1754   28.1428 C   0  0  2  0  0  0  0  0  0  0  0  0
   55.5650    9.5619   29.4119 N   0  0  0  0  0  0  0  0  0  0  0  0
   55.7904    9.6156   26.9542 C   0  0  1  0  0  0  0  0  0  0  0  0
   57.0702    8.9807   27.0197 O   0  0  0  0  0  0  0  0  0  0  0  0
   55.0781    9.1960   25.6695 C   0  0  2  0  0  0  0  0  0  0  0  0
   55.8667    9.5963   24.5561 O   0  0  0  0  0  0  0  0  0  0  0  0
   53.6906    9.8918   25.6179 C   0  0  2  0  0  0  0  0  0  0  0  0
   52.8841    9.5013   26.7714 O   0  0  0  0  0  0  0  0  0  0  0  0
   52.9252    9.4903   24.3327 C   0  0  0  0  0  0  0  0  0  0  0  0
   51.7944   10.3548   24.1198 O   0  0  0  0  0  0  0  0  0  0  0  0
  1  2  1  1  0  0  0
  1  3  1  0  0  0  0
  1  4  2  0  0  0  0
  1 16  1  0  0  0  0
  5  6  1  6  0  0  0
  5  7  1  0  0  0  0
  5 14  1  0  0  0  0
  7  8  1  1  0  0  0
  7  9  1  0  0  0  0
  9 10  1  1  0  0  0
  9 11  1  0  0  0  0
 11 12  1  6  0  0  0
 11 13  1  0  0  0  0
 13 14  1  0  0  0  0
 13 15  1  6  0  0  0
 15 16  1  0  0  0  0
M  CHG  1   3  -1
M  END
>  <CHROM.1>
-166.53995011,179.31675106,74.31040576,53.28804153,9.76765833,25.25660169
2.30828947,0.23610935,-1.71567806

>  <Name>
ligand

>  <RI>
0

>  <Rbt.Current_Directory>
/home/itssahil/PROJECTS/Mol_Feturizer/New_Systems/rnas/3B4C

>  <Rbt.Executable>
rbdock ($Id: //depot/dev/client3/rdock/2013.1/src/exe/rbdock.cxx#4 $)

>  <Rbt.Library>
libRbt.so (2013.1, Build901 2013/11/27)

>  <Rbt.Parameter_File>
/export/apps/rDock/src/rDock_2013.1_src/data/scripts/dock_solv.prm

>  <Rbt.Receptor>
prm/blind_docking_80.prm

>  <SCORE>
-14.0672

>  <SCORE.INTER>
-12.9328

>  <SCORE.INTER.CONST>
1

>  <SCORE.INTER.POLAR>
0

>  <SCORE.INTER.ROT>
3

>  <SCORE.INTER.SOLV>
18.7596

>  <SCORE.INTER.VDW>
-20.4751

>  <SCORE.INTER.norm>
-0.808298

>  <SCORE.INTRA>
-1.13444

>  <SCORE.INTRA.DIHEDRAL>
-1.16929

>  <SCORE.INTRA.DIHEDRAL.0>
2.1318

>  <SCORE.INTRA.POLAR>
0

>  <SCORE.INTRA.POLAR.0>
0

>  <SCORE.INTRA.REPUL>
0

>  <SCORE.INTRA.REPUL.0>
0

>  <SCORE.INTRA.SOLV>
-0.92365

>  <SCORE.INTRA.SOLV.lig_0>
-58.6125

>  <SCORE.INTRA.VDW>
-0.0879678

>  <SCORE.INTRA.VDW.0>
-0.432734

>  <SCORE.INTRA.norm>
-0.0709023

>  <SCORE.RESTR>
0

>  <SCORE.RESTR.CAVITY>
0

>  <SCORE.RESTR.norm>
0

>  <SCORE.SYSTEM>
0

>  <SCORE.SYSTEM.CONST>
0

>  <SCORE.SYSTEM.DIHEDRAL>
0

>  <SCORE.SYSTEM.SOLV>
0

>  <SCORE.SYSTEM.norm>
0

>  <SCORE.heavy>
16

>  <SCORE.norm>
-0.8792

>  <RMSD>
12.290

$$$$
ligand
 OpenBabel11021811463D
libRbt.so/2013.1/901 2013/11/27
 16 16  0  0  0  0  0  0  0  0999 V2000
   51.5849    9.8317   22.3718 P   0  0  2  0  0  0  0  0  0  0  0  0
   50.3868    9.0368   22.7378 O   0  0  0  0  0  0  0  0  0  0  0  0
   51.2547   11.3996   22.5185 O   0  5  0  0  0  0  0  0  0  0  0  0
   51.9723    9.5212   20.8379 O   0  0  0  0  0  0  0  0  0  0  0  0
   56.0100    9.5256   26.1092 C   0  0  2  0  0  0  0  0  0  0  0  0
   56.0996    8.0965   26.0735 O   0  0  0  0  0  0  0  0  0  0  0  0
   55.7636   10.0230   27.5569 C   0  0  2  0  0  0  0  0  0  0  0  0
   56.8580    9.5658   28.4345 N   0  0  0  0  0  0  0  0  0  0  0  0
   54.4222    9.4538   28.0491 C   0  0  1  0  0  0  0  0  0  0  0  0
   54.1527    9.9076   29.3783 O   0  0  0  0  0  0  0  0  0  0  0  0
   53.3271    9.9528   27.1080 C   0  0  2  0  0  0  0  0  0  0  0  0
   52.0766    9.4353   27.5443 O   0  0  0  0  0  0  0  0  0  0  0  0
   53.6384    9.4536   25.6707 C   0  0  2  0  0  0  0  0  0  0  0  0
   54.9325    9.9642   25.2256 O   0  0  0  0  0  0  0  0  0  0  0  0
   52.5562    9.9419   24.6761 C   0  0  0  0  0  0  0  0  0  0  0  0
   52.8127    9.4372   23.3529 O   0  0  0  0  0  0  0  0  0  0  0  0
  1  2  1  1  0  0  0
  1  3  1  0  0  0  0
  1  4  2  0  0  0  0
  1 16  1  0  0  0  0
  5  6  1  1  0  0  0
  5  7  1  0  0  0  0
  5 14  1  0  0  0  0
  7  8  1  1  0  0  0
  7  9  1  0  0  0  0
  9 10  1  1  0  0  0
  9 11  1  0  0  0  0
 11 12  1  1  0  0  0
 11 13  1  0  0  0  0
 13 14  1  0  0  0  0
 13 15  1  6  0  0  0
 15 16  1  0  0  0  0
M  CHG  1   3  -1
M  END
>  <CHROM.1>
-177.72228748,174.02453912,-70.64071129,53.41745194,9.66659947,25.19222588
-2.16997784,-0.16257587,1.52042658

>  <Name>
ligand

>  <RI>
0

>  <Rbt.Current_Directory>
/home/itssahil/PROJECTS/Mol_Feturizer/New_Systems/rnas/3B4C

>  <Rbt.Executable>
rbdock ($Id: //depot/dev/client3/rdock/2013.1/src/exe/rbdock.cxx#4 $)

>  <Rbt.Library>
libRbt.so (2013.1, Build901 2013/11/27)

>  <Rbt.Parameter_File>
/export/apps/rDock/src/rDock_2013.1_src/data/scripts/dock_solv.prm

>  <Rbt.Receptor>
prm/blind_docking_100.prm

>  <SCORE>
-12.0973

>  <SCORE.INTER>
-10.6514

>  <SCORE.INTER.CONST>
1

>  <SCORE.INTER.POLAR>
0

>  <SCORE.INTER.ROT>
3

>  <SCORE.INTER.SOLV>
20.3835

>  <SCORE.INTER.VDW>
-19.4955

>  <SCORE.INTER.norm>
-0.665714

>  <SCORE.INTRA>
-1.44584

>  <SCORE.INTRA.DIHEDRAL>
-1.7565

>  <SCORE.INTRA.DIHEDRAL.0>
2.1318

>  <SCORE.INTRA.POLAR>
0

>  <SCORE.INTRA.POLAR.0>
0

>  <SCORE.INTRA.REPUL>
0

>  <SCORE.INTRA.REPUL.0>
0

>  <SCORE.INTRA.SOLV>
-0.956503

>  <SCORE.INTRA.SOLV.lig_0>
-58.6125

>  <SCORE.INTRA.VDW>
-0.0893365

>  <SCORE.INTRA.VDW.0>
-0.432734

>  <SCORE.INTRA.norm>
-0.090365

>  <SCORE.RESTR>
0

>  <SCORE.RESTR.CAVITY>
0

>  <SCORE.RESTR.norm>
0

>  <SCORE.SYSTEM>
0

>  <SCORE.SYSTEM.CONST>
0

>  <SCORE.SYSTEM.DIHEDRAL>
0

>  <SCORE.SYSTEM.SOLV>
0

>  <SCORE.SYSTEM.norm>
0

>  <SCORE.heavy>
16

>  <SCORE.norm>
-0.756079

>  <RMSD>
12.340

$$$$
ligand
 OpenBabel11021811463D
libRbt.so/2013.1/901 2013/11/27
 16 16  0  0  0  0  0  0  0  0999 V2000
   51.6201   10.0760   22.7021 P   0  0  2  0  0  0  0  0  0  0  0  0
   51.0751   11.4329   22.4506 O   0  0  0  0  0  0  0  0  0  0  0  0
   52.5122    9.6139   21.4454 O   0  5  0  0  0  0  0  0  0  0  0  0
   50.3950    9.0431   22.8805 O   0  0  0  0  0  0  0  0  0  0  0  0
   56.2039    9.8982   26.1845 C   0  0  2  0  0  0  0  0  0  0  0  0
   56.8359    8.6222   26.3401 O   0  0  0  0  0  0  0  0  0  0  0  0
   55.5196   10.3351   27.5054 C   0  0  2  0  0  0  0  0  0  0  0  0
   56.5198   10.3983   28.5881 N   0  0  0  0  0  0  0  0  0  0  0  0
   54.4295    9.3083   27.8558 C   0  0  1  0  0  0  0  0  0  0  0  0
   53.7632    9.6897   29.0623 O   0  0  0  0  0  0  0  0  0  0  0  0
   53.4246    9.2796   26.7054 C   0  0  2  0  0  0  0  0  0  0  0  0
   52.4075    8.3332   27.0083 O   0  0  0  0  0  0  0  0  0  0  0  0
   54.1664    8.8673   25.4047 C   0  0  2  0  0  0  0  0  0  0  0  0
   55.2271    9.8243   25.1007 O   0  0  0  0  0  0  0  0  0  0  0  0
   53.1873    8.8311   24.2052 C   0  0  0  0  0  0  0  0  0  0  0  0
   52.5329   10.1024   24.0407 O   0  0  0  0  0  0  0  0  0  0  0  0
  1  2  1  6  0  0  0
  1  3  1  0  0  0  0
  1  4  2  0  0  0  0
  1 16  1  0  0  0  0
  5  6  1  1  0  0  0
  5  7  1  0  0  0  0
  5 14  1  0  0  0  0
  7  8  1  1  0  0  0
  7  9  1  0  0  0  0
  9 10  1  1  0  0  0
  9 11  1  0  0  0  0
 11 12  1  1  0  0  0
 11 13  1  0  0  0  0
 13 14  1  0  0  0  0
 13 15  1  6  0  0  0
 15 16  1  0  0  0  0
M  CHG  1   3  -1
M  END
>  <CHROM.1>
56.60772384,174.87537639,-173.43618586,53.53552191,9.63519728,25.21373892
-2.22416128,0.05832244,1.69099666

>  <Name>
ligand

>  <RI>
0

>  <Rbt.Current_Directory>
/home/itssahil/PROJECTS/Mol_Feturizer/New_Systems/rnas/3B4C

>  <Rbt.Executable>
rbdock ($Id: //depot/dev/client3/rdock/2013.1/src/exe/rbdock.cxx#4 $)

>  <Rbt.Library>
libRbt.so (2013.1, Build901 2013/11/27)

>  <Rbt.Parameter_File>
/export/apps/rDock/src/rDock_2013.1_src/data/scripts/dock_solv.prm

>  <Rbt.Receptor>
prm/blind_docking_100.prm

>  <SCORE>
-12.1185

>  <SCORE.INTER>
-10.7773

>  <SCORE.INTER.CONST>
1

>  <SCORE.INTER.POLAR>
0

>  <SCORE.INTER.ROT>
3

>  <SCORE.INTER.SOLV>
22.049

>  <SCORE.INTER.VDW>
-20.1345

>  <SCORE.INTER.norm>
-0.67358

>  <SCORE.INTRA>
-1.34127

>  <SCORE.INTRA.DIHEDRAL>
-1.888

>  <SCORE.INTRA.DIHEDRAL.0>
2.1318

>  <SCORE.INTRA.POLAR>
0

>  <SCORE.INTRA.POLAR.0>
0

>  <SCORE.INTRA.REPUL>
0

>  <SCORE.INTRA.REPUL.0>
0

>  <SCORE.INTRA.SOLV>
-0.167029

>  <SCORE.INTRA.SOLV.lig_0>
-58.6125

>  <SCORE.INTRA.VDW>
-0.313755

>  <SCORE.INTRA.VDW.0>
-0.432734

>  <SCORE.INTRA.norm>
-0.0838293

>  <SCORE.RESTR>
0

>  <SCORE.RESTR.CAVITY>
0

>  <SCORE.RESTR.norm>
0

>  <SCORE.SYSTEM>
0

>  <SCORE.SYSTEM.CONST>
0

>  <SCORE.SYSTEM.DIHEDRAL>
0

>  <SCORE.SYSTEM.SOLV>
0

>  <SCORE.SYSTEM.norm>
0

>  <SCORE.heavy>
16

>  <SCORE.norm>
-0.757409

>  <RMSD>
12.349

$$$$
ligand
 OpenBabel11021811463D
libRbt.so/2013.1/901 2013/11/27
 16 16  0  0  0  0  0  0  0  0999 V2000
   51.6229    9.8332   22.3356 P   0  0  2  0  0  0  0  0  0  0  0  0
   51.9524    9.4927   20.9296 O   0  0  0  0  0  0  0  0  0  0  0  0
   50.3047    9.0294   22.7884 O   0  5  0  0  0  0  0  0  0  0  0  0
   51.3302   11.4155   22.4377 O   0  0  0  0  0  0  0  0  0  0  0  0
   56.0756    9.4016   26.0211 C   0  0  2  0  0  0  0  0  0  0  0  0
   56.1506    7.9727   25.9548 O   0  0  0  0  0  0  0  0  0  0  0  0
   55.8497    9.8709   27.4815 C   0  0  2  0  0  0  0  0  0  0  0  0
   56.9489    9.3849   28.3373 N   0  0  0  0  0  0  0  0  0  0  0  0
   54.5081    9.3047   27.9764 C   0  0  1  0  0  0  0  0  0  0  0  0
   54.2575    9.7332   29.3176 O   0  0  0  0  0  0  0  0  0  0  0  0
   53.4079    9.8337   27.0580 C   0  0  2  0  0  0  0  0  0  0  0  0
   52.1571    9.3195   27.4972 O   0  0  0  0  0  0  0  0  0  0  0  0
   53.6988    9.3617   25.6073 C   0  0  2  0  0  0  0  0  0  0  0  0
   54.9930    9.8689   25.1587 O   0  0  0  0  0  0  0  0  0  0  0  0
   52.6109    9.8811   24.6350 C   0  0  0  0  0  0  0  0  0  0  0  0
   52.8662    9.4285   23.2928 O   0  0  0  0  0  0  0  0  0  0  0  0
  1  2  1  6  0  0  0
  1  3  1  0  0  0  0
  1  4  2  0  0  0  0
  1 16  1  0  0  0  0
  5  6  1  1  0  0  0
  5  7  1  0  0  0  0
  5 14  1  0  0  0  0
  7  8  1  1  0  0  0
  7  9  1  0  0  0  0
  9 10  1  1  0  0  0
  9 11  1  0  0  0  0
 11 12  1  1  0  0  0
 11 13  1  0  0  0  0
 13 14  1  0  0  0  0
 13 15  1  6  0  0  0
 15 16  1  0  0  0  0
M  CHG  1   3  -1
M  END
>  <CHROM.1>
-179.12158133,173.17428910,174.09538308,53.47033338,9.58635196,25.14351157
-2.18653497,-0.16097050,1.54648364

>  <Name>
ligand

>  <RI>
0

>  <Rbt.Current_Directory>
/home/itssahil/PROJECTS/Mol_Feturizer/New_Systems/rnas/3B4C

>  <Rbt.Executable>
rbdock ($Id: //depot/dev/client3/rdock/2013.1/src/exe/rbdock.cxx#4 $)

>  <Rbt.Library>
libRbt.so (2013.1, Build901 2013/11/27)

>  <Rbt.Parameter_File>
/export/apps/rDock/src/rDock_2013.1_src/data/scripts/dock_solv.prm

>  <Rbt.Receptor>
prm/blind_docking_80.prm

>  <SCORE>
-11.4978

>  <SCORE.INTER>
-10.1636

>  <SCORE.INTER.CONST>
1

>  <SCORE.INTER.POLAR>
0

>  <SCORE.INTER.ROT>
3

>  <SCORE.INTER.SOLV>
21.4137

>  <SCORE.INTER.VDW>
-19.5136

>  <SCORE.INTER.norm>
-0.635225

>  <SCORE.INTRA>
-1.33421

>  <SCORE.INTRA.DIHEDRAL>
-1.84352

>  <SCORE.INTRA.DIHEDRAL.0>
2.1318

>  <SCORE.INTRA.POLAR>
0

>  <SCORE.INTRA.POLAR.0>
0

>  <SCORE.INTRA.REPUL>
0

>  <SCORE.INTRA.REPUL.0>
0

>  <SCORE.INTRA.SOLV>
-0.396273

>  <SCORE.INTRA.SOLV.lig_0>
-58.6125

>  <SCORE.INTRA.VDW>
-0.214315

>  <SCORE.INTRA.VDW.0>
-0.432734

>  <SCORE.INTRA.norm>
-0.0833884

>  <SCORE.RESTR>
0

>  <SCORE.RESTR.CAVITY>
0

>  <SCORE.RESTR.norm>
0

>  <SCORE.SYSTEM>
0

>  <SCORE.SYSTEM.CONST>
0

>  <SCORE.SYSTEM.DIHEDRAL>
0

>  <SCORE.SYSTEM.SOLV>
0

>  <SCORE.SYSTEM.norm>
0

>  <SCORE.heavy>
16

>  <SCORE.norm>
-0.718613

>  <RMSD>
12.371

$$$$
ligand
 OpenBabel11021811463D
libRbt.so/2013.1/901 2013/11/27
 16 16  0  0  0  0  0  0  0  0999 V2000
   51.6576    9.8942   22.3466 P   0  0  2  0  0  0  0  0  0  0  0  0
   51.3933   11.3427   22.5287 O   0  0  0  0  0  0  0  0  0  0  0  0
   52.0351    9.6061   20.8093 O   0  5  0  0  0  0  0  0  0  0  0  0
   50.3255    9.0665   22.7209 O   0  0  0  0  0  0  0  0  0  0  0  0
   56.0904    9.4873   26.0405 C   0  0  2  0  0  0  0  0  0  0  0  0
   56.2418    8.0682   25.9178 O   0  0  0  0  0  0  0  0  0  0  0  0
   55.8375    9.8855   27.5175 C   0  0  2  0  0  0  0  0  0  0  0  0
   56.9599    9.4253   28.3573 N   0  0  0  0  0  0  0  0  0  0  0  0
   54.5274    9.2292   27.9847 C   0  0  1  0  0  0  0  0  0  0  0  0
   54.2522    9.5901   29.3409 O   0  0  0  0  0  0  0  0  0  0  0  0
   53.4019    9.7349   27.0840 C   0  0  2  0  0  0  0  0  0  0  0  0
   52.1797    9.1376   27.4979 O   0  0  0  0  0  0  0  0  0  0  0  0
   53.7198    9.3371   25.6167 C   0  0  2  0  0  0  0  0  0  0  0  0
   54.9857    9.9301   25.1934 O   0  0  0  0  0  0  0  0  0  0  0  0
   52.6071    9.8359   24.6619 C   0  0  0  0  0  0  0  0  0  0  0  0
   52.8855    9.4466   23.3045 O   0  0  0  0  0  0  0  0  0  0  0  0
  1  2  1  1  0  0  0
  1  3  1  0  0  0  0
  1  4  2  0  0  0  0
  1 16  1  0  0  0  0
  5  6  1  1  0  0  0
  5  7  1  0  0  0  0
  5 14  1  0  0  0  0
  7  8  1  1  0  0  0
  7  9  1  0  0  0  0
  9 10  1  1  0  0  0
  9 11  1  0  0  0  0
 11 12  1  1  0  0  0
 11 13  1  0  0  0  0
 13 14  1  0  0  0  0
 13 15  1  6  0  0  0
 15 16  1  0  0  0  0
M  CHG  1   3  -1
M  END
>  <CHROM.1>
-178.88919681,176.19581112,53.69531963,53.49511989,9.58388711,25.14855763
-2.17245694,-0.10692119,1.59473802

>  <Name>
ligand

>  <RI>
0

>  <Rbt.Current_Directory>
/home/itssahil/PROJECTS/Mol_Feturizer/New_Systems/rnas/3B4C

>  <Rbt.Executable>
rbdock ($Id: //depot/dev/client3/rdock/2013.1/src/exe/rbdock.cxx#4 $)

>  <Rbt.Library>
libRbt.so (2013.1, Build901 2013/11/27)

>  <Rbt.Parameter_File>
/export/apps/rDock/src/rDock_2013.1_src/data/scripts/dock_solv.prm

>  <Rbt.Receptor>
prm/blind_docking_80.prm

>  <SCORE>
-11.4164

>  <SCORE.INTER>
-9.82476

>  <SCORE.INTER.CONST>
1

>  <SCORE.INTER.POLAR>
0

>  <SCORE.INTER.ROT>
3

>  <SCORE.INTER.SOLV>
21.6767

>  <SCORE.INTER.VDW>
-19.3754

>  <SCORE.INTER.norm>
-0.614047

>  <SCORE.INTRA>
-1.59168

>  <SCORE.INTRA.DIHEDRAL>
-1.99029

>  <SCORE.INTRA.DIHEDRAL.0>
2.1318

>  <SCORE.INTRA.POLAR>
0

>  <SCORE.INTRA.POLAR.0>
0

>  <SCORE.INTRA.REPUL>
0

>  <SCORE.INTRA.REPUL.0>
0

>  <SCORE.INTRA.SOLV>
-1.08279

>  <SCORE.INTRA.SOLV.lig_0>
-58.6125

>  <SCORE.INTRA.VDW>
-0.0551352

>  <SCORE.INTRA.VDW.0>
-0.432734

>  <SCORE.INTRA.norm>
-0.0994798

>  <SCORE.RESTR>
0

>  <SCORE.RESTR.CAVITY>
0

>  <SCORE.RESTR.norm>
0

>  <SCORE.SYSTEM>
0

>  <SCORE.SYSTEM.CONST>
0

>  <SCORE.SYSTEM.DIHEDRAL>
0

>  <SCORE.SYSTEM.SOLV>
0

>  <SCORE.SYSTEM.norm>
0

>  <SCORE.heavy>
16

>  <SCORE.norm>
-0.713527

>  <RMSD>
12.374

$$$$
ligand
 OpenBabel11021811463D
libRbt.so/2013.1/901 2013/11/27
 16 16  0  0  0  0  0  0  0  0999 V2000
   51.6103    9.8208   22.4326 P   0  0  2  0  0  0  0  0  0  0  0  0
   51.9248    9.5080   21.0168 O   0  0  0  0  0  0  0  0  0  0  0  0
   50.3058    8.9963   22.8879 O   0  5  0  0  0  0  0  0  0  0  0  0
   51.3036   11.3981   22.5660 O   0  0  0  0  0  0  0  0  0  0  0  0
   56.1275    9.3789   26.0407 C   0  0  2  0  0  0  0  0  0  0  0  0
   56.2006    7.9502   25.9672 O   0  0  0  0  0  0  0  0  0  0  0  0
   55.9257    9.8423   27.5064 C   0  0  2  0  0  0  0  0  0  0  0  0
   57.0384    9.3523   28.3422 N   0  0  0  0  0  0  0  0  0  0  0  0
   54.5920    9.2746   28.0208 C   0  0  1  0  0  0  0  0  0  0  0  0
   54.3635    9.6976   29.3677 O   0  0  0  0  0  0  0  0  0  0  0  0
   53.4773    9.8079   27.1227 C   0  0  2  0  0  0  0  0  0  0  0  0
   52.2335    9.2924   27.5801 O   0  0  0  0  0  0  0  0  0  0  0  0
   53.7442    9.3417   25.6655 C   0  0  2  0  0  0  0  0  0  0  0  0
   55.0312    9.8502   25.1980 O   0  0  0  0  0  0  0  0  0  0  0  0
   52.6408    9.8656   24.7132 C   0  0  0  0  0  0  0  0  0  0  0  0
   52.8695    9.4117   23.3667 O   0  0  0  0  0  0  0  0  0  0  0  0
  1  2  1  6  0  0  0
  1  3  1  0  0  0  0
  1  4  2  0  0  0  0
  1 16  1  0  0  0  0
  5  6  1  1  0  0  0
  5  7  1  0  0  0  0
  5 14  1  0  0  0  0
  7  8  1  1  0  0  0
  7  9  1  0  0  0  0
  9 10  1  1  0  0  0
  9 11  1  0  0  0  0
 11 12  1  1  0  0  0
 11 13  1  0  0  0  0
 13 14  1  0  0  0  0
 13 15  1  6  0  0  0
 15 16  1  0  0  0  0
M  CHG  1   3  -1
M  END
>  <CHROM.1>
-178.77422812,173.13761507,172.78273712,53.50629825,9.56569245,25.20737761
-2.20413606,-0.16070027,1.54661166

>  <Name>
ligand

>  <RI>
0

>  <Rbt.Current_Directory>
/home/itssahil/PROJECTS/Mol_Feturizer/New_Systems/rnas/3B4C

>  <Rbt.Executable>
rbdock ($Id: //depot/dev/client3/rdock/2013.1/src/exe/rbdock.cxx#4 $)

>  <Rbt.Library>
libRbt.so (2013.1, Build901 2013/11/27)

>  <Rbt.Parameter_File>
/export/apps/rDock/src/rDock_2013.1_src/data/scripts/dock_solv.prm

>  <Rbt.Receptor>
prm/blind_docking_80.prm

>  <SCORE>
-11.4615

>  <SCORE.INTER>
-10.1503

>  <SCORE.INTER.CONST>
1

>  <SCORE.INTER.POLAR>
0

>  <SCORE.INTER.ROT>
3

>  <SCORE.INTER.SOLV>
21.1874

>  <SCORE.INTER.VDW>
-19.4293

>  <SCORE.INTER.norm>
-0.634392

>  <SCORE.INTRA>
-1.3112

>  <SCORE.INTRA.DIHEDRAL>
-1.81093

>  <SCORE.INTRA.DIHEDRAL.0>
2.1318

>  <SCORE.INTRA.POLAR>
0

>  <SCORE.INTRA.POLAR.0>
0

>  <SCORE.INTRA.REPUL>
0

>  <SCORE.INTRA.REPUL.0>
0

>  <SCORE.INTRA.SOLV>
-0.398282

>  <SCORE.INTRA.SOLV.lig_0>
-58.6125

>  <SCORE.INTRA.VDW>
-0.20659

>  <SCORE.INTRA.VDW.0>
-0.432734

>  <SCORE.INTRA.norm>
-0.0819499

>  <SCORE.RESTR>
0

>  <SCORE.RESTR.CAVITY>
0

>  <SCORE.RESTR.norm>
0

>  <SCORE.SYSTEM>
0

>  <SCORE.SYSTEM.CONST>
0

>  <SCORE.SYSTEM.DIHEDRAL>
0

>  <SCORE.SYSTEM.SOLV>
0

>  <SCORE.SYSTEM.norm>
0

>  <SCORE.heavy>
16

>  <SCORE.norm>
-0.716342

>  <RMSD>
12.449

$$$$
ligand
 OpenBabel11021811463D
libRbt.so/2013.1/901 2013/11/27
 16 16  0  0  0  0  0  0  0  0999 V2000
   51.3869    9.6289   23.0615 P   0  0  2  0  0  0  0  0  0  0  0  0
   50.1884    8.7883   22.8195 O   0  0  0  0  0  0  0  0  0  0  0  0
   50.9303   11.0680   23.6175 O   0  5  0  0  0  0  0  0  0  0  0  0
   52.1746    9.8330   21.6696 O   0  0  0  0  0  0  0  0  0  0  0  0
   56.7636    8.9097   26.1510 C   0  0  2  0  0  0  0  0  0  0  0  0
   56.6992    7.4816   26.2417 O   0  0  0  0  0  0  0  0  0  0  0  0
   56.3506    9.5630   27.4951 C   0  0  2  0  0  0  0  0  0  0  0  0
   57.2373    9.0873   28.5741 N   0  0  0  0  0  0  0  0  0  0  0  0
   54.8943    9.1750   27.8016 C   0  0  1  0  0  0  0  0  0  0  0  0
   54.4723    9.7762   29.0287 O   0  0  0  0  0  0  0  0  0  0  0  0
   54.0214    9.6862   26.6567 C   0  0  2  0  0  0  0  0  0  0  0  0
   52.6687    9.3354   26.9194 O   0  0  0  0  0  0  0  0  0  0  0  0
   54.4964    9.0258   25.3337 C   0  0  2  0  0  0  0  0  0  0  0  0
   55.8924    9.3648   25.0702 O   0  0  0  0  0  0  0  0  0  0  0  0
   53.6434    9.5201   24.1392 C   0  0  0  0  0  0  0  0  0  0  0  0
   52.3440    8.9013   24.1479 O   0  0  0  0  0  0  0  0  0  0  0  0
  1  2  1  6  0  0  0
  1  3  1  0  0  0  0
  1  4  2  0  0  0  0
  1 16  1  0  0  0  0
  5  6  1  1  0  0  0
  5  7  1  0  0  0  0
  5 14  1  0  0  0  0
  7  8  1  1  0  0  0
  7  9  1  0  0  0  0
  9 10  1  1  0  0  0
  9 11  1  0  0  0  0
 11 12  1  1  0  0  0
 11 13  1  0  0  0  0
 13 14  1  0  0  0  0
 13 15  1  6  0  0  0
 15 16  1  0  0  0  0
M  CHG  1   3  -1
M  END
>  <CHROM.1>
-75.17380103,169.73101337,165.53701867,53.75522439,9.34301783,25.31746550
2.40828990,0.25784375,-1.71053391

>  <Name>
ligand

>  <RI>
0

>  <Rbt.Current_Directory>
/home/itssahil/PROJECTS/Mol_Feturizer/New_Systems/rnas/3B4C

>  <Rbt.Executable>
rbdock ($Id: //depot/dev/client3/rdock/2013.1/src/exe/rbdock.cxx#4 $)

>  <Rbt.Library>
libRbt.so (2013.1, Build901 2013/11/27)

>  <Rbt.Parameter_File>
/export/apps/rDock/src/rDock_2013.1_src/data/scripts/dock_solv.prm

>  <Rbt.Receptor>
prm/blind_docking_100.prm

>  <SCORE>
-14.1609

>  <SCORE.INTER>
-13.7496

>  <SCORE.INTER.CONST>
1

>  <SCORE.INTER.POLAR>
0

>  <SCORE.INTER.ROT>
3

>  <SCORE.INTER.SOLV>
16.8582

>  <SCORE.INTER.VDW>
-20.3858

>  <SCORE.INTER.norm>
-0.859351

>  <SCORE.INTRA>
-0.41128

>  <SCORE.INTRA.DIHEDRAL>
-0.512185

>  <SCORE.INTRA.DIHEDRAL.0>
2.1318

>  <SCORE.INTRA.POLAR>
0

>  <SCORE.INTRA.POLAR.0>
0

>  <SCORE.INTRA.REPUL>
0

>  <SCORE.INTRA.REPUL.0>
0

>  <SCORE.INTRA.SOLV>
0.286678

>  <SCORE.INTRA.SOLV.lig_0>
-58.6125

>  <SCORE.INTRA.VDW>
-0.298526

>  <SCORE.INTRA.VDW.0>
-0.432734

>  <SCORE.INTRA.norm>
-0.025705

>  <SCORE.RESTR>
0

>  <SCORE.RESTR.CAVITY>
0

>  <SCORE.RESTR.norm>
0

>  <SCORE.SYSTEM>
0

>  <SCORE.SYSTEM.CONST>
0

>  <SCORE.SYSTEM.DIHEDRAL>
0

>  <SCORE.SYSTEM.SOLV>
0

>  <SCORE.SYSTEM.norm>
0

>  <SCORE.heavy>
16

>  <SCORE.norm>
-0.885056

>  <RMSD>
12.642

$$$$
ligand
 OpenBabel11021811463D
libRbt.so/2013.1/901 2013/11/27
 16 16  0  0  0  0  0  0  0  0999 V2000
   57.7478    7.5798   27.3785 P   0  0  2  0  0  0  0  0  0  0  0  0
   57.6768    6.3557   26.5433 O   0  0  0  0  0  0  0  0  0  0  0  0
   59.2859    7.9138   27.7125 O   0  5  0  0  0  0  0  0  0  0  0  0
   56.9585    7.3191   28.7600 O   0  0  0  0  0  0  0  0  0  0  0  0
   53.8203    9.0528   23.8610 C   0  0  2  0  0  0  0  0  0  0  0  0
   54.4505   10.1630   23.2112 O   0  0  0  0  0  0  0  0  0  0  0  0
   52.4171    9.4507   24.3872 C   0  0  2  0  0  0  0  0  0  0  0  0
   51.5789    9.9195   23.2672 N   0  0  0  0  0  0  0  0  0  0  0  0
   52.5831   10.5730   25.4256 C   0  0  1  0  0  0  0  0  0  0  0  0
   51.3071   10.9539   25.9471 O   0  0  0  0  0  0  0  0  0  0  0  0
   53.4581   10.0388   26.5582 C   0  0  2  0  0  0  0  0  0  0  0  0
   53.6265   11.0632   27.5299 O   0  0  0  0  0  0  0  0  0  0  0  0
   54.8365    9.6275   25.9727 C   0  0  2  0  0  0  0  0  0  0  0  0
   54.6675    8.5908   24.9578 O   0  0  0  0  0  0  0  0  0  0  0  0
   55.7590    9.0712   27.0854 C   0  0  0  0  0  0  0  0  0  0  0  0
   57.0810    8.8190   26.5751 O   0  0  0  0  0  0  0  0  0  0  0  0
  1  2  1  6  0  0  0
  1  3  1  0  0  0  0
  1  4  2  0  0  0  0
  1 16  1  0  0  0  0
  5  6  1  1  0  0  0
  5  7  1  0  0  0  0
  5 14  1  0  0  0  0
  7  8  1  6  0  0  0
  7  9  1  0  0  0  0
  9 10  1  1  0  0  0
  9 11  1  0  0  0  0
 11 12  1  1  0  0  0
 11 13  1  0  0  0  0
 13 14  1  0  0  0  0
 13 15  1  1  0  0  0
 15 16  1  0  0  0  0
M  CHG  1   3  -1
M  END
>  <CHROM.1>
-174.03306871,-149.25195195,102.25555249,55.10330440,9.02170322,26.08735949
-0.30340183,0.54647995,-1.82551595

>  <Name>
ligand

>  <RI>
0

>  <Rbt.Current_Directory>
/home/itssahil/PROJECTS/Mol_Feturizer/New_Systems/rnas/3B4C

>  <Rbt.Executable>
rbdock ($Id: //depot/dev/client3/rdock/2013.1/src/exe/rbdock.cxx#4 $)

>  <Rbt.Library>
libRbt.so (2013.1, Build901 2013/11/27)

>  <Rbt.Parameter_File>
/export/apps/rDock/src/rDock_2013.1_src/data/scripts/dock_solv.prm

>  <Rbt.Receptor>
prm/blind_docking_100.prm

>  <SCORE>
-7.09814

>  <SCORE.INTER>
-9.1513

>  <SCORE.INTER.CONST>
1

>  <SCORE.INTER.POLAR>
0

>  <SCORE.INTER.ROT>
3

>  <SCORE.INTER.SOLV>
20.8224

>  <SCORE.INTER.VDW>
-18.6417

>  <SCORE.INTER.norm>
-0.571956

>  <SCORE.INTRA>
2.05315

>  <SCORE.INTRA.DIHEDRAL>
3.66407

>  <SCORE.INTRA.DIHEDRAL.0>
2.1318

>  <SCORE.INTRA.POLAR>
0

>  <SCORE.INTRA.POLAR.0>
0

>  <SCORE.INTRA.REPUL>
0

>  <SCORE.INTRA.REPUL.0>
0

>  <SCORE.INTRA.SOLV>
-0.42562

>  <SCORE.INTRA.SOLV.lig_0>
-58.6125

>  <SCORE.INTRA.VDW>
0.433925

>  <SCORE.INTRA.VDW.0>
-0.432734

>  <SCORE.INTRA.norm>
0.128322

>  <SCORE.RESTR>
0

>  <SCORE.RESTR.CAVITY>
0

>  <SCORE.RESTR.norm>
0

>  <SCORE.SYSTEM>
0

>  <SCORE.SYSTEM.CONST>
0

>  <SCORE.SYSTEM.DIHEDRAL>
0

>  <SCORE.SYSTEM.SOLV>
0

>  <SCORE.SYSTEM.norm>
0

>  <SCORE.heavy>
16

>  <SCORE.norm>
-0.443634

>  <RMSD>
12.675

$$$$
ligand
 OpenBabel11021811463D
libRbt.so/2013.1/901 2013/11/27
 16 16  0  0  0  0  0  0  0  0999 V2000
   38.6780   10.4721   14.0628 P   0  0  2  0  0  0  0  0  0  0  0  0
   40.1280   10.4437   14.3760 O   0  0  0  0  0  0  0  0  0  0  0  0
   37.8339   10.5327   15.4313 O   0  5  0  0  0  0  0  0  0  0  0  0
   38.2864    9.1255   13.2673 O   0  0  0  0  0  0  0  0  0  0  0  0
   34.2307   10.1523   11.1363 C   0  0  2  0  0  0  0  0  0  0  0  0
   34.5674    8.8031   11.4802 O   0  0  0  0  0  0  0  0  0  0  0  0
   34.6735   10.4745    9.6857 C   0  0  2  0  0  0  0  0  0  0  0  0
   34.0247    9.5394    8.7468 N   0  0  0  0  0  0  0  0  0  0  0  0
   36.2024   10.3326    9.5969 C   0  0  1  0  0  0  0  0  0  0  0  0
   36.6495   10.6406    8.2739 O   0  0  0  0  0  0  0  0  0  0  0  0
   36.8233   11.3164   10.5871 C   0  0  2  0  0  0  0  0  0  0  0  0
   38.2390   11.1998   10.5228 O   0  0  0  0  0  0  0  0  0  0  0  0
   36.3240   10.9686   12.0160 C   0  0  2  0  0  0  0  0  0  0  0  0
   34.8681   11.0652   12.0820 O   0  0  0  0  0  0  0  0  0  0  0  0
   36.9227   11.9463   13.0573 C   0  0  0  0  0  0  0  0  0  0  0  0
   38.3482   11.7756   13.1585 O   0  0  0  0  0  0  0  0  0  0  0  0
  1  2  1  1  0  0  0
  1  3  1  0  0  0  0
  1  4  2  0  0  0  0
  1 16  1  0  0  0  0
  5  6  1  1  0  0  0
  5  7  1  0  0  0  0
  5 14  1  0  0  0  0
  7  8  1  6  0  0  0
  7  9  1  0  0  0  0
  9 10  1  6  0  0  0
  9 11  1  0  0  0  0
 11 12  1  1  0  0  0
 11 13  1  0  0  0  0
 13 14  1  0  0  0  0
 13 15  1  1  0  0  0
 15 16  1  0  0  0  0
M  CHG  1   3  -1
M  END
>  <CHROM.1>
-66.22620911,-78.64010440,-169.48364603,36.87352571,10.53584198,11.93567595
0.85997198,0.26415598,1.69866119

>  <Name>
ligand

>  <RI>
0

>  <Rbt.Current_Directory>
/home/itssahil/PROJECTS/Mol_Feturizer/New_Systems/rnas/3B4C

>  <Rbt.Executable>
rbdock ($Id: //depot/dev/client3/rdock/2013.1/src/exe/rbdock.cxx#4 $)

>  <Rbt.Library>
libRbt.so (2013.1, Build901 2013/11/27)

>  <Rbt.Parameter_File>
/export/apps/rDock/src/rDock_2013.1_src/data/scripts/dock_solv.prm

>  <Rbt.Receptor>
prm/blind_docking_80.prm

>  <SCORE>
-6.11705

>  <SCORE.INTER>
-7.10043

>  <SCORE.INTER.CONST>
1

>  <SCORE.INTER.POLAR>
0

>  <SCORE.INTER.ROT>
3

>  <SCORE.INTER.SOLV>
15.6288

>  <SCORE.INTER.VDW>
-15.5432

>  <SCORE.INTER.norm>
-0.443777

>  <SCORE.INTRA>
0.983385

>  <SCORE.INTRA.DIHEDRAL>
-0.229312

>  <SCORE.INTRA.DIHEDRAL.0>
2.1318

>  <SCORE.INTRA.POLAR>
0

>  <SCORE.INTRA.POLAR.0>
0

>  <SCORE.INTRA.REPUL>
0

>  <SCORE.INTRA.REPUL.0>
0

>  <SCORE.INTRA.SOLV>
3.23154

>  <SCORE.INTRA.SOLV.lig_0>
-58.6125

>  <SCORE.INTRA.VDW>
-0.51773

>  <SCORE.INTRA.VDW.0>
-0.432734

>  <SCORE.INTRA.norm>
0.0614615

>  <SCORE.RESTR>
0

>  <SCORE.RESTR.CAVITY>
0

>  <SCORE.RESTR.norm>
0

>  <SCORE.SYSTEM>
0

>  <SCORE.SYSTEM.CONST>
0

>  <SCORE.SYSTEM.DIHEDRAL>
0

>  <SCORE.SYSTEM.SOLV>
0

>  <SCORE.SYSTEM.norm>
0

>  <SCORE.heavy>
16

>  <SCORE.norm>
-0.382316

>  <RMSD>
12.990

$$$$
ligand
 OpenBabel11021811463D
libRbt.so/2013.1/901 2013/11/27
 16 16  0  0  0  0  0  0  0  0999 V2000
   56.1272    9.2946   26.5972 P   0  0  2  0  0  0  0  0  0  0  0  0
   57.0565   10.0016   25.6818 O   0  0  0  0  0  0  0  0  0  0  0  0
   56.9262    8.8153   27.9089 O   0  5  0  0  0  0  0  0  0  0  0  0
   55.5342    7.9980   25.8444 O   0  0  0  0  0  0  0  0  0  0  0  0
   50.8685   11.4533   26.7089 C   0  0  2  0  0  0  0  0  0  0  0  0
   51.1865   12.7400   27.2521 O   0  0  0  0  0  0  0  0  0  0  0  0
   49.7985   10.7417   27.5765 C   0  0  2  0  0  0  0  0  0  0  0  0
   48.5811   11.5722   27.6476 N   0  0  0  0  0  0  0  0  0  0  0  0
   50.3733   10.5293   28.9872 C   0  0  1  0  0  0  0  0  0  0  0  0
   49.4178    9.8575   29.8123 O   0  0  0  0  0  0  0  0  0  0  0  0
   51.6293    9.6693   28.8576 C   0  0  2  0  0  0  0  0  0  0  0  0
   52.1791    9.4624   30.1525 O   0  0  0  0  0  0  0  0  0  0  0  0
   52.6526   10.4129   27.9564 C   0  0  2  0  0  0  0  0  0  0  0  0
   52.0848   10.6479   26.6314 O   0  0  0  0  0  0  0  0  0  0  0  0
   53.9440    9.5744   27.7890 C   0  0  0  0  0  0  0  0  0  0  0  0
   54.9264   10.2956   27.0234 O   0  0  0  0  0  0  0  0  0  0  0  0
  1  2  1  6  0  0  0
  1  3  1  0  0  0  0
  1  4  2  0  0  0  0
  1 16  1  0  0  0  0
  5  6  1  1  0  0  0
  5  7  1  0  0  0  0
  5 14  1  0  0  0  0
  7  8  1  1  0  0  0
  7  9  1  0  0  0  0
  9 10  1  1  0  0  0
  9 11  1  0  0  0  0
 11 12  1  1  0  0  0
 11 13  1  0  0  0  0
 13 14  1  0  0  0  0
 13 15  1  6  0  0  0
 15 16  1  0  0  0  0
M  CHG  1   3  -1
M  END
>  <CHROM.1>
-176.43287878,-168.07107533,173.62771617,53.02855404,10.11039396,27.56640465
0.07398924,0.36064851,-0.97071829

>  <Name>
ligand

>  <RI>
0

>  <Rbt.Current_Directory>
/home/itssahil/PROJECTS/Mol_Feturizer/New_Systems/rnas/3B4C

>  <Rbt.Executable>
rbdock ($Id: //depot/dev/client3/rdock/2013.1/src/exe/rbdock.cxx#4 $)

>  <Rbt.Library>
libRbt.so (2013.1, Build901 2013/11/27)

>  <Rbt.Parameter_File>
/export/apps/rDock/src/rDock_2013.1_src/data/scripts/dock_solv.prm

>  <Rbt.Receptor>
prm/blind_docking_100.prm

>  <SCORE>
-9.63682

>  <SCORE.INTER>
-8.63187

>  <SCORE.INTER.CONST>
1

>  <SCORE.INTER.POLAR>
-1.46969

>  <SCORE.INTER.ROT>
3

>  <SCORE.INTER.SOLV>
22.4771

>  <SCORE.INTER.VDW>
-13.948

>  <SCORE.INTER.norm>
-0.539492

>  <SCORE.INTRA>
-1.09984

>  <SCORE.INTRA.DIHEDRAL>
-1.3382

>  <SCORE.INTRA.DIHEDRAL.0>
2.1318

>  <SCORE.INTRA.POLAR>
0

>  <SCORE.INTRA.POLAR.0>
0

>  <SCORE.INTRA.REPUL>
0

>  <SCORE.INTRA.REPUL.0>
0

>  <SCORE.INTRA.SOLV>
-0.313376

>  <SCORE.INTRA.SOLV.lig_0>
-58.6125

>  <SCORE.INTRA.VDW>
-0.274054

>  <SCORE.INTRA.VDW.0>
-0.432734

>  <SCORE.INTRA.norm>
-0.0687401

>  <SCORE.RESTR>
0.0948974

>  <SCORE.RESTR.CAVITY>
0.0948974

>  <SCORE.RESTR.norm>
0.00593109

>  <SCORE.SYSTEM>
0

>  <SCORE.SYSTEM.CONST>
0

>  <SCORE.SYSTEM.DIHEDRAL>
0

>  <SCORE.SYSTEM.SOLV>
0

>  <SCORE.SYSTEM.norm>
0

>  <SCORE.heavy>
16

>  <SCORE.norm>
-0.602301

>  <RMSD>
13.063

$$$$
ligand
 OpenBabel11021811463D
libRbt.so/2013.1/901 2013/11/27
 16 16  0  0  0  0  0  0  0  0999 V2000
   34.5723   10.6056    8.8853 P   0  0  2  0  0  0  0  0  0  0  0  0
   34.9999    9.3678    8.1879 O   0  0  0  0  0  0  0  0  0  0  0  0
   33.2635   10.2991    9.7696 O   0  5  0  0  0  0  0  0  0  0  0  0
   34.2086   11.7281    7.7865 O   0  0  0  0  0  0  0  0  0  0  0  0
   38.5849    9.8901   13.6203 C   0  0  2  0  0  0  0  0  0  0  0  0
   38.2238   11.0818   14.3284 O   0  0  0  0  0  0  0  0  0  0  0  0
   39.9059   10.0983   12.8357 C   0  0  2  0  0  0  0  0  0  0  0  0
   40.9854   10.4758   13.7678 N   0  0  0  0  0  0  0  0  0  0  0  0
   39.6904   11.2151   11.8005 C   0  0  1  0  0  0  0  0  0  0  0  0
   40.8861   11.4227   11.0439 O   0  0  0  0  0  0  0  0  0  0  0  0
   38.5646   10.7772   10.8651 C   0  0  2  0  0  0  0  0  0  0  0  0
   38.3471   11.7983    9.8998 O   0  0  0  0  0  0  0  0  0  0  0  0
   37.2770   10.5536   11.7042 C   0  0  2  0  0  0  0  0  0  0  0  0
   37.5016    9.5209   12.7124 O   0  0  0  0  0  0  0  0  0  0  0  0
   36.1059   10.1002   10.7979 C   0  0  0  0  0  0  0  0  0  0  0  0
   35.7711   11.1247    9.8440 O   0  0  0  0  0  0  0  0  0  0  0  0
  1  2  1  6  0  0  0
  1  3  1  0  0  0  0
  1  4  2  0  0  0  0
  1 16  1  0  0  0  0
  5  6  1  6  0  0  0
  5  7  1  0  0  0  0
  5 14  1  0  0  0  0
  7  8  1  1  0  0  0
  7  9  1  0  0  0  0
  9 10  1  6  0  0  0
  9 11  1  0  0  0  0
 11 12  1  6  0  0  0
 11 13  1  0  0  0  0
 13 14  1  0  0  0  0
 13 15  1  6  0  0  0
 15 16  1  0  0  0  0
M  CHG  1   3  -1
M  END
>  <CHROM.1>
-63.29249621,178.44014173,-58.73584109,37.16176262,10.63988892,10.90256897
-2.52056309,0.23832570,1.88065542

>  <Name>
ligand

>  <RI>
0

>  <Rbt.Current_Directory>
/home/itssahil/PROJECTS/Mol_Feturizer/New_Systems/rnas/3B4C

>  <Rbt.Executable>
rbdock ($Id: //depot/dev/client3/rdock/2013.1/src/exe/rbdock.cxx#4 $)

>  <Rbt.Library>
libRbt.so (2013.1, Build901 2013/11/27)

>  <Rbt.Parameter_File>
/export/apps/rDock/src/rDock_2013.1_src/data/scripts/dock_solv.prm

>  <Rbt.Receptor>
prm/blind_docking_60.prm

>  <SCORE>
-9.04124

>  <SCORE.INTER>
-7.63933

>  <SCORE.INTER.CONST>
1

>  <SCORE.INTER.POLAR>
0

>  <SCORE.INTER.ROT>
3

>  <SCORE.INTER.SOLV>
12.4665

>  <SCORE.INTER.VDW>
-14.8484

>  <SCORE.INTER.norm>
-0.477458

>  <SCORE.INTRA>
-1.40191

>  <SCORE.INTRA.DIHEDRAL>
-2.07626

>  <SCORE.INTRA.DIHEDRAL.0>
2.1318

>  <SCORE.INTRA.POLAR>
0

>  <SCORE.INTRA.POLAR.0>
0

>  <SCORE.INTRA.REPUL>
0

>  <SCORE.INTRA.REPUL.0>
0

>  <SCORE.INTRA.SOLV>
-0.603914

>  <SCORE.INTRA.SOLV.lig_0>
-58.6125

>  <SCORE.INTRA.VDW>
-0.0618208

>  <SCORE.INTRA.VDW.0>
-0.432734

>  <SCORE.INTRA.norm>
-0.0876191

>  <SCORE.RESTR>
0

>  <SCORE.RESTR.CAVITY>
0

>  <SCORE.RESTR.norm>
0

>  <SCORE.SYSTEM>
0

>  <SCORE.SYSTEM.CONST>
0

>  <SCORE.SYSTEM.DIHEDRAL>
0

>  <SCORE.SYSTEM.SOLV>
0

>  <SCORE.SYSTEM.norm>
0

>  <SCORE.heavy>
16

>  <SCORE.norm>
-0.565077

>  <RMSD>
13.200

$$$$
ligand
 OpenBabel11021811463D
libRbt.so/2013.1/901 2013/11/27
 16 16  0  0  0  0  0  0  0  0999 V2000
   33.1242   10.3191   12.3369 P   0  0  2  0  0  0  0  0  0  0  0  0
   32.0522   10.8025   13.2417 O   0  0  0  0  0  0  0  0  0  0  0  0
   32.9912   11.0483   10.9089 O   0  5  0  0  0  0  0  0  0  0  0  0
   32.9577    8.7290   12.1285 O   0  0  0  0  0  0  0  0  0  0  0  0
   38.5366   10.2745   14.4238 C   0  0  2  0  0  0  0  0  0  0  0  0
   38.5325   11.6541   14.8091 O   0  0  0  0  0  0  0  0  0  0  0  0
   39.6881    9.9879   13.4259 C   0  0  2  0  0  0  0  0  0  0  0  0
   40.9813   10.3417   14.0417 N   0  0  0  0  0  0  0  0  0  0  0  0
   39.4605   10.8306   12.1596 C   0  0  1  0  0  0  0  0  0  0  0  0
   40.4967   10.5777   11.2070 O   0  0  0  0  0  0  0  0  0  0  0  0
   38.1118   10.4291   11.5648 C   0  0  2  0  0  0  0  0  0  0  0  0
   37.8801   11.1993   10.3923 O   0  0  0  0  0  0  0  0  0  0  0  0
   37.0008   10.7074   12.6138 C   0  0  2  0  0  0  0  0  0  0  0  0
   37.2460    9.9353   13.8292 O   0  0  0  0  0  0  0  0  0  0  0  0
   35.6116   10.3082   12.0576 C   0  0  0  0  0  0  0  0  0  0  0  0
   34.5697   10.6525   12.9889 O   0  0  0  0  0  0  0  0  0  0  0  0
  1  2  1  1  0  0  0
  1  3  1  0  0  0  0
  1  4  2  0  0  0  0
  1 16  1  0  0  0  0
  5  6  1  6  0  0  0
  5  7  1  0  0  0  0
  5 14  1  0  0  0  0
  7  8  1  1  0  0  0
  7  9  1  0  0  0  0
  9 10  1  6  0  0  0
  9 11  1  0  0  0  0
 11 12  1  6  0  0  0
 11 13  1  0  0  0  0
 13 14  1  0  0  0  0
 13 15  1  6  0  0  0
 15 16  1  0  0  0  0
M  CHG  1   3  -1
M  END
>  <CHROM.1>
-175.90140332,176.05259667,-174.27359421,36.48187275,10.48233466,12.59679763
3.04207542,-0.04986183,-1.51618237

>  <Name>
ligand

>  <RI>
0

>  <Rbt.Current_Directory>
/home/itssahil/PROJECTS/Mol_Feturizer/New_Systems/rnas/3B4C

>  <Rbt.Executable>
rbdock ($Id: //depot/dev/client3/rdock/2013.1/src/exe/rbdock.cxx#4 $)

>  <Rbt.Library>
libRbt.so (2013.1, Build901 2013/11/27)

>  <Rbt.Parameter_File>
/export/apps/rDock/src/rDock_2013.1_src/data/scripts/dock_solv.prm

>  <Rbt.Receptor>
prm/blind_docking_100.prm

>  <SCORE>
-9.86441

>  <SCORE.INTER>
-8.48409

>  <SCORE.INTER.CONST>
1

>  <SCORE.INTER.POLAR>
0

>  <SCORE.INTER.ROT>
3

>  <SCORE.INTER.SOLV>
17.3581

>  <SCORE.INTER.VDW>
-17.0421

>  <SCORE.INTER.norm>
-0.530255

>  <SCORE.INTRA>
-1.38033

>  <SCORE.INTRA.DIHEDRAL>
-1.9356

>  <SCORE.INTRA.DIHEDRAL.0>
2.1318

>  <SCORE.INTRA.POLAR>
0

>  <SCORE.INTRA.POLAR.0>
0

>  <SCORE.INTRA.REPUL>
0

>  <SCORE.INTRA.REPUL.0>
0

>  <SCORE.INTRA.SOLV>
-0.406303

>  <SCORE.INTRA.SOLV.lig_0>
-58.6125

>  <SCORE.INTRA.VDW>
-0.209378

>  <SCORE.INTRA.VDW.0>
-0.432734

>  <SCORE.INTRA.norm>
-0.0862704

>  <SCORE.RESTR>
0

>  <SCORE.RESTR.CAVITY>
0

>  <SCORE.RESTR.norm>
0

>  <SCORE.SYSTEM>
0

>  <SCORE.SYSTEM.CONST>
0

>  <SCORE.SYSTEM.DIHEDRAL>
0

>  <SCORE.SYSTEM.SOLV>
0

>  <SCORE.SYSTEM.norm>
0

>  <SCORE.heavy>
16

>  <SCORE.norm>
-0.616526

>  <RMSD>
13.461

$$$$
ligand
 OpenBabel11021811463D
libRbt.so/2013.1/901 2013/11/27
 16 16  0  0  0  0  0  0  0  0999 V2000
   33.1101   10.2678   12.3466 P   0  0  2  0  0  0  0  0  0  0  0  0
   32.0095   10.7034   13.2412 O   0  0  0  0  0  0  0  0  0  0  0  0
   32.9643   10.9984   10.9205 O   0  5  0  0  0  0  0  0  0  0  0  0
   33.0096    8.6734   12.1289 O   0  0  0  0  0  0  0  0  0  0  0  0
   38.5026   10.2907   14.4717 C   0  0  2  0  0  0  0  0  0  0  0  0
   38.4487   11.6401   14.9491 O   0  0  0  0  0  0  0  0  0  0  0  0
   39.6708   10.1109   13.4683 C   0  0  2  0  0  0  0  0  0  0  0  0
   40.9465   10.4651   14.1194 N   0  0  0  0  0  0  0  0  0  0  0  0
   39.4245   11.0294   12.2595 C   0  0  1  0  0  0  0  0  0  0  0  0
   40.4760   10.8764   11.3024 O   0  0  0  0  0  0  0  0  0  0  0  0
   38.0949   10.6244   11.6255 C   0  0  2  0  0  0  0  0  0  0  0  0
   37.8462   11.4642   10.5054 O   0  0  0  0  0  0  0  0  0  0  0  0
   36.9671   10.7938   12.6798 C   0  0  2  0  0  0  0  0  0  0  0  0
   37.2289    9.9497   13.8427 O   0  0  0  0  0  0  0  0  0  0  0  0
   35.5965   10.3871   12.0840 C   0  0  0  0  0  0  0  0  0  0  0  0
   34.5336   10.6553   13.0167 O   0  0  0  0  0  0  0  0  0  0  0  0
  1  2  1  1  0  0  0
  1  3  1  0  0  0  0
  1  4  2  0  0  0  0
  1 16  1  0  0  0  0
  5  6  1  6  0  0  0
  5  7  1  0  0  0  0
  5 14  1  0  0  0  0
  7  8  1  1  0  0  0
  7  9  1  0  0  0  0
  9 10  1  6  0  0  0
  9 11  1  0  0  0  0
 11 12  1  6  0  0  0
 11 13  1  0  0  0  0
 13 14  1  0  0  0  0
 13 15  1  6  0  0  0
 15 16  1  0  0  0  0
M  CHG  1   3  -1
M  END
>  <CHROM.1>
-174.85142410,178.05779440,-172.92252148,36.45696928,10.54226015,12.64560547
3.03844809,-0.08869891,-1.44836908

>  <Name>
ligand

>  <RI>
0

>  <Rbt.Current_Directory>
/home/itssahil/PROJECTS/Mol_Feturizer/New_Systems/rnas/3B4C

>  <Rbt.Executable>
rbdock ($Id: //depot/dev/client3/rdock/2013.1/src/exe/rbdock.cxx#4 $)

>  <Rbt.Library>
libRbt.so (2013.1, Build901 2013/11/27)

>  <Rbt.Parameter_File>
/export/apps/rDock/src/rDock_2013.1_src/data/scripts/dock_solv.prm

>  <Rbt.Receptor>
prm/blind_docking_60.prm

>  <SCORE>
-9.98577

>  <SCORE.INTER>
-8.61833

>  <SCORE.INTER.CONST>
1

>  <SCORE.INTER.POLAR>
0

>  <SCORE.INTER.ROT>
3

>  <SCORE.INTER.SOLV>
17.52

>  <SCORE.INTER.VDW>
-17.1856

>  <SCORE.INTER.norm>
-0.538646

>  <SCORE.INTRA>
-1.36743

>  <SCORE.INTRA.DIHEDRAL>
-1.93023

>  <SCORE.INTRA.DIHEDRAL.0>
2.1318

>  <SCORE.INTRA.POLAR>
0

>  <SCORE.INTRA.POLAR.0>
0

>  <SCORE.INTRA.REPUL>
0

>  <SCORE.INTRA.REPUL.0>
0

>  <SCORE.INTRA.SOLV>
-0.404525

>  <SCORE.INTRA.SOLV.lig_0>
-58.6125

>  <SCORE.INTRA.VDW>
-0.200059

>  <SCORE.INTRA.VDW.0>
-0.432734

>  <SCORE.INTRA.norm>
-0.0854647

>  <SCORE.RESTR>
0

>  <SCORE.RESTR.CAVITY>
0

>  <SCORE.RESTR.norm>
0

>  <SCORE.SYSTEM>
0

>  <SCORE.SYSTEM.CONST>
0

>  <SCORE.SYSTEM.DIHEDRAL>
0

>  <SCORE.SYSTEM.SOLV>
0

>  <SCORE.SYSTEM.norm>
0

>  <SCORE.heavy>
16

>  <SCORE.norm>
-0.624111

>  <RMSD>
13.463

$$$$
ligand
 OpenBabel11021811463D
libRbt.so/2013.1/901 2013/11/27
 16 16  0  0  0  0  0  0  0  0999 V2000
   49.3809   11.2873   28.5776 P   0  0  2  0  0  0  0  0  0  0  0  0
   48.6796   11.9926   29.6785 O   0  0  0  0  0  0  0  0  0  0  0  0
   48.4464   11.2722   27.2679 O   0  5  0  0  0  0  0  0  0  0  0  0
   49.6712    9.7670   29.0292 O   0  0  0  0  0  0  0  0  0  0  0  0
   53.5751    9.2820   25.3896 C   0  0  2  0  0  0  0  0  0  0  0  0
   52.9022    8.0686   25.7455 O   0  0  0  0  0  0  0  0  0  0  0  0
   54.8092    9.5111   26.2999 C   0  0  2  0  0  0  0  0  0  0  0  0
   55.7356    8.3690   26.1810 N   0  0  0  0  0  0  0  0  0  0  0  0
   54.3271    9.6481   27.7539 C   0  0  1  0  0  0  0  0  0  0  0  0
   55.4398    9.8791   28.6220 O   0  0  0  0  0  0  0  0  0  0  0  0
   53.3719   10.8385   27.8215 C   0  0  2  0  0  0  0  0  0  0  0  0
   52.9116   10.9818   29.1592 O   0  0  0  0  0  0  0  0  0  0  0  0
   52.1731   10.5712   26.8709 C   0  0  2  0  0  0  0  0  0  0  0  0
   52.6425   10.4011   25.4982 O   0  0  0  0  0  0  0  0  0  0  0  0
   51.1778   11.7574   26.8996 C   0  0  0  0  0  0  0  0  0  0  0  0
   50.7714   12.0515   28.2487 O   0  0  0  0  0  0  0  0  0  0  0  0
  1  2  1  1  0  0  0
  1  3  1  0  0  0  0
  1  4  2  0  0  0  0
  1 16  1  0  0  0  0
  5  6  1  1  0  0  0
  5  7  1  0  0  0  0
  5 14  1  0  0  0  0
  7  8  1  1  0  0  0
  7  9  1  0  0  0  0
  9 10  1  1  0  0  0
  9 11  1  0  0  0  0
 11 12  1  1  0  0  0
 11 13  1  0  0  0  0
 13 14  1  0  0  0  0
 13 15  1  6  0  0  0
 15 16  1  0  0  0  0
M  CHG  1   3  -1
M  END
>  <CHROM.1>
-53.81401738,-94.86266944,-156.46094448,51.97855600,10.43775413,27.55818725
-2.69018269,0.22576931,-1.97610140

>  <Name>
ligand

>  <RI>
0

>  <Rbt.Current_Directory>
/home/itssahil/PROJECTS/Mol_Feturizer/New_Systems/rnas/3B4C

>  <Rbt.Executable>
rbdock ($Id: //depot/dev/client3/rdock/2013.1/src/exe/rbdock.cxx#4 $)

>  <Rbt.Library>
libRbt.so (2013.1, Build901 2013/11/27)

>  <Rbt.Parameter_File>
/export/apps/rDock/src/rDock_2013.1_src/data/scripts/dock_solv.prm

>  <Rbt.Receptor>
prm/blind_docking_80.prm

>  <SCORE>
-10.6417

>  <SCORE.INTER>
-13.463

>  <SCORE.INTER.CONST>
1

>  <SCORE.INTER.POLAR>
-1.83518

>  <SCORE.INTER.ROT>
3

>  <SCORE.INTER.SOLV>
22.6949

>  <SCORE.INTER.VDW>
-16.0231

>  <SCORE.INTER.norm>
-0.84144

>  <SCORE.INTRA>
2.82131

>  <SCORE.INTRA.DIHEDRAL>
3.32365

>  <SCORE.INTRA.DIHEDRAL.0>
2.1318

>  <SCORE.INTRA.POLAR>
0

>  <SCORE.INTRA.POLAR.0>
0

>  <SCORE.INTRA.REPUL>
0

>  <SCORE.INTRA.REPUL.0>
0

>  <SCORE.INTRA.SOLV>
2.30864

>  <SCORE.INTRA.SOLV.lig_0>
-58.6125

>  <SCORE.INTRA.VDW>
0.00516872

>  <SCORE.INTRA.VDW.0>
-0.432734

>  <SCORE.INTRA.norm>
0.176332

>  <SCORE.RESTR>
0

>  <SCORE.RESTR.CAVITY>
0

>  <SCORE.RESTR.norm>
0

>  <SCORE.SYSTEM>
0

>  <SCORE.SYSTEM.CONST>
0

>  <SCORE.SYSTEM.DIHEDRAL>
0

>  <SCORE.SYSTEM.SOLV>
0

>  <SCORE.SYSTEM.norm>
0

>  <SCORE.heavy>
16

>  <SCORE.norm>
-0.665108

>  <RMSD>
13.640

$$$$
ligand
 OpenBabel11021811463D
libRbt.so/2013.1/901 2013/11/27
 16 16  0  0  0  0  0  0  0  0999 V2000
   49.0794   10.9210   28.2706 P   0  0  2  0  0  0  0  0  0  0  0  0
   48.6826   11.5906   27.0074 O   0  0  0  0  0  0  0  0  0  0  0  0
   47.9834    9.8078   28.6558 O   0  5  0  0  0  0  0  0  0  0  0  0
   49.1440   12.0195   29.4490 O   0  0  0  0  0  0  0  0  0  0  0  0
   54.2502    9.9067   25.0546 C   0  0  2  0  0  0  0  0  0  0  0  0
   54.0558    8.4884   25.1052 O   0  0  0  0  0  0  0  0  0  0  0  0
   55.4157   10.3333   25.9839 C   0  0  2  0  0  0  0  0  0  0  0  0
   56.6546    9.6413   25.5799 N   0  0  0  0  0  0  0  0  0  0  0  0
   55.0517    9.9584   27.4304 C   0  0  1  0  0  0  0  0  0  0  0  0
   56.0989   10.3544   28.3202 O   0  0  0  0  0  0  0  0  0  0  0  0
   53.7650   10.6961   27.7968 C   0  0  2  0  0  0  0  0  0  0  0  0
   53.4086   10.3612   29.1319 O   0  0  0  0  0  0  0  0  0  0  0  0
   52.6416   10.2563   26.8187 C   0  0  2  0  0  0  0  0  0  0  0  0
   53.0122   10.5780   25.4430 O   0  0  0  0  0  0  0  0  0  0  0  0
   51.3151   10.9852   27.1467 C   0  0  0  0  0  0  0  0  0  0  0  0
   50.5269   10.2192   28.0760 O   0  0  0  0  0  0  0  0  0  0  0  0
  1  2  1  6  0  0  0
  1  3  1  0  0  0  0
  1  4  2  0  0  0  0
  1 16  1  0  0  0  0
  5  6  1  1  0  0  0
  5  7  1  0  0  0  0
  5 14  1  0  0  0  0
  7  8  1  6  0  0  0
  7  9  1  0  0  0  0
  9 10  1  1  0  0  0
  9 11  1  0  0  0  0
 11 12  1  1  0  0  0
 11 13  1  0  0  0  0
 13 14  1  0  0  0  0
 13 15  1  1  0  0  0
 15 16  1  0  0  0  0
M  CHG  1   3  -1
M  END
>  <CHROM.1>
-90.96984346,-173.66201455,31.78785248,52.24018251,10.42448456,27.31574066
2.80890035,-0.08574848,1.31535406

>  <Name>
ligand

>  <RI>
0

>  <Rbt.Current_Directory>
/home/itssahil/PROJECTS/Mol_Feturizer/New_Systems/rnas/3B4C

>  <Rbt.Executable>
rbdock ($Id: //depot/dev/client3/rdock/2013.1/src/exe/rbdock.cxx#4 $)

>  <Rbt.Library>
libRbt.so (2013.1, Build901 2013/11/27)

>  <Rbt.Parameter_File>
/export/apps/rDock/src/rDock_2013.1_src/data/scripts/dock_solv.prm

>  <Rbt.Receptor>
prm/blind_docking_80.prm

>  <SCORE>
-13.2964

>  <SCORE.INTER>
-14.1527

>  <SCORE.INTER.CONST>
1

>  <SCORE.INTER.POLAR>
-1.46614

>  <SCORE.INTER.ROT>
3

>  <SCORE.INTER.SOLV>
24.3993

>  <SCORE.INTER.VDW>
-18.2811

>  <SCORE.INTER.norm>
-0.884546

>  <SCORE.INTRA>
0.795381

>  <SCORE.INTRA.DIHEDRAL>
1.9144

>  <SCORE.INTRA.DIHEDRAL.0>
2.1318

>  <SCORE.INTRA.POLAR>
0

>  <SCORE.INTRA.POLAR.0>
0

>  <SCORE.INTRA.REPUL>
0

>  <SCORE.INTRA.REPUL.0>
0

>  <SCORE.INTRA.SOLV>
-1.23134

>  <SCORE.INTRA.SOLV.lig_0>
-58.6125

>  <SCORE.INTRA.VDW>
0.453853

>  <SCORE.INTRA.VDW.0>
-0.432734

>  <SCORE.INTRA.norm>
0.0497113

>  <SCORE.RESTR>
0.060988

>  <SCORE.RESTR.CAVITY>
0.060988

>  <SCORE.RESTR.norm>
0.00381175

>  <SCORE.SYSTEM>
0

>  <SCORE.SYSTEM.CONST>
0

>  <SCORE.SYSTEM.DIHEDRAL>
0

>  <SCORE.SYSTEM.SOLV>
0

>  <SCORE.SYSTEM.norm>
0

>  <SCORE.heavy>
16

>  <SCORE.norm>
-0.831023

>  <RMSD>
13.676

$$$$
ligand
 OpenBabel11021811463D
libRbt.so/2013.1/901 2013/11/27
 16 16  0  0  0  0  0  0  0  0999 V2000
   33.1300    9.8168   11.6275 P   0  0  2  0  0  0  0  0  0  0  0  0
   32.9265    8.4724   11.0338 O   0  0  0  0  0  0  0  0  0  0  0  0
   31.8323   10.2272   12.4856 O   0  5  0  0  0  0  0  0  0  0  0  0
   33.3316   10.8895   10.4408 O   0  0  0  0  0  0  0  0  0  0  0  0
   39.2039    8.8123   12.6708 C   0  0  2  0  0  0  0  0  0  0  0  0
   39.0151    7.7565   13.6203 O   0  0  0  0  0  0  0  0  0  0  0  0
   39.5619   10.1383   13.3903 C   0  0  2  0  0  0  0  0  0  0  0  0
   40.7882    9.9564   14.1902 N   0  0  0  0  0  0  0  0  0  0  0  0
   38.3902   10.5311   14.3058 C   0  0  1  0  0  0  0  0  0  0  0  0
   38.6785   11.7623   14.9738 O   0  0  0  0  0  0  0  0  0  0  0  0
   37.1491   10.7036   13.4319 C   0  0  2  0  0  0  0  0  0  0  0  0
   36.0514   11.0652   14.2603 O   0  0  0  0  0  0  0  0  0  0  0  0
   36.8541    9.3590   12.7128 C   0  0  2  0  0  0  0  0  0  0  0  0
   37.9877    8.9713   11.8773 O   0  0  0  0  0  0  0  0  0  0  0  0
   35.6047    9.4864   11.8065 C   0  0  0  0  0  0  0  0  0  0  0  0
   34.4346    9.7890   12.5881 O   0  0  0  0  0  0  0  0  0  0  0  0
  1  2  1  6  0  0  0
  1  3  1  0  0  0  0
  1  4  2  0  0  0  0
  1 16  1  0  0  0  0
  5  6  1  1  0  0  0
  5  7  1  0  0  0  0
  5 14  1  0  0  0  0
  7  8  1  1  0  0  0
  7  9  1  0  0  0  0
  9 10  1  6  0  0  0
  9 11  1  0  0  0  0
 11 12  1  1  0  0  0
 11 13  1  0  0  0  0
 13 14  1  0  0  0  0
 13 15  1  6  0  0  0
 15 16  1  0  0  0  0
M  CHG  1   3  -1
M  END
>  <CHROM.1>
-62.45456607,-176.19022416,62.66161740,36.23018912,9.85526247,12.73653799
-2.92876068,-0.27091174,0.67317301

>  <Name>
ligand

>  <RI>
0

>  <Rbt.Current_Directory>
/home/itssahil/PROJECTS/Mol_Feturizer/New_Systems/rnas/3B4C

>  <Rbt.Executable>
rbdock ($Id: //depot/dev/client3/rdock/2013.1/src/exe/rbdock.cxx#4 $)

>  <Rbt.Library>
libRbt.so (2013.1, Build901 2013/11/27)

>  <Rbt.Parameter_File>
/export/apps/rDock/src/rDock_2013.1_src/data/scripts/dock_solv.prm

>  <Rbt.Receptor>
prm/blind_docking_80.prm

>  <SCORE>
-8.75935

>  <SCORE.INTER>
-7.3986

>  <SCORE.INTER.CONST>
1

>  <SCORE.INTER.POLAR>
0

>  <SCORE.INTER.ROT>
3

>  <SCORE.INTER.SOLV>
16.2262

>  <SCORE.INTER.VDW>
-15.9411

>  <SCORE.INTER.norm>
-0.462412

>  <SCORE.INTRA>
-1.36076

>  <SCORE.INTRA.DIHEDRAL>
-2.02452

>  <SCORE.INTRA.DIHEDRAL.0>
2.1318

>  <SCORE.INTRA.POLAR>
0

>  <SCORE.INTRA.POLAR.0>
0

>  <SCORE.INTRA.REPUL>
0

>  <SCORE.INTRA.REPUL.0>
0

>  <SCORE.INTRA.SOLV>
-0.621273

>  <SCORE.INTRA.SOLV.lig_0>
-58.6125

>  <SCORE.INTRA.VDW>
-0.0378624

>  <SCORE.INTRA.VDW.0>
-0.432734

>  <SCORE.INTRA.norm>
-0.0850474

>  <SCORE.RESTR>
0

>  <SCORE.RESTR.CAVITY>
0

>  <SCORE.RESTR.norm>
0

>  <SCORE.SYSTEM>
0

>  <SCORE.SYSTEM.CONST>
0

>  <SCORE.SYSTEM.DIHEDRAL>
0

>  <SCORE.SYSTEM.SOLV>
0

>  <SCORE.SYSTEM.norm>
0

>  <SCORE.heavy>
16

>  <SCORE.norm>
-0.54746

>  <RMSD>
13.711

$$$$
ligand
 OpenBabel11021811463D
libRbt.so/2013.1/901 2013/11/27
 16 16  0  0  0  0  0  0  0  0999 V2000
   32.8385   10.1497   12.1429 P   0  0  2  0  0  0  0  0  0  0  0  0
   31.7545   10.1313   13.1558 O   0  0  0  0  0  0  0  0  0  0  0  0
   32.5791   11.3473   11.1002 O   0  5  0  0  0  0  0  0  0  0  0  0
   32.8326    8.7502   11.3424 O   0  0  0  0  0  0  0  0  0  0  0  0
   38.2878    9.6829   14.0230 C   0  0  2  0  0  0  0  0  0  0  0  0
   38.2021   10.7525   14.9719 O   0  0  0  0  0  0  0  0  0  0  0  0
   39.4268    9.9445   13.0041 C   0  0  2  0  0  0  0  0  0  0  0  0
   40.7105   10.0880   13.7171 N   0  0  0  0  0  0  0  0  0  0  0  0
   39.1068   11.2356   12.2320 C   0  0  1  0  0  0  0  0  0  0  0  0
   40.1298   11.4993   11.2681 O   0  0  0  0  0  0  0  0  0  0  0  0
   37.7716   11.0361   11.5169 C   0  0  2  0  0  0  0  0  0  0  0  0
   37.4551   12.2210   10.7974 O   0  0  0  0  0  0  0  0  0  0  0  0
   36.6751   10.7477   12.5783 C   0  0  2  0  0  0  0  0  0  0  0  0
   37.0064    9.5435   13.3355 O   0  0  0  0  0  0  0  0  0  0  0  0
   35.3004   10.5306   11.8988 C   0  0  0  0  0  0  0  0  0  0  0  0
   34.2632   10.3681   12.8834 O   0  0  0  0  0  0  0  0  0  0  0  0
  1  2  1  1  0  0  0
  1  3  1  0  0  0  0
  1  4  2  0  0  0  0
  1 16  1  0  0  0  0
  5  6  1  1  0  0  0
  5  7  1  0  0  0  0
  5 14  1  0  0  0  0
  7  8  1  1  0  0  0
  7  9  1  0  0  0  0
  9 10  1  6  0  0  0
  9 11  1  0  0  0  0
 11 12  1  1  0  0  0
 11 13  1  0  0  0  0
 13 14  1  0  0  0  0
 13 15  1  6  0  0  0
 15 16  1  0  0  0  0
M  CHG  1   3  -1
M  END
>  <CHROM.1>
-175.45488993,179.75110342,-173.86421298,36.17654105,10.48227322,12.46172673
3.08201970,-0.12787436,-1.06000823

>  <Name>
ligand

>  <RI>
0

>  <Rbt.Current_Directory>
/home/itssahil/PROJECTS/Mol_Feturizer/New_Systems/rnas/3B4C

>  <Rbt.Executable>
rbdock ($Id: //depot/dev/client3/rdock/2013.1/src/exe/rbdock.cxx#4 $)

>  <Rbt.Library>
libRbt.so (2013.1, Build901 2013/11/27)

>  <Rbt.Parameter_File>
/export/apps/rDock/src/rDock_2013.1_src/data/scripts/dock_solv.prm

>  <Rbt.Receptor>
prm/blind_docking_60.prm

>  <SCORE>
-9.22597

>  <SCORE.INTER>
-7.82534

>  <SCORE.INTER.CONST>
1

>  <SCORE.INTER.POLAR>
0

>  <SCORE.INTER.ROT>
3

>  <SCORE.INTER.SOLV>
15.7186

>  <SCORE.INTER.VDW>
-16.0564

>  <SCORE.INTER.norm>
-0.489084

>  <SCORE.INTRA>
-1.40063

>  <SCORE.INTRA.DIHEDRAL>
-1.98996

>  <SCORE.INTRA.DIHEDRAL.0>
2.1318

>  <SCORE.INTRA.POLAR>
0

>  <SCORE.INTRA.POLAR.0>
0

>  <SCORE.INTRA.REPUL>
0

>  <SCORE.INTRA.REPUL.0>
0

>  <SCORE.INTRA.SOLV>
-0.394731

>  <SCORE.INTRA.SOLV.lig_0>
-58.6125

>  <SCORE.INTRA.VDW>
-0.208283

>  <SCORE.INTRA.VDW.0>
-0.432734

>  <SCORE.INTRA.norm>
-0.0875392

>  <SCORE.RESTR>
0

>  <SCORE.RESTR.CAVITY>
0

>  <SCORE.RESTR.norm>
0

>  <SCORE.SYSTEM>
0

>  <SCORE.SYSTEM.CONST>
0

>  <SCORE.SYSTEM.DIHEDRAL>
0

>  <SCORE.SYSTEM.SOLV>
0

>  <SCORE.SYSTEM.norm>
0

>  <SCORE.heavy>
16

>  <SCORE.norm>
-0.576623

>  <RMSD>
13.744

$$$$
ligand
 OpenBabel11021811463D
libRbt.so/2013.1/901 2013/11/27
 16 16  0  0  0  0  0  0  0  0999 V2000
   33.1814   10.0471   11.3237 P   0  0  2  0  0  0  0  0  0  0  0  0
   32.9286   11.4849   11.0591 O   0  0  0  0  0  0  0  0  0  0  0  0
   32.8115    9.1868   10.0153 O   0  5  0  0  0  0  0  0  0  0  0  0
   32.2464    9.5661   12.5460 O   0  0  0  0  0  0  0  0  0  0  0  0
   38.4767    9.2464   13.6465 C   0  0  2  0  0  0  0  0  0  0  0  0
   38.8051   10.0812   14.7632 O   0  0  0  0  0  0  0  0  0  0  0  0
   39.2692    9.6805   12.3865 C   0  0  2  0  0  0  0  0  0  0  0  0
   40.7175    9.6090   12.6590 N   0  0  0  0  0  0  0  0  0  0  0  0
   38.8717   11.1229   12.0302 C   0  0  1  0  0  0  0  0  0  0  0  0
   39.5717   11.5516   10.8591 O   0  0  0  0  0  0  0  0  0  0  0  0
   37.3680   11.1425   11.7613 C   0  0  2  0  0  0  0  0  0  0  0  0
   36.9782   12.4696   11.4317 O   0  0  0  0  0  0  0  0  0  0  0  0
   36.6258   10.6712   13.0416 C   0  0  2  0  0  0  0  0  0  0  0  0
   37.0389    9.3162   13.3976 O   0  0  0  0  0  0  0  0  0  0  0  0
   35.0937   10.6673   12.8150 C   0  0  0  0  0  0  0  0  0  0  0  0
   34.7445    9.8348   11.6941 O   0  0  0  0  0  0  0  0  0  0  0  0
  1  2  1  6  0  0  0
  1  3  1  0  0  0  0
  1  4  2  0  0  0  0
  1 16  1  0  0  0  0
  5  6  1  1  0  0  0
  5  7  1  0  0  0  0
  5 14  1  0  0  0  0
  7  8  1  1  0  0  0
  7  9  1  0  0  0  0
  9 10  1  6  0  0  0
  9 11  1  0  0  0  0
 11 12  1  1  0  0  0
 11 13  1  0  0  0  0
 13 14  1  0  0  0  0
 13 15  1  6  0  0  0
 15 16  1  0  0  0  0
M  CHG  1   3  -1
M  END
>  <CHROM.1>
57.03163903,-170.37608770,56.36852124,36.23089546,10.33898533,12.13203154
2.99562736,-0.16743386,-0.90939810

>  <Name>
ligand

>  <RI>
0

>  <Rbt.Current_Directory>
/home/itssahil/PROJECTS/Mol_Feturizer/New_Systems/rnas/3B4C

>  <Rbt.Executable>
rbdock ($Id: //depot/dev/client3/rdock/2013.1/src/exe/rbdock.cxx#4 $)

>  <Rbt.Library>
libRbt.so (2013.1, Build901 2013/11/27)

>  <Rbt.Parameter_File>
/export/apps/rDock/src/rDock_2013.1_src/data/scripts/dock_solv.prm

>  <Rbt.Receptor>
prm/blind_docking_100.prm

>  <SCORE>
-8.20502

>  <SCORE.INTER>
-6.70823

>  <SCORE.INTER.CONST>
1

>  <SCORE.INTER.POLAR>
0

>  <SCORE.INTER.ROT>
3

>  <SCORE.INTER.SOLV>
12.9951

>  <SCORE.INTER.VDW>
-14.4039

>  <SCORE.INTER.norm>
-0.419264

>  <SCORE.INTRA>
-1.49679

>  <SCORE.INTRA.DIHEDRAL>
-1.63042

>  <SCORE.INTRA.DIHEDRAL.0>
2.1318

>  <SCORE.INTRA.POLAR>
0

>  <SCORE.INTRA.POLAR.0>
0

>  <SCORE.INTRA.REPUL>
0

>  <SCORE.INTRA.REPUL.0>
0

>  <SCORE.INTRA.SOLV>
-0.859937

>  <SCORE.INTRA.SOLV.lig_0>
-58.6125

>  <SCORE.INTRA.VDW>
-0.251616

>  <SCORE.INTRA.VDW.0>
-0.432734

>  <SCORE.INTRA.norm>
-0.0935496

>  <SCORE.RESTR>
0

>  <SCORE.RESTR.CAVITY>
0

>  <SCORE.RESTR.norm>
0

>  <SCORE.SYSTEM>
0

>  <SCORE.SYSTEM.CONST>
0

>  <SCORE.SYSTEM.DIHEDRAL>
0

>  <SCORE.SYSTEM.SOLV>
0

>  <SCORE.SYSTEM.norm>
0

>  <SCORE.heavy>
16

>  <SCORE.norm>
-0.512814

>  <RMSD>
13.772

$$$$
ligand
 OpenBabel11021811463D
libRbt.so/2013.1/901 2013/11/27
 16 16  0  0  0  0  0  0  0  0999 V2000
   32.8358   10.1906   12.0233 P   0  0  2  0  0  0  0  0  0  0  0  0
   32.4939   11.5396   11.5087 O   0  0  0  0  0  0  0  0  0  0  0  0
   32.9138    9.1518   10.7971 O   0  5  0  0  0  0  0  0  0  0  0  0
   31.6825    9.7097   13.0422 O   0  0  0  0  0  0  0  0  0  0  0  0
   38.2332    9.5862   13.9675 C   0  0  2  0  0  0  0  0  0  0  0  0
   38.1478   10.6059   14.9698 O   0  0  0  0  0  0  0  0  0  0  0  0
   39.3946    9.8812   12.9836 C   0  0  2  0  0  0  0  0  0  0  0  0
   40.6674    9.9650   13.7252 N   0  0  0  0  0  0  0  0  0  0  0  0
   39.1098   11.2163   12.2752 C   0  0  1  0  0  0  0  0  0  0  0  0
   40.1543   11.5125   11.3444 O   0  0  0  0  0  0  0  0  0  0  0  0
   37.7848   11.0777   11.5276 C   0  0  2  0  0  0  0  0  0  0  0  0
   37.5007   12.3040   10.8663 O   0  0  0  0  0  0  0  0  0  0  0  0
   36.6646   10.7531   12.5533 C   0  0  2  0  0  0  0  0  0  0  0  0
   36.9623    9.5052   13.2516 O   0  0  0  0  0  0  0  0  0  0  0  0
   35.2991   10.5956   11.8397 C   0  0  0  0  0  0  0  0  0  0  0  0
   34.2667   10.2506   12.7813 O   0  0  0  0  0  0  0  0  0  0  0  0
  1  2  1  6  0  0  0
  1  3  1  0  0  0  0
  1  4  2  0  0  0  0
  1 16  1  0  0  0  0
  5  6  1  1  0  0  0
  5  7  1  0  0  0  0
  5 14  1  0  0  0  0
  7  8  1  1  0  0  0
  7  9  1  0  0  0  0
  9 10  1  6  0  0  0
  9 11  1  0  0  0  0
 11 12  1  1  0  0  0
 11 13  1  0  0  0  0
 13 14  1  0  0  0  0
 13 15  1  6  0  0  0
 15 16  1  0  0  0  0
M  CHG  1   3  -1
M  END
>  <CHROM.1>
178.07206730,176.22695572,-63.86968716,36.16315387,10.47510108,12.42314622
3.06896821,-0.12843689,-1.02488543

>  <Name>
ligand

>  <RI>
0

>  <Rbt.Current_Directory>
/home/itssahil/PROJECTS/Mol_Feturizer/New_Systems/rnas/3B4C

>  <Rbt.Executable>
rbdock ($Id: //depot/dev/client3/rdock/2013.1/src/exe/rbdock.cxx#4 $)

>  <Rbt.Library>
libRbt.so (2013.1, Build901 2013/11/27)

>  <Rbt.Parameter_File>
/export/apps/rDock/src/rDock_2013.1_src/data/scripts/dock_solv.prm

>  <Rbt.Receptor>
prm/blind_docking_100.prm

>  <SCORE>
-9.85551

>  <SCORE.INTER>
-8.23464

>  <SCORE.INTER.CONST>
1

>  <SCORE.INTER.POLAR>
0

>  <SCORE.INTER.ROT>
3

>  <SCORE.INTER.SOLV>
14.5983

>  <SCORE.INTER.VDW>
-15.9559

>  <SCORE.INTER.norm>
-0.514665

>  <SCORE.INTRA>
-1.62086

>  <SCORE.INTRA.DIHEDRAL>
-2.02304

>  <SCORE.INTRA.DIHEDRAL.0>
2.1318

>  <SCORE.INTRA.POLAR>
0

>  <SCORE.INTRA.POLAR.0>
0

>  <SCORE.INTRA.REPUL>
0

>  <SCORE.INTRA.REPUL.0>
0

>  <SCORE.INTRA.SOLV>
-0.995707

>  <SCORE.INTRA.SOLV.lig_0>
-58.6125

>  <SCORE.INTRA.VDW>
-0.11149

>  <SCORE.INTRA.VDW.0>
-0.432734

>  <SCORE.INTRA.norm>
-0.101304

>  <SCORE.RESTR>
0

>  <SCORE.RESTR.CAVITY>
0

>  <SCORE.RESTR.norm>
0

>  <SCORE.SYSTEM>
0

>  <SCORE.SYSTEM.CONST>
0

>  <SCORE.SYSTEM.DIHEDRAL>
0

>  <SCORE.SYSTEM.SOLV>
0

>  <SCORE.SYSTEM.norm>
0

>  <SCORE.heavy>
16

>  <SCORE.norm>
-0.615969

>  <RMSD>
13.781

$$$$
ligand
 OpenBabel11021811463D
libRbt.so/2013.1/901 2013/11/27
 16 16  0  0  0  0  0  0  0  0999 V2000
   49.3336   11.0150   28.4785 P   0  0  2  0  0  0  0  0  0  0  0  0
   48.4007   10.1422   29.2330 O   0  0  0  0  0  0  0  0  0  0  0  0
   49.6912   12.3106   29.3631 O   0  5  0  0  0  0  0  0  0  0  0  0
   48.6176   11.4947   27.1159 O   0  0  0  0  0  0  0  0  0  0  0  0
   54.4173    9.8499   25.1100 C   0  0  2  0  0  0  0  0  0  0  0  0
   54.1630    8.4406   25.0780 O   0  0  0  0  0  0  0  0  0  0  0  0
   55.5802   10.1746   26.0828 C   0  0  2  0  0  0  0  0  0  0  0  0
   56.7973    9.4536   25.6636 N   0  0  0  0  0  0  0  0  0  0  0  0
   55.1712    9.7368   27.4993 C   0  0  1  0  0  0  0  0  0  0  0  0
   56.2154   10.0381   28.4287 O   0  0  0  0  0  0  0  0  0  0  0  0
   53.9091   10.5075   27.8827 C   0  0  2  0  0  0  0  0  0  0  0  0
   53.5117   10.1153   29.1904 O   0  0  0  0  0  0  0  0  0  0  0  0
   52.7887   10.1705   26.8613 C   0  0  2  0  0  0  0  0  0  0  0  0
   53.2006   10.5511   25.5127 O   0  0  0  0  0  0  0  0  0  0  0  0
   51.4872   10.9363   27.2052 C   0  0  0  0  0  0  0  0  0  0  0  0
   50.6880   10.1914   28.1423 O   0  0  0  0  0  0  0  0  0  0  0  0
  1  2  1  1  0  0  0
  1  3  1  0  0  0  0
  1  4  2  0  0  0  0
  1 16  1  0  0  0  0
  5  6  1  1  0  0  0
  5  7  1  0  0  0  0
  5 14  1  0  0  0  0
  7  8  1  6  0  0  0
  7  9  1  0  0  0  0
  9 10  1  1  0  0  0
  9 11  1  0  0  0  0
 11 12  1  1  0  0  0
 11 13  1  0  0  0  0
 13 14  1  0  0  0  0
 13 15  1  1  0  0  0
 15 16  1  0  0  0  0
M  CHG  1   3  -1
M  END
>  <CHROM.1>
-87.33089465,-179.83827690,169.33036854,52.42727539,10.37755773,27.42292236
2.78244578,-0.15355843,1.37775424

>  <Name>
ligand

>  <RI>
0

>  <Rbt.Current_Directory>
/home/itssahil/PROJECTS/Mol_Feturizer/New_Systems/rnas/3B4C

>  <Rbt.Executable>
rbdock ($Id: //depot/dev/client3/rdock/2013.1/src/exe/rbdock.cxx#4 $)

>  <Rbt.Library>
libRbt.so (2013.1, Build901 2013/11/27)

>  <Rbt.Parameter_File>
/export/apps/rDock/src/rDock_2013.1_src/data/scripts/dock_solv.prm

>  <Rbt.Receptor>
prm/blind_docking_100.prm

>  <SCORE>
-14.7338

>  <SCORE.INTER>
-14.4434

>  <SCORE.INTER.CONST>
1

>  <SCORE.INTER.POLAR>
-1.83712

>  <SCORE.INTER.ROT>
3

>  <SCORE.INTER.SOLV>
25.6456

>  <SCORE.INTER.VDW>
-17.6537

>  <SCORE.INTER.norm>
-0.90271

>  <SCORE.INTRA>
-0.290401

>  <SCORE.INTRA.DIHEDRAL>
0.314132

>  <SCORE.INTRA.DIHEDRAL.0>
2.1318

>  <SCORE.INTRA.POLAR>
0

>  <SCORE.INTRA.POLAR.0>
0

>  <SCORE.INTRA.REPUL>
0

>  <SCORE.INTRA.REPUL.0>
0

>  <SCORE.INTRA.SOLV>
-0.209552

>  <SCORE.INTRA.SOLV.lig_0>
-58.6125

>  <SCORE.INTRA.VDW>
-0.342691

>  <SCORE.INTRA.VDW.0>
-0.432734

>  <SCORE.INTRA.norm>
-0.0181501

>  <SCORE.RESTR>
0

>  <SCORE.RESTR.CAVITY>
0

>  <SCORE.RESTR.norm>
0

>  <SCORE.SYSTEM>
0

>  <SCORE.SYSTEM.CONST>
0

>  <SCORE.SYSTEM.DIHEDRAL>
0

>  <SCORE.SYSTEM.SOLV>
0

>  <SCORE.SYSTEM.norm>
0

>  <SCORE.heavy>
16

>  <SCORE.norm>
-0.92086

>  <RMSD>
13.783

$$$$
ligand
 OpenBabel11021811463D
libRbt.so/2013.1/901 2013/11/27
 16 16  0  0  0  0  0  0  0  0999 V2000
   38.8666    8.6316   13.1609 P   0  0  2  0  0  0  0  0  0  0  0  0
   39.3080    7.3366   13.7349 O   0  0  0  0  0  0  0  0  0  0  0  0
   39.7771    8.9915   11.8840 O   0  5  0  0  0  0  0  0  0  0  0  0
   39.0458    9.7864   14.2717 O   0  0  0  0  0  0  0  0  0  0  0  0
   33.2167    9.7971   12.4412 C   0  0  2  0  0  0  0  0  0  0  0  0
   32.8861    8.4860   11.9685 O   0  0  0  0  0  0  0  0  0  0  0  0
   32.8379   10.8706   11.3885 C   0  0  2  0  0  0  0  0  0  0  0  0
   31.3946   10.7919   11.0930 N   0  0  0  0  0  0  0  0  0  0  0  0
   33.6516   10.6112   10.1094 C   0  0  1  0  0  0  0  0  0  0  0  0
   33.3405   11.5957    9.1198 O   0  0  0  0  0  0  0  0  0  0  0  0
   35.1335   10.7008   10.4695 C   0  0  2  0  0  0  0  0  0  0  0  0
   35.9052   10.4614    9.2994 O   0  0  0  0  0  0  0  0  0  0  0  0
   35.4512    9.6278   11.5465 C   0  0  2  0  0  0  0  0  0  0  0  0
   34.6449    9.8558   12.7429 O   0  0  0  0  0  0  0  0  0  0  0  0
   36.9453    9.6845   11.9504 C   0  0  0  0  0  0  0  0  0  0  0  0
   37.3139    8.5198   12.7114 O   0  0  0  0  0  0  0  0  0  0  0  0
  1  2  1  1  0  0  0
  1  3  1  0  0  0  0
  1  4  2  0  0  0  0
  1 16  1  0  0  0  0
  5  6  1  6  0  0  0
  5  7  1  0  0  0  0
  5 14  1  0  0  0  0
  7  8  1  6  0  0  0
  7  9  1  0  0  0  0
  9 10  1  6  0  0  0
  9 11  1  0  0  0  0
 11 12  1  6  0  0  0
 11 13  1  0  0  0  0
 13 14  1  0  0  0  0
 13 15  1  1  0  0  0
 15 16  1  0  0  0  0
M  CHG  1   3  -1
M  END
>  <CHROM.1>
-167.14821522,-178.11544046,-170.21572215,35.91543674,9.62611273,11.86361975
0.47637007,-0.08041845,2.07997043

>  <Name>
ligand

>  <RI>
0

>  <Rbt.Current_Directory>
/home/itssahil/PROJECTS/Mol_Feturizer/New_Systems/rnas/3B4C

>  <Rbt.Executable>
rbdock ($Id: //depot/dev/client3/rdock/2013.1/src/exe/rbdock.cxx#4 $)

>  <Rbt.Library>
libRbt.so (2013.1, Build901 2013/11/27)

>  <Rbt.Parameter_File>
/export/apps/rDock/src/rDock_2013.1_src/data/scripts/dock_solv.prm

>  <Rbt.Receptor>
prm/blind_docking_60.prm

>  <SCORE>
-9.12577

>  <SCORE.INTER>
-8.05233

>  <SCORE.INTER.CONST>
1

>  <SCORE.INTER.POLAR>
0

>  <SCORE.INTER.ROT>
3

>  <SCORE.INTER.SOLV>
16.9241

>  <SCORE.INTER.VDW>
-16.6096

>  <SCORE.INTER.norm>
-0.503271

>  <SCORE.INTRA>
-1.07344

>  <SCORE.INTRA.DIHEDRAL>
-1.37603

>  <SCORE.INTRA.DIHEDRAL.0>
2.1318

>  <SCORE.INTRA.POLAR>
0

>  <SCORE.INTRA.POLAR.0>
0

>  <SCORE.INTRA.REPUL>
0

>  <SCORE.INTRA.REPUL.0>
0

>  <SCORE.INTRA.SOLV>
-0.413238

>  <SCORE.INTRA.SOLV.lig_0>
-58.6125

>  <SCORE.INTRA.VDW>
-0.178803

>  <SCORE.INTRA.VDW.0>
-0.432734

>  <SCORE.INTRA.norm>
-0.0670899

>  <SCORE.RESTR>
0

>  <SCORE.RESTR.CAVITY>
0

>  <SCORE.RESTR.norm>
0

>  <SCORE.SYSTEM>
0

>  <SCORE.SYSTEM.CONST>
0

>  <SCORE.SYSTEM.DIHEDRAL>
0

>  <SCORE.SYSTEM.SOLV>
0

>  <SCORE.SYSTEM.norm>
0

>  <SCORE.heavy>
16

>  <SCORE.norm>
-0.57036

>  <RMSD>
13.853

$$$$
ligand
 OpenBabel11021811463D
libRbt.so/2013.1/901 2013/11/27
 16 16  0  0  0  0  0  0  0  0999 V2000
   49.3803   11.1601   28.5506 P   0  0  2  0  0  0  0  0  0  0  0  0
   49.8274   12.3908   29.2483 O   0  0  0  0  0  0  0  0  0  0  0  0
   48.6454   11.5588   27.1759 O   0  5  0  0  0  0  0  0  0  0  0  0
   48.3345   10.3734   29.4923 O   0  0  0  0  0  0  0  0  0  0  0  0
   54.4073    9.5705   25.2610 C   0  0  2  0  0  0  0  0  0  0  0  0
   54.0439    8.1855   25.2234 O   0  0  0  0  0  0  0  0  0  0  0  0
   55.5696    9.8048   26.2601 C   0  0  2  0  0  0  0  0  0  0  0  0
   56.7355    8.9896   25.8691 N   0  0  0  0  0  0  0  0  0  0  0  0
   55.0951    9.4033   27.6669 C   0  0  1  0  0  0  0  0  0  0  0  0
   56.1383    9.6236   28.6200 O   0  0  0  0  0  0  0  0  0  0  0  0
   53.8891   10.2716   28.0211 C   0  0  2  0  0  0  0  0  0  0  0  0
   53.4322    9.9145   29.3194 O   0  0  0  0  0  0  0  0  0  0  0  0
   52.7693   10.0216   26.9744 C   0  0  2  0  0  0  0  0  0  0  0  0
   53.2406   10.3659   25.6354 O   0  0  0  0  0  0  0  0  0  0  0  0
   51.5245   10.8879   27.2881 C   0  0  0  0  0  0  0  0  0  0  0  0
   50.6648   10.2248   28.2329 O   0  0  0  0  0  0  0  0  0  0  0  0
  1  2  1  1  0  0  0
  1  3  1  0  0  0  0
  1  4  2  0  0  0  0
  1 16  1  0  0  0  0
  5  6  1  1  0  0  0
  5  7  1  0  0  0  0
  5 14  1  0  0  0  0
  7  8  1  6  0  0  0
  7  9  1  0  0  0  0
  9 10  1  1  0  0  0
  9 11  1  0  0  0  0
 11 12  1  1  0  0  0
 11 13  1  0  0  0  0
 13 14  1  0  0  0  0
 13 15  1  1  0  0  0
 15 16  1  0  0  0  0
M  CHG  1   3  -1
M  END
>  <CHROM.1>
-85.86866152,179.49680694,-65.72701208,52.41439301,10.25522960,27.54249532
2.78644670,-0.23675382,1.39385114

>  <Name>
ligand

>  <RI>
0

>  <Rbt.Current_Directory>
/home/itssahil/PROJECTS/Mol_Feturizer/New_Systems/rnas/3B4C

>  <Rbt.Executable>
rbdock ($Id: //depot/dev/client3/rdock/2013.1/src/exe/rbdock.cxx#4 $)

>  <Rbt.Library>
libRbt.so (2013.1, Build901 2013/11/27)

>  <Rbt.Parameter_File>
/export/apps/rDock/src/rDock_2013.1_src/data/scripts/dock_solv.prm

>  <Rbt.Receptor>
prm/blind_docking_80.prm

>  <SCORE>
-15.3701

>  <SCORE.INTER>
-14.7202

>  <SCORE.INTER.CONST>
1

>  <SCORE.INTER.POLAR>
-1.83674

>  <SCORE.INTER.ROT>
3

>  <SCORE.INTER.SOLV>
22.7054

>  <SCORE.INTER.VDW>
-16.8595

>  <SCORE.INTER.norm>
-0.920013

>  <SCORE.INTRA>
-0.676554

>  <SCORE.INTRA.DIHEDRAL>
-0.0109244

>  <SCORE.INTRA.DIHEDRAL.0>
2.1318

>  <SCORE.INTRA.POLAR>
0

>  <SCORE.INTRA.POLAR.0>
0

>  <SCORE.INTRA.REPUL>
0

>  <SCORE.INTRA.REPUL.0>
0

>  <SCORE.INTRA.SOLV>
-0.765582

>  <SCORE.INTRA.SOLV.lig_0>
-58.6125

>  <SCORE.INTRA.VDW>
-0.288301

>  <SCORE.INTRA.VDW.0>
-0.432734

>  <SCORE.INTRA.norm>
-0.0422846

>  <SCORE.RESTR>
0.026627

>  <SCORE.RESTR.CAVITY>
0.026627

>  <SCORE.RESTR.norm>
0.00166418

>  <SCORE.SYSTEM>
0

>  <SCORE.SYSTEM.CONST>
0

>  <SCORE.SYSTEM.DIHEDRAL>
0

>  <SCORE.SYSTEM.SOLV>
0

>  <SCORE.SYSTEM.norm>
0

>  <SCORE.heavy>
16

>  <SCORE.norm>
-0.960634

>  <RMSD>
13.906

$$$$
ligand
 OpenBabel11021811463D
libRbt.so/2013.1/901 2013/11/27
 16 16  0  0  0  0  0  0  0  0999 V2000
   49.3852   11.1559   28.5414 P   0  0  2  0  0  0  0  0  0  0  0  0
   49.8482   12.3848   29.2318 O   0  0  0  0  0  0  0  0  0  0  0  0
   48.6440   11.5565   27.1707 O   0  5  0  0  0  0  0  0  0  0  0  0
   48.3393   10.3816   29.4933 O   0  0  0  0  0  0  0  0  0  0  0  0
   54.4504    9.5606   25.3077 C   0  0  2  0  0  0  0  0  0  0  0  0
   54.0903    8.1748   25.2656 O   0  0  0  0  0  0  0  0  0  0  0  0
   55.5965    9.7979   26.3247 C   0  0  2  0  0  0  0  0  0  0  0  0
   56.7699    8.9847   25.9525 N   0  0  0  0  0  0  0  0  0  0  0  0
   55.1010    9.3965   27.7242 C   0  0  1  0  0  0  0  0  0  0  0  0
   56.1288    9.6196   28.6933 O   0  0  0  0  0  0  0  0  0  0  0  0
   53.8879   10.2627   28.0589 C   0  0  2  0  0  0  0  0  0  0  0  0
   53.4116    9.9057   29.3502 O   0  0  0  0  0  0  0  0  0  0  0  0
   52.7851   10.0098   26.9950 C   0  0  2  0  0  0  0  0  0  0  0  0
   53.2765   10.3540   25.6633 O   0  0  0  0  0  0  0  0  0  0  0  0
   51.5338   10.8739   27.2887 C   0  0  0  0  0  0  0  0  0  0  0  0
   50.6590   10.2081   28.2177 O   0  0  0  0  0  0  0  0  0  0  0  0
  1  2  1  1  0  0  0
  1  3  1  0  0  0  0
  1  4  2  0  0  0  0
  1 16  1  0  0  0  0
  5  6  1  1  0  0  0
  5  7  1  0  0  0  0
  5 14  1  0  0  0  0
  7  8  1  6  0  0  0
  7  9  1  0  0  0  0
  9 10  1  1  0  0  0
  9 11  1  0  0  0  0
 11 12  1  1  0  0  0
 11 13  1  0  0  0  0
 13 14  1  0  0  0  0
 13 15  1  1  0  0  0
 15 16  1  0  0  0  0
M  CHG  1   3  -1
M  END
>  <CHROM.1>
-86.02474021,178.18085886,-64.37735556,52.42657608,10.24807871,27.56650358
2.79731675,-0.23952778,1.39663366

>  <Name>
ligand

>  <RI>
0

>  <Rbt.Current_Directory>
/home/itssahil/PROJECTS/Mol_Feturizer/New_Systems/rnas/3B4C

>  <Rbt.Executable>
rbdock ($Id: //depot/dev/client3/rdock/2013.1/src/exe/rbdock.cxx#4 $)

>  <Rbt.Library>
libRbt.so (2013.1, Build901 2013/11/27)

>  <Rbt.Parameter_File>
/export/apps/rDock/src/rDock_2013.1_src/data/scripts/dock_solv.prm

>  <Rbt.Receptor>
prm/blind_docking_80.prm

>  <SCORE>
-15.2766

>  <SCORE.INTER>
-14.6174

>  <SCORE.INTER.CONST>
1

>  <SCORE.INTER.POLAR>
-1.83712

>  <SCORE.INTER.ROT>
3

>  <SCORE.INTER.SOLV>
22.5748

>  <SCORE.INTER.VDW>
-16.7461

>  <SCORE.INTER.norm>
-0.913585

>  <SCORE.INTRA>
-0.677677

>  <SCORE.INTRA.DIHEDRAL>
0.0034207

>  <SCORE.INTRA.DIHEDRAL.0>
2.1318

>  <SCORE.INTRA.POLAR>
0

>  <SCORE.INTRA.POLAR.0>
0

>  <SCORE.INTRA.REPUL>
0

>  <SCORE.INTRA.REPUL.0>
0

>  <SCORE.INTRA.SOLV>
-0.768683

>  <SCORE.INTRA.SOLV.lig_0>
-58.6125

>  <SCORE.INTRA.VDW>
-0.295046

>  <SCORE.INTRA.VDW.0>
-0.432734

>  <SCORE.INTRA.norm>
-0.0423548

>  <SCORE.RESTR>
0.0184052

>  <SCORE.RESTR.CAVITY>
0.0184052

>  <SCORE.RESTR.norm>
0.00115032

>  <SCORE.SYSTEM>
0

>  <SCORE.SYSTEM.CONST>
0

>  <SCORE.SYSTEM.DIHEDRAL>
0

>  <SCORE.SYSTEM.SOLV>
0

>  <SCORE.SYSTEM.norm>
0

>  <SCORE.heavy>
16

>  <SCORE.norm>
-0.954789

>  <RMSD>
13.934

$$$$
ligand
 OpenBabel11021811463D
libRbt.so/2013.1/901 2013/11/27
 16 16  0  0  0  0  0  0  0  0999 V2000
   38.7061   10.2826   13.5322 P   0  0  2  0  0  0  0  0  0  0  0  0
   38.6384   11.4520   14.4428 O   0  0  0  0  0  0  0  0  0  0  0  0
   39.4503    9.0651   14.2757 O   0  5  0  0  0  0  0  0  0  0  0  0
   39.5510   10.6874   12.2200 O   0  0  0  0  0  0  0  0  0  0  0  0
   32.9538   10.2413   12.6785 C   0  0  2  0  0  0  0  0  0  0  0  0
   32.8938    8.8462   12.3590 O   0  0  0  0  0  0  0  0  0  0  0  0
   32.4005   11.0953   11.5087 C   0  0  2  0  0  0  0  0  0  0  0  0
   31.0069   10.7048   11.2216 N   0  0  0  0  0  0  0  0  0  0  0  0
   33.2794   10.8570   10.2692 C   0  0  1  0  0  0  0  0  0  0  0  0
   32.8081   11.6446    9.1725 O   0  0  0  0  0  0  0  0  0  0  0  0
   34.7071   11.2729   10.6193 C   0  0  2  0  0  0  0  0  0  0  0  0
   35.5384   11.0581    9.4859 O   0  0  0  0  0  0  0  0  0  0  0  0
   35.1998   10.4101   11.8131 C   0  0  2  0  0  0  0  0  0  0  0  0
   34.3361   10.6100   12.9739 O   0  0  0  0  0  0  0  0  0  0  0  0
   36.6447   10.8013   12.2104 C   0  0  0  0  0  0  0  0  0  0  0  0
   37.2047    9.8350   13.1184 O   0  0  0  0  0  0  0  0  0  0  0  0
  1  2  1  1  0  0  0
  1  3  1  0  0  0  0
  1  4  2  0  0  0  0
  1 16  1  0  0  0  0
  5  6  1  6  0  0  0
  5  7  1  0  0  0  0
  5 14  1  0  0  0  0
  7  8  1  6  0  0  0
  7  9  1  0  0  0  0
  9 10  1  6  0  0  0
  9 11  1  0  0  0  0
 11 12  1  6  0  0  0
 11 13  1  0  0  0  0
 13 14  1  0  0  0  0
 13 15  1  1  0  0  0
 15 16  1  0  0  0  0
M  CHG  1   3  -1
M  END
>  <CHROM.1>
-168.10444285,-179.16649748,72.21175337,35.65278400,10.52165801,12.12602318
0.40259840,0.09881762,1.97953809

>  <Name>
ligand

>  <RI>
0

>  <Rbt.Current_Directory>
/home/itssahil/PROJECTS/Mol_Feturizer/New_Systems/rnas/3B4C

>  <Rbt.Executable>
rbdock ($Id: //depot/dev/client3/rdock/2013.1/src/exe/rbdock.cxx#4 $)

>  <Rbt.Library>
libRbt.so (2013.1, Build901 2013/11/27)

>  <Rbt.Parameter_File>
/export/apps/rDock/src/rDock_2013.1_src/data/scripts/dock_solv.prm

>  <Rbt.Receptor>
prm/blind_docking_60.prm

>  <SCORE>
-7.75631

>  <SCORE.INTER>
-6.48276

>  <SCORE.INTER.CONST>
1

>  <SCORE.INTER.POLAR>
0

>  <SCORE.INTER.ROT>
3

>  <SCORE.INTER.SOLV>
13.6205

>  <SCORE.INTER.VDW>
-14.462

>  <SCORE.INTER.norm>
-0.405173

>  <SCORE.INTRA>
-1.27355

>  <SCORE.INTRA.DIHEDRAL>
-1.38646

>  <SCORE.INTRA.DIHEDRAL.0>
2.1318

>  <SCORE.INTRA.POLAR>
0

>  <SCORE.INTRA.POLAR.0>
0

>  <SCORE.INTRA.REPUL>
0

>  <SCORE.INTRA.REPUL.0>
0

>  <SCORE.INTRA.SOLV>
-0.937614

>  <SCORE.INTRA.SOLV.lig_0>
-58.6125

>  <SCORE.INTRA.VDW>
-0.111512

>  <SCORE.INTRA.VDW.0>
-0.432734

>  <SCORE.INTRA.norm>
-0.0795967

>  <SCORE.RESTR>
0

>  <SCORE.RESTR.CAVITY>
0

>  <SCORE.RESTR.norm>
0

>  <SCORE.SYSTEM>
0

>  <SCORE.SYSTEM.CONST>
0

>  <SCORE.SYSTEM.DIHEDRAL>
0

>  <SCORE.SYSTEM.SOLV>
0

>  <SCORE.SYSTEM.norm>
0

>  <SCORE.heavy>
16

>  <SCORE.norm>
-0.484769

>  <RMSD>
13.937

$$$$
ligand
 OpenBabel11021811463D
libRbt.so/2013.1/901 2013/11/27
 16 16  0  0  0  0  0  0  0  0999 V2000
   52.0844   12.0478   30.3470 P   0  0  2  0  0  0  0  0  0  0  0  0
   51.6373   13.4577   30.2310 O   0  0  0  0  0  0  0  0  0  0  0  0
   50.8220   11.1101   30.6875 O   0  5  0  0  0  0  0  0  0  0  0  0
   53.1570   11.9342   31.5454 O   0  0  0  0  0  0  0  0  0  0  0  0
   52.9367    9.3983   25.3597 C   0  0  2  0  0  0  0  0  0  0  0  0
   53.1519    7.9835   25.4218 O   0  0  0  0  0  0  0  0  0  0  0  0
   54.2116   10.1248   24.8590 C   0  0  2  0  0  0  0  0  0  0  0  0
   54.5856    9.6143   23.5262 N   0  0  0  0  0  0  0  0  0  0  0  0
   55.3495    9.8643   25.8603 C   0  0  1  0  0  0  0  0  0  0  0  0
   56.5397   10.5359   25.4389 O   0  0  0  0  0  0  0  0  0  0  0  0
   54.9119   10.4070   27.2197 C   0  0  2  0  0  0  0  0  0  0  0  0
   55.9504   10.1739   28.1626 O   0  0  0  0  0  0  0  0  0  0  0  0
   53.6177    9.6691   27.6586 C   0  0  2  0  0  0  0  0  0  0  0  0
   52.5536    9.8870   26.6821 O   0  0  0  0  0  0  0  0  0  0  0  0
   53.1297   10.1918   29.0324 C   0  0  0  0  0  0  0  0  0  0  0  0
   52.7529   11.5783   28.9476 O   0  0  0  0  0  0  0  0  0  0  0  0
  1  2  1  6  0  0  0
  1  3  1  0  0  0  0
  1  4  2  0  0  0  0
  1 16  1  0  0  0  0
  5  6  1  1  0  0  0
  5  7  1  0  0  0  0
  5 14  1  0  0  0  0
  7  8  1  6  0  0  0
  7  9  1  0  0  0  0
  9 10  1  6  0  0  0
  9 11  1  0  0  0  0
 11 12  1  1  0  0  0
 11 13  1  0  0  0  0
 13 14  1  0  0  0  0
 13 15  1  1  0  0  0
 15 16  1  0  0  0  0
M  CHG  1   3  -1
M  END
>  <CHROM.1>
64.13368399,173.33145054,-177.22302799,53.45686562,10.63584093,27.82807490
1.99379702,0.16446094,1.06778168

>  <Name>
ligand

>  <RI>
0

>  <Rbt.Current_Directory>
/home/itssahil/PROJECTS/Mol_Feturizer/New_Systems/rnas/3B4C

>  <Rbt.Executable>
rbdock ($Id: //depot/dev/client3/rdock/2013.1/src/exe/rbdock.cxx#4 $)

>  <Rbt.Library>
libRbt.so (2013.1, Build901 2013/11/27)

>  <Rbt.Parameter_File>
/export/apps/rDock/src/rDock_2013.1_src/data/scripts/dock_solv.prm

>  <Rbt.Receptor>
prm/blind_docking_80.prm

>  <SCORE>
-7.65006

>  <SCORE.INTER>
-6.28236

>  <SCORE.INTER.CONST>
1

>  <SCORE.INTER.POLAR>
0

>  <SCORE.INTER.ROT>
3

>  <SCORE.INTER.SOLV>
15.671

>  <SCORE.INTER.VDW>
-15.0119

>  <SCORE.INTER.norm>
-0.392647

>  <SCORE.INTRA>
-1.3677

>  <SCORE.INTRA.DIHEDRAL>
-1.83566

>  <SCORE.INTRA.DIHEDRAL.0>
2.1318

>  <SCORE.INTRA.POLAR>
0

>  <SCORE.INTRA.POLAR.0>
0

>  <SCORE.INTRA.REPUL>
0

>  <SCORE.INTRA.REPUL.0>
0

>  <SCORE.INTRA.SOLV>
-0.166949

>  <SCORE.INTRA.SOLV.lig_0>
-58.6125

>  <SCORE.INTRA.VDW>
-0.366395

>  <SCORE.INTRA.VDW.0>
-0.432734

>  <SCORE.INTRA.norm>
-0.0854812

>  <SCORE.RESTR>
0

>  <SCORE.RESTR.CAVITY>
0

>  <SCORE.RESTR.norm>
0

>  <SCORE.SYSTEM>
0

>  <SCORE.SYSTEM.CONST>
0

>  <SCORE.SYSTEM.DIHEDRAL>
0

>  <SCORE.SYSTEM.SOLV>
0

>  <SCORE.SYSTEM.norm>
0

>  <SCORE.heavy>
16

>  <SCORE.norm>
-0.478129

>  <RMSD>
13.943

$$$$
ligand
 OpenBabel11021811463D
libRbt.so/2013.1/901 2013/11/27
 16 16  0  0  0  0  0  0  0  0999 V2000
   38.9191    9.6703   12.4695 P   0  0  2  0  0  0  0  0  0  0  0  0
   39.9337    9.1844   11.5023 O   0  0  0  0  0  0  0  0  0  0  0  0
   39.1872   11.2230   12.7949 O   0  5  0  0  0  0  0  0  0  0  0  0
   39.0463    8.8215   13.8344 O   0  0  0  0  0  0  0  0  0  0  0  0
   32.7113   10.3638   12.5959 C   0  0  2  0  0  0  0  0  0  0  0  0
   32.3820    8.9890   12.3652 O   0  0  0  0  0  0  0  0  0  0  0  0
   32.5478   11.1918   11.2952 C   0  0  2  0  0  0  0  0  0  0  0  0
   31.1604   11.0825   10.8054 N   0  0  0  0  0  0  0  0  0  0  0  0
   33.5229   10.6439   10.2396 C   0  0  1  0  0  0  0  0  0  0  0  0
   33.4123   11.3973    9.0290 O   0  0  0  0  0  0  0  0  0  0  0  0
   34.9397   10.7770   10.7954 C   0  0  2  0  0  0  0  0  0  0  0  0
   35.8586   10.2731    9.8344 O   0  0  0  0  0  0  0  0  0  0  0  0
   35.0393    9.9561   12.1100 C   0  0  2  0  0  0  0  0  0  0  0  0
   34.0817   10.4553   13.0935 O   0  0  0  0  0  0  0  0  0  0  0  0
   36.4599   10.0663   12.7169 C   0  0  0  0  0  0  0  0  0  0  0  0
   37.4398    9.4924   11.8326 O   0  0  0  0  0  0  0  0  0  0  0  0
  1  2  1  6  0  0  0
  1  3  1  0  0  0  0
  1  4  2  0  0  0  0
  1 16  1  0  0  0  0
  5  6  1  6  0  0  0
  5  7  1  0  0  0  0
  5 14  1  0  0  0  0
  7  8  1  6  0  0  0
  7  9  1  0  0  0  0
  9 10  1  6  0  0  0
  9 11  1  0  0  0  0
 11 12  1  6  0  0  0
 11 13  1  0  0  0  0
 13 14  1  0  0  0  0
 13 15  1  1  0  0  0
 15 16  1  0  0  0  0
M  CHG  1   3  -1
M  END
>  <CHROM.1>
-63.43958202,177.97981549,-175.10824837,35.74702336,10.16435820,11.76937102
-0.25845858,0.07061445,-1.23520840

>  <Name>
ligand

>  <RI>
0

>  <Rbt.Current_Directory>
/home/itssahil/PROJECTS/Mol_Feturizer/New_Systems/rnas/3B4C

>  <Rbt.Executable>
rbdock ($Id: //depot/dev/client3/rdock/2013.1/src/exe/rbdock.cxx#4 $)

>  <Rbt.Library>
libRbt.so (2013.1, Build901 2013/11/27)

>  <Rbt.Parameter_File>
/export/apps/rDock/src/rDock_2013.1_src/data/scripts/dock_solv.prm

>  <Rbt.Receptor>
prm/blind_docking_100.prm

>  <SCORE>
-7.74227

>  <SCORE.INTER>
-6.56493

>  <SCORE.INTER.CONST>
1

>  <SCORE.INTER.POLAR>
0

>  <SCORE.INTER.ROT>
3

>  <SCORE.INTER.SOLV>
13.9412

>  <SCORE.INTER.VDW>
-14.6237

>  <SCORE.INTER.norm>
-0.410308

>  <SCORE.INTRA>
-1.17735

>  <SCORE.INTRA.DIHEDRAL>
-2.02705

>  <SCORE.INTRA.DIHEDRAL.0>
2.1318

>  <SCORE.INTRA.POLAR>
0

>  <SCORE.INTRA.POLAR.0>
0

>  <SCORE.INTRA.REPUL>
0

>  <SCORE.INTRA.REPUL.0>
0

>  <SCORE.INTRA.SOLV>
0.0544873

>  <SCORE.INTRA.SOLV.lig_0>
-58.6125

>  <SCORE.INTRA.VDW>
-0.191068

>  <SCORE.INTRA.VDW.0>
-0.432734

>  <SCORE.INTRA.norm>
-0.0735844

>  <SCORE.RESTR>
0

>  <SCORE.RESTR.CAVITY>
0

>  <SCORE.RESTR.norm>
0

>  <SCORE.SYSTEM>
0

>  <SCORE.SYSTEM.CONST>
0

>  <SCORE.SYSTEM.DIHEDRAL>
0

>  <SCORE.SYSTEM.SOLV>
0

>  <SCORE.SYSTEM.norm>
0

>  <SCORE.heavy>
16

>  <SCORE.norm>
-0.483892

>  <RMSD>
13.962

$$$$
ligand
 OpenBabel11021811463D
libRbt.so/2013.1/901 2013/11/27
 16 16  0  0  0  0  0  0  0  0999 V2000
   38.6048   10.3409   13.4542 P   0  0  2  0  0  0  0  0  0  0  0  0
   38.5776   11.5817   14.2672 O   0  0  0  0  0  0  0  0  0  0  0  0
   39.3116    9.1641   14.2936 O   0  5  0  0  0  0  0  0  0  0  0  0
   39.4583   10.6107   12.1132 O   0  0  0  0  0  0  0  0  0  0  0  0
   32.8698   10.3668   12.6723 C   0  0  2  0  0  0  0  0  0  0  0  0
   32.7636    8.9661   12.3918 O   0  0  0  0  0  0  0  0  0  0  0  0
   32.3073   11.2052   11.4955 C   0  0  2  0  0  0  0  0  0  0  0  0
   30.8964   10.8459   11.2568 N   0  0  0  0  0  0  0  0  0  0  0  0
   33.1448   10.9107   10.2396 C   0  0  1  0  0  0  0  0  0  0  0  0
   32.6645   11.6824    9.1354 O   0  0  0  0  0  0  0  0  0  0  0  0
   34.5923   11.2960   10.5397 C   0  0  2  0  0  0  0  0  0  0  0  0
   35.3857   11.0292    9.3903 O   0  0  0  0  0  0  0  0  0  0  0  0
   35.0947   10.4513   11.7422 C   0  0  2  0  0  0  0  0  0  0  0  0
   34.2692   10.7049   12.9202 O   0  0  0  0  0  0  0  0  0  0  0  0
   36.5600   10.8126   12.0898 C   0  0  0  0  0  0  0  0  0  0  0  0
   37.0885    9.9102   13.0787 O   0  0  0  0  0  0  0  0  0  0  0  0
  1  2  1  1  0  0  0
  1  3  1  0  0  0  0
  1  4  2  0  0  0  0
  1 16  1  0  0  0  0
  5  6  1  6  0  0  0
  5  7  1  0  0  0  0
  5 14  1  0  0  0  0
  7  8  1  6  0  0  0
  7  9  1  0  0  0  0
  9 10  1  6  0  0  0
  9 11  1  0  0  0  0
 11 12  1  6  0  0  0
 11 13  1  0  0  0  0
 13 14  1  0  0  0  0
 13 15  1  1  0  0  0
 15 16  1  0  0  0  0
M  CHG  1   3  -1
M  END
>  <CHROM.1>
-172.14250290,-178.27110924,72.55460989,35.54481973,10.58414908,12.07234495
0.39961087,0.07584817,1.94514706

>  <Name>
ligand

>  <RI>
0

>  <Rbt.Current_Directory>
/home/itssahil/PROJECTS/Mol_Feturizer/New_Systems/rnas/3B4C

>  <Rbt.Executable>
rbdock ($Id: //depot/dev/client3/rdock/2013.1/src/exe/rbdock.cxx#4 $)

>  <Rbt.Library>
libRbt.so (2013.1, Build901 2013/11/27)

>  <Rbt.Parameter_File>
/export/apps/rDock/src/rDock_2013.1_src/data/scripts/dock_solv.prm

>  <Rbt.Receptor>
prm/blind_docking_60.prm

>  <SCORE>
-7.74864

>  <SCORE.INTER>
-6.36328

>  <SCORE.INTER.CONST>
1

>  <SCORE.INTER.POLAR>
0

>  <SCORE.INTER.ROT>
3

>  <SCORE.INTER.SOLV>
13.6749

>  <SCORE.INTER.VDW>
-14.4005

>  <SCORE.INTER.norm>
-0.397705

>  <SCORE.INTRA>
-1.38536

>  <SCORE.INTRA.DIHEDRAL>
-1.6384

>  <SCORE.INTRA.DIHEDRAL.0>
2.1318

>  <SCORE.INTRA.POLAR>
0

>  <SCORE.INTRA.POLAR.0>
0

>  <SCORE.INTRA.REPUL>
0

>  <SCORE.INTRA.REPUL.0>
0

>  <SCORE.INTRA.SOLV>
-0.920361

>  <SCORE.INTRA.SOLV.lig_0>
-58.6125

>  <SCORE.INTRA.VDW>
-0.105974

>  <SCORE.INTRA.VDW.0>
-0.432734

>  <SCORE.INTRA.norm>
-0.0865848

>  <SCORE.RESTR>
0

>  <SCORE.RESTR.CAVITY>
0

>  <SCORE.RESTR.norm>
0

>  <SCORE.SYSTEM>
0

>  <SCORE.SYSTEM.CONST>
0

>  <SCORE.SYSTEM.DIHEDRAL>
0

>  <SCORE.SYSTEM.SOLV>
0

>  <SCORE.SYSTEM.norm>
0

>  <SCORE.heavy>
16

>  <SCORE.norm>
-0.48429

>  <RMSD>
14.045

$$$$
ligand
 OpenBabel11021811463D
libRbt.so/2013.1/901 2013/11/27
 16 16  0  0  0  0  0  0  0  0999 V2000
   49.7919   11.1250   28.2991 P   0  0  2  0  0  0  0  0  0  0  0  0
   50.1204   12.3421   29.0814 O   0  0  0  0  0  0  0  0  0  0  0  0
   48.5328   11.4243   27.3431 O   0  5  0  0  0  0  0  0  0  0  0  0
   49.4037    9.9360   29.3165 O   0  0  0  0  0  0  0  0  0  0  0  0
   54.4972    9.5427   25.4201 C   0  0  2  0  0  0  0  0  0  0  0  0
   54.1132    8.1667   25.3153 O   0  0  0  0  0  0  0  0  0  0  0  0
   55.8759    9.6750   26.1170 C   0  0  2  0  0  0  0  0  0  0  0  0
   56.8936    8.9256   25.3557 N   0  0  0  0  0  0  0  0  0  0  0  0
   55.7613    9.1074   27.5419 C   0  0  1  0  0  0  0  0  0  0  0  0
   57.0130    9.2296   28.2227 O   0  0  0  0  0  0  0  0  0  0  0  0
   54.6964    9.9132   28.2839 C   0  0  2  0  0  0  0  0  0  0  0  0
   54.5726    9.4025   29.6051 O   0  0  0  0  0  0  0  0  0  0  0  0
   53.3468    9.7714   27.5287 C   0  0  2  0  0  0  0  0  0  0  0  0
   53.4742   10.2743   26.1633 O   0  0  0  0  0  0  0  0  0  0  0  0
   52.2342   10.5794   28.2413 C   0  0  0  0  0  0  0  0  0  0  0  0
   51.0721   10.7009   27.4008 O   0  0  0  0  0  0  0  0  0  0  0  0
  1  2  1  1  0  0  0
  1  3  1  0  0  0  0
  1  4  2  0  0  0  0
  1 16  1  0  0  0  0
  5  6  1  1  0  0  0
  5  7  1  0  0  0  0
  5 14  1  0  0  0  0
  7  8  1  6  0  0  0
  7  9  1  0  0  0  0
  9 10  1  1  0  0  0
  9 11  1  0  0  0  0
 11 12  1  1  0  0  0
 11 13  1  0  0  0  0
 13 14  1  0  0  0  0
 13 15  1  1  0  0  0
 15 16  1  0  0  0  0
M  CHG  1   3  -1
M  END
>  <CHROM.1>
167.08885258,162.53200848,53.44516818,52.89189870,10.10167282,27.54095557
2.85299746,-0.27158627,1.42425942

>  <Name>
ligand

>  <RI>
0

>  <Rbt.Current_Directory>
/home/itssahil/PROJECTS/Mol_Feturizer/New_Systems/rnas/3B4C

>  <Rbt.Executable>
rbdock ($Id: //depot/dev/client3/rdock/2013.1/src/exe/rbdock.cxx#4 $)

>  <Rbt.Library>
libRbt.so (2013.1, Build901 2013/11/27)

>  <Rbt.Parameter_File>
/export/apps/rDock/src/rDock_2013.1_src/data/scripts/dock_solv.prm

>  <Rbt.Receptor>
prm/blind_docking_80.prm

>  <SCORE>
-13.3208

>  <SCORE.INTER>
-12.7926

>  <SCORE.INTER.CONST>
1

>  <SCORE.INTER.POLAR>
-1.83689

>  <SCORE.INTER.ROT>
3

>  <SCORE.INTER.SOLV>
23.0629

>  <SCORE.INTER.VDW>
-15.6931

>  <SCORE.INTER.norm>
-0.799539

>  <SCORE.INTRA>
-0.52955

>  <SCORE.INTRA.DIHEDRAL>
-0.0813889

>  <SCORE.INTRA.DIHEDRAL.0>
2.1318

>  <SCORE.INTRA.POLAR>
0

>  <SCORE.INTRA.POLAR.0>
0

>  <SCORE.INTRA.REPUL>
0

>  <SCORE.INTRA.REPUL.0>
0

>  <SCORE.INTRA.SOLV>
-0.98492

>  <SCORE.INTRA.SOLV.lig_0>
-58.6125

>  <SCORE.INTRA.VDW>
0.00360455

>  <SCORE.INTRA.VDW.0>
-0.432734

>  <SCORE.INTRA.norm>
-0.0330969

>  <SCORE.RESTR>
0.00141221

>  <SCORE.RESTR.CAVITY>
0.00141221

>  <SCORE.RESTR.norm>
8.82634e-05

>  <SCORE.SYSTEM>
0

>  <SCORE.SYSTEM.CONST>
0

>  <SCORE.SYSTEM.DIHEDRAL>
0

>  <SCORE.SYSTEM.SOLV>
0

>  <SCORE.SYSTEM.norm>
0

>  <SCORE.heavy>
16

>  <SCORE.norm>
-0.832548

>  <RMSD>
14.094

$$$$
ligand
 OpenBabel11021811463D
libRbt.so/2013.1/901 2013/11/27
 16 16  0  0  0  0  0  0  0  0999 V2000
   53.2665    9.6151   24.3421 P   0  0  2  0  0  0  0  0  0  0  0  0
   52.0838   10.4790   24.5795 O   0  0  0  0  0  0  0  0  0  0  0  0
   53.6139    9.5999   22.7711 O   0  5  0  0  0  0  0  0  0  0  0  0
   52.9224    8.1126   24.8150 O   0  0  0  0  0  0  0  0  0  0  0  0
   56.4452    9.1420   29.5269 C   0  0  2  0  0  0  0  0  0  0  0  0
   57.3079   10.2854   29.5374 O   0  0  0  0  0  0  0  0  0  0  0  0
   57.1808    7.9062   28.9475 C   0  0  2  0  0  0  0  0  0  0  0  0
   58.3847    7.6203   29.7511 N   0  0  0  0  0  0  0  0  0  0  0  0
   57.5790    8.2100   27.4934 C   0  0  1  0  0  0  0  0  0  0  0  0
   58.2457    7.0825   26.9195 O   0  0  0  0  0  0  0  0  0  0  0  0
   56.3014    8.5011   26.7079 C   0  0  2  0  0  0  0  0  0  0  0  0
   56.6476    8.7874   25.3588 O   0  0  0  0  0  0  0  0  0  0  0  0
   55.5903    9.7249   27.3471 C   0  0  2  0  0  0  0  0  0  0  0  0
   55.2520    9.4444   28.7401 O   0  0  0  0  0  0  0  0  0  0  0  0
   54.2817   10.0551   26.5873 C   0  0  0  0  0  0  0  0  0  0  0  0
   54.5303   10.1918   25.1762 O   0  0  0  0  0  0  0  0  0  0  0  0
  1  2  1  1  0  0  0
  1  3  1  0  0  0  0
  1  4  2  0  0  0  0
  1 16  1  0  0  0  0
  5  6  1  6  0  0  0
  5  7  1  0  0  0  0
  5 14  1  0  0  0  0
  7  8  1  1  0  0  0
  7  9  1  0  0  0  0
  9 10  1  6  0  0  0
  9 11  1  0  0  0  0
 11 12  1  6  0  0  0
 11 13  1  0  0  0  0
 13 14  1  0  0  0  0
 13 15  1  6  0  0  0
 15 16  1  0  0  0  0
M  CHG  1   3  -1
M  END
>  <CHROM.1>
-52.43679316,144.44783084,66.72961010,55.39152808,9.10519793,26.54849409
-2.49914335,-0.58085062,1.19168920

>  <Name>
ligand

>  <RI>
0

>  <Rbt.Current_Directory>
/home/itssahil/PROJECTS/Mol_Feturizer/New_Systems/rnas/3B4C

>  <Rbt.Executable>
rbdock ($Id: //depot/dev/client3/rdock/2013.1/src/exe/rbdock.cxx#4 $)

>  <Rbt.Library>
libRbt.so (2013.1, Build901 2013/11/27)

>  <Rbt.Parameter_File>
/export/apps/rDock/src/rDock_2013.1_src/data/scripts/dock_solv.prm

>  <Rbt.Receptor>
prm/blind_docking_100.prm

>  <SCORE>
-9.10969

>  <SCORE.INTER>
-10.9966

>  <SCORE.INTER.CONST>
1

>  <SCORE.INTER.POLAR>
0

>  <SCORE.INTER.ROT>
3

>  <SCORE.INTER.SOLV>
17.3797

>  <SCORE.INTER.VDW>
-18.7243

>  <SCORE.INTER.norm>
-0.687288

>  <SCORE.INTRA>
1.88691

>  <SCORE.INTRA.DIHEDRAL>
2.78485

>  <SCORE.INTRA.DIHEDRAL.0>
2.1318

>  <SCORE.INTRA.POLAR>
0

>  <SCORE.INTRA.POLAR.0>
0

>  <SCORE.INTRA.REPUL>
0

>  <SCORE.INTRA.REPUL.0>
0

>  <SCORE.INTRA.SOLV>
1.04514

>  <SCORE.INTRA.SOLV.lig_0>
-58.6125

>  <SCORE.INTRA.VDW>
-0.0280847

>  <SCORE.INTRA.VDW.0>
-0.432734

>  <SCORE.INTRA.norm>
0.117932

>  <SCORE.RESTR>
0

>  <SCORE.RESTR.CAVITY>
0

>  <SCORE.RESTR.norm>
0

>  <SCORE.SYSTEM>
0

>  <SCORE.SYSTEM.CONST>
0

>  <SCORE.SYSTEM.DIHEDRAL>
0

>  <SCORE.SYSTEM.SOLV>
0

>  <SCORE.SYSTEM.norm>
0

>  <SCORE.heavy>
16

>  <SCORE.norm>
-0.569356

>  <RMSD>
14.327

$$$$
ligand
 OpenBabel11021811463D
libRbt.so/2013.1/901 2013/11/27
 16 16  0  0  0  0  0  0  0  0999 V2000
   58.3339    8.1125   29.0557 P   0  0  2  0  0  0  0  0  0  0  0  0
   58.5215    8.0605   27.5848 O   0  0  0  0  0  0  0  0  0  0  0  0
   59.7693    8.0780   29.7819 O   0  5  0  0  0  0  0  0  0  0  0  0
   57.4821    6.8254   29.5219 O   0  0  0  0  0  0  0  0  0  0  0  0
   55.8836    9.2799   25.5181 C   0  0  2  0  0  0  0  0  0  0  0  0
   56.4392   10.5725   25.2488 O   0  0  0  0  0  0  0  0  0  0  0  0
   54.3423    9.3008   25.3514 C   0  0  2  0  0  0  0  0  0  0  0  0
   53.9945    9.7219   23.9808 N   0  0  0  0  0  0  0  0  0  0  0  0
   53.7523   10.2896   26.3710 C   0  0  1  0  0  0  0  0  0  0  0  0
   52.3270   10.3216   26.2581 O   0  0  0  0  0  0  0  0  0  0  0  0
   54.1425    9.8115   27.7685 C   0  0  2  0  0  0  0  0  0  0  0  0
   53.6081   10.7145   28.7281 O   0  0  0  0  0  0  0  0  0  0  0  0
   55.6919    9.7800   27.8708 C   0  0  2  0  0  0  0  0  0  0  0  0
   56.2477    8.8704   26.8723 O   0  0  0  0  0  0  0  0  0  0  0  0
   56.1373    9.2930   29.2719 C   0  0  0  0  0  0  0  0  0  0  0  0
   57.5536    9.4765   29.4507 O   0  0  0  0  0  0  0  0  0  0  0  0
  1  2  1  6  0  0  0
  1  3  1  0  0  0  0
  1  4  2  0  0  0  0
  1 16  1  0  0  0  0
  5  6  1  1  0  0  0
  5  7  1  0  0  0  0
  5 14  1  0  0  0  0
  7  8  1  6  0  0  0
  7  9  1  0  0  0  0
  9 10  1  1  0  0  0
  9 11  1  0  0  0  0
 11 12  1  1  0  0  0
 11 13  1  0  0  0  0
 13 14  1  0  0  0  0
 13 15  1  1  0  0  0
 15 16  1  0  0  0  0
M  CHG  1   3  -1
M  END
>  <CHROM.1>
-170.21677724,-94.11514645,82.56857080,56.11404583,9.18448947,27.57435128
-0.59553600,0.39280921,-1.54031972

>  <Name>
ligand

>  <RI>
0

>  <Rbt.Current_Directory>
/home/itssahil/PROJECTS/Mol_Feturizer/New_Systems/rnas/3B4C

>  <Rbt.Executable>
rbdock ($Id: //depot/dev/client3/rdock/2013.1/src/exe/rbdock.cxx#4 $)

>  <Rbt.Library>
libRbt.so (2013.1, Build901 2013/11/27)

>  <Rbt.Parameter_File>
/export/apps/rDock/src/rDock_2013.1_src/data/scripts/dock_solv.prm

>  <Rbt.Receptor>
prm/blind_docking_100.prm

>  <SCORE>
-6.83202

>  <SCORE.INTER>
-8.70536

>  <SCORE.INTER.CONST>
1

>  <SCORE.INTER.POLAR>
0

>  <SCORE.INTER.ROT>
3

>  <SCORE.INTER.SOLV>
14.2641

>  <SCORE.INTER.VDW>
-16.1583

>  <SCORE.INTER.norm>
-0.544085

>  <SCORE.INTRA>
1.87335

>  <SCORE.INTRA.DIHEDRAL>
3.33203

>  <SCORE.INTRA.DIHEDRAL.0>
2.1318

>  <SCORE.INTRA.POLAR>
0

>  <SCORE.INTRA.POLAR.0>
0

>  <SCORE.INTRA.REPUL>
0

>  <SCORE.INTRA.REPUL.0>
0

>  <SCORE.INTRA.SOLV>
0.775253

>  <SCORE.INTRA.SOLV.lig_0>
-58.6125

>  <SCORE.INTRA.VDW>
-0.180295

>  <SCORE.INTRA.VDW.0>
-0.432734

>  <SCORE.INTRA.norm>
0.117084

>  <SCORE.RESTR>
0

>  <SCORE.RESTR.CAVITY>
0

>  <SCORE.RESTR.norm>
0

>  <SCORE.SYSTEM>
0

>  <SCORE.SYSTEM.CONST>
0

>  <SCORE.SYSTEM.DIHEDRAL>
0

>  <SCORE.SYSTEM.SOLV>
0

>  <SCORE.SYSTEM.norm>
0

>  <SCORE.heavy>
16

>  <SCORE.norm>
-0.427001

>  <RMSD>
14.406

$$$$
ligand
 OpenBabel11021811463D
libRbt.so/2013.1/901 2013/11/27
 16 16  0  0  0  0  0  0  0  0999 V2000
   53.2105    9.4640   24.3120 P   0  0  2  0  0  0  0  0  0  0  0  0
   53.5364    9.5161   22.8654 O   0  0  0  0  0  0  0  0  0  0  0  0
   52.7212    7.9810   24.6993 O   0  5  0  0  0  0  0  0  0  0  0  0
   52.0174   10.5041   24.6190 O   0  0  0  0  0  0  0  0  0  0  0  0
   56.5086    9.0530   29.5515 C   0  0  2  0  0  0  0  0  0  0  0  0
   57.2119   10.3009   29.5423 O   0  0  0  0  0  0  0  0  0  0  0  0
   57.4086    7.9130   29.0089 C   0  0  2  0  0  0  0  0  0  0  0  0
   58.6298    7.8079   29.8302 N   0  0  0  0  0  0  0  0  0  0  0  0
   57.7809    8.2339   27.5516 C   0  0  1  0  0  0  0  0  0  0  0  0
   58.5982    7.1922   27.0113 O   0  0  0  0  0  0  0  0  0  0  0  0
   56.4858    8.3348   26.7476 C   0  0  2  0  0  0  0  0  0  0  0  0
   56.8075    8.6338   25.3952 O   0  0  0  0  0  0  0  0  0  0  0  0
   55.6109    9.4675   27.3505 C   0  0  2  0  0  0  0  0  0  0  0  0
   55.2957    9.1763   28.7467 O   0  0  0  0  0  0  0  0  0  0  0  0
   54.2796    9.6036   26.5709 C   0  0  0  0  0  0  0  0  0  0  0  0
   54.5274    9.8482   25.1744 O   0  0  0  0  0  0  0  0  0  0  0  0
  1  2  1  6  0  0  0
  1  3  1  0  0  0  0
  1  4  2  0  0  0  0
  1 16  1  0  0  0  0
  5  6  1  6  0  0  0
  5  7  1  0  0  0  0
  5 14  1  0  0  0  0
  7  8  1  1  0  0  0
  7  9  1  0  0  0  0
  9 10  1  6  0  0  0
  9 11  1  0  0  0  0
 11 12  1  6  0  0  0
 11 13  1  0  0  0  0
 13 14  1  0  0  0  0
 13 15  1  6  0  0  0
 15 16  1  0  0  0  0
M  CHG  1   3  -1
M  END
>  <CHROM.1>
-57.09212838,159.80607585,-171.30533189,55.44131981,8.99433492,26.56784975
-2.48313310,-0.49651537,1.24576981

>  <Name>
ligand

>  <RI>
0

>  <Rbt.Current_Directory>
/home/itssahil/PROJECTS/Mol_Feturizer/New_Systems/rnas/3B4C

>  <Rbt.Executable>
rbdock ($Id: //depot/dev/client3/rdock/2013.1/src/exe/rbdock.cxx#4 $)

>  <Rbt.Library>
libRbt.so (2013.1, Build901 2013/11/27)

>  <Rbt.Parameter_File>
/export/apps/rDock/src/rDock_2013.1_src/data/scripts/dock_solv.prm

>  <Rbt.Receptor>
prm/blind_docking_80.prm

>  <SCORE>
-10.1338

>  <SCORE.INTER>
-10.2878

>  <SCORE.INTER.CONST>
1

>  <SCORE.INTER.POLAR>
0

>  <SCORE.INTER.ROT>
3

>  <SCORE.INTER.SOLV>
17.8759

>  <SCORE.INTER.VDW>
-18.4171

>  <SCORE.INTER.norm>
-0.642986

>  <SCORE.INTRA>
0.153943

>  <SCORE.INTRA.DIHEDRAL>
-0.141352

>  <SCORE.INTRA.DIHEDRAL.0>
2.1318

>  <SCORE.INTRA.POLAR>
0

>  <SCORE.INTRA.POLAR.0>
0

>  <SCORE.INTRA.REPUL>
0

>  <SCORE.INTRA.REPUL.0>
0

>  <SCORE.INTRA.SOLV>
0.647832

>  <SCORE.INTRA.SOLV.lig_0>
-58.6125

>  <SCORE.INTRA.VDW>
-0.0992968

>  <SCORE.INTRA.VDW.0>
-0.432734

>  <SCORE.INTRA.norm>
0.00962146

>  <SCORE.RESTR>
0

>  <SCORE.RESTR.CAVITY>
0

>  <SCORE.RESTR.norm>
0

>  <SCORE.SYSTEM>
0

>  <SCORE.SYSTEM.CONST>
0

>  <SCORE.SYSTEM.DIHEDRAL>
0

>  <SCORE.SYSTEM.SOLV>
0

>  <SCORE.SYSTEM.norm>
0

>  <SCORE.heavy>
16

>  <SCORE.norm>
-0.633365

>  <RMSD>
14.422

$$$$
ligand
 OpenBabel11021811463D
libRbt.so/2013.1/901 2013/11/27
 16 16  0  0  0  0  0  0  0  0999 V2000
   51.3638   11.6122   28.4334 P   0  0  2  0  0  0  0  0  0  0  0  0
   51.1239   12.2854   27.1332 O   0  0  0  0  0  0  0  0  0  0  0  0
   50.5844   10.2048   28.4615 O   0  5  0  0  0  0  0  0  0  0  0  0
   50.7982   12.5457   29.6201 O   0  0  0  0  0  0  0  0  0  0  0  0
   56.2965    8.9978   29.5361 C   0  0  2  0  0  0  0  0  0  0  0  0
   57.1439   10.1508   29.6004 O   0  0  0  0  0  0  0  0  0  0  0  0
   56.8324    7.9816   28.4950 C   0  0  2  0  0  0  0  0  0  0  0  0
   58.2052    7.5771   28.8536 N   0  0  0  0  0  0  0  0  0  0  0  0
   56.8259    8.6495   27.1096 C   0  0  1  0  0  0  0  0  0  0  0  0
   57.2984    7.7330   26.1187 O   0  0  0  0  0  0  0  0  0  0  0  0
   55.3871    9.0505   26.7886 C   0  0  2  0  0  0  0  0  0  0  0  0
   55.3588    9.6732   25.5107 O   0  0  0  0  0  0  0  0  0  0  0  0
   54.8908   10.0421   27.8761 C   0  0  2  0  0  0  0  0  0  0  0  0
   54.9388    9.4148   29.1943 O   0  0  0  0  0  0  0  0  0  0  0  0
   53.4297   10.4730   27.5969 C   0  0  0  0  0  0  0  0  0  0  0  0
   52.9532   11.3612   28.6243 O   0  0  0  0  0  0  0  0  0  0  0  0
  1  2  1  6  0  0  0
  1  3  1  0  0  0  0
  1  4  2  0  0  0  0
  1 16  1  0  0  0  0
  5  6  1  6  0  0  0
  5  7  1  0  0  0  0
  5 14  1  0  0  0  0
  7  8  1  1  0  0  0
  7  9  1  0  0  0  0
  9 10  1  6  0  0  0
  9 11  1  0  0  0  0
 11 12  1  6  0  0  0
 11 13  1  0  0  0  0
 13 14  1  0  0  0  0
 13 15  1  6  0  0  0
 15 16  1  0  0  0  0
M  CHG  1   3  -1
M  END
>  <CHROM.1>
178.30543532,-171.32972892,-62.97353533,54.29218395,10.03100099,28.08490976
-2.96761081,0.48696160,-1.75279591

>  <Name>
ligand

>  <RI>
0

>  <Rbt.Current_Directory>
/home/itssahil/PROJECTS/Mol_Feturizer/New_Systems/rnas/3B4C

>  <Rbt.Executable>
rbdock ($Id: //depot/dev/client3/rdock/2013.1/src/exe/rbdock.cxx#4 $)

>  <Rbt.Library>
libRbt.so (2013.1, Build901 2013/11/27)

>  <Rbt.Parameter_File>
/export/apps/rDock/src/rDock_2013.1_src/data/scripts/dock_solv.prm

>  <Rbt.Receptor>
prm/blind_docking_100.prm

>  <SCORE>
-10.0777

>  <SCORE.INTER>
-8.61444

>  <SCORE.INTER.CONST>
1

>  <SCORE.INTER.POLAR>
0

>  <SCORE.INTER.ROT>
3

>  <SCORE.INTER.SOLV>
13.5256

>  <SCORE.INTER.VDW>
-15.8515

>  <SCORE.INTER.norm>
-0.538402

>  <SCORE.INTRA>
-1.46327

>  <SCORE.INTRA.DIHEDRAL>
-1.74117

>  <SCORE.INTRA.DIHEDRAL.0>
2.1318

>  <SCORE.INTRA.POLAR>
0

>  <SCORE.INTRA.POLAR.0>
0

>  <SCORE.INTRA.REPUL>
0

>  <SCORE.INTRA.REPUL.0>
0

>  <SCORE.INTRA.SOLV>
-0.898671

>  <SCORE.INTRA.SOLV.lig_0>
-58.6125

>  <SCORE.INTRA.VDW>
-0.143352

>  <SCORE.INTRA.VDW.0>
-0.432734

>  <SCORE.INTRA.norm>
-0.0914545

>  <SCORE.RESTR>
0

>  <SCORE.RESTR.CAVITY>
0

>  <SCORE.RESTR.norm>
0

>  <SCORE.SYSTEM>
0

>  <SCORE.SYSTEM.CONST>
0

>  <SCORE.SYSTEM.DIHEDRAL>
0

>  <SCORE.SYSTEM.SOLV>
0

>  <SCORE.SYSTEM.norm>
0

>  <SCORE.heavy>
16

>  <SCORE.norm>
-0.629857

>  <RMSD>
14.965

$$$$
ligand
 OpenBabel11021811463D
libRbt.so/2013.1/901 2013/11/27
 16 16  0  0  0  0  0  0  0  0999 V2000
   53.8175    9.4045   24.9703 P   0  0  2  0  0  0  0  0  0  0  0  0
   53.5041    8.0216   24.5337 O   0  0  0  0  0  0  0  0  0  0  0  0
   52.4585   10.2614   25.0578 O   0  5  0  0  0  0  0  0  0  0  0  0
   54.7965   10.0878   23.8867 O   0  0  0  0  0  0  0  0  0  0  0  0
   58.5759    7.8241   28.6594 C   0  0  2  0  0  0  0  0  0  0  0  0
   57.9210    6.6568   29.1696 O   0  0  0  0  0  0  0  0  0  0  0  0
   58.5348    8.9736   29.6990 C   0  0  2  0  0  0  0  0  0  0  0  0
   59.1853    8.5385   30.9497 N   0  0  0  0  0  0  0  0  0  0  0  0
   57.0651    9.3375   29.9696 C   0  0  1  0  0  0  0  0  0  0  0  0
   56.9889   10.4095   30.9131 O   0  0  0  0  0  0  0  0  0  0  0  0
   56.4392    9.7767   28.6471 C   0  0  2  0  0  0  0  0  0  0  0  0
   55.0772   10.1160   28.8746 O   0  0  0  0  0  0  0  0  0  0  0  0
   56.5343    8.6022   27.6354 C   0  0  2  0  0  0  0  0  0  0  0  0
   57.9306    8.2347   27.4147 O   0  0  0  0  0  0  0  0  0  0  0  0
   55.9171    9.0032   26.2727 C   0  0  0  0  0  0  0  0  0  0  0  0
   54.5313    9.3610   26.4244 O   0  0  0  0  0  0  0  0  0  0  0  0
  1  2  1  6  0  0  0
  1  3  1  0  0  0  0
  1  4  2  0  0  0  0
  1 16  1  0  0  0  0
  5  6  1  1  0  0  0
  5  7  1  0  0  0  0
  5 14  1  0  0  0  0
  7  8  1  1  0  0  0
  7  9  1  0  0  0  0
  9 10  1  1  0  0  0
  9 11  1  0  0  0  0
 11 12  1  1  0  0  0
 11 13  1  0  0  0  0
 13 14  1  0  0  0  0
 13 15  1  6  0  0  0
 15 16  1  0  0  0  0
M  CHG  1   3  -1
M  END
>  <CHROM.1>
-59.72042123,-165.57447206,78.90833060,55.96929013,9.07206147,27.44335854
-2.51478026,-0.64211232,1.03224869

>  <Name>
ligand

>  <RI>
0

>  <Rbt.Current_Directory>
/home/itssahil/PROJECTS/Mol_Feturizer/New_Systems/rnas/3B4C

>  <Rbt.Executable>
rbdock ($Id: //depot/dev/client3/rdock/2013.1/src/exe/rbdock.cxx#4 $)

>  <Rbt.Library>
libRbt.so (2013.1, Build901 2013/11/27)

>  <Rbt.Parameter_File>
/export/apps/rDock/src/rDock_2013.1_src/data/scripts/dock_solv.prm

>  <Rbt.Receptor>
prm/blind_docking_100.prm

>  <SCORE>
-9.82946

>  <SCORE.INTER>
-9.45786

>  <SCORE.INTER.CONST>
1

>  <SCORE.INTER.POLAR>
0

>  <SCORE.INTER.ROT>
3

>  <SCORE.INTER.SOLV>
14.181

>  <SCORE.INTER.VDW>
-16.6322

>  <SCORE.INTER.norm>
-0.591116

>  <SCORE.INTRA>
-0.371599

>  <SCORE.INTRA.DIHEDRAL>
-0.603576

>  <SCORE.INTRA.DIHEDRAL.0>
2.1318

>  <SCORE.INTRA.POLAR>
0

>  <SCORE.INTRA.POLAR.0>
0

>  <SCORE.INTRA.REPUL>
0

>  <SCORE.INTRA.REPUL.0>
0

>  <SCORE.INTRA.SOLV>
-0.51683

>  <SCORE.INTRA.SOLV.lig_0>
-58.6125

>  <SCORE.INTRA.VDW>
0.188604

>  <SCORE.INTRA.VDW.0>
-0.432734

>  <SCORE.INTRA.norm>
-0.0232249

>  <SCORE.RESTR>
0

>  <SCORE.RESTR.CAVITY>
0

>  <SCORE.RESTR.norm>
0

>  <SCORE.SYSTEM>
0

>  <SCORE.SYSTEM.CONST>
0

>  <SCORE.SYSTEM.DIHEDRAL>
0

>  <SCORE.SYSTEM.SOLV>
0

>  <SCORE.SYSTEM.norm>
0

>  <SCORE.heavy>
16

>  <SCORE.norm>
-0.614341

>  <RMSD>
15.331

$$$$
ligand
 OpenBabel11021811463D
libRbt.so/2013.1/901 2013/11/27
 16 16  0  0  0  0  0  0  0  0999 V2000
   35.5847    2.6497    7.8196 P   0  0  2  0  0  0  0  0  0  0  0  0
   37.0658    2.6926    7.8953 O   0  0  0  0  0  0  0  0  0  0  0  0
   35.0431    1.3606    8.6156 O   0  5  0  0  0  0  0  0  0  0  0  0
   35.1413    2.5329    6.2738 O   0  0  0  0  0  0  0  0  0  0  0  0
   32.8693    6.5204   11.1485 C   0  0  2  0  0  0  0  0  0  0  0  0
   31.4469    6.3831   11.2484 O   0  0  0  0  0  0  0  0  0  0  0  0
   33.2417    7.7987   10.3540 C   0  0  2  0  0  0  0  0  0  0  0  0
   32.6677    8.9841   11.0189 N   0  0  0  0  0  0  0  0  0  0  0  0
   32.6787    7.6712    8.9284 C   0  0  1  0  0  0  0  0  0  0  0  0
   33.0194    8.8277    8.1591 O   0  0  0  0  0  0  0  0  0  0  0  0
   33.3000    6.4313    8.2875 C   0  0  2  0  0  0  0  0  0  0  0  0
   32.7904    6.2931    6.9673 O   0  0  0  0  0  0  0  0  0  0  0  0
   32.9225    5.1876    9.1377 C   0  0  2  0  0  0  0  0  0  0  0  0
   33.4246    5.3341   10.5015 O   0  0  0  0  0  0  0  0  0  0  0  0
   33.5376    3.9028    8.5298 C   0  0  0  0  0  0  0  0  0  0  0  0
   34.9729    3.9971    8.4798 O   0  0  0  0  0  0  0  0  0  0  0  0
  1  2  1  1  0  0  0
  1  3  1  0  0  0  0
  1  4  2  0  0  0  0
  1 16  1  0  0  0  0
  5  6  1  6  0  0  0
  5  7  1  0  0  0  0
  5 14  1  0  0  0  0
  7  8  1  1  0  0  0
  7  9  1  0  0  0  0
  9 10  1  6  0  0  0
  9 11  1  0  0  0  0
 11 12  1  6  0  0  0
 11 13  1  0  0  0  0
 13 14  1  0  0  0  0
 13 15  1  6  0  0  0
 15 16  1  0  0  0  0
M  CHG  1   3  -1
M  END
>  <CHROM.1>
59.84817199,-179.15025521,-174.33228239,33.89475645,5.15247712,8.84354857
0.16545673,-1.08108560,2.16646453

>  <Name>
ligand

>  <RI>
0

>  <Rbt.Current_Directory>
/home/itssahil/PROJECTS/Mol_Feturizer/New_Systems/rnas/3B4C

>  <Rbt.Executable>
rbdock ($Id: //depot/dev/client3/rdock/2013.1/src/exe/rbdock.cxx#4 $)

>  <Rbt.Library>
libRbt.so (2013.1, Build901 2013/11/27)

>  <Rbt.Parameter_File>
/export/apps/rDock/src/rDock_2013.1_src/data/scripts/dock_solv.prm

>  <Rbt.Receptor>
prm/blind_docking_40.prm

>  <SCORE>
-10.0759

>  <SCORE.INTER>
-8.60598

>  <SCORE.INTER.CONST>
1

>  <SCORE.INTER.POLAR>
0

>  <SCORE.INTER.ROT>
3

>  <SCORE.INTER.SOLV>
9.27667

>  <SCORE.INTER.VDW>
-14.4295

>  <SCORE.INTER.norm>
-0.537874

>  <SCORE.INTRA>
-1.46991

>  <SCORE.INTRA.DIHEDRAL>
-2.07157

>  <SCORE.INTRA.DIHEDRAL.0>
2.1318

>  <SCORE.INTRA.POLAR>
0

>  <SCORE.INTRA.POLAR.0>
0

>  <SCORE.INTRA.REPUL>
0

>  <SCORE.INTRA.REPUL.0>
0

>  <SCORE.INTRA.SOLV>
-0.174468

>  <SCORE.INTRA.SOLV.lig_0>
-58.6125

>  <SCORE.INTRA.VDW>
-0.346891

>  <SCORE.INTRA.VDW.0>
-0.432734

>  <SCORE.INTRA.norm>
-0.0918694

>  <SCORE.RESTR>
0

>  <SCORE.RESTR.CAVITY>
0

>  <SCORE.RESTR.norm>
0

>  <SCORE.SYSTEM>
0

>  <SCORE.SYSTEM.CONST>
0

>  <SCORE.SYSTEM.DIHEDRAL>
0

>  <SCORE.SYSTEM.SOLV>
0

>  <SCORE.SYSTEM.norm>
0

>  <SCORE.heavy>
16

>  <SCORE.norm>
-0.629743

>  <RMSD>
17.636

$$$$
ligand
 OpenBabel11021811463D
libRbt.so/2013.1/901 2013/11/27
 16 16  0  0  0  0  0  0  0  0999 V2000
   35.6394    2.5491    7.8041 P   0  0  2  0  0  0  0  0  0  0  0  0
   37.1197    2.6238    7.8698 O   0  0  0  0  0  0  0  0  0  0  0  0
   35.1326    1.2358    8.5832 O   0  5  0  0  0  0  0  0  0  0  0  0
   35.1871    2.4470    6.2599 O   0  0  0  0  0  0  0  0  0  0  0  0
   32.8415    6.3271   11.1665 C   0  0  2  0  0  0  0  0  0  0  0  0
   31.4207    6.1671   11.2536 O   0  0  0  0  0  0  0  0  0  0  0  0
   33.2004    7.6239   10.3962 C   0  0  2  0  0  0  0  0  0  0  0  0
   32.6041    8.7894   11.0764 N   0  0  0  0  0  0  0  0  0  0  0  0
   32.6498    7.5120    8.9645 C   0  0  1  0  0  0  0  0  0  0  0  0
   32.9786    8.6861    8.2172 O   0  0  0  0  0  0  0  0  0  0  0  0
   33.2941    6.2924    8.3078 C   0  0  2  0  0  0  0  0  0  0  0  0
   32.7961    6.1688    6.9817 O   0  0  0  0  0  0  0  0  0  0  0  0
   32.9292    5.0292    9.1343 C   0  0  2  0  0  0  0  0  0  0  0  0
   33.4192    5.1602   10.5040 O   0  0  0  0  0  0  0  0  0  0  0  0
   33.5678    3.7640    8.5097 C   0  0  0  0  0  0  0  0  0  0  0  0
   35.0029    3.8719    8.4902 O   0  0  0  0  0  0  0  0  0  0  0  0
  1  2  1  1  0  0  0
  1  3  1  0  0  0  0
  1  4  2  0  0  0  0
  1 16  1  0  0  0  0
  5  6  1  6  0  0  0
  5  7  1  0  0  0  0
  5 14  1  0  0  0  0
  7  8  1  1  0  0  0
  7  9  1  0  0  0  0
  9 10  1  6  0  0  0
  9 11  1  0  0  0  0
 11 12  1  6  0  0  0
 11 13  1  0  0  0  0
 13 14  1  0  0  0  0
 13 15  1  6  0  0  0
 15 16  1  0  0  0  0
M  CHG  1   3  -1
M  END
>  <CHROM.1>
60.70795887,-178.82764535,-176.18274536,33.90428988,5.01168599,8.85074483
0.15958009,-1.06459209,2.17530601

>  <Name>
ligand

>  <RI>
0

>  <Rbt.Current_Directory>
/home/itssahil/PROJECTS/Mol_Feturizer/New_Systems/rnas/3B4C

>  <Rbt.Executable>
rbdock ($Id: //depot/dev/client3/rdock/2013.1/src/exe/rbdock.cxx#4 $)

>  <Rbt.Library>
libRbt.so (2013.1, Build901 2013/11/27)

>  <Rbt.Parameter_File>
/export/apps/rDock/src/rDock_2013.1_src/data/scripts/dock_solv.prm

>  <Rbt.Receptor>
prm/blind_docking_40.prm

>  <SCORE>
-10.0881

>  <SCORE.INTER>
-8.59041

>  <SCORE.INTER.CONST>
1

>  <SCORE.INTER.POLAR>
0

>  <SCORE.INTER.ROT>
3

>  <SCORE.INTER.SOLV>
9.29171

>  <SCORE.INTER.VDW>
-14.4242

>  <SCORE.INTER.norm>
-0.536901

>  <SCORE.INTRA>
-1.49766

>  <SCORE.INTRA.DIHEDRAL>
-2.09543

>  <SCORE.INTRA.DIHEDRAL.0>
2.1318

>  <SCORE.INTRA.POLAR>
0

>  <SCORE.INTRA.POLAR.0>
0

>  <SCORE.INTRA.REPUL>
0

>  <SCORE.INTRA.REPUL.0>
0

>  <SCORE.INTRA.SOLV>
-0.173697

>  <SCORE.INTRA.SOLV.lig_0>
-58.6125

>  <SCORE.INTRA.VDW>
-0.363097

>  <SCORE.INTRA.VDW.0>
-0.432734

>  <SCORE.INTRA.norm>
-0.0936038

>  <SCORE.RESTR>
0

>  <SCORE.RESTR.CAVITY>
0

>  <SCORE.RESTR.norm>
0

>  <SCORE.SYSTEM>
0

>  <SCORE.SYSTEM.CONST>
0

>  <SCORE.SYSTEM.DIHEDRAL>
0

>  <SCORE.SYSTEM.SOLV>
0

>  <SCORE.SYSTEM.norm>
0

>  <SCORE.heavy>
16

>  <SCORE.norm>
-0.630504

>  <RMSD>
17.671

$$$$
ligand
 OpenBabel11021811463D
libRbt.so/2013.1/901 2013/11/27
 16 16  0  0  0  0  0  0  0  0999 V2000
   35.2127    1.7998    8.7187 P   0  0  2  0  0  0  0  0  0  0  0  0
   36.4556    2.4470    8.2312 O   0  0  0  0  0  0  0  0  0  0  0  0
   35.5831    0.6852    9.8183 O   0  5  0  0  0  0  0  0  0  0  0  0
   34.4726    1.0835    7.4783 O   0  0  0  0  0  0  0  0  0  0  0  0
   32.9827    6.4502   11.1297 C   0  0  2  0  0  0  0  0  0  0  0  0
   31.6296    6.0062   11.2839 O   0  0  0  0  0  0  0  0  0  0  0  0
   33.0360    7.7757   10.3271 C   0  0  2  0  0  0  0  0  0  0  0  0
   32.2433    8.8100   11.0190 N   0  0  0  0  0  0  0  0  0  0  0  0
   32.4598    7.5226    8.9238 C   0  0  1  0  0  0  0  0  0  0  0  0
   32.5098    8.7224    8.1471 O   0  0  0  0  0  0  0  0  0  0  0  0
   33.3115    6.4457    8.2539 C   0  0  2  0  0  0  0  0  0  0  0  0
   32.7937    6.1942    6.9537 O   0  0  0  0  0  0  0  0  0  0  0  0
   33.2478    5.1530    9.1125 C   0  0  2  0  0  0  0  0  0  0  0  0
   33.7581    5.4112   10.4565 O   0  0  0  0  0  0  0  0  0  0  0  0
   34.1045    4.0310    8.4755 C   0  0  0  0  0  0  0  0  0  0  0  0
   34.2461    2.9200    9.3795 O   0  0  0  0  0  0  0  0  0  0  0  0
  1  2  1  6  0  0  0
  1  3  1  0  0  0  0
  1  4  2  0  0  0  0
  1 16  1  0  0  0  0
  5  6  1  6  0  0  0
  5  7  1  0  0  0  0
  5 14  1  0  0  0  0
  7  8  1  1  0  0  0
  7  9  1  0  0  0  0
  9 10  1  6  0  0  0
  9 11  1  0  0  0  0
 11 12  1  6  0  0  0
 11 13  1  0  0  0  0
 13 14  1  0  0  0  0
 13 15  1  6  0  0  0
 15 16  1  0  0  0  0
M  CHG  1   3  -1
M  END
>  <CHROM.1>
169.59867379,-176.90364586,49.88885985,33.76596435,4.78119645,9.17431989
0.08370322,-1.14625220,1.83647391

>  <Name>
ligand

>  <RI>
0

>  <Rbt.Current_Directory>
/home/itssahil/PROJECTS/Mol_Feturizer/New_Systems/rnas/3B4C

>  <Rbt.Executable>
rbdock ($Id: //depot/dev/client3/rdock/2013.1/src/exe/rbdock.cxx#4 $)

>  <Rbt.Library>
libRbt.so (2013.1, Build901 2013/11/27)

>  <Rbt.Parameter_File>
/export/apps/rDock/src/rDock_2013.1_src/data/scripts/dock_solv.prm

>  <Rbt.Receptor>
prm/blind_docking_40.prm

>  <SCORE>
-9.30871

>  <SCORE.INTER>
-8.04596

>  <SCORE.INTER.CONST>
1

>  <SCORE.INTER.POLAR>
0

>  <SCORE.INTER.ROT>
3

>  <SCORE.INTER.SOLV>
10.0572

>  <SCORE.INTER.VDW>
-14.3164

>  <SCORE.INTER.norm>
-0.502872

>  <SCORE.INTRA>
-1.26275

>  <SCORE.INTRA.DIHEDRAL>
-1.54233

>  <SCORE.INTRA.DIHEDRAL.0>
2.1318

>  <SCORE.INTRA.POLAR>
0

>  <SCORE.INTRA.POLAR.0>
0

>  <SCORE.INTRA.REPUL>
0

>  <SCORE.INTRA.REPUL.0>
0

>  <SCORE.INTRA.SOLV>
-1.08213

>  <SCORE.INTRA.SOLV.lig_0>
-58.6125

>  <SCORE.INTRA.VDW>
0.0494826

>  <SCORE.INTRA.VDW.0>
-0.432734

>  <SCORE.INTRA.norm>
-0.0789219

>  <SCORE.RESTR>
0

>  <SCORE.RESTR.CAVITY>
0

>  <SCORE.RESTR.norm>
0

>  <SCORE.SYSTEM>
0

>  <SCORE.SYSTEM.CONST>
0

>  <SCORE.SYSTEM.DIHEDRAL>
0

>  <SCORE.SYSTEM.SOLV>
0

>  <SCORE.SYSTEM.norm>
0

>  <SCORE.heavy>
16

>  <SCORE.norm>
-0.581794

>  <RMSD>
17.762

$$$$
ligand
 OpenBabel11021811463D
libRbt.so/2013.1/901 2013/11/27
 16 16  0  0  0  0  0  0  0  0999 V2000
   35.2005    1.8111    8.6982 P   0  0  2  0  0  0  0  0  0  0  0  0
   36.4754    2.4432    8.2782 O   0  0  0  0  0  0  0  0  0  0  0  0
   35.5049    0.6425    9.7615 O   0  5  0  0  0  0  0  0  0  0  0  0
   34.4833    1.1669    7.4058 O   0  0  0  0  0  0  0  0  0  0  0  0
   32.9915    6.4494   11.1394 C   0  0  2  0  0  0  0  0  0  0  0  0
   31.6397    6.0080   11.3117 O   0  0  0  0  0  0  0  0  0  0  0  0
   33.0365    7.7763   10.3385 C   0  0  2  0  0  0  0  0  0  0  0  0
   32.2557    8.8110   11.0432 N   0  0  0  0  0  0  0  0  0  0  0  0
   32.4402    7.5269    8.9429 C   0  0  1  0  0  0  0  0  0  0  0  0
   32.4818    8.7280    8.1677 O   0  0  0  0  0  0  0  0  0  0  0  0
   33.2801    6.4494    8.2593 C   0  0  2  0  0  0  0  0  0  0  0  0
   32.7436    6.2013    6.9660 O   0  0  0  0  0  0  0  0  0  0  0  0
   33.2256    5.1553    9.1164 C   0  0  2  0  0  0  0  0  0  0  0  0
   33.7552    5.4100   10.4535 O   0  0  0  0  0  0  0  0  0  0  0  0
   34.0709    4.0327    8.4655 C   0  0  0  0  0  0  0  0  0  0  0  0
   34.2423    2.9296    9.3740 O   0  0  0  0  0  0  0  0  0  0  0  0
  1  2  1  6  0  0  0
  1  3  1  0  0  0  0
  1  4  2  0  0  0  0
  1 16  1  0  0  0  0
  5  6  1  6  0  0  0
  5  7  1  0  0  0  0
  5 14  1  0  0  0  0
  7  8  1  1  0  0  0
  7  9  1  0  0  0  0
  9 10  1  6  0  0  0
  9 11  1  0  0  0  0
 11 12  1  6  0  0  0
 11 13  1  0  0  0  0
 13 14  1  0  0  0  0
 13 15  1  6  0  0  0
 15 16  1  0  0  0  0
M  CHG  1   3  -1
M  END
>  <CHROM.1>
168.59876953,-176.73155318,54.60584574,33.75220872,4.78703717,9.17323611
0.05282550,-1.14772994,1.80933491

>  <Name>
ligand

>  <RI>
0

>  <Rbt.Current_Directory>
/home/itssahil/PROJECTS/Mol_Feturizer/New_Systems/rnas/3B4C

>  <Rbt.Executable>
rbdock ($Id: //depot/dev/client3/rdock/2013.1/src/exe/rbdock.cxx#4 $)

>  <Rbt.Library>
libRbt.so (2013.1, Build901 2013/11/27)

>  <Rbt.Parameter_File>
/export/apps/rDock/src/rDock_2013.1_src/data/scripts/dock_solv.prm

>  <Rbt.Receptor>
prm/blind_docking_40.prm

>  <SCORE>
-9.30075

>  <SCORE.INTER>
-7.97055

>  <SCORE.INTER.CONST>
1

>  <SCORE.INTER.POLAR>
0

>  <SCORE.INTER.ROT>
3

>  <SCORE.INTER.SOLV>
9.88647

>  <SCORE.INTER.VDW>
-14.2092

>  <SCORE.INTER.norm>
-0.49816

>  <SCORE.INTRA>
-1.3302

>  <SCORE.INTRA.DIHEDRAL>
-1.57809

>  <SCORE.INTRA.DIHEDRAL.0>
2.1318

>  <SCORE.INTRA.POLAR>
0

>  <SCORE.INTRA.POLAR.0>
0

>  <SCORE.INTRA.REPUL>
0

>  <SCORE.INTRA.REPUL.0>
0

>  <SCORE.INTRA.SOLV>
-1.03449

>  <SCORE.INTRA.SOLV.lig_0>
-58.6125

>  <SCORE.INTRA.VDW>
-0.0239102

>  <SCORE.INTRA.VDW.0>
-0.432734

>  <SCORE.INTRA.norm>
-0.0831375

>  <SCORE.RESTR>
0

>  <SCORE.RESTR.CAVITY>
0

>  <SCORE.RESTR.norm>
0

>  <SCORE.SYSTEM>
0

>  <SCORE.SYSTEM.CONST>
0

>  <SCORE.SYSTEM.DIHEDRAL>
0

>  <SCORE.SYSTEM.SOLV>
0

>  <SCORE.SYSTEM.norm>
0

>  <SCORE.heavy>
16

>  <SCORE.norm>
-0.581297

>  <RMSD>
17.772

$$$$
ligand
 OpenBabel11021811463D
libRbt.so/2013.1/901 2013/11/27
 16 16  0  0  0  0  0  0  0  0999 V2000
   34.9268    1.6037    9.0028 P   0  0  2  0  0  0  0  0  0  0  0  0
   36.2457    2.0998    8.5384 O   0  0  0  0  0  0  0  0  0  0  0  0
   35.1437    0.4670   10.1208 O   0  5  0  0  0  0  0  0  0  0  0  0
   34.1374    0.9618    7.7521 O   0  0  0  0  0  0  0  0  0  0  0  0
   32.9944    6.5375   11.1765 C   0  0  2  0  0  0  0  0  0  0  0  0
   31.6313    6.1433   11.3728 O   0  0  0  0  0  0  0  0  0  0  0  0
   33.0754    7.8039   10.2857 C   0  0  2  0  0  0  0  0  0  0  0  0
   32.3192    8.9044   10.9133 N   0  0  0  0  0  0  0  0  0  0  0  0
   32.4770    7.4733    8.9080 C   0  0  1  0  0  0  0  0  0  0  0  0
   32.5514    8.6162    8.0516 O   0  0  0  0  0  0  0  0  0  0  0  0
   33.2912    6.3301    8.3047 C   0  0  2  0  0  0  0  0  0  0  0  0
   32.7522    6.0064    7.0293 O   0  0  0  0  0  0  0  0  0  0  0  0
   33.2013    5.1005    9.2493 C   0  0  2  0  0  0  0  0  0  0  0  0
   33.7334    5.4340   10.5680 O   0  0  0  0  0  0  0  0  0  0  0  0
   34.0196    3.9144    8.6818 C   0  0  0  0  0  0  0  0  0  0  0  0
   34.0798    2.8341    9.6309 O   0  0  0  0  0  0  0  0  0  0  0  0
  1  2  1  6  0  0  0
  1  3  1  0  0  0  0
  1  4  2  0  0  0  0
  1 16  1  0  0  0  0
  5  6  1  6  0  0  0
  5  7  1  0  0  0  0
  5 14  1  0  0  0  0
  7  8  1  1  0  0  0
  7  9  1  0  0  0  0
  9 10  1  6  0  0  0
  9 11  1  0  0  0  0
 11 12  1  6  0  0  0
 11 13  1  0  0  0  0
 13 14  1  0  0  0  0
 13 15  1  6  0  0  0
 15 16  1  0  0  0  0
M  CHG  1   3  -1
M  END
>  <CHROM.1>
172.68190604,179.36372832,53.22008048,33.65591643,4.69303281,9.30748006,0.08597633
-1.20075387,1.78236858

>  <Name>
ligand

>  <RI>
0

>  <Rbt.Current_Directory>
/home/itssahil/PROJECTS/Mol_Feturizer/New_Systems/rnas/3B4C

>  <Rbt.Executable>
rbdock ($Id: //depot/dev/client3/rdock/2013.1/src/exe/rbdock.cxx#4 $)

>  <Rbt.Library>
libRbt.so (2013.1, Build901 2013/11/27)

>  <Rbt.Parameter_File>
/export/apps/rDock/src/rDock_2013.1_src/data/scripts/dock_solv.prm

>  <Rbt.Receptor>
prm/blind_docking_40.prm

>  <SCORE>
-9.1894

>  <SCORE.INTER>
-7.70469

>  <SCORE.INTER.CONST>
1

>  <SCORE.INTER.POLAR>
0

>  <SCORE.INTER.ROT>
3

>  <SCORE.INTER.SOLV>
11.865

>  <SCORE.INTER.VDW>
-14.6914

>  <SCORE.INTER.norm>
-0.481543

>  <SCORE.INTRA>
-1.48471

>  <SCORE.INTRA.DIHEDRAL>
-1.86551

>  <SCORE.INTRA.DIHEDRAL.0>
2.1318

>  <SCORE.INTRA.POLAR>
0

>  <SCORE.INTRA.POLAR.0>
0

>  <SCORE.INTRA.REPUL>
0

>  <SCORE.INTRA.REPUL.0>
0

>  <SCORE.INTRA.SOLV>
-1.06057

>  <SCORE.INTRA.SOLV.lig_0>
-58.6125

>  <SCORE.INTRA.VDW>
-0.0216706

>  <SCORE.INTRA.VDW.0>
-0.432734

>  <SCORE.INTRA.norm>
-0.0927944

>  <SCORE.RESTR>
0

>  <SCORE.RESTR.CAVITY>
0

>  <SCORE.RESTR.norm>
0

>  <SCORE.SYSTEM>
0

>  <SCORE.SYSTEM.CONST>
0

>  <SCORE.SYSTEM.DIHEDRAL>
0

>  <SCORE.SYSTEM.SOLV>
0

>  <SCORE.SYSTEM.norm>
0

>  <SCORE.heavy>
16

>  <SCORE.norm>
-0.574337

>  <RMSD>
17.853

$$$$
ligand
 OpenBabel11021811463D
libRbt.so/2013.1/901 2013/11/27
 16 16  0  0  0  0  0  0  0  0999 V2000
   34.9498    2.6671    7.1050 P   0  0  2  0  0  0  0  0  0  0  0  0
   36.2944    3.2105    7.4182 O   0  0  0  0  0  0  0  0  0  0  0  0
   34.7604    1.2468    7.8369 O   0  5  0  0  0  0  0  0  0  0  0  0
   34.8281    2.4535    5.5115 O   0  0  0  0  0  0  0  0  0  0  0  0
   32.4008    6.3273   11.4725 C   0  0  2  0  0  0  0  0  0  0  0  0
   31.0354    5.9173   11.3335 O   0  0  0  0  0  0  0  0  0  0  0  0
   32.6465    7.6711   10.7391 C   0  0  2  0  0  0  0  0  0  0  0  0
   31.7517    8.7088   11.2864 N   0  0  0  0  0  0  0  0  0  0  0  0
   32.3644    7.4705    9.2406 C   0  0  1  0  0  0  0  0  0  0  0  0
   32.5987    8.6881    8.5280 O   0  0  0  0  0  0  0  0  0  0  0  0
   33.3115    6.3880    8.7256 C   0  0  2  0  0  0  0  0  0  0  0  0
   33.0655    6.1846    7.3400 O   0  0  0  0  0  0  0  0  0  0  0  0
   33.0449    5.0758    9.5127 C   0  0  2  0  0  0  0  0  0  0  0  0
   33.2747    5.2849   10.9399 O   0  0  0  0  0  0  0  0  0  0  0  0
   33.9891    3.9473    9.0295 C   0  0  0  0  0  0  0  0  0  0  0  0
   33.8167    3.7039    7.6215 O   0  0  0  0  0  0  0  0  0  0  0  0
  1  2  1  1  0  0  0
  1  3  1  0  0  0  0
  1  4  2  0  0  0  0
  1 16  1  0  0  0  0
  5  6  1  6  0  0  0
  5  7  1  0  0  0  0
  5 14  1  0  0  0  0
  7  8  1  1  0  0  0
  7  9  1  0  0  0  0
  9 10  1  6  0  0  0
  9 11  1  0  0  0  0
 11 12  1  6  0  0  0
 11 13  1  0  0  0  0
 13 14  1  0  0  0  0
 13 15  1  6  0  0  0
 15 16  1  0  0  0  0
M  CHG  1   3  -1
M  END
>  <CHROM.1>
-58.43918982,172.37819051,-56.62494581,33.52171680,5.06042238,8.79088845
-0.21594524,1.11783032,-0.71828979

>  <Name>
ligand

>  <RI>
0

>  <Rbt.Current_Directory>
/home/itssahil/PROJECTS/Mol_Feturizer/New_Systems/rnas/3B4C

>  <Rbt.Executable>
rbdock ($Id: //depot/dev/client3/rdock/2013.1/src/exe/rbdock.cxx#4 $)

>  <Rbt.Library>
libRbt.so (2013.1, Build901 2013/11/27)

>  <Rbt.Parameter_File>
/export/apps/rDock/src/rDock_2013.1_src/data/scripts/dock_solv.prm

>  <Rbt.Receptor>
prm/blind_docking_40.prm

>  <SCORE>
-8.276

>  <SCORE.INTER>
-7.13806

>  <SCORE.INTER.CONST>
1

>  <SCORE.INTER.POLAR>
0

>  <SCORE.INTER.ROT>
3

>  <SCORE.INTER.SOLV>
7.00259

>  <SCORE.INTER.VDW>
-12.6929

>  <SCORE.INTER.norm>
-0.446129

>  <SCORE.INTRA>
-1.13794

>  <SCORE.INTRA.DIHEDRAL>
-1.81738

>  <SCORE.INTRA.DIHEDRAL.0>
2.1318

>  <SCORE.INTRA.POLAR>
0

>  <SCORE.INTRA.POLAR.0>
0

>  <SCORE.INTRA.REPUL>
0

>  <SCORE.INTRA.REPUL.0>
0

>  <SCORE.INTRA.SOLV>
-0.543372

>  <SCORE.INTRA.SOLV.lig_0>
-58.6125

>  <SCORE.INTRA.VDW>
0.042437

>  <SCORE.INTRA.VDW.0>
-0.432734

>  <SCORE.INTRA.norm>
-0.0711212

>  <SCORE.RESTR>
0

>  <SCORE.RESTR.CAVITY>
0

>  <SCORE.RESTR.norm>
0

>  <SCORE.SYSTEM>
0

>  <SCORE.SYSTEM.CONST>
0

>  <SCORE.SYSTEM.DIHEDRAL>
0

>  <SCORE.SYSTEM.SOLV>
0

>  <SCORE.SYSTEM.norm>
0

>  <SCORE.heavy>
16

>  <SCORE.norm>
-0.51725

>  <RMSD>
17.959

$$$$
ligand
 OpenBabel11021811463D
libRbt.so/2013.1/901 2013/11/27
 16 16  0  0  0  0  0  0  0  0999 V2000
   34.4412    1.3599    9.1682 P   0  0  2  0  0  0  0  0  0  0  0  0
   34.3993    0.2759   10.1804 O   0  0  0  0  0  0  0  0  0  0  0  0
   33.7095    0.8671    7.8227 O   0  5  0  0  0  0  0  0  0  0  0  0
   35.9798    1.7030    8.8299 O   0  0  0  0  0  0  0  0  0  0  0  0
   32.8542    6.5056   11.2167 C   0  0  2  0  0  0  0  0  0  0  0  0
   31.4595    6.2038   11.3417 O   0  0  0  0  0  0  0  0  0  0  0  0
   33.0674    7.7443   10.3089 C   0  0  2  0  0  0  0  0  0  0  0  0
   32.3505    8.9045   10.8716 N   0  0  0  0  0  0  0  0  0  0  0  0
   32.5269    7.4222    8.9054 C   0  0  1  0  0  0  0  0  0  0  0  0
   32.7236    8.5388    8.0338 O   0  0  0  0  0  0  0  0  0  0  0  0
   33.2975    6.2162    8.3710 C   0  0  2  0  0  0  0  0  0  0  0  0
   32.8111    5.8996    7.0730 O   0  0  0  0  0  0  0  0  0  0  0  0
   33.0749    5.0161    9.3313 C   0  0  2  0  0  0  0  0  0  0  0  0
   33.5528    5.3439   10.6721 O   0  0  0  0  0  0  0  0  0  0  0  0
   33.8448    3.7678    8.8337 C   0  0  0  0  0  0  0  0  0  0  0  0
   33.6880    2.6706    9.7519 O   0  0  0  0  0  0  0  0  0  0  0  0
  1  2  1  1  0  0  0
  1  3  1  0  0  0  0
  1  4  2  0  0  0  0
  1 16  1  0  0  0  0
  5  6  1  6  0  0  0
  5  7  1  0  0  0  0
  5 14  1  0  0  0  0
  7  8  1  1  0  0  0
  7  9  1  0  0  0  0
  9 10  1  6  0  0  0
  9 11  1  0  0  0  0
 11 12  1  6  0  0  0
 11 13  1  0  0  0  0
 13 14  1  0  0  0  0
 13 15  1  6  0  0  0
 15 16  1  0  0  0  0
M  CHG  1   3  -1
M  END
>  <CHROM.1>
177.49897623,177.16813030,174.08226900,33.45314084,4.57004554,9.38544898
0.33560664,-1.26159713,2.01824196

>  <Name>
ligand

>  <RI>
0

>  <Rbt.Current_Directory>
/home/itssahil/PROJECTS/Mol_Feturizer/New_Systems/rnas/3B4C

>  <Rbt.Executable>
rbdock ($Id: //depot/dev/client3/rdock/2013.1/src/exe/rbdock.cxx#4 $)

>  <Rbt.Library>
libRbt.so (2013.1, Build901 2013/11/27)

>  <Rbt.Parameter_File>
/export/apps/rDock/src/rDock_2013.1_src/data/scripts/dock_solv.prm

>  <Rbt.Receptor>
prm/blind_docking_40.prm

>  <SCORE>
-9.75718

>  <SCORE.INTER>
-8.35603

>  <SCORE.INTER.CONST>
1

>  <SCORE.INTER.POLAR>
0

>  <SCORE.INTER.ROT>
3

>  <SCORE.INTER.SOLV>
12.7742

>  <SCORE.INTER.VDW>
-15.4287

>  <SCORE.INTER.norm>
-0.522252

>  <SCORE.INTRA>
-1.40115

>  <SCORE.INTRA.DIHEDRAL>
-2.01258

>  <SCORE.INTRA.DIHEDRAL.0>
2.1318

>  <SCORE.INTRA.POLAR>
0

>  <SCORE.INTRA.POLAR.0>
0

>  <SCORE.INTRA.REPUL>
0

>  <SCORE.INTRA.REPUL.0>
0

>  <SCORE.INTRA.SOLV>
-0.37774

>  <SCORE.INTRA.SOLV.lig_0>
-58.6125

>  <SCORE.INTRA.VDW>
-0.205993

>  <SCORE.INTRA.VDW.0>
-0.432734

>  <SCORE.INTRA.norm>
-0.087572

>  <SCORE.RESTR>
0

>  <SCORE.RESTR.CAVITY>
0

>  <SCORE.RESTR.norm>
0

>  <SCORE.SYSTEM>
0

>  <SCORE.SYSTEM.CONST>
0

>  <SCORE.SYSTEM.DIHEDRAL>
0

>  <SCORE.SYSTEM.SOLV>
0

>  <SCORE.SYSTEM.norm>
0

>  <SCORE.heavy>
16

>  <SCORE.norm>
-0.609824

>  <RMSD>
18.063

$$$$
ligand
 OpenBabel11021811463D
libRbt.so/2013.1/901 2013/11/27
 16 16  0  0  0  0  0  0  0  0999 V2000
   33.5660    3.2807    8.3409 P   0  0  2  0  0  0  0  0  0  0  0  0
   34.1942    3.3652    6.9994 O   0  0  0  0  0  0  0  0  0  0  0  0
   34.6072    2.6319    9.3819 O   0  5  0  0  0  0  0  0  0  0  0  0
   32.2615    2.3374    8.2511 O   0  0  0  0  0  0  0  0  0  0  0  0
   30.8541    7.1876   12.3810 C   0  0  2  0  0  0  0  0  0  0  0  0
   29.8156    7.6022   11.4857 O   0  0  0  0  0  0  0  0  0  0  0  0
   31.9550    8.2745   12.4836 C   0  0  2  0  0  0  0  0  0  0  0  0
   31.3627    9.5416   12.9532 N   0  0  0  0  0  0  0  0  0  0  0  0
   32.5816    8.4705   11.0928 C   0  0  1  0  0  0  0  0  0  0  0  0
   33.6164    9.4558   11.1533 O   0  0  0  0  0  0  0  0  0  0  0  0
   33.1757    7.1334   10.6531 C   0  0  2  0  0  0  0  0  0  0  0  0
   33.7592    7.2919    9.3661 O   0  0  0  0  0  0  0  0  0  0  0  0
   32.0391    6.0766   10.5967 C   0  0  2  0  0  0  0  0  0  0  0  0
   31.4211    5.9257   11.9116 O   0  0  0  0  0  0  0  0  0  0  0  0
   32.5953    4.6983   10.1612 C   0  0  0  0  0  0  0  0  0  0  0  0
   33.1521    4.7672    8.8358 O   0  0  0  0  0  0  0  0  0  0  0  0
  1  2  1  6  0  0  0
  1  3  1  0  0  0  0
  1  4  2  0  0  0  0
  1 16  1  0  0  0  0
  5  6  1  6  0  0  0
  5  7  1  0  0  0  0
  5 14  1  0  0  0  0
  7  8  1  6  0  0  0
  7  9  1  0  0  0  0
  9 10  1  1  0  0  0
  9 11  1  0  0  0  0
 11 12  1  6  0  0  0
 11 13  1  0  0  0  0
 13 14  1  0  0  0  0
 13 15  1  1  0  0  0
 15 16  1  0  0  0  0
M  CHG  1   3  -1
M  END
>  <CHROM.1>
-62.21969035,-173.39204433,-177.50552103,32.65469026,5.86572158,10.17543102
-1.23000197,0.58897404,0.41352918

>  <Name>
ligand

>  <RI>
0

>  <Rbt.Current_Directory>
/home/itssahil/PROJECTS/Mol_Feturizer/New_Systems/rnas/3B4C

>  <Rbt.Executable>
rbdock ($Id: //depot/dev/client3/rdock/2013.1/src/exe/rbdock.cxx#4 $)

>  <Rbt.Library>
libRbt.so (2013.1, Build901 2013/11/27)

>  <Rbt.Parameter_File>
/export/apps/rDock/src/rDock_2013.1_src/data/scripts/dock_solv.prm

>  <Rbt.Receptor>
prm/blind_docking_80.prm

>  <SCORE>
-6.45701

>  <SCORE.INTER>
-5.39315

>  <SCORE.INTER.CONST>
1

>  <SCORE.INTER.POLAR>
0

>  <SCORE.INTER.ROT>
3

>  <SCORE.INTER.SOLV>
15.3191

>  <SCORE.INTER.VDW>
-14.3018

>  <SCORE.INTER.norm>
-0.337072

>  <SCORE.INTRA>
-1.06386

>  <SCORE.INTRA.DIHEDRAL>
-1.88792

>  <SCORE.INTRA.DIHEDRAL.0>
2.1318

>  <SCORE.INTRA.POLAR>
0

>  <SCORE.INTRA.POLAR.0>
0

>  <SCORE.INTRA.REPUL>
0

>  <SCORE.INTRA.REPUL.0>
0

>  <SCORE.INTRA.SOLV>
-0.00263024

>  <SCORE.INTRA.SOLV.lig_0>
-58.6125

>  <SCORE.INTRA.VDW>
-0.118592

>  <SCORE.INTRA.VDW.0>
-0.432734

>  <SCORE.INTRA.norm>
-0.0664916

>  <SCORE.RESTR>
0

>  <SCORE.RESTR.CAVITY>
0

>  <SCORE.RESTR.norm>
0

>  <SCORE.SYSTEM>
0

>  <SCORE.SYSTEM.CONST>
0

>  <SCORE.SYSTEM.DIHEDRAL>
0

>  <SCORE.SYSTEM.SOLV>
0

>  <SCORE.SYSTEM.norm>
0

>  <SCORE.heavy>
16

>  <SCORE.norm>
-0.403563

>  <RMSD>
18.067

$$$$
ligand
 OpenBabel11021811463D
libRbt.so/2013.1/901 2013/11/27
 16 16  0  0  0  0  0  0  0  0999 V2000
   34.4349    1.3448    9.1919 P   0  0  2  0  0  0  0  0  0  0  0  0
   34.4159    0.2721   10.2168 O   0  0  0  0  0  0  0  0  0  0  0  0
   33.6659    0.8402    7.8718 O   0  5  0  0  0  0  0  0  0  0  0  0
   35.9652    1.6781    8.8092 O   0  0  0  0  0  0  0  0  0  0  0  0
   32.8362    6.4810   11.2283 C   0  0  2  0  0  0  0  0  0  0  0  0
   31.4385    6.1884   11.3410 O   0  0  0  0  0  0  0  0  0  0  0  0
   33.0650    7.7223   10.3278 C   0  0  2  0  0  0  0  0  0  0  0  0
   32.3518    8.8849   10.8903 N   0  0  0  0  0  0  0  0  0  0  0  0
   32.5332    7.4103    8.9187 C   0  0  1  0  0  0  0  0  0  0  0  0
   32.7444    8.5295    8.0538 O   0  0  0  0  0  0  0  0  0  0  0  0
   33.2996    6.2014    8.3848 C   0  0  2  0  0  0  0  0  0  0  0  0
   32.8211    5.8940    7.0816 O   0  0  0  0  0  0  0  0  0  0  0  0
   33.0612    4.9985    9.3379 C   0  0  2  0  0  0  0  0  0  0  0  0
   33.5308    5.3170   10.6837 O   0  0  0  0  0  0  0  0  0  0  0  0
   33.8263    3.7472    8.8405 C   0  0  0  0  0  0  0  0  0  0  0  0
   33.7022    2.6646    9.7809 O   0  0  0  0  0  0  0  0  0  0  0  0
  1  2  1  1  0  0  0
  1  3  1  0  0  0  0
  1  4  2  0  0  0  0
  1 16  1  0  0  0  0
  5  6  1  6  0  0  0
  5  7  1  0  0  0  0
  5 14  1  0  0  0  0
  7  8  1  1  0  0  0
  7  9  1  0  0  0  0
  9 10  1  6  0  0  0
  9 11  1  0  0  0  0
 11 12  1  6  0  0  0
 11 13  1  0  0  0  0
 13 14  1  0  0  0  0
 13 15  1  6  0  0  0
 15 16  1  0  0  0  0
M  CHG  1   3  -1
M  END
>  <CHROM.1>
175.02080436,176.55979620,174.69247061,33.44755881,4.55371638,9.40155245
0.36358683,-1.25945395,2.04559678

>  <Name>
ligand

>  <RI>
0

>  <Rbt.Current_Directory>
/home/itssahil/PROJECTS/Mol_Feturizer/New_Systems/rnas/3B4C

>  <Rbt.Executable>
rbdock ($Id: //depot/dev/client3/rdock/2013.1/src/exe/rbdock.cxx#4 $)

>  <Rbt.Library>
libRbt.so (2013.1, Build901 2013/11/27)

>  <Rbt.Parameter_File>
/export/apps/rDock/src/rDock_2013.1_src/data/scripts/dock_solv.prm

>  <Rbt.Receptor>
prm/blind_docking_60.prm

>  <SCORE>
-9.77648

>  <SCORE.INTER>
-8.42134

>  <SCORE.INTER.CONST>
1

>  <SCORE.INTER.POLAR>
0

>  <SCORE.INTER.ROT>
3

>  <SCORE.INTER.SOLV>
12.9375

>  <SCORE.INTER.VDW>
-15.5267

>  <SCORE.INTER.norm>
-0.526334

>  <SCORE.INTRA>
-1.35514

>  <SCORE.INTRA.DIHEDRAL>
-1.93903

>  <SCORE.INTRA.DIHEDRAL.0>
2.1318

>  <SCORE.INTRA.POLAR>
0

>  <SCORE.INTRA.POLAR.0>
0

>  <SCORE.INTRA.REPUL>
0

>  <SCORE.INTRA.REPUL.0>
0

>  <SCORE.INTRA.SOLV>
-0.370183

>  <SCORE.INTRA.SOLV.lig_0>
-58.6125

>  <SCORE.INTRA.VDW>
-0.200533

>  <SCORE.INTRA.VDW.0>
-0.432734

>  <SCORE.INTRA.norm>
-0.0846962

>  <SCORE.RESTR>
0

>  <SCORE.RESTR.CAVITY>
0

>  <SCORE.RESTR.norm>
0

>  <SCORE.SYSTEM>
0

>  <SCORE.SYSTEM.CONST>
0

>  <SCORE.SYSTEM.DIHEDRAL>
0

>  <SCORE.SYSTEM.SOLV>
0

>  <SCORE.SYSTEM.norm>
0

>  <SCORE.heavy>
16

>  <SCORE.norm>
-0.61103

>  <RMSD>
18.068

$$$$
ligand
 OpenBabel11021811463D
libRbt.so/2013.1/901 2013/11/27
 16 16  0  0  0  0  0  0  0  0999 V2000
   34.4930    1.3090    9.1519 P   0  0  2  0  0  0  0  0  0  0  0  0
   35.9182    1.6830    8.9780 O   0  0  0  0  0  0  0  0  0  0  0  0
   34.3831    0.0735   10.1768 O   0  5  0  0  0  0  0  0  0  0  0  0
   33.8905    0.8593    7.7257 O   0  0  0  0  0  0  0  0  0  0  0  0
   32.6765    6.3238   11.3149 C   0  0  2  0  0  0  0  0  0  0  0  0
   31.2806    6.0030   11.3259 O   0  0  0  0  0  0  0  0  0  0  0  0
   32.9369    7.6080   10.4860 C   0  0  2  0  0  0  0  0  0  0  0  0
   32.1672    8.7320   11.0525 N   0  0  0  0  0  0  0  0  0  0  0  0
   32.5006    7.3508    9.0338 C   0  0  1  0  0  0  0  0  0  0  0  0
   32.7436    8.5111    8.2338 O   0  0  0  0  0  0  0  0  0  0  0  0
   33.3225    6.1802    8.4971 C   0  0  2  0  0  0  0  0  0  0  0  0
   32.9326    5.9237    7.1539 O   0  0  0  0  0  0  0  0  0  0  0  0
   33.0485    4.9318    9.3795 C   0  0  2  0  0  0  0  0  0  0  0  0
   33.4267    5.1973   10.7651 O   0  0  0  0  0  0  0  0  0  0  0  0
   33.8677    3.7171    8.8773 C   0  0  0  0  0  0  0  0  0  0  0  0
   33.6710    2.5780    9.7348 O   0  0  0  0  0  0  0  0  0  0  0  0
  1  2  1  6  0  0  0
  1  3  1  0  0  0  0
  1  4  2  0  0  0  0
  1 16  1  0  0  0  0
  5  6  1  6  0  0  0
  5  7  1  0  0  0  0
  5 14  1  0  0  0  0
  7  8  1  1  0  0  0
  7  9  1  0  0  0  0
  9 10  1  6  0  0  0
  9 11  1  0  0  0  0
 11 12  1  6  0  0  0
 11 13  1  0  0  0  0
 13 14  1  0  0  0  0
 13 15  1  6  0  0  0
 15 16  1  0  0  0  0
M  CHG  1   3  -1
M  END
>  <CHROM.1>
176.94368902,177.78942364,54.78580525,33.42834592,4.48229729,9.45042384,0.49765262
-1.21754666,2.21205733

>  <Name>
ligand

>  <RI>
0

>  <Rbt.Current_Directory>
/home/itssahil/PROJECTS/Mol_Feturizer/New_Systems/rnas/3B4C

>  <Rbt.Executable>
rbdock ($Id: //depot/dev/client3/rdock/2013.1/src/exe/rbdock.cxx#4 $)

>  <Rbt.Library>
libRbt.so (2013.1, Build901 2013/11/27)

>  <Rbt.Parameter_File>
/export/apps/rDock/src/rDock_2013.1_src/data/scripts/dock_solv.prm

>  <Rbt.Receptor>
prm/blind_docking_40.prm

>  <SCORE>
-9.21917

>  <SCORE.INTER>
-7.61526

>  <SCORE.INTER.CONST>
1

>  <SCORE.INTER.POLAR>
0

>  <SCORE.INTER.ROT>
3

>  <SCORE.INTER.SOLV>
13.9795

>  <SCORE.INTER.VDW>
-15.3367

>  <SCORE.INTER.norm>
-0.475954

>  <SCORE.INTRA>
-1.6039

>  <SCORE.INTRA.DIHEDRAL>
-2.02956

>  <SCORE.INTRA.DIHEDRAL.0>
2.1318

>  <SCORE.INTRA.POLAR>
0

>  <SCORE.INTRA.POLAR.0>
0

>  <SCORE.INTRA.REPUL>
0

>  <SCORE.INTRA.REPUL.0>
0

>  <SCORE.INTRA.SOLV>
-1.05901

>  <SCORE.INTRA.SOLV.lig_0>
-58.6125

>  <SCORE.INTRA.VDW>
-0.0596182

>  <SCORE.INTRA.VDW.0>
-0.432734

>  <SCORE.INTRA.norm>
-0.100244

>  <SCORE.RESTR>
0

>  <SCORE.RESTR.CAVITY>
0

>  <SCORE.RESTR.norm>
0

>  <SCORE.SYSTEM>
0

>  <SCORE.SYSTEM.CONST>
0

>  <SCORE.SYSTEM.DIHEDRAL>
0

>  <SCORE.SYSTEM.SOLV>
0

>  <SCORE.SYSTEM.norm>
0

>  <SCORE.heavy>
16

>  <SCORE.norm>
-0.576198

>  <RMSD>
18.076

$$$$
ligand
 OpenBabel11021811463D
libRbt.so/2013.1/901 2013/11/27
 16 16  0  0  0  0  0  0  0  0999 V2000
   34.8638    1.0531    9.9758 P   0  0  2  0  0  0  0  0  0  0  0  0
   35.2988    0.4926   11.2789 O   0  0  0  0  0  0  0  0  0  0  0  0
   34.0016   -0.0470    9.1788 O   0  5  0  0  0  0  0  0  0  0  0  0
   36.1674    1.4267    9.1037 O   0  0  0  0  0  0  0  0  0  0  0  0
   32.7560    6.2744   10.8567 C   0  0  2  0  0  0  0  0  0  0  0  0
   31.3657    5.9445   10.9562 O   0  0  0  0  0  0  0  0  0  0  0  0
   32.9883    7.3421    9.7567 C   0  0  2  0  0  0  0  0  0  0  0  0
   32.2048    8.5538   10.0643 N   0  0  0  0  0  0  0  0  0  0  0  0
   32.5443    6.7578    8.4050 C   0  0  1  0  0  0  0  0  0  0  0  0
   32.7614    7.7111    7.3613 O   0  0  0  0  0  0  0  0  0  0  0  0
   33.3809    5.5081    8.1363 C   0  0  2  0  0  0  0  0  0  0  0  0
   32.9842    4.9497    6.8903 O   0  0  0  0  0  0  0  0  0  0  0  0
   33.1349    4.4872    9.2806 C   0  0  2  0  0  0  0  0  0  0  0  0
   33.5201    5.0637   10.5662 O   0  0  0  0  0  0  0  0  0  0  0  0
   33.9697    3.2023    9.0555 C   0  0  0  0  0  0  0  0  0  0  0  0
   33.9614    2.3742   10.2327 O   0  0  0  0  0  0  0  0  0  0  0  0
  1  2  1  1  0  0  0
  1  3  1  0  0  0  0
  1  4  2  0  0  0  0
  1 16  1  0  0  0  0
  5  6  1  6  0  0  0
  5  7  1  0  0  0  0
  5 14  1  0  0  0  0
  7  8  1  1  0  0  0
  7  9  1  0  0  0  0
  9 10  1  6  0  0  0
  9 11  1  0  0  0  0
 11 12  1  6  0  0  0
 11 13  1  0  0  0  0
 13 14  1  0  0  0  0
 13 15  1  6  0  0  0
 15 16  1  0  0  0  0
M  CHG  1   3  -1
M  END
>  <CHROM.1>
168.26130970,-178.97747097,157.76976303,33.61328713,4.12285037,9.48268345
0.42075099,-1.16724658,1.89772452

>  <Name>
ligand

>  <RI>
0

>  <Rbt.Current_Directory>
/home/itssahil/PROJECTS/Mol_Feturizer/New_Systems/rnas/3B4C

>  <Rbt.Executable>
rbdock ($Id: //depot/dev/client3/rdock/2013.1/src/exe/rbdock.cxx#4 $)

>  <Rbt.Library>
libRbt.so (2013.1, Build901 2013/11/27)

>  <Rbt.Parameter_File>
/export/apps/rDock/src/rDock_2013.1_src/data/scripts/dock_solv.prm

>  <Rbt.Receptor>
prm/blind_docking_60.prm

>  <SCORE>
-9.86724

>  <SCORE.INTER>
-9.2708

>  <SCORE.INTER.CONST>
1

>  <SCORE.INTER.POLAR>
0

>  <SCORE.INTER.ROT>
3

>  <SCORE.INTER.SOLV>
15.5757

>  <SCORE.INTER.VDW>
-16.9724

>  <SCORE.INTER.norm>
-0.579425

>  <SCORE.INTRA>
-0.596436

>  <SCORE.INTRA.DIHEDRAL>
-0.925067

>  <SCORE.INTRA.DIHEDRAL.0>
2.1318

>  <SCORE.INTRA.POLAR>
0

>  <SCORE.INTRA.POLAR.0>
0

>  <SCORE.INTRA.REPUL>
0

>  <SCORE.INTRA.REPUL.0>
0

>  <SCORE.INTRA.SOLV>
-0.368509

>  <SCORE.INTRA.SOLV.lig_0>
-58.6125

>  <SCORE.INTRA.VDW>
0.050352

>  <SCORE.INTRA.VDW.0>
-0.432734

>  <SCORE.INTRA.norm>
-0.0372773

>  <SCORE.RESTR>
0

>  <SCORE.RESTR.CAVITY>
0

>  <SCORE.RESTR.norm>
0

>  <SCORE.SYSTEM>
0

>  <SCORE.SYSTEM.CONST>
0

>  <SCORE.SYSTEM.DIHEDRAL>
0

>  <SCORE.SYSTEM.SOLV>
0

>  <SCORE.SYSTEM.norm>
0

>  <SCORE.heavy>
16

>  <SCORE.norm>
-0.616702

>  <RMSD>
18.096

$$$$
ligand
 OpenBabel11021811463D
libRbt.so/2013.1/901 2013/11/27
 16 16  0  0  0  0  0  0  0  0999 V2000
   34.4513    1.2345    9.1433 P   0  0  2  0  0  0  0  0  0  0  0  0
   34.3328    0.1148   10.1095 O   0  0  0  0  0  0  0  0  0  0  0  0
   33.7766    0.8113    7.7452 O   0  5  0  0  0  0  0  0  0  0  0  0
   36.0127    1.5503    8.8948 O   0  0  0  0  0  0  0  0  0  0  0  0
   32.7962    6.3553   11.2286 C   0  0  2  0  0  0  0  0  0  0  0  0
   31.4015    6.0387   11.3073 O   0  0  0  0  0  0  0  0  0  0  0  0
   33.0246    7.6064   10.3417 C   0  0  2  0  0  0  0  0  0  0  0  0
   32.2792    8.7531   10.8952 N   0  0  0  0  0  0  0  0  0  0  0  0
   32.5305    7.2953    8.9188 C   0  0  1  0  0  0  0  0  0  0  0  0
   32.7425    8.4238    8.0662 O   0  0  0  0  0  0  0  0  0  0  0  0
   33.3292    6.1031    8.3948 C   0  0  2  0  0  0  0  0  0  0  0  0
   32.8858    5.7967    7.0790 O   0  0  0  0  0  0  0  0  0  0  0  0
   33.0894    4.8899    9.3343 C   0  0  2  0  0  0  0  0  0  0  0  0
   33.5227    5.2068   10.6926 O   0  0  0  0  0  0  0  0  0  0  0  0
   33.8866    3.6549    8.8466 C   0  0  0  0  0  0  0  0  0  0  0  0
   33.7012    2.5413    9.7393 O   0  0  0  0  0  0  0  0  0  0  0  0
  1  2  1  1  0  0  0
  1  3  1  0  0  0  0
  1  4  2  0  0  0  0
  1 16  1  0  0  0  0
  5  6  1  6  0  0  0
  5  7  1  0  0  0  0
  5 14  1  0  0  0  0
  7  8  1  1  0  0  0
  7  9  1  0  0  0  0
  9 10  1  6  0  0  0
  9 11  1  0  0  0  0
 11 12  1  6  0  0  0
 11 13  1  0  0  0  0
 13 14  1  0  0  0  0
 13 15  1  6  0  0  0
 15 16  1  0  0  0  0
M  CHG  1   3  -1
M  END
>  <CHROM.1>
178.12317484,175.61498827,176.30104834,33.45343519,4.44147322,9.38424537
0.41477442,-1.24541075,2.10939640

>  <Name>
ligand

>  <RI>
0

>  <Rbt.Current_Directory>
/home/itssahil/PROJECTS/Mol_Feturizer/New_Systems/rnas/3B4C

>  <Rbt.Executable>
rbdock ($Id: //depot/dev/client3/rdock/2013.1/src/exe/rbdock.cxx#4 $)

>  <Rbt.Library>
libRbt.so (2013.1, Build901 2013/11/27)

>  <Rbt.Parameter_File>
/export/apps/rDock/src/rDock_2013.1_src/data/scripts/dock_solv.prm

>  <Rbt.Receptor>
prm/blind_docking_60.prm

>  <SCORE>
-9.7342

>  <SCORE.INTER>
-8.3251

>  <SCORE.INTER.CONST>
1

>  <SCORE.INTER.POLAR>
0

>  <SCORE.INTER.ROT>
3

>  <SCORE.INTER.SOLV>
12.6523

>  <SCORE.INTER.VDW>
-15.3675

>  <SCORE.INTER.norm>
-0.520319

>  <SCORE.INTRA>
-1.4091

>  <SCORE.INTRA.DIHEDRAL>
-2.00134

>  <SCORE.INTRA.DIHEDRAL.0>
2.1318

>  <SCORE.INTRA.POLAR>
0

>  <SCORE.INTRA.POLAR.0>
0

>  <SCORE.INTRA.REPUL>
0

>  <SCORE.INTRA.REPUL.0>
0

>  <SCORE.INTRA.SOLV>
-0.382219

>  <SCORE.INTRA.SOLV.lig_0>
-58.6125

>  <SCORE.INTRA.VDW>
-0.217318

>  <SCORE.INTRA.VDW.0>
-0.432734

>  <SCORE.INTRA.norm>
-0.0880685

>  <SCORE.RESTR>
0

>  <SCORE.RESTR.CAVITY>
0

>  <SCORE.RESTR.norm>
0

>  <SCORE.SYSTEM>
0

>  <SCORE.SYSTEM.CONST>
0

>  <SCORE.SYSTEM.DIHEDRAL>
0

>  <SCORE.SYSTEM.SOLV>
0

>  <SCORE.SYSTEM.norm>
0

>  <SCORE.heavy>
16

>  <SCORE.norm>
-0.608387

>  <RMSD>
18.107

$$$$
ligand
 OpenBabel11021811463D
libRbt.so/2013.1/901 2013/11/27
 16 16  0  0  0  0  0  0  0  0999 V2000
   34.9793    1.9161    8.9024 P   0  0  2  0  0  0  0  0  0  0  0  0
   36.1911    2.1728    8.0858 O   0  0  0  0  0  0  0  0  0  0  0  0
   35.3713    1.0162   10.1774 O   0  5  0  0  0  0  0  0  0  0  0  0
   33.9040    1.1138    8.0081 O   0  0  0  0  0  0  0  0  0  0  0  0
   32.9481    7.6832    7.7449 C   0  0  2  0  0  0  0  0  0  0  0  0
   34.1233    8.3044    8.2786 O   0  0  0  0  0  0  0  0  0  0  0  0
   31.7666    7.7989    8.7422 C   0  0  2  0  0  0  0  0  0  0  0  0
   31.4963    9.2200    9.0325 N   0  0  0  0  0  0  0  0  0  0  0  0
   32.1440    7.0601   10.0372 C   0  0  1  0  0  0  0  0  0  0  0  0
   31.0676    7.1308   10.9761 O   0  0  0  0  0  0  0  0  0  0  0  0
   32.4157    5.5993    9.6820 C   0  0  2  0  0  0  0  0  0  0  0  0
   32.7694    4.8973   10.8669 O   0  0  0  0  0  0  0  0  0  0  0  0
   33.5839    5.5430    8.6601 C   0  0  2  0  0  0  0  0  0  0  0  0
   33.2346    6.2815    7.4493 O   0  0  0  0  0  0  0  0  0  0  0  0
   33.8925    4.0783    8.2628 C   0  0  0  0  0  0  0  0  0  0  0  0
   34.3565    3.3270    9.3994 O   0  0  0  0  0  0  0  0  0  0  0  0
  1  2  1  6  0  0  0
  1  3  1  0  0  0  0
  1  4  2  0  0  0  0
  1 16  1  0  0  0  0
  5  6  1  1  0  0  0
  5  7  1  0  0  0  0
  5 14  1  0  0  0  0
  7  8  1  1  0  0  0
  7  9  1  0  0  0  0
  9 10  1  1  0  0  0
  9 11  1  0  0  0  0
 11 12  1  1  0  0  0
 11 13  1  0  0  0  0
 13 14  1  0  0  0  0
 13 15  1  6  0  0  0
 15 16  1  0  0  0  0
M  CHG  1   3  -1
M  END
>  <CHROM.1>
-63.98602032,-167.45887375,65.15210001,33.54408535,4.88744750,9.02070085
-0.84947657,0.87978379,-0.55740238

>  <Name>
ligand

>  <RI>
0

>  <Rbt.Current_Directory>
/home/itssahil/PROJECTS/Mol_Feturizer/New_Systems/rnas/3B4C

>  <Rbt.Executable>
rbdock ($Id: //depot/dev/client3/rdock/2013.1/src/exe/rbdock.cxx#4 $)

>  <Rbt.Library>
libRbt.so (2013.1, Build901 2013/11/27)

>  <Rbt.Parameter_File>
/export/apps/rDock/src/rDock_2013.1_src/data/scripts/dock_solv.prm

>  <Rbt.Receptor>
prm/blind_docking_60.prm

>  <SCORE>
-7.5074

>  <SCORE.INTER>
-6.47457

>  <SCORE.INTER.CONST>
1

>  <SCORE.INTER.POLAR>
0

>  <SCORE.INTER.ROT>
3

>  <SCORE.INTER.SOLV>
13.8261

>  <SCORE.INTER.VDW>
-14.5251

>  <SCORE.INTER.norm>
-0.40466

>  <SCORE.INTRA>
-1.03284

>  <SCORE.INTRA.DIHEDRAL>
-1.27979

>  <SCORE.INTRA.DIHEDRAL.0>
2.1318

>  <SCORE.INTRA.POLAR>
0

>  <SCORE.INTRA.POLAR.0>
0

>  <SCORE.INTRA.REPUL>
0

>  <SCORE.INTRA.REPUL.0>
0

>  <SCORE.INTRA.SOLV>
-0.693098

>  <SCORE.INTRA.SOLV.lig_0>
-58.6125

>  <SCORE.INTRA.VDW>
-0.0463921

>  <SCORE.INTRA.VDW.0>
-0.432734

>  <SCORE.INTRA.norm>
-0.0645523

>  <SCORE.RESTR>
0

>  <SCORE.RESTR.CAVITY>
0

>  <SCORE.RESTR.norm>
0

>  <SCORE.SYSTEM>
0

>  <SCORE.SYSTEM.CONST>
0

>  <SCORE.SYSTEM.DIHEDRAL>
0

>  <SCORE.SYSTEM.SOLV>
0

>  <SCORE.SYSTEM.norm>
0

>  <SCORE.heavy>
16

>  <SCORE.norm>
-0.469213

>  <RMSD>
18.140

$$$$
ligand
 OpenBabel11021811463D
libRbt.so/2013.1/901 2013/11/27
 16 16  0  0  0  0  0  0  0  0999 V2000
   33.4480    3.7708    9.1806 P   0  0  2  0  0  0  0  0  0  0  0  0
   33.7479    5.1477    9.6451 O   0  0  0  0  0  0  0  0  0  0  0  0
   33.1091    3.7963    7.6079 O   0  5  0  0  0  0  0  0  0  0  0  0
   32.1645    3.2143    9.9821 O   0  0  0  0  0  0  0  0  0  0  0  0
   37.9356    0.3296    8.4171 C   0  0  2  0  0  0  0  0  0  0  0  0
   37.6557   -0.9598    7.8596 O   0  0  0  0  0  0  0  0  0  0  0  0
   38.4609    0.1959    9.8698 C   0  0  2  0  0  0  0  0  0  0  0  0
   39.6808   -0.6338    9.8846 N   0  0  0  0  0  0  0  0  0  0  0  0
   37.3671   -0.4617   10.7280 C   0  0  1  0  0  0  0  0  0  0  0  0
   37.8111   -0.5851   12.0818 O   0  0  0  0  0  0  0  0  0  0  0  0
   36.1294    0.4322   10.6766 C   0  0  2  0  0  0  0  0  0  0  0  0
   35.1032   -0.1596   11.4631 O   0  0  0  0  0  0  0  0  0  0  0  0
   35.6646    0.5569    9.2000 C   0  0  2  0  0  0  0  0  0  0  0  0
   36.7234    1.1441    8.3829 O   0  0  0  0  0  0  0  0  0  0  0  0
   34.4127    1.4627    9.0956 C   0  0  0  0  0  0  0  0  0  0  0  0
   34.7332    2.8209    9.4478 O   0  0  0  0  0  0  0  0  0  0  0  0
  1  2  1  1  0  0  0
  1  3  1  0  0  0  0
  1  4  2  0  0  0  0
  1 16  1  0  0  0  0
  5  6  1  1  0  0  0
  5  7  1  0  0  0  0
  5 14  1  0  0  0  0
  7  8  1  6  0  0  0
  7  9  1  0  0  0  0
  9 10  1  1  0  0  0
  9 11  1  0  0  0  0
 11 12  1  1  0  0  0
 11 13  1  0  0  0  0
 13 14  1  0  0  0  0
 13 15  1  1  0  0  0
 15 16  1  0  0  0  0
M  CHG  1   3  -1
M  END
>  <CHROM.1>
66.48731170,174.09624341,175.55929542,35.64844069,1.47895246,9.56132721,-2.75946358
-0.64674632,1.96509881

>  <Name>
ligand

>  <RI>
0

>  <Rbt.Current_Directory>
/home/itssahil/PROJECTS/Mol_Feturizer/New_Systems/rnas/3B4C

>  <Rbt.Executable>
rbdock ($Id: //depot/dev/client3/rdock/2013.1/src/exe/rbdock.cxx#4 $)

>  <Rbt.Library>
libRbt.so (2013.1, Build901 2013/11/27)

>  <Rbt.Parameter_File>
/export/apps/rDock/src/rDock_2013.1_src/data/scripts/dock_solv.prm

>  <Rbt.Receptor>
prm/blind_docking_100.prm

>  <SCORE>
-8.32298

>  <SCORE.INTER>
-6.98203

>  <SCORE.INTER.CONST>
1

>  <SCORE.INTER.POLAR>
0

>  <SCORE.INTER.ROT>
3

>  <SCORE.INTER.SOLV>
14.074

>  <SCORE.INTER.VDW>
-14.946

>  <SCORE.INTER.norm>
-0.436377

>  <SCORE.INTRA>
-1.34095

>  <SCORE.INTRA.DIHEDRAL>
-1.77483

>  <SCORE.INTRA.DIHEDRAL.0>
2.1318

>  <SCORE.INTRA.POLAR>
0

>  <SCORE.INTRA.POLAR.0>
0

>  <SCORE.INTRA.REPUL>
0

>  <SCORE.INTRA.REPUL.0>
0

>  <SCORE.INTRA.SOLV>
-0.171081

>  <SCORE.INTRA.SOLV.lig_0>
-58.6125

>  <SCORE.INTRA.VDW>
-0.367999

>  <SCORE.INTRA.VDW.0>
-0.432734

>  <SCORE.INTRA.norm>
-0.0838095

>  <SCORE.RESTR>
0

>  <SCORE.RESTR.CAVITY>
0

>  <SCORE.RESTR.norm>
0

>  <SCORE.SYSTEM>
0

>  <SCORE.SYSTEM.CONST>
0

>  <SCORE.SYSTEM.DIHEDRAL>
0

>  <SCORE.SYSTEM.SOLV>
0

>  <SCORE.SYSTEM.norm>
0

>  <SCORE.heavy>
16

>  <SCORE.norm>
-0.520186

>  <RMSD>
18.218

$$$$
ligand
 OpenBabel11021811463D
libRbt.so/2013.1/901 2013/11/27
 16 16  0  0  0  0  0  0  0  0999 V2000
   35.9506   -1.1425   12.7095 P   0  0  2  0  0  0  0  0  0  0  0  0
   35.0276   -1.7314   13.7108 O   0  0  0  0  0  0  0  0  0  0  0  0
   36.7972   -2.3150   12.0042 O   0  5  0  0  0  0  0  0  0  0  0  0
   36.9688   -0.1419   13.4588 O   0  0  0  0  0  0  0  0  0  0  0  0
   33.5608    2.7908    9.2541 C   0  0  2  0  0  0  0  0  0  0  0  0
   32.6705    1.8973    8.5752 O   0  0  0  0  0  0  0  0  0  0  0  0
   34.4807    3.5212    8.2420 C   0  0  2  0  0  0  0  0  0  0  0  0
   33.6593    4.2706    7.2721 N   0  0  0  0  0  0  0  0  0  0  0  0
   35.3336    2.4721    7.5091 C   0  0  1  0  0  0  0  0  0  0  0  0
   36.2095    3.1128    6.5778 O   0  0  0  0  0  0  0  0  0  0  0  0
   36.1595    1.7249    8.5549 C   0  0  2  0  0  0  0  0  0  0  0  0
   36.9551    0.7467    7.8977 O   0  0  0  0  0  0  0  0  0  0  0  0
   35.1923    1.0393    9.5582 C   0  0  2  0  0  0  0  0  0  0  0  0
   34.3568    2.0379   10.2202 O   0  0  0  0  0  0  0  0  0  0  0  0
   35.9856    0.2728   10.6452 C   0  0  0  0  0  0  0  0  0  0  0  0
   35.0928   -0.3399   11.5934 O   0  0  0  0  0  0  0  0  0  0  0  0
  1  2  1  1  0  0  0
  1  3  1  0  0  0  0
  1  4  2  0  0  0  0
  1 16  1  0  0  0  0
  5  6  1  6  0  0  0
  5  7  1  0  0  0  0
  5 14  1  0  0  0  0
  7  8  1  6  0  0  0
  7  9  1  0  0  0  0
  9 10  1  6  0  0  0
  9 11  1  0  0  0  0
 11 12  1  6  0  0  0
 11 13  1  0  0  0  0
 13 14  1  0  0  0  0
 13 15  1  1  0  0  0
 15 16  1  0  0  0  0
M  CHG  1   3  -1
M  END
>  <CHROM.1>
178.75948031,179.56496019,178.00840106,35.34186863,0.91577499,10.11813310
1.34702944,-0.44596688,2.16499211

>  <Name>
ligand

>  <RI>
0

>  <Rbt.Current_Directory>
/home/itssahil/PROJECTS/Mol_Feturizer/New_Systems/rnas/3B4C

>  <Rbt.Executable>
rbdock ($Id: //depot/dev/client3/rdock/2013.1/src/exe/rbdock.cxx#4 $)

>  <Rbt.Library>
libRbt.so (2013.1, Build901 2013/11/27)

>  <Rbt.Parameter_File>
/export/apps/rDock/src/rDock_2013.1_src/data/scripts/dock_solv.prm

>  <Rbt.Receptor>
prm/blind_docking_60.prm

>  <SCORE>
-9.76739

>  <SCORE.INTER>
-8.29774

>  <SCORE.INTER.CONST>
1

>  <SCORE.INTER.POLAR>
0

>  <SCORE.INTER.ROT>
3

>  <SCORE.INTER.SOLV>
15.2626

>  <SCORE.INTER.VDW>
-16.2194

>  <SCORE.INTER.norm>
-0.518609

>  <SCORE.INTRA>
-1.46965

>  <SCORE.INTRA.DIHEDRAL>
-2.11725

>  <SCORE.INTRA.DIHEDRAL.0>
2.1318

>  <SCORE.INTRA.POLAR>
0

>  <SCORE.INTRA.POLAR.0>
0

>  <SCORE.INTRA.REPUL>
0

>  <SCORE.INTRA.REPUL.0>
0

>  <SCORE.INTRA.SOLV>
-0.372921

>  <SCORE.INTRA.SOLV.lig_0>
-58.6125

>  <SCORE.INTRA.VDW>
-0.224562

>  <SCORE.INTRA.VDW.0>
-0.432734

>  <SCORE.INTRA.norm>
-0.0918528

>  <SCORE.RESTR>
0

>  <SCORE.RESTR.CAVITY>
0

>  <SCORE.RESTR.norm>
0

>  <SCORE.SYSTEM>
0

>  <SCORE.SYSTEM.CONST>
0

>  <SCORE.SYSTEM.DIHEDRAL>
0

>  <SCORE.SYSTEM.SOLV>
0

>  <SCORE.SYSTEM.norm>
0

>  <SCORE.heavy>
16

>  <SCORE.norm>
-0.610462

>  <RMSD>
18.252

$$$$
ligand
 OpenBabel11021811463D
libRbt.so/2013.1/901 2013/11/27
 16 16  0  0  0  0  0  0  0  0999 V2000
   34.7110    2.0400    8.9930 P   0  0  2  0  0  0  0  0  0  0  0  0
   34.6876    1.6802   10.4322 O   0  0  0  0  0  0  0  0  0  0  0  0
   33.4842    1.3216    8.2396 O   0  5  0  0  0  0  0  0  0  0  0  0
   36.0948    1.5248    8.3457 O   0  0  0  0  0  0  0  0  0  0  0  0
   32.9863    7.3905    7.7075 C   0  0  2  0  0  0  0  0  0  0  0  0
   34.1618    8.0529    8.1884 O   0  0  0  0  0  0  0  0  0  0  0  0
   31.7211    7.9338    8.4203 C   0  0  2  0  0  0  0  0  0  0  0  0
   31.6069    9.3874    8.1946 N   0  0  0  0  0  0  0  0  0  0  0  0
   31.8438    7.6434    9.9256 C   0  0  1  0  0  0  0  0  0  0  0  0
   30.6831    8.1160   10.6145 O   0  0  0  0  0  0  0  0  0  0  0  0
   31.9619    6.1307   10.1037 C   0  0  2  0  0  0  0  0  0  0  0  0
   32.0789    5.8399   11.4906 O   0  0  0  0  0  0  0  0  0  0  0  0
   33.2246    5.6360    9.3467 C   0  0  2  0  0  0  0  0  0  0  0  0
   33.1196    5.9520    7.9246 O   0  0  0  0  0  0  0  0  0  0  0  0
   33.3833    4.1024    9.4924 C   0  0  0  0  0  0  0  0  0  0  0  0
   34.5820    3.6478    8.8381 O   0  0  0  0  0  0  0  0  0  0  0  0
  1  2  1  1  0  0  0
  1  3  1  0  0  0  0
  1  4  2  0  0  0  0
  1 16  1  0  0  0  0
  5  6  1  1  0  0  0
  5  7  1  0  0  0  0
  5 14  1  0  0  0  0
  7  8  1  1  0  0  0
  7  9  1  0  0  0  0
  9 10  1  1  0  0  0
  9 11  1  0  0  0  0
 11 12  1  1  0  0  0
 11 13  1  0  0  0  0
 13 14  1  0  0  0  0
 13 15  1  6  0  0  0
 15 16  1  0  0  0  0
M  CHG  1   3  -1
M  END
>  <CHROM.1>
-177.65345254,-179.34895648,-56.58482945,33.29614869,5.08757424,9.13942931
-0.84703901,0.88342780,-0.56909226

>  <Name>
ligand

>  <RI>
0

>  <Rbt.Current_Directory>
/home/itssahil/PROJECTS/Mol_Feturizer/New_Systems/rnas/3B4C

>  <Rbt.Executable>
rbdock ($Id: //depot/dev/client3/rdock/2013.1/src/exe/rbdock.cxx#4 $)

>  <Rbt.Library>
libRbt.so (2013.1, Build901 2013/11/27)

>  <Rbt.Parameter_File>
/export/apps/rDock/src/rDock_2013.1_src/data/scripts/dock_solv.prm

>  <Rbt.Receptor>
prm/blind_docking_40.prm

>  <SCORE>
-9.01255

>  <SCORE.INTER>
-7.35696

>  <SCORE.INTER.CONST>
1

>  <SCORE.INTER.POLAR>
0

>  <SCORE.INTER.ROT>
3

>  <SCORE.INTER.SOLV>
13.1762

>  <SCORE.INTER.VDW>
-14.8967

>  <SCORE.INTER.norm>
-0.45981

>  <SCORE.INTRA>
-1.65559

>  <SCORE.INTRA.DIHEDRAL>
-2.08638

>  <SCORE.INTRA.DIHEDRAL.0>
2.1318

>  <SCORE.INTRA.POLAR>
0

>  <SCORE.INTRA.POLAR.0>
0

>  <SCORE.INTRA.REPUL>
0

>  <SCORE.INTRA.REPUL.0>
0

>  <SCORE.INTRA.SOLV>
-1.04948

>  <SCORE.INTRA.SOLV.lig_0>
-58.6125

>  <SCORE.INTRA.VDW>
-0.0876575

>  <SCORE.INTRA.VDW.0>
-0.432734

>  <SCORE.INTRA.norm>
-0.103474

>  <SCORE.RESTR>
0

>  <SCORE.RESTR.CAVITY>
0

>  <SCORE.RESTR.norm>
0

>  <SCORE.SYSTEM>
0

>  <SCORE.SYSTEM.CONST>
0

>  <SCORE.SYSTEM.DIHEDRAL>
0

>  <SCORE.SYSTEM.SOLV>
0

>  <SCORE.SYSTEM.norm>
0

>  <SCORE.heavy>
16

>  <SCORE.norm>
-0.563284

>  <RMSD>
18.264

$$$$
ligand
 OpenBabel11021811463D
libRbt.so/2013.1/901 2013/11/27
 16 16  0  0  0  0  0  0  0  0999 V2000
   36.5299   -0.4390   12.3554 P   0  0  2  0  0  0  0  0  0  0  0  0
   36.6310    0.0996   13.7341 O   0  0  0  0  0  0  0  0  0  0  0  0
   35.4284   -1.6112   12.3160 O   0  5  0  0  0  0  0  0  0  0  0  0
   37.9582   -1.0504   11.9246 O   0  0  0  0  0  0  0  0  0  0  0  0
   35.6187    1.9105    6.6465 C   0  0  2  0  0  0  0  0  0  0  0  0
   36.4698    3.0467    6.8378 O   0  0  0  0  0  0  0  0  0  0  0  0
   34.1269    2.3201    6.7500 C   0  0  2  0  0  0  0  0  0  0  0  0
   33.8219    3.3522    5.7408 N   0  0  0  0  0  0  0  0  0  0  0  0
   33.8668    2.8719    8.1618 C   0  0  1  0  0  0  0  0  0  0  0  0
   32.4929    3.2441    8.2998 O   0  0  0  0  0  0  0  0  0  0  0  0
   34.1997    1.7692    9.1654 C   0  0  2  0  0  0  0  0  0  0  0  0
   33.9681    2.2600   10.4797 O   0  0  0  0  0  0  0  0  0  0  0  0
   35.6930    1.3764    8.9984 C   0  0  2  0  0  0  0  0  0  0  0  0
   35.9415    0.8922    7.6429 O   0  0  0  0  0  0  0  0  0  0  0  0
   36.0771    0.2530    9.9928 C   0  0  0  0  0  0  0  0  0  0  0  0
   36.0990    0.7507   11.3431 O   0  0  0  0  0  0  0  0  0  0  0  0
  1  2  1  1  0  0  0
  1  3  1  0  0  0  0
  1  4  2  0  0  0  0
  1 16  1  0  0  0  0
  5  6  1  1  0  0  0
  5  7  1  0  0  0  0
  5 14  1  0  0  0  0
  7  8  1  6  0  0  0
  7  9  1  0  0  0  0
  9 10  1  6  0  0  0
  9 11  1  0  0  0  0
 11 12  1  1  0  0  0
 11 13  1  0  0  0  0
 13 14  1  0  0  0  0
 13 15  1  1  0  0  0
 15 16  1  0  0  0  0
M  CHG  1   3  -1
M  END
>  <CHROM.1>
-69.99680803,-178.96942285,176.57984874,35.42187304,1.15996397,9.68519932
1.18514399,-0.48627196,1.93281901

>  <Name>
ligand

>  <RI>
0

>  <Rbt.Current_Directory>
/home/itssahil/PROJECTS/Mol_Feturizer/New_Systems/rnas/3B4C

>  <Rbt.Executable>
rbdock ($Id: //depot/dev/client3/rdock/2013.1/src/exe/rbdock.cxx#4 $)

>  <Rbt.Library>
libRbt.so (2013.1, Build901 2013/11/27)

>  <Rbt.Parameter_File>
/export/apps/rDock/src/rDock_2013.1_src/data/scripts/dock_solv.prm

>  <Rbt.Receptor>
prm/blind_docking_60.prm

>  <SCORE>
-9.13703

>  <SCORE.INTER>
-7.94492

>  <SCORE.INTER.CONST>
1

>  <SCORE.INTER.POLAR>
0

>  <SCORE.INTER.ROT>
3

>  <SCORE.INTER.SOLV>
11.2399

>  <SCORE.INTER.VDW>
-14.6432

>  <SCORE.INTER.norm>
-0.496557

>  <SCORE.INTRA>
-1.19212

>  <SCORE.INTRA.DIHEDRAL>
-1.75587

>  <SCORE.INTRA.DIHEDRAL.0>
2.1318

>  <SCORE.INTRA.POLAR>
0

>  <SCORE.INTRA.POLAR.0>
0

>  <SCORE.INTRA.REPUL>
0

>  <SCORE.INTRA.REPUL.0>
0

>  <SCORE.INTRA.SOLV>
-0.035185

>  <SCORE.INTRA.SOLV.lig_0>
-58.6125

>  <SCORE.INTRA.VDW>
-0.296592

>  <SCORE.INTRA.VDW.0>
-0.432734

>  <SCORE.INTRA.norm>
-0.0745074

>  <SCORE.RESTR>
0

>  <SCORE.RESTR.CAVITY>
0

>  <SCORE.RESTR.norm>
0

>  <SCORE.SYSTEM>
0

>  <SCORE.SYSTEM.CONST>
0

>  <SCORE.SYSTEM.DIHEDRAL>
0

>  <SCORE.SYSTEM.SOLV>
0

>  <SCORE.SYSTEM.norm>
0

>  <SCORE.heavy>
16

>  <SCORE.norm>
-0.571065

>  <RMSD>
18.291

$$$$
ligand
 OpenBabel11021811463D
libRbt.so/2013.1/901 2013/11/27
 16 16  0  0  0  0  0  0  0  0999 V2000
   35.0281    2.0337    8.4769 P   0  0  2  0  0  0  0  0  0  0  0  0
   36.2639    2.8006    8.1837 O   0  0  0  0  0  0  0  0  0  0  0  0
   35.4198    0.5672    9.0103 O   0  5  0  0  0  0  0  0  0  0  0  0
   34.1694    1.8836    7.1206 O   0  0  0  0  0  0  0  0  0  0  0  0
   32.5726    7.2197   10.8565 C   0  0  2  0  0  0  0  0  0  0  0  0
   33.3398    7.1208   12.0621 O   0  0  0  0  0  0  0  0  0  0  0  0
   31.0960    6.8221   11.1128 C   0  0  2  0  0  0  0  0  0  0  0  0
   30.5169    7.6966   12.1504 N   0  0  0  0  0  0  0  0  0  0  0  0
   31.0567    5.3567   11.5780 C   0  0  1  0  0  0  0  0  0  0  0  0
   29.7053    4.9489   11.8073 O   0  0  0  0  0  0  0  0  0  0  0  0
   31.6684    4.4969   10.4733 C   0  0  2  0  0  0  0  0  0  0  0  0
   31.6440    3.1360   10.8846 O   0  0  0  0  0  0  0  0  0  0  0  0
   33.1330    4.9562   10.2364 C   0  0  2  0  0  0  0  0  0  0  0  0
   33.1656    6.3602    9.8349 O   0  0  0  0  0  0  0  0  0  0  0  0
   33.7950    4.1160    9.1164 C   0  0  0  0  0  0  0  0  0  0  0  0
   34.1656    2.8139    9.6051 O   0  0  0  0  0  0  0  0  0  0  0  0
  1  2  1  6  0  0  0
  1  3  1  0  0  0  0
  1  4  2  0  0  0  0
  1 16  1  0  0  0  0
  5  6  1  1  0  0  0
  5  7  1  0  0  0  0
  5 14  1  0  0  0  0
  7  8  1  1  0  0  0
  7  9  1  0  0  0  0
  9 10  1  6  0  0  0
  9 11  1  0  0  0  0
 11 12  1  1  0  0  0
 11 13  1  0  0  0  0
 13 14  1  0  0  0  0
 13 15  1  6  0  0  0
 15 16  1  0  0  0  0
M  CHG  1   3  -1
M  END
>  <CHROM.1>
-76.65272599,-172.50782610,60.91196652,33.11861994,4.27702337,10.00837398
-0.89910304,0.44375414,0.27464541

>  <Name>
ligand

>  <RI>
0

>  <Rbt.Current_Directory>
/home/itssahil/PROJECTS/Mol_Feturizer/New_Systems/rnas/3B4C

>  <Rbt.Executable>
rbdock ($Id: //depot/dev/client3/rdock/2013.1/src/exe/rbdock.cxx#4 $)

>  <Rbt.Library>
libRbt.so (2013.1, Build901 2013/11/27)

>  <Rbt.Parameter_File>
/export/apps/rDock/src/rDock_2013.1_src/data/scripts/dock_solv.prm

>  <Rbt.Receptor>
prm/blind_docking_60.prm

>  <SCORE>
-10.1509

>  <SCORE.INTER>
-9.05014

>  <SCORE.INTER.CONST>
1

>  <SCORE.INTER.POLAR>
0

>  <SCORE.INTER.ROT>
3

>  <SCORE.INTER.SOLV>
13.7244

>  <SCORE.INTER.VDW>
-16.2082

>  <SCORE.INTER.norm>
-0.565634

>  <SCORE.INTRA>
-1.1008

>  <SCORE.INTRA.DIHEDRAL>
-0.918342

>  <SCORE.INTRA.DIHEDRAL.0>
2.1318

>  <SCORE.INTRA.POLAR>
0

>  <SCORE.INTRA.POLAR.0>
0

>  <SCORE.INTRA.REPUL>
0

>  <SCORE.INTRA.REPUL.0>
0

>  <SCORE.INTRA.SOLV>
-0.826078

>  <SCORE.INTRA.SOLV.lig_0>
-58.6125

>  <SCORE.INTRA.VDW>
-0.228594

>  <SCORE.INTRA.VDW.0>
-0.432734

>  <SCORE.INTRA.norm>
-0.0688003

>  <SCORE.RESTR>
0

>  <SCORE.RESTR.CAVITY>
0

>  <SCORE.RESTR.norm>
0

>  <SCORE.SYSTEM>
0

>  <SCORE.SYSTEM.CONST>
0

>  <SCORE.SYSTEM.DIHEDRAL>
0

>  <SCORE.SYSTEM.SOLV>
0

>  <SCORE.SYSTEM.norm>
0

>  <SCORE.heavy>
16

>  <SCORE.norm>
-0.634434

>  <RMSD>
18.293

$$$$
ligand
 OpenBabel11021811463D
libRbt.so/2013.1/901 2013/11/27
 16 16  0  0  0  0  0  0  0  0999 V2000
   32.4288    2.1338    7.7754 P   0  0  2  0  0  0  0  0  0  0  0  0
   31.2391    1.2475    7.7574 O   0  0  0  0  0  0  0  0  0  0  0  0
   32.6691    2.7404    6.3046 O   0  5  0  0  0  0  0  0  0  0  0  0
   33.7212    1.2689    8.2008 O   0  0  0  0  0  0  0  0  0  0  0  0
   32.8602    6.6517   11.6097 C   0  0  2  0  0  0  0  0  0  0  0  0
   31.4401    6.8387   11.5910 O   0  0  0  0  0  0  0  0  0  0  0  0
   33.5852    7.9064   11.0584 C   0  0  2  0  0  0  0  0  0  0  0  0
   33.2229    9.0869   11.8659 N   0  0  0  0  0  0  0  0  0  0  0  0
   33.1565    8.1175    9.5965 C   0  0  1  0  0  0  0  0  0  0  0  0
   33.8212    9.2590    9.0484 O   0  0  0  0  0  0  0  0  0  0  0  0
   33.5502    6.8703    8.8071 C   0  0  2  0  0  0  0  0  0  0  0  0
   33.1601    7.0437    7.4508 O   0  0  0  0  0  0  0  0  0  0  0  0
   32.8222    5.6421    9.4185 C   0  0  2  0  0  0  0  0  0  0  0  0
   33.2024    5.4723   10.8185 O   0  0  0  0  0  0  0  0  0  0  0  0
   33.1966    4.3484    8.6539 C   0  0  0  0  0  0  0  0  0  0  0  0
   32.1862    3.3389    8.8312 O   0  0  0  0  0  0  0  0  0  0  0  0
  1  2  1  6  0  0  0
  1  3  1  0  0  0  0
  1  4  2  0  0  0  0
  1 16  1  0  0  0  0
  5  6  1  6  0  0  0
  5  7  1  0  0  0  0
  5 14  1  0  0  0  0
  7  8  1  1  0  0  0
  7  9  1  0  0  0  0
  9 10  1  6  0  0  0
  9 11  1  0  0  0  0
 11 12  1  6  0  0  0
 11 13  1  0  0  0  0
 13 14  1  0  0  0  0
 13 15  1  6  0  0  0
 15 16  1  0  0  0  0
M  CHG  1   3  -1
M  END
>  <CHROM.1>
-157.29302354,167.55609050,-167.96259752,32.84094431,5.18767636,9.14628817
1.92435041,-1.26646710,-2.36540785

>  <Name>
ligand

>  <RI>
0

>  <Rbt.Current_Directory>
/home/itssahil/PROJECTS/Mol_Feturizer/New_Systems/rnas/3B4C

>  <Rbt.Executable>
rbdock ($Id: //depot/dev/client3/rdock/2013.1/src/exe/rbdock.cxx#4 $)

>  <Rbt.Library>
libRbt.so (2013.1, Build901 2013/11/27)

>  <Rbt.Parameter_File>
/export/apps/rDock/src/rDock_2013.1_src/data/scripts/dock_solv.prm

>  <Rbt.Receptor>
prm/blind_docking_40.prm

>  <SCORE>
-8.85879

>  <SCORE.INTER>
-8.64217

>  <SCORE.INTER.CONST>
1

>  <SCORE.INTER.POLAR>
0

>  <SCORE.INTER.ROT>
3

>  <SCORE.INTER.SOLV>
11.287

>  <SCORE.INTER.VDW>
-15.1238

>  <SCORE.INTER.norm>
-0.540136

>  <SCORE.INTRA>
-0.216621

>  <SCORE.INTRA.DIHEDRAL>
0.502626

>  <SCORE.INTRA.DIHEDRAL.0>
2.1318

>  <SCORE.INTRA.POLAR>
0

>  <SCORE.INTRA.POLAR.0>
0

>  <SCORE.INTRA.REPUL>
0

>  <SCORE.INTRA.REPUL.0>
0

>  <SCORE.INTRA.SOLV>
-0.454744

>  <SCORE.INTRA.SOLV.lig_0>
-58.6125

>  <SCORE.INTRA.VDW>
-0.240562

>  <SCORE.INTRA.VDW.0>
-0.432734

>  <SCORE.INTRA.norm>
-0.0135388

>  <SCORE.RESTR>
0

>  <SCORE.RESTR.CAVITY>
0

>  <SCORE.RESTR.norm>
0

>  <SCORE.SYSTEM>
0

>  <SCORE.SYSTEM.CONST>
0

>  <SCORE.SYSTEM.DIHEDRAL>
0

>  <SCORE.SYSTEM.SOLV>
0

>  <SCORE.SYSTEM.norm>
0

>  <SCORE.heavy>
16

>  <SCORE.norm>
-0.553674

>  <RMSD>
18.448

$$$$
ligand
 OpenBabel11021811463D
libRbt.so/2013.1/901 2013/11/27
 16 16  0  0  0  0  0  0  0  0999 V2000
   32.4214    2.0435    7.6828 P   0  0  2  0  0  0  0  0  0  0  0  0
   31.2348    1.1528    7.6887 O   0  0  0  0  0  0  0  0  0  0  0  0
   32.6221    2.6613    6.2108 O   0  5  0  0  0  0  0  0  0  0  0  0
   33.7273    1.1806    8.0692 O   0  0  0  0  0  0  0  0  0  0  0  0
   32.8079    6.5428   11.5105 C   0  0  2  0  0  0  0  0  0  0  0  0
   31.3910    6.7479   11.4624 O   0  0  0  0  0  0  0  0  0  0  0  0
   33.5604    7.7948   10.9907 C   0  0  2  0  0  0  0  0  0  0  0  0
   33.1947    8.9701   11.8043 N   0  0  0  0  0  0  0  0  0  0  0  0
   33.1672    8.0287    9.5223 C   0  0  1  0  0  0  0  0  0  0  0  0
   33.8580    9.1681    9.0030 O   0  0  0  0  0  0  0  0  0  0  0  0
   33.5631    6.7860    8.7268 C   0  0  2  0  0  0  0  0  0  0  0  0
   33.2056    6.9804    7.3644 O   0  0  0  0  0  0  0  0  0  0  0  0
   32.8066    5.5599    9.3069 C   0  0  2  0  0  0  0  0  0  0  0  0
   33.1532    5.3687   10.7128 O   0  0  0  0  0  0  0  0  0  0  0  0
   33.1821    4.2707    8.5351 C   0  0  0  0  0  0  0  0  0  0  0  0
   32.2012    3.2402    8.7530 O   0  0  0  0  0  0  0  0  0  0  0  0
  1  2  1  1  0  0  0
  1  3  1  0  0  0  0
  1  4  2  0  0  0  0
  1 16  1  0  0  0  0
  5  6  1  6  0  0  0
  5  7  1  0  0  0  0
  5 14  1  0  0  0  0
  7  8  1  1  0  0  0
  7  9  1  0  0  0  0
  9 10  1  6  0  0  0
  9 11  1  0  0  0  0
 11 12  1  6  0  0  0
 11 13  1  0  0  0  0
 13 14  1  0  0  0  0
 13 15  1  6  0  0  0
 15 16  1  0  0  0  0
M  CHG  1   3  -1
M  END
>  <CHROM.1>
-161.28290167,166.87070115,-166.50238406,32.83115798,5.09619724,9.05565566
1.89973045,-1.24408972,-2.38991201

>  <Name>
ligand

>  <RI>
0

>  <Rbt.Current_Directory>
/home/itssahil/PROJECTS/Mol_Feturizer/New_Systems/rnas/3B4C

>  <Rbt.Executable>
rbdock ($Id: //depot/dev/client3/rdock/2013.1/src/exe/rbdock.cxx#4 $)

>  <Rbt.Library>
libRbt.so (2013.1, Build901 2013/11/27)

>  <Rbt.Parameter_File>
/export/apps/rDock/src/rDock_2013.1_src/data/scripts/dock_solv.prm

>  <Rbt.Receptor>
prm/blind_docking_80.prm

>  <SCORE>
-8.8738

>  <SCORE.INTER>
-8.53586

>  <SCORE.INTER.CONST>
1

>  <SCORE.INTER.POLAR>
0

>  <SCORE.INTER.ROT>
3

>  <SCORE.INTER.SOLV>
11.412

>  <SCORE.INTER.VDW>
-15.0946

>  <SCORE.INTER.norm>
-0.533491

>  <SCORE.INTRA>
-0.337941

>  <SCORE.INTRA.DIHEDRAL>
0.153141

>  <SCORE.INTRA.DIHEDRAL.0>
2.1318

>  <SCORE.INTRA.POLAR>
0

>  <SCORE.INTRA.POLAR.0>
0

>  <SCORE.INTRA.REPUL>
0

>  <SCORE.INTRA.REPUL.0>
0

>  <SCORE.INTRA.SOLV>
-0.458939

>  <SCORE.INTRA.SOLV.lig_0>
-58.6125

>  <SCORE.INTRA.VDW>
-0.185042

>  <SCORE.INTRA.VDW.0>
-0.432734

>  <SCORE.INTRA.norm>
-0.0211213

>  <SCORE.RESTR>
0

>  <SCORE.RESTR.CAVITY>
0

>  <SCORE.RESTR.norm>
0

>  <SCORE.SYSTEM>
0

>  <SCORE.SYSTEM.CONST>
0

>  <SCORE.SYSTEM.DIHEDRAL>
0

>  <SCORE.SYSTEM.SOLV>
0

>  <SCORE.SYSTEM.norm>
0

>  <SCORE.heavy>
16

>  <SCORE.norm>
-0.554612

>  <RMSD>
18.516

$$$$
ligand
 OpenBabel11021811463D
libRbt.so/2013.1/901 2013/11/27
 16 16  0  0  0  0  0  0  0  0999 V2000
   33.0079    7.5091   10.3067 P   0  0  2  0  0  0  0  0  0  0  0  0
   33.7059    7.4870   11.6157 O   0  0  0  0  0  0  0  0  0  0  0  0
   33.3696    8.8697    9.5278 O   0  5  0  0  0  0  0  0  0  0  0  0
   31.4163    7.4599   10.5597 O   0  0  0  0  0  0  0  0  0  0  0  0
   34.1658    1.4249    9.6802 C   0  0  2  0  0  0  0  0  0  0  0  0
   35.5807    1.6096    9.5542 O   0  0  0  0  0  0  0  0  0  0  0  0
   33.5276    1.1248    8.2993 C   0  0  2  0  0  0  0  0  0  0  0  0
   34.1426   -0.0837    7.7177 N   0  0  0  0  0  0  0  0  0  0  0  0
   33.7654    2.3320    7.3766 C   0  0  1  0  0  0  0  0  0  0  0  0
   33.1731    2.0974    6.0962 O   0  0  0  0  0  0  0  0  0  0  0  0
   33.1140    3.5530    8.0238 C   0  0  2  0  0  0  0  0  0  0  0  0
   33.3245    4.6829    7.1867 O   0  0  0  0  0  0  0  0  0  0  0  0
   33.7670    3.7896    9.4130 C   0  0  2  0  0  0  0  0  0  0  0  0
   33.5730    2.6228   10.2699 O   0  0  0  0  0  0  0  0  0  0  0  0
   33.1325    5.0166   10.1133 C   0  0  0  0  0  0  0  0  0  0  0  0
   33.4768    6.2329    9.4251 O   0  0  0  0  0  0  0  0  0  0  0  0
  1  2  1  1  0  0  0
  1  3  1  0  0  0  0
  1  4  2  0  0  0  0
  1 16  1  0  0  0  0
  5  6  1  6  0  0  0
  5  7  1  0  0  0  0
  5 14  1  0  0  0  0
  7  8  1  6  0  0  0
  7  9  1  0  0  0  0
  9 10  1  6  0  0  0
  9 11  1  0  0  0  0
 11 12  1  6  0  0  0
 11 13  1  0  0  0  0
 13 14  1  0  0  0  0
 13 15  1  1  0  0  0
 15 16  1  0  0  0  0
M  CHG  1   3  -1
M  END
>  <CHROM.1>
-68.27449547,-170.82840720,60.78937943,33.47404056,4.43439979,9.17914256
-2.02809875,1.21444153,-2.36422663

>  <Name>
ligand

>  <RI>
0

>  <Rbt.Current_Directory>
/home/itssahil/PROJECTS/Mol_Feturizer/New_Systems/rnas/3B4C

>  <Rbt.Executable>
rbdock ($Id: //depot/dev/client3/rdock/2013.1/src/exe/rbdock.cxx#4 $)

>  <Rbt.Library>
libRbt.so (2013.1, Build901 2013/11/27)

>  <Rbt.Parameter_File>
/export/apps/rDock/src/rDock_2013.1_src/data/scripts/dock_solv.prm

>  <Rbt.Receptor>
prm/blind_docking_60.prm

>  <SCORE>
-7.79902

>  <SCORE.INTER>
-6.54503

>  <SCORE.INTER.CONST>
1

>  <SCORE.INTER.POLAR>
0

>  <SCORE.INTER.ROT>
3

>  <SCORE.INTER.SOLV>
10.9053

>  <SCORE.INTER.VDW>
-13.5985

>  <SCORE.INTER.norm>
-0.409064

>  <SCORE.INTRA>
-1.25398

>  <SCORE.INTRA.DIHEDRAL>
-1.47979

>  <SCORE.INTRA.DIHEDRAL.0>
2.1318

>  <SCORE.INTRA.POLAR>
0

>  <SCORE.INTRA.POLAR.0>
0

>  <SCORE.INTRA.REPUL>
0

>  <SCORE.INTRA.REPUL.0>
0

>  <SCORE.INTRA.SOLV>
-0.754252

>  <SCORE.INTRA.SOLV.lig_0>
-58.6125

>  <SCORE.INTRA.VDW>
-0.136963

>  <SCORE.INTRA.VDW.0>
-0.432734

>  <SCORE.INTRA.norm>
-0.078374

>  <SCORE.RESTR>
0

>  <SCORE.RESTR.CAVITY>
0

>  <SCORE.RESTR.norm>
0

>  <SCORE.SYSTEM>
0

>  <SCORE.SYSTEM.CONST>
0

>  <SCORE.SYSTEM.DIHEDRAL>
0

>  <SCORE.SYSTEM.SOLV>
0

>  <SCORE.SYSTEM.norm>
0

>  <SCORE.heavy>
16

>  <SCORE.norm>
-0.487438

>  <RMSD>
18.542

$$$$
ligand
 OpenBabel11021811463D
libRbt.so/2013.1/901 2013/11/27
 16 16  0  0  0  0  0  0  0  0999 V2000
   35.7778   -0.8739   11.7659 P   0  0  2  0  0  0  0  0  0  0  0  0
   35.6391   -0.0626   13.0004 O   0  0  0  0  0  0  0  0  0  0  0  0
   34.4296   -1.7181   11.5236 O   0  5  0  0  0  0  0  0  0  0  0  0
   37.0096   -1.8984   11.9468 O   0  0  0  0  0  0  0  0  0  0  0  0
   35.7057    1.9112    6.7540 C   0  0  2  0  0  0  0  0  0  0  0  0
   36.8281    2.7668    6.9989 O   0  0  0  0  0  0  0  0  0  0  0  0
   34.4464    2.7460    6.4057 C   0  0  2  0  0  0  0  0  0  0  0  0
   34.7128    3.5783    5.2170 N   0  0  0  0  0  0  0  0  0  0  0  0
   34.1036    3.6411    7.6084 C   0  0  1  0  0  0  0  0  0  0  0  0
   32.9335    4.4145    7.3291 O   0  0  0  0  0  0  0  0  0  0  0  0
   33.8405    2.7338    8.8090 C   0  0  2  0  0  0  0  0  0  0  0  0
   33.5235    3.5427    9.9346 O   0  0  0  0  0  0  0  0  0  0  0  0
   35.1196    1.9004    9.0946 C   0  0  2  0  0  0  0  0  0  0  0  0
   35.4628    1.0839    7.9332 O   0  0  0  0  0  0  0  0  0  0  0  0
   34.8988    0.9569   10.3028 C   0  0  0  0  0  0  0  0  0  0  0  0
   36.0430    0.1074   10.5040 O   0  0  0  0  0  0  0  0  0  0  0  0
  1  2  1  1  0  0  0
  1  3  1  0  0  0  0
  1  4  2  0  0  0  0
  1 16  1  0  0  0  0
  5  6  1  1  0  0  0
  5  7  1  0  0  0  0
  5 14  1  0  0  0  0
  7  8  1  6  0  0  0
  7  9  1  0  0  0  0
  9 10  1  6  0  0  0
  9 11  1  0  0  0  0
 11 12  1  1  0  0  0
 11 13  1  0  0  0  0
 13 14  1  0  0  0  0
 13 15  1  1  0  0  0
 15 16  1  0  0  0  0
M  CHG  1   3  -1
M  END
>  <CHROM.1>
175.40091571,-179.58607881,-63.78897802,35.10046300,1.33525391,9.33041367
-1.30190296,0.72955003,-1.03442494

>  <Name>
ligand

>  <RI>
0

>  <Rbt.Current_Directory>
/home/itssahil/PROJECTS/Mol_Feturizer/New_Systems/rnas/3B4C

>  <Rbt.Executable>
rbdock ($Id: //depot/dev/client3/rdock/2013.1/src/exe/rbdock.cxx#4 $)

>  <Rbt.Library>
libRbt.so (2013.1, Build901 2013/11/27)

>  <Rbt.Parameter_File>
/export/apps/rDock/src/rDock_2013.1_src/data/scripts/dock_solv.prm

>  <Rbt.Receptor>
prm/blind_docking_40.prm

>  <SCORE>
-8.10086

>  <SCORE.INTER>
-6.5018

>  <SCORE.INTER.CONST>
1

>  <SCORE.INTER.POLAR>
0

>  <SCORE.INTER.ROT>
3

>  <SCORE.INTER.SOLV>
12.3692

>  <SCORE.INTER.VDW>
-14.0576

>  <SCORE.INTER.norm>
-0.406363

>  <SCORE.INTRA>
-1.59906

>  <SCORE.INTRA.DIHEDRAL>
-2.0314

>  <SCORE.INTRA.DIHEDRAL.0>
2.1318

>  <SCORE.INTRA.POLAR>
0

>  <SCORE.INTRA.POLAR.0>
0

>  <SCORE.INTRA.REPUL>
0

>  <SCORE.INTRA.REPUL.0>
0

>  <SCORE.INTRA.SOLV>
-0.957364

>  <SCORE.INTRA.SOLV.lig_0>
-58.6125

>  <SCORE.INTRA.VDW>
-0.10468

>  <SCORE.INTRA.VDW.0>
-0.432734

>  <SCORE.INTRA.norm>
-0.0999413

>  <SCORE.RESTR>
0

>  <SCORE.RESTR.CAVITY>
0

>  <SCORE.RESTR.norm>
0

>  <SCORE.SYSTEM>
0

>  <SCORE.SYSTEM.CONST>
0

>  <SCORE.SYSTEM.DIHEDRAL>
0

>  <SCORE.SYSTEM.SOLV>
0

>  <SCORE.SYSTEM.norm>
0

>  <SCORE.heavy>
16

>  <SCORE.norm>
-0.506304

>  <RMSD>
18.547

$$$$
ligand
 OpenBabel11021811463D
libRbt.so/2013.1/901 2013/11/27
 16 16  0  0  0  0  0  0  0  0999 V2000
   36.6692   -0.4243   11.9997 P   0  0  2  0  0  0  0  0  0  0  0  0
   36.3170    0.5791   13.0343 O   0  0  0  0  0  0  0  0  0  0  0  0
   35.7115   -1.7086   12.1488 O   0  5  0  0  0  0  0  0  0  0  0  0
   38.1988   -0.8860   12.2156 O   0  0  0  0  0  0  0  0  0  0  0  0
   35.4921    2.9659    7.4390 C   0  0  2  0  0  0  0  0  0  0  0  0
   34.1214    3.3468    7.2720 O   0  0  0  0  0  0  0  0  0  0  0  0
   35.9228    1.9707    6.3308 C   0  0  2  0  0  0  0  0  0  0  0  0
   35.7304    2.5873    5.0043 N   0  0  0  0  0  0  0  0  0  0  0  0
   35.0626    0.7014    6.4505 C   0  0  1  0  0  0  0  0  0  0  0  0
   35.4454   -0.2489    5.4526 O   0  0  0  0  0  0  0  0  0  0  0  0
   35.2954    0.1057    7.8378 C   0  0  2  0  0  0  0  0  0  0  0  0
   34.5062   -1.0696    7.9707 O   0  0  0  0  0  0  0  0  0  0  0  0
   34.8777    1.1521    8.9069 C   0  0  2  0  0  0  0  0  0  0  0  0
   35.6703    2.3703    8.7609 O   0  0  0  0  0  0  0  0  0  0  0  0
   35.1030    0.5949   10.3343 C   0  0  0  0  0  0  0  0  0  0  0  0
   36.4816    0.2302   10.5293 O   0  0  0  0  0  0  0  0  0  0  0  0
  1  2  1  1  0  0  0
  1  3  1  0  0  0  0
  1  4  2  0  0  0  0
  1 16  1  0  0  0  0
  5  6  1  6  0  0  0
  5  7  1  0  0  0  0
  5 14  1  0  0  0  0
  7  8  1  6  0  0  0
  7  9  1  0  0  0  0
  9 10  1  6  0  0  0
  9 11  1  0  0  0  0
 11 12  1  6  0  0  0
 11 13  1  0  0  0  0
 13 14  1  0  0  0  0
 13 15  1  1  0  0  0
 15 16  1  0  0  0  0
M  CHG  1   3  -1
M  END
>  <CHROM.1>
58.23483994,-176.87529194,-62.08126231,35.74612914,0.64669006,9.14754682
-0.14886764,-1.34204101,0.22130005

>  <Name>
ligand

>  <RI>
0

>  <Rbt.Current_Directory>
/home/itssahil/PROJECTS/Mol_Feturizer/New_Systems/rnas/3B4C

>  <Rbt.Executable>
rbdock ($Id: //depot/dev/client3/rdock/2013.1/src/exe/rbdock.cxx#4 $)

>  <Rbt.Library>
libRbt.so (2013.1, Build901 2013/11/27)

>  <Rbt.Parameter_File>
/export/apps/rDock/src/rDock_2013.1_src/data/scripts/dock_solv.prm

>  <Rbt.Receptor>
prm/blind_docking_100.prm

>  <SCORE>
-8.0411

>  <SCORE.INTER>
-6.36848

>  <SCORE.INTER.CONST>
1

>  <SCORE.INTER.POLAR>
0

>  <SCORE.INTER.ROT>
3

>  <SCORE.INTER.SOLV>
10.6702

>  <SCORE.INTER.VDW>
-13.4024

>  <SCORE.INTER.norm>
-0.39803

>  <SCORE.INTRA>
-1.67262

>  <SCORE.INTRA.DIHEDRAL>
-2.06401

>  <SCORE.INTRA.DIHEDRAL.0>
2.1318

>  <SCORE.INTRA.POLAR>
0

>  <SCORE.INTRA.POLAR.0>
0

>  <SCORE.INTRA.REPUL>
0

>  <SCORE.INTRA.REPUL.0>
0

>  <SCORE.INTRA.SOLV>
-0.761312

>  <SCORE.INTRA.SOLV.lig_0>
-58.6125

>  <SCORE.INTRA.VDW>
-0.259959

>  <SCORE.INTRA.VDW.0>
-0.432734

>  <SCORE.INTRA.norm>
-0.104539

>  <SCORE.RESTR>
0

>  <SCORE.RESTR.CAVITY>
0

>  <SCORE.RESTR.norm>
0

>  <SCORE.SYSTEM>
0

>  <SCORE.SYSTEM.CONST>
0

>  <SCORE.SYSTEM.DIHEDRAL>
0

>  <SCORE.SYSTEM.SOLV>
0

>  <SCORE.SYSTEM.norm>
0

>  <SCORE.heavy>
16

>  <SCORE.norm>
-0.502569

>  <RMSD>
18.573

$$$$
ligand
 OpenBabel11021811463D
libRbt.so/2013.1/901 2013/11/27
 16 16  0  0  0  0  0  0  0  0999 V2000
   32.2808    3.5824    9.7278 P   0  0  2  0  0  0  0  0  0  0  0  0
   31.2822    2.6890    9.0907 O   0  0  0  0  0  0  0  0  0  0  0  0
   31.5497    4.5169   10.8145 O   0  5  0  0  0  0  0  0  0  0  0  0
   32.9444    4.5194    8.5958 O   0  0  0  0  0  0  0  0  0  0  0  0
   35.8530   -0.6352   11.5857 C   0  0  2  0  0  0  0  0  0  0  0  0
   36.5564    0.2206   12.4937 O   0  0  0  0  0  0  0  0  0  0  0  0
   36.8260   -1.2486   10.5460 C   0  0  2  0  0  0  0  0  0  0  0  0
   37.8815   -2.0111   11.2399 N   0  0  0  0  0  0  0  0  0  0  0  0
   37.4532   -0.1070    9.7283 C   0  0  1  0  0  0  0  0  0  0  0  0
   38.3453   -0.6380    8.7448 O   0  0  0  0  0  0  0  0  0  0  0  0
   36.3219    0.6501    9.0349 C   0  0  2  0  0  0  0  0  0  0  0  0
   36.8805    1.7134    8.2739 O   0  0  0  0  0  0  0  0  0  0  0  0
   35.3628    1.2158   10.1176 C   0  0  2  0  0  0  0  0  0  0  0  0
   34.8029    0.1292   10.9170 O   0  0  0  0  0  0  0  0  0  0  0  0
   34.1918    1.9880    9.4609 C   0  0  0  0  0  0  0  0  0  0  0  0
   33.4188    2.6862   10.4540 O   0  0  0  0  0  0  0  0  0  0  0  0
  1  2  1  6  0  0  0
  1  3  1  0  0  0  0
  1  4  2  0  0  0  0
  1 16  1  0  0  0  0
  5  6  1  1  0  0  0
  5  7  1  0  0  0  0
  5 14  1  0  0  0  0
  7  8  1  1  0  0  0
  7  9  1  0  0  0  0
  9 10  1  6  0  0  0
  9 11  1  0  0  0  0
 11 12  1  1  0  0  0
 11 13  1  0  0  0  0
 13 14  1  0  0  0  0
 13 15  1  6  0  0  0
 15 16  1  0  0  0  0
M  CHG  1   3  -1
M  END
>  <CHROM.1>
-171.08597116,175.25518451,67.59715312,34.86525029,1.43766064,10.01867460
2.69724845,0.58086899,-1.00887745

>  <Name>
ligand

>  <RI>
0

>  <Rbt.Current_Directory>
/home/itssahil/PROJECTS/Mol_Feturizer/New_Systems/rnas/3B4C

>  <Rbt.Executable>
rbdock ($Id: //depot/dev/client3/rdock/2013.1/src/exe/rbdock.cxx#4 $)

>  <Rbt.Library>
libRbt.so (2013.1, Build901 2013/11/27)

>  <Rbt.Parameter_File>
/export/apps/rDock/src/rDock_2013.1_src/data/scripts/dock_solv.prm

>  <Rbt.Receptor>
prm/blind_docking_100.prm

>  <SCORE>
-9.90391

>  <SCORE.INTER>
-8.458

>  <SCORE.INTER.CONST>
1

>  <SCORE.INTER.POLAR>
0

>  <SCORE.INTER.ROT>
3

>  <SCORE.INTER.SOLV>
15.3937

>  <SCORE.INTER.VDW>
-16.3699

>  <SCORE.INTER.norm>
-0.528625

>  <SCORE.INTRA>
-1.44591

>  <SCORE.INTRA.DIHEDRAL>
-1.63791

>  <SCORE.INTRA.DIHEDRAL.0>
2.1318

>  <SCORE.INTRA.POLAR>
0

>  <SCORE.INTRA.POLAR.0>
0

>  <SCORE.INTRA.REPUL>
0

>  <SCORE.INTRA.REPUL.0>
0

>  <SCORE.INTRA.SOLV>
-0.974714

>  <SCORE.INTRA.SOLV.lig_0>
-58.6125

>  <SCORE.INTRA.VDW>
-0.139603

>  <SCORE.INTRA.VDW.0>
-0.432734

>  <SCORE.INTRA.norm>
-0.0903696

>  <SCORE.RESTR>
0

>  <SCORE.RESTR.CAVITY>
0

>  <SCORE.RESTR.norm>
0

>  <SCORE.SYSTEM>
0

>  <SCORE.SYSTEM.CONST>
0

>  <SCORE.SYSTEM.DIHEDRAL>
0

>  <SCORE.SYSTEM.SOLV>
0

>  <SCORE.SYSTEM.norm>
0

>  <SCORE.heavy>
16

>  <SCORE.norm>
-0.618994

>  <RMSD>
18.585

$$$$
ligand
 OpenBabel11021811463D
libRbt.so/2013.1/901 2013/11/27
 16 16  0  0  0  0  0  0  0  0999 V2000
   34.6185    1.4227    8.4342 P   0  0  2  0  0  0  0  0  0  0  0  0
   33.9472    0.2565    9.0592 O   0  0  0  0  0  0  0  0  0  0  0  0
   33.9919    1.6853    6.9758 O   0  5  0  0  0  0  0  0  0  0  0  0
   36.1905    1.1011    8.2767 O   0  0  0  0  0  0  0  0  0  0  0  0
   33.0657    6.6087   10.5146 C   0  0  2  0  0  0  0  0  0  0  0  0
   33.8471    6.5064   11.7108 O   0  0  0  0  0  0  0  0  0  0  0  0
   31.5688    6.8261   10.8552 C   0  0  2  0  0  0  0  0  0  0  0  0
   31.4139    8.0508   11.6631 N   0  0  0  0  0  0  0  0  0  0  0  0
   31.0639    5.6072   11.6456 C   0  0  1  0  0  0  0  0  0  0  0  0
   29.6783    5.7651   11.9622 O   0  0  0  0  0  0  0  0  0  0  0  0
   31.2488    4.3698   10.7688 C   0  0  2  0  0  0  0  0  0  0  0  0
   30.7897    3.2290   11.4827 O   0  0  0  0  0  0  0  0  0  0  0  0
   32.7575    4.2170   10.4329 C   0  0  2  0  0  0  0  0  0  0  0  0
   33.2400    5.3962    9.7187 O   0  0  0  0  0  0  0  0  0  0  0  0
   32.9949    2.9763    9.5369 C   0  0  0  0  0  0  0  0  0  0  0  0
   34.4028    2.7308    9.3659 O   0  0  0  0  0  0  0  0  0  0  0  0
  1  2  1  1  0  0  0
  1  3  1  0  0  0  0
  1  4  2  0  0  0  0
  1 16  1  0  0  0  0
  5  6  1  1  0  0  0
  5  7  1  0  0  0  0
  5 14  1  0  0  0  0
  7  8  1  1  0  0  0
  7  9  1  0  0  0  0
  9 10  1  6  0  0  0
  9 11  1  0  0  0  0
 11 12  1  1  0  0  0
 11 13  1  0  0  0  0
 13 14  1  0  0  0  0
 13 15  1  6  0  0  0
 15 16  1  0  0  0  0
M  CHG  1   3  -1
M  END
>  <CHROM.1>
-172.55449464,179.59934506,-58.03862457,32.96947259,3.90716731,10.00014517
-1.01269914,0.43107230,0.29529095

>  <Name>
ligand

>  <RI>
0

>  <Rbt.Current_Directory>
/home/itssahil/PROJECTS/Mol_Feturizer/New_Systems/rnas/3B4C

>  <Rbt.Executable>
rbdock ($Id: //depot/dev/client3/rdock/2013.1/src/exe/rbdock.cxx#4 $)

>  <Rbt.Library>
libRbt.so (2013.1, Build901 2013/11/27)

>  <Rbt.Parameter_File>
/export/apps/rDock/src/rDock_2013.1_src/data/scripts/dock_solv.prm

>  <Rbt.Receptor>
prm/blind_docking_80.prm

>  <SCORE>
-10.5179

>  <SCORE.INTER>
-8.91917

>  <SCORE.INTER.CONST>
1

>  <SCORE.INTER.POLAR>
0

>  <SCORE.INTER.ROT>
3

>  <SCORE.INTER.SOLV>
13.5536

>  <SCORE.INTER.VDW>
-16.064

>  <SCORE.INTER.norm>
-0.557448

>  <SCORE.INTRA>
-1.59877

>  <SCORE.INTRA.DIHEDRAL>
-1.92127

>  <SCORE.INTRA.DIHEDRAL.0>
2.1318

>  <SCORE.INTRA.POLAR>
0

>  <SCORE.INTRA.POLAR.0>
0

>  <SCORE.INTRA.REPUL>
0

>  <SCORE.INTRA.REPUL.0>
0

>  <SCORE.INTRA.SOLV>
-1.06083

>  <SCORE.INTRA.SOLV.lig_0>
-58.6125

>  <SCORE.INTRA.VDW>
-0.107722

>  <SCORE.INTRA.VDW.0>
-0.432734

>  <SCORE.INTRA.norm>
-0.0999231

>  <SCORE.RESTR>
0

>  <SCORE.RESTR.CAVITY>
0

>  <SCORE.RESTR.norm>
0

>  <SCORE.SYSTEM>
0

>  <SCORE.SYSTEM.CONST>
0

>  <SCORE.SYSTEM.DIHEDRAL>
0

>  <SCORE.SYSTEM.SOLV>
0

>  <SCORE.SYSTEM.norm>
0

>  <SCORE.heavy>
16

>  <SCORE.norm>
-0.657371

>  <RMSD>
18.597

$$$$
ligand
 OpenBabel11021811463D
libRbt.so/2013.1/901 2013/11/27
 16 16  0  0  0  0  0  0  0  0999 V2000
   35.2497   -0.8058   10.5534 P   0  0  2  0  0  0  0  0  0  0  0  0
   35.8430   -0.1409   11.7395 O   0  0  0  0  0  0  0  0  0  0  0  0
   34.6263   -2.2240   10.9882 O   0  5  0  0  0  0  0  0  0  0  0  0
   36.4068   -1.0578    9.4593 O   0  0  0  0  0  0  0  0  0  0  0  0
   32.0347    3.7375   10.6420 C   0  0  2  0  0  0  0  0  0  0  0  0
   30.9415    3.3122    9.8199 O   0  0  0  0  0  0  0  0  0  0  0  0
   32.6220    5.0754   10.1232 C   0  0  2  0  0  0  0  0  0  0  0  0
   31.5703    6.1101   10.1105 N   0  0  0  0  0  0  0  0  0  0  0  0
   33.1603    4.8551    8.6994 C   0  0  1  0  0  0  0  0  0  0  0  0
   33.7273    6.0669    8.1943 O   0  0  0  0  0  0  0  0  0  0  0  0
   34.2400    3.7764    8.7675 C   0  0  2  0  0  0  0  0  0  0  0  0
   34.7504    3.5551    7.4589 O   0  0  0  0  0  0  0  0  0  0  0  0
   33.6068    2.4706    9.3208 C   0  0  2  0  0  0  0  0  0  0  0  0
   33.0610    2.6980   10.6564 O   0  0  0  0  0  0  0  0  0  0  0  0
   34.6677    1.3463    9.4153 C   0  0  0  0  0  0  0  0  0  0  0  0
   34.0859    0.1364    9.9342 O   0  0  0  0  0  0  0  0  0  0  0  0
  1  2  1  1  0  0  0
  1  3  1  0  0  0  0
  1  4  2  0  0  0  0
  1 16  1  0  0  0  0
  5  6  1  6  0  0  0
  5  7  1  0  0  0  0
  5 14  1  0  0  0  0
  7  8  1  6  0  0  0
  7  9  1  0  0  0  0
  9 10  1  1  0  0  0
  9 11  1  0  0  0  0
 11 12  1  6  0  0  0
 11 13  1  0  0  0  0
 13 14  1  0  0  0  0
 13 15  1  1  0  0  0
 15 16  1  0  0  0  0
M  CHG  1   3  -1
M  END
>  <CHROM.1>
179.70693927,-158.30939415,65.96373472,33.92329284,2.12738217,9.80419382
1.05776445,-0.61456912,2.62042144

>  <Name>
ligand

>  <RI>
0

>  <Rbt.Current_Directory>
/home/itssahil/PROJECTS/Mol_Feturizer/New_Systems/rnas/3B4C

>  <Rbt.Executable>
rbdock ($Id: //depot/dev/client3/rdock/2013.1/src/exe/rbdock.cxx#4 $)

>  <Rbt.Library>
libRbt.so (2013.1, Build901 2013/11/27)

>  <Rbt.Parameter_File>
/export/apps/rDock/src/rDock_2013.1_src/data/scripts/dock_solv.prm

>  <Rbt.Receptor>
prm/blind_docking_60.prm

>  <SCORE>
-9.40228

>  <SCORE.INTER>
-8.76885

>  <SCORE.INTER.CONST>
1

>  <SCORE.INTER.POLAR>
0

>  <SCORE.INTER.ROT>
3

>  <SCORE.INTER.SOLV>
17.3186

>  <SCORE.INTER.VDW>
-17.2188

>  <SCORE.INTER.norm>
-0.548053

>  <SCORE.INTRA>
-0.633428

>  <SCORE.INTRA.DIHEDRAL>
0.0133711

>  <SCORE.INTRA.DIHEDRAL.0>
2.1318

>  <SCORE.INTRA.POLAR>
0

>  <SCORE.INTRA.POLAR.0>
0

>  <SCORE.INTRA.REPUL>
0

>  <SCORE.INTRA.REPUL.0>
0

>  <SCORE.INTRA.SOLV>
-0.879922

>  <SCORE.INTRA.SOLV.lig_0>
-58.6125

>  <SCORE.INTRA.VDW>
-0.200153

>  <SCORE.INTRA.VDW.0>
-0.432734

>  <SCORE.INTRA.norm>
-0.0395892

>  <SCORE.RESTR>
0

>  <SCORE.RESTR.CAVITY>
0

>  <SCORE.RESTR.norm>
0

>  <SCORE.SYSTEM>
0

>  <SCORE.SYSTEM.CONST>
0

>  <SCORE.SYSTEM.DIHEDRAL>
0

>  <SCORE.SYSTEM.SOLV>
0

>  <SCORE.SYSTEM.norm>
0

>  <SCORE.heavy>
16

>  <SCORE.norm>
-0.587643

>  <RMSD>
18.603

$$$$
ligand
 OpenBabel11021811463D
libRbt.so/2013.1/901 2013/11/27
 16 16  0  0  0  0  0  0  0  0999 V2000
   36.2195   -1.1681   13.3364 P   0  0  2  0  0  0  0  0  0  0  0  0
   35.6178   -1.3484   14.6806 O   0  0  0  0  0  0  0  0  0  0  0  0
   36.4537   -2.6068   12.6552 O   0  5  0  0  0  0  0  0  0  0  0  0
   37.6428   -0.4271   13.4936 O   0  0  0  0  0  0  0  0  0  0  0  0
   34.1428    2.6712    9.5059 C   0  0  2  0  0  0  0  0  0  0  0  0
   32.7781    2.5277    9.9168 O   0  0  0  0  0  0  0  0  0  0  0  0
   34.2996    2.3359    8.0003 C   0  0  2  0  0  0  0  0  0  0  0  0
   33.4372    3.2250    7.1988 N   0  0  0  0  0  0  0  0  0  0  0  0
   33.8924    0.8693    7.7797 C   0  0  1  0  0  0  0  0  0  0  0  0
   34.0420    0.5186    6.4014 O   0  0  0  0  0  0  0  0  0  0  0  0
   34.8106   -0.0059    8.6311 C   0  0  2  0  0  0  0  0  0  0  0  0
   34.4491   -1.3683    8.4436 O   0  0  0  0  0  0  0  0  0  0  0  0
   34.6370    0.3914   10.1225 C   0  0  2  0  0  0  0  0  0  0  0  0
   34.9859    1.7963   10.3170 O   0  0  0  0  0  0  0  0  0  0  0  0
   35.5560   -0.4664   11.0271 C   0  0  0  0  0  0  0  0  0  0  0  0
   35.2231   -0.2824   12.4152 O   0  0  0  0  0  0  0  0  0  0  0  0
  1  2  1  1  0  0  0
  1  3  1  0  0  0  0
  1  4  2  0  0  0  0
  1 16  1  0  0  0  0
  5  6  1  1  0  0  0
  5  7  1  0  0  0  0
  5 14  1  0  0  0  0
  7  8  1  6  0  0  0
  7  9  1  0  0  0  0
  9 10  1  6  0  0  0
  9 11  1  0  0  0  0
 11 12  1  1  0  0  0
 11 13  1  0  0  0  0
 13 14  1  0  0  0  0
 13 15  1  1  0  0  0
 15 16  1  0  0  0  0
M  CHG  1   3  -1
M  END
>  <CHROM.1>
-169.25261374,-178.86523042,-161.08440897,35.00345761,0.25753754,10.53187004
0.39721785,-1.16563725,0.92295775

>  <Name>
ligand

>  <RI>
0

>  <Rbt.Current_Directory>
/home/itssahil/PROJECTS/Mol_Feturizer/New_Systems/rnas/3B4C

>  <Rbt.Executable>
rbdock ($Id: //depot/dev/client3/rdock/2013.1/src/exe/rbdock.cxx#4 $)

>  <Rbt.Library>
libRbt.so (2013.1, Build901 2013/11/27)

>  <Rbt.Parameter_File>
/export/apps/rDock/src/rDock_2013.1_src/data/scripts/dock_solv.prm

>  <Rbt.Receptor>
prm/blind_docking_100.prm

>  <SCORE>
-7.87069

>  <SCORE.INTER>
-7.03713

>  <SCORE.INTER.CONST>
1

>  <SCORE.INTER.POLAR>
0

>  <SCORE.INTER.ROT>
3

>  <SCORE.INTER.SOLV>
16.2079

>  <SCORE.INTER.VDW>
-15.6941

>  <SCORE.INTER.norm>
-0.439821

>  <SCORE.INTRA>
-0.833564

>  <SCORE.INTRA.DIHEDRAL>
-1.16615

>  <SCORE.INTRA.DIHEDRAL.0>
2.1318

>  <SCORE.INTRA.POLAR>
0

>  <SCORE.INTRA.POLAR.0>
0

>  <SCORE.INTRA.REPUL>
0

>  <SCORE.INTRA.REPUL.0>
0

>  <SCORE.INTRA.SOLV>
-0.427618

>  <SCORE.INTRA.SOLV.lig_0>
-58.6125

>  <SCORE.INTRA.VDW>
-0.036682

>  <SCORE.INTRA.VDW.0>
-0.432734

>  <SCORE.INTRA.norm>
-0.0520977

>  <SCORE.RESTR>
0

>  <SCORE.RESTR.CAVITY>
0

>  <SCORE.RESTR.norm>
0

>  <SCORE.SYSTEM>
0

>  <SCORE.SYSTEM.CONST>
0

>  <SCORE.SYSTEM.DIHEDRAL>
0

>  <SCORE.SYSTEM.SOLV>
0

>  <SCORE.SYSTEM.norm>
0

>  <SCORE.heavy>
16

>  <SCORE.norm>
-0.491918

>  <RMSD>
18.799

$$$$
ligand
 OpenBabel11021811463D
libRbt.so/2013.1/901 2013/11/27
 16 16  0  0  0  0  0  0  0  0999 V2000
   36.4145   -0.7803   12.2976 P   0  0  2  0  0  0  0  0  0  0  0  0
   36.4505    0.1018   13.4901 O   0  0  0  0  0  0  0  0  0  0  0  0
   36.2161   -2.3072   12.7647 O   0  5  0  0  0  0  0  0  0  0  0  0
   37.8148   -0.6537   11.5086 O   0  0  0  0  0  0  0  0  0  0  0  0
   33.3270    3.3602    8.7883 C   0  0  2  0  0  0  0  0  0  0  0  0
   32.0467    3.1330    9.3891 O   0  0  0  0  0  0  0  0  0  0  0  0
   33.4204    2.6506    7.4130 C   0  0  2  0  0  0  0  0  0  0  0  0
   32.3526    3.1452    6.5230 N   0  0  0  0  0  0  0  0  0  0  0  0
   33.2638    1.1362    7.6311 C   0  0  1  0  0  0  0  0  0  0  0  0
   33.3629    0.4459    6.3826 O   0  0  0  0  0  0  0  0  0  0  0  0
   34.3877    0.6768    8.5584 C   0  0  2  0  0  0  0  0  0  0  0  0
   34.2601   -0.7226    8.7755 O   0  0  0  0  0  0  0  0  0  0  0  0
   34.2658    1.4389    9.9061 C   0  0  2  0  0  0  0  0  0  0  0  0
   34.3740    2.8788    9.6862 O   0  0  0  0  0  0  0  0  0  0  0  0
   35.3916    1.0110   10.8798 C   0  0  0  0  0  0  0  0  0  0  0  0
   35.1862   -0.3379   11.3379 O   0  0  0  0  0  0  0  0  0  0  0  0
  1  2  1  1  0  0  0
  1  3  1  0  0  0  0
  1  4  2  0  0  0  0
  1 16  1  0  0  0  0
  5  6  1  1  0  0  0
  5  7  1  0  0  0  0
  5 14  1  0  0  0  0
  7  8  1  6  0  0  0
  7  9  1  0  0  0  0
  9 10  1  6  0  0  0
  9 11  1  0  0  0  0
 11 12  1  1  0  0  0
 11 13  1  0  0  0  0
 13 14  1  0  0  0  0
 13 15  1  1  0  0  0
 15 16  1  0  0  0  0
M  CHG  1   3  -1
M  END
>  <CHROM.1>
-70.08863186,177.34486933,62.03770532,34.70299979,0.77454916,9.95189797,0.14601011
-1.01305669,0.76662133

>  <Name>
ligand

>  <RI>
0

>  <Rbt.Current_Directory>
/home/itssahil/PROJECTS/Mol_Feturizer/New_Systems/rnas/3B4C

>  <Rbt.Executable>
rbdock ($Id: //depot/dev/client3/rdock/2013.1/src/exe/rbdock.cxx#4 $)

>  <Rbt.Library>
libRbt.so (2013.1, Build901 2013/11/27)

>  <Rbt.Parameter_File>
/export/apps/rDock/src/rDock_2013.1_src/data/scripts/dock_solv.prm

>  <Rbt.Receptor>
prm/blind_docking_60.prm

>  <SCORE>
-9.33814

>  <SCORE.INTER>
-7.95614

>  <SCORE.INTER.CONST>
1

>  <SCORE.INTER.POLAR>
0

>  <SCORE.INTER.ROT>
3

>  <SCORE.INTER.SOLV>
12.4445

>  <SCORE.INTER.VDW>
-15.0523

>  <SCORE.INTER.norm>
-0.497259

>  <SCORE.INTRA>
-1.38201

>  <SCORE.INTRA.DIHEDRAL>
-1.7308

>  <SCORE.INTRA.DIHEDRAL.0>
2.1318

>  <SCORE.INTRA.POLAR>
0

>  <SCORE.INTRA.POLAR.0>
0

>  <SCORE.INTRA.REPUL>
0

>  <SCORE.INTRA.REPUL.0>
0

>  <SCORE.INTRA.SOLV>
-0.60886

>  <SCORE.INTRA.SOLV.lig_0>
-58.6125

>  <SCORE.INTRA.VDW>
-0.212175

>  <SCORE.INTRA.VDW.0>
-0.432734

>  <SCORE.INTRA.norm>
-0.0863754

>  <SCORE.RESTR>
0

>  <SCORE.RESTR.CAVITY>
0

>  <SCORE.RESTR.norm>
0

>  <SCORE.SYSTEM>
0

>  <SCORE.SYSTEM.CONST>
0

>  <SCORE.SYSTEM.DIHEDRAL>
0

>  <SCORE.SYSTEM.SOLV>
0

>  <SCORE.SYSTEM.norm>
0

>  <SCORE.heavy>
16

>  <SCORE.norm>
-0.583634

>  <RMSD>
18.860

$$$$
ligand
 OpenBabel11021811463D
libRbt.so/2013.1/901 2013/11/27
 16 16  0  0  0  0  0  0  0  0999 V2000
   33.5000    4.1107    8.8456 P   0  0  2  0  0  0  0  0  0  0  0  0
   34.0452    5.4821    8.9980 O   0  0  0  0  0  0  0  0  0  0  0  0
   33.1771    3.8303    7.2945 O   0  5  0  0  0  0  0  0  0  0  0  0
   32.1334    3.9921    9.6929 O   0  0  0  0  0  0  0  0  0  0  0  0
   36.0487    0.1559   12.0483 C   0  0  2  0  0  0  0  0  0  0  0  0
   37.3470    0.1883   11.4440 O   0  0  0  0  0  0  0  0  0  0  0  0
   35.4705   -1.2825   12.0272 C   0  0  2  0  0  0  0  0  0  0  0  0
   36.3810   -2.1967   12.7428 N   0  0  0  0  0  0  0  0  0  0  0  0
   35.3206   -1.7291   10.5631 C   0  0  1  0  0  0  0  0  0  0  0  0
   34.7715   -3.0483   10.5044 O   0  0  0  0  0  0  0  0  0  0  0  0
   34.3741   -0.7514    9.8687 C   0  0  2  0  0  0  0  0  0  0  0  0
   34.2231   -1.1453    8.5108 O   0  0  0  0  0  0  0  0  0  0  0  0
   34.9848    0.6745    9.9456 C   0  0  2  0  0  0  0  0  0  0  0  0
   35.1627    1.0756   11.3388 O   0  0  0  0  0  0  0  0  0  0  0  0
   34.0547    1.7052    9.2592 C   0  0  0  0  0  0  0  0  0  0  0  0
   34.5885    3.0363    9.3807 O   0  0  0  0  0  0  0  0  0  0  0  0
  1  2  1  1  0  0  0
  1  3  1  0  0  0  0
  1  4  2  0  0  0  0
  1 16  1  0  0  0  0
  5  6  1  6  0  0  0
  5  7  1  0  0  0  0
  5 14  1  0  0  0  0
  7  8  1  1  0  0  0
  7  9  1  0  0  0  0
  9 10  1  1  0  0  0
  9 11  1  0  0  0  0
 11 12  1  6  0  0  0
 11 13  1  0  0  0  0
 13 14  1  0  0  0  0
 13 15  1  1  0  0  0
 15 16  1  0  0  0  0
M  CHG  1   3  -1
M  END
>  <CHROM.1>
177.43121286,-171.92788277,178.90047056,34.61286485,1.17758178,10.01930861
-2.13495196,0.89540643,-3.09729402

>  <Name>
ligand

>  <RI>
0

>  <Rbt.Current_Directory>
/home/itssahil/PROJECTS/Mol_Feturizer/New_Systems/rnas/3B4C

>  <Rbt.Executable>
rbdock ($Id: //depot/dev/client3/rdock/2013.1/src/exe/rbdock.cxx#4 $)

>  <Rbt.Library>
libRbt.so (2013.1, Build901 2013/11/27)

>  <Rbt.Parameter_File>
/export/apps/rDock/src/rDock_2013.1_src/data/scripts/dock_solv.prm

>  <Rbt.Receptor>
prm/blind_docking_100.prm

>  <SCORE>
-12.4834

>  <SCORE.INTER>
-11.1795

>  <SCORE.INTER.CONST>
1

>  <SCORE.INTER.POLAR>
0

>  <SCORE.INTER.ROT>
3

>  <SCORE.INTER.SOLV>
14.8482

>  <SCORE.INTER.VDW>
-18.0024

>  <SCORE.INTER.norm>
-0.698717

>  <SCORE.INTRA>
-1.30396

>  <SCORE.INTRA.DIHEDRAL>
-1.78784

>  <SCORE.INTRA.DIHEDRAL.0>
2.1318

>  <SCORE.INTRA.POLAR>
0

>  <SCORE.INTRA.POLAR.0>
0

>  <SCORE.INTRA.REPUL>
0

>  <SCORE.INTRA.REPUL.0>
0

>  <SCORE.INTRA.SOLV>
-0.320361

>  <SCORE.INTRA.SOLV.lig_0>
-58.6125

>  <SCORE.INTRA.VDW>
-0.249858

>  <SCORE.INTRA.VDW.0>
-0.432734

>  <SCORE.INTRA.norm>
-0.0814974

>  <SCORE.RESTR>
0

>  <SCORE.RESTR.CAVITY>
0

>  <SCORE.RESTR.norm>
0

>  <SCORE.SYSTEM>
0

>  <SCORE.SYSTEM.CONST>
0

>  <SCORE.SYSTEM.DIHEDRAL>
0

>  <SCORE.SYSTEM.SOLV>
0

>  <SCORE.SYSTEM.norm>
0

>  <SCORE.heavy>
16

>  <SCORE.norm>
-0.780214

>  <RMSD>
18.884

$$$$
ligand
 OpenBabel11021811463D
libRbt.so/2013.1/901 2013/11/27
 16 16  0  0  0  0  0  0  0  0999 V2000
   33.5020    4.1234    8.8535 P   0  0  2  0  0  0  0  0  0  0  0  0
   34.0503    5.4934    9.0076 O   0  0  0  0  0  0  0  0  0  0  0  0
   33.2045    3.8356    7.2987 O   0  5  0  0  0  0  0  0  0  0  0  0
   32.1207    4.0151    9.6780 O   0  0  0  0  0  0  0  0  0  0  0  0
   36.0719    0.1463   12.0251 C   0  0  2  0  0  0  0  0  0  0  0  0
   37.3622    0.1745   11.4036 O   0  0  0  0  0  0  0  0  0  0  0  0
   35.4862   -1.2891   12.0061 C   0  0  2  0  0  0  0  0  0  0  0  0
   36.4015   -2.2106   12.7061 N   0  0  0  0  0  0  0  0  0  0  0  0
   35.3145   -1.7293   10.5425 C   0  0  1  0  0  0  0  0  0  0  0  0
   34.7581   -3.0455   10.4861 O   0  0  0  0  0  0  0  0  0  0  0  0
   34.3639   -0.7442    9.8645 C   0  0  2  0  0  0  0  0  0  0  0  0
   34.1929   -1.1320    8.5073 O   0  0  0  0  0  0  0  0  0  0  0  0
   34.9828    0.6783    9.9387 C   0  0  2  0  0  0  0  0  0  0  0  0
   35.1813    1.0731   11.3309 O   0  0  0  0  0  0  0  0  0  0  0  0
   34.0489    1.7163    9.2686 C   0  0  0  0  0  0  0  0  0  0  0  0
   34.5767    3.0475    9.4131 O   0  0  0  0  0  0  0  0  0  0  0  0
  1  2  1  1  0  0  0
  1  3  1  0  0  0  0
  1  4  2  0  0  0  0
  1 16  1  0  0  0  0
  5  6  1  6  0  0  0
  5  7  1  0  0  0  0
  5 14  1  0  0  0  0
  7  8  1  1  0  0  0
  7  9  1  0  0  0  0
  9 10  1  1  0  0  0
  9 11  1  0  0  0  0
 11 12  1  6  0  0  0
 11 13  1  0  0  0  0
 13 14  1  0  0  0  0
 13 15  1  1  0  0  0
 15 16  1  0  0  0  0
M  CHG  1   3  -1
M  END
>  <CHROM.1>
176.19767683,-173.62425971,179.88223172,34.61487720,1.18193917,10.01238112
-2.12594646,0.88276491,-3.10358106

>  <Name>
ligand

>  <RI>
0

>  <Rbt.Current_Directory>
/home/itssahil/PROJECTS/Mol_Feturizer/New_Systems/rnas/3B4C

>  <Rbt.Executable>
rbdock ($Id: //depot/dev/client3/rdock/2013.1/src/exe/rbdock.cxx#4 $)

>  <Rbt.Library>
libRbt.so (2013.1, Build901 2013/11/27)

>  <Rbt.Parameter_File>
/export/apps/rDock/src/rDock_2013.1_src/data/scripts/dock_solv.prm

>  <Rbt.Receptor>
prm/blind_docking_60.prm

>  <SCORE>
-12.5012

>  <SCORE.INTER>
-11.1549

>  <SCORE.INTER.CONST>
1

>  <SCORE.INTER.POLAR>
0

>  <SCORE.INTER.ROT>
3

>  <SCORE.INTER.SOLV>
14.805

>  <SCORE.INTER.VDW>
-17.9716

>  <SCORE.INTER.norm>
-0.697182

>  <SCORE.INTRA>
-1.34632

>  <SCORE.INTRA.DIHEDRAL>
-1.87969

>  <SCORE.INTRA.DIHEDRAL.0>
2.1318

>  <SCORE.INTRA.POLAR>
0

>  <SCORE.INTRA.POLAR.0>
0

>  <SCORE.INTRA.REPUL>
0

>  <SCORE.INTRA.REPUL.0>
0

>  <SCORE.INTRA.SOLV>
-0.328198

>  <SCORE.INTRA.SOLV.lig_0>
-58.6125

>  <SCORE.INTRA.VDW>
-0.242373

>  <SCORE.INTRA.VDW.0>
-0.432734

>  <SCORE.INTRA.norm>
-0.0841447

>  <SCORE.RESTR>
0

>  <SCORE.RESTR.CAVITY>
0

>  <SCORE.RESTR.norm>
0

>  <SCORE.SYSTEM>
0

>  <SCORE.SYSTEM.CONST>
0

>  <SCORE.SYSTEM.DIHEDRAL>
0

>  <SCORE.SYSTEM.SOLV>
0

>  <SCORE.SYSTEM.norm>
0

>  <SCORE.heavy>
16

>  <SCORE.norm>
-0.781327

>  <RMSD>
18.884

$$$$
ligand
 OpenBabel11021811463D
libRbt.so/2013.1/901 2013/11/27
 16 16  0  0  0  0  0  0  0  0999 V2000
   33.5093    4.1097    8.8492 P   0  0  2  0  0  0  0  0  0  0  0  0
   34.0739    5.4771    8.9628 O   0  0  0  0  0  0  0  0  0  0  0  0
   33.1526    3.8019    7.3107 O   0  5  0  0  0  0  0  0  0  0  0  0
   32.1583    4.0253    9.7251 O   0  0  0  0  0  0  0  0  0  0  0  0
   36.0606    0.1426   12.0336 C   0  0  2  0  0  0  0  0  0  0  0  0
   37.3571    0.1720   11.4253 O   0  0  0  0  0  0  0  0  0  0  0  0
   35.4779   -1.2941   12.0119 C   0  0  2  0  0  0  0  0  0  0  0  0
   36.3879   -2.2121   12.7233 N   0  0  0  0  0  0  0  0  0  0  0  0
   35.3222   -1.7379   10.5476 C   0  0  1  0  0  0  0  0  0  0  0  0
   34.7690   -3.0553   10.4885 O   0  0  0  0  0  0  0  0  0  0  0  0
   34.3765   -0.7563    9.8577 C   0  0  2  0  0  0  0  0  0  0  0  0
   34.2202   -1.1475    8.4996 O   0  0  0  0  0  0  0  0  0  0  0  0
   34.9918    0.6677    9.9350 C   0  0  2  0  0  0  0  0  0  0  0  0
   35.1752    1.0660   11.3282 O   0  0  0  0  0  0  0  0  0  0  0  0
   34.0627    1.7022    9.2530 C   0  0  0  0  0  0  0  0  0  0  0  0
   34.5951    3.0329    9.3850 O   0  0  0  0  0  0  0  0  0  0  0  0
  1  2  1  1  0  0  0
  1  3  1  0  0  0  0
  1  4  2  0  0  0  0
  1 16  1  0  0  0  0
  5  6  1  6  0  0  0
  5  7  1  0  0  0  0
  5 14  1  0  0  0  0
  7  8  1  1  0  0  0
  7  9  1  0  0  0  0
  9 10  1  1  0  0  0
  9 11  1  0  0  0  0
 11 12  1  6  0  0  0
 11 13  1  0  0  0  0
 13 14  1  0  0  0  0
 13 15  1  1  0  0  0
 15 16  1  0  0  0  0
M  CHG  1   3  -1
M  END
>  <CHROM.1>
176.93473650,-172.13485753,-178.88937559,34.61976223,1.17163883,10.01238738
-2.13133955,0.89230518,-3.09767838

>  <Name>
ligand

>  <RI>
0

>  <Rbt.Current_Directory>
/home/itssahil/PROJECTS/Mol_Feturizer/New_Systems/rnas/3B4C

>  <Rbt.Executable>
rbdock ($Id: //depot/dev/client3/rdock/2013.1/src/exe/rbdock.cxx#4 $)

>  <Rbt.Library>
libRbt.so (2013.1, Build901 2013/11/27)

>  <Rbt.Parameter_File>
/export/apps/rDock/src/rDock_2013.1_src/data/scripts/dock_solv.prm

>  <Rbt.Receptor>
prm/blind_docking_60.prm

>  <SCORE>
-12.5119

>  <SCORE.INTER>
-11.2103

>  <SCORE.INTER.CONST>
1

>  <SCORE.INTER.POLAR>
0

>  <SCORE.INTER.ROT>
3

>  <SCORE.INTER.SOLV>
14.7917

>  <SCORE.INTER.VDW>
-18.0041

>  <SCORE.INTER.norm>
-0.700643

>  <SCORE.INTRA>
-1.30167

>  <SCORE.INTRA.DIHEDRAL>
-1.79305

>  <SCORE.INTRA.DIHEDRAL.0>
2.1318

>  <SCORE.INTRA.POLAR>
0

>  <SCORE.INTRA.POLAR.0>
0

>  <SCORE.INTRA.REPUL>
0

>  <SCORE.INTRA.REPUL.0>
0

>  <SCORE.INTRA.SOLV>
-0.319352

>  <SCORE.INTRA.SOLV.lig_0>
-58.6125

>  <SCORE.INTRA.VDW>
-0.24547

>  <SCORE.INTRA.VDW.0>
-0.432734

>  <SCORE.INTRA.norm>
-0.0813543

>  <SCORE.RESTR>
0

>  <SCORE.RESTR.CAVITY>
0

>  <SCORE.RESTR.norm>
0

>  <SCORE.SYSTEM>
0

>  <SCORE.SYSTEM.CONST>
0

>  <SCORE.SYSTEM.DIHEDRAL>
0

>  <SCORE.SYSTEM.SOLV>
0

>  <SCORE.SYSTEM.norm>
0

>  <SCORE.heavy>
16

>  <SCORE.norm>
-0.781997

>  <RMSD>
18.885

$$$$
ligand
 OpenBabel11021811463D
libRbt.so/2013.1/901 2013/11/27
 16 16  0  0  0  0  0  0  0  0999 V2000
   33.5137    4.1062    8.8455 P   0  0  2  0  0  0  0  0  0  0  0  0
   34.0795    5.4727    8.9631 O   0  0  0  0  0  0  0  0  0  0  0  0
   33.1603    3.8017    7.3056 O   0  5  0  0  0  0  0  0  0  0  0  0
   32.1605    4.0216    9.7181 O   0  0  0  0  0  0  0  0  0  0  0  0
   36.0534    0.1384   12.0399 C   0  0  2  0  0  0  0  0  0  0  0  0
   37.3500    0.1644   11.4317 O   0  0  0  0  0  0  0  0  0  0  0  0
   35.4679   -1.2971   12.0203 C   0  0  2  0  0  0  0  0  0  0  0  0
   36.3759   -2.2160   12.7330 N   0  0  0  0  0  0  0  0  0  0  0  0
   35.3113   -1.7427   10.5566 C   0  0  1  0  0  0  0  0  0  0  0  0
   34.7554   -3.0591   10.4993 O   0  0  0  0  0  0  0  0  0  0  0  0
   34.3677   -0.7601    9.8652 C   0  0  2  0  0  0  0  0  0  0  0  0
   34.2107   -1.1530    8.5077 O   0  0  0  0  0  0  0  0  0  0  0  0
   34.9858    0.6627    9.9405 C   0  0  2  0  0  0  0  0  0  0  0  0
   35.1699    1.0626   11.3332 O   0  0  0  0  0  0  0  0  0  0  0  0
   34.0589    1.6982    9.2570 C   0  0  0  0  0  0  0  0  0  0  0  0
   34.5971    3.0272    9.3818 O   0  0  0  0  0  0  0  0  0  0  0  0
  1  2  1  1  0  0  0
  1  3  1  0  0  0  0
  1  4  2  0  0  0  0
  1 16  1  0  0  0  0
  5  6  1  6  0  0  0
  5  7  1  0  0  0  0
  5 14  1  0  0  0  0
  7  8  1  1  0  0  0
  7  9  1  0  0  0  0
  9 10  1  1  0  0  0
  9 11  1  0  0  0  0
 11 12  1  6  0  0  0
 11 13  1  0  0  0  0
 13 14  1  0  0  0  0
 13 15  1  1  0  0  0
 15 16  1  0  0  0  0
M  CHG  1   3  -1
M  END
>  <CHROM.1>
177.19984365,-172.10400313,-179.39738990,34.61606784,1.16752515,10.01556277
-2.12730171,0.89272494,-3.10291955

>  <Name>
ligand

>  <RI>
0

>  <Rbt.Current_Directory>
/home/itssahil/PROJECTS/Mol_Feturizer/New_Systems/rnas/3B4C

>  <Rbt.Executable>
rbdock ($Id: //depot/dev/client3/rdock/2013.1/src/exe/rbdock.cxx#4 $)

>  <Rbt.Library>
libRbt.so (2013.1, Build901 2013/11/27)

>  <Rbt.Parameter_File>
/export/apps/rDock/src/rDock_2013.1_src/data/scripts/dock_solv.prm

>  <Rbt.Receptor>
prm/blind_docking_60.prm

>  <SCORE>
-12.5086

>  <SCORE.INTER>
-11.2022

>  <SCORE.INTER.CONST>
1

>  <SCORE.INTER.POLAR>
0

>  <SCORE.INTER.ROT>
3

>  <SCORE.INTER.SOLV>
14.8399

>  <SCORE.INTER.VDW>
-18.0148

>  <SCORE.INTER.norm>
-0.700138

>  <SCORE.INTRA>
-1.3064

>  <SCORE.INTRA.DIHEDRAL>
-1.79781

>  <SCORE.INTRA.DIHEDRAL.0>
2.1318

>  <SCORE.INTRA.POLAR>
0

>  <SCORE.INTRA.POLAR.0>
0

>  <SCORE.INTRA.REPUL>
0

>  <SCORE.INTRA.REPUL.0>
0

>  <SCORE.INTRA.SOLV>
-0.320106

>  <SCORE.INTRA.SOLV.lig_0>
-58.6125

>  <SCORE.INTRA.VDW>
-0.247442

>  <SCORE.INTRA.VDW.0>
-0.432734

>  <SCORE.INTRA.norm>
-0.0816499

>  <SCORE.RESTR>
0

>  <SCORE.RESTR.CAVITY>
0

>  <SCORE.RESTR.norm>
0

>  <SCORE.SYSTEM>
0

>  <SCORE.SYSTEM.CONST>
0

>  <SCORE.SYSTEM.DIHEDRAL>
0

>  <SCORE.SYSTEM.SOLV>
0

>  <SCORE.SYSTEM.norm>
0

>  <SCORE.heavy>
16

>  <SCORE.norm>
-0.781788

>  <RMSD>
18.889

$$$$
ligand
 OpenBabel11021811463D
libRbt.so/2013.1/901 2013/11/27
 16 16  0  0  0  0  0  0  0  0999 V2000
   33.5143    4.1081    8.8471 P   0  0  2  0  0  0  0  0  0  0  0  0
   34.0831    5.4737    8.9612 O   0  0  0  0  0  0  0  0  0  0  0  0
   33.1574    3.8017    7.3084 O   0  5  0  0  0  0  0  0  0  0  0  0
   32.1627    4.0277    9.7224 O   0  0  0  0  0  0  0  0  0  0  0  0
   36.0662    0.1361   12.0279 C   0  0  2  0  0  0  0  0  0  0  0  0
   37.3589    0.1585   11.4112 O   0  0  0  0  0  0  0  0  0  0  0  0
   35.4770   -1.2980   12.0127 C   0  0  2  0  0  0  0  0  0  0  0  0
   36.3874   -2.2188   12.7200 N   0  0  0  0  0  0  0  0  0  0  0  0
   35.3099   -1.7439   10.5503 C   0  0  1  0  0  0  0  0  0  0  0  0
   34.7504   -3.0590   10.4973 O   0  0  0  0  0  0  0  0  0  0  0  0
   34.3642   -0.7594    9.8646 C   0  0  2  0  0  0  0  0  0  0  0  0
   34.1974   -1.1525    8.5083 O   0  0  0  0  0  0  0  0  0  0  0  0
   34.9862    0.6619    9.9352 C   0  0  2  0  0  0  0  0  0  0  0  0
   35.1804    1.0621   11.3264 O   0  0  0  0  0  0  0  0  0  0  0  0
   34.0575    1.6993    9.2572 C   0  0  0  0  0  0  0  0  0  0  0  0
   34.5966    3.0278    9.3831 O   0  0  0  0  0  0  0  0  0  0  0  0
  1  2  1  1  0  0  0
  1  3  1  0  0  0  0
  1  4  2  0  0  0  0
  1 16  1  0  0  0  0
  5  6  1  6  0  0  0
  5  7  1  0  0  0  0
  5 14  1  0  0  0  0
  7  8  1  1  0  0  0
  7  9  1  0  0  0  0
  9 10  1  1  0  0  0
  9 11  1  0  0  0  0
 11 12  1  6  0  0  0
 11 13  1  0  0  0  0
 13 14  1  0  0  0  0
 13 15  1  1  0  0  0
 15 16  1  0  0  0  0
M  CHG  1   3  -1
M  END
>  <CHROM.1>
176.93874049,-172.34425900,-179.19366030,34.61783089,1.16754969,10.01200230
-2.12331465,0.88626243,-3.10671135

>  <Name>
ligand

>  <RI>
0

>  <Rbt.Current_Directory>
/home/itssahil/PROJECTS/Mol_Feturizer/New_Systems/rnas/3B4C

>  <Rbt.Executable>
rbdock ($Id: //depot/dev/client3/rdock/2013.1/src/exe/rbdock.cxx#4 $)

>  <Rbt.Library>
libRbt.so (2013.1, Build901 2013/11/27)

>  <Rbt.Parameter_File>
/export/apps/rDock/src/rDock_2013.1_src/data/scripts/dock_solv.prm

>  <Rbt.Receptor>
prm/blind_docking_80.prm

>  <SCORE>
-12.5145

>  <SCORE.INTER>
-11.2033

>  <SCORE.INTER.CONST>
1

>  <SCORE.INTER.POLAR>
0

>  <SCORE.INTER.ROT>
3

>  <SCORE.INTER.SOLV>
14.8198

>  <SCORE.INTER.VDW>
-18.0088

>  <SCORE.INTER.norm>
-0.700207

>  <SCORE.INTRA>
-1.31117

>  <SCORE.INTRA.DIHEDRAL>
-1.80978

>  <SCORE.INTRA.DIHEDRAL.0>
2.1318

>  <SCORE.INTRA.POLAR>
0

>  <SCORE.INTRA.POLAR.0>
0

>  <SCORE.INTRA.REPUL>
0

>  <SCORE.INTRA.REPUL.0>
0

>  <SCORE.INTRA.SOLV>
-0.321029

>  <SCORE.INTRA.SOLV.lig_0>
-58.6125

>  <SCORE.INTRA.VDW>
-0.245764

>  <SCORE.INTRA.VDW.0>
-0.432734

>  <SCORE.INTRA.norm>
-0.0819481

>  <SCORE.RESTR>
0

>  <SCORE.RESTR.CAVITY>
0

>  <SCORE.RESTR.norm>
0

>  <SCORE.SYSTEM>
0

>  <SCORE.SYSTEM.CONST>
0

>  <SCORE.SYSTEM.DIHEDRAL>
0

>  <SCORE.SYSTEM.SOLV>
0

>  <SCORE.SYSTEM.norm>
0

>  <SCORE.heavy>
16

>  <SCORE.norm>
-0.782155

>  <RMSD>
18.889

$$$$
ligand
 OpenBabel11021811463D
libRbt.so/2013.1/901 2013/11/27
 16 16  0  0  0  0  0  0  0  0999 V2000
   32.8894    3.6668    9.5552 P   0  0  2  0  0  0  0  0  0  0  0  0
   33.8350    4.8076    9.4809 O   0  0  0  0  0  0  0  0  0  0  0  0
   32.4518    3.2339    8.0686 O   0  5  0  0  0  0  0  0  0  0  0  0
   31.5774    4.1249   10.3728 O   0  0  0  0  0  0  0  0  0  0  0  0
   36.4032    0.0007   12.2599 C   0  0  2  0  0  0  0  0  0  0  0  0
   37.6504   -0.2773   11.6126 O   0  0  0  0  0  0  0  0  0  0  0  0
   35.4975   -1.2577   12.2673 C   0  0  2  0  0  0  0  0  0  0  0  0
   36.1868   -2.3642   12.9582 N   0  0  0  0  0  0  0  0  0  0  0  0
   35.1958   -1.6532   10.8119 C   0  0  1  0  0  0  0  0  0  0  0  0
   34.3457   -2.8027   10.7801 O   0  0  0  0  0  0  0  0  0  0  0  0
   34.4875   -0.4764   10.1430 C   0  0  2  0  0  0  0  0  0  0  0  0
   34.2010   -0.8206    8.7935 O   0  0  0  0  0  0  0  0  0  0  0  0
   35.4236    0.7620   10.1903 C   0  0  2  0  0  0  0  0  0  0  0  0
   35.7392    1.1066   11.5741 O   0  0  0  0  0  0  0  0  0  0  0  0
   34.7442    1.9862    9.5284 C   0  0  0  0  0  0  0  0  0  0  0  0
   33.6083    2.4194   10.2988 O   0  0  0  0  0  0  0  0  0  0  0  0
  1  2  1  6  0  0  0
  1  3  1  0  0  0  0
  1  4  2  0  0  0  0
  1 16  1  0  0  0  0
  5  6  1  6  0  0  0
  5  7  1  0  0  0  0
  5 14  1  0  0  0  0
  7  8  1  6  0  0  0
  7  9  1  0  0  0  0
  9 10  1  1  0  0  0
  9 11  1  0  0  0  0
 11 12  1  6  0  0  0
 11 13  1  0  0  0  0
 13 14  1  0  0  0  0
 13 15  1  1  0  0  0
 15 16  1  0  0  0  0
M  CHG  1   3  -1
M  END
>  <CHROM.1>
66.78401102,-178.03974815,-62.51114582,34.47776227,1.04250795,10.43869300
-2.22738033,0.69848474,-3.07510374

>  <Name>
ligand

>  <RI>
0

>  <Rbt.Current_Directory>
/home/itssahil/PROJECTS/Mol_Feturizer/New_Systems/rnas/3B4C

>  <Rbt.Executable>
rbdock ($Id: //depot/dev/client3/rdock/2013.1/src/exe/rbdock.cxx#4 $)

>  <Rbt.Library>
libRbt.so (2013.1, Build901 2013/11/27)

>  <Rbt.Parameter_File>
/export/apps/rDock/src/rDock_2013.1_src/data/scripts/dock_solv.prm

>  <Rbt.Receptor>
prm/blind_docking_80.prm

>  <SCORE>
-13.5106

>  <SCORE.INTER>
-11.8775

>  <SCORE.INTER.CONST>
1

>  <SCORE.INTER.POLAR>
0

>  <SCORE.INTER.ROT>
3

>  <SCORE.INTER.SOLV>
17.8265

>  <SCORE.INTER.VDW>
-19.4605

>  <SCORE.INTER.norm>
-0.742341

>  <SCORE.INTRA>
-1.63316

>  <SCORE.INTRA.DIHEDRAL>
-1.93384

>  <SCORE.INTRA.DIHEDRAL.0>
2.1318

>  <SCORE.INTRA.POLAR>
0

>  <SCORE.INTRA.POLAR.0>
0

>  <SCORE.INTRA.REPUL>
0

>  <SCORE.INTRA.REPUL.0>
0

>  <SCORE.INTRA.SOLV>
-0.783035

>  <SCORE.INTRA.SOLV.lig_0>
-58.6125

>  <SCORE.INTRA.VDW>
-0.274721

>  <SCORE.INTRA.VDW.0>
-0.432734

>  <SCORE.INTRA.norm>
-0.102073

>  <SCORE.RESTR>
0

>  <SCORE.RESTR.CAVITY>
0

>  <SCORE.RESTR.norm>
0

>  <SCORE.SYSTEM>
0

>  <SCORE.SYSTEM.CONST>
0

>  <SCORE.SYSTEM.DIHEDRAL>
0

>  <SCORE.SYSTEM.SOLV>
0

>  <SCORE.SYSTEM.norm>
0

>  <SCORE.heavy>
16

>  <SCORE.norm>
-0.844414

>  <RMSD>
18.915

$$$$
ligand
 OpenBabel11021811463D
libRbt.so/2013.1/901 2013/11/27
 16 16  0  0  0  0  0  0  0  0999 V2000
   32.9159    3.6240    9.3436 P   0  0  2  0  0  0  0  0  0  0  0  0
   33.9026    4.7199    9.1805 O   0  0  0  0  0  0  0  0  0  0  0  0
   32.4677    3.0846    7.8954 O   0  5  0  0  0  0  0  0  0  0  0  0
   31.6188    4.1956   10.1120 O   0  0  0  0  0  0  0  0  0  0  0  0
   36.2007    0.0478   12.4519 C   0  0  2  0  0  0  0  0  0  0  0  0
   37.5034   -0.2353   11.9280 O   0  0  0  0  0  0  0  0  0  0  0  0
   35.3006   -1.2133   12.3925 C   0  0  2  0  0  0  0  0  0  0  0  0
   35.9243   -2.3079   13.1604 N   0  0  0  0  0  0  0  0  0  0  0  0
   35.1369   -1.6299   10.9211 C   0  0  1  0  0  0  0  0  0  0  0  0
   34.2956   -2.7825   10.8263 O   0  0  0  0  0  0  0  0  0  0  0  0
   34.4921   -0.4649   10.1723 C   0  0  2  0  0  0  0  0  0  0  0  0
   34.3336   -0.8287    8.8069 O   0  0  0  0  0  0  0  0  0  0  0  0
   35.4174    0.7770   10.2893 C   0  0  2  0  0  0  0  0  0  0  0  0
   35.6017    1.1419   11.6915 O   0  0  0  0  0  0  0  0  0  0  0  0
   34.8007    1.9898    9.5495 C   0  0  0  0  0  0  0  0  0  0  0  0
   33.5865    2.4180   10.1930 O   0  0  0  0  0  0  0  0  0  0  0  0
  1  2  1  6  0  0  0
  1  3  1  0  0  0  0
  1  4  2  0  0  0  0
  1 16  1  0  0  0  0
  5  6  1  6  0  0  0
  5  7  1  0  0  0  0
  5 14  1  0  0  0  0
  7  8  1  1  0  0  0
  7  9  1  0  0  0  0
  9 10  1  1  0  0  0
  9 11  1  0  0  0  0
 11 12  1  6  0  0  0
 11 13  1  0  0  0  0
 13 14  1  0  0  0  0
 13 15  1  6  0  0  0
 15 16  1  0  0  0  0
M  CHG  1   3  -1
M  END
>  <CHROM.1>
65.95033992,-176.38814935,-55.58421618,34.43953638,1.04291022,10.43166931
-2.24719937,0.78714702,-3.08596599

>  <Name>
ligand

>  <RI>
0

>  <Rbt.Current_Directory>
/home/itssahil/PROJECTS/Mol_Feturizer/New_Systems/rnas/3B4C

>  <Rbt.Executable>
rbdock ($Id: //depot/dev/client3/rdock/2013.1/src/exe/rbdock.cxx#4 $)

>  <Rbt.Library>
libRbt.so (2013.1, Build901 2013/11/27)

>  <Rbt.Parameter_File>
/export/apps/rDock/src/rDock_2013.1_src/data/scripts/dock_solv.prm

>  <Rbt.Receptor>
prm/blind_docking_60.prm

>  <SCORE>
-13.566

>  <SCORE.INTER>
-11.9658

>  <SCORE.INTER.CONST>
1

>  <SCORE.INTER.POLAR>
0

>  <SCORE.INTER.ROT>
3

>  <SCORE.INTER.SOLV>
17.9225

>  <SCORE.INTER.VDW>
-19.5514

>  <SCORE.INTER.norm>
-0.747863

>  <SCORE.INTRA>
-1.60021

>  <SCORE.INTRA.DIHEDRAL>
-1.90294

>  <SCORE.INTRA.DIHEDRAL.0>
2.1318

>  <SCORE.INTRA.POLAR>
0

>  <SCORE.INTRA.POLAR.0>
0

>  <SCORE.INTRA.REPUL>
0

>  <SCORE.INTRA.REPUL.0>
0

>  <SCORE.INTRA.SOLV>
-0.830694

>  <SCORE.INTRA.SOLV.lig_0>
-58.6125

>  <SCORE.INTRA.VDW>
-0.233396

>  <SCORE.INTRA.VDW.0>
-0.432734

>  <SCORE.INTRA.norm>
-0.100013

>  <SCORE.RESTR>
0

>  <SCORE.RESTR.CAVITY>
0

>  <SCORE.RESTR.norm>
0

>  <SCORE.SYSTEM>
0

>  <SCORE.SYSTEM.CONST>
0

>  <SCORE.SYSTEM.DIHEDRAL>
0

>  <SCORE.SYSTEM.SOLV>
0

>  <SCORE.SYSTEM.norm>
0

>  <SCORE.heavy>
16

>  <SCORE.norm>
-0.847876

>  <RMSD>
18.927

$$$$
ligand
 OpenBabel11021811463D
libRbt.so/2013.1/901 2013/11/27
 16 16  0  0  0  0  0  0  0  0999 V2000
   33.2488    4.0643    9.0033 P   0  0  2  0  0  0  0  0  0  0  0  0
   31.9320    3.6913    9.5762 O   0  0  0  0  0  0  0  0  0  0  0  0
   33.6182    5.5682    9.4399 O   0  5  0  0  0  0  0  0  0  0  0  0
   33.1601    3.9946    7.3949 O   0  0  0  0  0  0  0  0  0  0  0  0
   36.0014    0.1841   12.0450 C   0  0  2  0  0  0  0  0  0  0  0  0
   37.3052    0.2431   11.4547 O   0  0  0  0  0  0  0  0  0  0  0  0
   35.4535   -1.2661   12.0190 C   0  0  2  0  0  0  0  0  0  0  0  0
   36.3751   -2.1606   12.7452 N   0  0  0  0  0  0  0  0  0  0  0  0
   35.3288   -1.7167   10.5538 C   0  0  1  0  0  0  0  0  0  0  0  0
   34.8080   -3.0471   10.4904 O   0  0  0  0  0  0  0  0  0  0  0  0
   34.3696   -0.7595    9.8484 C   0  0  2  0  0  0  0  0  0  0  0  0
   34.2415   -1.1574    8.4893 O   0  0  0  0  0  0  0  0  0  0  0  0
   34.9496    0.6789    9.9306 C   0  0  2  0  0  0  0  0  0  0  0  0
   35.1041    1.0846   11.3252 O   0  0  0  0  0  0  0  0  0  0  0  0
   34.0057    1.6895    9.2331 C   0  0  0  0  0  0  0  0  0  0  0  0
   34.3819    3.0424    9.5488 O   0  0  0  0  0  0  0  0  0  0  0  0
  1  2  1  1  0  0  0
  1  3  1  0  0  0  0
  1  4  2  0  0  0  0
  1 16  1  0  0  0  0
  5  6  1  6  0  0  0
  5  7  1  0  0  0  0
  5 14  1  0  0  0  0
  7  8  1  1  0  0  0
  7  9  1  0  0  0  0
  9 10  1  1  0  0  0
  9 11  1  0  0  0  0
 11 12  1  6  0  0  0
 11 13  1  0  0  0  0
 13 14  1  0  0  0  0
 13 15  1  6  0  0  0
 15 16  1  0  0  0  0
M  CHG  1   3  -1
M  END
>  <CHROM.1>
167.65629806,-171.13073351,56.11874271,34.51705650,1.17631101,10.06971512
-2.19803366,0.89416037,-3.01773274

>  <Name>
ligand

>  <RI>
0

>  <Rbt.Current_Directory>
/home/itssahil/PROJECTS/Mol_Feturizer/New_Systems/rnas/3B4C

>  <Rbt.Executable>
rbdock ($Id: //depot/dev/client3/rdock/2013.1/src/exe/rbdock.cxx#4 $)

>  <Rbt.Library>
libRbt.so (2013.1, Build901 2013/11/27)

>  <Rbt.Parameter_File>
/export/apps/rDock/src/rDock_2013.1_src/data/scripts/dock_solv.prm

>  <Rbt.Receptor>
prm/blind_docking_80.prm

>  <SCORE>
-12.1846

>  <SCORE.INTER>
-11.0163

>  <SCORE.INTER.CONST>
1

>  <SCORE.INTER.POLAR>
0

>  <SCORE.INTER.ROT>
3

>  <SCORE.INTER.SOLV>
15.3409

>  <SCORE.INTER.VDW>
-18.0578

>  <SCORE.INTER.norm>
-0.688516

>  <SCORE.INTRA>
-1.1683

>  <SCORE.INTRA.DIHEDRAL>
-1.1963

>  <SCORE.INTRA.DIHEDRAL.0>
2.1318

>  <SCORE.INTRA.POLAR>
0

>  <SCORE.INTRA.POLAR.0>
0

>  <SCORE.INTRA.REPUL>
0

>  <SCORE.INTRA.REPUL.0>
0

>  <SCORE.INTRA.SOLV>
-1.00845

>  <SCORE.INTRA.SOLV.lig_0>
-58.6125

>  <SCORE.INTRA.VDW>
-0.0659254

>  <SCORE.INTRA.VDW.0>
-0.432734

>  <SCORE.INTRA.norm>
-0.0730187

>  <SCORE.RESTR>
0

>  <SCORE.RESTR.CAVITY>
0

>  <SCORE.RESTR.norm>
0

>  <SCORE.SYSTEM>
0

>  <SCORE.SYSTEM.CONST>
0

>  <SCORE.SYSTEM.DIHEDRAL>
0

>  <SCORE.SYSTEM.SOLV>
0

>  <SCORE.SYSTEM.norm>
0

>  <SCORE.heavy>
16

>  <SCORE.norm>
-0.761535

>  <RMSD>
18.929

$$$$
ligand
 OpenBabel11021811463D
libRbt.so/2013.1/901 2013/11/27
 16 16  0  0  0  0  0  0  0  0999 V2000
   33.2603    4.0543    8.9874 P   0  0  2  0  0  0  0  0  0  0  0  0
   31.9442    3.6907    9.5681 O   0  0  0  0  0  0  0  0  0  0  0  0
   33.6394    5.5582    9.4155 O   0  5  0  0  0  0  0  0  0  0  0  0
   33.1637    3.9778    7.3798 O   0  0  0  0  0  0  0  0  0  0  0  0
   36.0058    0.1749   12.0457 C   0  0  2  0  0  0  0  0  0  0  0  0
   37.3066    0.2307   11.4484 O   0  0  0  0  0  0  0  0  0  0  0  0
   35.4560   -1.2747   12.0262 C   0  0  2  0  0  0  0  0  0  0  0  0
   36.3802   -2.1685   12.7499 N   0  0  0  0  0  0  0  0  0  0  0  0
   35.3229   -1.7289   10.5629 C   0  0  1  0  0  0  0  0  0  0  0  0
   34.8001   -3.0588   10.5057 O   0  0  0  0  0  0  0  0  0  0  0  0
   34.3614   -0.7723    9.8600 C   0  0  2  0  0  0  0  0  0  0  0  0
   34.2257   -1.1734    8.5026 O   0  0  0  0  0  0  0  0  0  0  0  0
   34.9437    0.6656    9.9354 C   0  0  2  0  0  0  0  0  0  0  0  0
   35.1060    1.0746   11.3282 O   0  0  0  0  0  0  0  0  0  0  0  0
   33.9975    1.6756    9.2403 C   0  0  0  0  0  0  0  0  0  0  0  0
   34.3906    3.0290    9.5324 O   0  0  0  0  0  0  0  0  0  0  0  0
  1  2  1  1  0  0  0
  1  3  1  0  0  0  0
  1  4  2  0  0  0  0
  1 16  1  0  0  0  0
  5  6  1  6  0  0  0
  5  7  1  0  0  0  0
  5 14  1  0  0  0  0
  7  8  1  1  0  0  0
  7  9  1  0  0  0  0
  9 10  1  1  0  0  0
  9 11  1  0  0  0  0
 11 12  1  6  0  0  0
 11 13  1  0  0  0  0
 13 14  1  0  0  0  0
 13 15  1  6  0  0  0
 15 16  1  0  0  0  0
M  CHG  1   3  -1
M  END
>  <CHROM.1>
168.61976804,-171.32872316,55.36377168,34.51921076,1.16520483,10.06769683
-2.19071202,0.89093969,-3.02900608

>  <Name>
ligand

>  <RI>
0

>  <Rbt.Current_Directory>
/home/itssahil/PROJECTS/Mol_Feturizer/New_Systems/rnas/3B4C

>  <Rbt.Executable>
rbdock ($Id: //depot/dev/client3/rdock/2013.1/src/exe/rbdock.cxx#4 $)

>  <Rbt.Library>
libRbt.so (2013.1, Build901 2013/11/27)

>  <Rbt.Parameter_File>
/export/apps/rDock/src/rDock_2013.1_src/data/scripts/dock_solv.prm

>  <Rbt.Receptor>
prm/blind_docking_60.prm

>  <SCORE>
-12.191

>  <SCORE.INTER>
-10.9796

>  <SCORE.INTER.CONST>
1

>  <SCORE.INTER.POLAR>
0

>  <SCORE.INTER.ROT>
3

>  <SCORE.INTER.SOLV>
15.3776

>  <SCORE.INTER.VDW>
-18.0456

>  <SCORE.INTER.norm>
-0.686222

>  <SCORE.INTRA>
-1.21146

>  <SCORE.INTRA.DIHEDRAL>
-1.27973

>  <SCORE.INTRA.DIHEDRAL.0>
2.1318

>  <SCORE.INTRA.POLAR>
0

>  <SCORE.INTRA.POLAR.0>
0

>  <SCORE.INTRA.REPUL>
0

>  <SCORE.INTRA.REPUL.0>
0

>  <SCORE.INTRA.SOLV>
-1.01871

>  <SCORE.INTRA.SOLV.lig_0>
-58.6125

>  <SCORE.INTRA.VDW>
-0.0622377

>  <SCORE.INTRA.VDW.0>
-0.432734

>  <SCORE.INTRA.norm>
-0.075716

>  <SCORE.RESTR>
0

>  <SCORE.RESTR.CAVITY>
0

>  <SCORE.RESTR.norm>
0

>  <SCORE.SYSTEM>
0

>  <SCORE.SYSTEM.CONST>
0

>  <SCORE.SYSTEM.DIHEDRAL>
0

>  <SCORE.SYSTEM.SOLV>
0

>  <SCORE.SYSTEM.norm>
0

>  <SCORE.heavy>
16

>  <SCORE.norm>
-0.761938

>  <RMSD>
18.934

$$$$
ligand
 OpenBabel11021811463D
libRbt.so/2013.1/901 2013/11/27
 16 16  0  0  0  0  0  0  0  0999 V2000
   33.2662    4.0440    9.0095 P   0  0  2  0  0  0  0  0  0  0  0  0
   31.9512    3.6899    9.5983 O   0  0  0  0  0  0  0  0  0  0  0  0
   33.6569    5.5466    9.4318 O   0  5  0  0  0  0  0  0  0  0  0  0
   33.1602    3.9642    7.4026 O   0  0  0  0  0  0  0  0  0  0  0  0
   36.0556    0.1446   12.0198 C   0  0  2  0  0  0  0  0  0  0  0  0
   37.3437    0.2039   11.3960 O   0  0  0  0  0  0  0  0  0  0  0  0
   35.5054   -1.3049   12.0034 C   0  0  2  0  0  0  0  0  0  0  0  0
   36.4444   -2.2028   12.7026 N   0  0  0  0  0  0  0  0  0  0  0  0
   35.3420   -1.7507   10.5406 C   0  0  1  0  0  0  0  0  0  0  0  0
   34.8180   -3.0802   10.4865 O   0  0  0  0  0  0  0  0  0  0  0  0
   34.3660   -0.7900    9.8634 C   0  0  2  0  0  0  0  0  0  0  0  0
   34.2021   -1.1833    8.5068 O   0  0  0  0  0  0  0  0  0  0  0  0
   34.9498    0.6474    9.9350 C   0  0  2  0  0  0  0  0  0  0  0  0
   35.1411    1.0484   11.3264 O   0  0  0  0  0  0  0  0  0  0  0  0
   33.9894    1.6614    9.2656 C   0  0  0  0  0  0  0  0  0  0  0  0
   34.3933    3.0131    9.5506 O   0  0  0  0  0  0  0  0  0  0  0  0
  1  2  1  1  0  0  0
  1  3  1  0  0  0  0
  1  4  2  0  0  0  0
  1 16  1  0  0  0  0
  5  6  1  6  0  0  0
  5  7  1  0  0  0  0
  5 14  1  0  0  0  0
  7  8  1  1  0  0  0
  7  9  1  0  0  0  0
  9 10  1  1  0  0  0
  9 11  1  0  0  0  0
 11 12  1  6  0  0  0
 11 13  1  0  0  0  0
 13 14  1  0  0  0  0
 13 15  1  1  0  0  0
 15 16  1  0  0  0  0
M  CHG  1   3  -1
M  END
>  <CHROM.1>
168.96678876,-172.44586868,55.28629831,34.53545194,1.14711589,10.06682674
-2.18278014,0.87265457,-3.03410728

>  <Name>
ligand

>  <RI>
0

>  <Rbt.Current_Directory>
/home/itssahil/PROJECTS/Mol_Feturizer/New_Systems/rnas/3B4C

>  <Rbt.Executable>
rbdock ($Id: //depot/dev/client3/rdock/2013.1/src/exe/rbdock.cxx#4 $)

>  <Rbt.Library>
libRbt.so (2013.1, Build901 2013/11/27)

>  <Rbt.Parameter_File>
/export/apps/rDock/src/rDock_2013.1_src/data/scripts/dock_solv.prm

>  <Rbt.Receptor>
prm/blind_docking_80.prm

>  <SCORE>
-12.1561

>  <SCORE.INTER>
-10.8876

>  <SCORE.INTER.CONST>
1

>  <SCORE.INTER.POLAR>
0

>  <SCORE.INTER.ROT>
3

>  <SCORE.INTER.SOLV>
15.276

>  <SCORE.INTER.VDW>
-17.9504

>  <SCORE.INTER.norm>
-0.680477

>  <SCORE.INTRA>
-1.26842

>  <SCORE.INTRA.DIHEDRAL>
-1.39178

>  <SCORE.INTRA.DIHEDRAL.0>
2.1318

>  <SCORE.INTRA.POLAR>
0

>  <SCORE.INTRA.POLAR.0>
0

>  <SCORE.INTRA.REPUL>
0

>  <SCORE.INTRA.REPUL.0>
0

>  <SCORE.INTRA.SOLV>
-1.02289

>  <SCORE.INTRA.SOLV.lig_0>
-58.6125

>  <SCORE.INTRA.VDW>
-0.0610803

>  <SCORE.INTRA.VDW.0>
-0.432734

>  <SCORE.INTRA.norm>
-0.079276

>  <SCORE.RESTR>
0

>  <SCORE.RESTR.CAVITY>
0

>  <SCORE.RESTR.norm>
0

>  <SCORE.SYSTEM>
0

>  <SCORE.SYSTEM.CONST>
0

>  <SCORE.SYSTEM.DIHEDRAL>
0

>  <SCORE.SYSTEM.SOLV>
0

>  <SCORE.SYSTEM.norm>
0

>  <SCORE.heavy>
16

>  <SCORE.norm>
-0.759753

>  <RMSD>
18.935

$$$$
ligand
 OpenBabel11021811463D
libRbt.so/2013.1/901 2013/11/27
 16 16  0  0  0  0  0  0  0  0999 V2000
   32.8481    3.6300    9.4592 P   0  0  2  0  0  0  0  0  0  0  0  0
   33.7852    4.7781    9.3881 O   0  0  0  0  0  0  0  0  0  0  0  0
   32.4512    3.1675    7.9701 O   0  5  0  0  0  0  0  0  0  0  0  0
   31.5124    4.0901   10.2362 O   0  0  0  0  0  0  0  0  0  0  0  0
   36.3131    0.0042   12.2966 C   0  0  2  0  0  0  0  0  0  0  0  0
   37.5742   -0.2820   11.6806 O   0  0  0  0  0  0  0  0  0  0  0  0
   35.4041   -1.2519   12.2926 C   0  0  2  0  0  0  0  0  0  0  0  0
   36.0741   -2.3548   13.0078 N   0  0  0  0  0  0  0  0  0  0  0  0
   35.1351   -1.6577   10.8337 C   0  0  1  0  0  0  0  0  0  0  0  0
   34.2828   -2.8053   10.7909 O   0  0  0  0  0  0  0  0  0  0  0  0
   34.4457   -0.4843   10.1396 C   0  0  2  0  0  0  0  0  0  0  0  0
   34.1896   -0.8381    8.7864 O   0  0  0  0  0  0  0  0  0  0  0  0
   35.3839    0.7520   10.1992 C   0  0  2  0  0  0  0  0  0  0  0  0
   35.6683    1.1065   11.5873 O   0  0  0  0  0  0  0  0  0  0  0  0
   34.7233    1.9729    9.5123 C   0  0  0  0  0  0  0  0  0  0  0  0
   33.5594    2.4024   10.2419 O   0  0  0  0  0  0  0  0  0  0  0  0
  1  2  1  6  0  0  0
  1  3  1  0  0  0  0
  1  4  2  0  0  0  0
  1 16  1  0  0  0  0
  5  6  1  6  0  0  0
  5  7  1  0  0  0  0
  5 14  1  0  0  0  0
  7  8  1  1  0  0  0
  7  9  1  0  0  0  0
  9 10  1  1  0  0  0
  9 11  1  0  0  0  0
 11 12  1  6  0  0  0
 11 13  1  0  0  0  0
 13 14  1  0  0  0  0
 13 15  1  1  0  0  0
 15 16  1  0  0  0  0
M  CHG  1   3  -1
M  END
>  <CHROM.1>
65.91811204,-177.10151558,-62.09148412,34.42396340,1.02613754,10.41432957
-2.23164358,0.71804831,-3.08783590

>  <Name>
ligand

>  <RI>
0

>  <Rbt.Current_Directory>
/home/itssahil/PROJECTS/Mol_Feturizer/New_Systems/rnas/3B4C

>  <Rbt.Executable>
rbdock ($Id: //depot/dev/client3/rdock/2013.1/src/exe/rbdock.cxx#4 $)

>  <Rbt.Library>
libRbt.so (2013.1, Build901 2013/11/27)

>  <Rbt.Parameter_File>
/export/apps/rDock/src/rDock_2013.1_src/data/scripts/dock_solv.prm

>  <Rbt.Receptor>
prm/blind_docking_80.prm

>  <SCORE>
-13.5601

>  <SCORE.INTER>
-11.9172

>  <SCORE.INTER.CONST>
1

>  <SCORE.INTER.POLAR>
0

>  <SCORE.INTER.ROT>
3

>  <SCORE.INTER.SOLV>
18.1174

>  <SCORE.INTER.VDW>
-19.584

>  <SCORE.INTER.norm>
-0.744826

>  <SCORE.INTRA>
-1.6429

>  <SCORE.INTRA.DIHEDRAL>
-1.95376

>  <SCORE.INTRA.DIHEDRAL.0>
2.1318

>  <SCORE.INTRA.POLAR>
0

>  <SCORE.INTRA.POLAR.0>
0

>  <SCORE.INTRA.REPUL>
0

>  <SCORE.INTRA.REPUL.0>
0

>  <SCORE.INTRA.SOLV>
-0.778219

>  <SCORE.INTRA.SOLV.lig_0>
-58.6125

>  <SCORE.INTRA.VDW>
-0.276912

>  <SCORE.INTRA.VDW.0>
-0.432734

>  <SCORE.INTRA.norm>
-0.102681

>  <SCORE.RESTR>
0

>  <SCORE.RESTR.CAVITY>
0

>  <SCORE.RESTR.norm>
0

>  <SCORE.SYSTEM>
0

>  <SCORE.SYSTEM.CONST>
0

>  <SCORE.SYSTEM.DIHEDRAL>
0

>  <SCORE.SYSTEM.SOLV>
0

>  <SCORE.SYSTEM.norm>
0

>  <SCORE.heavy>
16

>  <SCORE.norm>
-0.847507

>  <RMSD>
18.964

$$$$
ligand
 OpenBabel11021811463D
libRbt.so/2013.1/901 2013/11/27
 16 16  0  0  0  0  0  0  0  0999 V2000
   32.8190    3.5815    9.4449 P   0  0  2  0  0  0  0  0  0  0  0  0
   31.5331    3.8879   10.1185 O   0  0  0  0  0  0  0  0  0  0  0  0
   33.7396    4.9008    9.4187 O   0  5  0  0  0  0  0  0  0  0  0  0
   32.5209    3.1229    7.9282 O   0  0  0  0  0  0  0  0  0  0  0  0
   36.3798   -0.0914   12.1875 C   0  0  2  0  0  0  0  0  0  0  0  0
   37.5874   -0.4372   11.4990 O   0  0  0  0  0  0  0  0  0  0  0  0
   35.4095   -1.2999   12.2319 C   0  0  2  0  0  0  0  0  0  0  0  0
   36.0626   -2.4395   12.9039 N   0  0  0  0  0  0  0  0  0  0  0  0
   35.0370   -1.6829   10.7897 C   0  0  1  0  0  0  0  0  0  0  0  0
   34.1266   -2.7857   10.7925 O   0  0  0  0  0  0  0  0  0  0  0  0
   34.3694   -0.4720   10.1400 C   0  0  2  0  0  0  0  0  0  0  0  0
   34.0185   -0.8043    8.8028 O   0  0  0  0  0  0  0  0  0  0  0  0
   35.3709    0.7150   10.1493 C   0  0  2  0  0  0  0  0  0  0  0  0
   35.7521    1.0463   11.5198 O   0  0  0  0  0  0  0  0  0  0  0  0
   34.7349    1.9717    9.5054 C   0  0  0  0  0  0  0  0  0  0  0  0
   33.5802    2.3994   10.2505 O   0  0  0  0  0  0  0  0  0  0  0  0
  1  2  1  1  0  0  0
  1  3  1  0  0  0  0
  1  4  2  0  0  0  0
  1 16  1  0  0  0  0
  5  6  1  6  0  0  0
  5  7  1  0  0  0  0
  5 14  1  0  0  0  0
  7  8  1  6  0  0  0
  7  9  1  0  0  0  0
  9 10  1  1  0  0  0
  9 11  1  0  0  0  0
 11 12  1  6  0  0  0
 11 13  1  0  0  0  0
 13 14  1  0  0  0  0
 13 15  1  1  0  0  0
 15 16  1  0  0  0  0
M  CHG  1   3  -1
M  END
>  <CHROM.1>
61.85044237,-172.16936171,172.21121981,34.40397440,0.98707117,10.37051996
-2.18213725,0.64536836,3.12599369

>  <Name>
ligand

>  <RI>
0

>  <Rbt.Current_Directory>
/home/itssahil/PROJECTS/Mol_Feturizer/New_Systems/rnas/3B4C

>  <Rbt.Executable>
rbdock ($Id: //depot/dev/client3/rdock/2013.1/src/exe/rbdock.cxx#4 $)

>  <Rbt.Library>
libRbt.so (2013.1, Build901 2013/11/27)

>  <Rbt.Parameter_File>
/export/apps/rDock/src/rDock_2013.1_src/data/scripts/dock_solv.prm

>  <Rbt.Receptor>
prm/blind_docking_40.prm

>  <SCORE>
-13.0616

>  <SCORE.INTER>
-11.8234

>  <SCORE.INTER.CONST>
1

>  <SCORE.INTER.POLAR>
0

>  <SCORE.INTER.ROT>
3

>  <SCORE.INTER.SOLV>
17.5455

>  <SCORE.INTER.VDW>
-19.3308

>  <SCORE.INTER.norm>
-0.738964

>  <SCORE.INTRA>
-1.28187

>  <SCORE.INTRA.DIHEDRAL>
-1.72172

>  <SCORE.INTRA.DIHEDRAL.0>
2.1318

>  <SCORE.INTRA.POLAR>
0

>  <SCORE.INTRA.POLAR.0>
0

>  <SCORE.INTRA.REPUL>
0

>  <SCORE.INTRA.REPUL.0>
0

>  <SCORE.INTRA.SOLV>
-0.0590764

>  <SCORE.INTRA.SOLV.lig_0>
-58.6125

>  <SCORE.INTRA.VDW>
-0.391476

>  <SCORE.INTRA.VDW.0>
-0.432734

>  <SCORE.INTRA.norm>
-0.080117

>  <SCORE.RESTR>
0.0436663

>  <SCORE.RESTR.CAVITY>
0.0436663

>  <SCORE.RESTR.norm>
0.00272914

>  <SCORE.SYSTEM>
0

>  <SCORE.SYSTEM.CONST>
0

>  <SCORE.SYSTEM.DIHEDRAL>
0

>  <SCORE.SYSTEM.SOLV>
0

>  <SCORE.SYSTEM.norm>
0

>  <SCORE.heavy>
16

>  <SCORE.norm>
-0.816352

>  <RMSD>
18.993

$$$$
ligand
 OpenBabel11021811463D
libRbt.so/2013.1/901 2013/11/27
 16 16  0  0  0  0  0  0  0  0999 V2000
   32.8274    3.5697    9.4208 P   0  0  2  0  0  0  0  0  0  0  0  0
   31.5567    3.8934   10.1150 O   0  0  0  0  0  0  0  0  0  0  0  0
   33.7352    4.8941    9.3168 O   0  5  0  0  0  0  0  0  0  0  0  0
   32.4941    3.0473    7.9324 O   0  0  0  0  0  0  0  0  0  0  0  0
   36.3821   -0.0909   12.1835 C   0  0  2  0  0  0  0  0  0  0  0  0
   37.5898   -0.4437   11.4989 O   0  0  0  0  0  0  0  0  0  0  0  0
   35.4067   -1.2953   12.2294 C   0  0  2  0  0  0  0  0  0  0  0  0
   36.0536   -2.4355   12.9063 N   0  0  0  0  0  0  0  0  0  0  0  0
   35.0361   -1.6811   10.7874 C   0  0  1  0  0  0  0  0  0  0  0  0
   34.1210   -2.7802   10.7914 O   0  0  0  0  0  0  0  0  0  0  0  0
   34.3749   -0.4695   10.1325 C   0  0  2  0  0  0  0  0  0  0  0  0
   34.0258   -0.8044    8.7954 O   0  0  0  0  0  0  0  0  0  0  0  0
   35.3813    0.7134   10.1405 C   0  0  2  0  0  0  0  0  0  0  0  0
   35.7606    1.0473   11.5109 O   0  0  0  0  0  0  0  0  0  0  0  0
   34.7520    1.9708    9.4913 C   0  0  0  0  0  0  0  0  0  0  0  0
   33.6197    2.4275   10.2535 O   0  0  0  0  0  0  0  0  0  0  0  0
  1  2  1  1  0  0  0
  1  3  1  0  0  0  0
  1  4  2  0  0  0  0
  1 16  1  0  0  0  0
  5  6  1  6  0  0  0
  5  7  1  0  0  0  0
  5 14  1  0  0  0  0
  7  8  1  6  0  0  0
  7  9  1  0  0  0  0
  9 10  1  1  0  0  0
  9 11  1  0  0  0  0
 11 12  1  6  0  0  0
 11 13  1  0  0  0  0
 13 14  1  0  0  0  0
 13 15  1  1  0  0  0
 15 16  1  0  0  0  0
M  CHG  1   3  -1
M  END
>  <CHROM.1>
63.46362837,-169.98773496,171.72691156,34.40903579,0.98309215,10.35826924
-2.18089915,0.64484939,3.11941595

>  <Name>
ligand

>  <RI>
0

>  <Rbt.Current_Directory>
/home/itssahil/PROJECTS/Mol_Feturizer/New_Systems/rnas/3B4C

>  <Rbt.Executable>
rbdock ($Id: //depot/dev/client3/rdock/2013.1/src/exe/rbdock.cxx#4 $)

>  <Rbt.Library>
libRbt.so (2013.1, Build901 2013/11/27)

>  <Rbt.Parameter_File>
/export/apps/rDock/src/rDock_2013.1_src/data/scripts/dock_solv.prm

>  <Rbt.Receptor>
prm/blind_docking_40.prm

>  <SCORE>
-13.0634

>  <SCORE.INTER>
-11.9593

>  <SCORE.INTER.CONST>
1

>  <SCORE.INTER.POLAR>
0

>  <SCORE.INTER.ROT>
3

>  <SCORE.INTER.SOLV>
17.3791

>  <SCORE.INTER.VDW>
-19.3659

>  <SCORE.INTER.norm>
-0.747459

>  <SCORE.INTRA>
-1.14415

>  <SCORE.INTRA.DIHEDRAL>
-1.49293

>  <SCORE.INTRA.DIHEDRAL.0>
2.1318

>  <SCORE.INTRA.POLAR>
0

>  <SCORE.INTRA.POLAR.0>
0

>  <SCORE.INTRA.REPUL>
0

>  <SCORE.INTRA.REPUL.0>
0

>  <SCORE.INTRA.SOLV>
0.00314332

>  <SCORE.INTRA.SOLV.lig_0>
-58.6125

>  <SCORE.INTRA.VDW>
-0.399257

>  <SCORE.INTRA.VDW.0>
-0.432734

>  <SCORE.INTRA.norm>
-0.0715093

>  <SCORE.RESTR>
0.040064

>  <SCORE.RESTR.CAVITY>
0.040064

>  <SCORE.RESTR.norm>
0.002504

>  <SCORE.SYSTEM>
0

>  <SCORE.SYSTEM.CONST>
0

>  <SCORE.SYSTEM.DIHEDRAL>
0

>  <SCORE.SYSTEM.SOLV>
0

>  <SCORE.SYSTEM.norm>
0

>  <SCORE.heavy>
16

>  <SCORE.norm>
-0.816464

>  <RMSD>
18.993

$$$$
ligand
 OpenBabel11021811463D
libRbt.so/2013.1/901 2013/11/27
 16 16  0  0  0  0  0  0  0  0999 V2000
   32.2119    1.5738    7.2806 P   0  0  2  0  0  0  0  0  0  0  0  0
   30.9076    1.1006    7.8060 O   0  0  0  0  0  0  0  0  0  0  0  0
   32.2534    1.3719    5.6848 O   0  5  0  0  0  0  0  0  0  0  0  0
   33.3936    0.7030    7.9477 O   0  0  0  0  0  0  0  0  0  0  0  0
   32.4467    6.2506   11.3878 C   0  0  2  0  0  0  0  0  0  0  0  0
   31.1039    6.6813   11.1365 O   0  0  0  0  0  0  0  0  0  0  0  0
   33.4631    7.1895   10.6883 C   0  0  2  0  0  0  0  0  0  0  0  0
   33.2797    8.5715   11.1713 N   0  0  0  0  0  0  0  0  0  0  0  0
   33.2240    7.1268    9.1703 C   0  0  1  0  0  0  0  0  0  0  0  0
   34.1579    7.9691    8.4894 O   0  0  0  0  0  0  0  0  0  0  0  0
   33.4225    5.6795    8.7232 C   0  0  2  0  0  0  0  0  0  0  0  0
   33.2034    5.5986    7.3206 O   0  0  0  0  0  0  0  0  0  0  0  0
   32.4032    4.7806    9.4749 C   0  0  2  0  0  0  0  0  0  0  0  0
   32.6093    4.8770   10.9177 O   0  0  0  0  0  0  0  0  0  0  0  0
   32.5710    3.2982    9.0590 C   0  0  0  0  0  0  0  0  0  0  0  0
   32.3990    3.1430    7.6384 O   0  0  0  0  0  0  0  0  0  0  0  0
  1  2  1  1  0  0  0
  1  3  1  0  0  0  0
  1  4  2  0  0  0  0
  1 16  1  0  0  0  0
  5  6  1  6  0  0  0
  5  7  1  0  0  0  0
  5 14  1  0  0  0  0
  7  8  1  1  0  0  0
  7  9  1  0  0  0  0
  9 10  1  6  0  0  0
  9 11  1  0  0  0  0
 11 12  1  6  0  0  0
 11 13  1  0  0  0  0
 13 14  1  0  0  0  0
 13 15  1  6  0  0  0
 15 16  1  0  0  0  0
M  CHG  1   3  -1
M  END
>  <CHROM.1>
-58.09356448,-166.02989839,68.76249673,32.64067178,4.45106112,8.82111566
1.81511332,-1.06882426,-2.43352401

>  <Name>
ligand

>  <RI>
0

>  <Rbt.Current_Directory>
/home/itssahil/PROJECTS/Mol_Feturizer/New_Systems/rnas/3B4C

>  <Rbt.Executable>
rbdock ($Id: //depot/dev/client3/rdock/2013.1/src/exe/rbdock.cxx#4 $)

>  <Rbt.Library>
libRbt.so (2013.1, Build901 2013/11/27)

>  <Rbt.Parameter_File>
/export/apps/rDock/src/rDock_2013.1_src/data/scripts/dock_solv.prm

>  <Rbt.Receptor>
prm/blind_docking_100.prm

>  <SCORE>
-8.69596

>  <SCORE.INTER>
-7.97791

>  <SCORE.INTER.CONST>
1

>  <SCORE.INTER.POLAR>
0

>  <SCORE.INTER.ROT>
3

>  <SCORE.INTER.SOLV>
15.5399

>  <SCORE.INTER.VDW>
-16.0986

>  <SCORE.INTER.norm>
-0.498619

>  <SCORE.INTRA>
-0.718054

>  <SCORE.INTRA.DIHEDRAL>
-1.068

>  <SCORE.INTRA.DIHEDRAL.0>
2.1318

>  <SCORE.INTRA.POLAR>
0

>  <SCORE.INTRA.POLAR.0>
0

>  <SCORE.INTRA.REPUL>
0

>  <SCORE.INTRA.REPUL.0>
0

>  <SCORE.INTRA.SOLV>
-0.602999

>  <SCORE.INTRA.SOLV.lig_0>
-58.6125

>  <SCORE.INTRA.VDW>
0.117447

>  <SCORE.INTRA.VDW.0>
-0.432734

>  <SCORE.INTRA.norm>
-0.0448784

>  <SCORE.RESTR>
0

>  <SCORE.RESTR.CAVITY>
0

>  <SCORE.RESTR.norm>
0

>  <SCORE.SYSTEM>
0

>  <SCORE.SYSTEM.CONST>
0

>  <SCORE.SYSTEM.DIHEDRAL>
0

>  <SCORE.SYSTEM.SOLV>
0

>  <SCORE.SYSTEM.norm>
0

>  <SCORE.heavy>
16

>  <SCORE.norm>
-0.543498

>  <RMSD>
18.994

$$$$
ligand
 OpenBabel11021811463D
libRbt.so/2013.1/901 2013/11/27
 16 16  0  0  0  0  0  0  0  0999 V2000
   32.2214    1.5717    7.2733 P   0  0  2  0  0  0  0  0  0  0  0  0
   30.9073    1.1095    7.7839 O   0  0  0  0  0  0  0  0  0  0  0  0
   32.2822    1.3622    5.6791 O   0  5  0  0  0  0  0  0  0  0  0  0
   33.3886    0.6963    7.9596 O   0  0  0  0  0  0  0  0  0  0  0  0
   32.4320    6.2654   11.3623 C   0  0  2  0  0  0  0  0  0  0  0  0
   31.0897    6.6934   11.1033 O   0  0  0  0  0  0  0  0  0  0  0  0
   33.4502    7.2021   10.6623 C   0  0  2  0  0  0  0  0  0  0  0  0
   33.2633    8.5862   11.1379 N   0  0  0  0  0  0  0  0  0  0  0  0
   33.2174    7.1317    9.1437 C   0  0  1  0  0  0  0  0  0  0  0  0
   34.1531    7.9718    8.4626 O   0  0  0  0  0  0  0  0  0  0  0  0
   33.4193    5.6825    8.7045 C   0  0  2  0  0  0  0  0  0  0  0  0
   33.2061    5.5945    7.3014 O   0  0  0  0  0  0  0  0  0  0  0  0
   32.3979    4.7861    9.4564 C   0  0  2  0  0  0  0  0  0  0  0  0
   32.5980    4.8898   10.8995 O   0  0  0  0  0  0  0  0  0  0  0  0
   32.5690    3.3019    9.0483 C   0  0  0  0  0  0  0  0  0  0  0  0
   32.4142    3.1413    7.6264 O   0  0  0  0  0  0  0  0  0  0  0  0
  1  2  1  1  0  0  0
  1  3  1  0  0  0  0
  1  4  2  0  0  0  0
  1 16  1  0  0  0  0
  5  6  1  6  0  0  0
  5  7  1  0  0  0  0
  5 14  1  0  0  0  0
  7  8  1  1  0  0  0
  7  9  1  0  0  0  0
  9 10  1  6  0  0  0
  9 11  1  0  0  0  0
 11 12  1  6  0  0  0
 11 13  1  0  0  0  0
 13 14  1  0  0  0  0
 13 15  1  6  0  0  0
 15 16  1  0  0  0  0
M  CHG  1   3  -1
M  END
>  <CHROM.1>
-57.61158134,-165.71942554,68.77493970,32.63930899,4.45483263,8.80387397
1.80709709,-1.06654982,-2.44460646

>  <Name>
ligand

>  <RI>
0

>  <Rbt.Current_Directory>
/home/itssahil/PROJECTS/Mol_Feturizer/New_Systems/rnas/3B4C

>  <Rbt.Executable>
rbdock ($Id: //depot/dev/client3/rdock/2013.1/src/exe/rbdock.cxx#4 $)

>  <Rbt.Library>
libRbt.so (2013.1, Build901 2013/11/27)

>  <Rbt.Parameter_File>
/export/apps/rDock/src/rDock_2013.1_src/data/scripts/dock_solv.prm

>  <Rbt.Receptor>
prm/blind_docking_80.prm

>  <SCORE>
-8.70775

>  <SCORE.INTER>
-8.02993

>  <SCORE.INTER.CONST>
1

>  <SCORE.INTER.POLAR>
0

>  <SCORE.INTER.ROT>
3

>  <SCORE.INTER.SOLV>
15.4097

>  <SCORE.INTER.VDW>
-16.0899

>  <SCORE.INTER.norm>
-0.501871

>  <SCORE.INTRA>
-0.677815

>  <SCORE.INTRA.DIHEDRAL>
-1.02058

>  <SCORE.INTRA.DIHEDRAL.0>
2.1318

>  <SCORE.INTRA.POLAR>
0

>  <SCORE.INTRA.POLAR.0>
0

>  <SCORE.INTRA.REPUL>
0

>  <SCORE.INTRA.REPUL.0>
0

>  <SCORE.INTRA.SOLV>
-0.59955

>  <SCORE.INTRA.SOLV.lig_0>
-58.6125

>  <SCORE.INTRA.VDW>
0.132251

>  <SCORE.INTRA.VDW.0>
-0.432734

>  <SCORE.INTRA.norm>
-0.0423635

>  <SCORE.RESTR>
0

>  <SCORE.RESTR.CAVITY>
0

>  <SCORE.RESTR.norm>
0

>  <SCORE.SYSTEM>
0

>  <SCORE.SYSTEM.CONST>
0

>  <SCORE.SYSTEM.DIHEDRAL>
0

>  <SCORE.SYSTEM.SOLV>
0

>  <SCORE.SYSTEM.norm>
0

>  <SCORE.heavy>
16

>  <SCORE.norm>
-0.544234

>  <RMSD>
19.000

$$$$
ligand
 OpenBabel11021811463D
libRbt.so/2013.1/901 2013/11/27
 16 16  0  0  0  0  0  0  0  0999 V2000
   33.2641    4.0108    9.1304 P   0  0  2  0  0  0  0  0  0  0  0  0
   31.9603    3.6305    9.7277 O   0  0  0  0  0  0  0  0  0  0  0  0
   33.6717    5.4866    9.6251 O   0  5  0  0  0  0  0  0  0  0  0  0
   33.1231    4.0191    7.5243 O   0  0  0  0  0  0  0  0  0  0  0  0
   36.2084   -0.1344   11.7154 C   0  0  2  0  0  0  0  0  0  0  0  0
   37.4675    0.0494   11.0576 O   0  0  0  0  0  0  0  0  0  0  0  0
   35.7091   -1.5924   11.5450 C   0  0  2  0  0  0  0  0  0  0  0  0
   36.7064   -2.5289   12.0974 N   0  0  0  0  0  0  0  0  0  0  0  0
   35.5028   -1.8678   10.0460 C   0  0  1  0  0  0  0  0  0  0  0  0
   35.0240   -3.2012    9.8516 O   0  0  0  0  0  0  0  0  0  0  0  0
   34.4674   -0.8730    9.5242 C   0  0  2  0  0  0  0  0  0  0  0  0
   34.2630   -1.1090    8.1369 O   0  0  0  0  0  0  0  0  0  0  0  0
   35.0028    0.5678    9.7468 C   0  0  2  0  0  0  0  0  0  0  0  0
   35.2356    0.8083   11.1685 O   0  0  0  0  0  0  0  0  0  0  0  0
   33.9814    1.6151    9.2385 C   0  0  0  0  0  0  0  0  0  0  0  0
   34.3972    2.9474    9.5899 O   0  0  0  0  0  0  0  0  0  0  0  0
  1  2  1  1  0  0  0
  1  3  1  0  0  0  0
  1  4  2  0  0  0  0
  1 16  1  0  0  0  0
  5  6  1  6  0  0  0
  5  7  1  0  0  0  0
  5 14  1  0  0  0  0
  7  8  1  6  0  0  0
  7  9  1  0  0  0  0
  9 10  1  1  0  0  0
  9 11  1  0  0  0  0
 11 12  1  6  0  0  0
 11 13  1  0  0  0  0
 13 14  1  0  0  0  0
 13 15  1  1  0  0  0
 15 16  1  0  0  0  0
M  CHG  1   3  -1
M  END
>  <CHROM.1>
172.93582471,-176.36134681,55.39340038,34.61419480,1.04238330,9.88982490
-2.20732315,0.84099795,-2.92114673

>  <Name>
ligand

>  <RI>
0

>  <Rbt.Current_Directory>
/home/itssahil/PROJECTS/Mol_Feturizer/New_Systems/rnas/3B4C

>  <Rbt.Executable>
rbdock ($Id: //depot/dev/client3/rdock/2013.1/src/exe/rbdock.cxx#4 $)

>  <Rbt.Library>
libRbt.so (2013.1, Build901 2013/11/27)

>  <Rbt.Parameter_File>
/export/apps/rDock/src/rDock_2013.1_src/data/scripts/dock_solv.prm

>  <Rbt.Receptor>
prm/blind_docking_40.prm

>  <SCORE>
-11.0752

>  <SCORE.INTER>
-9.55257

>  <SCORE.INTER.CONST>
1

>  <SCORE.INTER.POLAR>
0

>  <SCORE.INTER.ROT>
3

>  <SCORE.INTER.SOLV>
13.9975

>  <SCORE.INTER.VDW>
-16.6342

>  <SCORE.INTER.norm>
-0.597036

>  <SCORE.INTRA>
-1.52279

>  <SCORE.INTRA.DIHEDRAL>
-1.85465

>  <SCORE.INTRA.DIHEDRAL.0>
2.1318

>  <SCORE.INTRA.POLAR>
0

>  <SCORE.INTRA.POLAR.0>
0

>  <SCORE.INTRA.REPUL>
0

>  <SCORE.INTRA.REPUL.0>
0

>  <SCORE.INTRA.SOLV>
-1.03913

>  <SCORE.INTRA.SOLV.lig_0>
-58.6125

>  <SCORE.INTRA.VDW>
-0.0759029

>  <SCORE.INTRA.VDW.0>
-0.432734

>  <SCORE.INTRA.norm>
-0.0951745

>  <SCORE.RESTR>
0.00013997

>  <SCORE.RESTR.CAVITY>
0.00013997

>  <SCORE.RESTR.norm>
8.74814e-06

>  <SCORE.SYSTEM>
0

>  <SCORE.SYSTEM.CONST>
0

>  <SCORE.SYSTEM.DIHEDRAL>
0

>  <SCORE.SYSTEM.SOLV>
0

>  <SCORE.SYSTEM.norm>
0

>  <SCORE.heavy>
16

>  <SCORE.norm>
-0.692201

>  <RMSD>
19.008

$$$$
ligand
 OpenBabel11021811463D
libRbt.so/2013.1/901 2013/11/27
 16 16  0  0  0  0  0  0  0  0999 V2000
   33.3025    3.2454    8.3219 P   0  0  2  0  0  0  0  0  0  0  0  0
   33.2679    3.4627    6.8546 O   0  0  0  0  0  0  0  0  0  0  0  0
   31.8127    2.9585    8.8577 O   0  5  0  0  0  0  0  0  0  0  0  0
   33.8669    4.5761    9.0363 O   0  0  0  0  0  0  0  0  0  0  0  0
   36.6184   -0.3085   12.2194 C   0  0  2  0  0  0  0  0  0  0  0  0
   37.8055   -0.2612   11.4192 O   0  0  0  0  0  0  0  0  0  0  0  0
   35.9109   -1.6800   12.0690 C   0  0  2  0  0  0  0  0  0  0  0  0
   36.8304   -2.7621   12.4692 N   0  0  0  0  0  0  0  0  0  0  0  0
   35.4962   -1.8590   10.5988 C   0  0  1  0  0  0  0  0  0  0  0  0
   34.8229   -3.1087   10.4257 O   0  0  0  0  0  0  0  0  0  0  0  0
   34.5506   -0.7156   10.2352 C   0  0  2  0  0  0  0  0  0  0  0  0
   34.1562   -0.8608    8.8769 O   0  0  0  0  0  0  0  0  0  0  0  0
   35.2974    0.6318   10.4325 C   0  0  2  0  0  0  0  0  0  0  0  0
   35.7244    0.7763   11.8218 O   0  0  0  0  0  0  0  0  0  0  0  0
   34.3741    1.8249   10.0822 C   0  0  0  0  0  0  0  0  0  0  0  0
   34.2572    1.9796    8.6561 O   0  0  0  0  0  0  0  0  0  0  0  0
  1  2  1  6  0  0  0
  1  3  1  0  0  0  0
  1  4  2  0  0  0  0
  1 16  1  0  0  0  0
  5  6  1  6  0  0  0
  5  7  1  0  0  0  0
  5 14  1  0  0  0  0
  7  8  1  6  0  0  0
  7  9  1  0  0  0  0
  9 10  1  1  0  0  0
  9 11  1  0  0  0  0
 11 12  1  6  0  0  0
 11 13  1  0  0  0  0
 13 14  1  0  0  0  0
 13 15  1  1  0  0  0
 15 16  1  0  0  0  0
M  CHG  1   3  -1
M  END
>  <CHROM.1>
-76.97730322,-179.26187774,175.76278593,34.73466173,0.74816644,9.96530130
-2.23574717,0.77445195,3.06999923

>  <Name>
ligand

>  <RI>
0

>  <Rbt.Current_Directory>
/home/itssahil/PROJECTS/Mol_Feturizer/New_Systems/rnas/3B4C

>  <Rbt.Executable>
rbdock ($Id: //depot/dev/client3/rdock/2013.1/src/exe/rbdock.cxx#4 $)

>  <Rbt.Library>
libRbt.so (2013.1, Build901 2013/11/27)

>  <Rbt.Parameter_File>
/export/apps/rDock/src/rDock_2013.1_src/data/scripts/dock_solv.prm

>  <Rbt.Receptor>
prm/blind_docking_100.prm

>  <SCORE>
-9.56014

>  <SCORE.INTER>
-8.58314

>  <SCORE.INTER.CONST>
1

>  <SCORE.INTER.POLAR>
0

>  <SCORE.INTER.ROT>
3

>  <SCORE.INTER.SOLV>
14.7369

>  <SCORE.INTER.VDW>
-16.2344

>  <SCORE.INTER.norm>
-0.536446

>  <SCORE.INTRA>
-0.977003

>  <SCORE.INTRA.DIHEDRAL>
-1.12809

>  <SCORE.INTRA.DIHEDRAL.0>
2.1318

>  <SCORE.INTRA.POLAR>
0

>  <SCORE.INTRA.POLAR.0>
0

>  <SCORE.INTRA.REPUL>
0

>  <SCORE.INTRA.REPUL.0>
0

>  <SCORE.INTRA.SOLV>
-0.102375

>  <SCORE.INTRA.SOLV.lig_0>
-58.6125

>  <SCORE.INTRA.VDW>
-0.361768

>  <SCORE.INTRA.VDW.0>
-0.432734

>  <SCORE.INTRA.norm>
-0.0610627

>  <SCORE.RESTR>
0

>  <SCORE.RESTR.CAVITY>
0

>  <SCORE.RESTR.norm>
0

>  <SCORE.SYSTEM>
0

>  <SCORE.SYSTEM.CONST>
0

>  <SCORE.SYSTEM.DIHEDRAL>
0

>  <SCORE.SYSTEM.SOLV>
0

>  <SCORE.SYSTEM.norm>
0

>  <SCORE.heavy>
16

>  <SCORE.norm>
-0.597509

>  <RMSD>
19.022

$$$$
ligand
 OpenBabel11021811463D
libRbt.so/2013.1/901 2013/11/27
 16 16  0  0  0  0  0  0  0  0999 V2000
   32.9642    5.4943    3.6052 P   0  0  2  0  0  0  0  0  0  0  0  0
   33.1883    6.2961    2.3772 O   0  0  0  0  0  0  0  0  0  0  0  0
   34.0855    4.3450    3.7086 O   0  5  0  0  0  0  0  0  0  0  0  0
   31.5115    4.7999    3.5208 O   0  0  0  0  0  0  0  0  0  0  0  0
   32.0777    8.4698    8.5057 C   0  0  2  0  0  0  0  0  0  0  0  0
   33.3263    9.1699    8.4539 O   0  0  0  0  0  0  0  0  0  0  0  0
   31.9571    7.6620    9.8237 C   0  0  2  0  0  0  0  0  0  0  0  0
   32.0712    8.5725   10.9790 N   0  0  0  0  0  0  0  0  0  0  0  0
   33.0855    6.6177    9.8636 C   0  0  1  0  0  0  0  0  0  0  0  0
   32.9946    5.8399   11.0602 O   0  0  0  0  0  0  0  0  0  0  0  0
   32.9238    5.7054    8.6489 C   0  0  2  0  0  0  0  0  0  0  0  0
   33.9603    4.7321    8.6651 O   0  0  0  0  0  0  0  0  0  0  0  0
   33.0218    6.5673    7.3606 C   0  0  2  0  0  0  0  0  0  0  0  0
   31.9727    7.5835    7.3493 O   0  0  0  0  0  0  0  0  0  0  0  0
   32.8561    5.6849    6.0987 C   0  0  0  0  0  0  0  0  0  0  0  0
   33.0508    6.4613    4.9026 O   0  0  0  0  0  0  0  0  0  0  0  0
  1  2  1  6  0  0  0
  1  3  1  0  0  0  0
  1  4  2  0  0  0  0
  1 16  1  0  0  0  0
  5  6  1  1  0  0  0
  5  7  1  0  0  0  0
  5 14  1  0  0  0  0
  7  8  1  1  0  0  0
  7  9  1  0  0  0  0
  9 10  1  1  0  0  0
  9 11  1  0  0  0  0
 11 12  1  6  0  0  0
 11 13  1  0  0  0  0
 13 14  1  0  0  0  0
 13 15  1  6  0  0  0
 15 16  1  0  0  0  0
M  CHG  1   3  -1
M  END
>  <CHROM.1>
-175.47943224,176.44753440,-179.05067819,32.84182372,6.40051940,6.85065888
1.40693143,1.28044501,-1.70943450

>  <Name>
ligand

>  <RI>
0

>  <Rbt.Current_Directory>
/home/itssahil/PROJECTS/Mol_Feturizer/New_Systems/rnas/3B4C

>  <Rbt.Executable>
rbdock ($Id: //depot/dev/client3/rdock/2013.1/src/exe/rbdock.cxx#4 $)

>  <Rbt.Library>
libRbt.so (2013.1, Build901 2013/11/27)

>  <Rbt.Parameter_File>
/export/apps/rDock/src/rDock_2013.1_src/data/scripts/dock_solv.prm

>  <Rbt.Receptor>
prm/blind_docking_40.prm

>  <SCORE>
-7.61713

>  <SCORE.INTER>
-6.18604

>  <SCORE.INTER.CONST>
1

>  <SCORE.INTER.POLAR>
0

>  <SCORE.INTER.ROT>
3

>  <SCORE.INTER.SOLV>
11.7631

>  <SCORE.INTER.VDW>
-13.6451

>  <SCORE.INTER.norm>
-0.386628

>  <SCORE.INTRA>
-1.43109

>  <SCORE.INTRA.DIHEDRAL>
-1.99038

>  <SCORE.INTRA.DIHEDRAL.0>
2.1318

>  <SCORE.INTRA.POLAR>
0

>  <SCORE.INTRA.POLAR.0>
0

>  <SCORE.INTRA.REPUL>
0

>  <SCORE.INTRA.REPUL.0>
0

>  <SCORE.INTRA.SOLV>
-0.403719

>  <SCORE.INTRA.SOLV.lig_0>
-58.6125

>  <SCORE.INTRA.VDW>
-0.234041

>  <SCORE.INTRA.VDW.0>
-0.432734

>  <SCORE.INTRA.norm>
-0.0894432

>  <SCORE.RESTR>
0

>  <SCORE.RESTR.CAVITY>
0

>  <SCORE.RESTR.norm>
0

>  <SCORE.SYSTEM>
0

>  <SCORE.SYSTEM.CONST>
0

>  <SCORE.SYSTEM.DIHEDRAL>
0

>  <SCORE.SYSTEM.SOLV>
0

>  <SCORE.SYSTEM.norm>
0

>  <SCORE.heavy>
16

>  <SCORE.norm>
-0.476071

>  <RMSD>
19.061

$$$$
ligand
 OpenBabel11021811463D
libRbt.so/2013.1/901 2013/11/27
 16 16  0  0  0  0  0  0  0  0999 V2000
   32.9553    5.4985    3.5897 P   0  0  2  0  0  0  0  0  0  0  0  0
   31.5746    4.9639    3.4941 O   0  0  0  0  0  0  0  0  0  0  0  0
   33.2933    6.3527    2.2687 O   0  5  0  0  0  0  0  0  0  0  0  0
   33.9894    4.2658    3.6928 O   0  0  0  0  0  0  0  0  0  0  0  0
   32.0410    8.3959    8.5309 C   0  0  2  0  0  0  0  0  0  0  0  0
   33.2730    9.1249    8.4804 O   0  0  0  0  0  0  0  0  0  0  0  0
   31.9466    7.5700    9.8397 C   0  0  2  0  0  0  0  0  0  0  0  0
   32.0469    8.4690   11.0052 N   0  0  0  0  0  0  0  0  0  0  0  0
   33.0987    6.5513    9.8606 C   0  0  1  0  0  0  0  0  0  0  0  0
   33.0326    5.7575   11.0483 O   0  0  0  0  0  0  0  0  0  0  0  0
   32.9506    5.6500    8.6359 C   0  0  2  0  0  0  0  0  0  0  0  0
   34.0091    4.7006    8.6345 O   0  0  0  0  0  0  0  0  0  0  0  0
   33.0213    6.5293    7.3576 C   0  0  2  0  0  0  0  0  0  0  0  0
   31.9493    7.5213    7.3644 O   0  0  0  0  0  0  0  0  0  0  0  0
   32.8682    5.6584    6.0861 C   0  0  0  0  0  0  0  0  0  0  0  0
   33.0764    6.4452    4.8991 O   0  0  0  0  0  0  0  0  0  0  0  0
  1  2  1  6  0  0  0
  1  3  1  0  0  0  0
  1  4  2  0  0  0  0
  1 16  1  0  0  0  0
  5  6  1  1  0  0  0
  5  7  1  0  0  0  0
  5 14  1  0  0  0  0
  7  8  1  1  0  0  0
  7  9  1  0  0  0  0
  9 10  1  1  0  0  0
  9 11  1  0  0  0  0
 11 12  1  6  0  0  0
 11 13  1  0  0  0  0
 13 14  1  0  0  0  0
 13 15  1  6  0  0  0
 15 16  1  0  0  0  0
M  CHG  1   3  -1
M  END
>  <CHROM.1>
-173.80746544,178.25969685,63.94564587,32.84649882,6.37092943,6.84079617
1.40565516,1.26097633,-1.69067997

>  <Name>
ligand

>  <RI>
0

>  <Rbt.Current_Directory>
/home/itssahil/PROJECTS/Mol_Feturizer/New_Systems/rnas/3B4C

>  <Rbt.Executable>
rbdock ($Id: //depot/dev/client3/rdock/2013.1/src/exe/rbdock.cxx#4 $)

>  <Rbt.Library>
libRbt.so (2013.1, Build901 2013/11/27)

>  <Rbt.Parameter_File>
/export/apps/rDock/src/rDock_2013.1_src/data/scripts/dock_solv.prm

>  <Rbt.Receptor>
prm/blind_docking_100.prm

>  <SCORE>
-8.26221

>  <SCORE.INTER>
-6.64304

>  <SCORE.INTER.CONST>
1

>  <SCORE.INTER.POLAR>
0

>  <SCORE.INTER.ROT>
3

>  <SCORE.INTER.SOLV>
10.9545

>  <SCORE.INTER.VDW>
-13.6802

>  <SCORE.INTER.norm>
-0.41519

>  <SCORE.INTRA>
-1.61917

>  <SCORE.INTRA.DIHEDRAL>
-1.94821

>  <SCORE.INTRA.DIHEDRAL.0>
2.1318

>  <SCORE.INTRA.POLAR>
0

>  <SCORE.INTRA.POLAR.0>
0

>  <SCORE.INTRA.REPUL>
0

>  <SCORE.INTRA.REPUL.0>
0

>  <SCORE.INTRA.SOLV>
-1.00265

>  <SCORE.INTRA.SOLV.lig_0>
-58.6125

>  <SCORE.INTRA.VDW>
-0.143744

>  <SCORE.INTRA.VDW.0>
-0.432734

>  <SCORE.INTRA.norm>
-0.101198

>  <SCORE.RESTR>
0

>  <SCORE.RESTR.CAVITY>
0

>  <SCORE.RESTR.norm>
0

>  <SCORE.SYSTEM>
0

>  <SCORE.SYSTEM.CONST>
0

>  <SCORE.SYSTEM.DIHEDRAL>
0

>  <SCORE.SYSTEM.SOLV>
0

>  <SCORE.SYSTEM.norm>
0

>  <SCORE.heavy>
16

>  <SCORE.norm>
-0.516388

>  <RMSD>
19.077

$$$$
ligand
 OpenBabel11021811463D
libRbt.so/2013.1/901 2013/11/27
 16 16  0  0  0  0  0  0  0  0999 V2000
   33.3176    4.0934    8.9425 P   0  0  2  0  0  0  0  0  0  0  0  0
   33.2591    4.1308    7.4604 O   0  0  0  0  0  0  0  0  0  0  0  0
   31.8754    3.6843    9.5269 O   0  5  0  0  0  0  0  0  0  0  0  0
   33.7057    5.5595    9.4896 O   0  0  0  0  0  0  0  0  0  0  0  0
   35.8529   -0.0289   11.8193 C   0  0  2  0  0  0  0  0  0  0  0  0
   37.1747    0.0082   11.2687 O   0  0  0  0  0  0  0  0  0  0  0  0
   35.2525   -1.4540   11.7067 C   0  0  2  0  0  0  0  0  0  0  0  0
   36.1186   -2.4173   12.4130 N   0  0  0  0  0  0  0  0  0  0  0  0
   35.1541   -1.8283   10.2182 C   0  0  1  0  0  0  0  0  0  0  0  0
   34.5863   -3.1330   10.0750 O   0  0  0  0  0  0  0  0  0  0  0  0
   34.2523   -0.8019    9.5348 C   0  0  2  0  0  0  0  0  0  0  0  0
   34.1495   -1.1284    8.1547 O   0  0  0  0  0  0  0  0  0  0  0  0
   34.8827    0.6075    9.7037 C   0  0  2  0  0  0  0  0  0  0  0  0
   35.0112    0.9391   11.1204 O   0  0  0  0  0  0  0  0  0  0  0  0
   33.9979    1.6862    9.0313 C   0  0  0  0  0  0  0  0  0  0  0  0
   34.4255    3.0072    9.4100 O   0  0  0  0  0  0  0  0  0  0  0  0
  1  2  1  6  0  0  0
  1  3  1  0  0  0  0
  1  4  2  0  0  0  0
  1 16  1  0  0  0  0
  5  6  1  6  0  0  0
  5  7  1  0  0  0  0
  5 14  1  0  0  0  0
  7  8  1  1  0  0  0
  7  9  1  0  0  0  0
  9 10  1  1  0  0  0
  9 11  1  0  0  0  0
 11 12  1  6  0  0  0
 11 13  1  0  0  0  0
 13 14  1  0  0  0  0
 13 15  1  6  0  0  0
 15 16  1  0  0  0  0
M  CHG  1   3  -1
M  END
>  <CHROM.1>
168.39288595,-168.70455478,-65.87623426,34.45116494,1.11075528,9.88250137
-2.14028594,0.90955680,-3.00710750

>  <Name>
ligand

>  <RI>
0

>  <Rbt.Current_Directory>
/home/itssahil/PROJECTS/Mol_Feturizer/New_Systems/rnas/3B4C

>  <Rbt.Executable>
rbdock ($Id: //depot/dev/client3/rdock/2013.1/src/exe/rbdock.cxx#4 $)

>  <Rbt.Library>
libRbt.so (2013.1, Build901 2013/11/27)

>  <Rbt.Parameter_File>
/export/apps/rDock/src/rDock_2013.1_src/data/scripts/dock_solv.prm

>  <Rbt.Receptor>
prm/blind_docking_40.prm

>  <SCORE>
-10.3779

>  <SCORE.INTER>
-9.37077

>  <SCORE.INTER.CONST>
1

>  <SCORE.INTER.POLAR>
0

>  <SCORE.INTER.ROT>
3

>  <SCORE.INTER.SOLV>
17.5844

>  <SCORE.INTER.VDW>
-17.7087

>  <SCORE.INTER.norm>
-0.585673

>  <SCORE.INTRA>
-1.00835

>  <SCORE.INTRA.DIHEDRAL>
-0.99448

>  <SCORE.INTRA.DIHEDRAL.0>
2.1318

>  <SCORE.INTRA.POLAR>
0

>  <SCORE.INTRA.POLAR.0>
0

>  <SCORE.INTRA.REPUL>
0

>  <SCORE.INTRA.REPUL.0>
0

>  <SCORE.INTRA.SOLV>
-0.81556

>  <SCORE.INTRA.SOLV.lig_0>
-58.6125

>  <SCORE.INTRA.VDW>
-0.103327

>  <SCORE.INTRA.VDW.0>
-0.432734

>  <SCORE.INTRA.norm>
-0.0630217

>  <SCORE.RESTR>
0.00117851

>  <SCORE.RESTR.CAVITY>
0.00117851

>  <SCORE.RESTR.norm>
7.36567e-05

>  <SCORE.SYSTEM>
0

>  <SCORE.SYSTEM.CONST>
0

>  <SCORE.SYSTEM.DIHEDRAL>
0

>  <SCORE.SYSTEM.SOLV>
0

>  <SCORE.SYSTEM.norm>
0

>  <SCORE.heavy>
16

>  <SCORE.norm>
-0.648621

>  <RMSD>
19.091

$$$$
ligand
 OpenBabel11021811463D
libRbt.so/2013.1/901 2013/11/27
 16 16  0  0  0  0  0  0  0  0999 V2000
   32.3945    3.4633    9.6894 P   0  0  2  0  0  0  0  0  0  0  0  0
   31.6280    2.7306    8.6517 O   0  0  0  0  0  0  0  0  0  0  0  0
   31.3736    4.1628   10.7177 O   0  5  0  0  0  0  0  0  0  0  0  0
   33.2826    4.6052    8.9775 O   0  0  0  0  0  0  0  0  0  0  0  0
   36.2194    0.0786   12.3276 C   0  0  2  0  0  0  0  0  0  0  0  0
   37.5012   -0.0537   11.7021 O   0  0  0  0  0  0  0  0  0  0  0  0
   35.4343   -1.2565   12.2554 C   0  0  2  0  0  0  0  0  0  0  0  0
   36.2075   -2.3261   12.9148 N   0  0  0  0  0  0  0  0  0  0  0  0
   35.2032   -1.6098   10.7764 C   0  0  1  0  0  0  0  0  0  0  0  0
   34.4642   -2.8296   10.6712 O   0  0  0  0  0  0  0  0  0  0  0  0
   34.4041   -0.4730   10.1416 C   0  0  2  0  0  0  0  0  0  0  0  0
   34.1810   -0.7789    8.7710 O   0  0  0  0  0  0  0  0  0  0  0  0
   35.2201    0.8423   10.2684 C   0  0  2  0  0  0  0  0  0  0  0  0
   35.4713    1.1498   11.6741 O   0  0  0  0  0  0  0  0  0  0  0  0
   34.4452    2.0287    9.6434 C   0  0  0  0  0  0  0  0  0  0  0  0
   33.3486    2.4247   10.4874 O   0  0  0  0  0  0  0  0  0  0  0  0
  1  2  1  6  0  0  0
  1  3  1  0  0  0  0
  1  4  2  0  0  0  0
  1 16  1  0  0  0  0
  5  6  1  6  0  0  0
  5  7  1  0  0  0  0
  5 14  1  0  0  0  0
  7  8  1  6  0  0  0
  7  9  1  0  0  0  0
  9 10  1  1  0  0  0
  9 11  1  0  0  0  0
 11 12  1  6  0  0  0
 11 13  1  0  0  0  0
 13 14  1  0  0  0  0
 13 15  1  1  0  0  0
 15 16  1  0  0  0  0
M  CHG  1   3  -1
M  END
>  <CHROM.1>
73.74722507,-169.24188436,72.70959476,34.23728918,1.00845557,10.50678526
-2.34791152,0.69585585,-2.96193518

>  <Name>
ligand

>  <RI>
0

>  <Rbt.Current_Directory>
/home/itssahil/PROJECTS/Mol_Feturizer/New_Systems/rnas/3B4C

>  <Rbt.Executable>
rbdock ($Id: //depot/dev/client3/rdock/2013.1/src/exe/rbdock.cxx#4 $)

>  <Rbt.Library>
libRbt.so (2013.1, Build901 2013/11/27)

>  <Rbt.Parameter_File>
/export/apps/rDock/src/rDock_2013.1_src/data/scripts/dock_solv.prm

>  <Rbt.Receptor>
prm/blind_docking_60.prm

>  <SCORE>
-13.3533

>  <SCORE.INTER>
-12.4202

>  <SCORE.INTER.CONST>
1

>  <SCORE.INTER.POLAR>
0

>  <SCORE.INTER.ROT>
3

>  <SCORE.INTER.SOLV>
19.6524

>  <SCORE.INTER.VDW>
-20.4309

>  <SCORE.INTER.norm>
-0.77626

>  <SCORE.INTRA>
-0.933767

>  <SCORE.INTRA.DIHEDRAL>
-0.655104

>  <SCORE.INTRA.DIHEDRAL.0>
2.1318

>  <SCORE.INTRA.POLAR>
0

>  <SCORE.INTRA.POLAR.0>
0

>  <SCORE.INTRA.REPUL>
0

>  <SCORE.INTRA.REPUL.0>
0

>  <SCORE.INTRA.SOLV>
-0.708963

>  <SCORE.INTRA.SOLV.lig_0>
-58.6125

>  <SCORE.INTRA.VDW>
-0.251733

>  <SCORE.INTRA.VDW.0>
-0.432734

>  <SCORE.INTRA.norm>
-0.0583604

>  <SCORE.RESTR>
0.000614872

>  <SCORE.RESTR.CAVITY>
0.000614872

>  <SCORE.RESTR.norm>
3.84295e-05

>  <SCORE.SYSTEM>
0

>  <SCORE.SYSTEM.CONST>
0

>  <SCORE.SYSTEM.DIHEDRAL>
0

>  <SCORE.SYSTEM.SOLV>
0

>  <SCORE.SYSTEM.norm>
0

>  <SCORE.heavy>
16

>  <SCORE.norm>
-0.834582

>  <RMSD>
19.096

$$$$
ligand
 OpenBabel11021811463D
libRbt.so/2013.1/901 2013/11/27
 16 16  0  0  0  0  0  0  0  0999 V2000
   32.5084    2.2896    7.5498 P   0  0  2  0  0  0  0  0  0  0  0  0
   32.3597    3.2356    8.6831 O   0  0  0  0  0  0  0  0  0  0  0  0
   32.4152    3.0964    6.1608 O   0  5  0  0  0  0  0  0  0  0  0  0
   31.3126    1.2096    7.6074 O   0  0  0  0  0  0  0  0  0  0  0  0
   37.8554    0.5261    8.7312 C   0  0  2  0  0  0  0  0  0  0  0  0
   37.8601   -0.6000    7.8459 O   0  0  0  0  0  0  0  0  0  0  0  0
   38.1685    0.0823   10.1834 C   0  0  2  0  0  0  0  0  0  0  0  0
   39.4828   -0.5867   10.2281 N   0  0  0  0  0  0  0  0  0  0  0  0
   37.0687   -0.8873   10.6477 C   0  0  1  0  0  0  0  0  0  0  0  0
   37.3158   -1.3046   11.9931 O   0  0  0  0  0  0  0  0  0  0  0  0
   35.7329   -0.1492   10.5799 C   0  0  2  0  0  0  0  0  0  0  0  0
   34.7001   -1.0299   11.0035 O   0  0  0  0  0  0  0  0  0  0  0  0
   35.4839    0.2986    9.1137 C   0  0  2  0  0  0  0  0  0  0  0  0
   36.5538    1.1863    8.6658 O   0  0  0  0  0  0  0  0  0  0  0  0
   34.1405    1.0601    8.9955 C   0  0  0  0  0  0  0  0  0  0  0  0
   33.9439    1.5454    7.6548 O   0  0  0  0  0  0  0  0  0  0  0  0
  1  2  1  1  0  0  0
  1  3  1  0  0  0  0
  1  4  2  0  0  0  0
  1 16  1  0  0  0  0
  5  6  1  6  0  0  0
  5  7  1  0  0  0  0
  5 14  1  0  0  0  0
  7  8  1  6  0  0  0
  7  9  1  0  0  0  0
  9 10  1  1  0  0  0
  9 11  1  0  0  0  0
 11 12  1  6  0  0  0
 11 13  1  0  0  0  0
 13 14  1  0  0  0  0
 13 15  1  1  0  0  0
 15 16  1  0  0  0  0
M  CHG  1   3  -1
M  END
>  <CHROM.1>
176.58640594,177.96630484,47.99304757,35.15128475,0.76676731,8.95818385,-2.52319423
-0.18785319,2.12138018

>  <Name>
ligand

>  <RI>
0

>  <Rbt.Current_Directory>
/home/itssahil/PROJECTS/Mol_Feturizer/New_Systems/rnas/3B4C

>  <Rbt.Executable>
rbdock ($Id: //depot/dev/client3/rdock/2013.1/src/exe/rbdock.cxx#4 $)

>  <Rbt.Library>
libRbt.so (2013.1, Build901 2013/11/27)

>  <Rbt.Parameter_File>
/export/apps/rDock/src/rDock_2013.1_src/data/scripts/dock_solv.prm

>  <Rbt.Receptor>
prm/blind_docking_80.prm

>  <SCORE>
-4.89932

>  <SCORE.INTER>
-3.48049

>  <SCORE.INTER.CONST>
1

>  <SCORE.INTER.POLAR>
0

>  <SCORE.INTER.ROT>
3

>  <SCORE.INTER.SOLV>
13.5618

>  <SCORE.INTER.VDW>
-12.4409

>  <SCORE.INTER.norm>
-0.217531

>  <SCORE.INTRA>
-1.41883

>  <SCORE.INTRA.DIHEDRAL>
-1.84186

>  <SCORE.INTRA.DIHEDRAL.0>
2.1318

>  <SCORE.INTRA.POLAR>
0

>  <SCORE.INTRA.POLAR.0>
0

>  <SCORE.INTRA.REPUL>
0

>  <SCORE.INTRA.REPUL.0>
0

>  <SCORE.INTRA.SOLV>
-1.12147

>  <SCORE.INTRA.SOLV.lig_0>
-58.6125

>  <SCORE.INTRA.VDW>
0.0628373

>  <SCORE.INTRA.VDW.0>
-0.432734

>  <SCORE.INTRA.norm>
-0.0886767

>  <SCORE.RESTR>
0

>  <SCORE.RESTR.CAVITY>
0

>  <SCORE.RESTR.norm>
0

>  <SCORE.SYSTEM>
0

>  <SCORE.SYSTEM.CONST>
0

>  <SCORE.SYSTEM.DIHEDRAL>
0

>  <SCORE.SYSTEM.SOLV>
0

>  <SCORE.SYSTEM.norm>
0

>  <SCORE.heavy>
16

>  <SCORE.norm>
-0.306207

>  <RMSD>
19.096

$$$$
ligand
 OpenBabel11021811463D
libRbt.so/2013.1/901 2013/11/27
 16 16  0  0  0  0  0  0  0  0999 V2000
   32.4092    3.4337    9.6625 P   0  0  2  0  0  0  0  0  0  0  0  0
   31.6064    2.6683    8.6770 O   0  0  0  0  0  0  0  0  0  0  0  0
   31.4252    4.1708   10.7004 O   0  5  0  0  0  0  0  0  0  0  0  0
   33.2745    4.5481    8.8823 O   0  0  0  0  0  0  0  0  0  0  0  0
   36.3062    0.0660   12.2482 C   0  0  2  0  0  0  0  0  0  0  0  0
   37.5575   -0.1087   11.5733 O   0  0  0  0  0  0  0  0  0  0  0  0
   35.4865   -1.2500   12.2314 C   0  0  2  0  0  0  0  0  0  0  0  0
   36.2599   -2.3277   12.8773 N   0  0  0  0  0  0  0  0  0  0  0  0
   35.1861   -1.6217   10.7695 C   0  0  1  0  0  0  0  0  0  0  0  0
   34.4138   -2.8242   10.7159 O   0  0  0  0  0  0  0  0  0  0  0  0
   34.3894   -0.4759   10.1480 C   0  0  2  0  0  0  0  0  0  0  0  0
   34.1026   -0.7986    8.7932 O   0  0  0  0  0  0  0  0  0  0  0  0
   35.2418    0.8205   10.2185 C   0  0  2  0  0  0  0  0  0  0  0  0
   35.5581    1.1446   11.6071 O   0  0  0  0  0  0  0  0  0  0  0  0
   34.4709    2.0155    9.6050 C   0  0  0  0  0  0  0  0  0  0  0  0
   33.3881    2.4200   10.4625 O   0  0  0  0  0  0  0  0  0  0  0  0
  1  2  1  6  0  0  0
  1  3  1  0  0  0  0
  1  4  2  0  0  0  0
  1 16  1  0  0  0  0
  5  6  1  6  0  0  0
  5  7  1  0  0  0  0
  5 14  1  0  0  0  0
  7  8  1  6  0  0  0
  7  9  1  0  0  0  0
  9 10  1  1  0  0  0
  9 11  1  0  0  0  0
 11 12  1  6  0  0  0
 11 13  1  0  0  0  0
 13 14  1  0  0  0  0
 13 15  1  1  0  0  0
 15 16  1  0  0  0  0
M  CHG  1   3  -1
M  END
>  <CHROM.1>
71.56171759,-167.49902650,73.96816104,34.25488560,0.98969679,10.47601865
-2.32108224,0.65134592,-3.01294737

>  <Name>
ligand

>  <RI>
0

>  <Rbt.Current_Directory>
/home/itssahil/PROJECTS/Mol_Feturizer/New_Systems/rnas/3B4C

>  <Rbt.Executable>
rbdock ($Id: //depot/dev/client3/rdock/2013.1/src/exe/rbdock.cxx#4 $)

>  <Rbt.Library>
libRbt.so (2013.1, Build901 2013/11/27)

>  <Rbt.Parameter_File>
/export/apps/rDock/src/rDock_2013.1_src/data/scripts/dock_solv.prm

>  <Rbt.Receptor>
prm/blind_docking_100.prm

>  <SCORE>
-13.4493

>  <SCORE.INTER>
-12.5494

>  <SCORE.INTER.CONST>
1

>  <SCORE.INTER.POLAR>
0

>  <SCORE.INTER.ROT>
3

>  <SCORE.INTER.SOLV>
19.3151

>  <SCORE.INTER.VDW>
-20.4046

>  <SCORE.INTER.norm>
-0.784336

>  <SCORE.INTRA>
-0.903974

>  <SCORE.INTRA.DIHEDRAL>
-0.602274

>  <SCORE.INTRA.DIHEDRAL.0>
2.1318

>  <SCORE.INTRA.POLAR>
0

>  <SCORE.INTRA.POLAR.0>
0

>  <SCORE.INTRA.REPUL>
0

>  <SCORE.INTRA.REPUL.0>
0

>  <SCORE.INTRA.SOLV>
-0.693605

>  <SCORE.INTRA.SOLV.lig_0>
-58.6125

>  <SCORE.INTRA.VDW>
-0.256034

>  <SCORE.INTRA.VDW.0>
-0.432734

>  <SCORE.INTRA.norm>
-0.0564983

>  <SCORE.RESTR>
0.00403989

>  <SCORE.RESTR.CAVITY>
0.00403989

>  <SCORE.RESTR.norm>
0.000252493

>  <SCORE.SYSTEM>
0

>  <SCORE.SYSTEM.CONST>
0

>  <SCORE.SYSTEM.DIHEDRAL>
0

>  <SCORE.SYSTEM.SOLV>
0

>  <SCORE.SYSTEM.norm>
0

>  <SCORE.heavy>
16

>  <SCORE.norm>
-0.840582

>  <RMSD>
19.101

$$$$
ligand
 OpenBabel11021811463D
libRbt.so/2013.1/901 2013/11/27
 16 16  0  0  0  0  0  0  0  0999 V2000
   32.4034    3.4218    9.6801 P   0  0  2  0  0  0  0  0  0  0  0  0
   31.6317    2.7008    8.6380 O   0  0  0  0  0  0  0  0  0  0  0  0
   31.3879    4.1034   10.7256 O   0  5  0  0  0  0  0  0  0  0  0  0
   33.2821    4.5768    8.9775 O   0  0  0  0  0  0  0  0  0  0  0  0
   36.3444    0.0595   12.2182 C   0  0  2  0  0  0  0  0  0  0  0  0
   37.5879   -0.1069   11.5269 O   0  0  0  0  0  0  0  0  0  0  0  0
   35.5320   -1.2611   12.2095 C   0  0  2  0  0  0  0  0  0  0  0  0
   36.3197   -2.3355   12.8434 N   0  0  0  0  0  0  0  0  0  0  0  0
   35.2149   -1.6319   10.7509 C   0  0  1  0  0  0  0  0  0  0  0  0
   34.4488   -2.8387   10.7050 O   0  0  0  0  0  0  0  0  0  0  0  0
   34.4038   -0.4895   10.1419 C   0  0  2  0  0  0  0  0  0  0  0  0
   34.1014   -0.8114    8.7903 O   0  0  0  0  0  0  0  0  0  0  0  0
   35.2497    0.8115   10.2037 C   0  0  2  0  0  0  0  0  0  0  0  0
   35.5821    1.1350   11.5887 O   0  0  0  0  0  0  0  0  0  0  0  0
   34.4642    2.0032    9.6023 C   0  0  0  0  0  0  0  0  0  0  0  0
   33.3672    2.3758   10.4563 O   0  0  0  0  0  0  0  0  0  0  0  0
  1  2  1  6  0  0  0
  1  3  1  0  0  0  0
  1  4  2  0  0  0  0
  1 16  1  0  0  0  0
  5  6  1  6  0  0  0
  5  7  1  0  0  0  0
  5 14  1  0  0  0  0
  7  8  1  6  0  0  0
  7  9  1  0  0  0  0
  9 10  1  1  0  0  0
  9 11  1  0  0  0  0
 11 12  1  6  0  0  0
 11 13  1  0  0  0  0
 13 14  1  0  0  0  0
 13 15  1  1  0  0  0
 15 16  1  0  0  0  0
M  CHG  1   3  -1
M  END
>  <CHROM.1>
69.93633769,-169.25874590,73.13540644,34.26808874,0.97909876,10.47120709
-2.32287244,0.63839583,-3.01082643

>  <Name>
ligand

>  <RI>
0

>  <Rbt.Current_Directory>
/home/itssahil/PROJECTS/Mol_Feturizer/New_Systems/rnas/3B4C

>  <Rbt.Executable>
rbdock ($Id: //depot/dev/client3/rdock/2013.1/src/exe/rbdock.cxx#4 $)

>  <Rbt.Library>
libRbt.so (2013.1, Build901 2013/11/27)

>  <Rbt.Parameter_File>
/export/apps/rDock/src/rDock_2013.1_src/data/scripts/dock_solv.prm

>  <Rbt.Receptor>
prm/blind_docking_60.prm

>  <SCORE>
-13.3825

>  <SCORE.INTER>
-12.2928

>  <SCORE.INTER.CONST>
1

>  <SCORE.INTER.POLAR>
0

>  <SCORE.INTER.ROT>
3

>  <SCORE.INTER.SOLV>
19.411

>  <SCORE.INTER.VDW>
-20.2655

>  <SCORE.INTER.norm>
-0.768302

>  <SCORE.INTRA>
-1.08963

>  <SCORE.INTRA.DIHEDRAL>
-0.946272

>  <SCORE.INTRA.DIHEDRAL.0>
2.1318

>  <SCORE.INTRA.POLAR>
0

>  <SCORE.INTRA.POLAR.0>
0

>  <SCORE.INTRA.REPUL>
0

>  <SCORE.INTRA.REPUL.0>
0

>  <SCORE.INTRA.SOLV>
-0.703101

>  <SCORE.INTRA.SOLV.lig_0>
-58.6125

>  <SCORE.INTRA.VDW>
-0.264944

>  <SCORE.INTRA.VDW.0>
-0.432734

>  <SCORE.INTRA.norm>
-0.0681019

>  <SCORE.RESTR>
0

>  <SCORE.RESTR.CAVITY>
0

>  <SCORE.RESTR.norm>
0

>  <SCORE.SYSTEM>
0

>  <SCORE.SYSTEM.CONST>
0

>  <SCORE.SYSTEM.DIHEDRAL>
0

>  <SCORE.SYSTEM.SOLV>
0

>  <SCORE.SYSTEM.norm>
0

>  <SCORE.heavy>
16

>  <SCORE.norm>
-0.836404

>  <RMSD>
19.102

$$$$
ligand
 OpenBabel11021811463D
libRbt.so/2013.1/901 2013/11/27
 16 16  0  0  0  0  0  0  0  0999 V2000
   32.3795    3.3971    9.6917 P   0  0  2  0  0  0  0  0  0  0  0  0
   31.6059    2.6611    8.6616 O   0  0  0  0  0  0  0  0  0  0  0  0
   31.3667    4.0687   10.7462 O   0  5  0  0  0  0  0  0  0  0  0  0
   33.2337    4.5613    8.9744 O   0  0  0  0  0  0  0  0  0  0  0  0
   36.3618    0.0518   12.1890 C   0  0  2  0  0  0  0  0  0  0  0  0
   37.6097   -0.0871   11.4997 O   0  0  0  0  0  0  0  0  0  0  0  0
   35.5652   -1.2779   12.1531 C   0  0  2  0  0  0  0  0  0  0  0  0
   36.3634   -2.3543   12.7704 N   0  0  0  0  0  0  0  0  0  0  0  0
   35.2579   -1.6257   10.6868 C   0  0  1  0  0  0  0  0  0  0  0  0
   34.5064   -2.8404   10.6160 O   0  0  0  0  0  0  0  0  0  0  0  0
   34.4355   -0.4821   10.0956 C   0  0  2  0  0  0  0  0  0  0  0  0
   34.1419   -0.7828    8.7372 O   0  0  0  0  0  0  0  0  0  0  0  0
   35.2656    0.8276   10.1844 C   0  0  2  0  0  0  0  0  0  0  0  0
   35.5891    1.1296   11.5764 O   0  0  0  0  0  0  0  0  0  0  0  0
   34.4682    2.0206    9.6019 C   0  0  0  0  0  0  0  0  0  0  0  0
   33.3667    2.3678   10.4608 O   0  0  0  0  0  0  0  0  0  0  0  0
  1  2  1  6  0  0  0
  1  3  1  0  0  0  0
  1  4  2  0  0  0  0
  1 16  1  0  0  0  0
  5  6  1  6  0  0  0
  5  7  1  0  0  0  0
  5 14  1  0  0  0  0
  7  8  1  6  0  0  0
  7  9  1  0  0  0  0
  9 10  1  1  0  0  0
  9 11  1  0  0  0  0
 11 12  1  6  0  0  0
 11 13  1  0  0  0  0
 13 14  1  0  0  0  0
 13 15  1  1  0  0  0
 15 16  1  0  0  0  0
M  CHG  1   3  -1
M  END
>  <CHROM.1>
70.15641693,-168.32108917,73.87988255,34.27707455,0.97265810,10.44879848
-2.34148979,0.63906466,-2.98413667

>  <Name>
ligand

>  <RI>
0

>  <Rbt.Current_Directory>
/home/itssahil/PROJECTS/Mol_Feturizer/New_Systems/rnas/3B4C

>  <Rbt.Executable>
rbdock ($Id: //depot/dev/client3/rdock/2013.1/src/exe/rbdock.cxx#4 $)

>  <Rbt.Library>
libRbt.so (2013.1, Build901 2013/11/27)

>  <Rbt.Parameter_File>
/export/apps/rDock/src/rDock_2013.1_src/data/scripts/dock_solv.prm

>  <Rbt.Receptor>
prm/blind_docking_60.prm

>  <SCORE>
-13.3274

>  <SCORE.INTER>
-12.3193

>  <SCORE.INTER.CONST>
1

>  <SCORE.INTER.POLAR>
0

>  <SCORE.INTER.ROT>
3

>  <SCORE.INTER.SOLV>
19.2545

>  <SCORE.INTER.VDW>
-20.231

>  <SCORE.INTER.norm>
-0.769955

>  <SCORE.INTRA>
-1.00812

>  <SCORE.INTRA.DIHEDRAL>
-0.802514

>  <SCORE.INTRA.DIHEDRAL.0>
2.1318

>  <SCORE.INTRA.POLAR>
0

>  <SCORE.INTRA.POLAR.0>
0

>  <SCORE.INTRA.REPUL>
0

>  <SCORE.INTRA.REPUL.0>
0

>  <SCORE.INTRA.SOLV>
-0.694937

>  <SCORE.INTRA.SOLV.lig_0>
-58.6125

>  <SCORE.INTRA.VDW>
-0.259392

>  <SCORE.INTRA.VDW.0>
-0.432734

>  <SCORE.INTRA.norm>
-0.0630074

>  <SCORE.RESTR>
0

>  <SCORE.RESTR.CAVITY>
0

>  <SCORE.RESTR.norm>
0

>  <SCORE.SYSTEM>
0

>  <SCORE.SYSTEM.CONST>
0

>  <SCORE.SYSTEM.DIHEDRAL>
0

>  <SCORE.SYSTEM.SOLV>
0

>  <SCORE.SYSTEM.norm>
0

>  <SCORE.heavy>
16

>  <SCORE.norm>
-0.832963

>  <RMSD>
19.106

$$$$
ligand
 OpenBabel11021811463D
libRbt.so/2013.1/901 2013/11/27
 16 16  0  0  0  0  0  0  0  0999 V2000
   32.3933    3.4242    9.6862 P   0  0  2  0  0  0  0  0  0  0  0  0
   31.6577    2.6693    8.6420 O   0  0  0  0  0  0  0  0  0  0  0  0
   31.3445    4.0690   10.7221 O   0  5  0  0  0  0  0  0  0  0  0  0
   33.2304    4.6103    8.9848 O   0  0  0  0  0  0  0  0  0  0  0  0
   36.3126    0.0376   12.2089 C   0  0  2  0  0  0  0  0  0  0  0  0
   37.5644   -0.1197   11.5306 O   0  0  0  0  0  0  0  0  0  0  0  0
   35.4982   -1.2811   12.1683 C   0  0  2  0  0  0  0  0  0  0  0  0
   36.2762   -2.3673   12.7943 N   0  0  0  0  0  0  0  0  0  0  0  0
   35.1989   -1.6274   10.7000 C   0  0  1  0  0  0  0  0  0  0  0  0
   34.4315   -2.8318   10.6246 O   0  0  0  0  0  0  0  0  0  0  0  0
   34.3974   -0.4737   10.0996 C   0  0  2  0  0  0  0  0  0  0  0  0
   34.1116   -0.7728    8.7392 O   0  0  0  0  0  0  0  0  0  0  0  0
   35.2446    0.8247   10.1935 C   0  0  2  0  0  0  0  0  0  0  0  0
   35.5601    1.1247   11.5877 O   0  0  0  0  0  0  0  0  0  0  0  0
   34.4687    2.0275    9.6020 C   0  0  0  0  0  0  0  0  0  0  0  0
   33.3923    2.4200   10.4731 O   0  0  0  0  0  0  0  0  0  0  0  0
  1  2  1  6  0  0  0
  1  3  1  0  0  0  0
  1  4  2  0  0  0  0
  1 16  1  0  0  0  0
  5  6  1  6  0  0  0
  5  7  1  0  0  0  0
  5 14  1  0  0  0  0
  7  8  1  6  0  0  0
  7  9  1  0  0  0  0
  9 10  1  1  0  0  0
  9 11  1  0  0  0  0
 11 12  1  6  0  0  0
 11 13  1  0  0  0  0
 13 14  1  0  0  0  0
 13 15  1  1  0  0  0
 15 16  1  0  0  0  0
M  CHG  1   3  -1
M  END
>  <CHROM.1>
72.10333387,-166.54576181,69.87614314,34.25374040,0.98071496,10.45464847
-2.32769651,0.64769649,-2.99289851

>  <Name>
ligand

>  <RI>
0

>  <Rbt.Current_Directory>
/home/itssahil/PROJECTS/Mol_Feturizer/New_Systems/rnas/3B4C

>  <Rbt.Executable>
rbdock ($Id: //depot/dev/client3/rdock/2013.1/src/exe/rbdock.cxx#4 $)

>  <Rbt.Library>
libRbt.so (2013.1, Build901 2013/11/27)

>  <Rbt.Parameter_File>
/export/apps/rDock/src/rDock_2013.1_src/data/scripts/dock_solv.prm

>  <Rbt.Receptor>
prm/blind_docking_80.prm

>  <SCORE>
-13.3206

>  <SCORE.INTER>
-12.362

>  <SCORE.INTER.CONST>
1

>  <SCORE.INTER.POLAR>
0

>  <SCORE.INTER.ROT>
3

>  <SCORE.INTER.SOLV>
19.567

>  <SCORE.INTER.VDW>
-20.3637

>  <SCORE.INTER.norm>
-0.772627

>  <SCORE.INTRA>
-0.964016

>  <SCORE.INTRA.DIHEDRAL>
-0.596754

>  <SCORE.INTRA.DIHEDRAL.0>
2.1318

>  <SCORE.INTRA.POLAR>
0

>  <SCORE.INTRA.POLAR.0>
0

>  <SCORE.INTRA.REPUL>
0

>  <SCORE.INTRA.REPUL.0>
0

>  <SCORE.INTRA.SOLV>
-0.735444

>  <SCORE.INTRA.SOLV.lig_0>
-58.6125

>  <SCORE.INTRA.VDW>
-0.297916

>  <SCORE.INTRA.VDW.0>
-0.432734

>  <SCORE.INTRA.norm>
-0.060251

>  <SCORE.RESTR>
0.00548977

>  <SCORE.RESTR.CAVITY>
0.00548977

>  <SCORE.RESTR.norm>
0.000343111

>  <SCORE.SYSTEM>
0

>  <SCORE.SYSTEM.CONST>
0

>  <SCORE.SYSTEM.DIHEDRAL>
0

>  <SCORE.SYSTEM.SOLV>
0

>  <SCORE.SYSTEM.norm>
0

>  <SCORE.heavy>
16

>  <SCORE.norm>
-0.832535

>  <RMSD>
19.115

$$$$
ligand
 OpenBabel11021811463D
libRbt.so/2013.1/901 2013/11/27
 16 16  0  0  0  0  0  0  0  0999 V2000
   32.3078    3.3228    9.7021 P   0  0  2  0  0  0  0  0  0  0  0  0
   31.6359    2.5439    8.6329 O   0  0  0  0  0  0  0  0  0  0  0  0
   31.2045    3.8956   10.7236 O   0  5  0  0  0  0  0  0  0  0  0  0
   33.0936    4.5620    9.0339 O   0  0  0  0  0  0  0  0  0  0  0  0
   36.4329    0.0624   12.1645 C   0  0  2  0  0  0  0  0  0  0  0  0
   37.6481   -0.1020   11.4241 O   0  0  0  0  0  0  0  0  0  0  0  0
   35.6082   -1.2505   12.1619 C   0  0  2  0  0  0  0  0  0  0  0  0
   36.4087   -2.3435   12.7461 N   0  0  0  0  0  0  0  0  0  0  0  0
   35.2334   -1.5912   10.7097 C   0  0  1  0  0  0  0  0  0  0  0  0
   34.4546   -2.7900   10.6704 O   0  0  0  0  0  0  0  0  0  0  0  0
   34.4111   -0.4304   10.1526 C   0  0  2  0  0  0  0  0  0  0  0  0
   34.0554   -0.7243    8.8076 O   0  0  0  0  0  0  0  0  0  0  0  0
   35.2710    0.8617   10.2066 C   0  0  2  0  0  0  0  0  0  0  0  0
   35.6580    1.1563   11.5839 O   0  0  0  0  0  0  0  0  0  0  0  0
   34.4751    2.0713    9.6571 C   0  0  0  0  0  0  0  0  0  0  0  0
   33.3434    2.3631   10.4972 O   0  0  0  0  0  0  0  0  0  0  0  0
  1  2  1  6  0  0  0
  1  3  1  0  0  0  0
  1  4  2  0  0  0  0
  1 16  1  0  0  0  0
  5  6  1  6  0  0  0
  5  7  1  0  0  0  0
  5 14  1  0  0  0  0
  7  8  1  6  0  0  0
  7  9  1  0  0  0  0
  9 10  1  1  0  0  0
  9 11  1  0  0  0  0
 11 12  1  6  0  0  0
 11 13  1  0  0  0  0
 13 14  1  0  0  0  0
 13 15  1  1  0  0  0
 15 16  1  0  0  0  0
M  CHG  1   3  -1
M  END
>  <CHROM.1>
64.84332647,-163.86461353,71.44792618,34.25407713,0.96410804,10.46269543
2.33885421,-0.58290995,0.11027626

>  <Name>
ligand

>  <RI>
0

>  <Rbt.Current_Directory>
/home/itssahil/PROJECTS/Mol_Feturizer/New_Systems/rnas/3B4C

>  <Rbt.Executable>
rbdock ($Id: //depot/dev/client3/rdock/2013.1/src/exe/rbdock.cxx#4 $)

>  <Rbt.Library>
libRbt.so (2013.1, Build901 2013/11/27)

>  <Rbt.Parameter_File>
/export/apps/rDock/src/rDock_2013.1_src/data/scripts/dock_solv.prm

>  <Rbt.Receptor>
prm/blind_docking_100.prm

>  <SCORE>
-13.0829

>  <SCORE.INTER>
-12.1055

>  <SCORE.INTER.CONST>
1

>  <SCORE.INTER.POLAR>
0

>  <SCORE.INTER.ROT>
3

>  <SCORE.INTER.SOLV>
19.9461

>  <SCORE.INTER.VDW>
-20.319

>  <SCORE.INTER.norm>
-0.756593

>  <SCORE.INTRA>
-0.977436

>  <SCORE.INTRA.DIHEDRAL>
-0.620794

>  <SCORE.INTRA.DIHEDRAL.0>
2.1318

>  <SCORE.INTRA.POLAR>
0

>  <SCORE.INTRA.POLAR.0>
0

>  <SCORE.INTRA.REPUL>
0

>  <SCORE.INTRA.REPUL.0>
0

>  <SCORE.INTRA.SOLV>
-0.696754

>  <SCORE.INTRA.SOLV.lig_0>
-58.6125

>  <SCORE.INTRA.VDW>
-0.318662

>  <SCORE.INTRA.VDW.0>
-0.432734

>  <SCORE.INTRA.norm>
-0.0610898

>  <SCORE.RESTR>
0

>  <SCORE.RESTR.CAVITY>
0

>  <SCORE.RESTR.norm>
0

>  <SCORE.SYSTEM>
0

>  <SCORE.SYSTEM.CONST>
0

>  <SCORE.SYSTEM.DIHEDRAL>
0

>  <SCORE.SYSTEM.SOLV>
0

>  <SCORE.SYSTEM.norm>
0

>  <SCORE.heavy>
16

>  <SCORE.norm>
-0.817683

>  <RMSD>
19.122

$$$$
ligand
 OpenBabel11021811463D
libRbt.so/2013.1/901 2013/11/27
 16 16  0  0  0  0  0  0  0  0999 V2000
   34.5302   -2.0533   10.8688 P   0  0  2  0  0  0  0  0  0  0  0  0
   34.1398   -1.7381   12.2651 O   0  0  0  0  0  0  0  0  0  0  0  0
   33.6056   -3.2448   10.3083 O   0  5  0  0  0  0  0  0  0  0  0  0
   36.0692   -2.5338   10.8499 O   0  0  0  0  0  0  0  0  0  0  0  0
   35.9147    1.9838    7.1112 C   0  0  2  0  0  0  0  0  0  0  0  0
   36.8442    2.9795    7.5543 O   0  0  0  0  0  0  0  0  0  0  0  0
   34.5268    2.6159    6.8317 C   0  0  2  0  0  0  0  0  0  0  0  0
   34.6565    3.6725    5.8102 N   0  0  0  0  0  0  0  0  0  0  0  0
   33.9879    3.2143    8.1420 C   0  0  1  0  0  0  0  0  0  0  0  0
   32.6976    3.7919    7.9256 O   0  0  0  0  0  0  0  0  0  0  0  0
   33.8757    2.0837    9.1632 C   0  0  2  0  0  0  0  0  0  0  0  0
   33.3806    2.6165   10.3850 O   0  0  0  0  0  0  0  0  0  0  0  0
   35.2843    1.4672    9.3823 C   0  0  2  0  0  0  0  0  0  0  0  0
   35.8073    0.9379    8.1254 O   0  0  0  0  0  0  0  0  0  0  0  0
   35.2203    0.3082   10.4075 C   0  0  0  0  0  0  0  0  0  0  0  0
   34.3415   -0.7344    9.9466 O   0  0  0  0  0  0  0  0  0  0  0  0
  1  2  1  1  0  0  0
  1  3  1  0  0  0  0
  1  4  2  0  0  0  0
  1 16  1  0  0  0  0
  5  6  1  1  0  0  0
  5  7  1  0  0  0  0
  5 14  1  0  0  0  0
  7  8  1  6  0  0  0
  7  9  1  0  0  0  0
  9 10  1  6  0  0  0
  9 11  1  0  0  0  0
 11 12  1  1  0  0  0
 11 13  1  0  0  0  0
 13 14  1  0  0  0  0
 13 15  1  1  0  0  0
 15 16  1  0  0  0  0
M  CHG  1   3  -1
M  END
>  <CHROM.1>
60.03767193,168.17018048,62.78805967,34.66495164,0.68750480,9.24524643,-1.58549735
0.57734010,-0.58778193

>  <Name>
ligand

>  <RI>
0

>  <Rbt.Current_Directory>
/home/itssahil/PROJECTS/Mol_Feturizer/New_Systems/rnas/3B4C

>  <Rbt.Executable>
rbdock ($Id: //depot/dev/client3/rdock/2013.1/src/exe/rbdock.cxx#4 $)

>  <Rbt.Library>
libRbt.so (2013.1, Build901 2013/11/27)

>  <Rbt.Parameter_File>
/export/apps/rDock/src/rDock_2013.1_src/data/scripts/dock_solv.prm

>  <Rbt.Receptor>
prm/blind_docking_40.prm

>  <SCORE>
-9.70082

>  <SCORE.INTER>
-8.34895

>  <SCORE.INTER.CONST>
1

>  <SCORE.INTER.POLAR>
0

>  <SCORE.INTER.ROT>
3

>  <SCORE.INTER.SOLV>
19.2451

>  <SCORE.INTER.VDW>
-17.581

>  <SCORE.INTER.norm>
-0.521809

>  <SCORE.INTRA>
-1.35187

>  <SCORE.INTRA.DIHEDRAL>
-1.44687

>  <SCORE.INTRA.DIHEDRAL.0>
2.1318

>  <SCORE.INTRA.POLAR>
0

>  <SCORE.INTRA.POLAR.0>
0

>  <SCORE.INTRA.REPUL>
0

>  <SCORE.INTRA.REPUL.0>
0

>  <SCORE.INTRA.SOLV>
-0.714635

>  <SCORE.INTRA.SOLV.lig_0>
-58.6125

>  <SCORE.INTRA.VDW>
-0.271121

>  <SCORE.INTRA.VDW.0>
-0.432734

>  <SCORE.INTRA.norm>
-0.084492

>  <SCORE.RESTR>
0

>  <SCORE.RESTR.CAVITY>
0

>  <SCORE.RESTR.norm>
0

>  <SCORE.SYSTEM>
0

>  <SCORE.SYSTEM.CONST>
0

>  <SCORE.SYSTEM.DIHEDRAL>
0

>  <SCORE.SYSTEM.SOLV>
0

>  <SCORE.SYSTEM.norm>
0

>  <SCORE.heavy>
16

>  <SCORE.norm>
-0.606301

>  <RMSD>
19.175

$$$$
ligand
 OpenBabel11021811463D
libRbt.so/2013.1/901 2013/11/27
 16 16  0  0  0  0  0  0  0  0999 V2000
   34.4992   -2.0571   10.8491 P   0  0  2  0  0  0  0  0  0  0  0  0
   33.5145   -3.0858   10.4326 O   0  0  0  0  0  0  0  0  0  0  0  0
   35.9885   -2.6468   10.6984 O   0  5  0  0  0  0  0  0  0  0  0  0
   34.2413   -1.6793   12.3952 O   0  0  0  0  0  0  0  0  0  0  0  0
   35.9041    1.9636    7.0377 C   0  0  2  0  0  0  0  0  0  0  0  0
   36.8359    2.9610    7.4721 O   0  0  0  0  0  0  0  0  0  0  0  0
   34.5099    2.5915    6.7809 C   0  0  2  0  0  0  0  0  0  0  0  0
   34.6210    3.6532    5.7624 N   0  0  0  0  0  0  0  0  0  0  0  0
   33.9874    3.1820    8.1014 C   0  0  1  0  0  0  0  0  0  0  0  0
   32.6920    3.7554    7.9059 O   0  0  0  0  0  0  0  0  0  0  0  0
   33.8941    2.0463    9.1190 C   0  0  2  0  0  0  0  0  0  0  0  0
   33.4144    2.5718   10.3501 O   0  0  0  0  0  0  0  0  0  0  0  0
   35.3081    1.4345    9.3152 C   0  0  2  0  0  0  0  0  0  0  0  0
   35.8152    0.9128    8.0487 O   0  0  0  0  0  0  0  0  0  0  0  0
   35.2632    0.2707   10.3360 C   0  0  0  0  0  0  0  0  0  0  0  0
   34.3336   -0.7440    9.9142 O   0  0  0  0  0  0  0  0  0  0  0  0
  1  2  1  6  0  0  0
  1  3  1  0  0  0  0
  1  4  2  0  0  0  0
  1 16  1  0  0  0  0
  5  6  1  1  0  0  0
  5  7  1  0  0  0  0
  5 14  1  0  0  0  0
  7  8  1  6  0  0  0
  7  9  1  0  0  0  0
  9 10  1  6  0  0  0
  9 11  1  0  0  0  0
 11 12  1  1  0  0  0
 11 13  1  0  0  0  0
 13 14  1  0  0  0  0
 13 15  1  1  0  0  0
 15 16  1  0  0  0  0
M  CHG  1   3  -1
M  END
>  <CHROM.1>
57.28315717,169.95118966,178.52927152,34.65909859,0.67441260,9.21283778,-1.59111476
0.59047408,-0.60045237

>  <Name>
ligand

>  <RI>
0

>  <Rbt.Current_Directory>
/home/itssahil/PROJECTS/Mol_Feturizer/New_Systems/rnas/3B4C

>  <Rbt.Executable>
rbdock ($Id: //depot/dev/client3/rdock/2013.1/src/exe/rbdock.cxx#4 $)

>  <Rbt.Library>
libRbt.so (2013.1, Build901 2013/11/27)

>  <Rbt.Parameter_File>
/export/apps/rDock/src/rDock_2013.1_src/data/scripts/dock_solv.prm

>  <Rbt.Receptor>
prm/blind_docking_40.prm

>  <SCORE>
-10.5787

>  <SCORE.INTER>
-9.34989

>  <SCORE.INTER.CONST>
1

>  <SCORE.INTER.POLAR>
0

>  <SCORE.INTER.ROT>
3

>  <SCORE.INTER.SOLV>
16.9885

>  <SCORE.INTER.VDW>
-17.4961

>  <SCORE.INTER.norm>
-0.584368

>  <SCORE.INTRA>
-1.22885

>  <SCORE.INTRA.DIHEDRAL>
-1.61348

>  <SCORE.INTRA.DIHEDRAL.0>
2.1318

>  <SCORE.INTRA.POLAR>
0

>  <SCORE.INTRA.POLAR.0>
0

>  <SCORE.INTRA.REPUL>
0

>  <SCORE.INTRA.REPUL.0>
0

>  <SCORE.INTRA.SOLV>
-0.140036

>  <SCORE.INTRA.SOLV.lig_0>
-58.6125

>  <SCORE.INTRA.VDW>
-0.352092

>  <SCORE.INTRA.VDW.0>
-0.432734

>  <SCORE.INTRA.norm>
-0.0768031

>  <SCORE.RESTR>
0

>  <SCORE.RESTR.CAVITY>
0

>  <SCORE.RESTR.norm>
0

>  <SCORE.SYSTEM>
0

>  <SCORE.SYSTEM.CONST>
0

>  <SCORE.SYSTEM.DIHEDRAL>
0

>  <SCORE.SYSTEM.SOLV>
0

>  <SCORE.SYSTEM.norm>
0

>  <SCORE.heavy>
16

>  <SCORE.norm>
-0.661171

>  <RMSD>
19.206

$$$$
ligand
 OpenBabel11021811463D
libRbt.so/2013.1/901 2013/11/27
 16 16  0  0  0  0  0  0  0  0999 V2000
   34.4957   -2.0656   10.8601 P   0  0  2  0  0  0  0  0  0  0  0  0
   33.5039   -3.0898   10.4495 O   0  0  0  0  0  0  0  0  0  0  0  0
   35.9808   -2.6680   10.7168 O   0  5  0  0  0  0  0  0  0  0  0  0
   34.2379   -1.6741   12.4028 O   0  0  0  0  0  0  0  0  0  0  0  0
   35.9108    1.9426    7.0345 C   0  0  2  0  0  0  0  0  0  0  0  0
   36.8488    2.9359    7.4649 O   0  0  0  0  0  0  0  0  0  0  0  0
   34.5188    2.5769    6.7817 C   0  0  2  0  0  0  0  0  0  0  0  0
   34.6315    3.6372    5.7621 N   0  0  0  0  0  0  0  0  0  0  0  0
   34.0035    3.1709    8.1035 C   0  0  1  0  0  0  0  0  0  0  0  0
   32.7102    3.7504    7.9119 O   0  0  0  0  0  0  0  0  0  0  0  0
   33.9082    2.0366    9.1223 C   0  0  2  0  0  0  0  0  0  0  0  0
   33.4351    2.5653   10.3546 O   0  0  0  0  0  0  0  0  0  0  0  0
   35.3199    1.4182    9.3144 C   0  0  2  0  0  0  0  0  0  0  0  0
   35.8203    0.8930    8.0466 O   0  0  0  0  0  0  0  0  0  0  0  0
   35.2728    0.2554   10.3363 C   0  0  0  0  0  0  0  0  0  0  0  0
   34.3422   -0.7584    9.9149 O   0  0  0  0  0  0  0  0  0  0  0  0
  1  2  1  6  0  0  0
  1  3  1  0  0  0  0
  1  4  2  0  0  0  0
  1 16  1  0  0  0  0
  5  6  1  1  0  0  0
  5  7  1  0  0  0  0
  5 14  1  0  0  0  0
  7  8  1  6  0  0  0
  7  9  1  0  0  0  0
  9 10  1  6  0  0  0
  9 11  1  0  0  0  0
 11 12  1  1  0  0  0
 11 13  1  0  0  0  0
 13 14  1  0  0  0  0
 13 15  1  1  0  0  0
 15 16  1  0  0  0  0
M  CHG  1   3  -1
M  END
>  <CHROM.1>
57.58118023,170.48274638,178.16398241,34.66554047,0.66208842,9.21714139,-1.59449777
0.59519565,-0.60058122

>  <Name>
ligand

>  <RI>
0

>  <Rbt.Current_Directory>
/home/itssahil/PROJECTS/Mol_Feturizer/New_Systems/rnas/3B4C

>  <Rbt.Executable>
rbdock ($Id: //depot/dev/client3/rdock/2013.1/src/exe/rbdock.cxx#4 $)

>  <Rbt.Library>
libRbt.so (2013.1, Build901 2013/11/27)

>  <Rbt.Parameter_File>
/export/apps/rDock/src/rDock_2013.1_src/data/scripts/dock_solv.prm

>  <Rbt.Receptor>
prm/blind_docking_60.prm

>  <SCORE>
-10.5529

>  <SCORE.INTER>
-9.29493

>  <SCORE.INTER.CONST>
1

>  <SCORE.INTER.POLAR>
0

>  <SCORE.INTER.ROT>
3

>  <SCORE.INTER.SOLV>
17.0195

>  <SCORE.INTER.VDW>
-17.4698

>  <SCORE.INTER.norm>
-0.580933

>  <SCORE.INTRA>
-1.25795

>  <SCORE.INTRA.DIHEDRAL>
-1.66613

>  <SCORE.INTRA.DIHEDRAL.0>
2.1318

>  <SCORE.INTRA.POLAR>
0

>  <SCORE.INTRA.POLAR.0>
0

>  <SCORE.INTRA.REPUL>
0

>  <SCORE.INTRA.REPUL.0>
0

>  <SCORE.INTRA.SOLV>
-0.143399

>  <SCORE.INTRA.SOLV.lig_0>
-58.6125

>  <SCORE.INTRA.VDW>
-0.353191

>  <SCORE.INTRA.VDW.0>
-0.432734

>  <SCORE.INTRA.norm>
-0.0786221

>  <SCORE.RESTR>
0

>  <SCORE.RESTR.CAVITY>
0

>  <SCORE.RESTR.norm>
0

>  <SCORE.SYSTEM>
0

>  <SCORE.SYSTEM.CONST>
0

>  <SCORE.SYSTEM.DIHEDRAL>
0

>  <SCORE.SYSTEM.SOLV>
0

>  <SCORE.SYSTEM.norm>
0

>  <SCORE.heavy>
16

>  <SCORE.norm>
-0.659556

>  <RMSD>
19.207

$$$$
ligand
 OpenBabel11021811463D
libRbt.so/2013.1/901 2013/11/27
 16 16  0  0  0  0  0  0  0  0999 V2000
   32.3947    3.4140    9.6292 P   0  0  2  0  0  0  0  0  0  0  0  0
   31.5976    2.6571    8.6327 O   0  0  0  0  0  0  0  0  0  0  0  0
   31.4058    4.1202   10.6839 O   0  5  0  0  0  0  0  0  0  0  0  0
   33.2436    4.5530    8.8665 O   0  0  0  0  0  0  0  0  0  0  0  0
   36.2616   -0.0739   12.0951 C   0  0  2  0  0  0  0  0  0  0  0  0
   37.4941   -0.2747   11.3934 O   0  0  0  0  0  0  0  0  0  0  0  0
   35.4038   -1.3654   12.0759 C   0  0  2  0  0  0  0  0  0  0  0  0
   36.1579   -2.4742   12.6913 N   0  0  0  0  0  0  0  0  0  0  0  0
   35.0647   -1.7069   10.6152 C   0  0  1  0  0  0  0  0  0  0  0  0
   34.2569   -2.8857   10.5598 O   0  0  0  0  0  0  0  0  0  0  0  0
   34.2899   -0.5296   10.0256 C   0  0  2  0  0  0  0  0  0  0  0  0
   33.9679   -0.8241    8.6723 O   0  0  0  0  0  0  0  0  0  0  0  0
   35.1808    0.7405   10.0975 C   0  0  2  0  0  0  0  0  0  0  0  0
   35.5331    1.0351   11.4841 O   0  0  0  0  0  0  0  0  0  0  0  0
   34.4333    1.9660    9.5161 C   0  0  0  0  0  0  0  0  0  0  0  0
   33.3888    2.3980   10.4071 O   0  0  0  0  0  0  0  0  0  0  0  0
  1  2  1  6  0  0  0
  1  3  1  0  0  0  0
  1  4  2  0  0  0  0
  1 16  1  0  0  0  0
  5  6  1  6  0  0  0
  5  7  1  0  0  0  0
  5 14  1  0  0  0  0
  7  8  1  6  0  0  0
  7  9  1  0  0  0  0
  9 10  1  1  0  0  0
  9 11  1  0  0  0  0
 11 12  1  6  0  0  0
 11 13  1  0  0  0  0
 13 14  1  0  0  0  0
 13 15  1  1  0  0  0
 15 16  1  0  0  0  0
M  CHG  1   3  -1
M  END
>  <CHROM.1>
72.18456946,-165.68944777,70.90197048,34.19641227,0.92387932,10.37499382
-2.28741151,0.63132192,-3.02359720

>  <Name>
ligand

>  <RI>
0

>  <Rbt.Current_Directory>
/home/itssahil/PROJECTS/Mol_Feturizer/New_Systems/rnas/3B4C

>  <Rbt.Executable>
rbdock ($Id: //depot/dev/client3/rdock/2013.1/src/exe/rbdock.cxx#4 $)

>  <Rbt.Library>
libRbt.so (2013.1, Build901 2013/11/27)

>  <Rbt.Parameter_File>
/export/apps/rDock/src/rDock_2013.1_src/data/scripts/dock_solv.prm

>  <Rbt.Receptor>
prm/blind_docking_40.prm

>  <SCORE>
-12.6787

>  <SCORE.INTER>
-11.8744

>  <SCORE.INTER.CONST>
1

>  <SCORE.INTER.POLAR>
0

>  <SCORE.INTER.ROT>
3

>  <SCORE.INTER.SOLV>
19.5648

>  <SCORE.INTER.VDW>
-20.0378

>  <SCORE.INTER.norm>
-0.742149

>  <SCORE.INTRA>
-0.87947

>  <SCORE.INTRA.DIHEDRAL>
-0.449203

>  <SCORE.INTRA.DIHEDRAL.0>
2.1318

>  <SCORE.INTRA.POLAR>
0

>  <SCORE.INTRA.POLAR.0>
0

>  <SCORE.INTRA.REPUL>
0

>  <SCORE.INTRA.REPUL.0>
0

>  <SCORE.INTRA.SOLV>
-0.722829

>  <SCORE.INTRA.SOLV.lig_0>
-58.6125

>  <SCORE.INTRA.VDW>
-0.293454

>  <SCORE.INTRA.VDW.0>
-0.432734

>  <SCORE.INTRA.norm>
-0.0549669

>  <SCORE.RESTR>
0.0752004

>  <SCORE.RESTR.CAVITY>
0.0752004

>  <SCORE.RESTR.norm>
0.00470002

>  <SCORE.SYSTEM>
0

>  <SCORE.SYSTEM.CONST>
0

>  <SCORE.SYSTEM.DIHEDRAL>
0

>  <SCORE.SYSTEM.SOLV>
0

>  <SCORE.SYSTEM.norm>
0

>  <SCORE.heavy>
16

>  <SCORE.norm>
-0.792416

>  <RMSD>
19.210

$$$$
ligand
 OpenBabel11021811463D
libRbt.so/2013.1/901 2013/11/27
 16 16  0  0  0  0  0  0  0  0999 V2000
   32.5657    1.4899    7.1516 P   0  0  2  0  0  0  0  0  0  0  0  0
   31.2453    0.8236    7.0333 O   0  0  0  0  0  0  0  0  0  0  0  0
   33.2506    1.5868    5.6988 O   0  5  0  0  0  0  0  0  0  0  0  0
   33.5121    0.6118    8.1173 O   0  0  0  0  0  0  0  0  0  0  0  0
   32.8780    7.2550    7.8976 C   0  0  2  0  0  0  0  0  0  0  0  0
   34.1501    7.7668    8.3118 O   0  0  0  0  0  0  0  0  0  0  0  0
   31.8468    7.3514    9.0514 C   0  0  2  0  0  0  0  0  0  0  0  0
   31.7080    8.7562    9.4803 N   0  0  0  0  0  0  0  0  0  0  0  0
   32.3424    6.4897   10.2250 C   0  0  1  0  0  0  0  0  0  0  0  0
   31.4047    6.5404   11.3036 O   0  0  0  0  0  0  0  0  0  0  0  0
   32.4717    5.0506    9.7289 C   0  0  2  0  0  0  0  0  0  0  0  0
   32.9318    4.2359   10.7996 O   0  0  0  0  0  0  0  0  0  0  0  0
   33.4902    5.0162    8.5569 C   0  0  2  0  0  0  0  0  0  0  0  0
   33.0334    5.8691    7.4627 O   0  0  0  0  0  0  0  0  0  0  0  0
   33.6501    3.5746    8.0140 C   0  0  0  0  0  0  0  0  0  0  0  0
   32.3650    2.9775    7.7620 O   0  0  0  0  0  0  0  0  0  0  0  0
  1  2  1  6  0  0  0
  1  3  1  0  0  0  0
  1  4  2  0  0  0  0
  1 16  1  0  0  0  0
  5  6  1  1  0  0  0
  5  7  1  0  0  0  0
  5 14  1  0  0  0  0
  7  8  1  1  0  0  0
  7  9  1  0  0  0  0
  9 10  1  1  0  0  0
  9 11  1  0  0  0  0
 11 12  1  1  0  0  0
 11 13  1  0  0  0  0
 13 14  1  0  0  0  0
 13 15  1  6  0  0  0
 15 16  1  0  0  0  0
M  CHG  1   3  -1
M  END
>  <CHROM.1>
49.36022104,178.21474178,173.83675242,32.67552039,4.40787488,8.41871269,-1.46742136
1.22400533,0.28119297

>  <Name>
ligand

>  <RI>
0

>  <Rbt.Current_Directory>
/home/itssahil/PROJECTS/Mol_Feturizer/New_Systems/rnas/3B4C

>  <Rbt.Executable>
rbdock ($Id: //depot/dev/client3/rdock/2013.1/src/exe/rbdock.cxx#4 $)

>  <Rbt.Library>
libRbt.so (2013.1, Build901 2013/11/27)

>  <Rbt.Parameter_File>
/export/apps/rDock/src/rDock_2013.1_src/data/scripts/dock_solv.prm

>  <Rbt.Receptor>
prm/blind_docking_100.prm

>  <SCORE>
-8.17023

>  <SCORE.INTER>
-6.98942

>  <SCORE.INTER.CONST>
1

>  <SCORE.INTER.POLAR>
0

>  <SCORE.INTER.ROT>
3

>  <SCORE.INTER.SOLV>
12.6168

>  <SCORE.INTER.VDW>
-14.4652

>  <SCORE.INTER.norm>
-0.436839

>  <SCORE.INTRA>
-1.18096

>  <SCORE.INTRA.DIHEDRAL>
-1.65793

>  <SCORE.INTRA.DIHEDRAL.0>
2.1318

>  <SCORE.INTRA.POLAR>
0

>  <SCORE.INTRA.POLAR.0>
0

>  <SCORE.INTRA.REPUL>
0

>  <SCORE.INTRA.REPUL.0>
0

>  <SCORE.INTRA.SOLV>
-0.168627

>  <SCORE.INTRA.SOLV.lig_0>
-58.6125

>  <SCORE.INTRA.VDW>
-0.267678

>  <SCORE.INTRA.VDW.0>
-0.432734

>  <SCORE.INTRA.norm>
-0.0738099

>  <SCORE.RESTR>
0.000152384

>  <SCORE.RESTR.CAVITY>
0.000152384

>  <SCORE.RESTR.norm>
9.52403e-06

>  <SCORE.SYSTEM>
0

>  <SCORE.SYSTEM.CONST>
0

>  <SCORE.SYSTEM.DIHEDRAL>
0

>  <SCORE.SYSTEM.SOLV>
0

>  <SCORE.SYSTEM.norm>
0

>  <SCORE.heavy>
16

>  <SCORE.norm>
-0.510639

>  <RMSD>
19.220

$$$$
ligand
 OpenBabel11021811463D
libRbt.so/2013.1/901 2013/11/27
 16 16  0  0  0  0  0  0  0  0999 V2000
   32.3850    3.3727    9.6767 P   0  0  2  0  0  0  0  0  0  0  0  0
   31.3865    2.6378    8.8617 O   0  0  0  0  0  0  0  0  0  0  0  0
   31.6281    4.2327   10.8065 O   0  5  0  0  0  0  0  0  0  0  0  0
   33.2069    4.3768    8.7198 O   0  0  0  0  0  0  0  0  0  0  0  0
   34.8185   -1.6923   10.9411 C   0  0  2  0  0  0  0  0  0  0  0  0
   35.4307   -1.2620   12.1626 O   0  0  0  0  0  0  0  0  0  0  0  0
   35.8828   -2.2535    9.9631 C   0  0  2  0  0  0  0  0  0  0  0  0
   36.5940   -3.3819   10.5938 N   0  0  0  0  0  0  0  0  0  0  0  0
   36.8764   -1.1299    9.6226 C   0  0  1  0  0  0  0  0  0  0  0  0
   37.8648   -1.6077    8.7060 O   0  0  0  0  0  0  0  0  0  0  0  0
   36.0916    0.0110    8.9773 C   0  0  2  0  0  0  0  0  0  0  0  0
   36.9925    1.0631    8.6561 O   0  0  0  0  0  0  0  0  0  0  0  0
   35.0221    0.5137    9.9851 C   0  0  2  0  0  0  0  0  0  0  0  0
   34.1069   -0.5693   10.3358 O   0  0  0  0  0  0  0  0  0  0  0  0
   34.1936    1.6694    9.3716 C   0  0  0  0  0  0  0  0  0  0  0  0
   33.3915    2.3140   10.3779 O   0  0  0  0  0  0  0  0  0  0  0  0
  1  2  1  6  0  0  0
  1  3  1  0  0  0  0
  1  4  2  0  0  0  0
  1 16  1  0  0  0  0
  5  6  1  1  0  0  0
  5  7  1  0  0  0  0
  5 14  1  0  0  0  0
  7  8  1  1  0  0  0
  7  9  1  0  0  0  0
  9 10  1  6  0  0  0
  9 11  1  0  0  0  0
 11 12  1  1  0  0  0
 11 13  1  0  0  0  0
 13 14  1  0  0  0  0
 13 15  1  6  0  0  0
 15 16  1  0  0  0  0
M  CHG  1   3  -1
M  END
>  <CHROM.1>
-168.48763098,-172.03761291,67.31880188,34.53273778,0.79423863,9.84475148
2.38346992,0.55091575,-0.57434823

>  <Name>
ligand

>  <RI>
0

>  <Rbt.Current_Directory>
/home/itssahil/PROJECTS/Mol_Feturizer/New_Systems/rnas/3B4C

>  <Rbt.Executable>
rbdock ($Id: //depot/dev/client3/rdock/2013.1/src/exe/rbdock.cxx#4 $)

>  <Rbt.Library>
libRbt.so (2013.1, Build901 2013/11/27)

>  <Rbt.Parameter_File>
/export/apps/rDock/src/rDock_2013.1_src/data/scripts/dock_solv.prm

>  <Rbt.Receptor>
prm/blind_docking_60.prm

>  <SCORE>
-9.21252

>  <SCORE.INTER>
-7.9232

>  <SCORE.INTER.CONST>
1

>  <SCORE.INTER.POLAR>
0

>  <SCORE.INTER.ROT>
3

>  <SCORE.INTER.SOLV>
15.4898

>  <SCORE.INTER.VDW>
-16.0454

>  <SCORE.INTER.norm>
-0.4952

>  <SCORE.INTRA>
-1.28932

>  <SCORE.INTRA.DIHEDRAL>
-1.26334

>  <SCORE.INTRA.DIHEDRAL.0>
2.1318

>  <SCORE.INTRA.POLAR>
0

>  <SCORE.INTRA.POLAR.0>
0

>  <SCORE.INTRA.REPUL>
0

>  <SCORE.INTRA.REPUL.0>
0

>  <SCORE.INTRA.SOLV>
-0.969012

>  <SCORE.INTRA.SOLV.lig_0>
-58.6125

>  <SCORE.INTRA.VDW>
-0.173146

>  <SCORE.INTRA.VDW.0>
-0.432734

>  <SCORE.INTRA.norm>
-0.0805826

>  <SCORE.RESTR>
0

>  <SCORE.RESTR.CAVITY>
0

>  <SCORE.RESTR.norm>
0

>  <SCORE.SYSTEM>
0

>  <SCORE.SYSTEM.CONST>
0

>  <SCORE.SYSTEM.DIHEDRAL>
0

>  <SCORE.SYSTEM.SOLV>
0

>  <SCORE.SYSTEM.norm>
0

>  <SCORE.heavy>
16

>  <SCORE.norm>
-0.575782

>  <RMSD>
19.252

$$$$
ligand
 OpenBabel11021811463D
libRbt.so/2013.1/901 2013/11/27
 16 16  0  0  0  0  0  0  0  0999 V2000
   33.8561    3.1352    8.6604 P   0  0  2  0  0  0  0  0  0  0  0  0
   33.5665    4.0361    9.8032 O   0  0  0  0  0  0  0  0  0  0  0  0
   35.3388    3.4275    8.1083 O   0  5  0  0  0  0  0  0  0  0  0  0
   32.7940    3.4241    7.4822 O   0  0  0  0  0  0  0  0  0  0  0  0
   34.9086   -2.4134    9.4749 C   0  0  2  0  0  0  0  0  0  0  0  0
   33.6707   -2.7724   10.0998 O   0  0  0  0  0  0  0  0  0  0  0  0
   36.1096   -2.8013   10.3756 C   0  0  2  0  0  0  0  0  0  0  0  0
   36.0839   -4.2519   10.6437 N   0  0  0  0  0  0  0  0  0  0  0  0
   36.0041   -2.0204   11.6963 C   0  0  1  0  0  0  0  0  0  0  0  0
   37.1081   -2.3404   12.5472 O   0  0  0  0  0  0  0  0  0  0  0  0
   36.0319   -0.5296   11.3637 C   0  0  2  0  0  0  0  0  0  0  0  0
   35.9330    0.2121   12.5728 O   0  0  0  0  0  0  0  0  0  0  0  0
   34.8291   -0.2023   10.4374 C   0  0  2  0  0  0  0  0  0  0  0  0
   34.9138   -0.9781    9.2028 O   0  0  0  0  0  0  0  0  0  0  0  0
   34.8188    1.3012   10.0657 C   0  0  0  0  0  0  0  0  0  0  0  0
   33.7483    1.5941    9.1493 O   0  0  0  0  0  0  0  0  0  0  0  0
  1  2  1  1  0  0  0
  1  3  1  0  0  0  0
  1  4  2  0  0  0  0
  1 16  1  0  0  0  0
  5  6  1  1  0  0  0
  5  7  1  0  0  0  0
  5 14  1  0  0  0  0
  7  8  1  1  0  0  0
  7  9  1  0  0  0  0
  9 10  1  1  0  0  0
  9 11  1  0  0  0  0
 11 12  1  1  0  0  0
 11 13  1  0  0  0  0
 13 14  1  0  0  0  0
 13 15  1  6  0  0  0
 15 16  1  0  0  0  0
M  CHG  1   3  -1
M  END
>  <CHROM.1>
176.86637493,-174.16310523,-67.95961431,34.87274271,0.22898848,9.98206994
2.14068240,-0.96454184,0.07913876

>  <Name>
ligand

>  <RI>
0

>  <Rbt.Current_Directory>
/home/itssahil/PROJECTS/Mol_Feturizer/New_Systems/rnas/3B4C

>  <Rbt.Executable>
rbdock ($Id: //depot/dev/client3/rdock/2013.1/src/exe/rbdock.cxx#4 $)

>  <Rbt.Library>
libRbt.so (2013.1, Build901 2013/11/27)

>  <Rbt.Parameter_File>
/export/apps/rDock/src/rDock_2013.1_src/data/scripts/dock_solv.prm

>  <Rbt.Receptor>
prm/blind_docking_80.prm

>  <SCORE>
-10.3771

>  <SCORE.INTER>
-8.90406

>  <SCORE.INTER.CONST>
1

>  <SCORE.INTER.POLAR>
0

>  <SCORE.INTER.ROT>
3

>  <SCORE.INTER.SOLV>
15.6999

>  <SCORE.INTER.VDW>
-16.7693

>  <SCORE.INTER.norm>
-0.556504

>  <SCORE.INTRA>
-1.47304

>  <SCORE.INTRA.DIHEDRAL>
-1.82762

>  <SCORE.INTRA.DIHEDRAL.0>
2.1318

>  <SCORE.INTRA.POLAR>
0

>  <SCORE.INTRA.POLAR.0>
0

>  <SCORE.INTRA.REPUL>
0

>  <SCORE.INTRA.REPUL.0>
0

>  <SCORE.INTRA.SOLV>
-0.874295

>  <SCORE.INTRA.SOLV.lig_0>
-58.6125

>  <SCORE.INTRA.VDW>
-0.12208

>  <SCORE.INTRA.VDW.0>
-0.432734

>  <SCORE.INTRA.norm>
-0.0920648

>  <SCORE.RESTR>
0

>  <SCORE.RESTR.CAVITY>
0

>  <SCORE.RESTR.norm>
0

>  <SCORE.SYSTEM>
0

>  <SCORE.SYSTEM.CONST>
0

>  <SCORE.SYSTEM.DIHEDRAL>
0

>  <SCORE.SYSTEM.SOLV>
0

>  <SCORE.SYSTEM.norm>
0

>  <SCORE.heavy>
16

>  <SCORE.norm>
-0.648569

>  <RMSD>
19.279

$$$$
ligand
 OpenBabel11021811463D
libRbt.so/2013.1/901 2013/11/27
 16 16  0  0  0  0  0  0  0  0999 V2000
   33.7906    3.1669    8.6754 P   0  0  2  0  0  0  0  0  0  0  0  0
   35.1865    3.5053    8.3035 O   0  0  0  0  0  0  0  0  0  0  0  0
   32.8237    3.4120    7.4128 O   0  5  0  0  0  0  0  0  0  0  0  0
   33.3227    4.1249    9.8848 O   0  0  0  0  0  0  0  0  0  0  0  0
   34.8917   -2.3762    9.4866 C   0  0  2  0  0  0  0  0  0  0  0  0
   33.6517   -2.7494   10.0990 O   0  0  0  0  0  0  0  0  0  0  0  0
   36.0880   -2.7529   10.3982 C   0  0  2  0  0  0  0  0  0  0  0  0
   36.0751   -4.2042   10.6637 N   0  0  0  0  0  0  0  0  0  0  0  0
   35.9615   -1.9755   11.7192 C   0  0  1  0  0  0  0  0  0  0  0  0
   37.0607   -2.2852   12.5801 O   0  0  0  0  0  0  0  0  0  0  0  0
   35.9768   -0.4839   11.3893 C   0  0  2  0  0  0  0  0  0  0  0  0
   35.8584    0.2546   12.5986 O   0  0  0  0  0  0  0  0  0  0  0  0
   34.7795   -0.1677   10.4520 C   0  0  2  0  0  0  0  0  0  0  0  0
   34.8843   -0.9405    9.2170 O   0  0  0  0  0  0  0  0  0  0  0  0
   34.7568    1.3362   10.0827 C   0  0  0  0  0  0  0  0  0  0  0  0
   33.7159    1.6128    9.1279 O   0  0  0  0  0  0  0  0  0  0  0  0
  1  2  1  6  0  0  0
  1  3  1  0  0  0  0
  1  4  2  0  0  0  0
  1 16  1  0  0  0  0
  5  6  1  1  0  0  0
  5  7  1  0  0  0  0
  5 14  1  0  0  0  0
  7  8  1  1  0  0  0
  7  9  1  0  0  0  0
  9 10  1  1  0  0  0
  9 11  1  0  0  0  0
 11 12  1  1  0  0  0
 11 13  1  0  0  0  0
 13 14  1  0  0  0  0
 13 15  1  6  0  0  0
 15 16  1  0  0  0  0
M  CHG  1   3  -1
M  END
>  <CHROM.1>
175.25870118,-175.64704734,49.07129365,34.81503241,0.26941787,10.00737639
2.17697606,-0.98302606,0.12153304

>  <Name>
ligand

>  <RI>
0

>  <Rbt.Current_Directory>
/home/itssahil/PROJECTS/Mol_Feturizer/New_Systems/rnas/3B4C

>  <Rbt.Executable>
rbdock ($Id: //depot/dev/client3/rdock/2013.1/src/exe/rbdock.cxx#4 $)

>  <Rbt.Library>
libRbt.so (2013.1, Build901 2013/11/27)

>  <Rbt.Parameter_File>
/export/apps/rDock/src/rDock_2013.1_src/data/scripts/dock_solv.prm

>  <Rbt.Receptor>
prm/blind_docking_60.prm

>  <SCORE>
-10.6162

>  <SCORE.INTER>
-9.19869

>  <SCORE.INTER.CONST>
1

>  <SCORE.INTER.POLAR>
0

>  <SCORE.INTER.ROT>
3

>  <SCORE.INTER.SOLV>
15.3916

>  <SCORE.INTER.VDW>
-16.863

>  <SCORE.INTER.norm>
-0.574918

>  <SCORE.INTRA>
-1.41748

>  <SCORE.INTRA.DIHEDRAL>
-1.76875

>  <SCORE.INTRA.DIHEDRAL.0>
2.1318

>  <SCORE.INTRA.POLAR>
0

>  <SCORE.INTRA.POLAR.0>
0

>  <SCORE.INTRA.REPUL>
0

>  <SCORE.INTRA.REPUL.0>
0

>  <SCORE.INTRA.SOLV>
-1.10534

>  <SCORE.INTRA.SOLV.lig_0>
-58.6125

>  <SCORE.INTRA.VDW>
0.0195667

>  <SCORE.INTRA.VDW.0>
-0.432734

>  <SCORE.INTRA.norm>
-0.0885923

>  <SCORE.RESTR>
0

>  <SCORE.RESTR.CAVITY>
0

>  <SCORE.RESTR.norm>
0

>  <SCORE.SYSTEM>
0

>  <SCORE.SYSTEM.CONST>
0

>  <SCORE.SYSTEM.DIHEDRAL>
0

>  <SCORE.SYSTEM.SOLV>
0

>  <SCORE.SYSTEM.norm>
0

>  <SCORE.heavy>
16

>  <SCORE.norm>
-0.66351

>  <RMSD>
19.307

$$$$
ligand
 OpenBabel11021811463D
libRbt.so/2013.1/901 2013/11/27
 16 16  0  0  0  0  0  0  0  0999 V2000
   34.5560    2.8529    7.3635 P   0  0  2  0  0  0  0  0  0  0  0  0
   34.7572    3.9514    8.3403 O   0  0  0  0  0  0  0  0  0  0  0  0
   35.4796    3.1076    6.0709 O   0  5  0  0  0  0  0  0  0  0  0  0
   33.0103    2.8347    6.9051 O   0  0  0  0  0  0  0  0  0  0  0  0
   34.5812   -2.5270    9.3886 C   0  0  2  0  0  0  0  0  0  0  0  0
   33.6289   -2.8220   10.4171 O   0  0  0  0  0  0  0  0  0  0  0  0
   36.0264   -2.5857    9.9472 C   0  0  2  0  0  0  0  0  0  0  0  0
   36.2905   -3.9247   10.5077 N   0  0  0  0  0  0  0  0  0  0  0  0
   36.1715   -1.5181   11.0447 C   0  0  1  0  0  0  0  0  0  0  0  0
   37.5009   -1.5312   11.5717 O   0  0  0  0  0  0  0  0  0  0  0  0
   35.8860   -0.1558   10.4150 C   0  0  2  0  0  0  0  0  0  0  0  0
   36.0126    0.8472   11.4149 O   0  0  0  0  0  0  0  0  0  0  0  0
   34.4410   -0.1620    9.8459 C   0  0  2  0  0  0  0  0  0  0  0  0
   34.2989   -1.2054    8.8337 O   0  0  0  0  0  0  0  0  0  0  0  0
   34.1066    1.2000    9.1887 C   0  0  0  0  0  0  0  0  0  0  0  0
   34.9552    1.4412    8.0515 O   0  0  0  0  0  0  0  0  0  0  0  0
  1  2  1  1  0  0  0
  1  3  1  0  0  0  0
  1  4  2  0  0  0  0
  1 16  1  0  0  0  0
  5  6  1  1  0  0  0
  5  7  1  0  0  0  0
  5 14  1  0  0  0  0
  7  8  1  1  0  0  0
  7  9  1  0  0  0  0
  9 10  1  6  0  0  0
  9 11  1  0  0  0  0
 11 12  1  1  0  0  0
 11 13  1  0  0  0  0
 13 14  1  0  0  0  0
 13 15  1  6  0  0  0
 15 16  1  0  0  0  0
M  CHG  1   3  -1
M  END
>  <CHROM.1>
63.87581678,178.53114482,61.21068693,35.05358258,0.26074670,9.15948296,1.84763004
-0.75773774,-0.36072172

>  <Name>
ligand

>  <RI>
0

>  <Rbt.Current_Directory>
/home/itssahil/PROJECTS/Mol_Feturizer/New_Systems/rnas/3B4C

>  <Rbt.Executable>
rbdock ($Id: //depot/dev/client3/rdock/2013.1/src/exe/rbdock.cxx#4 $)

>  <Rbt.Library>
libRbt.so (2013.1, Build901 2013/11/27)

>  <Rbt.Parameter_File>
/export/apps/rDock/src/rDock_2013.1_src/data/scripts/dock_solv.prm

>  <Rbt.Receptor>
prm/blind_docking_40.prm

>  <SCORE>
-8.45748

>  <SCORE.INTER>
-6.74814

>  <SCORE.INTER.CONST>
1

>  <SCORE.INTER.POLAR>
0

>  <SCORE.INTER.ROT>
3

>  <SCORE.INTER.SOLV>
11.1015

>  <SCORE.INTER.VDW>
-13.7992

>  <SCORE.INTER.norm>
-0.421759

>  <SCORE.INTRA>
-1.70934

>  <SCORE.INTRA.DIHEDRAL>
-2.06045

>  <SCORE.INTRA.DIHEDRAL.0>
2.1318

>  <SCORE.INTRA.POLAR>
0

>  <SCORE.INTRA.POLAR.0>
0

>  <SCORE.INTRA.REPUL>
0

>  <SCORE.INTRA.REPUL.0>
0

>  <SCORE.INTRA.SOLV>
-0.803018

>  <SCORE.INTRA.SOLV.lig_0>
-58.6125

>  <SCORE.INTRA.VDW>
-0.277607

>  <SCORE.INTRA.VDW.0>
-0.432734

>  <SCORE.INTRA.norm>
-0.106834

>  <SCORE.RESTR>
0

>  <SCORE.RESTR.CAVITY>
0

>  <SCORE.RESTR.norm>
0

>  <SCORE.SYSTEM>
0

>  <SCORE.SYSTEM.CONST>
0

>  <SCORE.SYSTEM.DIHEDRAL>
0

>  <SCORE.SYSTEM.SOLV>
0

>  <SCORE.SYSTEM.norm>
0

>  <SCORE.heavy>
16

>  <SCORE.norm>
-0.528592

>  <RMSD>
19.321

$$$$
ligand
 OpenBabel11021811463D
libRbt.so/2013.1/901 2013/11/27
 16 16  0  0  0  0  0  0  0  0999 V2000
   32.9683    3.4903    9.4451 P   0  0  2  0  0  0  0  0  0  0  0  0
   34.0299    4.5266    9.4316 O   0  0  0  0  0  0  0  0  0  0  0  0
   32.5641    3.1156    7.9334 O   0  5  0  0  0  0  0  0  0  0  0  0
   31.6713    4.0774   10.2019 O   0  0  0  0  0  0  0  0  0  0  0  0
   34.1526   -1.9974   10.3657 C   0  0  2  0  0  0  0  0  0  0  0  0
   34.3906   -1.9259   11.7764 O   0  0  0  0  0  0  0  0  0  0  0  0
   35.3716   -2.6176    9.6354 C   0  0  2  0  0  0  0  0  0  0  0  0
   35.6394   -3.9668   10.1691 N   0  0  0  0  0  0  0  0  0  0  0  0
   36.5926   -1.7104    9.8624 C   0  0  1  0  0  0  0  0  0  0  0  0
   37.7346   -2.2433    9.1863 O   0  0  0  0  0  0  0  0  0  0  0  0
   36.2633   -0.3300    9.2967 C   0  0  2  0  0  0  0  0  0  0  0  0
   37.3800    0.5268    9.4986 O   0  0  0  0  0  0  0  0  0  0  0  0
   35.0200    0.2304   10.0399 C   0  0  2  0  0  0  0  0  0  0  0  0
   33.8753   -0.6575    9.8542 O   0  0  0  0  0  0  0  0  0  0  0  0
   34.6420    1.6298    9.4944 C   0  0  0  0  0  0  0  0  0  0  0  0
   33.5150    2.1697   10.2084 O   0  0  0  0  0  0  0  0  0  0  0  0
  1  2  1  6  0  0  0
  1  3  1  0  0  0  0
  1  4  2  0  0  0  0
  1 16  1  0  0  0  0
  5  6  1  1  0  0  0
  5  7  1  0  0  0  0
  5 14  1  0  0  0  0
  7  8  1  1  0  0  0
  7  9  1  0  0  0  0
  9 10  1  6  0  0  0
  9 11  1  0  0  0  0
 11 12  1  1  0  0  0
 11 13  1  0  0  0  0
 13 14  1  0  0  0  0
 13 15  1  6  0  0  0
 15 16  1  0  0  0  0
M  CHG  1   3  -1
M  END
>  <CHROM.1>
-178.25458294,-169.35847426,-62.18785906,34.58280549,0.57593062,9.75062027
2.08077867,0.30382823,-0.25989779

>  <Name>
ligand

>  <RI>
0

>  <Rbt.Current_Directory>
/home/itssahil/PROJECTS/Mol_Feturizer/New_Systems/rnas/3B4C

>  <Rbt.Executable>
rbdock ($Id: //depot/dev/client3/rdock/2013.1/src/exe/rbdock.cxx#4 $)

>  <Rbt.Library>
libRbt.so (2013.1, Build901 2013/11/27)

>  <Rbt.Parameter_File>
/export/apps/rDock/src/rDock_2013.1_src/data/scripts/dock_solv.prm

>  <Rbt.Receptor>
prm/blind_docking_40.prm

>  <SCORE>
-9.79878

>  <SCORE.INTER>
-8.41344

>  <SCORE.INTER.CONST>
1

>  <SCORE.INTER.POLAR>
0

>  <SCORE.INTER.ROT>
3

>  <SCORE.INTER.SOLV>
17.6779

>  <SCORE.INTER.VDW>
-17.1016

>  <SCORE.INTER.norm>
-0.52584

>  <SCORE.INTRA>
-1.38534

>  <SCORE.INTRA.DIHEDRAL>
-1.56594

>  <SCORE.INTRA.DIHEDRAL.0>
2.1318

>  <SCORE.INTRA.POLAR>
0

>  <SCORE.INTRA.POLAR.0>
0

>  <SCORE.INTRA.REPUL>
0

>  <SCORE.INTRA.REPUL.0>
0

>  <SCORE.INTRA.SOLV>
-0.895448

>  <SCORE.INTRA.SOLV.lig_0>
-58.6125

>  <SCORE.INTRA.VDW>
-0.154643

>  <SCORE.INTRA.VDW.0>
-0.432734

>  <SCORE.INTRA.norm>
-0.0865835

>  <SCORE.RESTR>
0

>  <SCORE.RESTR.CAVITY>
0

>  <SCORE.RESTR.norm>
0

>  <SCORE.SYSTEM>
0

>  <SCORE.SYSTEM.CONST>
0

>  <SCORE.SYSTEM.DIHEDRAL>
0

>  <SCORE.SYSTEM.SOLV>
0

>  <SCORE.SYSTEM.norm>
0

>  <SCORE.heavy>
16

>  <SCORE.norm>
-0.612424

>  <RMSD>
19.375

$$$$
ligand
 OpenBabel11021811463D
libRbt.so/2013.1/901 2013/11/27
 16 16  0  0  0  0  0  0  0  0999 V2000
   32.8157    3.3951    9.4939 P   0  0  2  0  0  0  0  0  0  0  0  0
   31.6001    3.8281   10.2261 O   0  0  0  0  0  0  0  0  0  0  0  0
   33.8503    4.6235    9.3965 O   0  5  0  0  0  0  0  0  0  0  0  0
   32.3980    2.9451    8.0031 O   0  0  0  0  0  0  0  0  0  0  0  0
   34.2283   -1.9874   10.4963 C   0  0  2  0  0  0  0  0  0  0  0  0
   34.5936   -1.8744   11.8767 O   0  0  0  0  0  0  0  0  0  0  0  0
   35.3844   -2.6119    9.6732 C   0  0  2  0  0  0  0  0  0  0  0  0
   35.7202   -3.9425   10.2149 N   0  0  0  0  0  0  0  0  0  0  0  0
   36.6072   -1.6835    9.7630 C   0  0  1  0  0  0  0  0  0  0  0  0
   37.6903   -2.2202    8.9988 O   0  0  0  0  0  0  0  0  0  0  0  0
   36.2067   -0.3233    9.1944 C   0  0  2  0  0  0  0  0  0  0  0  0
   37.3242    0.5527    9.2702 O   0  0  0  0  0  0  0  0  0  0  0  0
   35.0286    0.2415   10.0341 C   0  0  2  0  0  0  0  0  0  0  0  0
   33.8850   -0.6655    9.9778 O   0  0  0  0  0  0  0  0  0  0  0  0
   34.5811    1.6206    9.4896 C   0  0  0  0  0  0  0  0  0  0  0  0
   33.5067    2.1591   10.2816 O   0  0  0  0  0  0  0  0  0  0  0  0
  1  2  1  1  0  0  0
  1  3  1  0  0  0  0
  1  4  2  0  0  0  0
  1 16  1  0  0  0  0
  5  6  1  1  0  0  0
  5  7  1  0  0  0  0
  5 14  1  0  0  0  0
  7  8  1  1  0  0  0
  7  9  1  0  0  0  0
  9 10  1  6  0  0  0
  9 11  1  0  0  0  0
 11 12  1  1  0  0  0
 11 13  1  0  0  0  0
 13 14  1  0  0  0  0
 13 15  1  6  0  0  0
 15 16  1  0  0  0  0
M  CHG  1   3  -1
M  END
>  <CHROM.1>
-178.86515568,-165.91948809,172.47969389,34.54816121,0.55287306,9.75304520
2.12482523,0.37050741,-0.30601014

>  <Name>
ligand

>  <RI>
0

>  <Rbt.Current_Directory>
/home/itssahil/PROJECTS/Mol_Feturizer/New_Systems/rnas/3B4C

>  <Rbt.Executable>
rbdock ($Id: //depot/dev/client3/rdock/2013.1/src/exe/rbdock.cxx#4 $)

>  <Rbt.Library>
libRbt.so (2013.1, Build901 2013/11/27)

>  <Rbt.Parameter_File>
/export/apps/rDock/src/rDock_2013.1_src/data/scripts/dock_solv.prm

>  <Rbt.Receptor>
prm/blind_docking_60.prm

>  <SCORE>
-9.67894

>  <SCORE.INTER>
-8.72855

>  <SCORE.INTER.CONST>
1

>  <SCORE.INTER.POLAR>
0

>  <SCORE.INTER.ROT>
3

>  <SCORE.INTER.SOLV>
17.2143

>  <SCORE.INTER.VDW>
-17.1572

>  <SCORE.INTER.norm>
-0.545535

>  <SCORE.INTRA>
-0.950388

>  <SCORE.INTRA.DIHEDRAL>
-1.0997

>  <SCORE.INTRA.DIHEDRAL.0>
2.1318

>  <SCORE.INTRA.POLAR>
0

>  <SCORE.INTRA.POLAR.0>
0

>  <SCORE.INTRA.REPUL>
0

>  <SCORE.INTRA.REPUL.0>
0

>  <SCORE.INTRA.SOLV>
-0.267391

>  <SCORE.INTRA.SOLV.lig_0>
-58.6125

>  <SCORE.INTRA.VDW>
-0.266842

>  <SCORE.INTRA.VDW.0>
-0.432734

>  <SCORE.INTRA.norm>
-0.0593993

>  <SCORE.RESTR>
0

>  <SCORE.RESTR.CAVITY>
0

>  <SCORE.RESTR.norm>
0

>  <SCORE.SYSTEM>
0

>  <SCORE.SYSTEM.CONST>
0

>  <SCORE.SYSTEM.DIHEDRAL>
0

>  <SCORE.SYSTEM.SOLV>
0

>  <SCORE.SYSTEM.norm>
0

>  <SCORE.heavy>
16

>  <SCORE.norm>
-0.604934

>  <RMSD>
19.390

$$$$
ligand
 OpenBabel11021811463D
libRbt.so/2013.1/901 2013/11/27
 16 16  0  0  0  0  0  0  0  0999 V2000
   34.4871   -2.2132   10.1008 P   0  0  2  0  0  0  0  0  0  0  0  0
   33.5800   -3.3772    9.9471 O   0  0  0  0  0  0  0  0  0  0  0  0
   35.9201   -2.5602    9.4568 O   0  5  0  0  0  0  0  0  0  0  0  0
   34.6818   -1.9032   11.6710 O   0  0  0  0  0  0  0  0  0  0  0  0
   33.3630    3.8364    9.7596 C   0  0  2  0  0  0  0  0  0  0  0  0
   31.9497    3.6077    9.7124 O   0  0  0  0  0  0  0  0  0  0  0  0
   33.8894    4.2991    8.3766 C   0  0  2  0  0  0  0  0  0  0  0  0
   33.1939    5.5337    7.9658 N   0  0  0  0  0  0  0  0  0  0  0  0
   33.6263    3.1818    7.3531 C   0  0  1  0  0  0  0  0  0  0  0  0
   34.1164    3.5674    6.0661 O   0  0  0  0  0  0  0  0  0  0  0  0
   34.3633    1.9296    7.8252 C   0  0  2  0  0  0  0  0  0  0  0  0
   34.1310    0.8817    6.8926 O   0  0  0  0  0  0  0  0  0  0  0  0
   33.8206    1.5286    9.2240 C   0  0  2  0  0  0  0  0  0  0  0  0
   34.0366    2.6106   10.1811 O   0  0  0  0  0  0  0  0  0  0  0  0
   34.5448    0.2644    9.7494 C   0  0  0  0  0  0  0  0  0  0  0  0
   33.8462   -0.9286    9.3492 O   0  0  0  0  0  0  0  0  0  0  0  0
  1  2  1  6  0  0  0
  1  3  1  0  0  0  0
  1  4  2  0  0  0  0
  1 16  1  0  0  0  0
  5  6  1  6  0  0  0
  5  7  1  0  0  0  0
  5 14  1  0  0  0  0
  7  8  1  6  0  0  0
  7  9  1  0  0  0  0
  9 10  1  6  0  0  0
  9 11  1  0  0  0  0
 11 12  1  6  0  0  0
 11 13  1  0  0  0  0
 13 14  1  0  0  0  0
 13 15  1  1  0  0  0
 15 16  1  0  0  0  0
M  CHG  1   3  -1
M  END
>  <CHROM.1>
-90.51186894,-171.17215097,166.61453701,34.01355766,0.93375015,9.07336885
1.05598971,-1.23469788,2.33634418

>  <Name>
ligand

>  <RI>
0

>  <Rbt.Current_Directory>
/home/itssahil/PROJECTS/Mol_Feturizer/New_Systems/rnas/3B4C

>  <Rbt.Executable>
rbdock ($Id: //depot/dev/client3/rdock/2013.1/src/exe/rbdock.cxx#4 $)

>  <Rbt.Library>
libRbt.so (2013.1, Build901 2013/11/27)

>  <Rbt.Parameter_File>
/export/apps/rDock/src/rDock_2013.1_src/data/scripts/dock_solv.prm

>  <Rbt.Receptor>
prm/blind_docking_40.prm

>  <SCORE>
-10.6735

>  <SCORE.INTER>
-10.8431

>  <SCORE.INTER.CONST>
1

>  <SCORE.INTER.POLAR>
0

>  <SCORE.INTER.ROT>
3

>  <SCORE.INTER.SOLV>
16.4562

>  <SCORE.INTER.VDW>
-18.3141

>  <SCORE.INTER.norm>
-0.677693

>  <SCORE.INTRA>
0.169569

>  <SCORE.INTRA.DIHEDRAL>
1.22957

>  <SCORE.INTRA.DIHEDRAL.0>
2.1318

>  <SCORE.INTRA.POLAR>
0

>  <SCORE.INTRA.POLAR.0>
0

>  <SCORE.INTRA.REPUL>
0

>  <SCORE.INTRA.REPUL.0>
0

>  <SCORE.INTRA.SOLV>
-0.349529

>  <SCORE.INTRA.SOLV.lig_0>
-58.6125

>  <SCORE.INTRA.VDW>
-0.270449

>  <SCORE.INTRA.VDW.0>
-0.432734

>  <SCORE.INTRA.norm>
0.0105981

>  <SCORE.RESTR>
0

>  <SCORE.RESTR.CAVITY>
0

>  <SCORE.RESTR.norm>
0

>  <SCORE.SYSTEM>
0

>  <SCORE.SYSTEM.CONST>
0

>  <SCORE.SYSTEM.DIHEDRAL>
0

>  <SCORE.SYSTEM.SOLV>
0

>  <SCORE.SYSTEM.norm>
0

>  <SCORE.heavy>
16

>  <SCORE.norm>
-0.667095

>  <RMSD>
19.446

$$$$
ligand
 OpenBabel11021811463D
libRbt.so/2013.1/901 2013/11/27
 16 16  0  0  0  0  0  0  0  0999 V2000
   34.4948   -2.1454   10.1139 P   0  0  2  0  0  0  0  0  0  0  0  0
   33.6068   -3.3215    9.9419 O   0  0  0  0  0  0  0  0  0  0  0  0
   35.9481   -2.4763    9.5080 O   0  5  0  0  0  0  0  0  0  0  0  0
   34.6453   -1.8270   11.6872 O   0  0  0  0  0  0  0  0  0  0  0  0
   33.3110    3.9028    9.7227 C   0  0  2  0  0  0  0  0  0  0  0  0
   31.8981    3.6685    9.6975 O   0  0  0  0  0  0  0  0  0  0  0  0
   33.8195    4.3352    8.3232 C   0  0  2  0  0  0  0  0  0  0  0  0
   33.1149    5.5577    7.8923 N   0  0  0  0  0  0  0  0  0  0  0  0
   33.5483    3.1936    7.3289 C   0  0  1  0  0  0  0  0  0  0  0  0
   34.0219    3.5511    6.0276 O   0  0  0  0  0  0  0  0  0  0  0  0
   34.2952    1.9552    7.8209 C   0  0  2  0  0  0  0  0  0  0  0  0
   34.0557    0.8852    6.9156 O   0  0  0  0  0  0  0  0  0  0  0  0
   33.7705    1.5848    9.2350 C   0  0  2  0  0  0  0  0  0  0  0  0
   33.9940    2.6892   10.1643 O   0  0  0  0  0  0  0  0  0  0  0  0
   34.5053    0.3354    9.7808 C   0  0  0  0  0  0  0  0  0  0  0  0
   33.8570   -0.8720    9.3409 O   0  0  0  0  0  0  0  0  0  0  0  0
  1  2  1  6  0  0  0
  1  3  1  0  0  0  0
  1  4  2  0  0  0  0
  1 16  1  0  0  0  0
  5  6  1  6  0  0  0
  5  7  1  0  0  0  0
  5 14  1  0  0  0  0
  7  8  1  6  0  0  0
  7  9  1  0  0  0  0
  9 10  1  6  0  0  0
  9 11  1  0  0  0  0
 11 12  1  6  0  0  0
 11 13  1  0  0  0  0
 13 14  1  0  0  0  0
 13 15  1  1  0  0  0
 15 16  1  0  0  0  0
M  CHG  1   3  -1
M  END
>  <CHROM.1>
-86.63258584,-170.91488797,165.06521667,33.97660676,0.98282572,9.06750482
1.00122185,-1.23980459,2.27449671

>  <Name>
ligand

>  <RI>
0

>  <Rbt.Current_Directory>
/home/itssahil/PROJECTS/Mol_Feturizer/New_Systems/rnas/3B4C

>  <Rbt.Executable>
rbdock ($Id: //depot/dev/client3/rdock/2013.1/src/exe/rbdock.cxx#4 $)

>  <Rbt.Library>
libRbt.so (2013.1, Build901 2013/11/27)

>  <Rbt.Parameter_File>
/export/apps/rDock/src/rDock_2013.1_src/data/scripts/dock_solv.prm

>  <Rbt.Receptor>
prm/blind_docking_100.prm

>  <SCORE>
-10.6911

>  <SCORE.INTER>
-10.6799

>  <SCORE.INTER.CONST>
1

>  <SCORE.INTER.POLAR>
0

>  <SCORE.INTER.ROT>
3

>  <SCORE.INTER.SOLV>
16.3287

>  <SCORE.INTER.VDW>
-18.1628

>  <SCORE.INTER.norm>
-0.667492

>  <SCORE.INTRA>
-0.0112346

>  <SCORE.INTRA.DIHEDRAL>
0.783656

>  <SCORE.INTRA.DIHEDRAL.0>
2.1318

>  <SCORE.INTRA.POLAR>
0

>  <SCORE.INTRA.POLAR.0>
0

>  <SCORE.INTRA.REPUL>
0

>  <SCORE.INTRA.REPUL.0>
0

>  <SCORE.INTRA.SOLV>
-0.308566

>  <SCORE.INTRA.SOLV.lig_0>
-58.6125

>  <SCORE.INTRA.VDW>
-0.24878

>  <SCORE.INTRA.VDW.0>
-0.432734

>  <SCORE.INTRA.norm>
-0.00070216

>  <SCORE.RESTR>
0

>  <SCORE.RESTR.CAVITY>
0

>  <SCORE.RESTR.norm>
0

>  <SCORE.SYSTEM>
0

>  <SCORE.SYSTEM.CONST>
0

>  <SCORE.SYSTEM.DIHEDRAL>
0

>  <SCORE.SYSTEM.SOLV>
0

>  <SCORE.SYSTEM.norm>
0

>  <SCORE.heavy>
16

>  <SCORE.norm>
-0.668194

>  <RMSD>
19.452

$$$$
ligand
 OpenBabel11021811463D
libRbt.so/2013.1/901 2013/11/27
 16 16  0  0  0  0  0  0  0  0999 V2000
   34.7522   -2.7522    9.8044 P   0  0  2  0  0  0  0  0  0  0  0  0
   33.4850   -3.5000    9.9951 O   0  0  0  0  0  0  0  0  0  0  0  0
   35.7097   -3.5652    8.7989 O   0  5  0  0  0  0  0  0  0  0  0  0
   35.4946   -2.6058   11.2281 O   0  0  0  0  0  0  0  0  0  0  0  0
   34.4826    2.2652    6.8328 C   0  0  2  0  0  0  0  0  0  0  0  0
   35.7037    3.0091    6.7476 O   0  0  0  0  0  0  0  0  0  0  0  0
   33.4790    2.9670    7.7837 C   0  0  2  0  0  0  0  0  0  0  0  0
   33.2029    4.3325    7.2979 N   0  0  0  0  0  0  0  0  0  0  0  0
   34.0956    3.0243    9.1915 C   0  0  1  0  0  0  0  0  0  0  0  0
   33.1877    3.6509   10.1017 O   0  0  0  0  0  0  0  0  0  0  0  0
   34.3640    1.5904    9.6451 C   0  0  2  0  0  0  0  0  0  0  0  0
   34.9375    1.6206   10.9459 O   0  0  0  0  0  0  0  0  0  0  0  0
   35.3479    0.9260    8.6439 C   0  0  2  0  0  0  0  0  0  0  0  0
   34.7730    0.9123    7.3013 O   0  0  0  0  0  0  0  0  0  0  0  0
   35.6458   -0.5361    9.0590 C   0  0  0  0  0  0  0  0  0  0  0  0
   34.4264   -1.2899    9.1870 O   0  0  0  0  0  0  0  0  0  0  0  0
  1  2  1  1  0  0  0
  1  3  1  0  0  0  0
  1  4  2  0  0  0  0
  1 16  1  0  0  0  0
  5  6  1  1  0  0  0
  5  7  1  0  0  0  0
  5 14  1  0  0  0  0
  7  8  1  6  0  0  0
  7  9  1  0  0  0  0
  9 10  1  1  0  0  0
  9 11  1  0  0  0  0
 11 12  1  1  0  0  0
 11 13  1  0  0  0  0
 13 14  1  0  0  0  0
 13 15  1  1  0  0  0
 15 16  1  0  0  0  0
M  CHG  1   3  -1
M  END
>  <CHROM.1>
55.49450170,-172.73039059,177.29358558,34.59394510,0.31686453,9.00395047
-1.17420246,1.25210898,-0.66137746

>  <Name>
ligand

>  <RI>
0

>  <Rbt.Current_Directory>
/home/itssahil/PROJECTS/Mol_Feturizer/New_Systems/rnas/3B4C

>  <Rbt.Executable>
rbdock ($Id: //depot/dev/client3/rdock/2013.1/src/exe/rbdock.cxx#4 $)

>  <Rbt.Library>
libRbt.so (2013.1, Build901 2013/11/27)

>  <Rbt.Parameter_File>
/export/apps/rDock/src/rDock_2013.1_src/data/scripts/dock_solv.prm

>  <Rbt.Receptor>
prm/blind_docking_100.prm

>  <SCORE>
-10.5011

>  <SCORE.INTER>
-9.21414

>  <SCORE.INTER.CONST>
1

>  <SCORE.INTER.POLAR>
0

>  <SCORE.INTER.ROT>
3

>  <SCORE.INTER.SOLV>
14.6138

>  <SCORE.INTER.VDW>
-16.614

>  <SCORE.INTER.norm>
-0.575884

>  <SCORE.INTRA>
-1.28693

>  <SCORE.INTRA.DIHEDRAL>
-1.7888

>  <SCORE.INTRA.DIHEDRAL.0>
2.1318

>  <SCORE.INTRA.POLAR>
0

>  <SCORE.INTRA.POLAR.0>
0

>  <SCORE.INTRA.REPUL>
0

>  <SCORE.INTRA.REPUL.0>
0

>  <SCORE.INTRA.SOLV>
-0.0514451

>  <SCORE.INTRA.SOLV.lig_0>
-58.6125

>  <SCORE.INTRA.VDW>
-0.366803

>  <SCORE.INTRA.VDW.0>
-0.432734

>  <SCORE.INTRA.norm>
-0.080433

>  <SCORE.RESTR>
0

>  <SCORE.RESTR.CAVITY>
0

>  <SCORE.RESTR.norm>
0

>  <SCORE.SYSTEM>
0

>  <SCORE.SYSTEM.CONST>
0

>  <SCORE.SYSTEM.DIHEDRAL>
0

>  <SCORE.SYSTEM.SOLV>
0

>  <SCORE.SYSTEM.norm>
0

>  <SCORE.heavy>
16

>  <SCORE.norm>
-0.656317

>  <RMSD>
19.456

$$$$
ligand
 OpenBabel11021811463D
libRbt.so/2013.1/901 2013/11/27
 16 16  0  0  0  0  0  0  0  0999 V2000
   34.7510   -2.7522    9.8008 P   0  0  2  0  0  0  0  0  0  0  0  0
   33.4859   -3.5014    9.9995 O   0  0  0  0  0  0  0  0  0  0  0  0
   35.6972   -3.5572    8.7783 O   0  5  0  0  0  0  0  0  0  0  0  0
   35.5091   -2.6174   11.2174 O   0  0  0  0  0  0  0  0  0  0  0  0
   34.4608    2.2760    6.8467 C   0  0  2  0  0  0  0  0  0  0  0  0
   35.6813    3.0204    6.7569 O   0  0  0  0  0  0  0  0  0  0  0  0
   33.4628    2.9740    7.8062 C   0  0  2  0  0  0  0  0  0  0  0  0
   33.1836    4.3413    7.3271 N   0  0  0  0  0  0  0  0  0  0  0  0
   34.0879    3.0262    9.2105 C   0  0  1  0  0  0  0  0  0  0  0  0
   33.1855    3.6492   10.1284 O   0  0  0  0  0  0  0  0  0  0  0  0
   34.3593    1.5906    9.6571 C   0  0  2  0  0  0  0  0  0  0  0  0
   34.9406    1.6159   10.9545 O   0  0  0  0  0  0  0  0  0  0  0  0
   35.3372    0.9301    8.6474 C   0  0  2  0  0  0  0  0  0  0  0  0
   34.7542    0.9214    7.3082 O   0  0  0  0  0  0  0  0  0  0  0  0
   35.6378   -0.5334    9.0552 C   0  0  0  0  0  0  0  0  0  0  0  0
   34.4187   -1.2849    9.1989 O   0  0  0  0  0  0  0  0  0  0  0  0
  1  2  1  1  0  0  0
  1  3  1  0  0  0  0
  1  4  2  0  0  0  0
  1 16  1  0  0  0  0
  5  6  1  1  0  0  0
  5  7  1  0  0  0  0
  5 14  1  0  0  0  0
  7  8  1  6  0  0  0
  7  9  1  0  0  0  0
  9 10  1  1  0  0  0
  9 11  1  0  0  0  0
 11 12  1  1  0  0  0
 11 13  1  0  0  0  0
 13 14  1  0  0  0  0
 13 15  1  1  0  0  0
 15 16  1  0  0  0  0
M  CHG  1   3  -1
M  END
>  <CHROM.1>
55.00234271,-173.04249657,177.67068697,34.58625004,0.31961939,9.01088895
-1.16134194,1.25634783,-0.67036585

>  <Name>
ligand

>  <RI>
0

>  <Rbt.Current_Directory>
/home/itssahil/PROJECTS/Mol_Feturizer/New_Systems/rnas/3B4C

>  <Rbt.Executable>
rbdock ($Id: //depot/dev/client3/rdock/2013.1/src/exe/rbdock.cxx#4 $)

>  <Rbt.Library>
libRbt.so (2013.1, Build901 2013/11/27)

>  <Rbt.Parameter_File>
/export/apps/rDock/src/rDock_2013.1_src/data/scripts/dock_solv.prm

>  <Rbt.Receptor>
prm/blind_docking_80.prm

>  <SCORE>
-10.5027

>  <SCORE.INTER>
-9.21194

>  <SCORE.INTER.CONST>
1

>  <SCORE.INTER.POLAR>
0

>  <SCORE.INTER.ROT>
3

>  <SCORE.INTER.SOLV>
14.6894

>  <SCORE.INTER.VDW>
-16.6377

>  <SCORE.INTER.norm>
-0.575746

>  <SCORE.INTRA>
-1.29075

>  <SCORE.INTRA.DIHEDRAL>
-1.79664

>  <SCORE.INTRA.DIHEDRAL.0>
2.1318

>  <SCORE.INTRA.POLAR>
0

>  <SCORE.INTRA.POLAR.0>
0

>  <SCORE.INTRA.REPUL>
0

>  <SCORE.INTRA.REPUL.0>
0

>  <SCORE.INTRA.SOLV>
-0.0593003

>  <SCORE.INTRA.SOLV.lig_0>
-58.6125

>  <SCORE.INTRA.VDW>
-0.362777

>  <SCORE.INTRA.VDW.0>
-0.432734

>  <SCORE.INTRA.norm>
-0.0806717

>  <SCORE.RESTR>
0

>  <SCORE.RESTR.CAVITY>
0

>  <SCORE.RESTR.norm>
0

>  <SCORE.SYSTEM>
0

>  <SCORE.SYSTEM.CONST>
0

>  <SCORE.SYSTEM.DIHEDRAL>
0

>  <SCORE.SYSTEM.SOLV>
0

>  <SCORE.SYSTEM.norm>
0

>  <SCORE.heavy>
16

>  <SCORE.norm>
-0.656418

>  <RMSD>
19.457

$$$$
ligand
 OpenBabel11021811463D
libRbt.so/2013.1/901 2013/11/27
 16 16  0  0  0  0  0  0  0  0999 V2000
   32.0762    1.8277    7.2411 P   0  0  2  0  0  0  0  0  0  0  0  0
   30.9028    1.1313    7.8240 O   0  0  0  0  0  0  0  0  0  0  0  0
   31.7866    2.1661    5.6950 O   0  5  0  0  0  0  0  0  0  0  0  0
   33.3606    0.8572    7.3313 O   0  0  0  0  0  0  0  0  0  0  0  0
   33.1763    6.4767   10.4536 C   0  0  2  0  0  0  0  0  0  0  0  0
   33.9688    6.2840   11.6312 O   0  0  0  0  0  0  0  0  0  0  0  0
   31.7062    6.7961   10.8290 C   0  0  2  0  0  0  0  0  0  0  0  0
   31.6582    8.0068   11.6709 N   0  0  0  0  0  0  0  0  0  0  0  0
   31.1251    5.5975   11.5978 C   0  0  1  0  0  0  0  0  0  0  0  0
   29.7611    5.8500   11.9456 O   0  0  0  0  0  0  0  0  0  0  0  0
   31.2008    4.3739   10.6864 C   0  0  2  0  0  0  0  0  0  0  0  0
   30.6698    3.2518   11.3798 O   0  0  0  0  0  0  0  0  0  0  0  0
   32.6874    4.1178   10.3170 C   0  0  2  0  0  0  0  0  0  0  0  0
   33.2447    5.2764    9.6238 O   0  0  0  0  0  0  0  0  0  0  0  0
   32.8150    2.8874    9.3851 C   0  0  0  0  0  0  0  0  0  0  0  0
   32.3491    3.1993    8.0595 O   0  0  0  0  0  0  0  0  0  0  0  0
  1  2  1  1  0  0  0
  1  3  1  0  0  0  0
  1  4  2  0  0  0  0
  1 16  1  0  0  0  0
  5  6  1  1  0  0  0
  5  7  1  0  0  0  0
  5 14  1  0  0  0  0
  7  8  1  1  0  0  0
  7  9  1  0  0  0  0
  9 10  1  6  0  0  0
  9 11  1  0  0  0  0
 11 12  1  1  0  0  0
 11 13  1  0  0  0  0
 13 14  1  0  0  0  0
 13 15  1  6  0  0  0
 15 16  1  0  0  0  0
M  CHG  1   3  -1
M  END
>  <CHROM.1>
73.25949476,-163.26958204,68.93764196,32.03308769,4.02116345,9.50707580,-1.52001336
0.47902605,0.71183305

>  <Name>
ligand

>  <RI>
0

>  <Rbt.Current_Directory>
/home/itssahil/PROJECTS/Mol_Feturizer/New_Systems/rnas/3B4C

>  <Rbt.Executable>
rbdock ($Id: //depot/dev/client3/rdock/2013.1/src/exe/rbdock.cxx#4 $)

>  <Rbt.Library>
libRbt.so (2013.1, Build901 2013/11/27)

>  <Rbt.Parameter_File>
/export/apps/rDock/src/rDock_2013.1_src/data/scripts/dock_solv.prm

>  <Rbt.Receptor>
prm/blind_docking_40.prm

>  <SCORE>
-11.346

>  <SCORE.INTER>
-10.6194

>  <SCORE.INTER.CONST>
1

>  <SCORE.INTER.POLAR>
0

>  <SCORE.INTER.ROT>
3

>  <SCORE.INTER.SOLV>
17.6157

>  <SCORE.INTER.VDW>
-18.5515

>  <SCORE.INTER.norm>
-0.663713

>  <SCORE.INTRA>
-0.726632

>  <SCORE.INTRA.DIHEDRAL>
-0.0879566

>  <SCORE.INTRA.DIHEDRAL.0>
2.1318

>  <SCORE.INTRA.POLAR>
0

>  <SCORE.INTRA.POLAR.0>
0

>  <SCORE.INTRA.REPUL>
0

>  <SCORE.INTRA.REPUL.0>
0

>  <SCORE.INTRA.SOLV>
-0.736536

>  <SCORE.INTRA.SOLV.lig_0>
-58.6125

>  <SCORE.INTRA.VDW>
-0.314386

>  <SCORE.INTRA.VDW.0>
-0.432734

>  <SCORE.INTRA.norm>
-0.0454145

>  <SCORE.RESTR>
0

>  <SCORE.RESTR.CAVITY>
0

>  <SCORE.RESTR.norm>
0

>  <SCORE.SYSTEM>
0

>  <SCORE.SYSTEM.CONST>
0

>  <SCORE.SYSTEM.DIHEDRAL>
0

>  <SCORE.SYSTEM.SOLV>
0

>  <SCORE.SYSTEM.norm>
0

>  <SCORE.heavy>
16

>  <SCORE.norm>
-0.709128

>  <RMSD>
19.470

$$$$
ligand
 OpenBabel11021811463D
libRbt.so/2013.1/901 2013/11/27
 16 16  0  0  0  0  0  0  0  0999 V2000
   32.8911    3.4285    9.5715 P   0  0  2  0  0  0  0  0  0  0  0  0
   31.5215    2.9429    9.2721 O   0  0  0  0  0  0  0  0  0  0  0  0
   32.8135    4.6327   10.6359 O   0  5  0  0  0  0  0  0  0  0  0  0
   33.5626    3.9763    8.2119 O   0  0  0  0  0  0  0  0  0  0  0  0
   34.6493   -2.4822    9.2871 C   0  0  2  0  0  0  0  0  0  0  0  0
   33.6775   -2.8503   10.2729 O   0  0  0  0  0  0  0  0  0  0  0  0
   36.0755   -2.4871    9.8954 C   0  0  2  0  0  0  0  0  0  0  0  0
   36.3849   -3.8267   10.4305 N   0  0  0  0  0  0  0  0  0  0  0  0
   36.1304   -1.4441   11.0244 C   0  0  1  0  0  0  0  0  0  0  0  0
   37.4399   -1.4080   11.5982 O   0  0  0  0  0  0  0  0  0  0  0  0
   35.8008   -0.0803   10.4200 C   0  0  2  0  0  0  0  0  0  0  0  0
   35.8438    0.9000   11.4491 O   0  0  0  0  0  0  0  0  0  0  0  0
   34.3783   -0.1400    9.7995 C   0  0  2  0  0  0  0  0  0  0  0  0
   34.3223   -1.1610    8.7565 O   0  0  0  0  0  0  0  0  0  0  0  0
   34.0009    1.2219    9.1658 C   0  0  0  0  0  0  0  0  0  0  0  0
   33.7712    2.2134   10.1835 O   0  0  0  0  0  0  0  0  0  0  0  0
  1  2  1  6  0  0  0
  1  3  1  0  0  0  0
  1  4  2  0  0  0  0
  1 16  1  0  0  0  0
  5  6  1  1  0  0  0
  5  7  1  0  0  0  0
  5 14  1  0  0  0  0
  7  8  1  1  0  0  0
  7  9  1  0  0  0  0
  9 10  1  6  0  0  0
  9 11  1  0  0  0  0
 11 12  1  1  0  0  0
 11 13  1  0  0  0  0
 13 14  1  0  0  0  0
 13 15  1  6  0  0  0
 15 16  1  0  0  0  0
M  CHG  1   3  -1
M  END
>  <CHROM.1>
-70.76067678,-159.92503786,68.02024325,34.42001306,0.52083811,9.97100153
2.13463869,-0.59295613,0.19446468

>  <Name>
ligand

>  <RI>
0

>  <Rbt.Current_Directory>
/home/itssahil/PROJECTS/Mol_Feturizer/New_Systems/rnas/3B4C

>  <Rbt.Executable>
rbdock ($Id: //depot/dev/client3/rdock/2013.1/src/exe/rbdock.cxx#4 $)

>  <Rbt.Library>
libRbt.so (2013.1, Build901 2013/11/27)

>  <Rbt.Parameter_File>
/export/apps/rDock/src/rDock_2013.1_src/data/scripts/dock_solv.prm

>  <Rbt.Receptor>
prm/blind_docking_40.prm

>  <SCORE>
-10.5428

>  <SCORE.INTER>
-10.0936

>  <SCORE.INTER.CONST>
1

>  <SCORE.INTER.POLAR>
0

>  <SCORE.INTER.ROT>
3

>  <SCORE.INTER.SOLV>
17.1965

>  <SCORE.INTER.VDW>
-18.0613

>  <SCORE.INTER.norm>
-0.630852

>  <SCORE.INTRA>
-0.449195

>  <SCORE.INTRA.DIHEDRAL>
0.193834

>  <SCORE.INTRA.DIHEDRAL.0>
2.1318

>  <SCORE.INTRA.POLAR>
0

>  <SCORE.INTRA.POLAR.0>
0

>  <SCORE.INTRA.REPUL>
0

>  <SCORE.INTRA.REPUL.0>
0

>  <SCORE.INTRA.SOLV>
-0.786371

>  <SCORE.INTRA.SOLV.lig_0>
-58.6125

>  <SCORE.INTRA.VDW>
-0.152927

>  <SCORE.INTRA.VDW.0>
-0.432734

>  <SCORE.INTRA.norm>
-0.0280747

>  <SCORE.RESTR>
0

>  <SCORE.RESTR.CAVITY>
0

>  <SCORE.RESTR.norm>
0

>  <SCORE.SYSTEM>
0

>  <SCORE.SYSTEM.CONST>
0

>  <SCORE.SYSTEM.DIHEDRAL>
0

>  <SCORE.SYSTEM.SOLV>
0

>  <SCORE.SYSTEM.norm>
0

>  <SCORE.heavy>
16

>  <SCORE.norm>
-0.658927

>  <RMSD>
19.481

$$$$
ligand
 OpenBabel11021811463D
libRbt.so/2013.1/901 2013/11/27
 16 16  0  0  0  0  0  0  0  0999 V2000
   32.0813    1.8436    7.2591 P   0  0  2  0  0  0  0  0  0  0  0  0
   30.9133    1.1042    7.7980 O   0  0  0  0  0  0  0  0  0  0  0  0
   31.8258    2.1964    5.7103 O   0  5  0  0  0  0  0  0  0  0  0  0
   33.3912    0.9103    7.3726 O   0  0  0  0  0  0  0  0  0  0  0  0
   33.1060    6.4825   10.5020 C   0  0  2  0  0  0  0  0  0  0  0  0
   33.9037    6.2902   11.6761 O   0  0  0  0  0  0  0  0  0  0  0  0
   31.6369    6.7989   10.8837 C   0  0  2  0  0  0  0  0  0  0  0  0
   31.5902    8.0088   11.7268 N   0  0  0  0  0  0  0  0  0  0  0  0
   31.0611    5.5986   11.6539 C   0  0  1  0  0  0  0  0  0  0  0  0
   29.6981    5.8484   12.0075 O   0  0  0  0  0  0  0  0  0  0  0  0
   31.1353    4.3759   10.7410 C   0  0  2  0  0  0  0  0  0  0  0  0
   30.6092    3.2523   11.4356 O   0  0  0  0  0  0  0  0  0  0  0  0
   32.6209    4.1228   10.3653 C   0  0  2  0  0  0  0  0  0  0  0  0
   33.1732    5.2830    9.6708 O   0  0  0  0  0  0  0  0  0  0  0  0
   32.7468    2.8934    9.4318 C   0  0  0  0  0  0  0  0  0  0  0  0
   32.2897    3.2103    8.1043 O   0  0  0  0  0  0  0  0  0  0  0  0
  1  2  1  1  0  0  0
  1  3  1  0  0  0  0
  1  4  2  0  0  0  0
  1 16  1  0  0  0  0
  5  6  1  1  0  0  0
  5  7  1  0  0  0  0
  5 14  1  0  0  0  0
  7  8  1  1  0  0  0
  7  9  1  0  0  0  0
  9 10  1  6  0  0  0
  9 11  1  0  0  0  0
 11 12  1  1  0  0  0
 11 13  1  0  0  0  0
 13 14  1  0  0  0  0
 13 15  1  6  0  0  0
 15 16  1  0  0  0  0
M  CHG  1   3  -1
M  END
>  <CHROM.1>
73.94159323,-165.94912345,69.82691704,31.99364103,4.02945496,9.54661664,-1.50402902
0.49268004,0.71076960

>  <Name>
ligand

>  <RI>
0

>  <Rbt.Current_Directory>
/home/itssahil/PROJECTS/Mol_Feturizer/New_Systems/rnas/3B4C

>  <Rbt.Executable>
rbdock ($Id: //depot/dev/client3/rdock/2013.1/src/exe/rbdock.cxx#4 $)

>  <Rbt.Library>
libRbt.so (2013.1, Build901 2013/11/27)

>  <Rbt.Parameter_File>
/export/apps/rDock/src/rDock_2013.1_src/data/scripts/dock_solv.prm

>  <Rbt.Receptor>
prm/blind_docking_100.prm

>  <SCORE>
-11.4034

>  <SCORE.INTER>
-10.5629

>  <SCORE.INTER.CONST>
1

>  <SCORE.INTER.POLAR>
0

>  <SCORE.INTER.ROT>
3

>  <SCORE.INTER.SOLV>
17.5722

>  <SCORE.INTER.VDW>
-18.4993

>  <SCORE.INTER.norm>
-0.66018

>  <SCORE.INTRA>
-0.840515

>  <SCORE.INTRA.DIHEDRAL>
-0.363728

>  <SCORE.INTRA.DIHEDRAL.0>
2.1318

>  <SCORE.INTRA.POLAR>
0

>  <SCORE.INTRA.POLAR.0>
0

>  <SCORE.INTRA.REPUL>
0

>  <SCORE.INTRA.REPUL.0>
0

>  <SCORE.INTRA.SOLV>
-0.735655

>  <SCORE.INTRA.SOLV.lig_0>
-58.6125

>  <SCORE.INTRA.VDW>
-0.290823

>  <SCORE.INTRA.VDW.0>
-0.432734

>  <SCORE.INTRA.norm>
-0.0525322

>  <SCORE.RESTR>
0

>  <SCORE.RESTR.CAVITY>
0

>  <SCORE.RESTR.norm>
0

>  <SCORE.SYSTEM>
0

>  <SCORE.SYSTEM.CONST>
0

>  <SCORE.SYSTEM.DIHEDRAL>
0

>  <SCORE.SYSTEM.SOLV>
0

>  <SCORE.SYSTEM.norm>
0

>  <SCORE.heavy>
16

>  <SCORE.norm>
-0.712712

>  <RMSD>
19.489

$$$$
ligand
 OpenBabel11021811463D
libRbt.so/2013.1/901 2013/11/27
 16 16  0  0  0  0  0  0  0  0999 V2000
   32.1062    1.8961    7.2594 P   0  0  2  0  0  0  0  0  0  0  0  0
   30.9461    1.1309    7.7789 O   0  0  0  0  0  0  0  0  0  0  0  0
   31.8598    2.2604    5.7117 O   0  5  0  0  0  0  0  0  0  0  0  0
   33.4311    0.9849    7.3766 O   0  0  0  0  0  0  0  0  0  0  0  0
   33.0308    6.5296   10.5150 C   0  0  2  0  0  0  0  0  0  0  0  0
   33.8488    6.3516   11.6774 O   0  0  0  0  0  0  0  0  0  0  0  0
   31.5629    6.8239   10.9182 C   0  0  2  0  0  0  0  0  0  0  0  0
   31.5101    8.0343   11.7602 N   0  0  0  0  0  0  0  0  0  0  0  0
   31.0173    5.6162   11.6986 C   0  0  1  0  0  0  0  0  0  0  0  0
   29.6560    5.8454   12.0722 O   0  0  0  0  0  0  0  0  0  0  0  0
   31.0967    4.3932   10.7865 C   0  0  2  0  0  0  0  0  0  0  0  0
   30.5985    3.2628   11.4906 O   0  0  0  0  0  0  0  0  0  0  0  0
   32.5802    4.1625   10.3890 C   0  0  2  0  0  0  0  0  0  0  0  0
   33.1041    5.3299    9.6847 O   0  0  0  0  0  0  0  0  0  0  0  0
   32.7112    2.9336    9.4555 C   0  0  0  0  0  0  0  0  0  0  0  0
   32.2820    3.2575    8.1205 O   0  0  0  0  0  0  0  0  0  0  0  0
  1  2  1  1  0  0  0
  1  3  1  0  0  0  0
  1  4  2  0  0  0  0
  1 16  1  0  0  0  0
  5  6  1  1  0  0  0
  5  7  1  0  0  0  0
  5 14  1  0  0  0  0
  7  8  1  1  0  0  0
  7  9  1  0  0  0  0
  9 10  1  6  0  0  0
  9 11  1  0  0  0  0
 11 12  1  1  0  0  0
 11 13  1  0  0  0  0
 13 14  1  0  0  0  0
 13 15  1  6  0  0  0
 15 16  1  0  0  0  0
M  CHG  1   3  -1
M  END
>  <CHROM.1>
76.35810712,-167.14617965,68.92816877,31.97125441,4.06795311,9.56687513,-1.48451159
0.52441586,0.70726630

>  <Name>
ligand

>  <RI>
0

>  <Rbt.Current_Directory>
/home/itssahil/PROJECTS/Mol_Feturizer/New_Systems/rnas/3B4C

>  <Rbt.Executable>
rbdock ($Id: //depot/dev/client3/rdock/2013.1/src/exe/rbdock.cxx#4 $)

>  <Rbt.Library>
libRbt.so (2013.1, Build901 2013/11/27)

>  <Rbt.Parameter_File>
/export/apps/rDock/src/rDock_2013.1_src/data/scripts/dock_solv.prm

>  <Rbt.Receptor>
prm/blind_docking_60.prm

>  <SCORE>
-11.2576

>  <SCORE.INTER>
-10.463

>  <SCORE.INTER.CONST>
1

>  <SCORE.INTER.POLAR>
0

>  <SCORE.INTER.ROT>
3

>  <SCORE.INTER.SOLV>
17.1276

>  <SCORE.INTER.VDW>
-18.2845

>  <SCORE.INTER.norm>
-0.653938

>  <SCORE.INTRA>
-0.7981

>  <SCORE.INTRA.DIHEDRAL>
-0.298453

>  <SCORE.INTRA.DIHEDRAL.0>
2.1318

>  <SCORE.INTRA.POLAR>
0

>  <SCORE.INTRA.POLAR.0>
0

>  <SCORE.INTRA.REPUL>
0

>  <SCORE.INTRA.REPUL.0>
0

>  <SCORE.INTRA.SOLV>
-0.74797

>  <SCORE.INTRA.SOLV.lig_0>
-58.6125

>  <SCORE.INTRA.VDW>
-0.274888

>  <SCORE.INTRA.VDW.0>
-0.432734

>  <SCORE.INTRA.norm>
-0.0498812

>  <SCORE.RESTR>
0.00351697

>  <SCORE.RESTR.CAVITY>
0.00351697

>  <SCORE.RESTR.norm>
0.000219811

>  <SCORE.SYSTEM>
0

>  <SCORE.SYSTEM.CONST>
0

>  <SCORE.SYSTEM.DIHEDRAL>
0

>  <SCORE.SYSTEM.SOLV>
0

>  <SCORE.SYSTEM.norm>
0

>  <SCORE.heavy>
16

>  <SCORE.norm>
-0.703599

>  <RMSD>
19.489

$$$$
ligand
 OpenBabel11021811463D
libRbt.so/2013.1/901 2013/11/27
 16 16  0  0  0  0  0  0  0  0999 V2000
   33.0364    3.3456    9.5056 P   0  0  2  0  0  0  0  0  0  0  0  0
   31.6810    2.9066    9.0915 O   0  0  0  0  0  0  0  0  0  0  0  0
   32.9109    4.5606   10.5529 O   0  5  0  0  0  0  0  0  0  0  0  0
   33.8420    3.8577    8.2063 O   0  0  0  0  0  0  0  0  0  0  0  0
   34.6734   -2.6154    9.4031 C   0  0  2  0  0  0  0  0  0  0  0  0
   33.5944   -2.9674   10.2771 O   0  0  0  0  0  0  0  0  0  0  0  0
   36.0243   -2.6394   10.1635 C   0  0  2  0  0  0  0  0  0  0  0  0
   36.2540   -3.9821   10.7302 N   0  0  0  0  0  0  0  0  0  0  0  0
   35.9707   -1.5948   11.2911 C   0  0  1  0  0  0  0  0  0  0  0  0
   37.2100   -1.5762   12.0045 O   0  0  0  0  0  0  0  0  0  0  0  0
   35.7289   -0.2278   10.6534 C   0  0  2  0  0  0  0  0  0  0  0  0
   35.6734    0.7541   11.6803 O   0  0  0  0  0  0  0  0  0  0  0  0
   34.3820   -0.2684    9.8812 C   0  0  2  0  0  0  0  0  0  0  0  0
   34.4255   -1.2909    8.8390 O   0  0  0  0  0  0  0  0  0  0  0  0
   34.0958    1.0973    9.2091 C   0  0  0  0  0  0  0  0  0  0  0  0
   33.8158    2.1051   10.1978 O   0  0  0  0  0  0  0  0  0  0  0  0
  1  2  1  6  0  0  0
  1  3  1  0  0  0  0
  1  4  2  0  0  0  0
  1 16  1  0  0  0  0
  5  6  1  1  0  0  0
  5  7  1  0  0  0  0
  5 14  1  0  0  0  0
  7  8  1  1  0  0  0
  7  9  1  0  0  0  0
  9 10  1  6  0  0  0
  9 11  1  0  0  0  0
 11 12  1  1  0  0  0
 11 13  1  0  0  0  0
 13 14  1  0  0  0  0
 13 15  1  6  0  0  0
 15 16  1  0  0  0  0
M  CHG  1   3  -1
M  END
>  <CHROM.1>
-68.77895451,-160.50757920,67.99244383,34.43543923,0.40142660,10.06163134
2.13108188,-0.70700644,0.19465102

>  <Name>
ligand

>  <RI>
0

>  <Rbt.Current_Directory>
/home/itssahil/PROJECTS/Mol_Feturizer/New_Systems/rnas/3B4C

>  <Rbt.Executable>
rbdock ($Id: //depot/dev/client3/rdock/2013.1/src/exe/rbdock.cxx#4 $)

>  <Rbt.Library>
libRbt.so (2013.1, Build901 2013/11/27)

>  <Rbt.Parameter_File>
/export/apps/rDock/src/rDock_2013.1_src/data/scripts/dock_solv.prm

>  <Rbt.Receptor>
prm/blind_docking_100.prm

>  <SCORE>
-10.9451

>  <SCORE.INTER>
-10.422

>  <SCORE.INTER.CONST>
1

>  <SCORE.INTER.POLAR>
0

>  <SCORE.INTER.ROT>
3

>  <SCORE.INTER.SOLV>
17.9598

>  <SCORE.INTER.VDW>
-18.5346

>  <SCORE.INTER.norm>
-0.651377

>  <SCORE.INTRA>
-0.523033

>  <SCORE.INTRA.DIHEDRAL>
-0.0346847

>  <SCORE.INTRA.DIHEDRAL.0>
2.1318

>  <SCORE.INTRA.POLAR>
0

>  <SCORE.INTRA.POLAR.0>
0

>  <SCORE.INTRA.REPUL>
0

>  <SCORE.INTRA.REPUL.0>
0

>  <SCORE.INTRA.SOLV>
-0.759589

>  <SCORE.INTRA.SOLV.lig_0>
-58.6125

>  <SCORE.INTRA.VDW>
-0.125896

>  <SCORE.INTRA.VDW.0>
-0.432734

>  <SCORE.INTRA.norm>
-0.0326896

>  <SCORE.RESTR>
0

>  <SCORE.RESTR.CAVITY>
0

>  <SCORE.RESTR.norm>
0

>  <SCORE.SYSTEM>
0

>  <SCORE.SYSTEM.CONST>
0

>  <SCORE.SYSTEM.DIHEDRAL>
0

>  <SCORE.SYSTEM.SOLV>
0

>  <SCORE.SYSTEM.norm>
0

>  <SCORE.heavy>
16

>  <SCORE.norm>
-0.684067

>  <RMSD>
19.505

$$$$
ligand
 OpenBabel11021811463D
libRbt.so/2013.1/901 2013/11/27
 16 16  0  0  0  0  0  0  0  0999 V2000
   34.7899   -2.7064    9.6493 P   0  0  2  0  0  0  0  0  0  0  0  0
   33.5132   -3.4393    9.8345 O   0  0  0  0  0  0  0  0  0  0  0  0
   35.7883   -3.5865    8.7451 O   0  5  0  0  0  0  0  0  0  0  0  0
   35.4692   -2.4629   11.0911 O   0  0  0  0  0  0  0  0  0  0  0  0
   34.8166    2.2995    6.4937 C   0  0  2  0  0  0  0  0  0  0  0  0
   36.0173    3.0719    6.6104 O   0  0  0  0  0  0  0  0  0  0  0  0
   33.6707    2.9407    7.3184 C   0  0  2  0  0  0  0  0  0  0  0  0
   33.4296    4.3187    6.8497 N   0  0  0  0  0  0  0  0  0  0  0  0
   34.0813    2.9535    8.8005 C   0  0  1  0  0  0  0  0  0  0  0  0
   33.0379    3.5232    9.5956 O   0  0  0  0  0  0  0  0  0  0  0  0
   34.3212    1.5083    9.2336 C   0  0  2  0  0  0  0  0  0  0  0  0
   34.7048    1.4974   10.6028 O   0  0  0  0  0  0  0  0  0  0  0  0
   35.4536    0.9061    8.3578 C   0  0  2  0  0  0  0  0  0  0  0  0
   35.0740    0.9351    6.9477 O   0  0  0  0  0  0  0  0  0  0  0  0
   35.7289   -0.5650    8.7559 C   0  0  0  0  0  0  0  0  0  0  0  0
   34.4962   -1.2898    8.9196 O   0  0  0  0  0  0  0  0  0  0  0  0
  1  2  1  1  0  0  0
  1  3  1  0  0  0  0
  1  4  2  0  0  0  0
  1 16  1  0  0  0  0
  5  6  1  1  0  0  0
  5  7  1  0  0  0  0
  5 14  1  0  0  0  0
  7  8  1  6  0  0  0
  7  9  1  0  0  0  0
  9 10  1  1  0  0  0
  9 11  1  0  0  0  0
 11 12  1  1  0  0  0
 11 13  1  0  0  0  0
 13 14  1  0  0  0  0
 13 15  1  1  0  0  0
 15 16  1  0  0  0  0
M  CHG  1   3  -1
M  END
>  <CHROM.1>
44.96693195,-167.35916183,179.11452446,34.66977986,0.31268765,8.72105034
1.35234463,-1.08247702,2.61664808

>  <Name>
ligand

>  <RI>
0

>  <Rbt.Current_Directory>
/home/itssahil/PROJECTS/Mol_Feturizer/New_Systems/rnas/3B4C

>  <Rbt.Executable>
rbdock ($Id: //depot/dev/client3/rdock/2013.1/src/exe/rbdock.cxx#4 $)

>  <Rbt.Library>
libRbt.so (2013.1, Build901 2013/11/27)

>  <Rbt.Parameter_File>
/export/apps/rDock/src/rDock_2013.1_src/data/scripts/dock_solv.prm

>  <Rbt.Receptor>
prm/blind_docking_60.prm

>  <SCORE>
-9.23296

>  <SCORE.INTER>
-8.78875

>  <SCORE.INTER.CONST>
1

>  <SCORE.INTER.POLAR>
0

>  <SCORE.INTER.ROT>
3

>  <SCORE.INTER.SOLV>
13.1375

>  <SCORE.INTER.VDW>
-15.8383

>  <SCORE.INTER.norm>
-0.549297

>  <SCORE.INTRA>
-0.446744

>  <SCORE.INTRA.DIHEDRAL>
-0.596824

>  <SCORE.INTRA.DIHEDRAL.0>
2.1318

>  <SCORE.INTRA.POLAR>
0

>  <SCORE.INTRA.POLAR.0>
0

>  <SCORE.INTRA.REPUL>
0

>  <SCORE.INTRA.REPUL.0>
0

>  <SCORE.INTRA.SOLV>
0.256502

>  <SCORE.INTRA.SOLV.lig_0>
-58.6125

>  <SCORE.INTRA.VDW>
-0.276583

>  <SCORE.INTRA.VDW.0>
-0.432734

>  <SCORE.INTRA.norm>
-0.0279215

>  <SCORE.RESTR>
0.00254021

>  <SCORE.RESTR.CAVITY>
0.00254021

>  <SCORE.RESTR.norm>
0.000158763

>  <SCORE.SYSTEM>
0

>  <SCORE.SYSTEM.CONST>
0

>  <SCORE.SYSTEM.DIHEDRAL>
0

>  <SCORE.SYSTEM.SOLV>
0

>  <SCORE.SYSTEM.norm>
0

>  <SCORE.heavy>
16

>  <SCORE.norm>
-0.57706

>  <RMSD>
19.511

$$$$
ligand
 OpenBabel11021811463D
libRbt.so/2013.1/901 2013/11/27
 16 16  0  0  0  0  0  0  0  0999 V2000
   34.9825   -2.3594   10.0514 P   0  0  2  0  0  0  0  0  0  0  0  0
   33.5789   -2.7180   10.3719 O   0  0  0  0  0  0  0  0  0  0  0  0
   35.4779   -3.2121    8.7801 O   0  5  0  0  0  0  0  0  0  0  0  0
   35.9172   -2.7165   11.3157 O   0  0  0  0  0  0  0  0  0  0  0  0
   33.6044    2.6464    6.5787 C   0  0  2  0  0  0  0  0  0  0  0  0
   34.9547    2.9676    6.2244 O   0  0  0  0  0  0  0  0  0  0  0  0
   33.0940    3.5871    7.7005 C   0  0  2  0  0  0  0  0  0  0  0  0
   33.1755    4.9899    7.2508 N   0  0  0  0  0  0  0  0  0  0  0  0
   33.9702    3.3829    8.9479 C   0  0  1  0  0  0  0  0  0  0  0  0
   33.5160    4.2237   10.0118 O   0  0  0  0  0  0  0  0  0  0  0  0
   33.8531    1.9191    9.3693 C   0  0  2  0  0  0  0  0  0  0  0  0
   34.6589    1.7077   10.5216 O   0  0  0  0  0  0  0  0  0  0  0  0
   34.3470    1.0224    8.2014 C   0  0  2  0  0  0  0  0  0  0  0  0
   33.5366    1.2517    7.0081 O   0  0  0  0  0  0  0  0  0  0  0  0
   34.2404   -0.4757    8.5796 C   0  0  0  0  0  0  0  0  0  0  0  0
   35.0704   -0.7765    9.7163 O   0  0  0  0  0  0  0  0  0  0  0  0
  1  2  1  1  0  0  0
  1  3  1  0  0  0  0
  1  4  2  0  0  0  0
  1 16  1  0  0  0  0
  5  6  1  1  0  0  0
  5  7  1  0  0  0  0
  5 14  1  0  0  0  0
  7  8  1  6  0  0  0
  7  9  1  0  0  0  0
  9 10  1  1  0  0  0
  9 11  1  0  0  0  0
 11 12  1  1  0  0  0
 11 13  1  0  0  0  0
 13 14  1  0  0  0  0
 13 15  1  1  0  0  0
 15 16  1  0  0  0  0
M  CHG  1   3  -1
M  END
>  <CHROM.1>
-61.65655039,-177.80457574,-60.59983499,34.32880665,0.65558157,8.91535095
-0.19010731,1.36261277,-1.73744988

>  <Name>
ligand

>  <RI>
0

>  <Rbt.Current_Directory>
/home/itssahil/PROJECTS/Mol_Feturizer/New_Systems/rnas/3B4C

>  <Rbt.Executable>
rbdock ($Id: //depot/dev/client3/rdock/2013.1/src/exe/rbdock.cxx#4 $)

>  <Rbt.Library>
libRbt.so (2013.1, Build901 2013/11/27)

>  <Rbt.Parameter_File>
/export/apps/rDock/src/rDock_2013.1_src/data/scripts/dock_solv.prm

>  <Rbt.Receptor>
prm/blind_docking_40.prm

>  <SCORE>
-8.84739

>  <SCORE.INTER>
-7.48051

>  <SCORE.INTER.CONST>
1

>  <SCORE.INTER.POLAR>
0

>  <SCORE.INTER.ROT>
3

>  <SCORE.INTER.SOLV>
13.9549

>  <SCORE.INTER.VDW>
-15.2386

>  <SCORE.INTER.norm>
-0.467532

>  <SCORE.INTRA>
-1.36689

>  <SCORE.INTRA.DIHEDRAL>
-2.09572

>  <SCORE.INTRA.DIHEDRAL.0>
2.1318

>  <SCORE.INTRA.POLAR>
0

>  <SCORE.INTRA.POLAR.0>
0

>  <SCORE.INTRA.REPUL>
0

>  <SCORE.INTRA.REPUL.0>
0

>  <SCORE.INTRA.SOLV>
-0.59246

>  <SCORE.INTRA.SOLV.lig_0>
-58.6125

>  <SCORE.INTRA.VDW>
-0.0227942

>  <SCORE.INTRA.VDW.0>
-0.432734

>  <SCORE.INTRA.norm>
-0.0854304

>  <SCORE.RESTR>
0

>  <SCORE.RESTR.CAVITY>
0

>  <SCORE.RESTR.norm>
0

>  <SCORE.SYSTEM>
0

>  <SCORE.SYSTEM.CONST>
0

>  <SCORE.SYSTEM.DIHEDRAL>
0

>  <SCORE.SYSTEM.SOLV>
0

>  <SCORE.SYSTEM.norm>
0

>  <SCORE.heavy>
16

>  <SCORE.norm>
-0.552962

>  <RMSD>
19.532

$$$$
ligand
 OpenBabel11021811463D
libRbt.so/2013.1/901 2013/11/27
 16 16  0  0  0  0  0  0  0  0999 V2000
   32.7620    3.3254    9.6095 P   0  0  2  0  0  0  0  0  0  0  0  0
   31.7421    2.7456    8.7014 O   0  0  0  0  0  0  0  0  0  0  0  0
   32.0329    4.1879   10.7555 O   0  5  0  0  0  0  0  0  0  0  0  0
   33.7289    4.2971    8.7607 O   0  0  0  0  0  0  0  0  0  0  0  0
   34.2612   -2.0794   10.5140 C   0  0  2  0  0  0  0  0  0  0  0  0
   34.8654   -1.8989   11.8002 O   0  0  0  0  0  0  0  0  0  0  0  0
   35.2557   -2.7491    9.5309 C   0  0  2  0  0  0  0  0  0  0  0  0
   35.6888   -4.0523   10.0702 N   0  0  0  0  0  0  0  0  0  0  0  0
   36.4707   -1.8225    9.3556 C   0  0  1  0  0  0  0  0  0  0  0  0
   37.4033   -2.4013    8.4389 O   0  0  0  0  0  0  0  0  0  0  0  0
   35.9690   -0.4908    8.7998 C   0  0  2  0  0  0  0  0  0  0  0  0
   37.0780    0.3832    8.6321 O   0  0  0  0  0  0  0  0  0  0  0  0
   34.9560    0.1202    9.8061 C   0  0  2  0  0  0  0  0  0  0  0  0
   33.8250   -0.7837    9.9993 O   0  0  0  0  0  0  0  0  0  0  0  0
   34.4123    1.4722    9.2815 C   0  0  0  0  0  0  0  0  0  0  0  0
   33.6207    2.1301   10.2875 O   0  0  0  0  0  0  0  0  0  0  0  0
  1  2  1  6  0  0  0
  1  3  1  0  0  0  0
  1  4  2  0  0  0  0
  1 16  1  0  0  0  0
  5  6  1  1  0  0  0
  5  7  1  0  0  0  0
  5 14  1  0  0  0  0
  7  8  1  1  0  0  0
  7  9  1  0  0  0  0
  9 10  1  6  0  0  0
  9 11  1  0  0  0  0
 11 12  1  1  0  0  0
 11 13  1  0  0  0  0
 13 14  1  0  0  0  0
 13 15  1  6  0  0  0
 15 16  1  0  0  0  0
M  CHG  1   3  -1
M  END
>  <CHROM.1>
-171.98142128,-165.48196596,67.49561689,34.46738340,0.45234212,9.64643839
2.18093814,0.56679111,-0.36916627

>  <Name>
ligand

>  <RI>
0

>  <Rbt.Current_Directory>
/home/itssahil/PROJECTS/Mol_Feturizer/New_Systems/rnas/3B4C

>  <Rbt.Executable>
rbdock ($Id: //depot/dev/client3/rdock/2013.1/src/exe/rbdock.cxx#4 $)

>  <Rbt.Library>
libRbt.so (2013.1, Build901 2013/11/27)

>  <Rbt.Parameter_File>
/export/apps/rDock/src/rDock_2013.1_src/data/scripts/dock_solv.prm

>  <Rbt.Receptor>
prm/blind_docking_80.prm

>  <SCORE>
-9.22633

>  <SCORE.INTER>
-8.17007

>  <SCORE.INTER.CONST>
1

>  <SCORE.INTER.POLAR>
0

>  <SCORE.INTER.ROT>
3

>  <SCORE.INTER.SOLV>
18.7096

>  <SCORE.INTER.VDW>
-17.2832

>  <SCORE.INTER.norm>
-0.510629

>  <SCORE.INTRA>
-1.05626

>  <SCORE.INTRA.DIHEDRAL>
-0.813231

>  <SCORE.INTRA.DIHEDRAL.0>
2.1318

>  <SCORE.INTRA.POLAR>
0

>  <SCORE.INTRA.POLAR.0>
0

>  <SCORE.INTRA.REPUL>
0

>  <SCORE.INTRA.REPUL.0>
0

>  <SCORE.INTRA.SOLV>
-0.92869

>  <SCORE.INTRA.SOLV.lig_0>
-58.6125

>  <SCORE.INTRA.VDW>
-0.185301

>  <SCORE.INTRA.VDW.0>
-0.432734

>  <SCORE.INTRA.norm>
-0.0660163

>  <SCORE.RESTR>
0

>  <SCORE.RESTR.CAVITY>
0

>  <SCORE.RESTR.norm>
0

>  <SCORE.SYSTEM>
0

>  <SCORE.SYSTEM.CONST>
0

>  <SCORE.SYSTEM.DIHEDRAL>
0

>  <SCORE.SYSTEM.SOLV>
0

>  <SCORE.SYSTEM.norm>
0

>  <SCORE.heavy>
16

>  <SCORE.norm>
-0.576646

>  <RMSD>
19.558

$$$$
ligand
 OpenBabel11021811463D
libRbt.so/2013.1/901 2013/11/27
 16 16  0  0  0  0  0  0  0  0999 V2000
   37.0463   -4.9604   11.0592 P   0  0  2  0  0  0  0  0  0  0  0  0
   35.9750   -5.9729   10.8903 O   0  0  0  0  0  0  0  0  0  0  0  0
   38.2851   -5.3237   10.0988 O   0  5  0  0  0  0  0  0  0  0  0  0
   37.5501   -4.9798   12.5907 O   0  0  0  0  0  0  0  0  0  0  0  0
   34.2974   -0.1625    9.3012 C   0  0  2  0  0  0  0  0  0  0  0  0
   33.7762   -0.1808    7.9670 O   0  0  0  0  0  0  0  0  0  0  0  0
   35.5122    0.7956    9.4015 C   0  0  2  0  0  0  0  0  0  0  0  0
   35.1082    2.1569    9.0010 N   0  0  0  0  0  0  0  0  0  0  0  0
   36.6213    0.2803    8.4689 C   0  0  1  0  0  0  0  0  0  0  0  0
   37.7674    1.1319    8.5493 O   0  0  0  0  0  0  0  0  0  0  0  0
   36.9997   -1.1283    8.9232 C   0  0  2  0  0  0  0  0  0  0  0  0
   38.0240   -1.6254    8.0713 O   0  0  0  0  0  0  0  0  0  0  0  0
   35.7432   -2.0365    8.8324 C   0  0  2  0  0  0  0  0  0  0  0  0
   34.6796   -1.5181    9.6889 O   0  0  0  0  0  0  0  0  0  0  0  0
   36.0762   -3.4778    9.2911 C   0  0  0  0  0  0  0  0  0  0  0  0
   36.4681   -3.4961   10.6759 O   0  0  0  0  0  0  0  0  0  0  0  0
  1  2  1  6  0  0  0
  1  3  1  0  0  0  0
  1  4  2  0  0  0  0
  1 16  1  0  0  0  0
  5  6  1  6  0  0  0
  5  7  1  0  0  0  0
  5 14  1  0  0  0  0
  7  8  1  6  0  0  0
  7  9  1  0  0  0  0
  9 10  1  1  0  0  0
  9 11  1  0  0  0  0
 11 12  1  6  0  0  0
 11 13  1  0  0  0  0
 13 14  1  0  0  0  0
 13 15  1  1  0  0  0
 15 16  1  0  0  0  0
M  CHG  1   3  -1
M  END
>  <CHROM.1>
63.18362318,-170.53400914,-62.57592989,36.32779488,-2.19340829,9.68006370
1.33241696,-0.10987484,2.72327199

>  <Name>
ligand

>  <RI>
0

>  <Rbt.Current_Directory>
/home/itssahil/PROJECTS/Mol_Feturizer/New_Systems/rnas/3B4C

>  <Rbt.Executable>
rbdock ($Id: //depot/dev/client3/rdock/2013.1/src/exe/rbdock.cxx#4 $)

>  <Rbt.Library>
libRbt.so (2013.1, Build901 2013/11/27)

>  <Rbt.Parameter_File>
/export/apps/rDock/src/rDock_2013.1_src/data/scripts/dock_solv.prm

>  <Rbt.Receptor>
prm/blind_docking_80.prm

>  <SCORE>
-7.88011

>  <SCORE.INTER>
-6.47482

>  <SCORE.INTER.CONST>
1

>  <SCORE.INTER.POLAR>
0

>  <SCORE.INTER.ROT>
3

>  <SCORE.INTER.SOLV>
13.8452

>  <SCORE.INTER.VDW>
-14.5316

>  <SCORE.INTER.norm>
-0.404676

>  <SCORE.INTRA>
-1.40529

>  <SCORE.INTRA.DIHEDRAL>
-1.64831

>  <SCORE.INTRA.DIHEDRAL.0>
2.1318

>  <SCORE.INTRA.POLAR>
0

>  <SCORE.INTRA.POLAR.0>
0

>  <SCORE.INTRA.REPUL>
0

>  <SCORE.INTRA.REPUL.0>
0

>  <SCORE.INTRA.SOLV>
-0.56345

>  <SCORE.INTRA.SOLV.lig_0>
-58.6125

>  <SCORE.INTRA.VDW>
-0.299414

>  <SCORE.INTRA.VDW.0>
-0.432734

>  <SCORE.INTRA.norm>
-0.0878308

>  <SCORE.RESTR>
0

>  <SCORE.RESTR.CAVITY>
0

>  <SCORE.RESTR.norm>
0

>  <SCORE.SYSTEM>
0

>  <SCORE.SYSTEM.CONST>
0

>  <SCORE.SYSTEM.DIHEDRAL>
0

>  <SCORE.SYSTEM.SOLV>
0

>  <SCORE.SYSTEM.norm>
0

>  <SCORE.heavy>
16

>  <SCORE.norm>
-0.492507

>  <RMSD>
19.566

$$$$
ligand
 OpenBabel11021811463D
libRbt.so/2013.1/901 2013/11/27
 16 16  0  0  0  0  0  0  0  0999 V2000
   34.4976   -2.4395    9.5964 P   0  0  2  0  0  0  0  0  0  0  0  0
   33.6201   -3.4951   10.1594 O   0  0  0  0  0  0  0  0  0  0  0  0
   34.8151   -2.7708    8.0543 O   0  5  0  0  0  0  0  0  0  0  0  0
   35.8831   -2.4140   10.4207 O   0  0  0  0  0  0  0  0  0  0  0  0
   33.1610    3.2479   10.1432 C   0  0  2  0  0  0  0  0  0  0  0  0
   31.7511    3.0024   10.0822 O   0  0  0  0  0  0  0  0  0  0  0  0
   33.6053    4.1793    8.9860 C   0  0  2  0  0  0  0  0  0  0  0  0
   32.8690    5.4555    9.0623 N   0  0  0  0  0  0  0  0  0  0  0  0
   33.3059    3.4784    7.6501 C   0  0  1  0  0  0  0  0  0  0  0  0
   33.7203    4.3030    6.5577 O   0  0  0  0  0  0  0  0  0  0  0  0
   34.0871    2.1658    7.6233 C   0  0  2  0  0  0  0  0  0  0  0  0
   33.8223    1.4995    6.3954 O   0  0  0  0  0  0  0  0  0  0  0  0
   33.6264    1.2862    8.8175 C   0  0  2  0  0  0  0  0  0  0  0  0
   33.8759    1.9754   10.0809 O   0  0  0  0  0  0  0  0  0  0  0  0
   34.3979   -0.0565    8.8369 C   0  0  0  0  0  0  0  0  0  0  0  0
   33.7519   -1.0051    9.7055 O   0  0  0  0  0  0  0  0  0  0  0  0
  1  2  1  1  0  0  0
  1  3  1  0  0  0  0
  1  4  2  0  0  0  0
  1 16  1  0  0  0  0
  5  6  1  6  0  0  0
  5  7  1  0  0  0  0
  5 14  1  0  0  0  0
  7  8  1  6  0  0  0
  7  9  1  0  0  0  0
  9 10  1  6  0  0  0
  9 11  1  0  0  0  0
 11 12  1  6  0  0  0
 11 13  1  0  0  0  0
 13 14  1  0  0  0  0
 13 15  1  1  0  0  0
 15 16  1  0  0  0  0
M  CHG  1   3  -1
M  END
>  <CHROM.1>
-165.06008753,174.63051665,-163.48877818,33.85784557,0.81120056,8.94123754
0.94655347,-1.22002057,2.36777600

>  <Name>
ligand

>  <RI>
0

>  <Rbt.Current_Directory>
/home/itssahil/PROJECTS/Mol_Feturizer/New_Systems/rnas/3B4C

>  <Rbt.Executable>
rbdock ($Id: //depot/dev/client3/rdock/2013.1/src/exe/rbdock.cxx#4 $)

>  <Rbt.Library>
libRbt.so (2013.1, Build901 2013/11/27)

>  <Rbt.Parameter_File>
/export/apps/rDock/src/rDock_2013.1_src/data/scripts/dock_solv.prm

>  <Rbt.Receptor>
prm/blind_docking_60.prm

>  <SCORE>
-11.4577

>  <SCORE.INTER>
-10.7429

>  <SCORE.INTER.CONST>
1

>  <SCORE.INTER.POLAR>
0

>  <SCORE.INTER.ROT>
3

>  <SCORE.INTER.SOLV>
17.7056

>  <SCORE.INTER.VDW>
-18.6638

>  <SCORE.INTER.norm>
-0.671431

>  <SCORE.INTRA>
-0.714793

>  <SCORE.INTRA.DIHEDRAL>
-0.79134

>  <SCORE.INTRA.DIHEDRAL.0>
2.1318

>  <SCORE.INTRA.POLAR>
0

>  <SCORE.INTRA.POLAR.0>
0

>  <SCORE.INTRA.REPUL>
0

>  <SCORE.INTRA.REPUL.0>
0

>  <SCORE.INTRA.SOLV>
-0.464787

>  <SCORE.INTRA.SOLV.lig_0>
-58.6125

>  <SCORE.INTRA.VDW>
-0.0867294

>  <SCORE.INTRA.VDW.0>
-0.432734

>  <SCORE.INTRA.norm>
-0.0446745

>  <SCORE.RESTR>
0

>  <SCORE.RESTR.CAVITY>
0

>  <SCORE.RESTR.norm>
0

>  <SCORE.SYSTEM>
0

>  <SCORE.SYSTEM.CONST>
0

>  <SCORE.SYSTEM.DIHEDRAL>
0

>  <SCORE.SYSTEM.SOLV>
0

>  <SCORE.SYSTEM.norm>
0

>  <SCORE.heavy>
16

>  <SCORE.norm>
-0.716106

>  <RMSD>
19.619

$$$$
ligand
 OpenBabel11021811463D
libRbt.so/2013.1/901 2013/11/27
 16 16  0  0  0  0  0  0  0  0999 V2000
   34.5029   -2.4407    9.6063 P   0  0  2  0  0  0  0  0  0  0  0  0
   33.6148   -3.4936   10.1579 O   0  0  0  0  0  0  0  0  0  0  0  0
   34.8193   -2.7599    8.0614 O   0  5  0  0  0  0  0  0  0  0  0  0
   35.8874   -2.4361   10.4325 O   0  0  0  0  0  0  0  0  0  0  0  0
   33.1377    3.2375   10.1365 C   0  0  2  0  0  0  0  0  0  0  0  0
   31.7294    2.9859   10.0644 O   0  0  0  0  0  0  0  0  0  0  0  0
   33.5870    4.1715    8.9833 C   0  0  2  0  0  0  0  0  0  0  0  0
   32.8446    5.4445    9.0546 N   0  0  0  0  0  0  0  0  0  0  0  0
   33.3010    3.4702    7.6448 C   0  0  1  0  0  0  0  0  0  0  0  0
   33.7204    4.2972    6.5560 O   0  0  0  0  0  0  0  0  0  0  0  0
   34.0881    2.1610    7.6233 C   0  0  2  0  0  0  0  0  0  0  0  0
   33.8358    1.4942    6.3930 O   0  0  0  0  0  0  0  0  0  0  0  0
   33.6220    1.2787    8.8134 C   0  0  2  0  0  0  0  0  0  0  0  0
   33.8586    1.9682   10.0791 O   0  0  0  0  0  0  0  0  0  0  0  0
   34.3991   -0.0607    8.8380 C   0  0  0  0  0  0  0  0  0  0  0  0
   33.7703   -1.0005    9.7285 O   0  0  0  0  0  0  0  0  0  0  0  0
  1  2  1  1  0  0  0
  1  3  1  0  0  0  0
  1  4  2  0  0  0  0
  1 16  1  0  0  0  0
  5  6  1  6  0  0  0
  5  7  1  0  0  0  0
  5 14  1  0  0  0  0
  7  8  1  6  0  0  0
  7  9  1  0  0  0  0
  9 10  1  6  0  0  0
  9 11  1  0  0  0  0
 11 12  1  6  0  0  0
 11 13  1  0  0  0  0
 13 14  1  0  0  0  0
 13 15  1  1  0  0  0
 15 16  1  0  0  0  0
M  CHG  1   3  -1
M  END
>  <CHROM.1>
-166.58897545,173.60302764,-161.65586625,33.85438249,0.80568141,8.94216887
0.95378079,-1.21124718,2.37343188

>  <Name>
ligand

>  <RI>
0

>  <Rbt.Current_Directory>
/home/itssahil/PROJECTS/Mol_Feturizer/New_Systems/rnas/3B4C

>  <Rbt.Executable>
rbdock ($Id: //depot/dev/client3/rdock/2013.1/src/exe/rbdock.cxx#4 $)

>  <Rbt.Library>
libRbt.so (2013.1, Build901 2013/11/27)

>  <Rbt.Parameter_File>
/export/apps/rDock/src/rDock_2013.1_src/data/scripts/dock_solv.prm

>  <Rbt.Receptor>
prm/blind_docking_40.prm

>  <SCORE>
-11.4196

>  <SCORE.INTER>
-10.7452

>  <SCORE.INTER.CONST>
1

>  <SCORE.INTER.POLAR>
0

>  <SCORE.INTER.ROT>
3

>  <SCORE.INTER.SOLV>
17.6632

>  <SCORE.INTER.VDW>
-18.6512

>  <SCORE.INTER.norm>
-0.671573

>  <SCORE.INTRA>
-0.674383

>  <SCORE.INTRA.DIHEDRAL>
-0.78428

>  <SCORE.INTRA.DIHEDRAL.0>
2.1318

>  <SCORE.INTRA.POLAR>
0

>  <SCORE.INTRA.POLAR.0>
0

>  <SCORE.INTRA.REPUL>
0

>  <SCORE.INTRA.REPUL.0>
0

>  <SCORE.INTRA.SOLV>
-0.467556

>  <SCORE.INTRA.SOLV.lig_0>
-58.6125

>  <SCORE.INTRA.VDW>
-0.0484644

>  <SCORE.INTRA.VDW.0>
-0.432734

>  <SCORE.INTRA.norm>
-0.0421489

>  <SCORE.RESTR>
0

>  <SCORE.RESTR.CAVITY>
0

>  <SCORE.RESTR.norm>
0

>  <SCORE.SYSTEM>
0

>  <SCORE.SYSTEM.CONST>
0

>  <SCORE.SYSTEM.DIHEDRAL>
0

>  <SCORE.SYSTEM.SOLV>
0

>  <SCORE.SYSTEM.norm>
0

>  <SCORE.heavy>
16

>  <SCORE.norm>
-0.713722

>  <RMSD>
19.624

$$$$
ligand
 OpenBabel11021811463D
libRbt.so/2013.1/901 2013/11/27
 16 16  0  0  0  0  0  0  0  0999 V2000
   32.4351    2.2626    7.3870 P   0  0  2  0  0  0  0  0  0  0  0  0
   31.2398    2.2059    8.2642 O   0  0  0  0  0  0  0  0  0  0  0  0
   32.9964    3.7698    7.3405 O   0  5  0  0  0  0  0  0  0  0  0  0
   32.0135    1.8165    5.8961 O   0  0  0  0  0  0  0  0  0  0  0  0
   36.1024    0.1711   11.9840 C   0  0  2  0  0  0  0  0  0  0  0  0
   37.3655    0.2158   11.3098 O   0  0  0  0  0  0  0  0  0  0  0  0
   35.5418   -1.2744   12.0014 C   0  0  2  0  0  0  0  0  0  0  0  0
   36.5012   -2.1735   12.6709 N   0  0  0  0  0  0  0  0  0  0  0  0
   35.3181   -1.7309   10.5498 C   0  0  1  0  0  0  0  0  0  0  0  0
   34.7831   -3.0570   10.5275 O   0  0  0  0  0  0  0  0  0  0  0  0
   34.3232   -0.7686    9.9032 C   0  0  2  0  0  0  0  0  0  0  0  0
   34.1036   -1.1718    8.5575 O   0  0  0  0  0  0  0  0  0  0  0  0
   34.9195    0.6650    9.9398 C   0  0  2  0  0  0  0  0  0  0  0  0
   35.1679    1.0759   11.3193 O   0  0  0  0  0  0  0  0  0  0  0  0
   33.9408    1.6805    9.2999 C   0  0  0  0  0  0  0  0  0  0  0  0
   33.5771    1.2713    7.9688 O   0  0  0  0  0  0  0  0  0  0  0  0
  1  2  1  1  0  0  0
  1  3  1  0  0  0  0
  1  4  2  0  0  0  0
  1 16  1  0  0  0  0
  5  6  1  6  0  0  0
  5  7  1  0  0  0  0
  5 14  1  0  0  0  0
  7  8  1  6  0  0  0
  7  9  1  0  0  0  0
  9 10  1  1  0  0  0
  9 11  1  0  0  0  0
 11 12  1  6  0  0  0
 11 13  1  0  0  0  0
 13 14  1  0  0  0  0
 13 15  1  1  0  0  0
 15 16  1  0  0  0  0
M  CHG  1   3  -1
M  END
>  <CHROM.1>
-54.59879428,173.96788236,-60.00545549,34.21603283,0.48783564,9.45497252
2.51408240,-0.84681394,-0.06563411

>  <Name>
ligand

>  <RI>
0

>  <Rbt.Current_Directory>
/home/itssahil/PROJECTS/Mol_Feturizer/New_Systems/rnas/3B4C

>  <Rbt.Executable>
rbdock ($Id: //depot/dev/client3/rdock/2013.1/src/exe/rbdock.cxx#4 $)

>  <Rbt.Library>
libRbt.so (2013.1, Build901 2013/11/27)

>  <Rbt.Parameter_File>
/export/apps/rDock/src/rDock_2013.1_src/data/scripts/dock_solv.prm

>  <Rbt.Receptor>
prm/blind_docking_60.prm

>  <SCORE>
-11.2046

>  <SCORE.INTER>
-10.1828

>  <SCORE.INTER.CONST>
1

>  <SCORE.INTER.POLAR>
0

>  <SCORE.INTER.ROT>
3

>  <SCORE.INTER.SOLV>
12.6918

>  <SCORE.INTER.VDW>
-16.6192

>  <SCORE.INTER.norm>
-0.636427

>  <SCORE.INTRA>
-1.02175

>  <SCORE.INTRA.DIHEDRAL>
-1.84465

>  <SCORE.INTRA.DIHEDRAL.0>
2.1318

>  <SCORE.INTRA.POLAR>
0

>  <SCORE.INTRA.POLAR.0>
0

>  <SCORE.INTRA.REPUL>
0

>  <SCORE.INTRA.REPUL.0>
0

>  <SCORE.INTRA.SOLV>
-0.498565

>  <SCORE.INTRA.SOLV.lig_0>
-58.6125

>  <SCORE.INTRA.VDW>
0.149855

>  <SCORE.INTRA.VDW.0>
-0.432734

>  <SCORE.INTRA.norm>
-0.0638596

>  <SCORE.RESTR>
0

>  <SCORE.RESTR.CAVITY>
0

>  <SCORE.RESTR.norm>
0

>  <SCORE.SYSTEM>
0

>  <SCORE.SYSTEM.CONST>
0

>  <SCORE.SYSTEM.DIHEDRAL>
0

>  <SCORE.SYSTEM.SOLV>
0

>  <SCORE.SYSTEM.norm>
0

>  <SCORE.heavy>
16

>  <SCORE.norm>
-0.700287

>  <RMSD>
19.624

$$$$
ligand
 OpenBabel11021811463D
libRbt.so/2013.1/901 2013/11/27
 16 16  0  0  0  0  0  0  0  0999 V2000
   34.4757   -2.5206    9.6756 P   0  0  2  0  0  0  0  0  0  0  0  0
   33.5554   -3.5635   10.1921 O   0  0  0  0  0  0  0  0  0  0  0  0
   34.8725   -2.8602    8.1537 O   0  5  0  0  0  0  0  0  0  0  0  0
   35.8143   -2.5103   10.5742 O   0  0  0  0  0  0  0  0  0  0  0  0
   33.1741    3.1994   10.0795 C   0  0  2  0  0  0  0  0  0  0  0  0
   31.7664    2.9580    9.9709 O   0  0  0  0  0  0  0  0  0  0  0  0
   33.6664    4.1007    8.9179 C   0  0  2  0  0  0  0  0  0  0  0  0
   32.9340    5.3813    8.9353 N   0  0  0  0  0  0  0  0  0  0  0  0
   33.4146    3.3688    7.5889 C   0  0  1  0  0  0  0  0  0  0  0  0
   33.8741    4.1650    6.4934 O   0  0  0  0  0  0  0  0  0  0  0  0
   34.1899    2.0529    7.6235 C   0  0  2  0  0  0  0  0  0  0  0  0
   33.9686    1.3579    6.4029 O   0  0  0  0  0  0  0  0  0  0  0  0
   33.6801    1.2044    8.8202 C   0  0  2  0  0  0  0  0  0  0  0  0
   33.8847    1.9230   10.0752 O   0  0  0  0  0  0  0  0  0  0  0  0
   34.4438   -0.1405    8.9013 C   0  0  0  0  0  0  0  0  0  0  0  0
   33.7434   -1.0766    9.7408 O   0  0  0  0  0  0  0  0  0  0  0  0
  1  2  1  1  0  0  0
  1  3  1  0  0  0  0
  1  4  2  0  0  0  0
  1 16  1  0  0  0  0
  5  6  1  6  0  0  0
  5  7  1  0  0  0  0
  5 14  1  0  0  0  0
  7  8  1  6  0  0  0
  7  9  1  0  0  0  0
  9 10  1  6  0  0  0
  9 11  1  0  0  0  0
 11 12  1  6  0  0  0
 11 13  1  0  0  0  0
 13 14  1  0  0  0  0
 13 15  1  1  0  0  0
 15 16  1  0  0  0  0
M  CHG  1   3  -1
M  END
>  <CHROM.1>
-163.62615585,173.77622230,-163.18864713,33.89404834,0.72562766,8.94699253
1.03732974,-1.19753408,2.43653691

>  <Name>
ligand

>  <RI>
0

>  <Rbt.Current_Directory>
/home/itssahil/PROJECTS/Mol_Feturizer/New_Systems/rnas/3B4C

>  <Rbt.Executable>
rbdock ($Id: //depot/dev/client3/rdock/2013.1/src/exe/rbdock.cxx#4 $)

>  <Rbt.Library>
libRbt.so (2013.1, Build901 2013/11/27)

>  <Rbt.Parameter_File>
/export/apps/rDock/src/rDock_2013.1_src/data/scripts/dock_solv.prm

>  <Rbt.Receptor>
prm/blind_docking_40.prm

>  <SCORE>
-11.3558

>  <SCORE.INTER>
-10.7466

>  <SCORE.INTER.CONST>
1

>  <SCORE.INTER.POLAR>
0

>  <SCORE.INTER.ROT>
3

>  <SCORE.INTER.SOLV>
17.7253

>  <SCORE.INTER.VDW>
-18.6728

>  <SCORE.INTER.norm>
-0.671661

>  <SCORE.INTRA>
-0.609195

>  <SCORE.INTRA.DIHEDRAL>
-0.58367

>  <SCORE.INTRA.DIHEDRAL.0>
2.1318

>  <SCORE.INTRA.POLAR>
0

>  <SCORE.INTRA.POLAR.0>
0

>  <SCORE.INTRA.REPUL>
0

>  <SCORE.INTRA.REPUL.0>
0

>  <SCORE.INTRA.SOLV>
-0.472795

>  <SCORE.INTRA.SOLV.lig_0>
-58.6125

>  <SCORE.INTRA.VDW>
-0.0809621

>  <SCORE.INTRA.VDW.0>
-0.432734

>  <SCORE.INTRA.norm>
-0.0380747

>  <SCORE.RESTR>
0

>  <SCORE.RESTR.CAVITY>
0

>  <SCORE.RESTR.norm>
0

>  <SCORE.SYSTEM>
0

>  <SCORE.SYSTEM.CONST>
0

>  <SCORE.SYSTEM.DIHEDRAL>
0

>  <SCORE.SYSTEM.SOLV>
0

>  <SCORE.SYSTEM.norm>
0

>  <SCORE.heavy>
16

>  <SCORE.norm>
-0.709735

>  <RMSD>
19.641

$$$$
ligand
 OpenBabel11021811463D
libRbt.so/2013.1/901 2013/11/27
 16 16  0  0  0  0  0  0  0  0999 V2000
   32.8329    3.3170    9.3156 P   0  0  2  0  0  0  0  0  0  0  0  0
   33.6144    4.3701   10.0095 O   0  0  0  0  0  0  0  0  0  0  0  0
   32.9627    3.5126    7.7238 O   0  5  0  0  0  0  0  0  0  0  0  0
   31.2816    3.4534    9.7333 O   0  0  0  0  0  0  0  0  0  0  0  0
   35.3982   -1.5338   11.1045 C   0  0  2  0  0  0  0  0  0  0  0  0
   36.8300   -1.5536   11.0675 O   0  0  0  0  0  0  0  0  0  0  0  0
   34.8094   -2.4894   10.0348 C   0  0  2  0  0  0  0  0  0  0  0  0
   35.2994   -3.8614   10.2679 N   0  0  0  0  0  0  0  0  0  0  0  0
   35.2522   -2.0018    8.6450 C   0  0  1  0  0  0  0  0  0  0  0  0
   34.7113   -2.8514    7.6297 O   0  0  0  0  0  0  0  0  0  0  0  0
   34.7238   -0.5809    8.4557 C   0  0  2  0  0  0  0  0  0  0  0  0
   35.1246   -0.1092    7.1756 O   0  0  0  0  0  0  0  0  0  0  0  0
   35.3186    0.3251    9.5681 C   0  0  2  0  0  0  0  0  0  0  0  0
   34.9283   -0.1679   10.8865 O   0  0  0  0  0  0  0  0  0  0  0  0
   34.8046    1.7787    9.4221 C   0  0  0  0  0  0  0  0  0  0  0  0
   33.4023    1.8593    9.7358 O   0  0  0  0  0  0  0  0  0  0  0  0
  1  2  1  1  0  0  0
  1  3  1  0  0  0  0
  1  4  2  0  0  0  0
  1 16  1  0  0  0  0
  5  6  1  6  0  0  0
  5  7  1  0  0  0  0
  5 14  1  0  0  0  0
  7  8  1  1  0  0  0
  7  9  1  0  0  0  0
  9 10  1  6  0  0  0
  9 11  1  0  0  0  0
 11 12  1  6  0  0  0
 11 13  1  0  0  0  0
 13 14  1  0  0  0  0
 13 15  1  6  0  0  0
 15 16  1  0  0  0  0
M  CHG  1   3  -1
M  END
>  <CHROM.1>
69.25783174,-169.63433588,-57.04889819,34.31199140,0.50790663,9.40222003
-2.69287526,1.09792663,-2.13189292

>  <Name>
ligand

>  <RI>
0

>  <Rbt.Current_Directory>
/home/itssahil/PROJECTS/Mol_Feturizer/New_Systems/rnas/3B4C

>  <Rbt.Executable>
rbdock ($Id: //depot/dev/client3/rdock/2013.1/src/exe/rbdock.cxx#4 $)

>  <Rbt.Library>
libRbt.so (2013.1, Build901 2013/11/27)

>  <Rbt.Parameter_File>
/export/apps/rDock/src/rDock_2013.1_src/data/scripts/dock_solv.prm

>  <Rbt.Receptor>
prm/blind_docking_60.prm

>  <SCORE>
-8.13998

>  <SCORE.INTER>
-6.92157

>  <SCORE.INTER.CONST>
1

>  <SCORE.INTER.POLAR>
0

>  <SCORE.INTER.ROT>
3

>  <SCORE.INTER.SOLV>
18.4495

>  <SCORE.INTER.VDW>
-16.3642

>  <SCORE.INTER.norm>
-0.432598

>  <SCORE.INTRA>
-1.21841

>  <SCORE.INTRA.DIHEDRAL>
-1.28996

>  <SCORE.INTRA.DIHEDRAL.0>
2.1318

>  <SCORE.INTRA.POLAR>
0

>  <SCORE.INTRA.POLAR.0>
0

>  <SCORE.INTRA.REPUL>
0

>  <SCORE.INTRA.REPUL.0>
0

>  <SCORE.INTRA.SOLV>
-0.612585

>  <SCORE.INTRA.SOLV.lig_0>
-58.6125

>  <SCORE.INTRA.VDW>
-0.26714

>  <SCORE.INTRA.VDW.0>
-0.432734

>  <SCORE.INTRA.norm>
-0.0761508

>  <SCORE.RESTR>
0

>  <SCORE.RESTR.CAVITY>
0

>  <SCORE.RESTR.norm>
0

>  <SCORE.SYSTEM>
0

>  <SCORE.SYSTEM.CONST>
0

>  <SCORE.SYSTEM.DIHEDRAL>
0

>  <SCORE.SYSTEM.SOLV>
0

>  <SCORE.SYSTEM.norm>
0

>  <SCORE.heavy>
16

>  <SCORE.norm>
-0.508749

>  <RMSD>
19.649

$$$$
ligand
 OpenBabel11021811463D
libRbt.so/2013.1/901 2013/11/27
 16 16  0  0  0  0  0  0  0  0999 V2000
   34.8167   -1.7391   10.4459 P   0  0  2  0  0  0  0  0  0  0  0  0
   33.6099   -2.5865   10.2829 O   0  0  0  0  0  0  0  0  0  0  0  0
   35.9315   -2.1795    9.3725 O   0  5  0  0  0  0  0  0  0  0  0  0
   35.4095   -1.9500   11.9304 O   0  0  0  0  0  0  0  0  0  0  0  0
   33.9587    3.7976    8.9245 C   0  0  2  0  0  0  0  0  0  0  0  0
   32.7781    3.9448    9.7223 O   0  0  0  0  0  0  0  0  0  0  0  0
   33.6527    4.0945    7.4337 C   0  0  2  0  0  0  0  0  0  0  0  0
   33.1209    5.4639    7.2968 N   0  0  0  0  0  0  0  0  0  0  0  0
   32.6154    3.0750    6.9338 C   0  0  1  0  0  0  0  0  0  0  0  0
   32.3216    3.3078    5.5536 O   0  0  0  0  0  0  0  0  0  0  0  0
   33.2121    1.6785    7.0996 C   0  0  2  0  0  0  0  0  0  0  0  0
   32.2667    0.7188    6.6447 O   0  0  0  0  0  0  0  0  0  0  0  0
   33.5273    1.4456    8.6024 C   0  0  2  0  0  0  0  0  0  0  0  0
   34.4815    2.4426    9.0810 O   0  0  0  0  0  0  0  0  0  0  0  0
   34.1428    0.0412    8.8205 C   0  0  0  0  0  0  0  0  0  0  0  0
   34.4185   -0.1854   10.2148 O   0  0  0  0  0  0  0  0  0  0  0  0
  1  2  1  6  0  0  0
  1  3  1  0  0  0  0
  1  4  2  0  0  0  0
  1 16  1  0  0  0  0
  5  6  1  1  0  0  0
  5  7  1  0  0  0  0
  5 14  1  0  0  0  0
  7  8  1  1  0  0  0
  7  9  1  0  0  0  0
  9 10  1  6  0  0  0
  9 11  1  0  0  0  0
 11 12  1  1  0  0  0
 11 13  1  0  0  0  0
 13 14  1  0  0  0  0
 13 15  1  6  0  0  0
 15 16  1  0  0  0  0
M  CHG  1   3  -1
M  END
>  <CHROM.1>
-179.17446989,170.27480033,-71.35690167,33.85309998,1.04282348,8.81377883
-0.84217643,-1.13376837,0.16430637

>  <Name>
ligand

>  <RI>
0

>  <Rbt.Current_Directory>
/home/itssahil/PROJECTS/Mol_Feturizer/New_Systems/rnas/3B4C

>  <Rbt.Executable>
rbdock ($Id: //depot/dev/client3/rdock/2013.1/src/exe/rbdock.cxx#4 $)

>  <Rbt.Library>
libRbt.so (2013.1, Build901 2013/11/27)

>  <Rbt.Parameter_File>
/export/apps/rDock/src/rDock_2013.1_src/data/scripts/dock_solv.prm

>  <Rbt.Receptor>
prm/blind_docking_100.prm

>  <SCORE>
-9.49456

>  <SCORE.INTER>
-8.20032

>  <SCORE.INTER.CONST>
1

>  <SCORE.INTER.POLAR>
0

>  <SCORE.INTER.ROT>
3

>  <SCORE.INTER.SOLV>
12.4885

>  <SCORE.INTER.VDW>
-15.2297

>  <SCORE.INTER.norm>
-0.51252

>  <SCORE.INTRA>
-1.29425

>  <SCORE.INTRA.DIHEDRAL>
-1.46696

>  <SCORE.INTRA.DIHEDRAL.0>
2.1318

>  <SCORE.INTRA.POLAR>
0

>  <SCORE.INTRA.POLAR.0>
0

>  <SCORE.INTRA.REPUL>
0

>  <SCORE.INTRA.REPUL.0>
0

>  <SCORE.INTRA.SOLV>
-0.962831

>  <SCORE.INTRA.SOLV.lig_0>
-58.6125

>  <SCORE.INTRA.VDW>
-0.0793511

>  <SCORE.INTRA.VDW.0>
-0.432734

>  <SCORE.INTRA.norm>
-0.0808906

>  <SCORE.RESTR>
0

>  <SCORE.RESTR.CAVITY>
0

>  <SCORE.RESTR.norm>
0

>  <SCORE.SYSTEM>
0

>  <SCORE.SYSTEM.CONST>
0

>  <SCORE.SYSTEM.DIHEDRAL>
0

>  <SCORE.SYSTEM.SOLV>
0

>  <SCORE.SYSTEM.norm>
0

>  <SCORE.heavy>
16

>  <SCORE.norm>
-0.59341

>  <RMSD>
19.652

$$$$
ligand
 OpenBabel11021811463D
libRbt.so/2013.1/901 2013/11/27
 16 16  0  0  0  0  0  0  0  0999 V2000
   34.4939   -2.6031    9.7408 P   0  0  2  0  0  0  0  0  0  0  0  0
   33.5469   -3.6523   10.1920 O   0  0  0  0  0  0  0  0  0  0  0  0
   35.0083   -2.9464    8.2554 O   0  5  0  0  0  0  0  0  0  0  0  0
   35.7603   -2.5750   10.7382 O   0  0  0  0  0  0  0  0  0  0  0  0
   33.2605    3.1419   10.0331 C   0  0  2  0  0  0  0  0  0  0  0  0
   31.8487    2.9160    9.9455 O   0  0  0  0  0  0  0  0  0  0  0  0
   33.7508    4.0105    8.8460 C   0  0  2  0  0  0  0  0  0  0  0  0
   33.0345    5.3004    8.8425 N   0  0  0  0  0  0  0  0  0  0  0  0
   33.4747    3.2521    7.5368 C   0  0  1  0  0  0  0  0  0  0  0  0
   33.9317    4.0175    6.4185 O   0  0  0  0  0  0  0  0  0  0  0  0
   34.2340    1.9276    7.5926 C   0  0  2  0  0  0  0  0  0  0  0  0
   33.9903    1.2082    6.3905 O   0  0  0  0  0  0  0  0  0  0  0  0
   33.7273    1.1128    8.8138 C   0  0  2  0  0  0  0  0  0  0  0  0
   33.9550    1.8569   10.0498 O   0  0  0  0  0  0  0  0  0  0  0  0
   34.4751   -0.2395    8.9169 C   0  0  0  0  0  0  0  0  0  0  0  0
   33.7453   -1.1660    9.7419 O   0  0  0  0  0  0  0  0  0  0  0  0
  1  2  1  1  0  0  0
  1  3  1  0  0  0  0
  1  4  2  0  0  0  0
  1 16  1  0  0  0  0
  5  6  1  6  0  0  0
  5  7  1  0  0  0  0
  5 14  1  0  0  0  0
  7  8  1  6  0  0  0
  7  9  1  0  0  0  0
  9 10  1  6  0  0  0
  9 11  1  0  0  0  0
 11 12  1  6  0  0  0
 11 13  1  0  0  0  0
 13 14  1  0  0  0  0
 13 15  1  1  0  0  0
 15 16  1  0  0  0  0
M  CHG  1   3  -1
M  END
>  <CHROM.1>
-161.30858845,175.79962382,-161.31531114,33.93973760,0.63400731,8.94815236
1.04076369,-1.21324320,2.41752307

>  <Name>
ligand

>  <RI>
0

>  <Rbt.Current_Directory>
/home/itssahil/PROJECTS/Mol_Feturizer/New_Systems/rnas/3B4C

>  <Rbt.Executable>
rbdock ($Id: //depot/dev/client3/rdock/2013.1/src/exe/rbdock.cxx#4 $)

>  <Rbt.Library>
libRbt.so (2013.1, Build901 2013/11/27)

>  <Rbt.Parameter_File>
/export/apps/rDock/src/rDock_2013.1_src/data/scripts/dock_solv.prm

>  <Rbt.Receptor>
prm/blind_docking_40.prm

>  <SCORE>
-11.4077

>  <SCORE.INTER>
-10.9394

>  <SCORE.INTER.CONST>
1

>  <SCORE.INTER.POLAR>
0

>  <SCORE.INTER.ROT>
3

>  <SCORE.INTER.SOLV>
17.5572

>  <SCORE.INTER.VDW>
-18.7453

>  <SCORE.INTER.norm>
-0.683711

>  <SCORE.INTRA>
-0.468283

>  <SCORE.INTRA.DIHEDRAL>
-0.337268

>  <SCORE.INTRA.DIHEDRAL.0>
2.1318

>  <SCORE.INTRA.POLAR>
0

>  <SCORE.INTRA.POLAR.0>
0

>  <SCORE.INTRA.REPUL>
0

>  <SCORE.INTRA.REPUL.0>
0

>  <SCORE.INTRA.SOLV>
-0.478744

>  <SCORE.INTRA.SOLV.lig_0>
-58.6125

>  <SCORE.INTRA.VDW>
-0.0602768

>  <SCORE.INTRA.VDW.0>
-0.432734

>  <SCORE.INTRA.norm>
-0.0292677

>  <SCORE.RESTR>
0

>  <SCORE.RESTR.CAVITY>
0

>  <SCORE.RESTR.norm>
0

>  <SCORE.SYSTEM>
0

>  <SCORE.SYSTEM.CONST>
0

>  <SCORE.SYSTEM.DIHEDRAL>
0

>  <SCORE.SYSTEM.SOLV>
0

>  <SCORE.SYSTEM.norm>
0

>  <SCORE.heavy>
16

>  <SCORE.norm>
-0.712978

>  <RMSD>
19.661

$$$$
ligand
 OpenBabel11021811463D
libRbt.so/2013.1/901 2013/11/27
 16 16  0  0  0  0  0  0  0  0999 V2000
   34.4495   -2.2094    9.9870 P   0  0  2  0  0  0  0  0  0  0  0  0
   33.4915   -3.3407   10.0484 O   0  0  0  0  0  0  0  0  0  0  0  0
   35.6917   -2.6079    9.0452 O   0  5  0  0  0  0  0  0  0  0  0  0
   34.9974   -1.9044   11.4724 O   0  0  0  0  0  0  0  0  0  0  0  0
   33.9458    3.9448    9.2229 C   0  0  2  0  0  0  0  0  0  0  0  0
   32.6966    4.0201    9.9198 O   0  0  0  0  0  0  0  0  0  0  0  0
   33.7274    4.0669    7.6927 C   0  0  2  0  0  0  0  0  0  0  0  0
   33.0563    5.3443    7.3850 N   0  0  0  0  0  0  0  0  0  0  0  0
   32.8554    2.8890    7.2265 C   0  0  1  0  0  0  0  0  0  0  0  0
   32.6477    2.9592    5.8133 O   0  0  0  0  0  0  0  0  0  0  0  0
   33.5916    1.5952    7.5700 C   0  0  2  0  0  0  0  0  0  0  0  0
   32.8003    0.4914    7.1488 O   0  0  0  0  0  0  0  0  0  0  0  0
   33.8110    1.5385    9.1065 C   0  0  2  0  0  0  0  0  0  0  0  0
   34.6048    2.6823    9.5480 O   0  0  0  0  0  0  0  0  0  0  0  0
   34.5625    0.2440    9.5040 C   0  0  0  0  0  0  0  0  0  0  0  0
   33.7026   -0.9039    9.3841 O   0  0  0  0  0  0  0  0  0  0  0  0
  1  2  1  1  0  0  0
  1  3  1  0  0  0  0
  1  4  2  0  0  0  0
  1 16  1  0  0  0  0
  5  6  1  1  0  0  0
  5  7  1  0  0  0  0
  5 14  1  0  0  0  0
  7  8  1  1  0  0  0
  7  9  1  0  0  0  0
  9 10  1  6  0  0  0
  9 11  1  0  0  0  0
 11 12  1  1  0  0  0
 11 13  1  0  0  0  0
 13 14  1  0  0  0  0
 13 15  1  6  0  0  0
 15 16  1  0  0  0  0
M  CHG  1   3  -1
M  END
>  <CHROM.1>
-72.49249056,-172.66079470,171.59201772,33.84047737,0.85242409,8.86776825
-0.95356021,-1.22330206,0.24245024

>  <Name>
ligand

>  <RI>
0

>  <Rbt.Current_Directory>
/home/itssahil/PROJECTS/Mol_Feturizer/New_Systems/rnas/3B4C

>  <Rbt.Executable>
rbdock ($Id: //depot/dev/client3/rdock/2013.1/src/exe/rbdock.cxx#4 $)

>  <Rbt.Library>
libRbt.so (2013.1, Build901 2013/11/27)

>  <Rbt.Parameter_File>
/export/apps/rDock/src/rDock_2013.1_src/data/scripts/dock_solv.prm

>  <Rbt.Receptor>
prm/blind_docking_80.prm

>  <SCORE>
-10.9748

>  <SCORE.INTER>
-10.0232

>  <SCORE.INTER.CONST>
1

>  <SCORE.INTER.POLAR>
0

>  <SCORE.INTER.ROT>
3

>  <SCORE.INTER.SOLV>
15.2476

>  <SCORE.INTER.VDW>
-17.3646

>  <SCORE.INTER.norm>
-0.626447

>  <SCORE.INTRA>
-0.951624

>  <SCORE.INTRA.DIHEDRAL>
-1.21415

>  <SCORE.INTRA.DIHEDRAL.0>
2.1318

>  <SCORE.INTRA.POLAR>
0

>  <SCORE.INTRA.POLAR.0>
0

>  <SCORE.INTRA.REPUL>
0

>  <SCORE.INTRA.REPUL.0>
0

>  <SCORE.INTRA.SOLV>
-0.120497

>  <SCORE.INTRA.SOLV.lig_0>
-58.6125

>  <SCORE.INTRA.VDW>
-0.284301

>  <SCORE.INTRA.VDW.0>
-0.432734

>  <SCORE.INTRA.norm>
-0.0594765

>  <SCORE.RESTR>
0

>  <SCORE.RESTR.CAVITY>
0

>  <SCORE.RESTR.norm>
0

>  <SCORE.SYSTEM>
0

>  <SCORE.SYSTEM.CONST>
0

>  <SCORE.SYSTEM.DIHEDRAL>
0

>  <SCORE.SYSTEM.SOLV>
0

>  <SCORE.SYSTEM.norm>
0

>  <SCORE.heavy>
16

>  <SCORE.norm>
-0.685923

>  <RMSD>
19.703

$$$$
ligand
 OpenBabel11021811463D
libRbt.so/2013.1/901 2013/11/27
 16 16  0  0  0  0  0  0  0  0999 V2000
   34.7888   -1.9382   10.2123 P   0  0  2  0  0  0  0  0  0  0  0  0
   33.5825   -2.7949   10.1024 O   0  0  0  0  0  0  0  0  0  0  0  0
   35.8297   -2.3241    9.0476 O   0  5  0  0  0  0  0  0  0  0  0  0
   35.4870   -2.1958   11.6426 O   0  0  0  0  0  0  0  0  0  0  0  0
   33.9768    3.6741    8.9792 C   0  0  2  0  0  0  0  0  0  0  0  0
   32.7919    3.7955    9.7749 O   0  0  0  0  0  0  0  0  0  0  0  0
   33.6865    4.0510    7.5035 C   0  0  2  0  0  0  0  0  0  0  0  0
   33.1731    5.4324    7.4332 N   0  0  0  0  0  0  0  0  0  0  0  0
   32.6404    3.0720    6.9443 C   0  0  1  0  0  0  0  0  0  0  0  0
   32.3606    3.3790    5.5758 O   0  0  0  0  0  0  0  0  0  0  0  0
   33.2181    1.6611    7.0426 C   0  0  2  0  0  0  0  0  0  0  0  0
   32.2643    0.7383    6.5321 O   0  0  0  0  0  0  0  0  0  0  0  0
   33.5184    1.3475    8.5337 C   0  0  2  0  0  0  0  0  0  0  0  0
   34.4812    2.3061    9.0698 O   0  0  0  0  0  0  0  0  0  0  0  0
   34.1144   -0.0741    8.6839 C   0  0  0  0  0  0  0  0  0  0  0  0
   34.3590   -0.3825   10.0683 O   0  0  0  0  0  0  0  0  0  0  0  0
  1  2  1  6  0  0  0
  1  3  1  0  0  0  0
  1  4  2  0  0  0  0
  1 16  1  0  0  0  0
  5  6  1  1  0  0  0
  5  7  1  0  0  0  0
  5 14  1  0  0  0  0
  7  8  1  1  0  0  0
  7  9  1  0  0  0  0
  9 10  1  6  0  0  0
  9 11  1  0  0  0  0
 11 12  1  1  0  0  0
 11 13  1  0  0  0  0
 13 14  1  0  0  0  0
 13 15  1  6  0  0  0
 15 16  1  0  0  0  0
M  CHG  1   3  -1
M  END
>  <CHROM.1>
-178.38494606,172.33582455,-77.16454361,33.85092456,0.93257271,8.72278471
-0.85963971,-1.13875071,0.20017120

>  <Name>
ligand

>  <RI>
0

>  <Rbt.Current_Directory>
/home/itssahil/PROJECTS/Mol_Feturizer/New_Systems/rnas/3B4C

>  <Rbt.Executable>
rbdock ($Id: //depot/dev/client3/rdock/2013.1/src/exe/rbdock.cxx#4 $)

>  <Rbt.Library>
libRbt.so (2013.1, Build901 2013/11/27)

>  <Rbt.Parameter_File>
/export/apps/rDock/src/rDock_2013.1_src/data/scripts/dock_solv.prm

>  <Rbt.Receptor>
prm/blind_docking_40.prm

>  <SCORE>
-9.49262

>  <SCORE.INTER>
-8.35131

>  <SCORE.INTER.CONST>
1

>  <SCORE.INTER.POLAR>
0

>  <SCORE.INTER.ROT>
3

>  <SCORE.INTER.SOLV>
12.3005

>  <SCORE.INTER.VDW>
-15.2677

>  <SCORE.INTER.norm>
-0.521957

>  <SCORE.INTRA>
-1.14131

>  <SCORE.INTRA.DIHEDRAL>
-1.38484

>  <SCORE.INTRA.DIHEDRAL.0>
2.1318

>  <SCORE.INTRA.POLAR>
0

>  <SCORE.INTRA.POLAR.0>
0

>  <SCORE.INTRA.REPUL>
0

>  <SCORE.INTRA.REPUL.0>
0

>  <SCORE.INTRA.SOLV>
-0.896975

>  <SCORE.INTRA.SOLV.lig_0>
-58.6125

>  <SCORE.INTRA.VDW>
-0.000407807

>  <SCORE.INTRA.VDW.0>
-0.432734

>  <SCORE.INTRA.norm>
-0.0713321

>  <SCORE.RESTR>
0

>  <SCORE.RESTR.CAVITY>
0

>  <SCORE.RESTR.norm>
0

>  <SCORE.SYSTEM>
0

>  <SCORE.SYSTEM.CONST>
0

>  <SCORE.SYSTEM.DIHEDRAL>
0

>  <SCORE.SYSTEM.SOLV>
0

>  <SCORE.SYSTEM.norm>
0

>  <SCORE.heavy>
16

>  <SCORE.norm>
-0.593289

>  <RMSD>
19.728

$$$$
ligand
 OpenBabel11021811463D
libRbt.so/2013.1/901 2013/11/27
 16 16  0  0  0  0  0  0  0  0999 V2000
   34.5258   -2.6592   10.1080 P   0  0  2  0  0  0  0  0  0  0  0  0
   33.3705   -3.5869   10.0308 O   0  0  0  0  0  0  0  0  0  0  0  0
   35.8957   -3.4992   10.0264 O   0  5  0  0  0  0  0  0  0  0  0  0
   34.4769   -1.8760   11.5165 O   0  0  0  0  0  0  0  0  0  0  0  0
   35.9239    2.7913    7.4348 C   0  0  2  0  0  0  0  0  0  0  0  0
   34.5551    3.1839    7.2792 O   0  0  0  0  0  0  0  0  0  0  0  0
   36.5186    2.3293    6.0795 C   0  0  2  0  0  0  0  0  0  0  0  0
   36.4180    3.4214    5.0925 N   0  0  0  0  0  0  0  0  0  0  0  0
   35.7290    1.1036    5.5900 C   0  0  1  0  0  0  0  0  0  0  0  0
   36.2628    0.6380    4.3476 O   0  0  0  0  0  0  0  0  0  0  0  0
   35.8626    0.0071    6.6453 C   0  0  2  0  0  0  0  0  0  0  0  0
   35.1367   -1.1365    6.2130 O   0  0  0  0  0  0  0  0  0  0  0  0
   35.2816    0.5319    7.9867 C   0  0  2  0  0  0  0  0  0  0  0  0
   36.0095    1.7201    8.4244 O   0  0  0  0  0  0  0  0  0  0  0  0
   35.4015   -0.5454    9.0929 C   0  0  0  0  0  0  0  0  0  0  0  0
   34.4547   -1.6077    8.8771 O   0  0  0  0  0  0  0  0  0  0  0  0
  1  2  1  6  0  0  0
  1  3  1  0  0  0  0
  1  4  2  0  0  0  0
  1 16  1  0  0  0  0
  5  6  1  6  0  0  0
  5  7  1  0  0  0  0
  5 14  1  0  0  0  0
  7  8  1  6  0  0  0
  7  9  1  0  0  0  0
  9 10  1  6  0  0  0
  9 11  1  0  0  0  0
 11 12  1  6  0  0  0
 11 13  1  0  0  0  0
 13 14  1  0  0  0  0
 13 15  1  1  0  0  0
 15 16  1  0  0  0  0
M  CHG  1   3  -1
M  END
>  <CHROM.1>
-72.83112485,-175.70436237,168.30048466,35.27599832,-0.20891908,8.00709517
2.67392680,-1.32916487,-2.76042905

>  <Name>
ligand

>  <RI>
0

>  <Rbt.Current_Directory>
/home/itssahil/PROJECTS/Mol_Feturizer/New_Systems/rnas/3B4C

>  <Rbt.Executable>
rbdock ($Id: //depot/dev/client3/rdock/2013.1/src/exe/rbdock.cxx#4 $)

>  <Rbt.Library>
libRbt.so (2013.1, Build901 2013/11/27)

>  <Rbt.Parameter_File>
/export/apps/rDock/src/rDock_2013.1_src/data/scripts/dock_solv.prm

>  <Rbt.Receptor>
prm/blind_docking_40.prm

>  <SCORE>
-9.28673

>  <SCORE.INTER>
-8.32917

>  <SCORE.INTER.CONST>
1

>  <SCORE.INTER.POLAR>
0

>  <SCORE.INTER.ROT>
3

>  <SCORE.INTER.SOLV>
16.9205

>  <SCORE.INTER.VDW>
-16.7929

>  <SCORE.INTER.norm>
-0.520573

>  <SCORE.INTRA>
-0.957566

>  <SCORE.INTRA.DIHEDRAL>
-1.25439

>  <SCORE.INTRA.DIHEDRAL.0>
2.1318

>  <SCORE.INTRA.POLAR>
0

>  <SCORE.INTRA.POLAR.0>
0

>  <SCORE.INTRA.REPUL>
0

>  <SCORE.INTRA.REPUL.0>
0

>  <SCORE.INTRA.SOLV>
-0.105014

>  <SCORE.INTRA.SOLV.lig_0>
-58.6125

>  <SCORE.INTRA.VDW>
-0.277864

>  <SCORE.INTRA.VDW.0>
-0.432734

>  <SCORE.INTRA.norm>
-0.0598478

>  <SCORE.RESTR>
0

>  <SCORE.RESTR.CAVITY>
0

>  <SCORE.RESTR.norm>
0

>  <SCORE.SYSTEM>
0

>  <SCORE.SYSTEM.CONST>
0

>  <SCORE.SYSTEM.DIHEDRAL>
0

>  <SCORE.SYSTEM.SOLV>
0

>  <SCORE.SYSTEM.norm>
0

>  <SCORE.heavy>
16

>  <SCORE.norm>
-0.580421

>  <RMSD>
19.735

$$$$
ligand
 OpenBabel11021811463D
libRbt.so/2013.1/901 2013/11/27
 16 16  0  0  0  0  0  0  0  0999 V2000
   34.7983   -1.9566   10.2057 P   0  0  2  0  0  0  0  0  0  0  0  0
   33.6149   -2.8412   10.0701 O   0  0  0  0  0  0  0  0  0  0  0  0
   35.8685   -2.3112    9.0578 O   0  5  0  0  0  0  0  0  0  0  0  0
   35.4771   -2.2052   11.6469 O   0  0  0  0  0  0  0  0  0  0  0  0
   33.9183    3.6430    9.0084 C   0  0  2  0  0  0  0  0  0  0  0  0
   32.7034    3.7413    9.7608 O   0  0  0  0  0  0  0  0  0  0  0  0
   33.6785    4.0344    7.5274 C   0  0  2  0  0  0  0  0  0  0  0  0
   33.1519    5.4106    7.4542 N   0  0  0  0  0  0  0  0  0  0  0  0
   32.6654    3.0505    6.9182 C   0  0  1  0  0  0  0  0  0  0  0  0
   32.4330    3.3709    5.5440 O   0  0  0  0  0  0  0  0  0  0  0  0
   33.2556    1.6452    7.0214 C   0  0  2  0  0  0  0  0  0  0  0  0
   32.3323    0.7179    6.4650 O   0  0  0  0  0  0  0  0  0  0  0  0
   33.5041    1.3168    8.5189 C   0  0  2  0  0  0  0  0  0  0  0  0
   34.4350    2.2797    9.1016 O   0  0  0  0  0  0  0  0  0  0  0  0
   34.1108   -0.0996    8.6746 C   0  0  0  0  0  0  0  0  0  0  0  0
   34.3340   -0.4108   10.0620 O   0  0  0  0  0  0  0  0  0  0  0  0
  1  2  1  6  0  0  0
  1  3  1  0  0  0  0
  1  4  2  0  0  0  0
  1 16  1  0  0  0  0
  5  6  1  1  0  0  0
  5  7  1  0  0  0  0
  5 14  1  0  0  0  0
  7  8  1  1  0  0  0
  7  9  1  0  0  0  0
  9 10  1  6  0  0  0
  9 11  1  0  0  0  0
 11 12  1  1  0  0  0
 11 13  1  0  0  0  0
 13 14  1  0  0  0  0
 13 15  1  6  0  0  0
 15 16  1  0  0  0  0
M  CHG  1   3  -1
M  END
>  <CHROM.1>
-179.61219081,173.21417662,-77.34827337,33.85245259,0.91025460,8.71549697
-0.79682184,-1.16633479,0.26754826

>  <Name>
ligand

>  <RI>
0

>  <Rbt.Current_Directory>
/home/itssahil/PROJECTS/Mol_Feturizer/New_Systems/rnas/3B4C

>  <Rbt.Executable>
rbdock ($Id: //depot/dev/client3/rdock/2013.1/src/exe/rbdock.cxx#4 $)

>  <Rbt.Library>
libRbt.so (2013.1, Build901 2013/11/27)

>  <Rbt.Parameter_File>
/export/apps/rDock/src/rDock_2013.1_src/data/scripts/dock_solv.prm

>  <Rbt.Receptor>
prm/blind_docking_40.prm

>  <SCORE>
-9.45703

>  <SCORE.INTER>
-8.29647

>  <SCORE.INTER.CONST>
1

>  <SCORE.INTER.POLAR>
0

>  <SCORE.INTER.ROT>
3

>  <SCORE.INTER.SOLV>
12.1549

>  <SCORE.INTER.VDW>
-15.1826

>  <SCORE.INTER.norm>
-0.518529

>  <SCORE.INTRA>
-1.16056

>  <SCORE.INTRA.DIHEDRAL>
-1.44623

>  <SCORE.INTRA.DIHEDRAL.0>
2.1318

>  <SCORE.INTRA.POLAR>
0

>  <SCORE.INTRA.POLAR.0>
0

>  <SCORE.INTRA.REPUL>
0

>  <SCORE.INTRA.REPUL.0>
0

>  <SCORE.INTRA.SOLV>
-0.88608

>  <SCORE.INTRA.SOLV.lig_0>
-58.6125

>  <SCORE.INTRA.VDW>
0.00559584

>  <SCORE.INTRA.VDW.0>
-0.432734

>  <SCORE.INTRA.norm>
-0.0725351

>  <SCORE.RESTR>
0

>  <SCORE.RESTR.CAVITY>
0

>  <SCORE.RESTR.norm>
0

>  <SCORE.SYSTEM>
0

>  <SCORE.SYSTEM.CONST>
0

>  <SCORE.SYSTEM.DIHEDRAL>
0

>  <SCORE.SYSTEM.SOLV>
0

>  <SCORE.SYSTEM.norm>
0

>  <SCORE.heavy>
16

>  <SCORE.norm>
-0.591064

>  <RMSD>
19.739

$$$$
ligand
 OpenBabel11021811463D
libRbt.so/2013.1/901 2013/11/27
 16 16  0  0  0  0  0  0  0  0999 V2000
   40.1496   -6.0937   10.5428 P   0  0  2  0  0  0  0  0  0  0  0  0
   39.6935   -7.3632    9.9249 O   0  0  0  0  0  0  0  0  0  0  0  0
   41.6855   -5.8246   10.1462 O   0  5  0  0  0  0  0  0  0  0  0  0
   40.0392   -6.2210   12.1462 O   0  0  0  0  0  0  0  0  0  0  0  0
   34.6578   -3.2171    9.7810 C   0  0  2  0  0  0  0  0  0  0  0  0
   34.8056   -2.9665    8.3784 O   0  0  0  0  0  0  0  0  0  0  0  0
   34.9423   -1.9317   10.6000 C   0  0  2  0  0  0  0  0  0  0  0  0
   34.0200   -0.8590   10.1811 N   0  0  0  0  0  0  0  0  0  0  0  0
   36.3975   -1.5021   10.3483 C   0  0  1  0  0  0  0  0  0  0  0  0
   36.7017   -0.3266   11.1038 O   0  0  0  0  0  0  0  0  0  0  0  0
   37.3081   -2.6449   10.7944 C   0  0  2  0  0  0  0  0  0  0  0  0
   38.6605   -2.2689   10.5678 O   0  0  0  0  0  0  0  0  0  0  0  0
   36.9610   -3.9121    9.9663 C   0  0  2  0  0  0  0  0  0  0  0  0
   35.5661   -4.2901   10.1781 O   0  0  0  0  0  0  0  0  0  0  0  0
   37.8559   -5.1033   10.3891 C   0  0  0  0  0  0  0  0  0  0  0  0
   39.2254   -4.8738   10.0105 O   0  0  0  0  0  0  0  0  0  0  0  0
  1  2  1  6  0  0  0
  1  3  1  0  0  0  0
  1  4  2  0  0  0  0
  1 16  1  0  0  0  0
  5  6  1  6  0  0  0
  5  7  1  0  0  0  0
  5 14  1  0  0  0  0
  7  8  1  6  0  0  0
  7  9  1  0  0  0  0
  9 10  1  1  0  0  0
  9 11  1  0  0  0  0
 11 12  1  6  0  0  0
 11 13  1  0  0  0  0
 13 14  1  0  0  0  0
 13 15  1  1  0  0  0
 15 16  1  0  0  0  0
M  CHG  1   3  -1
M  END
>  <CHROM.1>
-67.97811997,176.66239012,60.97077636,37.68320402,-3.92881926,10.33122149
0.65880484,0.30599505,-2.87704055

>  <Name>
ligand

>  <RI>
0

>  <Rbt.Current_Directory>
/home/itssahil/PROJECTS/Mol_Feturizer/New_Systems/rnas/3B4C

>  <Rbt.Executable>
rbdock ($Id: //depot/dev/client3/rdock/2013.1/src/exe/rbdock.cxx#4 $)

>  <Rbt.Library>
libRbt.so (2013.1, Build901 2013/11/27)

>  <Rbt.Parameter_File>
/export/apps/rDock/src/rDock_2013.1_src/data/scripts/dock_solv.prm

>  <Rbt.Receptor>
prm/blind_docking_60.prm

>  <SCORE>
-8.03431

>  <SCORE.INTER>
-6.63627

>  <SCORE.INTER.CONST>
1

>  <SCORE.INTER.POLAR>
0

>  <SCORE.INTER.ROT>
3

>  <SCORE.INTER.SOLV>
13.5101

>  <SCORE.INTER.VDW>
-14.5276

>  <SCORE.INTER.norm>
-0.414767

>  <SCORE.INTRA>
-1.39804

>  <SCORE.INTRA.DIHEDRAL>
-1.84837

>  <SCORE.INTRA.DIHEDRAL.0>
2.1318

>  <SCORE.INTRA.POLAR>
0

>  <SCORE.INTRA.POLAR.0>
0

>  <SCORE.INTRA.REPUL>
0

>  <SCORE.INTRA.REPUL.0>
0

>  <SCORE.INTRA.SOLV>
-0.588974

>  <SCORE.INTRA.SOLV.lig_0>
-58.6125

>  <SCORE.INTRA.VDW>
-0.179368

>  <SCORE.INTRA.VDW.0>
-0.432734

>  <SCORE.INTRA.norm>
-0.0873775

>  <SCORE.RESTR>
0

>  <SCORE.RESTR.CAVITY>
0

>  <SCORE.RESTR.norm>
0

>  <SCORE.SYSTEM>
0

>  <SCORE.SYSTEM.CONST>
0

>  <SCORE.SYSTEM.DIHEDRAL>
0

>  <SCORE.SYSTEM.SOLV>
0

>  <SCORE.SYSTEM.norm>
0

>  <SCORE.heavy>
16

>  <SCORE.norm>
-0.502145

>  <RMSD>
19.761

$$$$
ligand
 OpenBabel11021811463D
libRbt.so/2013.1/901 2013/11/27
 16 16  0  0  0  0  0  0  0  0999 V2000
   32.3864    2.0734    7.2598 P   0  0  2  0  0  0  0  0  0  0  0  0
   30.9172    2.0667    7.4667 O   0  0  0  0  0  0  0  0  0  0  0  0
   32.9224    3.5905    7.2618 O   0  5  0  0  0  0  0  0  0  0  0  0
   32.7182    1.4045    5.8308 O   0  0  0  0  0  0  0  0  0  0  0  0
   35.7152    0.2627   11.6800 C   0  0  2  0  0  0  0  0  0  0  0  0
   37.1244    0.2165   11.4276 O   0  0  0  0  0  0  0  0  0  0  0  0
   35.1294   -1.1694   11.7792 C   0  0  2  0  0  0  0  0  0  0  0  0
   35.8091   -1.9128   12.8572 N   0  0  0  0  0  0  0  0  0  0  0  0
   35.3443   -1.8812   10.4329 C   0  0  1  0  0  0  0  0  0  0  0  0
   34.7988   -3.2023   10.4817 O   0  0  0  0  0  0  0  0  0  0  0  0
   34.6258   -1.0724    9.3543 C   0  0  2  0  0  0  0  0  0  0  0  0
   34.8140   -1.7129    8.0989 O   0  0  0  0  0  0  0  0  0  0  0  0
   35.2287    0.3585    9.3186 C   0  0  2  0  0  0  0  0  0  0  0  0
   35.0578    1.0133   10.6130 O   0  0  0  0  0  0  0  0  0  0  0  0
   34.5253    1.2213    8.2419 C   0  0  0  0  0  0  0  0  0  0  0  0
   33.1013    1.2391    8.4508 O   0  0  0  0  0  0  0  0  0  0  0  0
  1  2  1  1  0  0  0
  1  3  1  0  0  0  0
  1  4  2  0  0  0  0
  1 16  1  0  0  0  0
  5  6  1  6  0  0  0
  5  7  1  0  0  0  0
  5 14  1  0  0  0  0
  7  8  1  1  0  0  0
  7  9  1  0  0  0  0
  9 10  1  1  0  0  0
  9 11  1  0  0  0  0
 11 12  1  6  0  0  0
 11 13  1  0  0  0  0
 13 14  1  0  0  0  0
 13 15  1  6  0  0  0
 15 16  1  0  0  0  0
M  CHG  1   3  -1
M  END
>  <CHROM.1>
55.01869213,-176.58884747,178.95167158,34.20893165,0.32848630,9.19864914
-2.62355206,0.93673893,-3.06447550

>  <Name>
ligand

>  <RI>
0

>  <Rbt.Current_Directory>
/home/itssahil/PROJECTS/Mol_Feturizer/New_Systems/rnas/3B4C

>  <Rbt.Executable>
rbdock ($Id: //depot/dev/client3/rdock/2013.1/src/exe/rbdock.cxx#4 $)

>  <Rbt.Library>
libRbt.so (2013.1, Build901 2013/11/27)

>  <Rbt.Parameter_File>
/export/apps/rDock/src/rDock_2013.1_src/data/scripts/dock_solv.prm

>  <Rbt.Receptor>
prm/blind_docking_60.prm

>  <SCORE>
-10.5632

>  <SCORE.INTER>
-9.14367

>  <SCORE.INTER.CONST>
1

>  <SCORE.INTER.POLAR>
0

>  <SCORE.INTER.ROT>
3

>  <SCORE.INTER.SOLV>
11.9739

>  <SCORE.INTER.VDW>
-15.6871

>  <SCORE.INTER.norm>
-0.571479

>  <SCORE.INTRA>
-1.41952

>  <SCORE.INTRA.DIHEDRAL>
-1.98293

>  <SCORE.INTRA.DIHEDRAL.0>
2.1318

>  <SCORE.INTRA.POLAR>
0

>  <SCORE.INTRA.POLAR.0>
0

>  <SCORE.INTRA.REPUL>
0

>  <SCORE.INTRA.REPUL.0>
0

>  <SCORE.INTRA.SOLV>
-0.152041

>  <SCORE.INTRA.SOLV.lig_0>
-58.6125

>  <SCORE.INTRA.VDW>
-0.352034

>  <SCORE.INTRA.VDW.0>
-0.432734

>  <SCORE.INTRA.norm>
-0.0887199

>  <SCORE.RESTR>
0

>  <SCORE.RESTR.CAVITY>
0

>  <SCORE.RESTR.norm>
0

>  <SCORE.SYSTEM>
0

>  <SCORE.SYSTEM.CONST>
0

>  <SCORE.SYSTEM.DIHEDRAL>
0

>  <SCORE.SYSTEM.SOLV>
0

>  <SCORE.SYSTEM.norm>
0

>  <SCORE.heavy>
16

>  <SCORE.norm>
-0.660199

>  <RMSD>
19.775

$$$$
ligand
 OpenBabel11021811463D
libRbt.so/2013.1/901 2013/11/27
 16 16  0  0  0  0  0  0  0  0999 V2000
   40.1516   -5.5907   10.0559 P   0  0  2  0  0  0  0  0  0  0  0  0
   40.1657   -6.8953    9.3495 O   0  0  0  0  0  0  0  0  0  0  0  0
   39.8551   -4.4121    9.0015 O   0  5  0  0  0  0  0  0  0  0  0  0
   41.5970   -5.3407   10.7253 O   0  0  0  0  0  0  0  0  0  0  0  0
   35.3823   -3.1161    9.1074 C   0  0  2  0  0  0  0  0  0  0  0  0
   36.3295   -2.3695    8.3347 O   0  0  0  0  0  0  0  0  0  0  0  0
   34.9917   -2.3415   10.3924 C   0  0  2  0  0  0  0  0  0  0  0  0
   34.4222   -1.0295   10.0303 N   0  0  0  0  0  0  0  0  0  0  0  0
   36.2531   -2.1485   11.2509 C   0  0  1  0  0  0  0  0  0  0  0  0
   35.9265   -1.4514   12.4562 O   0  0  0  0  0  0  0  0  0  0  0  0
   36.8030   -3.5317   11.5948 C   0  0  2  0  0  0  0  0  0  0  0  0
   37.9730   -3.3760   12.3877 O   0  0  0  0  0  0  0  0  0  0  0  0
   37.1482   -4.2739   10.2749 C   0  0  2  0  0  0  0  0  0  0  0  0
   35.9540   -4.4171    9.4463 O   0  0  0  0  0  0  0  0  0  0  0  0
   37.7044   -5.6883   10.5727 C   0  0  0  0  0  0  0  0  0  0  0  0
   38.9996   -5.6079   11.1953 O   0  0  0  0  0  0  0  0  0  0  0  0
  1  2  1  6  0  0  0
  1  3  1  0  0  0  0
  1  4  2  0  0  0  0
  1 16  1  0  0  0  0
  5  6  1  1  0  0  0
  5  7  1  0  0  0  0
  5 14  1  0  0  0  0
  7  8  1  6  0  0  0
  7  9  1  0  0  0  0
  9 10  1  1  0  0  0
  9 11  1  0  0  0  0
 11 12  1  1  0  0  0
 11 13  1  0  0  0  0
 13 14  1  0  0  0  0
 13 15  1  1  0  0  0
 15 16  1  0  0  0  0
M  CHG  1   3  -1
M  END
>  <CHROM.1>
-68.55978796,-89.41294375,-66.21941641,37.74029925,-4.00605890,10.35957187
0.28288487,0.59292189,-1.94883576

>  <Name>
ligand

>  <RI>
0

>  <Rbt.Current_Directory>
/home/itssahil/PROJECTS/Mol_Feturizer/New_Systems/rnas/3B4C

>  <Rbt.Executable>
rbdock ($Id: //depot/dev/client3/rdock/2013.1/src/exe/rbdock.cxx#4 $)

>  <Rbt.Library>
libRbt.so (2013.1, Build901 2013/11/27)

>  <Rbt.Parameter_File>
/export/apps/rDock/src/rDock_2013.1_src/data/scripts/dock_solv.prm

>  <Rbt.Receptor>
prm/blind_docking_60.prm

>  <SCORE>
-5.85074

>  <SCORE.INTER>
-7.01049

>  <SCORE.INTER.CONST>
1

>  <SCORE.INTER.POLAR>
0

>  <SCORE.INTER.ROT>
3

>  <SCORE.INTER.SOLV>
10.7412

>  <SCORE.INTER.VDW>
-13.8541

>  <SCORE.INTER.norm>
-0.438156

>  <SCORE.INTRA>
1.15975

>  <SCORE.INTRA.DIHEDRAL>
1.67911

>  <SCORE.INTRA.DIHEDRAL.0>
2.1318

>  <SCORE.INTRA.POLAR>
0

>  <SCORE.INTRA.POLAR.0>
0

>  <SCORE.INTRA.REPUL>
0

>  <SCORE.INTRA.REPUL.0>
0

>  <SCORE.INTRA.SOLV>
1.56879

>  <SCORE.INTRA.SOLV.lig_0>
-58.6125

>  <SCORE.INTRA.VDW>
-0.464202

>  <SCORE.INTRA.VDW.0>
-0.432734

>  <SCORE.INTRA.norm>
0.0724843

>  <SCORE.RESTR>
0

>  <SCORE.RESTR.CAVITY>
0

>  <SCORE.RESTR.norm>
0

>  <SCORE.SYSTEM>
0

>  <SCORE.SYSTEM.CONST>
0

>  <SCORE.SYSTEM.DIHEDRAL>
0

>  <SCORE.SYSTEM.SOLV>
0

>  <SCORE.SYSTEM.norm>
0

>  <SCORE.heavy>
16

>  <SCORE.norm>
-0.365671

>  <RMSD>
19.813

$$$$
ligand
 OpenBabel11021811463D
libRbt.so/2013.1/901 2013/11/27
 16 16  0  0  0  0  0  0  0  0999 V2000
   40.4438   -6.0539    9.9507 P   0  0  2  0  0  0  0  0  0  0  0  0
   40.9698   -7.0424    8.9772 O   0  0  0  0  0  0  0  0  0  0  0  0
   41.5885   -4.9766   10.2941 O   0  5  0  0  0  0  0  0  0  0  0  0
   40.0267   -6.8222   11.3054 O   0  0  0  0  0  0  0  0  0  0  0  0
   35.3034   -2.5342   10.3996 C   0  0  2  0  0  0  0  0  0  0  0  0
   34.4032   -3.5059    9.8544 O   0  0  0  0  0  0  0  0  0  0  0  0
   35.6510   -1.4553    9.3417 C   0  0  2  0  0  0  0  0  0  0  0  0
   34.4159   -0.7932    8.8801 N   0  0  0  0  0  0  0  0  0  0  0  0
   36.3554   -2.1389    8.1576 C   0  0  1  0  0  0  0  0  0  0  0  0
   36.7078   -1.1688    7.1676 O   0  0  0  0  0  0  0  0  0  0  0  0
   37.6215   -2.8092    8.6881 C   0  0  2  0  0  0  0  0  0  0  0  0
   38.2880   -3.4504    7.6081 O   0  0  0  0  0  0  0  0  0  0  0  0
   37.2194   -3.8556    9.7631 C   0  0  2  0  0  0  0  0  0  0  0  0
   36.5145   -3.2055   10.8650 O   0  0  0  0  0  0  0  0  0  0  0  0
   38.4740   -4.5588   10.3376 C   0  0  0  0  0  0  0  0  0  0  0  0
   39.1584   -5.3016    9.3123 O   0  0  0  0  0  0  0  0  0  0  0  0
  1  2  1  6  0  0  0
  1  3  1  0  0  0  0
  1  4  2  0  0  0  0
  1 16  1  0  0  0  0
  5  6  1  6  0  0  0
  5  7  1  0  0  0  0
  5 14  1  0  0  0  0
  7  8  1  6  0  0  0
  7  9  1  0  0  0  0
  9 10  1  6  0  0  0
  9 11  1  0  0  0  0
 11 12  1  6  0  0  0
 11 13  1  0  0  0  0
 13 14  1  0  0  0  0
 13 15  1  1  0  0  0
 15 16  1  0  0  0  0
M  CHG  1   3  -1
M  END
>  <CHROM.1>
-63.22942482,-178.63206466,167.76750662,37.95423055,-3.95355074,9.46906829
-0.53685887,0.49040933,-0.90525208

>  <Name>
ligand

>  <RI>
0

>  <Rbt.Current_Directory>
/home/itssahil/PROJECTS/Mol_Feturizer/New_Systems/rnas/3B4C

>  <Rbt.Executable>
rbdock ($Id: //depot/dev/client3/rdock/2013.1/src/exe/rbdock.cxx#4 $)

>  <Rbt.Library>
libRbt.so (2013.1, Build901 2013/11/27)

>  <Rbt.Parameter_File>
/export/apps/rDock/src/rDock_2013.1_src/data/scripts/dock_solv.prm

>  <Rbt.Receptor>
prm/blind_docking_100.prm

>  <SCORE>
-7.50795

>  <SCORE.INTER>
-6.48478

>  <SCORE.INTER.CONST>
1

>  <SCORE.INTER.POLAR>
0

>  <SCORE.INTER.ROT>
3

>  <SCORE.INTER.SOLV>
13.0039

>  <SCORE.INTER.VDW>
-14.2578

>  <SCORE.INTER.norm>
-0.405298

>  <SCORE.INTRA>
-1.02318

>  <SCORE.INTRA.DIHEDRAL>
-1.84901

>  <SCORE.INTRA.DIHEDRAL.0>
2.1318

>  <SCORE.INTRA.POLAR>
0

>  <SCORE.INTRA.POLAR.0>
0

>  <SCORE.INTRA.REPUL>
0

>  <SCORE.INTRA.REPUL.0>
0

>  <SCORE.INTRA.SOLV>
0.0136974

>  <SCORE.INTRA.SOLV.lig_0>
-58.6125

>  <SCORE.INTRA.VDW>
-0.105521

>  <SCORE.INTRA.VDW.0>
-0.432734

>  <SCORE.INTRA.norm>
-0.0639486

>  <SCORE.RESTR>
0

>  <SCORE.RESTR.CAVITY>
0

>  <SCORE.RESTR.norm>
0

>  <SCORE.SYSTEM>
0

>  <SCORE.SYSTEM.CONST>
0

>  <SCORE.SYSTEM.DIHEDRAL>
0

>  <SCORE.SYSTEM.SOLV>
0

>  <SCORE.SYSTEM.norm>
0

>  <SCORE.heavy>
16

>  <SCORE.norm>
-0.469247

>  <RMSD>
19.814

$$$$
ligand
 OpenBabel11021811463D
libRbt.so/2013.1/901 2013/11/27
 16 16  0  0  0  0  0  0  0  0999 V2000
   32.7867    5.1962    3.3752 P   0  0  2  0  0  0  0  0  0  0  0  0
   31.4910    4.4743    3.4141 O   0  0  0  0  0  0  0  0  0  0  0  0
   33.1359    5.5919    1.8553 O   0  5  0  0  0  0  0  0  0  0  0  0
   33.9444    4.2274    3.9415 O   0  0  0  0  0  0  0  0  0  0  0  0
   30.7702    9.2328    6.8973 C   0  0  2  0  0  0  0  0  0  0  0  0
   31.7897   10.2119    6.6653 O   0  0  0  0  0  0  0  0  0  0  0  0
   30.6667    8.8973    8.4075 C   0  0  2  0  0  0  0  0  0  0  0  0
   30.3691   10.1238    9.1717 N   0  0  0  0  0  0  0  0  0  0  0  0
   32.0070    8.3015    8.8703 C   0  0  1  0  0  0  0  0  0  0  0  0
   31.9422    7.9624   10.2581 O   0  0  0  0  0  0  0  0  0  0  0  0
   32.2686    7.0403    8.0488 C   0  0  2  0  0  0  0  0  0  0  0  0
   33.5064    6.4738    8.4597 O   0  0  0  0  0  0  0  0  0  0  0  0
   32.3321    7.4275    6.5461 C   0  0  2  0  0  0  0  0  0  0  0  0
   31.0705    8.0304    6.1240 O   0  0  0  0  0  0  0  0  0  0  0  0
   32.5892    6.1767    5.6698 C   0  0  0  0  0  0  0  0  0  0  0  0
   32.6831    6.5368    4.2795 O   0  0  0  0  0  0  0  0  0  0  0  0
  1  2  1  1  0  0  0
  1  3  1  0  0  0  0
  1  4  2  0  0  0  0
  1 16  1  0  0  0  0
  5  6  1  1  0  0  0
  5  7  1  0  0  0  0
  5 14  1  0  0  0  0
  7  8  1  1  0  0  0
  7  9  1  0  0  0  0
  9 10  1  1  0  0  0
  9 11  1  0  0  0  0
 11 12  1  1  0  0  0
 11 13  1  0  0  0  0
 13 14  1  0  0  0  0
 13 15  1  6  0  0  0
 15 16  1  0  0  0  0
M  CHG  1   3  -1
M  END
>  <CHROM.1>
-178.51042252,-173.75480939,69.18364058,32.16400110,7.05267677,6.09769910
1.14454744,1.02834624,-1.80763584

>  <Name>
ligand

>  <RI>
0

>  <Rbt.Current_Directory>
/home/itssahil/PROJECTS/Mol_Feturizer/New_Systems/rnas/3B4C

>  <Rbt.Executable>
rbdock ($Id: //depot/dev/client3/rdock/2013.1/src/exe/rbdock.cxx#4 $)

>  <Rbt.Library>
libRbt.so (2013.1, Build901 2013/11/27)

>  <Rbt.Parameter_File>
/export/apps/rDock/src/rDock_2013.1_src/data/scripts/dock_solv.prm

>  <Rbt.Receptor>
prm/blind_docking_40.prm

>  <SCORE>
-7.65219

>  <SCORE.INTER>
-6.14476

>  <SCORE.INTER.CONST>
1

>  <SCORE.INTER.POLAR>
0

>  <SCORE.INTER.ROT>
3

>  <SCORE.INTER.SOLV>
8.66384

>  <SCORE.INTER.VDW>
-12.5845

>  <SCORE.INTER.norm>
-0.384048

>  <SCORE.INTRA>
-1.50742

>  <SCORE.INTRA.DIHEDRAL>
-1.79131

>  <SCORE.INTRA.DIHEDRAL.0>
2.1318

>  <SCORE.INTRA.POLAR>
0

>  <SCORE.INTRA.POLAR.0>
0

>  <SCORE.INTRA.REPUL>
0

>  <SCORE.INTRA.REPUL.0>
0

>  <SCORE.INTRA.SOLV>
-0.924472

>  <SCORE.INTRA.SOLV.lig_0>
-58.6125

>  <SCORE.INTRA.VDW>
-0.149532

>  <SCORE.INTRA.VDW.0>
-0.432734

>  <SCORE.INTRA.norm>
-0.094214

>  <SCORE.RESTR>
0

>  <SCORE.RESTR.CAVITY>
0

>  <SCORE.RESTR.norm>
0

>  <SCORE.SYSTEM>
0

>  <SCORE.SYSTEM.CONST>
0

>  <SCORE.SYSTEM.DIHEDRAL>
0

>  <SCORE.SYSTEM.SOLV>
0

>  <SCORE.SYSTEM.norm>
0

>  <SCORE.heavy>
16

>  <SCORE.norm>
-0.478262

>  <RMSD>
19.830

$$$$
ligand
 OpenBabel11021811463D
libRbt.so/2013.1/901 2013/11/27
 16 16  0  0  0  0  0  0  0  0999 V2000
   32.9264    3.1543    9.4301 P   0  0  2  0  0  0  0  0  0  0  0  0
   33.8344    4.1095    8.7487 O   0  0  0  0  0  0  0  0  0  0  0  0
   31.8264    2.6196    8.3846 O   0  5  0  0  0  0  0  0  0  0  0  0
   32.1737    3.9149   10.6362 O   0  0  0  0  0  0  0  0  0  0  0  0
   34.5352   -2.1439   10.7622 C   0  0  2  0  0  0  0  0  0  0  0  0
   35.6260   -1.8259   11.6345 O   0  0  0  0  0  0  0  0  0  0  0  0
   35.0055   -3.0730    9.6135 C   0  0  2  0  0  0  0  0  0  0  0  0
   35.5769   -4.3115   10.1759 N   0  0  0  0  0  0  0  0  0  0  0  0
   36.0694   -2.3309    8.7872 C   0  0  1  0  0  0  0  0  0  0  0  0
   36.5143   -3.1531    7.7050 O   0  0  0  0  0  0  0  0  0  0  0  0
   35.4298   -1.0594    8.2320 C   0  0  2  0  0  0  0  0  0  0  0  0
   36.3987   -0.3557    7.4653 O   0  0  0  0  0  0  0  0  0  0  0  0
   34.9504   -0.1819    9.4204 C   0  0  2  0  0  0  0  0  0  0  0  0
   33.9710   -0.9084   10.2245 O   0  0  0  0  0  0  0  0  0  0  0  0
   34.2863    1.1193    8.9061 C   0  0  0  0  0  0  0  0  0  0  0  0
   33.7884    1.9073   10.0026 O   0  0  0  0  0  0  0  0  0  0  0  0
  1  2  1  6  0  0  0
  1  3  1  0  0  0  0
  1  4  2  0  0  0  0
  1 16  1  0  0  0  0
  5  6  1  1  0  0  0
  5  7  1  0  0  0  0
  5 14  1  0  0  0  0
  7  8  1  1  0  0  0
  7  9  1  0  0  0  0
  9 10  1  6  0  0  0
  9 11  1  0  0  0  0
 11 12  1  1  0  0  0
 11 13  1  0  0  0  0
 13 14  1  0  0  0  0
 13 15  1  6  0  0  0
 15 16  1  0  0  0  0
M  CHG  1   3  -1
M  END
>  <CHROM.1>
177.47724394,-172.34677405,-68.83142859,34.41635671,0.15673357,9.38448615
2.40788116,0.95793510,-0.73019650

>  <Name>
ligand

>  <RI>
0

>  <Rbt.Current_Directory>
/home/itssahil/PROJECTS/Mol_Feturizer/New_Systems/rnas/3B4C

>  <Rbt.Executable>
rbdock ($Id: //depot/dev/client3/rdock/2013.1/src/exe/rbdock.cxx#4 $)

>  <Rbt.Library>
libRbt.so (2013.1, Build901 2013/11/27)

>  <Rbt.Parameter_File>
/export/apps/rDock/src/rDock_2013.1_src/data/scripts/dock_solv.prm

>  <Rbt.Receptor>
prm/blind_docking_100.prm

>  <SCORE>
-9.71519

>  <SCORE.INTER>
-8.3193

>  <SCORE.INTER.CONST>
1

>  <SCORE.INTER.POLAR>
0

>  <SCORE.INTER.ROT>
3

>  <SCORE.INTER.SOLV>
19.8602

>  <SCORE.INTER.VDW>
-17.7663

>  <SCORE.INTER.norm>
-0.519956

>  <SCORE.INTRA>
-1.39589

>  <SCORE.INTRA.DIHEDRAL>
-1.69842

>  <SCORE.INTRA.DIHEDRAL.0>
2.1318

>  <SCORE.INTRA.POLAR>
0

>  <SCORE.INTRA.POLAR.0>
0

>  <SCORE.INTRA.REPUL>
0

>  <SCORE.INTRA.REPUL.0>
0

>  <SCORE.INTRA.SOLV>
-0.850018

>  <SCORE.INTRA.SOLV.lig_0>
-58.6125

>  <SCORE.INTRA.VDW>
-0.121673

>  <SCORE.INTRA.VDW.0>
-0.432734

>  <SCORE.INTRA.norm>
-0.0872431

>  <SCORE.RESTR>
0

>  <SCORE.RESTR.CAVITY>
0

>  <SCORE.RESTR.norm>
0

>  <SCORE.SYSTEM>
0

>  <SCORE.SYSTEM.CONST>
0

>  <SCORE.SYSTEM.DIHEDRAL>
0

>  <SCORE.SYSTEM.SOLV>
0

>  <SCORE.SYSTEM.norm>
0

>  <SCORE.heavy>
16

>  <SCORE.norm>
-0.607199

>  <RMSD>
19.847

$$$$
ligand
 OpenBabel11021811463D
libRbt.so/2013.1/901 2013/11/27
 16 16  0  0  0  0  0  0  0  0999 V2000
   32.9306    3.1283    9.4521 P   0  0  2  0  0  0  0  0  0  0  0  0
   32.4488    3.9300   10.6038 O   0  0  0  0  0  0  0  0  0  0  0  0
   33.8236    4.0564    8.4876 O   0  5  0  0  0  0  0  0  0  0  0  0
   31.6594    2.5846    8.6227 O   0  0  0  0  0  0  0  0  0  0  0  0
   34.5949   -2.1522   10.8484 C   0  0  2  0  0  0  0  0  0  0  0  0
   35.7563   -1.8035   11.6107 O   0  0  0  0  0  0  0  0  0  0  0  0
   34.9653   -3.1271    9.7010 C   0  0  2  0  0  0  0  0  0  0  0  0
   35.5834   -4.3443   10.2606 N   0  0  0  0  0  0  0  0  0  0  0  0
   35.9540   -2.4211    8.7579 C   0  0  1  0  0  0  0  0  0  0  0  0
   36.3048   -3.2865    7.6748 O   0  0  0  0  0  0  0  0  0  0  0  0
   35.2686   -1.1705    8.2101 C   0  0  2  0  0  0  0  0  0  0  0  0
   36.1679   -0.5002    7.3361 O   0  0  0  0  0  0  0  0  0  0  0  0
   34.8925   -0.2457    9.3998 C   0  0  2  0  0  0  0  0  0  0  0  0
   33.9860   -0.9371   10.3128 O   0  0  0  0  0  0  0  0  0  0  0  0
   34.1862    1.0363    8.8934 C   0  0  0  0  0  0  0  0  0  0  0  0
   33.8205    1.8877    9.9947 O   0  0  0  0  0  0  0  0  0  0  0  0
  1  2  1  1  0  0  0
  1  3  1  0  0  0  0
  1  4  2  0  0  0  0
  1 16  1  0  0  0  0
  5  6  1  6  0  0  0
  5  7  1  0  0  0  0
  5 14  1  0  0  0  0
  7  8  1  1  0  0  0
  7  9  1  0  0  0  0
  9 10  1  6  0  0  0
  9 11  1  0  0  0  0
 11 12  1  6  0  0  0
 11 13  1  0  0  0  0
 13 14  1  0  0  0  0
 13 15  1  6  0  0  0
 15 16  1  0  0  0  0
M  CHG  1   3  -1
M  END
>  <CHROM.1>
179.24924056,-173.25734855,174.65625596,34.38487736,0.10629282,9.38641647
2.48307286,1.02189888,-0.83521539

>  <Name>
ligand

>  <RI>
0

>  <Rbt.Current_Directory>
/home/itssahil/PROJECTS/Mol_Feturizer/New_Systems/rnas/3B4C

>  <Rbt.Executable>
rbdock ($Id: //depot/dev/client3/rdock/2013.1/src/exe/rbdock.cxx#4 $)

>  <Rbt.Library>
libRbt.so (2013.1, Build901 2013/11/27)

>  <Rbt.Parameter_File>
/export/apps/rDock/src/rDock_2013.1_src/data/scripts/dock_solv.prm

>  <Rbt.Receptor>
prm/blind_docking_40.prm

>  <SCORE>
-10.4759

>  <SCORE.INTER>
-9.13479

>  <SCORE.INTER.CONST>
1

>  <SCORE.INTER.POLAR>
0

>  <SCORE.INTER.ROT>
3

>  <SCORE.INTER.SOLV>
18.9264

>  <SCORE.INTER.VDW>
-17.9987

>  <SCORE.INTER.norm>
-0.570924

>  <SCORE.INTRA>
-1.34114

>  <SCORE.INTRA.DIHEDRAL>
-1.86033

>  <SCORE.INTRA.DIHEDRAL.0>
2.1318

>  <SCORE.INTRA.POLAR>
0

>  <SCORE.INTRA.POLAR.0>
0

>  <SCORE.INTRA.REPUL>
0

>  <SCORE.INTRA.REPUL.0>
0

>  <SCORE.INTRA.SOLV>
-0.33921

>  <SCORE.INTRA.SOLV.lig_0>
-58.6125

>  <SCORE.INTRA.VDW>
-0.24137

>  <SCORE.INTRA.VDW.0>
-0.432734

>  <SCORE.INTRA.norm>
-0.0838213

>  <SCORE.RESTR>
0

>  <SCORE.RESTR.CAVITY>
0

>  <SCORE.RESTR.norm>
0

>  <SCORE.SYSTEM>
0

>  <SCORE.SYSTEM.CONST>
0

>  <SCORE.SYSTEM.DIHEDRAL>
0

>  <SCORE.SYSTEM.SOLV>
0

>  <SCORE.SYSTEM.norm>
0

>  <SCORE.heavy>
16

>  <SCORE.norm>
-0.654745

>  <RMSD>
19.879

$$$$
ligand
 OpenBabel11021811463D
libRbt.so/2013.1/901 2013/11/27
 16 16  0  0  0  0  0  0  0  0999 V2000
   32.3190    1.9761    7.2353 P   0  0  2  0  0  0  0  0  0  0  0  0
   30.8627    2.0480    7.5100 O   0  0  0  0  0  0  0  0  0  0  0  0
   32.9333    3.4629    7.2015 O   0  5  0  0  0  0  0  0  0  0  0  0
   32.5483    1.2839    5.7973 O   0  0  0  0  0  0  0  0  0  0  0  0
   35.7151    0.1085   11.5728 C   0  0  2  0  0  0  0  0  0  0  0  0
   37.1173    0.0383   11.2885 O   0  0  0  0  0  0  0  0  0  0  0  0
   35.1087   -1.3135   11.6921 C   0  0  2  0  0  0  0  0  0  0  0  0
   35.8008   -2.0632   12.7578 N   0  0  0  0  0  0  0  0  0  0  0  0
   35.2812   -2.0346   10.3446 C   0  0  1  0  0  0  0  0  0  0  0  0
   34.7157   -3.3464   10.4121 O   0  0  0  0  0  0  0  0  0  0  0  0
   34.5514   -1.2189    9.2788 C   0  0  2  0  0  0  0  0  0  0  0  0
   34.7006   -1.8678    8.0225 O   0  0  0  0  0  0  0  0  0  0  0  0
   35.1764    0.2018    9.2227 C   0  0  2  0  0  0  0  0  0  0  0  0
   35.0457    0.8649   10.5175 O   0  0  0  0  0  0  0  0  0  0  0  0
   34.4625    1.0713    8.1582 C   0  0  0  0  0  0  0  0  0  0  0  0
   33.0439    1.1110    8.3979 O   0  0  0  0  0  0  0  0  0  0  0  0
  1  2  1  1  0  0  0
  1  3  1  0  0  0  0
  1  4  2  0  0  0  0
  1 16  1  0  0  0  0
  5  6  1  6  0  0  0
  5  7  1  0  0  0  0
  5 14  1  0  0  0  0
  7  8  1  1  0  0  0
  7  9  1  0  0  0  0
  9 10  1  1  0  0  0
  9 11  1  0  0  0  0
 11 12  1  6  0  0  0
 11 13  1  0  0  0  0
 13 14  1  0  0  0  0
 13 15  1  6  0  0  0
 15 16  1  0  0  0  0
M  CHG  1   3  -1
M  END
>  <CHROM.1>
54.90828384,-177.68800204,-178.30426516,34.15494444,0.19608966,9.13130439
-2.59184823,0.91503093,-3.08947215

>  <Name>
ligand

>  <RI>
0

>  <Rbt.Current_Directory>
/home/itssahil/PROJECTS/Mol_Feturizer/New_Systems/rnas/3B4C

>  <Rbt.Executable>
rbdock ($Id: //depot/dev/client3/rdock/2013.1/src/exe/rbdock.cxx#4 $)

>  <Rbt.Library>
libRbt.so (2013.1, Build901 2013/11/27)

>  <Rbt.Parameter_File>
/export/apps/rDock/src/rDock_2013.1_src/data/scripts/dock_solv.prm

>  <Rbt.Receptor>
prm/blind_docking_40.prm

>  <SCORE>
-10.2506

>  <SCORE.INTER>
-8.82221

>  <SCORE.INTER.CONST>
1

>  <SCORE.INTER.POLAR>
0

>  <SCORE.INTER.ROT>
3

>  <SCORE.INTER.SOLV>
12.411

>  <SCORE.INTER.VDW>
-15.6185

>  <SCORE.INTER.norm>
-0.551388

>  <SCORE.INTRA>
-1.43135

>  <SCORE.INTRA.DIHEDRAL>
-2.00618

>  <SCORE.INTRA.DIHEDRAL.0>
2.1318

>  <SCORE.INTRA.POLAR>
0

>  <SCORE.INTRA.POLAR.0>
0

>  <SCORE.INTRA.REPUL>
0

>  <SCORE.INTRA.REPUL.0>
0

>  <SCORE.INTRA.SOLV>
-0.168297

>  <SCORE.INTRA.SOLV.lig_0>
-58.6125

>  <SCORE.INTRA.VDW>
-0.344107

>  <SCORE.INTRA.VDW.0>
-0.432734

>  <SCORE.INTRA.norm>
-0.0894592

>  <SCORE.RESTR>
0.00294565

>  <SCORE.RESTR.CAVITY>
0.00294565

>  <SCORE.RESTR.norm>
0.000184103

>  <SCORE.SYSTEM>
0

>  <SCORE.SYSTEM.CONST>
0

>  <SCORE.SYSTEM.DIHEDRAL>
0

>  <SCORE.SYSTEM.SOLV>
0

>  <SCORE.SYSTEM.norm>
0

>  <SCORE.heavy>
16

>  <SCORE.norm>
-0.640663

>  <RMSD>
19.914

$$$$
ligand
 OpenBabel11021811463D
libRbt.so/2013.1/901 2013/11/27
 16 16  0  0  0  0  0  0  0  0999 V2000
   33.0154    3.2368    9.3602 P   0  0  2  0  0  0  0  0  0  0  0  0
   32.9399    4.2459   10.4452 O   0  0  0  0  0  0  0  0  0  0  0  0
   33.6840    3.8997    8.0555 O   0  5  0  0  0  0  0  0  0  0  0  0
   31.5232    2.7498    8.9917 O   0  0  0  0  0  0  0  0  0  0  0  0
   34.7453   -2.0215   10.8862 C   0  0  2  0  0  0  0  0  0  0  0  0
   36.0258   -1.6423   11.4043 O   0  0  0  0  0  0  0  0  0  0  0  0
   34.8996   -3.0879    9.7712 C   0  0  2  0  0  0  0  0  0  0  0  0
   35.5960   -4.2730   10.3074 N   0  0  0  0  0  0  0  0  0  0  0  0
   35.7131   -2.4770    8.6178 C   0  0  1  0  0  0  0  0  0  0  0  0
   35.8604   -3.4289    7.5608 O   0  0  0  0  0  0  0  0  0  0  0  0
   34.9528   -1.2562    8.1024 C   0  0  2  0  0  0  0  0  0  0  0  0
   35.6900   -0.6737    7.0351 O   0  0  0  0  0  0  0  0  0  0  0  0
   34.7999   -0.2364    9.2637 C   0  0  2  0  0  0  0  0  0  0  0  0
   34.0623   -0.8369   10.3722 O   0  0  0  0  0  0  0  0  0  0  0  0
   34.0266    1.0192    8.7902 C   0  0  0  0  0  0  0  0  0  0  0  0
   33.9108    1.9803    9.8553 O   0  0  0  0  0  0  0  0  0  0  0  0
  1  2  1  1  0  0  0
  1  3  1  0  0  0  0
  1  4  2  0  0  0  0
  1 16  1  0  0  0  0
  5  6  1  6  0  0  0
  5  7  1  0  0  0  0
  5 14  1  0  0  0  0
  7  8  1  1  0  0  0
  7  9  1  0  0  0  0
  9 10  1  6  0  0  0
  9 11  1  0  0  0  0
 11 12  1  6  0  0  0
 11 13  1  0  0  0  0
 13 14  1  0  0  0  0
 13 15  1  6  0  0  0
 15 16  1  0  0  0  0
M  CHG  1   3  -1
M  END
>  <CHROM.1>
-178.62595355,-176.29812039,-177.99642536,34.34076768,0.14757315,9.29914976
2.76131213,1.14784889,-1.16439038

>  <Name>
ligand

>  <RI>
0

>  <Rbt.Current_Directory>
/home/itssahil/PROJECTS/Mol_Feturizer/New_Systems/rnas/3B4C

>  <Rbt.Executable>
rbdock ($Id: //depot/dev/client3/rdock/2013.1/src/exe/rbdock.cxx#4 $)

>  <Rbt.Library>
libRbt.so (2013.1, Build901 2013/11/27)

>  <Rbt.Parameter_File>
/export/apps/rDock/src/rDock_2013.1_src/data/scripts/dock_solv.prm

>  <Rbt.Receptor>
prm/blind_docking_40.prm

>  <SCORE>
-10.6182

>  <SCORE.INTER>
-9.18419

>  <SCORE.INTER.CONST>
1

>  <SCORE.INTER.POLAR>
0

>  <SCORE.INTER.ROT>
3

>  <SCORE.INTER.SOLV>
18.9725

>  <SCORE.INTER.VDW>
-18.047

>  <SCORE.INTER.norm>
-0.574012

>  <SCORE.INTRA>
-1.43397

>  <SCORE.INTRA.DIHEDRAL>
-2.04739

>  <SCORE.INTRA.DIHEDRAL.0>
2.1318

>  <SCORE.INTRA.POLAR>
0

>  <SCORE.INTRA.POLAR.0>
0

>  <SCORE.INTRA.REPUL>
0

>  <SCORE.INTRA.REPUL.0>
0

>  <SCORE.INTRA.SOLV>
-0.361383

>  <SCORE.INTRA.SOLV.lig_0>
-58.6125

>  <SCORE.INTRA.VDW>
-0.229588

>  <SCORE.INTRA.VDW.0>
-0.432734

>  <SCORE.INTRA.norm>
-0.0896232

>  <SCORE.RESTR>
0

>  <SCORE.RESTR.CAVITY>
0

>  <SCORE.RESTR.norm>
0

>  <SCORE.SYSTEM>
0

>  <SCORE.SYSTEM.CONST>
0

>  <SCORE.SYSTEM.DIHEDRAL>
0

>  <SCORE.SYSTEM.SOLV>
0

>  <SCORE.SYSTEM.norm>
0

>  <SCORE.heavy>
16

>  <SCORE.norm>
-0.663635

>  <RMSD>
19.918

$$$$
ligand
 OpenBabel11021811463D
libRbt.so/2013.1/901 2013/11/27
 16 16  0  0  0  0  0  0  0  0999 V2000
   32.9619    3.1522    9.3489 P   0  0  2  0  0  0  0  0  0  0  0  0
   32.8310    4.1471   10.4417 O   0  0  0  0  0  0  0  0  0  0  0  0
   33.6482    3.8463    8.0698 O   0  5  0  0  0  0  0  0  0  0  0  0
   31.4934    2.6312    8.9347 O   0  0  0  0  0  0  0  0  0  0  0  0
   34.6516   -2.1205   10.8285 C   0  0  2  0  0  0  0  0  0  0  0  0
   35.8857   -1.7482   11.4532 O   0  0  0  0  0  0  0  0  0  0  0  0
   34.8996   -3.1506    9.6966 C   0  0  2  0  0  0  0  0  0  0  0  0
   35.5649   -4.3466   10.2476 N   0  0  0  0  0  0  0  0  0  0  0  0
   35.7917   -2.4983    8.6270 C   0  0  1  0  0  0  0  0  0  0  0  0
   36.0273   -3.4160    7.5557 O   0  0  0  0  0  0  0  0  0  0  0  0
   35.0608   -1.2677    8.0929 C   0  0  2  0  0  0  0  0  0  0  0  0
   35.8707   -0.6471    7.1026 O   0  0  0  0  0  0  0  0  0  0  0  0
   34.8111   -0.2856    9.2698 C   0  0  2  0  0  0  0  0  0  0  0  0
   33.9978   -0.9255   10.3006 O   0  0  0  0  0  0  0  0  0  0  0  0
   34.0637    0.9785    8.7776 C   0  0  0  0  0  0  0  0  0  0  0  0
   33.8759    1.9137    9.8553 O   0  0  0  0  0  0  0  0  0  0  0  0
  1  2  1  1  0  0  0
  1  3  1  0  0  0  0
  1  4  2  0  0  0  0
  1 16  1  0  0  0  0
  5  6  1  6  0  0  0
  5  7  1  0  0  0  0
  5 14  1  0  0  0  0
  7  8  1  1  0  0  0
  7  9  1  0  0  0  0
  9 10  1  6  0  0  0
  9 11  1  0  0  0  0
 11 12  1  6  0  0  0
 11 13  1  0  0  0  0
 13 14  1  0  0  0  0
 13 15  1  6  0  0  0
 15 16  1  0  0  0  0
M  CHG  1   3  -1
M  END
>  <CHROM.1>
-177.79251447,-174.22276059,-177.05604412,34.33569811,0.08699185,9.28679845
2.62134366,1.10003309,-1.00437380

>  <Name>
ligand

>  <RI>
0

>  <Rbt.Current_Directory>
/home/itssahil/PROJECTS/Mol_Feturizer/New_Systems/rnas/3B4C

>  <Rbt.Executable>
rbdock ($Id: //depot/dev/client3/rdock/2013.1/src/exe/rbdock.cxx#4 $)

>  <Rbt.Library>
libRbt.so (2013.1, Build901 2013/11/27)

>  <Rbt.Parameter_File>
/export/apps/rDock/src/rDock_2013.1_src/data/scripts/dock_solv.prm

>  <Rbt.Receptor>
prm/blind_docking_60.prm

>  <SCORE>
-10.5936

>  <SCORE.INTER>
-9.20284

>  <SCORE.INTER.CONST>
1

>  <SCORE.INTER.POLAR>
0

>  <SCORE.INTER.ROT>
3

>  <SCORE.INTER.SOLV>
19.1017

>  <SCORE.INTER.VDW>
-18.1025

>  <SCORE.INTER.norm>
-0.575178

>  <SCORE.INTRA>
-1.39073

>  <SCORE.INTRA.DIHEDRAL>
-1.93239

>  <SCORE.INTRA.DIHEDRAL.0>
2.1318

>  <SCORE.INTRA.POLAR>
0

>  <SCORE.INTRA.POLAR.0>
0

>  <SCORE.INTRA.REPUL>
0

>  <SCORE.INTRA.REPUL.0>
0

>  <SCORE.INTRA.SOLV>
-0.350944

>  <SCORE.INTRA.SOLV.lig_0>
-58.6125

>  <SCORE.INTRA.VDW>
-0.249063

>  <SCORE.INTRA.VDW.0>
-0.432734

>  <SCORE.INTRA.norm>
-0.0869206

>  <SCORE.RESTR>
0

>  <SCORE.RESTR.CAVITY>
0

>  <SCORE.RESTR.norm>
0

>  <SCORE.SYSTEM>
0

>  <SCORE.SYSTEM.CONST>
0

>  <SCORE.SYSTEM.DIHEDRAL>
0

>  <SCORE.SYSTEM.SOLV>
0

>  <SCORE.SYSTEM.norm>
0

>  <SCORE.heavy>
16

>  <SCORE.norm>
-0.662098

>  <RMSD>
19.960

$$$$
ligand
 OpenBabel11021811463D
libRbt.so/2013.1/901 2013/11/27
 16 16  0  0  0  0  0  0  0  0999 V2000
   33.0231    3.1310    9.3217 P   0  0  2  0  0  0  0  0  0  0  0  0
   33.8466    3.8774    8.3388 O   0  0  0  0  0  0  0  0  0  0  0  0
   31.6686    2.6265    8.6147 O   0  5  0  0  0  0  0  0  0  0  0  0
   32.6405    4.1147   10.5405 O   0  0  0  0  0  0  0  0  0  0  0  0
   34.6481   -2.1597   10.8692 C   0  0  2  0  0  0  0  0  0  0  0  0
   35.8743   -1.7841   11.5075 O   0  0  0  0  0  0  0  0  0  0  0  0
   34.9102   -3.1962    9.7463 C   0  0  2  0  0  0  0  0  0  0  0  0
   35.5682   -4.3892   10.3125 N   0  0  0  0  0  0  0  0  0  0  0  0
   35.8161   -2.5501    8.6845 C   0  0  1  0  0  0  0  0  0  0  0  0
   36.0650   -3.4738    7.6215 O   0  0  0  0  0  0  0  0  0  0  0  0
   35.0924   -1.3224    8.1343 C   0  0  2  0  0  0  0  0  0  0  0  0
   35.9150   -0.7075    7.1509 O   0  0  0  0  0  0  0  0  0  0  0  0
   34.8280   -0.3336    9.3023 C   0  0  2  0  0  0  0  0  0  0  0  0
   34.0015   -0.9675   10.3263 O   0  0  0  0  0  0  0  0  0  0  0  0
   34.0873    0.9278    8.7936 C   0  0  0  0  0  0  0  0  0  0  0  0
   33.8616    1.8571    9.8692 O   0  0  0  0  0  0  0  0  0  0  0  0
  1  2  1  6  0  0  0
  1  3  1  0  0  0  0
  1  4  2  0  0  0  0
  1 16  1  0  0  0  0
  5  6  1  6  0  0  0
  5  7  1  0  0  0  0
  5 14  1  0  0  0  0
  7  8  1  1  0  0  0
  7  9  1  0  0  0  0
  9 10  1  6  0  0  0
  9 11  1  0  0  0  0
 11 12  1  6  0  0  0
 11 13  1  0  0  0  0
 13 14  1  0  0  0  0
 13 15  1  6  0  0  0
 15 16  1  0  0  0  0
M  CHG  1   3  -1
M  END
>  <CHROM.1>
-178.97769641,-177.25918115,-65.46120953,34.36426686,0.05042795,9.31563841
2.61888251,1.10706104,-1.00958585

>  <Name>
ligand

>  <RI>
0

>  <Rbt.Current_Directory>
/home/itssahil/PROJECTS/Mol_Feturizer/New_Systems/rnas/3B4C

>  <Rbt.Executable>
rbdock ($Id: //depot/dev/client3/rdock/2013.1/src/exe/rbdock.cxx#4 $)

>  <Rbt.Library>
libRbt.so (2013.1, Build901 2013/11/27)

>  <Rbt.Parameter_File>
/export/apps/rDock/src/rDock_2013.1_src/data/scripts/dock_solv.prm

>  <Rbt.Receptor>
prm/blind_docking_60.prm

>  <SCORE>
-9.87961

>  <SCORE.INTER>
-8.26804

>  <SCORE.INTER.CONST>
1

>  <SCORE.INTER.POLAR>
0

>  <SCORE.INTER.ROT>
3

>  <SCORE.INTER.SOLV>
20.6691

>  <SCORE.INTER.VDW>
-18.0017

>  <SCORE.INTER.norm>
-0.516753

>  <SCORE.INTRA>
-1.61157

>  <SCORE.INTRA.DIHEDRAL>
-2.041

>  <SCORE.INTRA.DIHEDRAL.0>
2.1318

>  <SCORE.INTRA.POLAR>
0

>  <SCORE.INTRA.POLAR.0>
0

>  <SCORE.INTRA.REPUL>
0

>  <SCORE.INTRA.REPUL.0>
0

>  <SCORE.INTRA.SOLV>
-0.94038

>  <SCORE.INTRA.SOLV.lig_0>
-58.6125

>  <SCORE.INTRA.VDW>
-0.120877

>  <SCORE.INTRA.VDW.0>
-0.432734

>  <SCORE.INTRA.norm>
-0.100723

>  <SCORE.RESTR>
0

>  <SCORE.RESTR.CAVITY>
0

>  <SCORE.RESTR.norm>
0

>  <SCORE.SYSTEM>
0

>  <SCORE.SYSTEM.CONST>
0

>  <SCORE.SYSTEM.DIHEDRAL>
0

>  <SCORE.SYSTEM.SOLV>
0

>  <SCORE.SYSTEM.norm>
0

>  <SCORE.heavy>
16

>  <SCORE.norm>
-0.617476

>  <RMSD>
19.969

$$$$
ligand
 OpenBabel11021811463D
libRbt.so/2013.1/901 2013/11/27
 16 16  0  0  0  0  0  0  0  0999 V2000
   32.8729    3.2009    9.2726 P   0  0  2  0  0  0  0  0  0  0  0  0
   31.4992    2.7062    9.0087 O   0  0  0  0  0  0  0  0  0  0  0  0
   32.8243    4.3434   10.4045 O   0  5  0  0  0  0  0  0  0  0  0  0
   33.4720    3.8349    7.9165 O   0  0  0  0  0  0  0  0  0  0  0  0
   34.6727   -2.0337   10.7749 C   0  0  2  0  0  0  0  0  0  0  0  0
   35.9188   -1.6353   11.3585 O   0  0  0  0  0  0  0  0  0  0  0  0
   34.9032   -3.0749    9.6494 C   0  0  2  0  0  0  0  0  0  0  0  0
   35.6021   -4.2538   10.1959 N   0  0  0  0  0  0  0  0  0  0  0  0
   35.7540   -2.4238    8.5460 C   0  0  1  0  0  0  0  0  0  0  0  0
   35.9721   -3.3519    7.4800 O   0  0  0  0  0  0  0  0  0  0  0  0
   34.9895   -1.2111    8.0178 C   0  0  2  0  0  0  0  0  0  0  0  0
   35.7609   -0.5918    6.9965 O   0  0  0  0  0  0  0  0  0  0  0  0
   34.7594   -0.2173    9.1890 C   0  0  2  0  0  0  0  0  0  0  0  0
   33.9861   -0.8554   10.2511 O   0  0  0  0  0  0  0  0  0  0  0  0
   33.9792    1.0291    8.7028 C   0  0  0  0  0  0  0  0  0  0  0  0
   33.8003    1.9712    9.7760 O   0  0  0  0  0  0  0  0  0  0  0  0
  1  2  1  6  0  0  0
  1  3  1  0  0  0  0
  1  4  2  0  0  0  0
  1 16  1  0  0  0  0
  5  6  1  6  0  0  0
  5  7  1  0  0  0  0
  5 14  1  0  0  0  0
  7  8  1  1  0  0  0
  7  9  1  0  0  0  0
  9 10  1  6  0  0  0
  9 11  1  0  0  0  0
 11 12  1  6  0  0  0
 11 13  1  0  0  0  0
 13 14  1  0  0  0  0
 13 15  1  6  0  0  0
 15 16  1  0  0  0  0
M  CHG  1   3  -1
M  END
>  <CHROM.1>
-178.21562782,-175.11195487,66.97615008,34.28995978,0.15896895,9.21981852
2.70179051,1.11162731,-1.08851521

>  <Name>
ligand

>  <RI>
0

>  <Rbt.Current_Directory>
/home/itssahil/PROJECTS/Mol_Feturizer/New_Systems/rnas/3B4C

>  <Rbt.Executable>
rbdock ($Id: //depot/dev/client3/rdock/2013.1/src/exe/rbdock.cxx#4 $)

>  <Rbt.Library>
libRbt.so (2013.1, Build901 2013/11/27)

>  <Rbt.Parameter_File>
/export/apps/rDock/src/rDock_2013.1_src/data/scripts/dock_solv.prm

>  <Rbt.Receptor>
prm/blind_docking_60.prm

>  <SCORE>
-11.0279

>  <SCORE.INTER>
-9.43489

>  <SCORE.INTER.CONST>
1

>  <SCORE.INTER.POLAR>
0

>  <SCORE.INTER.ROT>
3

>  <SCORE.INTER.SOLV>
17.9345

>  <SCORE.INTER.VDW>
-17.8681

>  <SCORE.INTER.norm>
-0.589681

>  <SCORE.INTRA>
-1.59301

>  <SCORE.INTRA.DIHEDRAL>
-1.91873

>  <SCORE.INTRA.DIHEDRAL.0>
2.1318

>  <SCORE.INTRA.POLAR>
0

>  <SCORE.INTRA.POLAR.0>
0

>  <SCORE.INTRA.REPUL>
0

>  <SCORE.INTRA.REPUL.0>
0

>  <SCORE.INTRA.SOLV>
-0.950858

>  <SCORE.INTRA.SOLV.lig_0>
-58.6125

>  <SCORE.INTRA.VDW>
-0.158219

>  <SCORE.INTRA.VDW.0>
-0.432734

>  <SCORE.INTRA.norm>
-0.0995633

>  <SCORE.RESTR>
0

>  <SCORE.RESTR.CAVITY>
0

>  <SCORE.RESTR.norm>
0

>  <SCORE.SYSTEM>
0

>  <SCORE.SYSTEM.CONST>
0

>  <SCORE.SYSTEM.DIHEDRAL>
0

>  <SCORE.SYSTEM.SOLV>
0

>  <SCORE.SYSTEM.norm>
0

>  <SCORE.heavy>
16

>  <SCORE.norm>
-0.689244

>  <RMSD>
19.976

$$$$
ligand
 OpenBabel11021811463D
libRbt.so/2013.1/901 2013/11/27
 16 16  0  0  0  0  0  0  0  0999 V2000
   32.9543    3.1262    9.3206 P   0  0  2  0  0  0  0  0  0  0  0  0
   33.7744    3.9141    8.3677 O   0  0  0  0  0  0  0  0  0  0  0  0
   31.6253    2.6024    8.5801 O   0  5  0  0  0  0  0  0  0  0  0  0
   32.5261    4.0738   10.5527 O   0  0  0  0  0  0  0  0  0  0  0  0
   34.6931   -2.1203   10.8449 C   0  0  2  0  0  0  0  0  0  0  0  0
   35.9321   -1.7364   11.4525 O   0  0  0  0  0  0  0  0  0  0  0  0
   34.9334   -3.1611    9.7210 C   0  0  2  0  0  0  0  0  0  0  0  0
   35.6096   -4.3485   10.2773 N   0  0  0  0  0  0  0  0  0  0  0  0
   35.8114   -2.5162    8.6353 C   0  0  1  0  0  0  0  0  0  0  0  0
   36.0394   -3.4440    7.5711 O   0  0  0  0  0  0  0  0  0  0  0  0
   35.0696   -1.2943    8.0963 C   0  0  2  0  0  0  0  0  0  0  0  0
   35.8662   -0.6806    7.0911 O   0  0  0  0  0  0  0  0  0  0  0  0
   34.8282   -0.3010    9.2656 C   0  0  2  0  0  0  0  0  0  0  0  0
   34.0287   -0.9336   10.3116 O   0  0  0  0  0  0  0  0  0  0  0  0
   34.0702    0.9548    8.7684 C   0  0  0  0  0  0  0  0  0  0  0  0
   33.8163    1.8628    9.8558 O   0  0  0  0  0  0  0  0  0  0  0  0
  1  2  1  6  0  0  0
  1  3  1  0  0  0  0
  1  4  2  0  0  0  0
  1 16  1  0  0  0  0
  5  6  1  6  0  0  0
  5  7  1  0  0  0  0
  5 14  1  0  0  0  0
  7  8  1  1  0  0  0
  7  9  1  0  0  0  0
  9 10  1  6  0  0  0
  9 11  1  0  0  0  0
 11 12  1  6  0  0  0
 11 13  1  0  0  0  0
 13 14  1  0  0  0  0
 13 15  1  6  0  0  0
 15 16  1  0  0  0  0
M  CHG  1   3  -1
M  END
>  <CHROM.1>
178.60747016,-176.97501725,-66.13571815,34.34248208,0.06966441,9.29132355
2.67902555,1.10631633,-1.06595565

>  <Name>
ligand

>  <RI>
0

>  <Rbt.Current_Directory>
/home/itssahil/PROJECTS/Mol_Feturizer/New_Systems/rnas/3B4C

>  <Rbt.Executable>
rbdock ($Id: //depot/dev/client3/rdock/2013.1/src/exe/rbdock.cxx#4 $)

>  <Rbt.Library>
libRbt.so (2013.1, Build901 2013/11/27)

>  <Rbt.Parameter_File>
/export/apps/rDock/src/rDock_2013.1_src/data/scripts/dock_solv.prm

>  <Rbt.Receptor>
prm/blind_docking_40.prm

>  <SCORE>
-9.88297

>  <SCORE.INTER>
-8.29914

>  <SCORE.INTER.CONST>
1

>  <SCORE.INTER.POLAR>
0

>  <SCORE.INTER.ROT>
3

>  <SCORE.INTER.SOLV>
20.5314

>  <SCORE.INTER.VDW>
-17.9766

>  <SCORE.INTER.norm>
-0.518696

>  <SCORE.INTRA>
-1.58383

>  <SCORE.INTRA.DIHEDRAL>
-2.01804

>  <SCORE.INTRA.DIHEDRAL.0>
2.1318

>  <SCORE.INTRA.POLAR>
0

>  <SCORE.INTRA.POLAR.0>
0

>  <SCORE.INTRA.REPUL>
0

>  <SCORE.INTRA.REPUL.0>
0

>  <SCORE.INTRA.SOLV>
-0.923212

>  <SCORE.INTRA.SOLV.lig_0>
-58.6125

>  <SCORE.INTRA.VDW>
-0.113205

>  <SCORE.INTRA.VDW.0>
-0.432734

>  <SCORE.INTRA.norm>
-0.0989894

>  <SCORE.RESTR>
0

>  <SCORE.RESTR.CAVITY>
0

>  <SCORE.RESTR.norm>
0

>  <SCORE.SYSTEM>
0

>  <SCORE.SYSTEM.CONST>
0

>  <SCORE.SYSTEM.DIHEDRAL>
0

>  <SCORE.SYSTEM.SOLV>
0

>  <SCORE.SYSTEM.norm>
0

>  <SCORE.heavy>
16

>  <SCORE.norm>
-0.617686

>  <RMSD>
19.981

$$$$
ligand
 OpenBabel11021811463D
libRbt.so/2013.1/901 2013/11/27
 16 16  0  0  0  0  0  0  0  0999 V2000
   32.8945    3.1508    9.2360 P   0  0  2  0  0  0  0  0  0  0  0  0
   31.5127    2.6757    8.9788 O   0  0  0  0  0  0  0  0  0  0  0  0
   32.8636    4.3195   10.3415 O   0  5  0  0  0  0  0  0  0  0  0  0
   33.5093    3.7425    7.8680 O   0  0  0  0  0  0  0  0  0  0  0  0
   34.6162   -2.1162   10.7853 C   0  0  2  0  0  0  0  0  0  0  0  0
   35.8287   -1.7092   11.4304 O   0  0  0  0  0  0  0  0  0  0  0  0
   34.9116   -3.1434    9.6621 C   0  0  2  0  0  0  0  0  0  0  0  0
   35.5983   -4.3195   10.2296 N   0  0  0  0  0  0  0  0  0  0  0  0
   35.8052   -2.4715    8.6059 C   0  0  1  0  0  0  0  0  0  0  0  0
   36.0840   -3.3863    7.5427 O   0  0  0  0  0  0  0  0  0  0  0  0
   35.0517   -1.2626    8.0540 C   0  0  2  0  0  0  0  0  0  0  0  0
   35.8625   -0.6242    7.0758 O   0  0  0  0  0  0  0  0  0  0  0  0
   34.7551   -0.2832    9.2224 C   0  0  2  0  0  0  0  0  0  0  0  0
   33.9407   -0.9408   10.2411 O   0  0  0  0  0  0  0  0  0  0  0  0
   33.9835    0.9588    8.7119 C   0  0  0  0  0  0  0  0  0  0  0  0
   33.7974    1.9160    9.7705 O   0  0  0  0  0  0  0  0  0  0  0  0
  1  2  1  6  0  0  0
  1  3  1  0  0  0  0
  1  4  2  0  0  0  0
  1 16  1  0  0  0  0
  5  6  1  6  0  0  0
  5  7  1  0  0  0  0
  5 14  1  0  0  0  0
  7  8  1  1  0  0  0
  7  9  1  0  0  0  0
  9 10  1  6  0  0  0
  9 11  1  0  0  0  0
 11 12  1  6  0  0  0
 11 13  1  0  0  0  0
 13 14  1  0  0  0  0
 13 15  1  6  0  0  0
 15 16  1  0  0  0  0
M  CHG  1   3  -1
M  END
>  <CHROM.1>
-175.55357425,-175.82844978,68.07213962,34.30626737,0.10175776,9.22919522
2.61472691,1.08960044,-1.00554485

>  <Name>
ligand

>  <RI>
0

>  <Rbt.Current_Directory>
/home/itssahil/PROJECTS/Mol_Feturizer/New_Systems/rnas/3B4C

>  <Rbt.Executable>
rbdock ($Id: //depot/dev/client3/rdock/2013.1/src/exe/rbdock.cxx#4 $)

>  <Rbt.Library>
libRbt.so (2013.1, Build901 2013/11/27)

>  <Rbt.Parameter_File>
/export/apps/rDock/src/rDock_2013.1_src/data/scripts/dock_solv.prm

>  <Rbt.Receptor>
prm/blind_docking_40.prm

>  <SCORE>
-11.0337

>  <SCORE.INTER>
-9.46945

>  <SCORE.INTER.CONST>
1

>  <SCORE.INTER.POLAR>
0

>  <SCORE.INTER.ROT>
3

>  <SCORE.INTER.SOLV>
17.8829

>  <SCORE.INTER.VDW>
-17.8739

>  <SCORE.INTER.norm>
-0.591841

>  <SCORE.INTRA>
-1.56429

>  <SCORE.INTRA.DIHEDRAL>
-1.86321

>  <SCORE.INTRA.DIHEDRAL.0>
2.1318

>  <SCORE.INTRA.POLAR>
0

>  <SCORE.INTRA.POLAR.0>
0

>  <SCORE.INTRA.REPUL>
0

>  <SCORE.INTRA.REPUL.0>
0

>  <SCORE.INTRA.SOLV>
-0.950451

>  <SCORE.INTRA.SOLV.lig_0>
-58.6125

>  <SCORE.INTRA.VDW>
-0.157455

>  <SCORE.INTRA.VDW.0>
-0.432734

>  <SCORE.INTRA.norm>
-0.0977678

>  <SCORE.RESTR>
0

>  <SCORE.RESTR.CAVITY>
0

>  <SCORE.RESTR.norm>
0

>  <SCORE.SYSTEM>
0

>  <SCORE.SYSTEM.CONST>
0

>  <SCORE.SYSTEM.DIHEDRAL>
0

>  <SCORE.SYSTEM.SOLV>
0

>  <SCORE.SYSTEM.norm>
0

>  <SCORE.heavy>
16

>  <SCORE.norm>
-0.689609

>  <RMSD>
19.993

$$$$
ligand
 OpenBabel11021811463D
libRbt.so/2013.1/901 2013/11/27
 16 16  0  0  0  0  0  0  0  0999 V2000
   32.9216    3.1279    9.2157 P   0  0  2  0  0  0  0  0  0  0  0  0
   31.5364    2.6612    8.9614 O   0  0  0  0  0  0  0  0  0  0  0  0
   32.8993    4.3041   10.3133 O   0  5  0  0  0  0  0  0  0  0  0  0
   33.5408    3.7060    7.8438 O   0  0  0  0  0  0  0  0  0  0  0  0
   34.6581   -2.1188   10.8281 C   0  0  2  0  0  0  0  0  0  0  0  0
   35.8889   -1.7040   11.4322 O   0  0  0  0  0  0  0  0  0  0  0  0
   34.9195   -3.1694    9.7182 C   0  0  2  0  0  0  0  0  0  0  0  0
   35.6170   -4.3367   10.2907 N   0  0  0  0  0  0  0  0  0  0  0  0
   35.7868   -2.5224    8.6253 C   0  0  1  0  0  0  0  0  0  0  0  0
   36.0337   -3.4594    7.5735 O   0  0  0  0  0  0  0  0  0  0  0  0
   35.0231   -1.3216    8.0695 C   0  0  2  0  0  0  0  0  0  0  0  0
   35.8096   -0.7062    7.0574 O   0  0  0  0  0  0  0  0  0  0  0  0
   34.7614   -0.3179    9.2255 C   0  0  2  0  0  0  0  0  0  0  0  0
   33.9724   -0.9517   10.2787 O   0  0  0  0  0  0  0  0  0  0  0  0
   33.9809    0.9168    8.7111 C   0  0  0  0  0  0  0  0  0  0  0  0
   33.8155    1.8901    9.7584 O   0  0  0  0  0  0  0  0  0  0  0  0
  1  2  1  6  0  0  0
  1  3  1  0  0  0  0
  1  4  2  0  0  0  0
  1 16  1  0  0  0  0
  5  6  1  6  0  0  0
  5  7  1  0  0  0  0
  5 14  1  0  0  0  0
  7  8  1  1  0  0  0
  7  9  1  0  0  0  0
  9 10  1  6  0  0  0
  9 11  1  0  0  0  0
 11 12  1  6  0  0  0
 11 13  1  0  0  0  0
 13 14  1  0  0  0  0
 13 15  1  6  0  0  0
 15 16  1  0  0  0  0
M  CHG  1   3  -1
M  END
>  <CHROM.1>
-176.10715046,-176.66903760,67.37190357,34.31715007,0.07065031,9.23521204
2.65824550,1.10743719,-1.06476958

>  <Name>
ligand

>  <RI>
0

>  <Rbt.Current_Directory>
/home/itssahil/PROJECTS/Mol_Feturizer/New_Systems/rnas/3B4C

>  <Rbt.Executable>
rbdock ($Id: //depot/dev/client3/rdock/2013.1/src/exe/rbdock.cxx#4 $)

>  <Rbt.Library>
libRbt.so (2013.1, Build901 2013/11/27)

>  <Rbt.Parameter_File>
/export/apps/rDock/src/rDock_2013.1_src/data/scripts/dock_solv.prm

>  <Rbt.Receptor>
prm/blind_docking_40.prm

>  <SCORE>
-11.0591

>  <SCORE.INTER>
-9.45805

>  <SCORE.INTER.CONST>
1

>  <SCORE.INTER.POLAR>
0

>  <SCORE.INTER.ROT>
3

>  <SCORE.INTER.SOLV>
17.8803

>  <SCORE.INTER.VDW>
-17.8655

>  <SCORE.INTER.norm>
-0.591128

>  <SCORE.INTRA>
-1.60106

>  <SCORE.INTRA.DIHEDRAL>
-1.92836

>  <SCORE.INTRA.DIHEDRAL.0>
2.1318

>  <SCORE.INTRA.POLAR>
0

>  <SCORE.INTRA.POLAR.0>
0

>  <SCORE.INTRA.REPUL>
0

>  <SCORE.INTRA.REPUL.0>
0

>  <SCORE.INTRA.SOLV>
-0.957069

>  <SCORE.INTRA.SOLV.lig_0>
-58.6125

>  <SCORE.INTRA.VDW>
-0.158341

>  <SCORE.INTRA.VDW.0>
-0.432734

>  <SCORE.INTRA.norm>
-0.100066

>  <SCORE.RESTR>
0

>  <SCORE.RESTR.CAVITY>
0

>  <SCORE.RESTR.norm>
0

>  <SCORE.SYSTEM>
0

>  <SCORE.SYSTEM.CONST>
0

>  <SCORE.SYSTEM.DIHEDRAL>
0

>  <SCORE.SYSTEM.SOLV>
0

>  <SCORE.SYSTEM.norm>
0

>  <SCORE.heavy>
16

>  <SCORE.norm>
-0.691194

>  <RMSD>
20.000

$$$$
ligand
 OpenBabel11021811463D
libRbt.so/2013.1/901 2013/11/27
 16 16  0  0  0  0  0  0  0  0999 V2000
   32.6487    2.2904    7.7505 P   0  0  2  0  0  0  0  0  0  0  0  0
   31.9562    2.9217    8.9008 O   0  0  0  0  0  0  0  0  0  0  0  0
   33.9504    3.1547    7.3668 O   0  5  0  0  0  0  0  0  0  0  0  0
   31.6485    2.2638    6.4862 O   0  0  0  0  0  0  0  0  0  0  0  0
   34.6721   -2.8940    9.2372 C   0  0  2  0  0  0  0  0  0  0  0  0
   33.5295   -3.2517   10.0236 O   0  0  0  0  0  0  0  0  0  0  0  0
   35.9659   -2.9607   10.0890 C   0  0  2  0  0  0  0  0  0  0  0  0
   36.1358   -4.3218   10.6323 N   0  0  0  0  0  0  0  0  0  0  0  0
   35.8484   -1.9462   11.2390 C   0  0  1  0  0  0  0  0  0  0  0  0
   37.0348   -1.9673   12.0374 O   0  0  0  0  0  0  0  0  0  0  0  0
   35.6718   -0.5587   10.6247 C   0  0  2  0  0  0  0  0  0  0  0  0
   35.5586    0.3958   11.6726 O   0  0  0  0  0  0  0  0  0  0  0  0
   34.3819   -0.5563    9.7597 C   0  0  2  0  0  0  0  0  0  0  0  0
   34.4836   -1.5507    8.6947 O   0  0  0  0  0  0  0  0  0  0  0  0
   34.1634    0.8316    9.1081 C   0  0  0  0  0  0  0  0  0  0  0  0
   33.0907    0.7834    8.1496 O   0  0  0  0  0  0  0  0  0  0  0  0
  1  2  1  1  0  0  0
  1  3  1  0  0  0  0
  1  4  2  0  0  0  0
  1 16  1  0  0  0  0
  5  6  1  1  0  0  0
  5  7  1  0  0  0  0
  5 14  1  0  0  0  0
  7  8  1  1  0  0  0
  7  9  1  0  0  0  0
  9 10  1  6  0  0  0
  9 11  1  0  0  0  0
 11 12  1  1  0  0  0
 11 13  1  0  0  0  0
 13 14  1  0  0  0  0
 13 15  1  6  0  0  0
 15 16  1  0  0  0  0
M  CHG  1   3  -1
M  END
>  <CHROM.1>
171.24936023,166.51811848,-70.64284716,34.25201211,-0.19835293,9.33494547
2.34850039,-0.83507379,0.08085336

>  <Name>
ligand

>  <RI>
0

>  <Rbt.Current_Directory>
/home/itssahil/PROJECTS/Mol_Feturizer/New_Systems/rnas/3B4C

>  <Rbt.Executable>
rbdock ($Id: //depot/dev/client3/rdock/2013.1/src/exe/rbdock.cxx#4 $)

>  <Rbt.Library>
libRbt.so (2013.1, Build901 2013/11/27)

>  <Rbt.Parameter_File>
/export/apps/rDock/src/rDock_2013.1_src/data/scripts/dock_solv.prm

>  <Rbt.Receptor>
prm/blind_docking_40.prm

>  <SCORE>
-9.15743

>  <SCORE.INTER>
-8.21994

>  <SCORE.INTER.CONST>
1

>  <SCORE.INTER.POLAR>
0

>  <SCORE.INTER.ROT>
3

>  <SCORE.INTER.SOLV>
14.29

>  <SCORE.INTER.VDW>
-15.8433

>  <SCORE.INTER.norm>
-0.513746

>  <SCORE.INTRA>
-0.937486

>  <SCORE.INTRA.DIHEDRAL>
-0.821138

>  <SCORE.INTRA.DIHEDRAL.0>
2.1318

>  <SCORE.INTRA.POLAR>
0

>  <SCORE.INTRA.POLAR.0>
0

>  <SCORE.INTRA.REPUL>
0

>  <SCORE.INTRA.REPUL.0>
0

>  <SCORE.INTRA.SOLV>
-0.94711

>  <SCORE.INTRA.SOLV.lig_0>
-58.6125

>  <SCORE.INTRA.VDW>
-0.0533616

>  <SCORE.INTRA.VDW.0>
-0.432734

>  <SCORE.INTRA.norm>
-0.0585929

>  <SCORE.RESTR>
0

>  <SCORE.RESTR.CAVITY>
0

>  <SCORE.RESTR.norm>
0

>  <SCORE.SYSTEM>
0

>  <SCORE.SYSTEM.CONST>
0

>  <SCORE.SYSTEM.DIHEDRAL>
0

>  <SCORE.SYSTEM.SOLV>
0

>  <SCORE.SYSTEM.norm>
0

>  <SCORE.heavy>
16

>  <SCORE.norm>
-0.572339

>  <RMSD>
20.133

$$$$
ligand
 OpenBabel11021811463D
libRbt.so/2013.1/901 2013/11/27
 16 16  0  0  0  0  0  0  0  0999 V2000
   34.8049   -2.5517    9.9825 P   0  0  2  0  0  0  0  0  0  0  0  0
   33.4439   -3.0237   10.3380 O   0  0  0  0  0  0  0  0  0  0  0  0
   35.7067   -3.8046    9.5291 O   0  5  0  0  0  0  0  0  0  0  0  0
   35.4774   -1.8659   11.2774 O   0  0  0  0  0  0  0  0  0  0  0  0
   32.8715    1.2288    6.0696 C   0  0  2  0  0  0  0  0  0  0  0  0
   34.0956    1.3175    5.3309 O   0  0  0  0  0  0  0  0  0  0  0  0
   32.4325    2.6283    6.5722 C   0  0  2  0  0  0  0  0  0  0  0  0
   32.2622    3.5396    5.4245 N   0  0  0  0  0  0  0  0  0  0  0  0
   33.5163    3.1714    7.5187 C   0  0  1  0  0  0  0  0  0  0  0  0
   33.1357    4.4566    8.0172 O   0  0  0  0  0  0  0  0  0  0  0  0
   33.6551    2.1931    8.6839 C   0  0  2  0  0  0  0  0  0  0  0  0
   34.6555    2.6759    9.5715 O   0  0  0  0  0  0  0  0  0  0  0  0
   34.0649    0.8039    8.1232 C   0  0  2  0  0  0  0  0  0  0  0  0
   33.0510    0.3130    7.1935 O   0  0  0  0  0  0  0  0  0  0  0  0
   34.2113   -0.2267    9.2699 C   0  0  0  0  0  0  0  0  0  0  0  0
   34.7038   -1.4828    8.7688 O   0  0  0  0  0  0  0  0  0  0  0  0
  1  2  1  1  0  0  0
  1  3  1  0  0  0  0
  1  4  2  0  0  0  0
  1 16  1  0  0  0  0
  5  6  1  1  0  0  0
  5  7  1  0  0  0  0
  5 14  1  0  0  0  0
  7  8  1  6  0  0  0
  7  9  1  0  0  0  0
  9 10  1  1  0  0  0
  9 11  1  0  0  0  0
 11 12  1  1  0  0  0
 11 13  1  0  0  0  0
 13 14  1  0  0  0  0
 13 15  1  1  0  0  0
 15 16  1  0  0  0  0
M  CHG  1   3  -1
M  END
>  <CHROM.1>
-174.96181757,-178.35594924,74.90928104,33.97947675,0.29853374,8.39700433
0.64791824,1.23305550,-2.77287495

>  <Name>
ligand

>  <RI>
0

>  <Rbt.Current_Directory>
/home/itssahil/PROJECTS/Mol_Feturizer/New_Systems/rnas/3B4C

>  <Rbt.Executable>
rbdock ($Id: //depot/dev/client3/rdock/2013.1/src/exe/rbdock.cxx#4 $)

>  <Rbt.Library>
libRbt.so (2013.1, Build901 2013/11/27)

>  <Rbt.Parameter_File>
/export/apps/rDock/src/rDock_2013.1_src/data/scripts/dock_solv.prm

>  <Rbt.Receptor>
prm/blind_docking_40.prm

>  <SCORE>
-9.68707

>  <SCORE.INTER>
-8.33175

>  <SCORE.INTER.CONST>
1

>  <SCORE.INTER.POLAR>
0

>  <SCORE.INTER.ROT>
3

>  <SCORE.INTER.SOLV>
11.6609

>  <SCORE.INTER.VDW>
-15.0415

>  <SCORE.INTER.norm>
-0.520734

>  <SCORE.INTRA>
-1.35532

>  <SCORE.INTRA.DIHEDRAL>
-1.67164

>  <SCORE.INTRA.DIHEDRAL.0>
2.1318

>  <SCORE.INTRA.POLAR>
0

>  <SCORE.INTRA.POLAR.0>
0

>  <SCORE.INTRA.REPUL>
0

>  <SCORE.INTRA.REPUL.0>
0

>  <SCORE.INTRA.SOLV>
-0.888595

>  <SCORE.INTRA.SOLV.lig_0>
-58.6125

>  <SCORE.INTRA.VDW>
-0.0752033

>  <SCORE.INTRA.VDW.0>
-0.432734

>  <SCORE.INTRA.norm>
-0.0847075

>  <SCORE.RESTR>
0

>  <SCORE.RESTR.CAVITY>
0

>  <SCORE.RESTR.norm>
0

>  <SCORE.SYSTEM>
0

>  <SCORE.SYSTEM.CONST>
0

>  <SCORE.SYSTEM.DIHEDRAL>
0

>  <SCORE.SYSTEM.SOLV>
0

>  <SCORE.SYSTEM.norm>
0

>  <SCORE.heavy>
16

>  <SCORE.norm>
-0.605442

>  <RMSD>
20.170

$$$$
ligand
 OpenBabel11021811463D
libRbt.so/2013.1/901 2013/11/27
 16 16  0  0  0  0  0  0  0  0999 V2000
   34.6465   -2.7346    9.8627 P   0  0  2  0  0  0  0  0  0  0  0  0
   33.6606   -3.7567   10.2922 O   0  0  0  0  0  0  0  0  0  0  0  0
   35.8813   -3.4559    9.1251 O   0  5  0  0  0  0  0  0  0  0  0  0
   35.1974   -1.9575   11.1635 O   0  0  0  0  0  0  0  0  0  0  0  0
   32.4140    1.7523    7.0115 C   0  0  2  0  0  0  0  0  0  0  0  0
   31.9708    1.0053    5.8725 O   0  0  0  0  0  0  0  0  0  0  0  0
   33.3769    2.8885    6.5804 C   0  0  2  0  0  0  0  0  0  0  0  0
   32.6958    3.7840    5.6259 N   0  0  0  0  0  0  0  0  0  0  0  0
   34.6141    2.2582    5.9192 C   0  0  1  0  0  0  0  0  0  0  0  0
   35.5349    3.2785    5.5239 O   0  0  0  0  0  0  0  0  0  0  0  0
   35.2785    1.3412    6.9447 C   0  0  2  0  0  0  0  0  0  0  0  0
   36.4254    0.7452    6.3521 O   0  0  0  0  0  0  0  0  0  0  0  0
   34.2634    0.2431    7.3641 C   0  0  2  0  0  0  0  0  0  0  0  0
   33.0732    0.8510    7.9534 O   0  0  0  0  0  0  0  0  0  0  0  0
   34.8907   -0.7098    8.4115 C   0  0  0  0  0  0  0  0  0  0  0  0
   33.9341   -1.6938    8.8454 O   0  0  0  0  0  0  0  0  0  0  0  0
  1  2  1  1  0  0  0
  1  3  1  0  0  0  0
  1  4  2  0  0  0  0
  1 16  1  0  0  0  0
  5  6  1  6  0  0  0
  5  7  1  0  0  0  0
  5 14  1  0  0  0  0
  7  8  1  6  0  0  0
  7  9  1  0  0  0  0
  9 10  1  1  0  0  0
  9 11  1  0  0  0  0
 11 12  1  6  0  0  0
 11 13  1  0  0  0  0
 13 14  1  0  0  0  0
 13 15  1  1  0  0  0
 15 16  1  0  0  0  0
M  CHG  1   3  -1
M  END
>  <CHROM.1>
177.50786276,176.19747543,-179.25250715,34.28719028,-0.04345017,7.87229972
1.43770979,-0.09453011,2.50267831

>  <Name>
ligand

>  <RI>
0

>  <Rbt.Current_Directory>
/home/itssahil/PROJECTS/Mol_Feturizer/New_Systems/rnas/3B4C

>  <Rbt.Executable>
rbdock ($Id: //depot/dev/client3/rdock/2013.1/src/exe/rbdock.cxx#4 $)

>  <Rbt.Library>
libRbt.so (2013.1, Build901 2013/11/27)

>  <Rbt.Parameter_File>
/export/apps/rDock/src/rDock_2013.1_src/data/scripts/dock_solv.prm

>  <Rbt.Receptor>
prm/blind_docking_100.prm

>  <SCORE>
-8.96559

>  <SCORE.INTER>
-7.54008

>  <SCORE.INTER.CONST>
1

>  <SCORE.INTER.POLAR>
0

>  <SCORE.INTER.ROT>
3

>  <SCORE.INTER.SOLV>
11.5042

>  <SCORE.INTER.VDW>
-14.4615

>  <SCORE.INTER.norm>
-0.471255

>  <SCORE.INTRA>
-1.4255

>  <SCORE.INTRA.DIHEDRAL>
-2.03541

>  <SCORE.INTRA.DIHEDRAL.0>
2.1318

>  <SCORE.INTRA.POLAR>
0

>  <SCORE.INTRA.POLAR.0>
0

>  <SCORE.INTRA.REPUL>
0

>  <SCORE.INTRA.REPUL.0>
0

>  <SCORE.INTRA.SOLV>
-0.37886

>  <SCORE.INTRA.SOLV.lig_0>
-58.6125

>  <SCORE.INTRA.VDW>
-0.218368

>  <SCORE.INTRA.VDW.0>
-0.432734

>  <SCORE.INTRA.norm>
-0.0890939

>  <SCORE.RESTR>
0

>  <SCORE.RESTR.CAVITY>
0

>  <SCORE.RESTR.norm>
0

>  <SCORE.SYSTEM>
0

>  <SCORE.SYSTEM.CONST>
0

>  <SCORE.SYSTEM.DIHEDRAL>
0

>  <SCORE.SYSTEM.SOLV>
0

>  <SCORE.SYSTEM.norm>
0

>  <SCORE.heavy>
16

>  <SCORE.norm>
-0.560349

>  <RMSD>
20.295

$$$$
ligand
 OpenBabel11021811463D
libRbt.so/2013.1/901 2013/11/27
 16 16  0  0  0  0  0  0  0  0999 V2000
   37.0255   -5.1079   11.1738 P   0  0  2  0  0  0  0  0  0  0  0  0
   35.9383   -6.0878   10.9304 O   0  0  0  0  0  0  0  0  0  0  0  0
   38.3785   -5.6210   10.4703 O   0  5  0  0  0  0  0  0  0  0  0  0
   37.2766   -4.9862   12.7617 O   0  0  0  0  0  0  0  0  0  0  0  0
   36.3654   -1.2425    6.3625 C   0  0  2  0  0  0  0  0  0  0  0  0
   37.4032   -0.3727    6.8297 O   0  0  0  0  0  0  0  0  0  0  0  0
   34.9705   -0.6106    6.6053 C   0  0  2  0  0  0  0  0  0  0  0  0
   34.8851    0.6902    5.9143 N   0  0  0  0  0  0  0  0  0  0  0  0
   34.7772   -0.4160    8.1186 C   0  0  1  0  0  0  0  0  0  0  0  0
   33.4905    0.1498    8.3819 O   0  0  0  0  0  0  0  0  0  0  0  0
   34.8773   -1.7872    8.7847 C   0  0  2  0  0  0  0  0  0  0  0  0
   34.7035   -1.6296   10.1872 O   0  0  0  0  0  0  0  0  0  0  0  0
   36.2784   -2.3866    8.4851 C   0  0  2  0  0  0  0  0  0  0  0  0
   36.4711   -2.5301    7.0444 O   0  0  0  0  0  0  0  0  0  0  0  0
   36.4254   -3.7843    9.1358 C   0  0  0  0  0  0  0  0  0  0  0  0
   36.6011   -3.6697   10.5597 O   0  0  0  0  0  0  0  0  0  0  0  0
  1  2  1  6  0  0  0
  1  3  1  0  0  0  0
  1  4  2  0  0  0  0
  1 16  1  0  0  0  0
  5  6  1  1  0  0  0
  5  7  1  0  0  0  0
  5 14  1  0  0  0  0
  7  8  1  6  0  0  0
  7  9  1  0  0  0  0
  9 10  1  6  0  0  0
  9 11  1  0  0  0  0
 11 12  1  1  0  0  0
 11 13  1  0  0  0  0
 13 14  1  0  0  0  0
 13 15  1  1  0  0  0
 15 16  1  0  0  0  0
M  CHG  1   3  -1
M  END
>  <CHROM.1>
-74.28433614,-169.51824255,-62.08116986,36.09028670,-2.70312071,9.08790833
-1.21918011,0.64094041,-0.92777305

>  <Name>
ligand

>  <RI>
0

>  <Rbt.Current_Directory>
/home/itssahil/PROJECTS/Mol_Feturizer/New_Systems/rnas/3B4C

>  <Rbt.Executable>
rbdock ($Id: //depot/dev/client3/rdock/2013.1/src/exe/rbdock.cxx#4 $)

>  <Rbt.Library>
libRbt.so (2013.1, Build901 2013/11/27)

>  <Rbt.Parameter_File>
/export/apps/rDock/src/rDock_2013.1_src/data/scripts/dock_solv.prm

>  <Rbt.Receptor>
prm/blind_docking_80.prm

>  <SCORE>
-7.92696

>  <SCORE.INTER>
-6.91207

>  <SCORE.INTER.CONST>
1

>  <SCORE.INTER.POLAR>
0

>  <SCORE.INTER.ROT>
3

>  <SCORE.INTER.SOLV>
14.3055

>  <SCORE.INTER.VDW>
-14.9765

>  <SCORE.INTER.norm>
-0.432004

>  <SCORE.INTRA>
-1.01489

>  <SCORE.INTRA.DIHEDRAL>
-0.894426

>  <SCORE.INTRA.DIHEDRAL.0>
2.1318

>  <SCORE.INTRA.POLAR>
0

>  <SCORE.INTRA.POLAR.0>
0

>  <SCORE.INTRA.REPUL>
0

>  <SCORE.INTRA.REPUL.0>
0

>  <SCORE.INTRA.SOLV>
-0.734694

>  <SCORE.INTRA.SOLV.lig_0>
-58.6125

>  <SCORE.INTRA.VDW>
-0.200333

>  <SCORE.INTRA.VDW.0>
-0.432734

>  <SCORE.INTRA.norm>
-0.0634308

>  <SCORE.RESTR>
0

>  <SCORE.RESTR.CAVITY>
0

>  <SCORE.RESTR.norm>
0

>  <SCORE.SYSTEM>
0

>  <SCORE.SYSTEM.CONST>
0

>  <SCORE.SYSTEM.DIHEDRAL>
0

>  <SCORE.SYSTEM.SOLV>
0

>  <SCORE.SYSTEM.norm>
0

>  <SCORE.heavy>
16

>  <SCORE.norm>
-0.495435

>  <RMSD>
20.380

$$$$
ligand
 OpenBabel11021811463D
libRbt.so/2013.1/901 2013/11/27
 16 16  0  0  0  0  0  0  0  0999 V2000
   38.6400   -5.3837   10.4000 P   0  0  2  0  0  0  0  0  0  0  0  0
   38.9702   -4.4102    9.3302 O   0  0  0  0  0  0  0  0  0  0  0  0
   38.7588   -4.6658   11.8350 O   0  5  0  0  0  0  0  0  0  0  0  0
   39.6896   -6.6061   10.3395 O   0  0  0  0  0  0  0  0  0  0  0  0
   36.2775   -2.9876    7.4219 C   0  0  2  0  0  0  0  0  0  0  0  0
   37.5094   -2.2834    7.6178 O   0  0  0  0  0  0  0  0  0  0  0  0
   35.0666   -2.0450    7.6439 C   0  0  2  0  0  0  0  0  0  0  0  0
   35.1463   -0.9029    6.7134 N   0  0  0  0  0  0  0  0  0  0  0  0
   35.0966   -1.5425    9.0972 C   0  0  1  0  0  0  0  0  0  0  0  0
   33.9811   -0.6822    9.3439 O   0  0  0  0  0  0  0  0  0  0  0  0
   35.0150   -2.7598   10.0166 C   0  0  2  0  0  0  0  0  0  0  0  0
   35.0437   -2.3171   11.3675 O   0  0  0  0  0  0  0  0  0  0  0  0
   36.2312   -3.6828    9.7320 C   0  0  2  0  0  0  0  0  0  0  0  0
   36.2189   -4.1229    8.3393 O   0  0  0  0  0  0  0  0  0  0  0  0
   36.1884   -4.9383   10.6378 C   0  0  0  0  0  0  0  0  0  0  0  0
   37.1292   -5.9285   10.1843 O   0  0  0  0  0  0  0  0  0  0  0  0
  1  2  1  6  0  0  0
  1  3  1  0  0  0  0
  1  4  2  0  0  0  0
  1 16  1  0  0  0  0
  5  6  1  1  0  0  0
  5  7  1  0  0  0  0
  5 14  1  0  0  0  0
  7  8  1  6  0  0  0
  7  9  1  0  0  0  0
  9 10  1  6  0  0  0
  9 11  1  0  0  0  0
 11 12  1  1  0  0  0
 11 13  1  0  0  0  0
 13 14  1  0  0  0  0
 13 15  1  1  0  0  0
 15 16  1  0  0  0  0
M  CHG  1   3  -1
M  END
>  <CHROM.1>
167.28387405,67.28586118,-77.62342025,36.75823329,-3.62711009,9.48336605
-0.63253192,0.66862439,-1.18116516

>  <Name>
ligand

>  <RI>
0

>  <Rbt.Current_Directory>
/home/itssahil/PROJECTS/Mol_Feturizer/New_Systems/rnas/3B4C

>  <Rbt.Executable>
rbdock ($Id: //depot/dev/client3/rdock/2013.1/src/exe/rbdock.cxx#4 $)

>  <Rbt.Library>
libRbt.so (2013.1, Build901 2013/11/27)

>  <Rbt.Parameter_File>
/export/apps/rDock/src/rDock_2013.1_src/data/scripts/dock_solv.prm

>  <Rbt.Receptor>
prm/blind_docking_100.prm

>  <SCORE>
-8.95549

>  <SCORE.INTER>
-8.84019

>  <SCORE.INTER.CONST>
1

>  <SCORE.INTER.POLAR>
0

>  <SCORE.INTER.ROT>
3

>  <SCORE.INTER.SOLV>
14.3385

>  <SCORE.INTER.VDW>
-16.273

>  <SCORE.INTER.norm>
-0.552512

>  <SCORE.INTRA>
-0.115301

>  <SCORE.INTRA.DIHEDRAL>
-0.839891

>  <SCORE.INTRA.DIHEDRAL.0>
2.1318

>  <SCORE.INTRA.POLAR>
0

>  <SCORE.INTRA.POLAR.0>
0

>  <SCORE.INTRA.REPUL>
0

>  <SCORE.INTRA.REPUL.0>
0

>  <SCORE.INTRA.SOLV>
0.891751

>  <SCORE.INTRA.SOLV.lig_0>
-58.6125

>  <SCORE.INTRA.VDW>
-0.141231

>  <SCORE.INTRA.VDW.0>
-0.432734

>  <SCORE.INTRA.norm>
-0.0072063

>  <SCORE.RESTR>
0

>  <SCORE.RESTR.CAVITY>
0

>  <SCORE.RESTR.norm>
0

>  <SCORE.SYSTEM>
0

>  <SCORE.SYSTEM.CONST>
0

>  <SCORE.SYSTEM.DIHEDRAL>
0

>  <SCORE.SYSTEM.SOLV>
0

>  <SCORE.SYSTEM.norm>
0

>  <SCORE.heavy>
16

>  <SCORE.norm>
-0.559718

>  <RMSD>
20.401

$$$$
ligand
 OpenBabel11021811463D
libRbt.so/2013.1/901 2013/11/27
 16 16  0  0  0  0  0  0  0  0999 V2000
   32.2449    2.1719    7.7565 P   0  0  2  0  0  0  0  0  0  0  0  0
   30.7842    1.9311    7.6584 O   0  0  0  0  0  0  0  0  0  0  0  0
   32.5314    3.2855    8.8819 O   0  5  0  0  0  0  0  0  0  0  0  0
   32.7841    2.7138    6.3369 O   0  0  0  0  0  0  0  0  0  0  0  0
   34.7533   -1.9567   10.8031 C   0  0  2  0  0  0  0  0  0  0  0  0
   36.0104   -1.6263   11.4050 O   0  0  0  0  0  0  0  0  0  0  0  0
   34.9360   -3.0482    9.7172 C   0  0  2  0  0  0  0  0  0  0  0  0
   35.5378   -4.2538   10.3182 N   0  0  0  0  0  0  0  0  0  0  0  0
   35.8555   -2.4947    8.6156 C   0  0  1  0  0  0  0  0  0  0  0  0
   36.0324   -3.4707    7.5854 O   0  0  0  0  0  0  0  0  0  0  0  0
   35.1902   -1.2502    8.0303 C   0  0  2  0  0  0  0  0  0  0  0  0
   36.0264   -0.7202    7.0096 O   0  0  0  0  0  0  0  0  0  0  0  0
   35.0035   -0.2044    9.1632 C   0  0  2  0  0  0  0  0  0  0  0  0
   34.1632   -0.7517   10.2252 O   0  0  0  0  0  0  0  0  0  0  0  0
   34.3239    1.0762    8.6183 C   0  0  0  0  0  0  0  0  0  0  0  0
   32.9928    0.7898    8.1517 O   0  0  0  0  0  0  0  0  0  0  0  0
  1  2  1  6  0  0  0
  1  3  1  0  0  0  0
  1  4  2  0  0  0  0
  1 16  1  0  0  0  0
  5  6  1  6  0  0  0
  5  7  1  0  0  0  0
  5 14  1  0  0  0  0
  7  8  1  1  0  0  0
  7  9  1  0  0  0  0
  9 10  1  6  0  0  0
  9 11  1  0  0  0  0
 11 12  1  6  0  0  0
 11 13  1  0  0  0  0
 13 14  1  0  0  0  0
 13 15  1  6  0  0  0
 15 16  1  0  0  0  0
M  CHG  1   3  -1
M  END
>  <CHROM.1>
63.90953658,173.18675515,-163.69274666,34.14133598,-0.23550065,8.66666497
2.64562003,0.92592217,-1.32307864

>  <Name>
ligand

>  <RI>
0

>  <Rbt.Current_Directory>
/home/itssahil/PROJECTS/Mol_Feturizer/New_Systems/rnas/3B4C

>  <Rbt.Executable>
rbdock ($Id: //depot/dev/client3/rdock/2013.1/src/exe/rbdock.cxx#4 $)

>  <Rbt.Library>
libRbt.so (2013.1, Build901 2013/11/27)

>  <Rbt.Parameter_File>
/export/apps/rDock/src/rDock_2013.1_src/data/scripts/dock_solv.prm

>  <Rbt.Receptor>
prm/blind_docking_80.prm

>  <SCORE>
-10.0376

>  <SCORE.INTER>
-9.00822

>  <SCORE.INTER.CONST>
1

>  <SCORE.INTER.POLAR>
0

>  <SCORE.INTER.ROT>
3

>  <SCORE.INTER.SOLV>
13.8713

>  <SCORE.INTER.VDW>
-16.2293

>  <SCORE.INTER.norm>
-0.563013

>  <SCORE.INTRA>
-1.02943

>  <SCORE.INTRA.DIHEDRAL>
-1.43053

>  <SCORE.INTRA.DIHEDRAL.0>
2.1318

>  <SCORE.INTRA.POLAR>
0

>  <SCORE.INTRA.POLAR.0>
0

>  <SCORE.INTRA.REPUL>
0

>  <SCORE.INTRA.REPUL.0>
0

>  <SCORE.INTRA.SOLV>
-0.188346

>  <SCORE.INTRA.SOLV.lig_0>
-58.6125

>  <SCORE.INTRA.VDW>
-0.219991

>  <SCORE.INTRA.VDW.0>
-0.432734

>  <SCORE.INTRA.norm>
-0.0643392

>  <SCORE.RESTR>
0

>  <SCORE.RESTR.CAVITY>
0

>  <SCORE.RESTR.norm>
0

>  <SCORE.SYSTEM>
0

>  <SCORE.SYSTEM.CONST>
0

>  <SCORE.SYSTEM.DIHEDRAL>
0

>  <SCORE.SYSTEM.SOLV>
0

>  <SCORE.SYSTEM.norm>
0

>  <SCORE.heavy>
16

>  <SCORE.norm>
-0.627353

>  <RMSD>
20.401

$$$$
ligand
 OpenBabel11021811463D
libRbt.so/2013.1/901 2013/11/27
 16 16  0  0  0  0  0  0  0  0999 V2000
   32.7429    7.5029    8.2355 P   0  0  2  0  0  0  0  0  0  0  0  0
   34.0961    8.0974    8.1057 O   0  0  0  0  0  0  0  0  0  0  0  0
   31.6328    8.6096    7.8724 O   0  5  0  0  0  0  0  0  0  0  0  0
   32.5239    7.0245    9.7596 O   0  0  0  0  0  0  0  0  0  0  0  0
   31.4616    3.6741    4.0026 C   0  0  2  0  0  0  0  0  0  0  0  0
   32.4257    2.7186    4.4600 O   0  0  0  0  0  0  0  0  0  0  0  0
   31.7693    4.1085    2.5464 C   0  0  2  0  0  0  0  0  0  0  0  0
   31.7652    2.9274    1.6622 N   0  0  0  0  0  0  0  0  0  0  0  0
   33.1516    4.7823    2.5176 C   0  0  1  0  0  0  0  0  0  0  0  0
   33.4618    5.2132    1.1897 O   0  0  0  0  0  0  0  0  0  0  0  0
   33.1032    5.9928    3.4483 C   0  0  2  0  0  0  0  0  0  0  0  0
   34.3742    6.6301    3.4383 O   0  0  0  0  0  0  0  0  0  0  0  0
   32.7621    5.5059    4.8831 C   0  0  2  0  0  0  0  0  0  0  0  0
   31.4670    4.8307    4.8951 O   0  0  0  0  0  0  0  0  0  0  0  0
   32.6945    6.7021    5.8645 C   0  0  0  0  0  0  0  0  0  0  0  0
   32.6097    6.2426    7.2258 O   0  0  0  0  0  0  0  0  0  0  0  0
  1  2  1  6  0  0  0
  1  3  1  0  0  0  0
  1  4  2  0  0  0  0
  1 16  1  0  0  0  0
  5  6  1  1  0  0  0
  5  7  1  0  0  0  0
  5 14  1  0  0  0  0
  7  8  1  6  0  0  0
  7  9  1  0  0  0  0
  9 10  1  6  0  0  0
  9 11  1  0  0  0  0
 11 12  1  1  0  0  0
 11 13  1  0  0  0  0
 13 14  1  0  0  0  0
 13 15  1  1  0  0  0
 15 16  1  0  0  0  0
M  CHG  1   3  -1
M  END
>  <CHROM.1>
-170.04266073,172.37499354,-64.95263069,32.65125673,5.83316679,5.30846471
1.51293164,0.97166679,1.08789160

>  <Name>
ligand

>  <RI>
0

>  <Rbt.Current_Directory>
/home/itssahil/PROJECTS/Mol_Feturizer/New_Systems/rnas/3B4C

>  <Rbt.Executable>
rbdock ($Id: //depot/dev/client3/rdock/2013.1/src/exe/rbdock.cxx#4 $)

>  <Rbt.Library>
libRbt.so (2013.1, Build901 2013/11/27)

>  <Rbt.Parameter_File>
/export/apps/rDock/src/rDock_2013.1_src/data/scripts/dock_solv.prm

>  <Rbt.Receptor>
prm/blind_docking_100.prm

>  <SCORE>
-8.84666

>  <SCORE.INTER>
-7.46408

>  <SCORE.INTER.CONST>
1

>  <SCORE.INTER.POLAR>
0

>  <SCORE.INTER.ROT>
3

>  <SCORE.INTER.SOLV>
10.947

>  <SCORE.INTER.VDW>
-14.2251

>  <SCORE.INTER.norm>
-0.466505

>  <SCORE.INTRA>
-1.38257

>  <SCORE.INTRA.DIHEDRAL>
-1.45389

>  <SCORE.INTRA.DIHEDRAL.0>
2.1318

>  <SCORE.INTRA.POLAR>
0

>  <SCORE.INTRA.POLAR.0>
0

>  <SCORE.INTRA.REPUL>
0

>  <SCORE.INTRA.REPUL.0>
0

>  <SCORE.INTRA.SOLV>
-1.05022

>  <SCORE.INTRA.SOLV.lig_0>
-58.6125

>  <SCORE.INTRA.VDW>
-0.130519

>  <SCORE.INTRA.VDW.0>
-0.432734

>  <SCORE.INTRA.norm>
-0.0864109

>  <SCORE.RESTR>
0

>  <SCORE.RESTR.CAVITY>
0

>  <SCORE.RESTR.norm>
0

>  <SCORE.SYSTEM>
0

>  <SCORE.SYSTEM.CONST>
0

>  <SCORE.SYSTEM.DIHEDRAL>
0

>  <SCORE.SYSTEM.SOLV>
0

>  <SCORE.SYSTEM.norm>
0

>  <SCORE.heavy>
16

>  <SCORE.norm>
-0.552916

>  <RMSD>
20.489

$$$$
ligand
 OpenBabel11021811463D
libRbt.so/2013.1/901 2013/11/27
 16 16  0  0  0  0  0  0  0  0999 V2000
   34.8236   -2.4830   10.0580 P   0  0  2  0  0  0  0  0  0  0  0  0
   33.7660   -3.4497    9.6728 O   0  0  0  0  0  0  0  0  0  0  0  0
   34.5226   -1.9170   11.5337 O   0  5  0  0  0  0  0  0  0  0  0  0
   34.8154   -1.2531    9.0155 O   0  0  0  0  0  0  0  0  0  0  0  0
   39.6860   -5.6257    9.9298 C   0  0  2  0  0  0  0  0  0  0  0  0
   39.5463   -7.0370   10.1318 O   0  0  0  0  0  0  0  0  0  0  0  0
   40.3508   -4.9593   11.1618 C   0  0  2  0  0  0  0  0  0  0  0  0
   41.6738   -5.5658   11.4037 N   0  0  0  0  0  0  0  0  0  0  0  0
   39.4427   -5.1731   12.3845 C   0  0  1  0  0  0  0  0  0  0  0  0
   40.0171   -4.5545   13.5388 O   0  0  0  0  0  0  0  0  0  0  0  0
   38.0896   -4.5315   12.0822 C   0  0  2  0  0  0  0  0  0  0  0  0
   37.2324   -4.7201   13.2008 O   0  0  0  0  0  0  0  0  0  0  0  0
   37.4836   -5.2132   10.8251 C   0  0  2  0  0  0  0  0  0  0  0  0
   38.3710   -5.0416    9.6777 O   0  0  0  0  0  0  0  0  0  0  0  0
   36.1102   -4.5895   10.4737 C   0  0  0  0  0  0  0  0  0  0  0  0
   36.2637   -3.2257   10.0402 O   0  0  0  0  0  0  0  0  0  0  0  0
  1  2  1  6  0  0  0
  1  3  1  0  0  0  0
  1  4  2  0  0  0  0
  1 16  1  0  0  0  0
  5  6  1  1  0  0  0
  5  7  1  0  0  0  0
  5 14  1  0  0  0  0
  7  8  1  1  0  0  0
  7  9  1  0  0  0  0
  9 10  1  1  0  0  0
  9 11  1  0  0  0  0
 11 12  1  1  0  0  0
 11 13  1  0  0  0  0
 13 14  1  0  0  0  0
 13 15  1  6  0  0  0
 15 16  1  0  0  0  0
M  CHG  1   3  -1
M  END
>  <CHROM.1>
67.18689407,-165.09237980,-35.09559194,37.36891081,-4.16673096,10.87340946
-3.05235664,-0.56006934,1.29061678

>  <Name>
ligand

>  <RI>
0

>  <Rbt.Current_Directory>
/home/itssahil/PROJECTS/Mol_Feturizer/New_Systems/rnas/3B4C

>  <Rbt.Executable>
rbdock ($Id: //depot/dev/client3/rdock/2013.1/src/exe/rbdock.cxx#4 $)

>  <Rbt.Library>
libRbt.so (2013.1, Build901 2013/11/27)

>  <Rbt.Parameter_File>
/export/apps/rDock/src/rDock_2013.1_src/data/scripts/dock_solv.prm

>  <Rbt.Receptor>
prm/blind_docking_60.prm

>  <SCORE>
-8.66362

>  <SCORE.INTER>
-8.53737

>  <SCORE.INTER.CONST>
1

>  <SCORE.INTER.POLAR>
0

>  <SCORE.INTER.ROT>
3

>  <SCORE.INTER.SOLV>
12.1912

>  <SCORE.INTER.VDW>
-15.3553

>  <SCORE.INTER.norm>
-0.533586

>  <SCORE.INTRA>
-0.126249

>  <SCORE.INTRA.DIHEDRAL>
-0.0112247

>  <SCORE.INTRA.DIHEDRAL.0>
2.1318

>  <SCORE.INTRA.POLAR>
0

>  <SCORE.INTRA.POLAR.0>
0

>  <SCORE.INTRA.REPUL>
0

>  <SCORE.INTRA.REPUL.0>
0

>  <SCORE.INTRA.SOLV>
-0.72903

>  <SCORE.INTRA.SOLV.lig_0>
-58.6125

>  <SCORE.INTRA.VDW>
0.243878

>  <SCORE.INTRA.VDW.0>
-0.432734

>  <SCORE.INTRA.norm>
-0.00789056

>  <SCORE.RESTR>
0

>  <SCORE.RESTR.CAVITY>
0

>  <SCORE.RESTR.norm>
0

>  <SCORE.SYSTEM>
0

>  <SCORE.SYSTEM.CONST>
0

>  <SCORE.SYSTEM.DIHEDRAL>
0

>  <SCORE.SYSTEM.SOLV>
0

>  <SCORE.SYSTEM.norm>
0

>  <SCORE.heavy>
16

>  <SCORE.norm>
-0.541476

>  <RMSD>
20.507

$$$$
ligand
 OpenBabel11021811463D
libRbt.so/2013.1/901 2013/11/27
 16 16  0  0  0  0  0  0  0  0999 V2000
   32.1042    1.7409    7.0762 P   0  0  2  0  0  0  0  0  0  0  0  0
   30.9403    1.9283    7.9771 O   0  0  0  0  0  0  0  0  0  0  0  0
   33.0170    3.0657    7.0952 O   0  5  0  0  0  0  0  0  0  0  0  0
   31.5714    1.4957    5.5744 O   0  0  0  0  0  0  0  0  0  0  0  0
   34.4430   -2.1564   10.6889 C   0  0  2  0  0  0  0  0  0  0  0  0
   35.5511   -1.7041   11.4759 O   0  0  0  0  0  0  0  0  0  0  0  0
   34.9134   -3.1655    9.6098 C   0  0  2  0  0  0  0  0  0  0  0  0
   35.5735   -4.3157   10.2565 N   0  0  0  0  0  0  0  0  0  0  0  0
   35.9003   -2.4532    8.6695 C   0  0  1  0  0  0  0  0  0  0  0  0
   36.3425   -3.3510    7.6480 O   0  0  0  0  0  0  0  0  0  0  0  0
   35.1707   -1.2730    8.0302 C   0  0  2  0  0  0  0  0  0  0  0  0
   36.0674   -0.5978    7.1573 O   0  0  0  0  0  0  0  0  0  0  0  0
   34.6956   -0.3119    9.1540 C   0  0  2  0  0  0  0  0  0  0  0  0
   33.7913   -1.0066   10.0667 O   0  0  0  0  0  0  0  0  0  0  0  0
   33.9417    0.9005    8.5536 C   0  0  0  0  0  0  0  0  0  0  0  0
   32.9745    0.4698    7.5788 O   0  0  0  0  0  0  0  0  0  0  0  0
  1  2  1  1  0  0  0
  1  3  1  0  0  0  0
  1  4  2  0  0  0  0
  1 16  1  0  0  0  0
  5  6  1  6  0  0  0
  5  7  1  0  0  0  0
  5 14  1  0  0  0  0
  7  8  1  1  0  0  0
  7  9  1  0  0  0  0
  9 10  1  6  0  0  0
  9 11  1  0  0  0  0
 11 12  1  6  0  0  0
 11 13  1  0  0  0  0
 13 14  1  0  0  0  0
 13 15  1  6  0  0  0
 15 16  1  0  0  0  0
M  CHG  1   3  -1
M  END
>  <CHROM.1>
47.12613041,174.49295561,-87.83727029,34.00510875,-0.44012537,8.39678728
2.45192731,0.79404907,-1.22519055

>  <Name>
ligand

>  <RI>
0

>  <Rbt.Current_Directory>
/home/itssahil/PROJECTS/Mol_Feturizer/New_Systems/rnas/3B4C

>  <Rbt.Executable>
rbdock ($Id: //depot/dev/client3/rdock/2013.1/src/exe/rbdock.cxx#4 $)

>  <Rbt.Library>
libRbt.so (2013.1, Build901 2013/11/27)

>  <Rbt.Parameter_File>
/export/apps/rDock/src/rDock_2013.1_src/data/scripts/dock_solv.prm

>  <Rbt.Receptor>
prm/blind_docking_40.prm

>  <SCORE>
-9.39316

>  <SCORE.INTER>
-9.1909

>  <SCORE.INTER.CONST>
1

>  <SCORE.INTER.POLAR>
0

>  <SCORE.INTER.ROT>
3

>  <SCORE.INTER.SOLV>
16.6976

>  <SCORE.INTER.VDW>
-17.2931

>  <SCORE.INTER.norm>
-0.574431

>  <SCORE.INTRA>
-0.202261

>  <SCORE.INTRA.DIHEDRAL>
-0.348941

>  <SCORE.INTRA.DIHEDRAL.0>
2.1318

>  <SCORE.INTRA.POLAR>
0

>  <SCORE.INTRA.POLAR.0>
0

>  <SCORE.INTRA.REPUL>
0

>  <SCORE.INTRA.REPUL.0>
0

>  <SCORE.INTRA.SOLV>
-0.539983

>  <SCORE.INTRA.SOLV.lig_0>
-58.6125

>  <SCORE.INTRA.VDW>
0.242201

>  <SCORE.INTRA.VDW.0>
-0.432734

>  <SCORE.INTRA.norm>
-0.0126413

>  <SCORE.RESTR>
0

>  <SCORE.RESTR.CAVITY>
0

>  <SCORE.RESTR.norm>
0

>  <SCORE.SYSTEM>
0

>  <SCORE.SYSTEM.CONST>
0

>  <SCORE.SYSTEM.DIHEDRAL>
0

>  <SCORE.SYSTEM.SOLV>
0

>  <SCORE.SYSTEM.norm>
0

>  <SCORE.heavy>
16

>  <SCORE.norm>
-0.587072

>  <RMSD>
20.678

$$$$
ligand
 OpenBabel11021811463D
libRbt.so/2013.1/901 2013/11/27
 16 16  0  0  0  0  0  0  0  0999 V2000
   32.2976    1.4636    7.2745 P   0  0  2  0  0  0  0  0  0  0  0  0
   31.6043    0.5450    6.3382 O   0  0  0  0  0  0  0  0  0  0  0  0
   31.2077    2.2934    8.1186 O   0  5  0  0  0  0  0  0  0  0  0  0
   33.1976    2.4974    6.4255 O   0  0  0  0  0  0  0  0  0  0  0  0
   34.8328   -2.9679    9.8519 C   0  0  2  0  0  0  0  0  0  0  0  0
   35.3534   -2.2597   10.9829 O   0  0  0  0  0  0  0  0  0  0  0  0
   35.9697   -3.7002    9.0935 C   0  0  2  0  0  0  0  0  0  0  0  0
   36.6522   -4.6394   10.0040 N   0  0  0  0  0  0  0  0  0  0  0  0
   36.9679   -2.6514    8.5748 C   0  0  1  0  0  0  0  0  0  0  0  0
   38.0236   -3.2912    7.8527 O   0  0  0  0  0  0  0  0  0  0  0  0
   36.2127   -1.7055    7.6426 C   0  0  2  0  0  0  0  0  0  0  0  0
   37.1182   -0.7247    7.1528 O   0  0  0  0  0  0  0  0  0  0  0  0
   35.0695   -1.0236    8.4427 C   0  0  2  0  0  0  0  0  0  0  0  0
   34.1482   -2.0283    8.9672 O   0  0  0  0  0  0  0  0  0  0  0  0
   34.2683   -0.0575    7.5353 C   0  0  0  0  0  0  0  0  0  0  0  0
   33.2298    0.6024    8.2820 O   0  0  0  0  0  0  0  0  0  0  0  0
  1  2  1  6  0  0  0
  1  3  1  0  0  0  0
  1  4  2  0  0  0  0
  1 16  1  0  0  0  0
  5  6  1  1  0  0  0
  5  7  1  0  0  0  0
  5 14  1  0  0  0  0
  7  8  1  1  0  0  0
  7  9  1  0  0  0  0
  9 10  1  6  0  0  0
  9 11  1  0  0  0  0
 11 12  1  1  0  0  0
 11 13  1  0  0  0  0
 13 14  1  0  0  0  0
 13 15  1  6  0  0  0
 15 16  1  0  0  0  0
M  CHG  1   3  -1
M  END
>  <CHROM.1>
-178.50585172,-173.09926586,64.26142779,34.54010684,-0.85349152,8.19014538
2.37560750,0.45651768,-0.79974236

>  <Name>
ligand

>  <RI>
0

>  <Rbt.Current_Directory>
/home/itssahil/PROJECTS/Mol_Feturizer/New_Systems/rnas/3B4C

>  <Rbt.Executable>
rbdock ($Id: //depot/dev/client3/rdock/2013.1/src/exe/rbdock.cxx#4 $)

>  <Rbt.Library>
libRbt.so (2013.1, Build901 2013/11/27)

>  <Rbt.Parameter_File>
/export/apps/rDock/src/rDock_2013.1_src/data/scripts/dock_solv.prm

>  <Rbt.Receptor>
prm/blind_docking_80.prm

>  <SCORE>
-8.59227

>  <SCORE.INTER>
-7.01244

>  <SCORE.INTER.CONST>
1

>  <SCORE.INTER.POLAR>
0

>  <SCORE.INTER.ROT>
3

>  <SCORE.INTER.SOLV>
15.9887

>  <SCORE.INTER.VDW>
-15.6045

>  <SCORE.INTER.norm>
-0.438277

>  <SCORE.INTRA>
-1.57984

>  <SCORE.INTRA.DIHEDRAL>
-1.85726

>  <SCORE.INTRA.DIHEDRAL.0>
2.1318

>  <SCORE.INTRA.POLAR>
0

>  <SCORE.INTRA.POLAR.0>
0

>  <SCORE.INTRA.REPUL>
0

>  <SCORE.INTRA.REPUL.0>
0

>  <SCORE.INTRA.SOLV>
-0.97239

>  <SCORE.INTRA.SOLV.lig_0>
-58.6125

>  <SCORE.INTRA.VDW>
-0.165011

>  <SCORE.INTRA.VDW.0>
-0.432734

>  <SCORE.INTRA.norm>
-0.0987397

>  <SCORE.RESTR>
0

>  <SCORE.RESTR.CAVITY>
0

>  <SCORE.RESTR.norm>
0

>  <SCORE.SYSTEM>
0

>  <SCORE.SYSTEM.CONST>
0

>  <SCORE.SYSTEM.DIHEDRAL>
0

>  <SCORE.SYSTEM.SOLV>
0

>  <SCORE.SYSTEM.norm>
0

>  <SCORE.heavy>
16

>  <SCORE.norm>
-0.537017

>  <RMSD>
20.700

$$$$
ligand
 OpenBabel11021811463D
libRbt.so/2013.1/901 2013/11/27
 16 16  0  0  0  0  0  0  0  0999 V2000
   32.1825    1.5720    7.1684 P   0  0  2  0  0  0  0  0  0  0  0  0
   30.8875    1.9169    7.8051 O   0  0  0  0  0  0  0  0  0  0  0  0
   33.0123    2.9188    6.8749 O   0  5  0  0  0  0  0  0  0  0  0  0
   31.8966    0.8202    5.7711 O   0  0  0  0  0  0  0  0  0  0  0  0
   34.7464   -2.8244    9.7748 C   0  0  2  0  0  0  0  0  0  0  0  0
   35.2597   -2.1175   10.9099 O   0  0  0  0  0  0  0  0  0  0  0  0
   35.8893   -3.5496    9.0186 C   0  0  2  0  0  0  0  0  0  0  0  0
   36.5725   -4.4885    9.9288 N   0  0  0  0  0  0  0  0  0  0  0  0
   36.8849   -2.4949    8.5068 C   0  0  1  0  0  0  0  0  0  0  0  0
   37.9461   -3.1279    7.7869 O   0  0  0  0  0  0  0  0  0  0  0  0
   36.1293   -1.5495    7.5746 C   0  0  2  0  0  0  0  0  0  0  0  0
   37.0323   -0.5633    7.0912 O   0  0  0  0  0  0  0  0  0  0  0  0
   34.9800   -0.8749    8.3724 C   0  0  2  0  0  0  0  0  0  0  0  0
   34.0611   -1.8852    8.8903 O   0  0  0  0  0  0  0  0  0  0  0  0
   34.1781    0.0905    7.4648 C   0  0  0  0  0  0  0  0  0  0  0  0
   33.0310    0.6118    8.1603 O   0  0  0  0  0  0  0  0  0  0  0  0
  1  2  1  1  0  0  0
  1  3  1  0  0  0  0
  1  4  2  0  0  0  0
  1 16  1  0  0  0  0
  5  6  1  1  0  0  0
  5  7  1  0  0  0  0
  5 14  1  0  0  0  0
  7  8  1  1  0  0  0
  7  9  1  0  0  0  0
  9 10  1  6  0  0  0
  9 11  1  0  0  0  0
 11 12  1  1  0  0  0
 11 13  1  0  0  0  0
 13 14  1  0  0  0  0
 13 15  1  6  0  0  0
 15 16  1  0  0  0  0
M  CHG  1   3  -1
M  END
>  <CHROM.1>
174.06484659,-177.83954238,170.28161438,34.44669500,-0.72492851,8.09783178
2.37387813,0.44052052,-0.80366131

>  <Name>
ligand

>  <RI>
0

>  <Rbt.Current_Directory>
/home/itssahil/PROJECTS/Mol_Feturizer/New_Systems/rnas/3B4C

>  <Rbt.Executable>
rbdock ($Id: //depot/dev/client3/rdock/2013.1/src/exe/rbdock.cxx#4 $)

>  <Rbt.Library>
libRbt.so (2013.1, Build901 2013/11/27)

>  <Rbt.Parameter_File>
/export/apps/rDock/src/rDock_2013.1_src/data/scripts/dock_solv.prm

>  <Rbt.Receptor>
prm/blind_docking_40.prm

>  <SCORE>
-8.94575

>  <SCORE.INTER>
-7.68586

>  <SCORE.INTER.CONST>
1

>  <SCORE.INTER.POLAR>
0

>  <SCORE.INTER.ROT>
3

>  <SCORE.INTER.SOLV>
15.0852

>  <SCORE.INTER.VDW>
-15.7523

>  <SCORE.INTER.norm>
-0.480366

>  <SCORE.INTRA>
-1.25989

>  <SCORE.INTRA.DIHEDRAL>
-1.83257

>  <SCORE.INTRA.DIHEDRAL.0>
2.1318

>  <SCORE.INTRA.POLAR>
0

>  <SCORE.INTRA.POLAR.0>
0

>  <SCORE.INTRA.REPUL>
0

>  <SCORE.INTRA.REPUL.0>
0

>  <SCORE.INTRA.SOLV>
-0.353762

>  <SCORE.INTRA.SOLV.lig_0>
-58.6125

>  <SCORE.INTRA.VDW>
-0.166725

>  <SCORE.INTRA.VDW.0>
-0.432734

>  <SCORE.INTRA.norm>
-0.0787431

>  <SCORE.RESTR>
0

>  <SCORE.RESTR.CAVITY>
0

>  <SCORE.RESTR.norm>
0

>  <SCORE.SYSTEM>
0

>  <SCORE.SYSTEM.CONST>
0

>  <SCORE.SYSTEM.DIHEDRAL>
0

>  <SCORE.SYSTEM.SOLV>
0

>  <SCORE.SYSTEM.norm>
0

>  <SCORE.heavy>
16

>  <SCORE.norm>
-0.559109

>  <RMSD>
20.704

$$$$
ligand
 OpenBabel11021811463D
libRbt.so/2013.1/901 2013/11/27
 16 16  0  0  0  0  0  0  0  0999 V2000
   32.2270    1.5147    7.1722 P   0  0  2  0  0  0  0  0  0  0  0  0
   31.7030    0.6422    6.0926 O   0  0  0  0  0  0  0  0  0  0  0  0
   30.9980    2.1502    7.9934 O   0  5  0  0  0  0  0  0  0  0  0  0
   33.0863    2.7084    6.5117 O   0  0  0  0  0  0  0  0  0  0  0  0
   34.8499   -2.8722    9.7129 C   0  0  2  0  0  0  0  0  0  0  0  0
   35.3736   -2.1711   10.8469 O   0  0  0  0  0  0  0  0  0  0  0  0
   35.9867   -3.5881    8.9388 C   0  0  2  0  0  0  0  0  0  0  0  0
   36.6835   -4.5307    9.8348 N   0  0  0  0  0  0  0  0  0  0  0  0
   36.9726   -2.5264    8.4229 C   0  0  1  0  0  0  0  0  0  0  0  0
   38.0278   -3.1506    7.6866 O   0  0  0  0  0  0  0  0  0  0  0  0
   36.2030   -1.5774    7.5059 C   0  0  2  0  0  0  0  0  0  0  0  0
   37.0970   -0.5847    7.0189 O   0  0  0  0  0  0  0  0  0  0  0  0
   35.0606   -0.9124    8.3212 C   0  0  2  0  0  0  0  0  0  0  0  0
   34.1513   -1.9295    8.8427 O   0  0  0  0  0  0  0  0  0  0  0  0
   34.2450    0.0562    7.4295 C   0  0  0  0  0  0  0  0  0  0  0  0
   33.1560    0.6380    8.1692 O   0  0  0  0  0  0  0  0  0  0  0  0
  1  2  1  6  0  0  0
  1  3  1  0  0  0  0
  1  4  2  0  0  0  0
  1 16  1  0  0  0  0
  5  6  1  1  0  0  0
  5  7  1  0  0  0  0
  5 14  1  0  0  0  0
  7  8  1  1  0  0  0
  7  9  1  0  0  0  0
  9 10  1  6  0  0  0
  9 11  1  0  0  0  0
 11 12  1  1  0  0  0
 11 13  1  0  0  0  0
 13 14  1  0  0  0  0
 13 15  1  6  0  0  0
 15 16  1  0  0  0  0
M  CHG  1   3  -1
M  END
>  <CHROM.1>
177.94035768,-173.75542989,59.10609184,34.51453467,-0.76286670,8.06516566
2.39262462,0.44532411,-0.79850201

>  <Name>
ligand

>  <RI>
0

>  <Rbt.Current_Directory>
/home/itssahil/PROJECTS/Mol_Feturizer/New_Systems/rnas/3B4C

>  <Rbt.Executable>
rbdock ($Id: //depot/dev/client3/rdock/2013.1/src/exe/rbdock.cxx#4 $)

>  <Rbt.Library>
libRbt.so (2013.1, Build901 2013/11/27)

>  <Rbt.Parameter_File>
/export/apps/rDock/src/rDock_2013.1_src/data/scripts/dock_solv.prm

>  <Rbt.Receptor>
prm/blind_docking_80.prm

>  <SCORE>
-8.51508

>  <SCORE.INTER>
-6.91147

>  <SCORE.INTER.CONST>
1

>  <SCORE.INTER.POLAR>
0

>  <SCORE.INTER.ROT>
3

>  <SCORE.INTER.SOLV>
16.816

>  <SCORE.INTER.VDW>
-15.813

>  <SCORE.INTER.norm>
-0.431967

>  <SCORE.INTRA>
-1.60361

>  <SCORE.INTRA.DIHEDRAL>
-1.92285

>  <SCORE.INTRA.DIHEDRAL.0>
2.1318

>  <SCORE.INTRA.POLAR>
0

>  <SCORE.INTRA.POLAR.0>
0

>  <SCORE.INTRA.REPUL>
0

>  <SCORE.INTRA.REPUL.0>
0

>  <SCORE.INTRA.SOLV>
-1.014

>  <SCORE.INTRA.SOLV.lig_0>
-58.6125

>  <SCORE.INTRA.VDW>
-0.135184

>  <SCORE.INTRA.VDW.0>
-0.432734

>  <SCORE.INTRA.norm>
-0.100225

>  <SCORE.RESTR>
0

>  <SCORE.RESTR.CAVITY>
0

>  <SCORE.RESTR.norm>
0

>  <SCORE.SYSTEM>
0

>  <SCORE.SYSTEM.CONST>
0

>  <SCORE.SYSTEM.DIHEDRAL>
0

>  <SCORE.SYSTEM.SOLV>
0

>  <SCORE.SYSTEM.norm>
0

>  <SCORE.heavy>
16

>  <SCORE.norm>
-0.532192

>  <RMSD>
20.709

$$$$
ligand
 OpenBabel11021811463D
libRbt.so/2013.1/901 2013/11/27
 16 16  0  0  0  0  0  0  0  0999 V2000
   31.8238    7.8212    7.9610 P   0  0  2  0  0  0  0  0  0  0  0  0
   30.4868    8.2895    7.5201 O   0  0  0  0  0  0  0  0  0  0  0  0
   31.7633    7.4095    9.5152 O   0  5  0  0  0  0  0  0  0  0  0  0
   32.8861    9.0205    7.7797 O   0  0  0  0  0  0  0  0  0  0  0  0
   31.5536    3.7287    3.9412 C   0  0  2  0  0  0  0  0  0  0  0  0
   32.5586    2.8786    4.5060 O   0  0  0  0  0  0  0  0  0  0  0  0
   31.9163    4.1116    2.4831 C   0  0  2  0  0  0  0  0  0  0  0  0
   32.0583    2.8905    1.6674 N   0  0  0  0  0  0  0  0  0  0  0  0
   33.2414    4.8922    2.4965 C   0  0  1  0  0  0  0  0  0  0  0  0
   33.5989    5.2783    1.1667 O   0  0  0  0  0  0  0  0  0  0  0  0
   33.0420    6.1408    3.3539 C   0  0  2  0  0  0  0  0  0  0  0  0
   34.2581    6.8771    3.3816 O   0  0  0  0  0  0  0  0  0  0  0  0
   32.6514    5.7020    4.7916 C   0  0  2  0  0  0  0  0  0  0  0  0
   31.4142    4.9260    4.7665 O   0  0  0  0  0  0  0  0  0  0  0  0
   32.4309    6.9374    5.6992 C   0  0  0  0  0  0  0  0  0  0  0  0
   32.2652    6.5400    7.0725 O   0  0  0  0  0  0  0  0  0  0  0  0
  1  2  1  6  0  0  0
  1  3  1  0  0  0  0
  1  4  2  0  0  0  0
  1 16  1  0  0  0  0
  5  6  1  1  0  0  0
  5  7  1  0  0  0  0
  5 14  1  0  0  0  0
  7  8  1  6  0  0  0
  7  9  1  0  0  0  0
  9 10  1  6  0  0  0
  9 11  1  0  0  0  0
 11 12  1  1  0  0  0
 11 13  1  0  0  0  0
 13 14  1  0  0  0  0
 13 15  1  1  0  0  0
 15 16  1  0  0  0  0
M  CHG  1   3  -1
M  END
>  <CHROM.1>
-171.44894656,-171.81097130,64.77334147,32.33481935,6.02733961,5.17010501
1.79973498,0.98050748,0.79943030

>  <Name>
ligand

>  <RI>
0

>  <Rbt.Current_Directory>
/home/itssahil/PROJECTS/Mol_Feturizer/New_Systems/rnas/3B4C

>  <Rbt.Executable>
rbdock ($Id: //depot/dev/client3/rdock/2013.1/src/exe/rbdock.cxx#4 $)

>  <Rbt.Library>
libRbt.so (2013.1, Build901 2013/11/27)

>  <Rbt.Parameter_File>
/export/apps/rDock/src/rDock_2013.1_src/data/scripts/dock_solv.prm

>  <Rbt.Receptor>
prm/blind_docking_40.prm

>  <SCORE>
-8.94433

>  <SCORE.INTER>
-7.52356

>  <SCORE.INTER.CONST>
1

>  <SCORE.INTER.POLAR>
0

>  <SCORE.INTER.ROT>
3

>  <SCORE.INTER.SOLV>
10.8188

>  <SCORE.INTER.VDW>
-14.222

>  <SCORE.INTER.norm>
-0.470223

>  <SCORE.INTRA>
-1.42076

>  <SCORE.INTRA.DIHEDRAL>
-1.50198

>  <SCORE.INTRA.DIHEDRAL.0>
2.1318

>  <SCORE.INTRA.POLAR>
0

>  <SCORE.INTRA.POLAR.0>
0

>  <SCORE.INTRA.REPUL>
0

>  <SCORE.INTRA.REPUL.0>
0

>  <SCORE.INTRA.SOLV>
-0.985197

>  <SCORE.INTRA.SOLV.lig_0>
-58.6125

>  <SCORE.INTRA.VDW>
-0.177174

>  <SCORE.INTRA.VDW.0>
-0.432734

>  <SCORE.INTRA.norm>
-0.0887977

>  <SCORE.RESTR>
0

>  <SCORE.RESTR.CAVITY>
0

>  <SCORE.RESTR.norm>
0

>  <SCORE.SYSTEM>
0

>  <SCORE.SYSTEM.CONST>
0

>  <SCORE.SYSTEM.DIHEDRAL>
0

>  <SCORE.SYSTEM.SOLV>
0

>  <SCORE.SYSTEM.norm>
0

>  <SCORE.heavy>
16

>  <SCORE.norm>
-0.55902

>  <RMSD>
20.755

$$$$
ligand
 OpenBabel11021811463D
libRbt.so/2013.1/901 2013/11/27
 16 16  0  0  0  0  0  0  0  0999 V2000
   31.8391    7.7785    7.9259 P   0  0  2  0  0  0  0  0  0  0  0  0
   30.4785    8.2021    7.5128 O   0  0  0  0  0  0  0  0  0  0  0  0
   31.8247    7.3670    9.4813 O   0  5  0  0  0  0  0  0  0  0  0  0
   32.8574    9.0118    7.7217 O   0  0  0  0  0  0  0  0  0  0  0  0
   31.6550    3.6537    3.9280 C   0  0  2  0  0  0  0  0  0  0  0  0
   32.7146    2.8565    4.4699 O   0  0  0  0  0  0  0  0  0  0  0  0
   31.9612    4.0466    2.4597 C   0  0  2  0  0  0  0  0  0  0  0  0
   32.1419    2.8298    1.6451 N   0  0  0  0  0  0  0  0  0  0  0  0
   33.2464    4.8911    2.4360 C   0  0  1  0  0  0  0  0  0  0  0  0
   33.5504    5.2876    1.0960 O   0  0  0  0  0  0  0  0  0  0  0  0
   33.0081    6.1327    3.2936 C   0  0  2  0  0  0  0  0  0  0  0  0
   34.1869    6.9277    3.2873 O   0  0  0  0  0  0  0  0  0  0  0  0
   32.6763    5.6824    4.7425 C   0  0  2  0  0  0  0  0  0  0  0  0
   31.4784    4.8469    4.7523 O   0  0  0  0  0  0  0  0  0  0  0  0
   32.4188    6.9101    5.6509 C   0  0  0  0  0  0  0  0  0  0  0  0
   32.3037    6.5114    7.0291 O   0  0  0  0  0  0  0  0  0  0  0  0
  1  2  1  6  0  0  0
  1  3  1  0  0  0  0
  1  4  2  0  0  0  0
  1 16  1  0  0  0  0
  5  6  1  1  0  0  0
  5  7  1  0  0  0  0
  5 14  1  0  0  0  0
  7  8  1  6  0  0  0
  7  9  1  0  0  0  0
  9 10  1  6  0  0  0
  9 11  1  0  0  0  0
 11 12  1  1  0  0  0
 11 13  1  0  0  0  0
 13 14  1  0  0  0  0
 13 15  1  1  0  0  0
 15 16  1  0  0  0  0
M  CHG  1   3  -1
M  END
>  <CHROM.1>
-171.63289555,-172.43983772,64.39040739,32.35839670,5.99525675,5.12850357
1.82675913,1.03360628,0.77179786

>  <Name>
ligand

>  <RI>
0

>  <Rbt.Current_Directory>
/home/itssahil/PROJECTS/Mol_Feturizer/New_Systems/rnas/3B4C

>  <Rbt.Executable>
rbdock ($Id: //depot/dev/client3/rdock/2013.1/src/exe/rbdock.cxx#4 $)

>  <Rbt.Library>
libRbt.so (2013.1, Build901 2013/11/27)

>  <Rbt.Parameter_File>
/export/apps/rDock/src/rDock_2013.1_src/data/scripts/dock_solv.prm

>  <Rbt.Receptor>
prm/blind_docking_40.prm

>  <SCORE>
-8.92562

>  <SCORE.INTER>
-7.47135

>  <SCORE.INTER.CONST>
1

>  <SCORE.INTER.POLAR>
0

>  <SCORE.INTER.ROT>
3

>  <SCORE.INTER.SOLV>
10.4932

>  <SCORE.INTER.VDW>
-14.0786

>  <SCORE.INTER.norm>
-0.466959

>  <SCORE.INTRA>
-1.45427

>  <SCORE.INTRA.DIHEDRAL>
-1.56625

>  <SCORE.INTRA.DIHEDRAL.0>
2.1318

>  <SCORE.INTRA.POLAR>
0

>  <SCORE.INTRA.POLAR.0>
0

>  <SCORE.INTRA.REPUL>
0

>  <SCORE.INTRA.REPUL.0>
0

>  <SCORE.INTRA.SOLV>
-0.990499

>  <SCORE.INTRA.SOLV.lig_0>
-58.6125

>  <SCORE.INTRA.VDW>
-0.1759

>  <SCORE.INTRA.VDW.0>
-0.432734

>  <SCORE.INTRA.norm>
-0.0908921

>  <SCORE.RESTR>
0

>  <SCORE.RESTR.CAVITY>
0

>  <SCORE.RESTR.norm>
0

>  <SCORE.SYSTEM>
0

>  <SCORE.SYSTEM.CONST>
0

>  <SCORE.SYSTEM.DIHEDRAL>
0

>  <SCORE.SYSTEM.SOLV>
0

>  <SCORE.SYSTEM.norm>
0

>  <SCORE.heavy>
16

>  <SCORE.norm>
-0.557851

>  <RMSD>
20.766

$$$$
ligand
 OpenBabel11021811463D
libRbt.so/2013.1/901 2013/11/27
 16 16  0  0  0  0  0  0  0  0999 V2000
   31.8548    8.6620    6.5876 P   0  0  2  0  0  0  0  0  0  0  0  0
   33.0843    9.4420    6.3028 O   0  0  0  0  0  0  0  0  0  0  0  0
   30.5655    9.6088    6.4135 O   0  5  0  0  0  0  0  0  0  0  0  0
   31.9108    8.1310    8.1089 O   0  0  0  0  0  0  0  0  0  0  0  0
   31.5021    3.5363    3.8250 C   0  0  2  0  0  0  0  0  0  0  0  0
   32.4695    2.5505    4.2048 O   0  0  0  0  0  0  0  0  0  0  0  0
   31.8097    4.0887    2.4093 C   0  0  2  0  0  0  0  0  0  0  0  0
   31.8113    2.9834    1.4321 N   0  0  0  0  0  0  0  0  0  0  0  0
   33.1893    4.7679    2.4373 C   0  0  1  0  0  0  0  0  0  0  0  0
   33.4993    5.3065    1.1492 O   0  0  0  0  0  0  0  0  0  0  0  0
   33.1351    5.8987    3.4632 C   0  0  2  0  0  0  0  0  0  0  0  0
   34.4036    6.5396    3.5068 O   0  0  0  0  0  0  0  0  0  0  0  0
   32.7943    5.2956    4.8532 C   0  0  2  0  0  0  0  0  0  0  0  0
   31.5019    4.6166    4.8084 O   0  0  0  0  0  0  0  0  0  0  0  0
   32.7208    6.4079    5.9284 C   0  0  0  0  0  0  0  0  0  0  0  0
   31.7594    7.4134    5.5593 O   0  0  0  0  0  0  0  0  0  0  0  0
  1  2  1  6  0  0  0
  1  3  1  0  0  0  0
  1  4  2  0  0  0  0
  1 16  1  0  0  0  0
  5  6  1  1  0  0  0
  5  7  1  0  0  0  0
  5 14  1  0  0  0  0
  7  8  1  6  0  0  0
  7  9  1  0  0  0  0
  9 10  1  6  0  0  0
  9 11  1  0  0  0  0
 11 12  1  1  0  0  0
 11 13  1  0  0  0  0
 13 14  1  0  0  0  0
 13 15  1  1  0  0  0
 15 16  1  0  0  0  0
M  CHG  1   3  -1
M  END
>  <CHROM.1>
56.74512056,-171.98827286,73.74082438,32.34002692,6.20693658,4.63815026,-1.74773935
-0.98635223,-2.58135787

>  <Name>
ligand

>  <RI>
0

>  <Rbt.Current_Directory>
/home/itssahil/PROJECTS/Mol_Feturizer/New_Systems/rnas/3B4C

>  <Rbt.Executable>
rbdock ($Id: //depot/dev/client3/rdock/2013.1/src/exe/rbdock.cxx#4 $)

>  <Rbt.Library>
libRbt.so (2013.1, Build901 2013/11/27)

>  <Rbt.Parameter_File>
/export/apps/rDock/src/rDock_2013.1_src/data/scripts/dock_solv.prm

>  <Rbt.Receptor>
prm/blind_docking_40.prm

>  <SCORE>
-8.20045

>  <SCORE.INTER>
-6.88091

>  <SCORE.INTER.CONST>
1

>  <SCORE.INTER.POLAR>
0

>  <SCORE.INTER.ROT>
3

>  <SCORE.INTER.SOLV>
9.89726

>  <SCORE.INTER.VDW>
-13.4864

>  <SCORE.INTER.norm>
-0.430057

>  <SCORE.INTRA>
-1.31954

>  <SCORE.INTRA.DIHEDRAL>
-1.47888

>  <SCORE.INTRA.DIHEDRAL.0>
2.1318

>  <SCORE.INTRA.POLAR>
0

>  <SCORE.INTRA.POLAR.0>
0

>  <SCORE.INTRA.REPUL>
0

>  <SCORE.INTRA.REPUL.0>
0

>  <SCORE.INTRA.SOLV>
-0.694411

>  <SCORE.INTRA.SOLV.lig_0>
-58.6125

>  <SCORE.INTRA.VDW>
-0.232897

>  <SCORE.INTRA.VDW.0>
-0.432734

>  <SCORE.INTRA.norm>
-0.0824714

>  <SCORE.RESTR>
0

>  <SCORE.RESTR.CAVITY>
0

>  <SCORE.RESTR.norm>
0

>  <SCORE.SYSTEM>
0

>  <SCORE.SYSTEM.CONST>
0

>  <SCORE.SYSTEM.DIHEDRAL>
0

>  <SCORE.SYSTEM.SOLV>
0

>  <SCORE.SYSTEM.norm>
0

>  <SCORE.heavy>
16

>  <SCORE.norm>
-0.512528

>  <RMSD>
20.923

$$$$
ligand
 OpenBabel11021811463D
libRbt.so/2013.1/901 2013/11/27
 16 16  0  0  0  0  0  0  0  0999 V2000
   31.2872    8.7002    6.9835 P   0  0  2  0  0  0  0  0  0  0  0  0
   30.1035    9.0851    6.1760 O   0  0  0  0  0  0  0  0  0  0  0  0
   30.9050    8.7321    8.5461 O   0  5  0  0  0  0  0  0  0  0  0  0
   32.4729    9.7592    6.7145 O   0  0  0  0  0  0  0  0  0  0  0  0
   31.5560    3.6139    4.4365 C   0  0  2  0  0  0  0  0  0  0  0  0
   32.5343    2.9974    5.2819 O   0  0  0  0  0  0  0  0  0  0  0  0
   32.0053    3.5657    2.9534 C   0  0  2  0  0  0  0  0  0  0  0  0
   32.2148    2.1647    2.5409 N   0  0  0  0  0  0  0  0  0  0  0  0
   33.3165    4.3572    2.8124 C   0  0  1  0  0  0  0  0  0  0  0  0
   33.7524    4.3494    1.4504 O   0  0  0  0  0  0  0  0  0  0  0  0
   33.0467    5.7948    3.2533 C   0  0  2  0  0  0  0  0  0  0  0  0
   34.2488    6.5447    3.1329 O   0  0  0  0  0  0  0  0  0  0  0  0
   32.5716    5.7826    4.7319 C   0  0  2  0  0  0  0  0  0  0  0  0
   31.3488    4.9950    4.8653 O   0  0  0  0  0  0  0  0  0  0  0  0
   32.2777    7.2216    5.2234 C   0  0  0  0  0  0  0  0  0  0  0  0
   31.7609    7.2077    6.5666 O   0  0  0  0  0  0  0  0  0  0  0  0
  1  2  1  6  0  0  0
  1  3  1  0  0  0  0
  1  4  2  0  0  0  0
  1 16  1  0  0  0  0
  5  6  1  1  0  0  0
  5  7  1  0  0  0  0
  5 14  1  0  0  0  0
  7  8  1  1  0  0  0
  7  9  1  0  0  0  0
  9 10  1  6  0  0  0
  9 11  1  0  0  0  0
 11 12  1  1  0  0  0
 11 13  1  0  0  0  0
 13 14  1  0  0  0  0
 13 15  1  6  0  0  0
 15 16  1  0  0  0  0
M  CHG  1   3  -1
M  END
>  <CHROM.1>
176.54703988,-172.82907556,67.80213190,32.14022040,6.19093329,4.94119082
1.94926099,0.92058400,0.37292744

>  <Name>
ligand

>  <RI>
0

>  <Rbt.Current_Directory>
/home/itssahil/PROJECTS/Mol_Feturizer/New_Systems/rnas/3B4C

>  <Rbt.Executable>
rbdock ($Id: //depot/dev/client3/rdock/2013.1/src/exe/rbdock.cxx#4 $)

>  <Rbt.Library>
libRbt.so (2013.1, Build901 2013/11/27)

>  <Rbt.Parameter_File>
/export/apps/rDock/src/rDock_2013.1_src/data/scripts/dock_solv.prm

>  <Rbt.Receptor>
prm/blind_docking_80.prm

>  <SCORE>
-8.92545

>  <SCORE.INTER>
-7.45238

>  <SCORE.INTER.CONST>
1

>  <SCORE.INTER.POLAR>
0

>  <SCORE.INTER.ROT>
3

>  <SCORE.INTER.SOLV>
8.37623

>  <SCORE.INTER.VDW>
-13.3603

>  <SCORE.INTER.norm>
-0.465774

>  <SCORE.INTRA>
-1.47307

>  <SCORE.INTRA.DIHEDRAL>
-1.73564

>  <SCORE.INTRA.DIHEDRAL.0>
2.1318

>  <SCORE.INTRA.POLAR>
0

>  <SCORE.INTRA.POLAR.0>
0

>  <SCORE.INTRA.REPUL>
0

>  <SCORE.INTRA.REPUL.0>
0

>  <SCORE.INTRA.SOLV>
-0.920335

>  <SCORE.INTRA.SOLV.lig_0>
-58.6125

>  <SCORE.INTRA.VDW>
-0.145078

>  <SCORE.INTRA.VDW.0>
-0.432734

>  <SCORE.INTRA.norm>
-0.0920667

>  <SCORE.RESTR>
0

>  <SCORE.RESTR.CAVITY>
0

>  <SCORE.RESTR.norm>
0

>  <SCORE.SYSTEM>
0

>  <SCORE.SYSTEM.CONST>
0

>  <SCORE.SYSTEM.DIHEDRAL>
0

>  <SCORE.SYSTEM.SOLV>
0

>  <SCORE.SYSTEM.norm>
0

>  <SCORE.heavy>
16

>  <SCORE.norm>
-0.55784

>  <RMSD>
20.953

$$$$
ligand
 OpenBabel11021811463D
libRbt.so/2013.1/901 2013/11/27
 16 16  0  0  0  0  0  0  0  0999 V2000
   31.4059    8.7520    6.5651 P   0  0  2  0  0  0  0  0  0  0  0  0
   30.6886    9.3062    5.3904 O   0  0  0  0  0  0  0  0  0  0  0  0
   30.5739    9.0747    7.9039 O   0  5  0  0  0  0  0  0  0  0  0  0
   32.8561    9.4486    6.6711 O   0  0  0  0  0  0  0  0  0  0  0  0
   31.1309    3.3543    4.6406 C   0  0  2  0  0  0  0  0  0  0  0  0
   31.6998    2.7208    5.7924 O   0  0  0  0  0  0  0  0  0  0  0  0
   31.9359    2.9961    3.3648 C   0  0  2  0  0  0  0  0  0  0  0  0
   31.9495    1.5326    3.1782 N   0  0  0  0  0  0  0  0  0  0  0  0
   33.3730    3.5188    3.5291 C   0  0  1  0  0  0  0  0  0  0  0  0
   34.1418    3.2212    2.3605 O   0  0  0  0  0  0  0  0  0  0  0  0
   33.3027    5.0327    3.7214 C   0  0  2  0  0  0  0  0  0  0  0  0
   34.6229    5.5370    3.8779 O   0  0  0  0  0  0  0  0  0  0  0  0
   32.4620    5.3360    4.9916 C   0  0  2  0  0  0  0  0  0  0  0  0
   31.1109    4.8006    4.8454 O   0  0  0  0  0  0  0  0  0  0  0  0
   32.3559    6.8634    5.2250 C   0  0  0  0  0  0  0  0  0  0  0  0
   31.5635    7.1486    6.3921 O   0  0  0  0  0  0  0  0  0  0  0  0
  1  2  1  6  0  0  0
  1  3  1  0  0  0  0
  1  4  2  0  0  0  0
  1 16  1  0  0  0  0
  5  6  1  1  0  0  0
  5  7  1  0  0  0  0
  5 14  1  0  0  0  0
  7  8  1  1  0  0  0
  7  9  1  0  0  0  0
  9 10  1  6  0  0  0
  9 11  1  0  0  0  0
 11 12  1  1  0  0  0
 11 13  1  0  0  0  0
 13 14  1  0  0  0  0
 13 15  1  6  0  0  0
 15 16  1  0  0  0  0
M  CHG  1   3  -1
M  END
>  <CHROM.1>
179.28673383,-177.03748442,62.25991790,32.13765470,5.84056003,5.06339028
1.80344535,0.59657924,0.34836294

>  <Name>
ligand

>  <RI>
0

>  <Rbt.Current_Directory>
/home/itssahil/PROJECTS/Mol_Feturizer/New_Systems/rnas/3B4C

>  <Rbt.Executable>
rbdock ($Id: //depot/dev/client3/rdock/2013.1/src/exe/rbdock.cxx#4 $)

>  <Rbt.Library>
libRbt.so (2013.1, Build901 2013/11/27)

>  <Rbt.Parameter_File>
/export/apps/rDock/src/rDock_2013.1_src/data/scripts/dock_solv.prm

>  <Rbt.Receptor>
prm/blind_docking_40.prm

>  <SCORE>
-8.89305

>  <SCORE.INTER>
-7.20884

>  <SCORE.INTER.CONST>
1

>  <SCORE.INTER.POLAR>
0

>  <SCORE.INTER.ROT>
3

>  <SCORE.INTER.SOLV>
9.83872

>  <SCORE.INTER.VDW>
-13.6855

>  <SCORE.INTER.norm>
-0.450553

>  <SCORE.INTRA>
-1.68421

>  <SCORE.INTRA.DIHEDRAL>
-2.07538

>  <SCORE.INTRA.DIHEDRAL.0>
2.1318

>  <SCORE.INTRA.POLAR>
0

>  <SCORE.INTRA.POLAR.0>
0

>  <SCORE.INTRA.REPUL>
0

>  <SCORE.INTRA.REPUL.0>
0

>  <SCORE.INTRA.SOLV>
-0.992758

>  <SCORE.INTRA.SOLV.lig_0>
-58.6125

>  <SCORE.INTRA.VDW>
-0.15014

>  <SCORE.INTRA.VDW.0>
-0.432734

>  <SCORE.INTRA.norm>
-0.105263

>  <SCORE.RESTR>
0

>  <SCORE.RESTR.CAVITY>
0

>  <SCORE.RESTR.norm>
0

>  <SCORE.SYSTEM>
0

>  <SCORE.SYSTEM.CONST>
0

>  <SCORE.SYSTEM.DIHEDRAL>
0

>  <SCORE.SYSTEM.SOLV>
0

>  <SCORE.SYSTEM.norm>
0

>  <SCORE.heavy>
16

>  <SCORE.norm>
-0.555816

>  <RMSD>
20.973

$$$$
ligand
 OpenBabel11021811463D
libRbt.so/2013.1/901 2013/11/27
 16 16  0  0  0  0  0  0  0  0999 V2000
   31.2459    8.6440    7.0020 P   0  0  2  0  0  0  0  0  0  0  0  0
   30.1014    9.0517    6.1505 O   0  0  0  0  0  0  0  0  0  0  0  0
   30.8046    8.6805    8.5488 O   0  5  0  0  0  0  0  0  0  0  0  0
   32.4602    9.6815    6.7811 O   0  0  0  0  0  0  0  0  0  0  0  0
   31.4145    3.5859    4.3992 C   0  0  2  0  0  0  0  0  0  0  0  0
   32.3170    2.9150    5.2865 O   0  0  0  0  0  0  0  0  0  0  0  0
   31.9393    3.5328    2.9411 C   0  0  2  0  0  0  0  0  0  0  0  0
   32.1053    2.1281    2.5216 N   0  0  0  0  0  0  0  0  0  0  0  0
   33.2913    4.2633    2.8799 C   0  0  1  0  0  0  0  0  0  0  0  0
   33.7982    4.2499    1.5427 O   0  0  0  0  0  0  0  0  0  0  0  0
   33.0654    5.7071    3.3251 C   0  0  2  0  0  0  0  0  0  0  0  0
   34.3055    6.4011    3.2781 O   0  0  0  0  0  0  0  0  0  0  0  0
   32.5123    5.7012    4.7764 C   0  0  2  0  0  0  0  0  0  0  0  0
   31.2490    4.9704    4.8348 O   0  0  0  0  0  0  0  0  0  0  0  0
   32.2596    7.1470    5.2709 C   0  0  0  0  0  0  0  0  0  0  0  0
   31.7080    7.1438    6.6002 O   0  0  0  0  0  0  0  0  0  0  0  0
  1  2  1  6  0  0  0
  1  3  1  0  0  0  0
  1  4  2  0  0  0  0
  1 16  1  0  0  0  0
  5  6  1  1  0  0  0
  5  7  1  0  0  0  0
  5 14  1  0  0  0  0
  7  8  1  1  0  0  0
  7  9  1  0  0  0  0
  9 10  1  6  0  0  0
  9 11  1  0  0  0  0
 11 12  1  1  0  0  0
 11 13  1  0  0  0  0
 13 14  1  0  0  0  0
 13 15  1  6  0  0  0
 15 16  1  0  0  0  0
M  CHG  1   3  -1
M  END
>  <CHROM.1>
178.21294067,-171.43867577,67.02781979,32.08965228,6.12451146,4.97030054
1.91387236,0.85477388,0.41376202

>  <Name>
ligand

>  <RI>
0

>  <Rbt.Current_Directory>
/home/itssahil/PROJECTS/Mol_Feturizer/New_Systems/rnas/3B4C

>  <Rbt.Executable>
rbdock ($Id: //depot/dev/client3/rdock/2013.1/src/exe/rbdock.cxx#4 $)

>  <Rbt.Library>
libRbt.so (2013.1, Build901 2013/11/27)

>  <Rbt.Parameter_File>
/export/apps/rDock/src/rDock_2013.1_src/data/scripts/dock_solv.prm

>  <Rbt.Receptor>
prm/blind_docking_40.prm

>  <SCORE>
-8.99442

>  <SCORE.INTER>
-7.53377

>  <SCORE.INTER.CONST>
1

>  <SCORE.INTER.POLAR>
0

>  <SCORE.INTER.ROT>
3

>  <SCORE.INTER.SOLV>
9.17606

>  <SCORE.INTER.VDW>
-13.6812

>  <SCORE.INTER.norm>
-0.470861

>  <SCORE.INTRA>
-1.46065

>  <SCORE.INTRA.DIHEDRAL>
-1.68028

>  <SCORE.INTRA.DIHEDRAL.0>
2.1318

>  <SCORE.INTRA.POLAR>
0

>  <SCORE.INTRA.POLAR.0>
0

>  <SCORE.INTRA.REPUL>
0

>  <SCORE.INTRA.REPUL.0>
0

>  <SCORE.INTRA.SOLV>
-0.929207

>  <SCORE.INTRA.SOLV.lig_0>
-58.6125

>  <SCORE.INTRA.VDW>
-0.155907

>  <SCORE.INTRA.VDW.0>
-0.432734

>  <SCORE.INTRA.norm>
-0.0912907

>  <SCORE.RESTR>
0

>  <SCORE.RESTR.CAVITY>
0

>  <SCORE.RESTR.norm>
0

>  <SCORE.SYSTEM>
0

>  <SCORE.SYSTEM.CONST>
0

>  <SCORE.SYSTEM.DIHEDRAL>
0

>  <SCORE.SYSTEM.SOLV>
0

>  <SCORE.SYSTEM.norm>
0

>  <SCORE.heavy>
16

>  <SCORE.norm>
-0.562151

>  <RMSD>
20.997

$$$$
ligand
 OpenBabel11021811463D
libRbt.so/2013.1/901 2013/11/27
 16 16  0  0  0  0  0  0  0  0999 V2000
   31.2321    8.6366    7.0063 P   0  0  2  0  0  0  0  0  0  0  0  0
   30.0950    9.0470    6.1461 O   0  0  0  0  0  0  0  0  0  0  0  0
   30.7778    8.6701    8.5494 O   0  5  0  0  0  0  0  0  0  0  0  0
   32.4489    9.6737    6.7978 O   0  0  0  0  0  0  0  0  0  0  0  0
   31.4151    3.5810    4.4023 C   0  0  2  0  0  0  0  0  0  0  0  0
   32.3162    2.9099    5.2908 O   0  0  0  0  0  0  0  0  0  0  0  0
   31.9430    3.5296    2.9453 C   0  0  2  0  0  0  0  0  0  0  0  0
   32.1110    2.1254    2.5249 N   0  0  0  0  0  0  0  0  0  0  0  0
   33.2946    4.2612    2.8875 C   0  0  1  0  0  0  0  0  0  0  0  0
   33.8042    4.2493    1.5514 O   0  0  0  0  0  0  0  0  0  0  0  0
   33.0666    5.7044    3.3336 C   0  0  2  0  0  0  0  0  0  0  0  0
   34.3063    6.3994    3.2898 O   0  0  0  0  0  0  0  0  0  0  0  0
   32.5105    5.6968    4.7837 C   0  0  2  0  0  0  0  0  0  0  0  0
   31.2477    4.9650    4.8388 O   0  0  0  0  0  0  0  0  0  0  0  0
   32.2557    7.1419    5.2790 C   0  0  0  0  0  0  0  0  0  0  0  0
   31.6965    7.1369    6.6051 O   0  0  0  0  0  0  0  0  0  0  0  0
  1  2  1  6  0  0  0
  1  3  1  0  0  0  0
  1  4  2  0  0  0  0
  1 16  1  0  0  0  0
  5  6  1  1  0  0  0
  5  7  1  0  0  0  0
  5 14  1  0  0  0  0
  7  8  1  1  0  0  0
  7  9  1  0  0  0  0
  9 10  1  6  0  0  0
  9 11  1  0  0  0  0
 11 12  1  1  0  0  0
 11 13  1  0  0  0  0
 13 14  1  0  0  0  0
 13 15  1  6  0  0  0
 15 16  1  0  0  0  0
M  CHG  1   3  -1
M  END
>  <CHROM.1>
177.98988956,-171.40968679,66.86182174,32.08515420,6.11956535,4.97600039
1.91736561,0.85257963,0.41177879

>  <Name>
ligand

>  <RI>
0

>  <Rbt.Current_Directory>
/home/itssahil/PROJECTS/Mol_Feturizer/New_Systems/rnas/3B4C

>  <Rbt.Executable>
rbdock ($Id: //depot/dev/client3/rdock/2013.1/src/exe/rbdock.cxx#4 $)

>  <Rbt.Library>
libRbt.so (2013.1, Build901 2013/11/27)

>  <Rbt.Parameter_File>
/export/apps/rDock/src/rDock_2013.1_src/data/scripts/dock_solv.prm

>  <Rbt.Receptor>
prm/blind_docking_60.prm

>  <SCORE>
-9.00447

>  <SCORE.INTER>
-7.54422

>  <SCORE.INTER.CONST>
1

>  <SCORE.INTER.POLAR>
0

>  <SCORE.INTER.ROT>
3

>  <SCORE.INTER.SOLV>
9.2387

>  <SCORE.INTER.VDW>
-13.709

>  <SCORE.INTER.norm>
-0.471514

>  <SCORE.INTRA>
-1.46025

>  <SCORE.INTRA.DIHEDRAL>
-1.67868

>  <SCORE.INTRA.DIHEDRAL.0>
2.1318

>  <SCORE.INTRA.POLAR>
0

>  <SCORE.INTRA.POLAR.0>
0

>  <SCORE.INTRA.REPUL>
0

>  <SCORE.INTRA.REPUL.0>
0

>  <SCORE.INTRA.SOLV>
-0.93012

>  <SCORE.INTRA.SOLV.lig_0>
-58.6125

>  <SCORE.INTRA.VDW>
-0.155847

>  <SCORE.INTRA.VDW.0>
-0.432734

>  <SCORE.INTRA.norm>
-0.0912655

>  <SCORE.RESTR>
0

>  <SCORE.RESTR.CAVITY>
0

>  <SCORE.RESTR.norm>
0

>  <SCORE.SYSTEM>
0

>  <SCORE.SYSTEM.CONST>
0

>  <SCORE.SYSTEM.DIHEDRAL>
0

>  <SCORE.SYSTEM.SOLV>
0

>  <SCORE.SYSTEM.norm>
0

>  <SCORE.heavy>
16

>  <SCORE.norm>
-0.562779

>  <RMSD>
20.999

$$$$
ligand
 OpenBabel11021811463D
libRbt.so/2013.1/901 2013/11/27
 16 16  0  0  0  0  0  0  0  0999 V2000
   34.6524    3.9185   -1.3922 P   0  0  2  0  0  0  0  0  0  0  0  0
   35.9957    3.8423   -2.0175 O   0  0  0  0  0  0  0  0  0  0  0  0
   33.7695    2.6577   -1.8606 O   0  5  0  0  0  0  0  0  0  0  0  0
   33.9247    5.2737   -1.8755 O   0  0  0  0  0  0  0  0  0  0  0  0
   32.4729    5.2857    4.2582 C   0  0  2  0  0  0  0  0  0  0  0  0
   33.3799    6.3825    4.4200 O   0  0  0  0  0  0  0  0  0  0  0  0
   32.9301    4.0679    5.1019 C   0  0  2  0  0  0  0  0  0  0  0  0
   33.0096    4.4487    6.5251 N   0  0  0  0  0  0  0  0  0  0  0  0
   34.3119    3.6153    4.6007 C   0  0  1  0  0  0  0  0  0  0  0  0
   34.7584    2.4795    5.3462 O   0  0  0  0  0  0  0  0  0  0  0  0
   34.1756    3.2364    3.1269 C   0  0  2  0  0  0  0  0  0  0  0  0
   35.4446    2.8165    2.6421 O   0  0  0  0  0  0  0  0  0  0  0  0
   33.6871    4.4799    2.3350 C   0  0  2  0  0  0  0  0  0  0  0  0
   32.3937    4.9292    2.8437 O   0  0  0  0  0  0  0  0  0  0  0  0
   33.5264    4.1423    0.8321 C   0  0  0  0  0  0  0  0  0  0  0  0
   34.8082    3.9083    0.2206 O   0  0  0  0  0  0  0  0  0  0  0  0
  1  2  1  6  0  0  0
  1  3  1  0  0  0  0
  1  4  2  0  0  0  0
  1 16  1  0  0  0  0
  5  6  1  6  0  0  0
  5  7  1  0  0  0  0
  5 14  1  0  0  0  0
  7  8  1  1  0  0  0
  7  9  1  0  0  0  0
  9 10  1  1  0  0  0
  9 11  1  0  0  0  0
 11 12  1  6  0  0  0
 11 13  1  0  0  0  0
 13 14  1  0  0  0  0
 13 15  1  6  0  0  0
 15 16  1  0  0  0  0
M  CHG  1   3  -1
M  END
>  <CHROM.1>
-68.60511670,-166.23250768,173.18037164,34.03074303,4.07661022,1.85761863
1.28528395,0.90110126,-1.40330921

>  <Name>
ligand

>  <RI>
0

>  <Rbt.Current_Directory>
/home/itssahil/PROJECTS/Mol_Feturizer/New_Systems/rnas/3B4C

>  <Rbt.Executable>
rbdock ($Id: //depot/dev/client3/rdock/2013.1/src/exe/rbdock.cxx#4 $)

>  <Rbt.Library>
libRbt.so (2013.1, Build901 2013/11/27)

>  <Rbt.Parameter_File>
/export/apps/rDock/src/rDock_2013.1_src/data/scripts/dock_solv.prm

>  <Rbt.Receptor>
prm/blind_docking_60.prm

>  <SCORE>
-4.60552

>  <SCORE.INTER>
-3.87884

>  <SCORE.INTER.CONST>
1

>  <SCORE.INTER.POLAR>
0

>  <SCORE.INTER.ROT>
3

>  <SCORE.INTER.SOLV>
9.47746

>  <SCORE.INTER.VDW>
-11.345

>  <SCORE.INTER.norm>
-0.242428

>  <SCORE.INTRA>
-0.726674

>  <SCORE.INTRA.DIHEDRAL>
-0.899532

>  <SCORE.INTRA.DIHEDRAL.0>
2.1318

>  <SCORE.INTRA.POLAR>
0

>  <SCORE.INTRA.POLAR.0>
0

>  <SCORE.INTRA.REPUL>
0

>  <SCORE.INTRA.REPUL.0>
0

>  <SCORE.INTRA.SOLV>
-0.105758

>  <SCORE.INTRA.SOLV.lig_0>
-58.6125

>  <SCORE.INTRA.VDW>
-0.224028

>  <SCORE.INTRA.VDW.0>
-0.432734

>  <SCORE.INTRA.norm>
-0.0454171

>  <SCORE.RESTR>
0

>  <SCORE.RESTR.CAVITY>
0

>  <SCORE.RESTR.norm>
0

>  <SCORE.SYSTEM>
0

>  <SCORE.SYSTEM.CONST>
0

>  <SCORE.SYSTEM.DIHEDRAL>
0

>  <SCORE.SYSTEM.SOLV>
0

>  <SCORE.SYSTEM.norm>
0

>  <SCORE.heavy>
16

>  <SCORE.norm>
-0.287845

>  <RMSD>
21.546

$$$$
ligand
 OpenBabel11021811463D
libRbt.so/2013.1/901 2013/11/27
 16 16  0  0  0  0  0  0  0  0999 V2000
   33.4235    2.1286    8.5113 P   0  0  2  0  0  0  0  0  0  0  0  0
   34.0626    1.4133    9.6432 O   0  0  0  0  0  0  0  0  0  0  0  0
   34.4879    2.3049    7.3176 O   0  5  0  0  0  0  0  0  0  0  0  0
   32.9532    3.5877    9.0109 O   0  0  0  0  0  0  0  0  0  0  0  0
   32.4117    0.4583    3.7907 C   0  0  2  0  0  0  0  0  0  0  0  0
   33.8288    0.6493    3.8757 O   0  0  0  0  0  0  0  0  0  0  0  0
   31.7832    1.4603    2.7883 C   0  0  2  0  0  0  0  0  0  0  0  0
   32.3949    1.2843    1.4573 N   0  0  0  0  0  0  0  0  0  0  0  0
   32.0369    2.8887    3.2989 C   0  0  1  0  0  0  0  0  0  0  0  0
   31.4538    3.8417    2.4061 O   0  0  0  0  0  0  0  0  0  0  0  0
   31.3882    3.0169    4.6762 C   0  0  2  0  0  0  0  0  0  0  0  0
   31.6133    4.3318    5.1685 O   0  0  0  0  0  0  0  0  0  0  0  0
   32.0311    1.9731    5.6298 C   0  0  2  0  0  0  0  0  0  0  0  0
   31.8221    0.6215    5.1172 O   0  0  0  0  0  0  0  0  0  0  0  0
   31.3989    2.0599    7.0410 C   0  0  0  0  0  0  0  0  0  0  0  0
   32.1493    1.2761    7.9866 O   0  0  0  0  0  0  0  0  0  0  0  0
  1  2  1  1  0  0  0
  1  3  1  0  0  0  0
  1  4  2  0  0  0  0
  1 16  1  0  0  0  0
  5  6  1  1  0  0  0
  5  7  1  0  0  0  0
  5 14  1  0  0  0  0
  7  8  1  6  0  0  0
  7  9  1  0  0  0  0
  9 10  1  6  0  0  0
  9 11  1  0  0  0  0
 11 12  1  1  0  0  0
 11 13  1  0  0  0  0
 13 14  1  0  0  0  0
 13 15  1  1  0  0  0
 15 16  1  0  0  0  0
M  CHG  1   3  -1
M  END
>  <CHROM.1>
-169.43626070,82.43454881,170.70792462,32.54971717,2.09749790,5.76744612
-1.06712611,1.09282321,-2.03879498

>  <Name>
ligand

>  <RI>
0

>  <Rbt.Current_Directory>
/home/itssahil/PROJECTS/Mol_Feturizer/New_Systems/rnas/3B4C

>  <Rbt.Executable>
rbdock ($Id: //depot/dev/client3/rdock/2013.1/src/exe/rbdock.cxx#4 $)

>  <Rbt.Library>
libRbt.so (2013.1, Build901 2013/11/27)

>  <Rbt.Parameter_File>
/export/apps/rDock/src/rDock_2013.1_src/data/scripts/dock_solv.prm

>  <Rbt.Receptor>
prm/blind_docking_40.prm

>  <SCORE>
-6.43984

>  <SCORE.INTER>
-7.35635

>  <SCORE.INTER.CONST>
1

>  <SCORE.INTER.POLAR>
0

>  <SCORE.INTER.ROT>
3

>  <SCORE.INTER.SOLV>
8.84156

>  <SCORE.INTER.VDW>
-13.4514

>  <SCORE.INTER.norm>
-0.459772

>  <SCORE.INTRA>
0.916513

>  <SCORE.INTRA.DIHEDRAL>
0.614903

>  <SCORE.INTRA.DIHEDRAL.0>
2.1318

>  <SCORE.INTRA.POLAR>
0

>  <SCORE.INTRA.POLAR.0>
0

>  <SCORE.INTRA.REPUL>
0

>  <SCORE.INTRA.REPUL.0>
0

>  <SCORE.INTRA.SOLV>
2.49132

>  <SCORE.INTRA.SOLV.lig_0>
-58.6125

>  <SCORE.INTRA.VDW>
-0.636597

>  <SCORE.INTRA.VDW.0>
-0.432734

>  <SCORE.INTRA.norm>
0.0572821

>  <SCORE.RESTR>
0

>  <SCORE.RESTR.CAVITY>
0

>  <SCORE.RESTR.norm>
0

>  <SCORE.SYSTEM>
0

>  <SCORE.SYSTEM.CONST>
0

>  <SCORE.SYSTEM.DIHEDRAL>
0

>  <SCORE.SYSTEM.SOLV>
0

>  <SCORE.SYSTEM.norm>
0

>  <SCORE.heavy>
16

>  <SCORE.norm>
-0.40249

>  <RMSD>
21.596

$$$$
ligand
 OpenBabel11021811463D
libRbt.so/2013.1/901 2013/11/27
 16 16  0  0  0  0  0  0  0  0999 V2000
   31.5729    2.6119    4.9493 P   0  0  2  0  0  0  0  0  0  0  0  0
   30.2054    3.1875    4.9451 O   0  0  0  0  0  0  0  0  0  0  0  0
   31.5202    1.0980    4.4067 O   0  5  0  0  0  0  0  0  0  0  0  0
   32.1350    2.6054    6.4604 O   0  0  0  0  0  0  0  0  0  0  0  0
   33.0314    5.2614   -0.5181 C   0  0  2  0  0  0  0  0  0  0  0  0
   34.2813    4.5913   -0.7192 O   0  0  0  0  0  0  0  0  0  0  0  0
   33.2609    6.7053   -0.0020 C   0  0  2  0  0  0  0  0  0  0  0  0
   34.0837    7.4560   -0.9695 N   0  0  0  0  0  0  0  0  0  0  0  0
   33.9806    6.6322    1.3553 C   0  0  1  0  0  0  0  0  0  0  0  0
   34.1933    7.9488    1.8715 O   0  0  0  0  0  0  0  0  0  0  0  0
   33.0912    5.8452    2.3163 C   0  0  2  0  0  0  0  0  0  0  0  0
   33.7400    5.7634    3.5789 O   0  0  0  0  0  0  0  0  0  0  0  0
   32.8688    4.4211    1.7378 C   0  0  2  0  0  0  0  0  0  0  0  0
   32.2224    4.5000    0.4304 O   0  0  0  0  0  0  0  0  0  0  0  0
   31.9641    3.5850    2.6766 C   0  0  0  0  0  0  0  0  0  0  0  0
   32.5342    3.5016    3.9955 O   0  0  0  0  0  0  0  0  0  0  0  0
  1  2  1  6  0  0  0
  1  3  1  0  0  0  0
  1  4  2  0  0  0  0
  1 16  1  0  0  0  0
  5  6  1  1  0  0  0
  5  7  1  0  0  0  0
  5 14  1  0  0  0  0
  7  8  1  6  0  0  0
  7  9  1  0  0  0  0
  9 10  1  1  0  0  0
  9 11  1  0  0  0  0
 11 12  1  1  0  0  0
 11 13  1  0  0  0  0
 13 14  1  0  0  0  0
 13 15  1  1  0  0  0
 15 16  1  0  0  0  0
M  CHG  1   3  -1
M  END
>  <CHROM.1>
-57.46808740,-179.52453983,-55.60708953,32.68982754,4.53209691,2.54033170
2.48094170,1.13422299,1.38386654

>  <Name>
ligand

>  <RI>
0

>  <Rbt.Current_Directory>
/home/itssahil/PROJECTS/Mol_Feturizer/New_Systems/rnas/3B4C

>  <Rbt.Executable>
rbdock ($Id: //depot/dev/client3/rdock/2013.1/src/exe/rbdock.cxx#4 $)

>  <Rbt.Library>
libRbt.so (2013.1, Build901 2013/11/27)

>  <Rbt.Parameter_File>
/export/apps/rDock/src/rDock_2013.1_src/data/scripts/dock_solv.prm

>  <Rbt.Receptor>
prm/blind_docking_40.prm

>  <SCORE>
-7.35951

>  <SCORE.INTER>
-6.17569

>  <SCORE.INTER.CONST>
1

>  <SCORE.INTER.POLAR>
0

>  <SCORE.INTER.ROT>
3

>  <SCORE.INTER.SOLV>
12.8781

>  <SCORE.INTER.VDW>
-14.0098

>  <SCORE.INTER.norm>
-0.385981

>  <SCORE.INTRA>
-1.18381

>  <SCORE.INTRA.DIHEDRAL>
-2.07128

>  <SCORE.INTRA.DIHEDRAL.0>
2.1318

>  <SCORE.INTRA.POLAR>
0

>  <SCORE.INTRA.POLAR.0>
0

>  <SCORE.INTRA.REPUL>
0

>  <SCORE.INTRA.REPUL.0>
0

>  <SCORE.INTRA.SOLV>
-0.598934

>  <SCORE.INTRA.SOLV.lig_0>
-58.6125

>  <SCORE.INTRA.VDW>
0.151296

>  <SCORE.INTRA.VDW.0>
-0.432734

>  <SCORE.INTRA.norm>
-0.0739883

>  <SCORE.RESTR>
0

>  <SCORE.RESTR.CAVITY>
0

>  <SCORE.RESTR.norm>
0

>  <SCORE.SYSTEM>
0

>  <SCORE.SYSTEM.CONST>
0

>  <SCORE.SYSTEM.DIHEDRAL>
0

>  <SCORE.SYSTEM.SOLV>
0

>  <SCORE.SYSTEM.norm>
0

>  <SCORE.heavy>
16

>  <SCORE.norm>
-0.459969

>  <RMSD>
22.345

$$$$
ligand
 OpenBabel11021811463D
libRbt.so/2013.1/901 2013/11/27
 16 16  0  0  0  0  0  0  0  0999 V2000
   34.3540    4.3213   -1.2397 P   0  0  2  0  0  0  0  0  0  0  0  0
   35.7520    4.1052   -1.6872 O   0  0  0  0  0  0  0  0  0  0  0  0
   33.3737    3.3287   -2.0414 O   0  5  0  0  0  0  0  0  0  0  0  0
   33.9301    5.8438   -1.5591 O   0  0  0  0  0  0  0  0  0  0  0  0
   31.2114    4.1067    4.1528 C   0  0  2  0  0  0  0  0  0  0  0  0
   32.1151    4.9442    4.8835 O   0  0  0  0  0  0  0  0  0  0  0  0
   31.4317    2.6155    4.5157 C   0  0  2  0  0  0  0  0  0  0  0  0
   31.2368    2.4209    5.9652 N   0  0  0  0  0  0  0  0  0  0  0  0
   32.8647    2.2212    4.1201 C   0  0  1  0  0  0  0  0  0  0  0  0
   33.0982    0.8436    4.4247 O   0  0  0  0  0  0  0  0  0  0  0  0
   33.0144    2.4435    2.6161 C   0  0  2  0  0  0  0  0  0  0  0  0
   34.3353    2.0867    2.2290 O   0  0  0  0  0  0  0  0  0  0  0  0
   32.7541    3.9427    2.3047 C   0  0  2  0  0  0  0  0  0  0  0  0
   31.4059    4.3204    2.7208 O   0  0  0  0  0  0  0  0  0  0  0  0
   32.8878    4.2167    0.7863 C   0  0  0  0  0  0  0  0  0  0  0  0
   34.2467    4.0295    0.3505 O   0  0  0  0  0  0  0  0  0  0  0  0
  1  2  1  6  0  0  0
  1  3  1  0  0  0  0
  1  4  2  0  0  0  0
  1 16  1  0  0  0  0
  5  6  1  1  0  0  0
  5  7  1  0  0  0  0
  5 14  1  0  0  0  0
  7  8  1  1  0  0  0
  7  9  1  0  0  0  0
  9 10  1  6  0  0  0
  9 11  1  0  0  0  0
 11 12  1  1  0  0  0
 11 13  1  0  0  0  0
 13 14  1  0  0  0  0
 13 15  1  6  0  0  0
 15 16  1  0  0  0  0
M  CHG  1   3  -1
M  END
>  <CHROM.1>
-66.51921783,179.93518653,-179.07652927,33.14001749,3.56409128,1.72895986
-0.94444440,-0.90688651,2.33783602

>  <Name>
ligand

>  <RI>
0

>  <Rbt.Current_Directory>
/home/itssahil/PROJECTS/Mol_Feturizer/New_Systems/rnas/3B4C

>  <Rbt.Executable>
rbdock ($Id: //depot/dev/client3/rdock/2013.1/src/exe/rbdock.cxx#4 $)

>  <Rbt.Library>
libRbt.so (2013.1, Build901 2013/11/27)

>  <Rbt.Parameter_File>
/export/apps/rDock/src/rDock_2013.1_src/data/scripts/dock_solv.prm

>  <Rbt.Receptor>
prm/blind_docking_100.prm

>  <SCORE>
-6.58341

>  <SCORE.INTER>
-5.35329

>  <SCORE.INTER.CONST>
1

>  <SCORE.INTER.POLAR>
0

>  <SCORE.INTER.ROT>
3

>  <SCORE.INTER.SOLV>
9.29817

>  <SCORE.INTER.VDW>
-12.2682

>  <SCORE.INTER.norm>
-0.33458

>  <SCORE.INTRA>
-1.23013

>  <SCORE.INTRA.DIHEDRAL>
-1.97752

>  <SCORE.INTRA.DIHEDRAL.0>
2.1318

>  <SCORE.INTRA.POLAR>
0

>  <SCORE.INTRA.POLAR.0>
0

>  <SCORE.INTRA.REPUL>
0

>  <SCORE.INTRA.REPUL.0>
0

>  <SCORE.INTRA.SOLV>
0.00933142

>  <SCORE.INTRA.SOLV.lig_0>
-58.6125

>  <SCORE.INTRA.VDW>
-0.246032

>  <SCORE.INTRA.VDW.0>
-0.432734

>  <SCORE.INTRA.norm>
-0.076883

>  <SCORE.RESTR>
0

>  <SCORE.RESTR.CAVITY>
0

>  <SCORE.RESTR.norm>
0

>  <SCORE.SYSTEM>
0

>  <SCORE.SYSTEM.CONST>
0

>  <SCORE.SYSTEM.DIHEDRAL>
0

>  <SCORE.SYSTEM.SOLV>
0

>  <SCORE.SYSTEM.norm>
0

>  <SCORE.heavy>
16

>  <SCORE.norm>
-0.411463

>  <RMSD>
22.446

$$$$
ligand
 OpenBabel11021811463D
libRbt.so/2013.1/901 2013/11/27
 16 16  0  0  0  0  0  0  0  0999 V2000
   30.7682    4.1832   -0.4818 P   0  0  2  0  0  0  0  0  0  0  0  0
   29.5716    5.0388   -0.6754 O   0  0  0  0  0  0  0  0  0  0  0  0
   32.0265    4.8400   -1.2396 O   0  5  0  0  0  0  0  0  0  0  0  0
   30.4805    2.7278   -1.1129 O   0  0  0  0  0  0  0  0  0  0  0  0
   31.5672    2.3299    4.9041 C   0  0  2  0  0  0  0  0  0  0  0  0
   31.8157    3.6131    5.4902 O   0  0  0  0  0  0  0  0  0  0  0  0
   32.7526    1.3669    5.1713 C   0  0  2  0  0  0  0  0  0  0  0  0
   32.9611    1.2238    6.6249 N   0  0  0  0  0  0  0  0  0  0  0  0
   34.0151    1.9493    4.5137 C   0  0  1  0  0  0  0  0  0  0  0  0
   35.1278    1.0762    4.7249 O   0  0  0  0  0  0  0  0  0  0  0  0
   33.7464    2.0796    3.0155 C   0  0  2  0  0  0  0  0  0  0  0  0
   34.9022    2.6194    2.3874 O   0  0  0  0  0  0  0  0  0  0  0  0
   32.5340    3.0276    2.8064 C   0  0  2  0  0  0  0  0  0  0  0  0
   31.3488    2.4888    3.4684 O   0  0  0  0  0  0  0  0  0  0  0  0
   32.2176    3.1858    1.2986 C   0  0  0  0  0  0  0  0  0  0  0  0
   31.0885    4.0563    1.1015 O   0  0  0  0  0  0  0  0  0  0  0  0
  1  2  1  6  0  0  0
  1  3  1  0  0  0  0
  1  4  2  0  0  0  0
  1 16  1  0  0  0  0
  5  6  1  6  0  0  0
  5  7  1  0  0  0  0
  5 14  1  0  0  0  0
  7  8  1  1  0  0  0
  7  9  1  0  0  0  0
  9 10  1  6  0  0  0
  9 11  1  0  0  0  0
 11 12  1  6  0  0  0
 11 13  1  0  0  0  0
 13 14  1  0  0  0  0
 13 15  1  6  0  0  0
 15 16  1  0  0  0  0
M  CHG  1   3  -1
M  END
>  <CHROM.1>
179.59504635,-179.11856833,177.80504044,32.17545991,2.99386609,2.33289696
1.99835260,0.32986503,-1.31751800

>  <Name>
ligand

>  <RI>
0

>  <Rbt.Current_Directory>
/home/itssahil/PROJECTS/Mol_Feturizer/New_Systems/rnas/3B4C

>  <Rbt.Executable>
rbdock ($Id: //depot/dev/client3/rdock/2013.1/src/exe/rbdock.cxx#4 $)

>  <Rbt.Library>
libRbt.so (2013.1, Build901 2013/11/27)

>  <Rbt.Parameter_File>
/export/apps/rDock/src/rDock_2013.1_src/data/scripts/dock_solv.prm

>  <Rbt.Receptor>
prm/blind_docking_40.prm

>  <SCORE>
-6.63896

>  <SCORE.INTER>
-5.1675

>  <SCORE.INTER.CONST>
1

>  <SCORE.INTER.POLAR>
0

>  <SCORE.INTER.ROT>
3

>  <SCORE.INTER.SOLV>
10.349

>  <SCORE.INTER.VDW>
-12.4947

>  <SCORE.INTER.norm>
-0.322969

>  <SCORE.INTRA>
-1.47145

>  <SCORE.INTRA.DIHEDRAL>
-2.1177

>  <SCORE.INTRA.DIHEDRAL.0>
2.1318

>  <SCORE.INTRA.POLAR>
0

>  <SCORE.INTRA.POLAR.0>
0

>  <SCORE.INTRA.REPUL>
0

>  <SCORE.INTRA.REPUL.0>
0

>  <SCORE.INTRA.SOLV>
-0.370515

>  <SCORE.INTRA.SOLV.lig_0>
-58.6125

>  <SCORE.INTRA.VDW>
-0.227347

>  <SCORE.INTRA.VDW.0>
-0.432734

>  <SCORE.INTRA.norm>
-0.0919659

>  <SCORE.RESTR>
0

>  <SCORE.RESTR.CAVITY>
0

>  <SCORE.RESTR.norm>
0

>  <SCORE.SYSTEM>
0

>  <SCORE.SYSTEM.CONST>
0

>  <SCORE.SYSTEM.DIHEDRAL>
0

>  <SCORE.SYSTEM.SOLV>
0

>  <SCORE.SYSTEM.norm>
0

>  <SCORE.heavy>
16

>  <SCORE.norm>
-0.414935

>  <RMSD>
23.015

$$$$
ligand
 OpenBabel11021811463D
libRbt.so/2013.1/901 2013/11/27
 16 16  0  0  0  0  0  0  0  0999 V2000
   33.8438   -0.9365   -0.5770 P   0  0  2  0  0  0  0  0  0  0  0  0
   35.1755   -1.3462   -1.0869 O   0  0  0  0  0  0  0  0  0  0  0  0
   33.0701   -2.2239    0.0000 O   0  5  0  0  0  0  0  0  0  0  0  0
   32.9859   -0.3130   -1.7914 O   0  0  0  0  0  0  0  0  0  0  0  0
   33.3110    3.8912    2.5347 C   0  0  2  0  0  0  0  0  0  0  0  0
   34.4397    3.6484    3.3825 O   0  0  0  0  0  0  0  0  0  0  0  0
   32.0219    4.0718    3.3772 C   0  0  2  0  0  0  0  0  0  0  0  0
   32.1945    5.1948    4.3184 N   0  0  0  0  0  0  0  0  0  0  0  0
   31.7575    2.7707    4.1536 C   0  0  1  0  0  0  0  0  0  0  0  0
   30.5630    2.8947    4.9300 O   0  0  0  0  0  0  0  0  0  0  0  0
   31.5899    1.6431    3.1366 C   0  0  2  0  0  0  0  0  0  0  0  0
   31.3465    0.4284    3.8346 O   0  0  0  0  0  0  0  0  0  0  0  0
   32.8942    1.5260    2.3016 C   0  0  2  0  0  0  0  0  0  0  0  0
   33.1612    2.7788    1.5997 O   0  0  0  0  0  0  0  0  0  0  0  0
   32.7696    0.3971    1.2487 C   0  0  0  0  0  0  0  0  0  0  0  0
   34.0325    0.1612    0.6000 O   0  0  0  0  0  0  0  0  0  0  0  0
  1  2  1  6  0  0  0
  1  3  1  0  0  0  0
  1  4  2  0  0  0  0
  1 16  1  0  0  0  0
  5  6  1  1  0  0  0
  5  7  1  0  0  0  0
  5 14  1  0  0  0  0
  7  8  1  1  0  0  0
  7  9  1  0  0  0  0
  9 10  1  6  0  0  0
  9 11  1  0  0  0  0
 11 12  1  1  0  0  0
 11 13  1  0  0  0  0
 13 14  1  0  0  0  0
 13 15  1  6  0  0  0
 15 16  1  0  0  0  0
M  CHG  1   3  -1
M  END
>  <CHROM.1>
-172.04915924,-175.38965280,-170.48725651,32.91834430,1.29622470,1.76702296
-1.20253711,0.75646648,0.52853142

>  <Name>
ligand

>  <RI>
0

>  <Rbt.Current_Directory>
/home/itssahil/PROJECTS/Mol_Feturizer/New_Systems/rnas/3B4C

>  <Rbt.Executable>
rbdock ($Id: //depot/dev/client3/rdock/2013.1/src/exe/rbdock.cxx#4 $)

>  <Rbt.Library>
libRbt.so (2013.1, Build901 2013/11/27)

>  <Rbt.Parameter_File>
/export/apps/rDock/src/rDock_2013.1_src/data/scripts/dock_solv.prm

>  <Rbt.Receptor>
prm/blind_docking_100.prm

>  <SCORE>
-5.50036

>  <SCORE.INTER>
-4.30444

>  <SCORE.INTER.CONST>
1

>  <SCORE.INTER.POLAR>
0

>  <SCORE.INTER.ROT>
3

>  <SCORE.INTER.SOLV>
9.21764

>  <SCORE.INTER.VDW>
-11.5422

>  <SCORE.INTER.norm>
-0.269028

>  <SCORE.INTRA>
-1.19592

>  <SCORE.INTRA.DIHEDRAL>
-1.64856

>  <SCORE.INTRA.DIHEDRAL.0>
2.1318

>  <SCORE.INTRA.POLAR>
0

>  <SCORE.INTRA.POLAR.0>
0

>  <SCORE.INTRA.REPUL>
0

>  <SCORE.INTRA.REPUL.0>
0

>  <SCORE.INTRA.SOLV>
-0.3804

>  <SCORE.INTRA.SOLV.lig_0>
-58.6125

>  <SCORE.INTRA.VDW>
-0.181436

>  <SCORE.INTRA.VDW.0>
-0.432734

>  <SCORE.INTRA.norm>
-0.0747448

>  <SCORE.RESTR>
0

>  <SCORE.RESTR.CAVITY>
0

>  <SCORE.RESTR.norm>
0

>  <SCORE.SYSTEM>
0

>  <SCORE.SYSTEM.CONST>
0

>  <SCORE.SYSTEM.DIHEDRAL>
0

>  <SCORE.SYSTEM.SOLV>
0

>  <SCORE.SYSTEM.norm>
0

>  <SCORE.heavy>
16

>  <SCORE.norm>
-0.343773

>  <RMSD>
23.405

$$$$
ligand
 OpenBabel11021811463D
libRbt.so/2013.1/901 2013/11/27
 16 16  0  0  0  0  0  0  0  0999 V2000
   33.2584    5.7821    4.2565 P   0  0  2  0  0  0  0  0  0  0  0  0
   34.5247    6.2369    3.6312 O   0  0  0  0  0  0  0  0  0  0  0  0
   32.6184    6.9860    5.1108 O   0  5  0  0  0  0  0  0  0  0  0  0
   33.5752    4.5500    5.2471 O   0  0  0  0  0  0  0  0  0  0  0  0
   30.9253    4.2387   -0.8445 C   0  0  2  0  0  0  0  0  0  0  0  0
   29.5734    4.2968   -0.3745 O   0  0  0  0  0  0  0  0  0  0  0  0
   31.2584    2.8226   -1.3807 C   0  0  2  0  0  0  0  0  0  0  0  0
   30.3309    2.4721   -2.4733 N   0  0  0  0  0  0  0  0  0  0  0  0
   31.1164    1.8156   -0.2270 C   0  0  1  0  0  0  0  0  0  0  0  0
   31.4344    0.4975   -0.6817 O   0  0  0  0  0  0  0  0  0  0  0  0
   32.0923    2.2240    0.8752 C   0  0  2  0  0  0  0  0  0  0  0  0
   31.9754    1.3058    1.9546 O   0  0  0  0  0  0  0  0  0  0  0  0
   31.7338    3.6575    1.3534 C   0  0  2  0  0  0  0  0  0  0  0  0
   31.8306    4.6016    0.2431 O   0  0  0  0  0  0  0  0  0  0  0  0
   32.7031    4.1199    2.4692 C   0  0  0  0  0  0  0  0  0  0  0  0
   32.2220    5.3211    3.0993 O   0  0  0  0  0  0  0  0  0  0  0  0
  1  2  1  6  0  0  0
  1  3  1  0  0  0  0
  1  4  2  0  0  0  0
  1 16  1  0  0  0  0
  5  6  1  1  0  0  0
  5  7  1  0  0  0  0
  5 14  1  0  0  0  0
  7  8  1  6  0  0  0
  7  9  1  0  0  0  0
  9 10  1  6  0  0  0
  9 11  1  0  0  0  0
 11 12  1  1  0  0  0
 11 13  1  0  0  0  0
 13 14  1  0  0  0  0
 13 15  1  1  0  0  0
 15 16  1  0  0  0  0
M  CHG  1   3  -1
M  END
>  <CHROM.1>
-168.45759040,-179.79575589,68.49918274,32.06391541,3.98400430,1.66835731
0.76607992,-1.06022327,0.25168577

>  <Name>
ligand

>  <RI>
0

>  <Rbt.Current_Directory>
/home/itssahil/PROJECTS/Mol_Feturizer/New_Systems/rnas/3B4C

>  <Rbt.Executable>
rbdock ($Id: //depot/dev/client3/rdock/2013.1/src/exe/rbdock.cxx#4 $)

>  <Rbt.Library>
libRbt.so (2013.1, Build901 2013/11/27)

>  <Rbt.Parameter_File>
/export/apps/rDock/src/rDock_2013.1_src/data/scripts/dock_solv.prm

>  <Rbt.Receptor>
prm/blind_docking_60.prm

>  <SCORE>
-6.58781

>  <SCORE.INTER>
-5.19245

>  <SCORE.INTER.CONST>
1

>  <SCORE.INTER.POLAR>
0

>  <SCORE.INTER.ROT>
3

>  <SCORE.INTER.SOLV>
12.0299

>  <SCORE.INTER.VDW>
-13.0716

>  <SCORE.INTER.norm>
-0.324528

>  <SCORE.INTRA>
-1.39536

>  <SCORE.INTRA.DIHEDRAL>
-1.53897

>  <SCORE.INTRA.DIHEDRAL.0>
2.1318

>  <SCORE.INTRA.POLAR>
0

>  <SCORE.INTRA.POLAR.0>
0

>  <SCORE.INTRA.REPUL>
0

>  <SCORE.INTRA.REPUL.0>
0

>  <SCORE.INTRA.SOLV>
-0.973848

>  <SCORE.INTRA.SOLV.lig_0>
-58.6125

>  <SCORE.INTRA.VDW>
-0.138953

>  <SCORE.INTRA.VDW.0>
-0.432734

>  <SCORE.INTRA.norm>
-0.0872103

>  <SCORE.RESTR>
0

>  <SCORE.RESTR.CAVITY>
0

>  <SCORE.RESTR.norm>
0

>  <SCORE.SYSTEM>
0

>  <SCORE.SYSTEM.CONST>
0

>  <SCORE.SYSTEM.DIHEDRAL>
0

>  <SCORE.SYSTEM.SOLV>
0

>  <SCORE.SYSTEM.norm>
0

>  <SCORE.heavy>
16

>  <SCORE.norm>
-0.411738

>  <RMSD>
23.547

$$$$
ligand
 OpenBabel11021811463D
libRbt.so/2013.1/901 2013/11/27
 16 16  0  0  0  0  0  0  0  0999 V2000
   33.8531   24.4760   27.4296 P   0  0  2  0  0  0  0  0  0  0  0  0
   35.2074   24.7562   26.8922 O   0  0  0  0  0  0  0  0  0  0  0  0
   33.6932   25.1708   28.8720 O   0  5  0  0  0  0  0  0  0  0  0  0
   33.6736   22.8823   27.5952 O   0  0  0  0  0  0  0  0  0  0  0  0
   28.6333   26.3174   26.2254 C   0  0  2  0  0  0  0  0  0  0  0  0
   27.6365   25.3281   25.9435 O   0  0  0  0  0  0  0  0  0  0  0  0
   28.9294   27.1711   24.9654 C   0  0  2  0  0  0  0  0  0  0  0  0
   27.6899   27.8240   24.5027 N   0  0  0  0  0  0  0  0  0  0  0  0
   29.4794   26.2473   23.8656 C   0  0  1  0  0  0  0  0  0  0  0  0
   29.7815   27.0055   22.6913 O   0  0  0  0  0  0  0  0  0  0  0  0
   30.7561   25.5961   24.3946 C   0  0  2  0  0  0  0  0  0  0  0  0
   31.2808   24.7346   23.3925 O   0  0  0  0  0  0  0  0  0  0  0  0
   30.4091   24.7811   25.6703 C   0  0  2  0  0  0  0  0  0  0  0  0
   29.8489   25.6577   26.6955 O   0  0  0  0  0  0  0  0  0  0  0  0
   31.6771   24.1060   26.2493 C   0  0  0  0  0  0  0  0  0  0  0  0
   32.7379   25.0649   26.4121 O   0  0  0  0  0  0  0  0  0  0  0  0
  1  2  1  6  0  0  0
  1  3  1  0  0  0  0
  1  4  2  0  0  0  0
  1 16  1  0  0  0  0
  5  6  1  6  0  0  0
  5  7  1  0  0  0  0
  5 14  1  0  0  0  0
  7  8  1  6  0  0  0
  7  9  1  0  0  0  0
  9 10  1  6  0  0  0
  9 11  1  0  0  0  0
 11 12  1  6  0  0  0
 11 13  1  0  0  0  0
 13 14  1  0  0  0  0
 13 15  1  1  0  0  0
 15 16  1  0  0  0  0
M  CHG  1   3  -1
M  END
>  <CHROM.1>
51.30188241,161.97456492,136.64941355,31.22541769,25.34490089,25.88575224
0.54865899,-0.31183328,1.74461893

>  <Name>
ligand

>  <RI>
0

>  <Rbt.Current_Directory>
/home/itssahil/PROJECTS/Mol_Feturizer/New_Systems/rnas/3B4C

>  <Rbt.Executable>
rbdock ($Id: //depot/dev/client3/rdock/2013.1/src/exe/rbdock.cxx#4 $)

>  <Rbt.Library>
libRbt.so (2013.1, Build901 2013/11/27)

>  <Rbt.Parameter_File>
/export/apps/rDock/src/rDock_2013.1_src/data/scripts/dock_solv.prm

>  <Rbt.Receptor>
prm/blind_docking_80.prm

>  <SCORE>
-12.3556

>  <SCORE.INTER>
-13.7905

>  <SCORE.INTER.CONST>
1

>  <SCORE.INTER.POLAR>
0

>  <SCORE.INTER.ROT>
3

>  <SCORE.INTER.SOLV>
23.985

>  <SCORE.INTER.VDW>
-22.7887

>  <SCORE.INTER.norm>
-0.861906

>  <SCORE.INTRA>
1.21284

>  <SCORE.INTRA.DIHEDRAL>
1.59247

>  <SCORE.INTRA.DIHEDRAL.0>
2.1318

>  <SCORE.INTRA.POLAR>
0

>  <SCORE.INTRA.POLAR.0>
0

>  <SCORE.INTRA.REPUL>
0

>  <SCORE.INTRA.REPUL.0>
0

>  <SCORE.INTRA.SOLV>
-0.153459

>  <SCORE.INTRA.SOLV.lig_0>
-58.6125

>  <SCORE.INTRA.VDW>
0.493328

>  <SCORE.INTRA.VDW.0>
-0.432734

>  <SCORE.INTRA.norm>
0.0758022

>  <SCORE.RESTR>
0.222025

>  <SCORE.RESTR.CAVITY>
0.222025

>  <SCORE.RESTR.norm>
0.0138765

>  <SCORE.SYSTEM>
0

>  <SCORE.SYSTEM.CONST>
0

>  <SCORE.SYSTEM.DIHEDRAL>
0

>  <SCORE.SYSTEM.SOLV>
0

>  <SCORE.SYSTEM.norm>
0

>  <SCORE.heavy>
16

>  <SCORE.norm>
-0.772227

>  <RMSD>
24.920

$$$$
ligand
 OpenBabel11021811463D
libRbt.so/2013.1/901 2013/11/27
 16 16  0  0  0  0  0  0  0  0999 V2000
   33.9391   24.6485   27.5345 P   0  0  2  0  0  0  0  0  0  0  0  0
   33.7301   25.3155   28.8433 O   0  0  0  0  0  0  0  0  0  0  0  0
   33.8578   23.0530   27.7256 O   0  5  0  0  0  0  0  0  0  0  0  0
   35.4022   25.0335   26.9770 O   0  0  0  0  0  0  0  0  0  0  0  0
   28.6278   26.3482   26.4332 C   0  0  2  0  0  0  0  0  0  0  0  0
   27.6460   25.3349   26.1856 O   0  0  0  0  0  0  0  0  0  0  0  0
   28.9006   27.1720   25.1483 C   0  0  2  0  0  0  0  0  0  0  0  0
   27.6469   27.7911   24.6772 N   0  0  0  0  0  0  0  0  0  0  0  0
   29.4586   26.2280   24.0700 C   0  0  1  0  0  0  0  0  0  0  0  0
   29.7396   26.9588   22.8733 O   0  0  0  0  0  0  0  0  0  0  0  0
   30.7499   25.6131   24.6071 C   0  0  2  0  0  0  0  0  0  0  0  0
   31.2822   24.7334   23.6249 O   0  0  0  0  0  0  0  0  0  0  0  0
   30.4257   24.8274   25.9070 C   0  0  2  0  0  0  0  0  0  0  0  0
   29.8577   25.7222   26.9121 O   0  0  0  0  0  0  0  0  0  0  0  0
   31.7089   24.1899   26.4947 C   0  0  0  0  0  0  0  0  0  0  0  0
   32.7953   25.1339   26.4944 O   0  0  0  0  0  0  0  0  0  0  0  0
  1  2  1  1  0  0  0
  1  3  1  0  0  0  0
  1  4  2  0  0  0  0
  1 16  1  0  0  0  0
  5  6  1  6  0  0  0
  5  7  1  0  0  0  0
  5 14  1  0  0  0  0
  7  8  1  6  0  0  0
  7  9  1  0  0  0  0
  9 10  1  6  0  0  0
  9 11  1  0  0  0  0
 11 12  1  6  0  0  0
 11 13  1  0  0  0  0
 13 14  1  0  0  0  0
 13 15  1  1  0  0  0
 15 16  1  0  0  0  0
M  CHG  1   3  -1
M  END
>  <CHROM.1>
45.32104493,160.98710792,-94.95131684,31.26168716,25.41632569,26.04838821
0.51509632,-0.27388445,1.74804791

>  <Name>
ligand

>  <RI>
0

>  <Rbt.Current_Directory>
/home/itssahil/PROJECTS/Mol_Feturizer/New_Systems/rnas/3B4C

>  <Rbt.Executable>
rbdock ($Id: //depot/dev/client3/rdock/2013.1/src/exe/rbdock.cxx#4 $)

>  <Rbt.Library>
libRbt.so (2013.1, Build901 2013/11/27)

>  <Rbt.Parameter_File>
/export/apps/rDock/src/rDock_2013.1_src/data/scripts/dock_solv.prm

>  <Rbt.Receptor>
prm/blind_docking_100.prm

>  <SCORE>
-12.2445

>  <SCORE.INTER>
-13.3712

>  <SCORE.INTER.CONST>
1

>  <SCORE.INTER.POLAR>
0

>  <SCORE.INTER.ROT>
3

>  <SCORE.INTER.SOLV>
25.7137

>  <SCORE.INTER.VDW>
-23.0854

>  <SCORE.INTER.norm>
-0.835699

>  <SCORE.INTRA>
1.12671

>  <SCORE.INTRA.DIHEDRAL>
1.75125

>  <SCORE.INTRA.DIHEDRAL.0>
2.1318

>  <SCORE.INTRA.POLAR>
0

>  <SCORE.INTRA.POLAR.0>
0

>  <SCORE.INTRA.REPUL>
0

>  <SCORE.INTRA.REPUL.0>
0

>  <SCORE.INTRA.SOLV>
-0.415172

>  <SCORE.INTRA.SOLV.lig_0>
-58.6125

>  <SCORE.INTRA.VDW>
0.458674

>  <SCORE.INTRA.VDW.0>
-0.432734

>  <SCORE.INTRA.norm>
0.0704196

>  <SCORE.RESTR>
0

>  <SCORE.RESTR.CAVITY>
0

>  <SCORE.RESTR.norm>
0

>  <SCORE.SYSTEM>
0

>  <SCORE.SYSTEM.CONST>
0

>  <SCORE.SYSTEM.DIHEDRAL>
0

>  <SCORE.SYSTEM.SOLV>
0

>  <SCORE.SYSTEM.norm>
0

>  <SCORE.heavy>
16

>  <SCORE.norm>
-0.765279

>  <RMSD>
24.996

$$$$
ligand
 OpenBabel11021811463D
libRbt.so/2013.1/901 2013/11/27
 16 16  0  0  0  0  0  0  0  0999 V2000
   33.5630   24.3582   27.6487 P   0  0  2  0  0  0  0  0  0  0  0  0
   34.1285   25.1223   26.5095 O   0  0  0  0  0  0  0  0  0  0  0  0
   34.4525   24.6177   28.9641 O   0  5  0  0  0  0  0  0  0  0  0  0
   33.5998   22.7855   27.2957 O   0  0  0  0  0  0  0  0  0  0  0  0
   28.2969   26.2918   26.6205 C   0  0  2  0  0  0  0  0  0  0  0  0
   27.3320   25.3601   26.1178 O   0  0  0  0  0  0  0  0  0  0  0  0
   28.9158   27.1173   25.4631 C   0  0  2  0  0  0  0  0  0  0  0  0
   27.8510   27.8378   24.7394 N   0  0  0  0  0  0  0  0  0  0  0  0
   29.6422   26.1549   24.5084 C   0  0  1  0  0  0  0  0  0  0  0  0
   30.2423   26.8854   23.4353 O   0  0  0  0  0  0  0  0  0  0  0  0
   30.7286   25.4345   25.3051 C   0  0  2  0  0  0  0  0  0  0  0  0
   31.4122   24.5364   24.4403 O   0  0  0  0  0  0  0  0  0  0  0  0
   30.0590   24.6506   26.4666 C   0  0  2  0  0  0  0  0  0  0  0  0
   29.3366   25.5660   27.3461 O   0  0  0  0  0  0  0  0  0  0  0  0
   31.1243   23.9072   27.3099 C   0  0  0  0  0  0  0  0  0  0  0  0
   32.0388   24.8391   27.9155 O   0  0  0  0  0  0  0  0  0  0  0  0
  1  2  1  6  0  0  0
  1  3  1  0  0  0  0
  1  4  2  0  0  0  0
  1 16  1  0  0  0  0
  5  6  1  6  0  0  0
  5  7  1  0  0  0  0
  5 14  1  0  0  0  0
  7  8  1  6  0  0  0
  7  9  1  0  0  0  0
  9 10  1  6  0  0  0
  9 11  1  0  0  0  0
 11 12  1  6  0  0  0
 11 13  1  0  0  0  0
 13 14  1  0  0  0  0
 13 15  1  1  0  0  0
 15 16  1  0  0  0  0
M  CHG  1   3  -1
M  END
>  <CHROM.1>
61.93425981,-131.24504268,99.12759029,31.05520328,25.23983775,26.37629618
-0.55125599,0.23317004,-1.18468823

>  <Name>
ligand

>  <RI>
0

>  <Rbt.Current_Directory>
/home/itssahil/PROJECTS/Mol_Feturizer/New_Systems/rnas/3B4C

>  <Rbt.Executable>
rbdock ($Id: //depot/dev/client3/rdock/2013.1/src/exe/rbdock.cxx#4 $)

>  <Rbt.Library>
libRbt.so (2013.1, Build901 2013/11/27)

>  <Rbt.Parameter_File>
/export/apps/rDock/src/rDock_2013.1_src/data/scripts/dock_solv.prm

>  <Rbt.Receptor>
prm/blind_docking_80.prm

>  <SCORE>
-9.0815

>  <SCORE.INTER>
-12.4112

>  <SCORE.INTER.CONST>
1

>  <SCORE.INTER.POLAR>
0

>  <SCORE.INTER.ROT>
3

>  <SCORE.INTER.SOLV>
23.6526

>  <SCORE.INTER.VDW>
-21.7583

>  <SCORE.INTER.norm>
-0.775698

>  <SCORE.INTRA>
3.32898

>  <SCORE.INTRA.DIHEDRAL>
6.23559

>  <SCORE.INTRA.DIHEDRAL.0>
2.1318

>  <SCORE.INTRA.POLAR>
0

>  <SCORE.INTRA.POLAR.0>
0

>  <SCORE.INTRA.REPUL>
0

>  <SCORE.INTRA.REPUL.0>
0

>  <SCORE.INTRA.SOLV>
0.659269

>  <SCORE.INTRA.SOLV.lig_0>
-58.6125

>  <SCORE.INTRA.VDW>
-0.118446

>  <SCORE.INTRA.VDW.0>
-0.432734

>  <SCORE.INTRA.norm>
0.208061

>  <SCORE.RESTR>
0.000684571

>  <SCORE.RESTR.CAVITY>
0.000684571

>  <SCORE.RESTR.norm>
4.27857e-05

>  <SCORE.SYSTEM>
0

>  <SCORE.SYSTEM.CONST>
0

>  <SCORE.SYSTEM.DIHEDRAL>
0

>  <SCORE.SYSTEM.SOLV>
0

>  <SCORE.SYSTEM.norm>
0

>  <SCORE.heavy>
16

>  <SCORE.norm>
-0.567594

>  <RMSD>
25.190

$$$$
ligand
 OpenBabel11021811463D
libRbt.so/2013.1/901 2013/11/27
 16 16  0  0  0  0  0  0  0  0999 V2000
   33.7460   24.3494   27.6537 P   0  0  2  0  0  0  0  0  0  0  0  0
   33.8676   22.9060   27.3325 O   0  0  0  0  0  0  0  0  0  0  0  0
   34.5275   25.2143   26.5447 O   0  5  0  0  0  0  0  0  0  0  0  0
   34.4133   24.6243   29.0955 O   0  0  0  0  0  0  0  0  0  0  0  0
   28.1686   25.6209   27.4966 C   0  0  2  0  0  0  0  0  0  0  0  0
   27.3000   24.6681   26.8725 O   0  0  0  0  0  0  0  0  0  0  0  0
   28.2498   26.9210   26.6556 C   0  0  2  0  0  0  0  0  0  0  0  0
   26.9011   27.4981   26.4979 N   0  0  0  0  0  0  0  0  0  0  0  0
   28.8393   26.5773   25.2773 C   0  0  1  0  0  0  0  0  0  0  0  0
   28.9460   27.7588   24.4787 O   0  0  0  0  0  0  0  0  0  0  0  0
   30.2294   25.9827   25.4964 C   0  0  2  0  0  0  0  0  0  0  0  0
   30.7925   25.6550   24.2326 O   0  0  0  0  0  0  0  0  0  0  0  0
   30.0938   24.7040   26.3674 C   0  0  2  0  0  0  0  0  0  0  0  0
   29.4952   25.0312   27.6590 O   0  0  0  0  0  0  0  0  0  0  0  0
   31.4822   24.0674   26.6236 C   0  0  0  0  0  0  0  0  0  0  0  0
   32.1804   24.7670   27.6698 O   0  0  0  0  0  0  0  0  0  0  0  0
  1  2  1  6  0  0  0
  1  3  1  0  0  0  0
  1  4  2  0  0  0  0
  1 16  1  0  0  0  0
  5  6  1  6  0  0  0
  5  7  1  0  0  0  0
  5 14  1  0  0  0  0
  7  8  1  6  0  0  0
  7  9  1  0  0  0  0
  9 10  1  6  0  0  0
  9 11  1  0  0  0  0
 11 12  1  6  0  0  0
 11 13  1  0  0  0  0
 13 14  1  0  0  0  0
 13 15  1  1  0  0  0
 15 16  1  0  0  0  0
M  CHG  1   3  -1
M  END
>  <CHROM.1>
79.43692021,-165.16575657,-37.77580171,30.87360932,25.29479698,26.70584845
0.41198086,-0.17367832,2.13724993

>  <Name>
ligand

>  <RI>
0

>  <Rbt.Current_Directory>
/home/itssahil/PROJECTS/Mol_Feturizer/New_Systems/rnas/3B4C

>  <Rbt.Executable>
rbdock ($Id: //depot/dev/client3/rdock/2013.1/src/exe/rbdock.cxx#4 $)

>  <Rbt.Library>
libRbt.so (2013.1, Build901 2013/11/27)

>  <Rbt.Parameter_File>
/export/apps/rDock/src/rDock_2013.1_src/data/scripts/dock_solv.prm

>  <Rbt.Receptor>
prm/blind_docking_100.prm

>  <SCORE>
-9.67308

>  <SCORE.INTER>
-9.92947

>  <SCORE.INTER.CONST>
1

>  <SCORE.INTER.POLAR>
0

>  <SCORE.INTER.ROT>
3

>  <SCORE.INTER.SOLV>
24.8873

>  <SCORE.INTER.VDW>
-20.5154

>  <SCORE.INTER.norm>
-0.620592

>  <SCORE.INTRA>
0.255793

>  <SCORE.INTRA.DIHEDRAL>
0.890502

>  <SCORE.INTRA.DIHEDRAL.0>
2.1318

>  <SCORE.INTRA.POLAR>
0

>  <SCORE.INTRA.POLAR.0>
0

>  <SCORE.INTRA.REPUL>
0

>  <SCORE.INTRA.REPUL.0>
0

>  <SCORE.INTRA.SOLV>
-0.816635

>  <SCORE.INTRA.SOLV.lig_0>
-58.6125

>  <SCORE.INTRA.VDW>
0.21886

>  <SCORE.INTRA.VDW.0>
-0.432734

>  <SCORE.INTRA.norm>
0.0159871

>  <SCORE.RESTR>
0.000593451

>  <SCORE.RESTR.CAVITY>
0.000593451

>  <SCORE.RESTR.norm>
3.70907e-05

>  <SCORE.SYSTEM>
0

>  <SCORE.SYSTEM.CONST>
0

>  <SCORE.SYSTEM.DIHEDRAL>
0

>  <SCORE.SYSTEM.SOLV>
0

>  <SCORE.SYSTEM.norm>
0

>  <SCORE.heavy>
16

>  <SCORE.norm>
-0.604568

>  <RMSD>
25.497

$$$$
ligand
 OpenBabel11021811463D
libRbt.so/2013.1/901 2013/11/27
 16 16  0  0  0  0  0  0  0  0999 V2000
   30.5529   25.8870   29.9281 P   0  0  2  0  0  0  0  0  0  0  0  0
   29.9368   25.7908   31.2743 O   0  0  0  0  0  0  0  0  0  0  0  0
   32.1485   26.0313   30.0766 O   0  5  0  0  0  0  0  0  0  0  0  0
   29.9780   27.1944   29.1799 O   0  0  0  0  0  0  0  0  0  0  0  0
   29.4111   26.6038   25.4517 C   0  0  2  0  0  0  0  0  0  0  0  0
   28.1953   25.8620   25.2983 O   0  0  0  0  0  0  0  0  0  0  0  0
   30.3429   26.3864   24.2317 C   0  0  2  0  0  0  0  0  0  0  0  0
   29.6524   26.8029   22.9962 N   0  0  0  0  0  0  0  0  0  0  0  0
   30.7075   24.8943   24.1530 C   0  0  1  0  0  0  0  0  0  0  0  0
   31.5829   24.6589   23.0470 O   0  0  0  0  0  0  0  0  0  0  0  0
   31.4146   24.5148   25.4529 C   0  0  2  0  0  0  0  0  0  0  0  0
   31.7589   23.1361   25.4021 O   0  0  0  0  0  0  0  0  0  0  0  0
   30.4508   24.7802   26.6415 C   0  0  2  0  0  0  0  0  0  0  0  0
   30.0761   26.1913   26.6852 O   0  0  0  0  0  0  0  0  0  0  0  0
   31.1278   24.4162   27.9860 C   0  0  0  0  0  0  0  0  0  0  0  0
   30.2010   24.5527   29.0787 O   0  0  0  0  0  0  0  0  0  0  0  0
  1  2  1  1  0  0  0
  1  3  1  0  0  0  0
  1  4  2  0  0  0  0
  1 16  1  0  0  0  0
  5  6  1  6  0  0  0
  5  7  1  0  0  0  0
  5 14  1  0  0  0  0
  7  8  1  6  0  0  0
  7  9  1  0  0  0  0
  9 10  1  6  0  0  0
  9 11  1  0  0  0  0
 11 12  1  6  0  0  0
 11 13  1  0  0  0  0
 13 14  1  0  0  0  0
 13 15  1  1  0  0  0
 15 16  1  0  0  0  0
M  CHG  1   3  -1
M  END
>  <CHROM.1>
-175.11065327,-105.61587408,-160.71618154,30.47763289,25.50611833,26.98034488
1.53906816,-0.84826042,1.47091320

>  <Name>
ligand

>  <RI>
0

>  <Rbt.Current_Directory>
/home/itssahil/PROJECTS/Mol_Feturizer/New_Systems/rnas/3B4C

>  <Rbt.Executable>
rbdock ($Id: //depot/dev/client3/rdock/2013.1/src/exe/rbdock.cxx#4 $)

>  <Rbt.Library>
libRbt.so (2013.1, Build901 2013/11/27)

>  <Rbt.Parameter_File>
/export/apps/rDock/src/rDock_2013.1_src/data/scripts/dock_solv.prm

>  <Rbt.Receptor>
prm/blind_docking_60.prm

>  <SCORE>
-8.26985

>  <SCORE.INTER>
-11.3455

>  <SCORE.INTER.CONST>
1

>  <SCORE.INTER.POLAR>
0

>  <SCORE.INTER.ROT>
3

>  <SCORE.INTER.SOLV>
19.126

>  <SCORE.INTER.VDW>
-19.539

>  <SCORE.INTER.norm>
-0.709092

>  <SCORE.INTRA>
3.07562

>  <SCORE.INTRA.DIHEDRAL>
4.75085

>  <SCORE.INTRA.DIHEDRAL.0>
2.1318

>  <SCORE.INTRA.POLAR>
0

>  <SCORE.INTRA.POLAR.0>
0

>  <SCORE.INTRA.REPUL>
0

>  <SCORE.INTRA.REPUL.0>
0

>  <SCORE.INTRA.SOLV>
2.41013

>  <SCORE.INTRA.SOLV.lig_0>
-58.6125

>  <SCORE.INTRA.VDW>
-0.50487

>  <SCORE.INTRA.VDW.0>
-0.432734

>  <SCORE.INTRA.norm>
0.192226

>  <SCORE.RESTR>
0

>  <SCORE.RESTR.CAVITY>
0

>  <SCORE.RESTR.norm>
0

>  <SCORE.SYSTEM>
0

>  <SCORE.SYSTEM.CONST>
0

>  <SCORE.SYSTEM.DIHEDRAL>
0

>  <SCORE.SYSTEM.SOLV>
0

>  <SCORE.SYSTEM.norm>
0

>  <SCORE.heavy>
16

>  <SCORE.norm>
-0.516866

>  <RMSD>
25.917

$$$$
ligand
 OpenBabel11021811463D
libRbt.so/2013.1/901 2013/11/27
 16 16  0  0  0  0  0  0  0  0999 V2000
   30.8305   25.8772   29.9324 P   0  0  2  0  0  0  0  0  0  0  0  0
   30.3934   24.9466   31.0021 O   0  0  0  0  0  0  0  0  0  0  0  0
   32.0772   26.7496   30.4556 O   0  5  0  0  0  0  0  0  0  0  0  0
   29.6131   26.8708   29.5714 O   0  0  0  0  0  0  0  0  0  0  0  0
   28.9305   26.7164   25.4878 C   0  0  2  0  0  0  0  0  0  0  0  0
   27.8186   25.9670   24.9838 O   0  0  0  0  0  0  0  0  0  0  0  0
   30.1239   26.6570   24.4997 C   0  0  2  0  0  0  0  0  0  0  0  0
   29.7118   27.1901   23.1872 N   0  0  0  0  0  0  0  0  0  0  0  0
   30.5689   25.1918   24.3561 C   0  0  1  0  0  0  0  0  0  0  0  0
   31.6825   25.1005   23.4635 O   0  0  0  0  0  0  0  0  0  0  0  0
   30.9808   24.6886   25.7385 C   0  0  2  0  0  0  0  0  0  0  0  0
   31.3942   23.3326   25.6286 O   0  0  0  0  0  0  0  0  0  0  0  0
   29.7610   24.7985   26.6936 C   0  0  2  0  0  0  0  0  0  0  0  0
   29.3181   26.1868   26.7929 O   0  0  0  0  0  0  0  0  0  0  0  0
   30.1327   24.3052   28.1138 C   0  0  0  0  0  0  0  0  0  0  0  0
   31.2686   25.0264   28.6248 O   0  0  0  0  0  0  0  0  0  0  0  0
  1  2  1  1  0  0  0
  1  3  1  0  0  0  0
  1  4  2  0  0  0  0
  1 16  1  0  0  0  0
  5  6  1  6  0  0  0
  5  7  1  0  0  0  0
  5 14  1  0  0  0  0
  7  8  1  6  0  0  0
  7  9  1  0  0  0  0
  9 10  1  6  0  0  0
  9 11  1  0  0  0  0
 11 12  1  6  0  0  0
 11 13  1  0  0  0  0
 13 14  1  0  0  0  0
 13 15  1  1  0  0  0
 15 16  1  0  0  0  0
M  CHG  1   3  -1
M  END
>  <CHROM.1>
55.81105445,116.18051978,63.05599668,30.33856629,25.61372793,27.07273158
1.38939616,-0.78312738,1.43742838

>  <Name>
ligand

>  <RI>
0

>  <Rbt.Current_Directory>
/home/itssahil/PROJECTS/Mol_Feturizer/New_Systems/rnas/3B4C

>  <Rbt.Executable>
rbdock ($Id: //depot/dev/client3/rdock/2013.1/src/exe/rbdock.cxx#4 $)

>  <Rbt.Library>
libRbt.so (2013.1, Build901 2013/11/27)

>  <Rbt.Parameter_File>
/export/apps/rDock/src/rDock_2013.1_src/data/scripts/dock_solv.prm

>  <Rbt.Receptor>
prm/blind_docking_60.prm

>  <SCORE>
-8.40998

>  <SCORE.INTER>
-10.9165

>  <SCORE.INTER.CONST>
1

>  <SCORE.INTER.POLAR>
0

>  <SCORE.INTER.ROT>
3

>  <SCORE.INTER.SOLV>
18.9888

>  <SCORE.INTER.VDW>
-19.2073

>  <SCORE.INTER.norm>
-0.682282

>  <SCORE.INTRA>
2.50654

>  <SCORE.INTRA.DIHEDRAL>
5.07702

>  <SCORE.INTRA.DIHEDRAL.0>
2.1318

>  <SCORE.INTRA.POLAR>
0

>  <SCORE.INTRA.POLAR.0>
0

>  <SCORE.INTRA.REPUL>
0

>  <SCORE.INTRA.REPUL.0>
0

>  <SCORE.INTRA.SOLV>
1.22369

>  <SCORE.INTRA.SOLV.lig_0>
-58.6125

>  <SCORE.INTRA.VDW>
-0.643816

>  <SCORE.INTRA.VDW.0>
-0.432734

>  <SCORE.INTRA.norm>
0.156659

>  <SCORE.RESTR>
0

>  <SCORE.RESTR.CAVITY>
0

>  <SCORE.RESTR.norm>
0

>  <SCORE.SYSTEM>
0

>  <SCORE.SYSTEM.CONST>
0

>  <SCORE.SYSTEM.DIHEDRAL>
0

>  <SCORE.SYSTEM.SOLV>
0

>  <SCORE.SYSTEM.norm>
0

>  <SCORE.heavy>
16

>  <SCORE.norm>
-0.525624

>  <RMSD>
26.136

$$$$
ligand
 OpenBabel11021811463D
libRbt.so/2013.1/901 2013/11/27
 16 16  0  0  0  0  0  0  0  0999 V2000
   34.3940   22.1862   34.1400 P   0  0  2  0  0  0  0  0  0  0  0  0
   34.3037   21.5674   32.7945 O   0  0  0  0  0  0  0  0  0  0  0  0
   32.9165   22.3530   34.7548 O   0  5  0  0  0  0  0  0  0  0  0  0
   35.0700   23.6435   34.0031 O   0  0  0  0  0  0  0  0  0  0  0  0
   36.9808   19.5504   38.6576 C   0  0  2  0  0  0  0  0  0  0  0  0
   37.7975   20.3864   39.4858 O   0  0  0  0  0  0  0  0  0  0  0  0
   37.8583   18.5863   37.8182 C   0  0  2  0  0  0  0  0  0  0  0  0
   38.6829   17.7539   38.7149 N   0  0  0  0  0  0  0  0  0  0  0  0
   38.7629   19.4228   36.8976 C   0  0  1  0  0  0  0  0  0  0  0  0
   39.5758   18.5640   36.0933 O   0  0  0  0  0  0  0  0  0  0  0  0
   37.8632   20.2655   35.9952 C   0  0  2  0  0  0  0  0  0  0  0  0
   38.6808   21.0498   35.1360 O   0  0  0  0  0  0  0  0  0  0  0  0
   36.9866   21.1879   36.8855 C   0  0  2  0  0  0  0  0  0  0  0  0
   36.1605   20.3878   37.7860 O   0  0  0  0  0  0  0  0  0  0  0  0
   36.0493   22.0594   36.0133 C   0  0  0  0  0  0  0  0  0  0  0  0
   35.2859   21.2412   35.1081 O   0  0  0  0  0  0  0  0  0  0  0  0
  1  2  1  6  0  0  0
  1  3  1  0  0  0  0
  1  4  2  0  0  0  0
  1 16  1  0  0  0  0
  5  6  1  6  0  0  0
  5  7  1  0  0  0  0
  5 14  1  0  0  0  0
  7  8  1  1  0  0  0
  7  9  1  0  0  0  0
  9 10  1  6  0  0  0
  9 11  1  0  0  0  0
 11 12  1  6  0  0  0
 11 13  1  0  0  0  0
 13 14  1  0  0  0  0
 13 15  1  6  0  0  0
 15 16  1  0  0  0  0
M  CHG  1   3  -1
M  END
>  <CHROM.1>
53.17978495,-176.05417211,145.03632288,36.50459658,20.79085862,36.06588064
2.36429460,0.48988059,-1.31339679

>  <Name>
ligand

>  <RI>
0

>  <Rbt.Current_Directory>
/home/itssahil/PROJECTS/Mol_Feturizer/New_Systems/rnas/3B4C

>  <Rbt.Executable>
rbdock ($Id: //depot/dev/client3/rdock/2013.1/src/exe/rbdock.cxx#4 $)

>  <Rbt.Library>
libRbt.so (2013.1, Build901 2013/11/27)

>  <Rbt.Parameter_File>
/export/apps/rDock/src/rDock_2013.1_src/data/scripts/dock_solv.prm

>  <Rbt.Receptor>
prm/blind_docking_60.prm

>  <SCORE>
-12.3297

>  <SCORE.INTER>
-12.2486

>  <SCORE.INTER.CONST>
1

>  <SCORE.INTER.POLAR>
0

>  <SCORE.INTER.ROT>
3

>  <SCORE.INTER.SOLV>
17.743

>  <SCORE.INTER.VDW>
-19.6801

>  <SCORE.INTER.norm>
-0.76554

>  <SCORE.INTRA>
-0.0810661

>  <SCORE.INTRA.DIHEDRAL>
-0.385611

>  <SCORE.INTRA.DIHEDRAL.0>
2.1318

>  <SCORE.INTRA.POLAR>
0

>  <SCORE.INTRA.POLAR.0>
0

>  <SCORE.INTRA.REPUL>
0

>  <SCORE.INTRA.REPUL.0>
0

>  <SCORE.INTRA.SOLV>
-0.239932

>  <SCORE.INTRA.SOLV.lig_0>
-58.6125

>  <SCORE.INTRA.VDW>
0.231705

>  <SCORE.INTRA.VDW.0>
-0.432734

>  <SCORE.INTRA.norm>
-0.00506663

>  <SCORE.RESTR>
0

>  <SCORE.RESTR.CAVITY>
0

>  <SCORE.RESTR.norm>
0

>  <SCORE.SYSTEM>
0

>  <SCORE.SYSTEM.CONST>
0

>  <SCORE.SYSTEM.DIHEDRAL>
0

>  <SCORE.SYSTEM.SOLV>
0

>  <SCORE.SYSTEM.norm>
0

>  <SCORE.heavy>
16

>  <SCORE.norm>
-0.770607

>  <RMSD>
26.138

$$$$
ligand
 OpenBabel11021811463D
libRbt.so/2013.1/901 2013/11/27
 16 16  0  0  0  0  0  0  0  0999 V2000
   34.1663   23.3341   34.2177 P   0  0  2  0  0  0  0  0  0  0  0  0
   34.7787   24.6839   34.1503 O   0  0  0  0  0  0  0  0  0  0  0  0
   34.3804   22.5765   32.8144 O   0  5  0  0  0  0  0  0  0  0  0  0
   32.5850   23.4883   34.4917 O   0  0  0  0  0  0  0  0  0  0  0  0
   36.5009   19.8269   37.9744 C   0  0  2  0  0  0  0  0  0  0  0  0
   37.0422   20.7295   38.9460 O   0  0  0  0  0  0  0  0  0  0  0  0
   37.5991   18.8691   37.4448 C   0  0  2  0  0  0  0  0  0  0  0  0
   38.1817   18.1092   38.5672 N   0  0  0  0  0  0  0  0  0  0  0  0
   38.6890   19.7067   36.7548 C   0  0  1  0  0  0  0  0  0  0  0  0
   39.7124   18.8527   36.2369 O   0  0  0  0  0  0  0  0  0  0  0  0
   38.0351   20.4735   35.6066 C   0  0  2  0  0  0  0  0  0  0  0  0
   39.0265   21.2577   34.9555 O   0  0  0  0  0  0  0  0  0  0  0  0
   36.9255   21.3918   36.1875 C   0  0  2  0  0  0  0  0  0  0  0  0
   35.9155   20.5931   36.8769 O   0  0  0  0  0  0  0  0  0  0  0  0
   36.2266   22.1869   35.0570 C   0  0  0  0  0  0  0  0  0  0  0  0
   34.8635   22.4858   35.4093 O   0  0  0  0  0  0  0  0  0  0  0  0
  1  2  1  6  0  0  0
  1  3  1  0  0  0  0
  1  4  2  0  0  0  0
  1 16  1  0  0  0  0
  5  6  1  1  0  0  0
  5  7  1  0  0  0  0
  5 14  1  0  0  0  0
  7  8  1  1  0  0  0
  7  9  1  0  0  0  0
  9 10  1  6  0  0  0
  9 11  1  0  0  0  0
 11 12  1  1  0  0  0
 11 13  1  0  0  0  0
 13 14  1  0  0  0  0
 13 15  1  6  0  0  0
 15 16  1  0  0  0  0
M  CHG  1   3  -1
M  END
>  <CHROM.1>
151.08894255,179.22552853,-68.55940262,36.32803357,21.37099196,35.81467956
2.33186393,0.42811590,-1.04608266

>  <Name>
ligand

>  <RI>
0

>  <Rbt.Current_Directory>
/home/itssahil/PROJECTS/Mol_Feturizer/New_Systems/rnas/3B4C

>  <Rbt.Executable>
rbdock ($Id: //depot/dev/client3/rdock/2013.1/src/exe/rbdock.cxx#4 $)

>  <Rbt.Library>
libRbt.so (2013.1, Build901 2013/11/27)

>  <Rbt.Parameter_File>
/export/apps/rDock/src/rDock_2013.1_src/data/scripts/dock_solv.prm

>  <Rbt.Receptor>
prm/blind_docking_60.prm

>  <SCORE>
-10.4729

>  <SCORE.INTER>
-10.3776

>  <SCORE.INTER.CONST>
1

>  <SCORE.INTER.POLAR>
0

>  <SCORE.INTER.ROT>
3

>  <SCORE.INTER.SOLV>
18.7275

>  <SCORE.INTER.VDW>
-18.7609

>  <SCORE.INTER.norm>
-0.648597

>  <SCORE.INTRA>
-0.0953648

>  <SCORE.INTRA.DIHEDRAL>
0.470625

>  <SCORE.INTRA.DIHEDRAL.0>
2.1318

>  <SCORE.INTRA.POLAR>
0

>  <SCORE.INTRA.POLAR.0>
0

>  <SCORE.INTRA.REPUL>
0.00448423

>  <SCORE.INTRA.REPUL.0>
0

>  <SCORE.INTRA.SOLV>
-0.85339

>  <SCORE.INTRA.SOLV.lig_0>
-58.6125

>  <SCORE.INTRA.VDW>
0.0735961

>  <SCORE.INTRA.VDW.0>
-0.432734

>  <SCORE.INTRA.norm>
-0.0059603

>  <SCORE.RESTR>
0

>  <SCORE.RESTR.CAVITY>
0

>  <SCORE.RESTR.norm>
0

>  <SCORE.SYSTEM>
0

>  <SCORE.SYSTEM.CONST>
0

>  <SCORE.SYSTEM.DIHEDRAL>
0

>  <SCORE.SYSTEM.SOLV>
0

>  <SCORE.SYSTEM.norm>
0

>  <SCORE.heavy>
16

>  <SCORE.norm>
-0.654558

>  <RMSD>
26.184

$$$$
ligand
 OpenBabel11021811463D
libRbt.so/2013.1/901 2013/11/27
 16 16  0  0  0  0  0  0  0  0999 V2000
   37.6930   18.8364   38.3560 P   0  0  2  0  0  0  0  0  0  0  0  0
   37.3469   19.1741   39.7587 O   0  0  0  0  0  0  0  0  0  0  0  0
   37.5787   17.2458   38.1425 O   0  5  0  0  0  0  0  0  0  0  0  0
   39.2114   19.2943   38.0653 O   0  0  0  0  0  0  0  0  0  0  0  0
   35.8816   22.7351   34.5049 C   0  0  2  0  0  0  0  0  0  0  0  0
   35.5851   24.0423   35.0100 O   0  0  0  0  0  0  0  0  0  0  0  0
   34.5842   22.0138   34.0571 C   0  0  2  0  0  0  0  0  0  0  0  0
   33.9029   22.8112   33.0194 N   0  0  0  0  0  0  0  0  0  0  0  0
   33.6672   21.8498   35.2809 C   0  0  1  0  0  0  0  0  0  0  0  0
   32.4652   21.1705   34.9081 O   0  0  0  0  0  0  0  0  0  0  0  0
   34.4183   21.0227   36.3228 C   0  0  2  0  0  0  0  0  0  0  0  0
   33.5878   20.8608   37.4655 O   0  0  0  0  0  0  0  0  0  0  0  0
   35.7207   21.7739   36.7122 C   0  0  2  0  0  0  0  0  0  0  0  0
   36.5679   21.9626   35.5374 O   0  0  0  0  0  0  0  0  0  0  0  0
   36.5225   20.9683   37.7642 C   0  0  0  0  0  0  0  0  0  0  0  0
   36.6741   19.5977   37.3521 O   0  0  0  0  0  0  0  0  0  0  0  0
  1  2  1  1  0  0  0
  1  3  1  0  0  0  0
  1  4  2  0  0  0  0
  1 16  1  0  0  0  0
  5  6  1  1  0  0  0
  5  7  1  0  0  0  0
  5 14  1  0  0  0  0
  7  8  1  6  0  0  0
  7  9  1  0  0  0  0
  9 10  1  6  0  0  0
  9 11  1  0  0  0  0
 11 12  1  1  0  0  0
 11 13  1  0  0  0  0
 13 14  1  0  0  0  0
 13 15  1  1  0  0  0
 15 16  1  0  0  0  0
M  CHG  1   3  -1
M  END
>  <CHROM.1>
49.37036567,171.79506985,45.40694821,35.88929670,20.76478798,36.58371145
-0.97718989,-0.14788904,-0.72069434

>  <Name>
ligand

>  <RI>
0

>  <Rbt.Current_Directory>
/home/itssahil/PROJECTS/Mol_Feturizer/New_Systems/rnas/3B4C

>  <Rbt.Executable>
rbdock ($Id: //depot/dev/client3/rdock/2013.1/src/exe/rbdock.cxx#4 $)

>  <Rbt.Library>
libRbt.so (2013.1, Build901 2013/11/27)

>  <Rbt.Parameter_File>
/export/apps/rDock/src/rDock_2013.1_src/data/scripts/dock_solv.prm

>  <Rbt.Receptor>
prm/blind_docking_100.prm

>  <SCORE>
-10.2061

>  <SCORE.INTER>
-9.28088

>  <SCORE.INTER.CONST>
1

>  <SCORE.INTER.POLAR>
0

>  <SCORE.INTER.ROT>
3

>  <SCORE.INTER.SOLV>
15.7554

>  <SCORE.INTER.VDW>
-17.0391

>  <SCORE.INTER.norm>
-0.580055

>  <SCORE.INTRA>
-0.925214

>  <SCORE.INTRA.DIHEDRAL>
-1.07772

>  <SCORE.INTRA.DIHEDRAL.0>
2.1318

>  <SCORE.INTRA.POLAR>
0

>  <SCORE.INTRA.POLAR.0>
0

>  <SCORE.INTRA.REPUL>
0

>  <SCORE.INTRA.REPUL.0>
0

>  <SCORE.INTRA.SOLV>
-0.897188

>  <SCORE.INTRA.SOLV.lig_0>
-58.6125

>  <SCORE.INTRA.VDW>
0.0622414

>  <SCORE.INTRA.VDW.0>
-0.432734

>  <SCORE.INTRA.norm>
-0.0578258

>  <SCORE.RESTR>
0

>  <SCORE.RESTR.CAVITY>
0

>  <SCORE.RESTR.norm>
0

>  <SCORE.SYSTEM>
0

>  <SCORE.SYSTEM.CONST>
0

>  <SCORE.SYSTEM.DIHEDRAL>
0

>  <SCORE.SYSTEM.SOLV>
0

>  <SCORE.SYSTEM.norm>
0

>  <SCORE.heavy>
16

>  <SCORE.norm>
-0.637881

>  <RMSD>
26.605

$$$$
ligand
 OpenBabel11021811463D
libRbt.so/2013.1/901 2013/11/27
 16 16  0  0  0  0  0  0  0  0999 V2000
   14.4451    7.0520   -7.7714 P   0  0  2  0  0  0  0  0  0  0  0  0
   15.6457    7.4463   -6.9940 O   0  0  0  0  0  0  0  0  0  0  0  0
   14.8472    6.8523   -9.3165 O   0  5  0  0  0  0  0  0  0  0  0  0
   13.3433    8.2244   -7.6662 O   0  0  0  0  0  0  0  0  0  0  0  0
   15.0912    2.5919   -4.4230 C   0  0  2  0  0  0  0  0  0  0  0  0
   15.7738    1.4497   -4.9534 O   0  0  0  0  0  0  0  0  0  0  0  0
   13.6090    2.2523   -4.1202 C   0  0  2  0  0  0  0  0  0  0  0  0
   13.5395    1.1344   -3.1598 N   0  0  0  0  0  0  0  0  0  0  0  0
   12.9175    1.8587   -5.4363 C   0  0  1  0  0  0  0  0  0  0  0  0
   11.5404    1.5554   -5.1976 O   0  0  0  0  0  0  0  0  0  0  0  0
   13.0198    3.0451   -6.3934 C   0  0  2  0  0  0  0  0  0  0  0  0
   12.3876    2.7011   -7.6197 O   0  0  0  0  0  0  0  0  0  0  0  0
   14.5206    3.3614   -6.6375 C   0  0  2  0  0  0  0  0  0  0  0  0
   15.1804    3.6941   -5.3776 O   0  0  0  0  0  0  0  0  0  0  0  0
   14.6760    4.5655   -7.5991 C   0  0  0  0  0  0  0  0  0  0  0  0
   13.8505    5.6666   -7.1775 O   0  0  0  0  0  0  0  0  0  0  0  0
  1  2  1  1  0  0  0
  1  3  1  0  0  0  0
  1  4  2  0  0  0  0
  1 16  1  0  0  0  0
  5  6  1  6  0  0  0
  5  7  1  0  0  0  0
  5 14  1  0  0  0  0
  7  8  1  1  0  0  0
  7  9  1  0  0  0  0
  9 10  1  1  0  0  0
  9 11  1  0  0  0  0
 11 12  1  6  0  0  0
 11 13  1  0  0  0  0
 13 14  1  0  0  0  0
 13 15  1  6  0  0  0
 15 16  1  0  0  0  0
M  CHG  1   3  -1
M  END
>  <CHROM.1>
49.33636828,156.88390868,-75.72723082,14.05934733,4.24615236,-6.39441066
-1.41948247,0.43861981,2.54065000

>  <Name>
ligand

>  <RI>
0

>  <Rbt.Current_Directory>
/home/itssahil/PROJECTS/Mol_Feturizer/New_Systems/rnas/3B4C

>  <Rbt.Executable>
rbdock ($Id: //depot/dev/client3/rdock/2013.1/src/exe/rbdock.cxx#4 $)

>  <Rbt.Library>
libRbt.so (2013.1, Build901 2013/11/27)

>  <Rbt.Parameter_File>
/export/apps/rDock/src/rDock_2013.1_src/data/scripts/dock_solv.prm

>  <Rbt.Receptor>
prm/blind_docking_20.prm

>  <SCORE>
-6.33498

>  <SCORE.INTER>
-6.90304

>  <SCORE.INTER.CONST>
1

>  <SCORE.INTER.POLAR>
0

>  <SCORE.INTER.ROT>
3

>  <SCORE.INTER.SOLV>
11.7479

>  <SCORE.INTER.VDW>
-14.118

>  <SCORE.INTER.norm>
-0.43144

>  <SCORE.INTRA>
0.107992

>  <SCORE.INTRA.DIHEDRAL>
0.978512

>  <SCORE.INTRA.DIHEDRAL.0>
2.1318

>  <SCORE.INTRA.POLAR>
0

>  <SCORE.INTRA.POLAR.0>
0

>  <SCORE.INTRA.REPUL>
0

>  <SCORE.INTRA.REPUL.0>
0

>  <SCORE.INTRA.SOLV>
-0.595396

>  <SCORE.INTRA.SOLV.lig_0>
-58.6125

>  <SCORE.INTRA.VDW>
-0.0835666

>  <SCORE.INTRA.VDW.0>
-0.432734

>  <SCORE.INTRA.norm>
0.00674949

>  <SCORE.RESTR>
0.460066

>  <SCORE.RESTR.CAVITY>
0.460066

>  <SCORE.RESTR.norm>
0.0287541

>  <SCORE.SYSTEM>
0

>  <SCORE.SYSTEM.CONST>
0

>  <SCORE.SYSTEM.DIHEDRAL>
0

>  <SCORE.SYSTEM.SOLV>
0

>  <SCORE.SYSTEM.norm>
0

>  <SCORE.heavy>
16

>  <SCORE.norm>
-0.395936

>  <RMSD>
41.766

$$$$
ligand
 OpenBabel11021811463D
libRbt.so/2013.1/901 2013/11/27
 16 16  0  0  0  0  0  0  0  0999 V2000
   14.4920    7.0828   -7.8297 P   0  0  2  0  0  0  0  0  0  0  0  0
   15.7135    7.3636   -7.0357 O   0  0  0  0  0  0  0  0  0  0  0  0
   14.8808    6.9524   -9.3856 O   0  5  0  0  0  0  0  0  0  0  0  0
   13.4572    8.3063   -7.6512 O   0  0  0  0  0  0  0  0  0  0  0  0
   15.0486    2.6596   -4.5324 C   0  0  2  0  0  0  0  0  0  0  0  0
   15.7360    1.5124   -5.0455 O   0  0  0  0  0  0  0  0  0  0  0  0
   13.5675    2.3188   -4.2258 C   0  0  2  0  0  0  0  0  0  0  0  0
   13.5014    1.2148   -3.2494 N   0  0  0  0  0  0  0  0  0  0  0  0
   12.8786    1.9035   -5.5367 C   0  0  1  0  0  0  0  0  0  0  0  0
   11.5025    1.5985   -5.2947 O   0  0  0  0  0  0  0  0  0  0  0  0
   12.9773    3.0762   -6.5108 C   0  0  2  0  0  0  0  0  0  0  0  0
   12.3474    2.7120   -7.7325 O   0  0  0  0  0  0  0  0  0  0  0  0
   14.4771    3.3946   -6.7584 C   0  0  2  0  0  0  0  0  0  0  0  0
   15.1345    3.7481   -5.5029 O   0  0  0  0  0  0  0  0  0  0  0  0
   14.6287    4.5852   -7.7372 C   0  0  0  0  0  0  0  0  0  0  0  0
   13.8219    5.7000   -7.3155 O   0  0  0  0  0  0  0  0  0  0  0  0
  1  2  1  1  0  0  0
  1  3  1  0  0  0  0
  1  4  2  0  0  0  0
  1 16  1  0  0  0  0
  5  6  1  6  0  0  0
  5  7  1  0  0  0  0
  5 14  1  0  0  0  0
  7  8  1  1  0  0  0
  7  9  1  0  0  0  0
  9 10  1  1  0  0  0
  9 11  1  0  0  0  0
 11 12  1  6  0  0  0
 11 13  1  0  0  0  0
 13 14  1  0  0  0  0
 13 15  1  6  0  0  0
 15 16  1  0  0  0  0
M  CHG  1   3  -1
M  END
>  <CHROM.1>
50.64318102,152.04805978,-72.32009323,14.05113974,4.28731722,-6.48479428
-1.39630368,0.46250593,2.53264454

>  <Name>
ligand

>  <RI>
0

>  <Rbt.Current_Directory>
/home/itssahil/PROJECTS/Mol_Feturizer/New_Systems/rnas/3B4C

>  <Rbt.Executable>
rbdock ($Id: //depot/dev/client3/rdock/2013.1/src/exe/rbdock.cxx#4 $)

>  <Rbt.Library>
libRbt.so (2013.1, Build901 2013/11/27)

>  <Rbt.Parameter_File>
/export/apps/rDock/src/rDock_2013.1_src/data/scripts/dock_solv.prm

>  <Rbt.Receptor>
prm/blind_docking_20.prm

>  <SCORE>
-5.88298

>  <SCORE.INTER>
-6.5877

>  <SCORE.INTER.CONST>
1

>  <SCORE.INTER.POLAR>
0

>  <SCORE.INTER.ROT>
3

>  <SCORE.INTER.SOLV>
12.4204

>  <SCORE.INTER.VDW>
-14.1319

>  <SCORE.INTER.norm>
-0.411731

>  <SCORE.INTRA>
0.352621

>  <SCORE.INTRA.DIHEDRAL>
1.63044

>  <SCORE.INTRA.DIHEDRAL.0>
2.1318

>  <SCORE.INTRA.POLAR>
0

>  <SCORE.INTRA.POLAR.0>
0

>  <SCORE.INTRA.REPUL>
0

>  <SCORE.INTRA.REPUL.0>
0

>  <SCORE.INTRA.SOLV>
-0.597702

>  <SCORE.INTRA.SOLV.lig_0>
-58.6125

>  <SCORE.INTRA.VDW>
-0.163749

>  <SCORE.INTRA.VDW.0>
-0.432734

>  <SCORE.INTRA.norm>
0.0220388

>  <SCORE.RESTR>
0.352102

>  <SCORE.RESTR.CAVITY>
0.352102

>  <SCORE.RESTR.norm>
0.0220064

>  <SCORE.SYSTEM>
0

>  <SCORE.SYSTEM.CONST>
0

>  <SCORE.SYSTEM.DIHEDRAL>
0

>  <SCORE.SYSTEM.SOLV>
0

>  <SCORE.SYSTEM.norm>
0

>  <SCORE.heavy>
16

>  <SCORE.norm>
-0.367686

>  <RMSD>
41.816

$$$$
ligand
 OpenBabel11021811463D
libRbt.so/2013.1/901 2013/11/27
 16 16  0  0  0  0  0  0  0  0999 V2000
   13.9929    7.1870   -8.2252 P   0  0  2  0  0  0  0  0  0  0  0  0
   15.3963    7.3744   -8.6687 O   0  0  0  0  0  0  0  0  0  0  0  0
   13.0605    6.8917   -9.5028 O   0  5  0  0  0  0  0  0  0  0  0  0
   13.4839    8.5389   -7.5090 O   0  0  0  0  0  0  0  0  0  0  0  0
   15.3216    2.7818   -4.7270 C   0  0  2  0  0  0  0  0  0  0  0  0
   15.8983    1.6285   -5.3510 O   0  0  0  0  0  0  0  0  0  0  0  0
   13.8948    2.4677   -4.2078 C   0  0  2  0  0  0  0  0  0  0  0  0
   13.9487    1.3500   -3.2463 N   0  0  0  0  0  0  0  0  0  0  0  0
   13.0095    2.0879   -5.4067 C   0  0  1  0  0  0  0  0  0  0  0  0
   11.6779    1.8084   -4.9666 O   0  0  0  0  0  0  0  0  0  0  0  0
   12.9899    3.2736   -6.3699 C   0  0  2  0  0  0  0  0  0  0  0  0
   12.1774    2.9422   -7.4888 O   0  0  0  0  0  0  0  0  0  0  0  0
   14.4433    3.5640   -6.8338 C   0  0  2  0  0  0  0  0  0  0  0  0
   15.2879    3.8835   -5.6857 O   0  0  0  0  0  0  0  0  0  0  0  0
   14.4757    4.7664   -7.8093 C   0  0  0  0  0  0  0  0  0  0  0  0
   13.9167    5.9406   -7.1926 O   0  0  0  0  0  0  0  0  0  0  0  0
  1  2  1  6  0  0  0
  1  3  1  0  0  0  0
  1  4  2  0  0  0  0
  1 16  1  0  0  0  0
  5  6  1  6  0  0  0
  5  7  1  0  0  0  0
  5 14  1  0  0  0  0
  7  8  1  1  0  0  0
  7  9  1  0  0  0  0
  9 10  1  1  0  0  0
  9 11  1  0  0  0  0
 11 12  1  6  0  0  0
 11 13  1  0  0  0  0
 13 14  1  0  0  0  0
 13 15  1  6  0  0  0
 15 16  1  0  0  0  0
M  CHG  1   3  -1
M  END
>  <CHROM.1>
57.93347305,178.82500329,-55.42435420,13.93525352,4.43094325,-6.62519480
-1.55040532,0.27910345,2.54050366

>  <Name>
ligand

>  <RI>
0

>  <Rbt.Current_Directory>
/home/itssahil/PROJECTS/Mol_Feturizer/New_Systems/rnas/3B4C

>  <Rbt.Executable>
rbdock ($Id: //depot/dev/client3/rdock/2013.1/src/exe/rbdock.cxx#4 $)

>  <Rbt.Library>
libRbt.so (2013.1, Build901 2013/11/27)

>  <Rbt.Parameter_File>
/export/apps/rDock/src/rDock_2013.1_src/data/scripts/dock_solv.prm

>  <Rbt.Receptor>
prm/blind_docking_20.prm

>  <SCORE>
-6.80255

>  <SCORE.INTER>
-5.39581

>  <SCORE.INTER.CONST>
1

>  <SCORE.INTER.POLAR>
0

>  <SCORE.INTER.ROT>
3

>  <SCORE.INTER.SOLV>
8.95786

>  <SCORE.INTER.VDW>
-12.1832

>  <SCORE.INTER.norm>
-0.337238

>  <SCORE.INTRA>
-1.66601

>  <SCORE.INTRA.DIHEDRAL>
-2.0721

>  <SCORE.INTRA.DIHEDRAL.0>
2.1318

>  <SCORE.INTRA.POLAR>
0

>  <SCORE.INTRA.POLAR.0>
0

>  <SCORE.INTRA.REPUL>
0

>  <SCORE.INTRA.REPUL.0>
0

>  <SCORE.INTRA.SOLV>
-0.858564

>  <SCORE.INTRA.SOLV.lig_0>
-58.6125

>  <SCORE.INTRA.VDW>
-0.200672

>  <SCORE.INTRA.VDW.0>
-0.432734

>  <SCORE.INTRA.norm>
-0.104125

>  <SCORE.RESTR>
0.259269

>  <SCORE.RESTR.CAVITY>
0.259269

>  <SCORE.RESTR.norm>
0.0162043

>  <SCORE.SYSTEM>
0

>  <SCORE.SYSTEM.CONST>
0

>  <SCORE.SYSTEM.DIHEDRAL>
0

>  <SCORE.SYSTEM.SOLV>
0

>  <SCORE.SYSTEM.norm>
0

>  <SCORE.heavy>
16

>  <SCORE.norm>
-0.425159

>  <RMSD>
41.941

$$$$
ligand
 OpenBabel11021811463D
libRbt.so/2013.1/901 2013/11/27
 16 16  0  0  0  0  0  0  0  0999 V2000
   14.3930    6.7904   -8.6743 P   0  0  2  0  0  0  0  0  0  0  0  0
   15.4937    6.4066   -9.5921 O   0  0  0  0  0  0  0  0  0  0  0  0
   13.0168    6.8972   -9.5009 O   0  5  0  0  0  0  0  0  0  0  0  0
   14.7265    8.2293   -8.0277 O   0  0  0  0  0  0  0  0  0  0  0  0
   14.9779    2.6773   -4.7257 C   0  0  2  0  0  0  0  0  0  0  0  0
   15.5652    1.4497   -5.1728 O   0  0  0  0  0  0  0  0  0  0  0  0
   13.4948    2.4622   -4.3281 C   0  0  2  0  0  0  0  0  0  0  0  0
   13.4065    1.4454   -3.2627 N   0  0  0  0  0  0  0  0  0  0  0  0
   12.7178    1.9922   -5.5694 C   0  0  1  0  0  0  0  0  0  0  0  0
   11.3386    1.8004   -5.2435 O   0  0  0  0  0  0  0  0  0  0  0  0
   12.8431    3.0753   -6.6395 C   0  0  2  0  0  0  0  0  0  0  0  0
   12.1326    2.6591   -7.7987 O   0  0  0  0  0  0  0  0  0  0  0  0
   14.3463    3.2716   -6.9773 C   0  0  2  0  0  0  0  0  0  0  0  0
   15.0853    3.6778   -5.7847 O   0  0  0  0  0  0  0  0  0  0  0  0
   14.5253    4.3685   -8.0559 C   0  0  0  0  0  0  0  0  0  0  0  0
   14.2472    5.6715   -7.5114 O   0  0  0  0  0  0  0  0  0  0  0  0
  1  2  1  6  0  0  0
  1  3  1  0  0  0  0
  1  4  2  0  0  0  0
  1 16  1  0  0  0  0
  5  6  1  6  0  0  0
  5  7  1  0  0  0  0
  5 14  1  0  0  0  0
  7  8  1  1  0  0  0
  7  9  1  0  0  0  0
  9 10  1  1  0  0  0
  9 11  1  0  0  0  0
 11 12  1  6  0  0  0
 11 13  1  0  0  0  0
 13 14  1  0  0  0  0
 13 15  1  6  0  0  0
 15 16  1  0  0  0  0
M  CHG  1   3  -1
M  END
>  <CHROM.1>
71.31316715,-178.06636920,-35.49675013,13.93585445,4.18874485,-6.87474120
-1.40998121,0.35991087,2.41275185

>  <Name>
ligand

>  <RI>
0

>  <Rbt.Current_Directory>
/home/itssahil/PROJECTS/Mol_Feturizer/New_Systems/rnas/3B4C

>  <Rbt.Executable>
rbdock ($Id: //depot/dev/client3/rdock/2013.1/src/exe/rbdock.cxx#4 $)

>  <Rbt.Library>
libRbt.so (2013.1, Build901 2013/11/27)

>  <Rbt.Parameter_File>
/export/apps/rDock/src/rDock_2013.1_src/data/scripts/dock_solv.prm

>  <Rbt.Receptor>
prm/blind_docking_20.prm

>  <SCORE>
-6.40062

>  <SCORE.INTER>
-5.96772

>  <SCORE.INTER.CONST>
1

>  <SCORE.INTER.POLAR>
0

>  <SCORE.INTER.ROT>
3

>  <SCORE.INTER.SOLV>
11.5687

>  <SCORE.INTER.VDW>
-13.4347

>  <SCORE.INTER.norm>
-0.372983

>  <SCORE.INTRA>
-0.609794

>  <SCORE.INTRA.DIHEDRAL>
-0.793179

>  <SCORE.INTRA.DIHEDRAL.0>
2.1318

>  <SCORE.INTRA.POLAR>
0

>  <SCORE.INTRA.POLAR.0>
0

>  <SCORE.INTRA.REPUL>
0

>  <SCORE.INTRA.REPUL.0>
0

>  <SCORE.INTRA.SOLV>
-1.03507

>  <SCORE.INTRA.SOLV.lig_0>
-58.6125

>  <SCORE.INTRA.VDW>
0.30433

>  <SCORE.INTRA.VDW.0>
-0.432734

>  <SCORE.INTRA.norm>
-0.0381121

>  <SCORE.RESTR>
0.1769

>  <SCORE.RESTR.CAVITY>
0.1769

>  <SCORE.RESTR.norm>
0.0110562

>  <SCORE.SYSTEM>
0

>  <SCORE.SYSTEM.CONST>
0

>  <SCORE.SYSTEM.DIHEDRAL>
0

>  <SCORE.SYSTEM.SOLV>
0

>  <SCORE.SYSTEM.norm>
0

>  <SCORE.heavy>
16

>  <SCORE.norm>
-0.400038

>  <RMSD>
42.112

$$$$
ligand
 OpenBabel11021811463D
libRbt.so/2013.1/901 2013/11/27
 16 16  0  0  0  0  0  0  0  0999 V2000
   14.4494    6.5040   -8.6254 P   0  0  2  0  0  0  0  0  0  0  0  0
   15.5990    6.0821   -9.4631 O   0  0  0  0  0  0  0  0  0  0  0  0
   13.3222    7.1736   -9.5580 O   0  5  0  0  0  0  0  0  0  0  0  0
   14.9549    7.5959   -7.5521 O   0  0  0  0  0  0  0  0  0  0  0  0
   12.1658    2.5882   -5.0992 C   0  0  2  0  0  0  0  0  0  0  0  0
   12.8048    2.4303   -3.8270 O   0  0  0  0  0  0  0  0  0  0  0  0
   12.3497    1.3160   -5.9662 C   0  0  2  0  0  0  0  0  0  0  0  0
   11.7873    0.1474   -5.2628 N   0  0  0  0  0  0  0  0  0  0  0  0
   13.8527    1.1062   -6.2161 C   0  0  1  0  0  0  0  0  0  0  0  0
   14.0597   -0.0515   -7.0299 O   0  0  0  0  0  0  0  0  0  0  0  0
   14.3848    2.3410   -6.9413 C   0  0  2  0  0  0  0  0  0  0  0  0
   15.7758    2.1686   -7.1805 O   0  0  0  0  0  0  0  0  0  0  0  0
   14.1483    3.5870   -6.0448 C   0  0  2  0  0  0  0  0  0  0  0  0
   12.7224    3.7562   -5.7775 O   0  0  0  0  0  0  0  0  0  0  0  0
   14.6664    4.8688   -6.7427 C   0  0  0  0  0  0  0  0  0  0  0  0
   13.8342    5.2117   -7.8658 O   0  0  0  0  0  0  0  0  0  0  0  0
  1  2  1  6  0  0  0
  1  3  1  0  0  0  0
  1  4  2  0  0  0  0
  1 16  1  0  0  0  0
  5  6  1  1  0  0  0
  5  7  1  0  0  0  0
  5 14  1  0  0  0  0
  7  8  1  1  0  0  0
  7  9  1  0  0  0  0
  9 10  1  6  0  0  0
  9 11  1  0  0  0  0
 11 12  1  1  0  0  0
 11 13  1  0  0  0  0
 13 14  1  0  0  0  0
 13 15  1  6  0  0  0
 15 16  1  0  0  0  0
M  CHG  1   3  -1
M  END
>  <CHROM.1>
70.17424312,-176.73482701,77.85440470,13.87743379,3.82420459,-6.98751270
1.21749795,0.82565663,-0.24177251

>  <Name>
ligand

>  <RI>
0

>  <Rbt.Current_Directory>
/home/itssahil/PROJECTS/Mol_Feturizer/New_Systems/rnas/3B4C

>  <Rbt.Executable>
rbdock ($Id: //depot/dev/client3/rdock/2013.1/src/exe/rbdock.cxx#4 $)

>  <Rbt.Library>
libRbt.so (2013.1, Build901 2013/11/27)

>  <Rbt.Parameter_File>
/export/apps/rDock/src/rDock_2013.1_src/data/scripts/dock_solv.prm

>  <Rbt.Receptor>
prm/blind_docking_20.prm

>  <SCORE>
-4.98916

>  <SCORE.INTER>
-3.87902

>  <SCORE.INTER.CONST>
1

>  <SCORE.INTER.POLAR>
0

>  <SCORE.INTER.ROT>
3

>  <SCORE.INTER.SOLV>
13.1318

>  <SCORE.INTER.VDW>
-12.5633

>  <SCORE.INTER.norm>
-0.242438

>  <SCORE.INTRA>
-1.11015

>  <SCORE.INTRA.DIHEDRAL>
-1.21628

>  <SCORE.INTRA.DIHEDRAL.0>
2.1318

>  <SCORE.INTRA.POLAR>
0

>  <SCORE.INTRA.POLAR.0>
0

>  <SCORE.INTRA.REPUL>
0

>  <SCORE.INTRA.REPUL.0>
0

>  <SCORE.INTRA.SOLV>
-0.657379

>  <SCORE.INTRA.SOLV.lig_0>
-58.6125

>  <SCORE.INTRA.VDW>
-0.173316

>  <SCORE.INTRA.VDW.0>
-0.432734

>  <SCORE.INTRA.norm>
-0.0693843

>  <SCORE.RESTR>
0

>  <SCORE.RESTR.CAVITY>
0

>  <SCORE.RESTR.norm>
0

>  <SCORE.SYSTEM>
0

>  <SCORE.SYSTEM.CONST>
0

>  <SCORE.SYSTEM.DIHEDRAL>
0

>  <SCORE.SYSTEM.SOLV>
0

>  <SCORE.SYSTEM.norm>
0

>  <SCORE.heavy>
16

>  <SCORE.norm>
-0.311823

>  <RMSD>
42.329

$$$$
ligand
 OpenBabel11021811463D
libRbt.so/2013.1/901 2013/11/27
 16 16  0  0  0  0  0  0  0  0999 V2000
   14.4719    6.5848   -8.4357 P   0  0  2  0  0  0  0  0  0  0  0  0
   15.1832    7.4030   -7.4229 O   0  0  0  0  0  0  0  0  0  0  0  0
   15.5137    6.0980   -9.5611 O   0  5  0  0  0  0  0  0  0  0  0  0
   13.3332    7.4876   -9.1342 O   0  0  0  0  0  0  0  0  0  0  0  0
   12.0650    2.6009   -5.1245 C   0  0  2  0  0  0  0  0  0  0  0  0
   12.6778    2.3891   -3.8472 O   0  0  0  0  0  0  0  0  0  0  0  0
   12.2102    1.3414   -6.0171 C   0  0  2  0  0  0  0  0  0  0  0  0
   11.5901    0.1818   -5.3481 N   0  0  0  0  0  0  0  0  0  0  0  0
   13.7070    1.0757   -6.2503 C   0  0  1  0  0  0  0  0  0  0  0  0
   13.8790   -0.0715   -7.0867 O   0  0  0  0  0  0  0  0  0  0  0  0
   14.2998    2.3032   -6.9399 C   0  0  2  0  0  0  0  0  0  0  0  0
   15.6861    2.0792   -7.1631 O   0  0  0  0  0  0  0  0  0  0  0  0
   14.1006    3.5379   -6.0191 C   0  0  2  0  0  0  0  0  0  0  0  0
   12.6789    3.7596   -5.7684 O   0  0  0  0  0  0  0  0  0  0  0  0
   14.6810    4.8124   -6.6807 C   0  0  0  0  0  0  0  0  0  0  0  0
   13.8043    5.2965   -7.7144 O   0  0  0  0  0  0  0  0  0  0  0  0
  1  2  1  1  0  0  0
  1  3  1  0  0  0  0
  1  4  2  0  0  0  0
  1 16  1  0  0  0  0
  5  6  1  1  0  0  0
  5  7  1  0  0  0  0
  5 14  1  0  0  0  0
  7  8  1  1  0  0  0
  7  9  1  0  0  0  0
  9 10  1  6  0  0  0
  9 11  1  0  0  0  0
 11 12  1  1  0  0  0
 11 13  1  0  0  0  0
 13 14  1  0  0  0  0
 13 15  1  6  0  0  0
 15 16  1  0  0  0  0
M  CHG  1   3  -1
M  END
>  <CHROM.1>
76.39926773,-177.22080334,-37.10618458,13.82316371,3.83352696,-6.93454150
1.18941806,0.79713439,-0.19025551

>  <Name>
ligand

>  <RI>
0

>  <Rbt.Current_Directory>
/home/itssahil/PROJECTS/Mol_Feturizer/New_Systems/rnas/3B4C

>  <Rbt.Executable>
rbdock ($Id: //depot/dev/client3/rdock/2013.1/src/exe/rbdock.cxx#4 $)

>  <Rbt.Library>
libRbt.so (2013.1, Build901 2013/11/27)

>  <Rbt.Parameter_File>
/export/apps/rDock/src/rDock_2013.1_src/data/scripts/dock_solv.prm

>  <Rbt.Receptor>
prm/blind_docking_20.prm

>  <SCORE>
-3.97686

>  <SCORE.INTER>
-3.53646

>  <SCORE.INTER.CONST>
1

>  <SCORE.INTER.POLAR>
0

>  <SCORE.INTER.ROT>
3

>  <SCORE.INTER.SOLV>
14.9847

>  <SCORE.INTER.VDW>
-12.9525

>  <SCORE.INTER.norm>
-0.221029

>  <SCORE.INTRA>
-0.440396

>  <SCORE.INTRA.DIHEDRAL>
-0.403432

>  <SCORE.INTRA.DIHEDRAL.0>
2.1318

>  <SCORE.INTRA.POLAR>
0

>  <SCORE.INTRA.POLAR.0>
0

>  <SCORE.INTRA.REPUL>
0

>  <SCORE.INTRA.REPUL.0>
0

>  <SCORE.INTRA.SOLV>
-1.02289

>  <SCORE.INTRA.SOLV.lig_0>
-58.6125

>  <SCORE.INTRA.VDW>
0.272767

>  <SCORE.INTRA.VDW.0>
-0.432734

>  <SCORE.INTRA.norm>
-0.0275247

>  <SCORE.RESTR>
0

>  <SCORE.RESTR.CAVITY>
0

>  <SCORE.RESTR.norm>
0

>  <SCORE.SYSTEM>
0

>  <SCORE.SYSTEM.CONST>
0

>  <SCORE.SYSTEM.DIHEDRAL>
0

>  <SCORE.SYSTEM.SOLV>
0

>  <SCORE.SYSTEM.norm>
0

>  <SCORE.heavy>
16

>  <SCORE.norm>
-0.248554

>  <RMSD>
42.350

$$$$
ligand
 OpenBabel11021811463D
libRbt.so/2013.1/901 2013/11/27
 16 16  0  0  0  0  0  0  0  0999 V2000
   14.5414    7.1071   -7.7684 P   0  0  2  0  0  0  0  0  0  0  0  0
   15.5624    7.3278   -6.7148 O   0  0  0  0  0  0  0  0  0  0  0  0
   15.2664    6.9663   -9.1979 O   0  5  0  0  0  0  0  0  0  0  0  0
   13.5474    8.3759   -7.8100 O   0  0  0  0  0  0  0  0  0  0  0  0
   14.1149    0.9191   -7.0255 C   0  0  2  0  0  0  0  0  0  0  0  0
   13.1279    0.7029   -8.0408 O   0  0  0  0  0  0  0  0  0  0  0  0
   13.4670    0.8923   -5.6172 C   0  0  2  0  0  0  0  0  0  0  0  0
   12.7985   -0.4050   -5.4003 N   0  0  0  0  0  0  0  0  0  0  0  0
   12.4406    2.0342   -5.5280 C   0  0  1  0  0  0  0  0  0  0  0  0
   11.8342    2.0514   -4.2329 O   0  0  0  0  0  0  0  0  0  0  0  0
   13.1808    3.3500   -5.7619 C   0  0  2  0  0  0  0  0  0  0  0  0
   12.2483    4.4207   -5.6860 O   0  0  0  0  0  0  0  0  0  0  0  0
   13.8348    3.3113   -7.1701 C   0  0  2  0  0  0  0  0  0  0  0  0
   14.7776    2.1995   -7.2611 O   0  0  0  0  0  0  0  0  0  0  0  0
   14.6054    4.6250   -7.4511 C   0  0  0  0  0  0  0  0  0  0  0  0
   13.7127    5.7540   -7.4397 O   0  0  0  0  0  0  0  0  0  0  0  0
  1  2  1  1  0  0  0
  1  3  1  0  0  0  0
  1  4  2  0  0  0  0
  1 16  1  0  0  0  0
  5  6  1  6  0  0  0
  5  7  1  0  0  0  0
  5 14  1  0  0  0  0
  7  8  1  6  0  0  0
  7  9  1  0  0  0  0
  9 10  1  1  0  0  0
  9 11  1  0  0  0  0
 11 12  1  6  0  0  0
 11 13  1  0  0  0  0
 13 14  1  0  0  0  0
 13 15  1  1  0  0  0
 15 16  1  0  0  0  0
M  CHG  1   3  -1
M  END
>  <CHROM.1>
-61.79979568,-178.76566624,-62.06680415,13.75844663,4.04955006,-6.85367647
1.17722878,0.91262833,0.02383527

>  <Name>
ligand

>  <RI>
0

>  <Rbt.Current_Directory>
/home/itssahil/PROJECTS/Mol_Feturizer/New_Systems/rnas/3B4C

>  <Rbt.Executable>
rbdock ($Id: //depot/dev/client3/rdock/2013.1/src/exe/rbdock.cxx#4 $)

>  <Rbt.Library>
libRbt.so (2013.1, Build901 2013/11/27)

>  <Rbt.Parameter_File>
/export/apps/rDock/src/rDock_2013.1_src/data/scripts/dock_solv.prm

>  <Rbt.Receptor>
prm/blind_docking_20.prm

>  <SCORE>
-4.50709

>  <SCORE.INTER>
-3.13397

>  <SCORE.INTER.CONST>
1

>  <SCORE.INTER.POLAR>
0

>  <SCORE.INTER.ROT>
3

>  <SCORE.INTER.SOLV>
15.1499

>  <SCORE.INTER.VDW>
-12.7393

>  <SCORE.INTER.norm>
-0.195873

>  <SCORE.INTRA>
-1.3737

>  <SCORE.INTRA.DIHEDRAL>
-2.10423

>  <SCORE.INTRA.DIHEDRAL.0>
2.1318

>  <SCORE.INTRA.POLAR>
0

>  <SCORE.INTRA.POLAR.0>
0

>  <SCORE.INTRA.REPUL>
0

>  <SCORE.INTRA.REPUL.0>
0

>  <SCORE.INTRA.SOLV>
-0.574775

>  <SCORE.INTRA.SOLV.lig_0>
-58.6125

>  <SCORE.INTRA.VDW>
-0.0341936

>  <SCORE.INTRA.VDW.0>
-0.432734

>  <SCORE.INTRA.norm>
-0.085856

>  <SCORE.RESTR>
0.000576478

>  <SCORE.RESTR.CAVITY>
0.000576478

>  <SCORE.RESTR.norm>
3.60298e-05

>  <SCORE.SYSTEM>
0

>  <SCORE.SYSTEM.CONST>
0

>  <SCORE.SYSTEM.DIHEDRAL>
0

>  <SCORE.SYSTEM.SOLV>
0

>  <SCORE.SYSTEM.norm>
0

>  <SCORE.heavy>
16

>  <SCORE.norm>
-0.281693

>  <RMSD>
42.366

$$$$
ligand
 OpenBabel11021811463D
libRbt.so/2013.1/901 2013/11/27
 16 16  0  0  0  0  0  0  0  0999 V2000
   14.2887    6.5619   -8.5760 P   0  0  2  0  0  0  0  0  0  0  0  0
   15.5432    6.2768   -9.3151 O   0  0  0  0  0  0  0  0  0  0  0  0
   13.1794    7.1238   -9.5970 O   0  5  0  0  0  0  0  0  0  0  0  0
   14.5828    7.6835   -7.4558 O   0  0  0  0  0  0  0  0  0  0  0  0
   12.1012    2.5623   -5.1149 C   0  0  2  0  0  0  0  0  0  0  0  0
   12.7319    2.4199   -3.8368 O   0  0  0  0  0  0  0  0  0  0  0  0
   12.3139    1.2902   -5.9754 C   0  0  2  0  0  0  0  0  0  0  0  0
   11.7652    0.1149   -5.2723 N   0  0  0  0  0  0  0  0  0  0  0  0
   13.8223    1.1048   -6.2118 C   0  0  1  0  0  0  0  0  0  0  0  0
   14.0557   -0.0522   -7.0192 O   0  0  0  0  0  0  0  0  0  0  0  0
   14.3397    2.3457   -6.9372 C   0  0  2  0  0  0  0  0  0  0  0  0
   15.7354    2.1959   -7.1639 O   0  0  0  0  0  0  0  0  0  0  0  0
   14.0746    3.5909   -6.0475 C   0  0  2  0  0  0  0  0  0  0  0  0
   12.6438    3.7370   -5.7930 O   0  0  0  0  0  0  0  0  0  0  0  0
   14.5771    4.8786   -6.7460 C   0  0  0  0  0  0  0  0  0  0  0  0
   13.7523    5.2000   -7.8808 O   0  0  0  0  0  0  0  0  0  0  0  0
  1  2  1  6  0  0  0
  1  3  1  0  0  0  0
  1  4  2  0  0  0  0
  1 16  1  0  0  0  0
  5  6  1  1  0  0  0
  5  7  1  0  0  0  0
  5 14  1  0  0  0  0
  7  8  1  1  0  0  0
  7  9  1  0  0  0  0
  9 10  1  6  0  0  0
  9 11  1  0  0  0  0
 11 12  1  1  0  0  0
 11 13  1  0  0  0  0
 13 14  1  0  0  0  0
 13 15  1  6  0  0  0
 15 16  1  0  0  0  0
M  CHG  1   3  -1
M  END
>  <CHROM.1>
69.92004812,179.15186698,73.90337630,13.78473668,3.84156899,-6.97093651,1.25993616
0.80538880,-0.26345375

>  <Name>
ligand

>  <RI>
0

>  <Rbt.Current_Directory>
/home/itssahil/PROJECTS/Mol_Feturizer/New_Systems/rnas/3B4C

>  <Rbt.Executable>
rbdock ($Id: //depot/dev/client3/rdock/2013.1/src/exe/rbdock.cxx#4 $)

>  <Rbt.Library>
libRbt.so (2013.1, Build901 2013/11/27)

>  <Rbt.Parameter_File>
/export/apps/rDock/src/rDock_2013.1_src/data/scripts/dock_solv.prm

>  <Rbt.Receptor>
prm/blind_docking_20.prm

>  <SCORE>
-5.03614

>  <SCORE.INTER>
-3.75558

>  <SCORE.INTER.CONST>
1

>  <SCORE.INTER.POLAR>
0

>  <SCORE.INTER.ROT>
3

>  <SCORE.INTER.SOLV>
12.0683

>  <SCORE.INTER.VDW>
-12.1265

>  <SCORE.INTER.norm>
-0.234724

>  <SCORE.INTRA>
-1.28056

>  <SCORE.INTRA.DIHEDRAL>
-1.4668

>  <SCORE.INTRA.DIHEDRAL.0>
2.1318

>  <SCORE.INTRA.POLAR>
0

>  <SCORE.INTRA.POLAR.0>
0

>  <SCORE.INTRA.REPUL>
0

>  <SCORE.INTRA.REPUL.0>
0

>  <SCORE.INTRA.SOLV>
-0.687429

>  <SCORE.INTRA.SOLV.lig_0>
-58.6125

>  <SCORE.INTRA.VDW>
-0.203444

>  <SCORE.INTRA.VDW.0>
-0.432734

>  <SCORE.INTRA.norm>
-0.080035

>  <SCORE.RESTR>
0

>  <SCORE.RESTR.CAVITY>
0

>  <SCORE.RESTR.norm>
0

>  <SCORE.SYSTEM>
0

>  <SCORE.SYSTEM.CONST>
0

>  <SCORE.SYSTEM.DIHEDRAL>
0

>  <SCORE.SYSTEM.SOLV>
0

>  <SCORE.SYSTEM.norm>
0

>  <SCORE.heavy>
16

>  <SCORE.norm>
-0.314759

>  <RMSD>
42.394

$$$$
ligand
 OpenBabel11021811463D
libRbt.so/2013.1/901 2013/11/27
 16 16  0  0  0  0  0  0  0  0999 V2000
   14.5792    7.0073   -7.6414 P   0  0  2  0  0  0  0  0  0  0  0  0
   15.5568    7.2445   -6.5507 O   0  0  0  0  0  0  0  0  0  0  0  0
   15.3647    6.7859   -9.0281 O   0  5  0  0  0  0  0  0  0  0  0  0
   13.6261    8.3001   -7.7821 O   0  0  0  0  0  0  0  0  0  0  0  0
   14.0668    0.9093   -6.4615 C   0  0  2  0  0  0  0  0  0  0  0  0
   13.5734    0.5827   -7.7660 O   0  0  0  0  0  0  0  0  0  0  0  0
   12.9126    0.9201   -5.4263 C   0  0  2  0  0  0  0  0  0  0  0  0
   12.2548   -0.4003   -5.3989 N   0  0  0  0  0  0  0  0  0  0  0  0
   11.8998    2.0039   -5.8325 C   0  0  1  0  0  0  0  0  0  0  0  0
   10.8275    2.0548   -4.8877 O   0  0  0  0  0  0  0  0  0  0  0  0
   12.6296    3.3459   -5.8484 C   0  0  2  0  0  0  0  0  0  0  0  0
   11.7104    4.3635   -6.2246 O   0  0  0  0  0  0  0  0  0  0  0  0
   13.7913    3.2702   -6.8764 C   0  0  2  0  0  0  0  0  0  0  0  0
   14.7273    2.2115   -6.5071 O   0  0  0  0  0  0  0  0  0  0  0  0
   14.5677    4.6095   -6.9234 C   0  0  0  0  0  0  0  0  0  0  0  0
   13.6967    5.6928   -7.2966 O   0  0  0  0  0  0  0  0  0  0  0  0
  1  2  1  1  0  0  0
  1  3  1  0  0  0  0
  1  4  2  0  0  0  0
  1 16  1  0  0  0  0
  5  6  1  6  0  0  0
  5  7  1  0  0  0  0
  5 14  1  0  0  0  0
  7  8  1  6  0  0  0
  7  9  1  0  0  0  0
  9 10  1  1  0  0  0
  9 11  1  0  0  0  0
 11 12  1  6  0  0  0
 11 13  1  0  0  0  0
 13 14  1  0  0  0  0
 13 15  1  1  0  0  0
 15 16  1  0  0  0  0
M  CHG  1   3  -1
M  END
>  <CHROM.1>
-59.56254529,-168.13563811,-49.17955117,13.57792337,3.99801535,-6.75307104
-1.21531133,-0.52204341,3.04056390

>  <Name>
ligand

>  <RI>
0

>  <Rbt.Current_Directory>
/home/itssahil/PROJECTS/Mol_Feturizer/New_Systems/rnas/3B4C

>  <Rbt.Executable>
rbdock ($Id: //depot/dev/client3/rdock/2013.1/src/exe/rbdock.cxx#4 $)

>  <Rbt.Library>
libRbt.so (2013.1, Build901 2013/11/27)

>  <Rbt.Parameter_File>
/export/apps/rDock/src/rDock_2013.1_src/data/scripts/dock_solv.prm

>  <Rbt.Receptor>
prm/blind_docking_20.prm

>  <SCORE>
-4.4673

>  <SCORE.INTER>
-3.69279

>  <SCORE.INTER.CONST>
1

>  <SCORE.INTER.POLAR>
0

>  <SCORE.INTER.ROT>
3

>  <SCORE.INTER.SOLV>
14.5375

>  <SCORE.INTER.VDW>
-12.9077

>  <SCORE.INTER.norm>
-0.230799

>  <SCORE.INTRA>
-0.774519

>  <SCORE.INTRA.DIHEDRAL>
-1.26533

>  <SCORE.INTRA.DIHEDRAL.0>
2.1318

>  <SCORE.INTRA.POLAR>
0

>  <SCORE.INTRA.POLAR.0>
0

>  <SCORE.INTRA.REPUL>
0

>  <SCORE.INTRA.REPUL.0>
0

>  <SCORE.INTRA.SOLV>
-0.69949

>  <SCORE.INTRA.SOLV.lig_0>
-58.6125

>  <SCORE.INTRA.VDW>
0.207892

>  <SCORE.INTRA.VDW.0>
-0.432734

>  <SCORE.INTRA.norm>
-0.0484074

>  <SCORE.RESTR>
0

>  <SCORE.RESTR.CAVITY>
0

>  <SCORE.RESTR.norm>
0

>  <SCORE.SYSTEM>
0

>  <SCORE.SYSTEM.CONST>
0

>  <SCORE.SYSTEM.DIHEDRAL>
0

>  <SCORE.SYSTEM.SOLV>
0

>  <SCORE.SYSTEM.norm>
0

>  <SCORE.heavy>
16

>  <SCORE.norm>
-0.279207

>  <RMSD>
42.471

$$$$
ligand
 OpenBabel11021811463D
libRbt.so/2013.1/901 2013/11/27
 16 16  0  0  0  0  0  0  0  0999 V2000
   14.5778    6.9925   -7.6320 P   0  0  2  0  0  0  0  0  0  0  0  0
   15.5595    7.2338   -6.5460 O   0  0  0  0  0  0  0  0  0  0  0  0
   15.3579    6.7662   -9.0209 O   0  5  0  0  0  0  0  0  0  0  0  0
   13.6238    8.2846   -7.7738 O   0  0  0  0  0  0  0  0  0  0  0  0
   14.0684    0.8965   -6.4386 C   0  0  2  0  0  0  0  0  0  0  0  0
   13.5941    0.5624   -7.7483 O   0  0  0  0  0  0  0  0  0  0  0  0
   12.8996    0.9106   -5.4199 C   0  0  2  0  0  0  0  0  0  0  0  0
   12.2436   -0.4107   -5.3951 N   0  0  0  0  0  0  0  0  0  0  0  0
   11.8909    1.9906   -5.8461 C   0  0  1  0  0  0  0  0  0  0  0  0
   10.8052    2.0446   -4.9168 O   0  0  0  0  0  0  0  0  0  0  0  0
   12.6187    3.3338   -5.8585 C   0  0  2  0  0  0  0  0  0  0  0  0
   11.7033    4.3479   -6.2529 O   0  0  0  0  0  0  0  0  0  0  0  0
   13.7950    3.2548   -6.8696 C   0  0  2  0  0  0  0  0  0  0  0  0
   14.7274    2.1996   -6.4815 O   0  0  0  0  0  0  0  0  0  0  0  0
   14.5698    4.5951   -6.9124 C   0  0  0  0  0  0  0  0  0  0  0  0
   13.6969    5.6791   -7.2791 O   0  0  0  0  0  0  0  0  0  0  0  0
  1  2  1  1  0  0  0
  1  3  1  0  0  0  0
  1  4  2  0  0  0  0
  1 16  1  0  0  0  0
  5  6  1  6  0  0  0
  5  7  1  0  0  0  0
  5 14  1  0  0  0  0
  7  8  1  6  0  0  0
  7  9  1  0  0  0  0
  9 10  1  1  0  0  0
  9 11  1  0  0  0  0
 11 12  1  6  0  0  0
 11 13  1  0  0  0  0
 13 14  1  0  0  0  0
 13 15  1  1  0  0  0
 15 16  1  0  0  0  0
M  CHG  1   3  -1
M  END
>  <CHROM.1>
-58.48111507,-167.66648041,-49.49470648,13.57488858,3.98408390,-6.74897830
-1.21764349,-0.50773907,3.03618526

>  <Name>
ligand

>  <RI>
0

>  <Rbt.Current_Directory>
/home/itssahil/PROJECTS/Mol_Feturizer/New_Systems/rnas/3B4C

>  <Rbt.Executable>
rbdock ($Id: //depot/dev/client3/rdock/2013.1/src/exe/rbdock.cxx#4 $)

>  <Rbt.Library>
libRbt.so (2013.1, Build901 2013/11/27)

>  <Rbt.Parameter_File>
/export/apps/rDock/src/rDock_2013.1_src/data/scripts/dock_solv.prm

>  <Rbt.Receptor>
prm/blind_docking_20.prm

>  <SCORE>
-4.47876

>  <SCORE.INTER>
-3.76137

>  <SCORE.INTER.CONST>
1

>  <SCORE.INTER.POLAR>
0

>  <SCORE.INTER.ROT>
3

>  <SCORE.INTER.SOLV>
14.3742

>  <SCORE.INTER.VDW>
-12.899

>  <SCORE.INTER.norm>
-0.235085

>  <SCORE.INTRA>
-0.717397

>  <SCORE.INTRA.DIHEDRAL>
-1.21555

>  <SCORE.INTRA.DIHEDRAL.0>
2.1318

>  <SCORE.INTRA.POLAR>
0

>  <SCORE.INTRA.POLAR.0>
0

>  <SCORE.INTRA.REPUL>
0

>  <SCORE.INTRA.REPUL.0>
0

>  <SCORE.INTRA.SOLV>
-0.685289

>  <SCORE.INTRA.SOLV.lig_0>
-58.6125

>  <SCORE.INTRA.VDW>
0.233021

>  <SCORE.INTRA.VDW.0>
-0.432734

>  <SCORE.INTRA.norm>
-0.0448373

>  <SCORE.RESTR>
0

>  <SCORE.RESTR.CAVITY>
0

>  <SCORE.RESTR.norm>
0

>  <SCORE.SYSTEM>
0

>  <SCORE.SYSTEM.CONST>
0

>  <SCORE.SYSTEM.DIHEDRAL>
0

>  <SCORE.SYSTEM.SOLV>
0

>  <SCORE.SYSTEM.norm>
0

>  <SCORE.heavy>
16

>  <SCORE.norm>
-0.279923

>  <RMSD>
42.473

$$$$
ligand
 OpenBabel11021811463D
libRbt.so/2013.1/901 2013/11/27
 16 16  0  0  0  0  0  0  0  0999 V2000
   14.5526    6.9962   -7.6460 P   0  0  2  0  0  0  0  0  0  0  0  0
   15.5481    7.2331   -6.5718 O   0  0  0  0  0  0  0  0  0  0  0  0
   15.3147    6.7774   -9.0461 O   0  5  0  0  0  0  0  0  0  0  0  0
   13.5957    8.2880   -7.7690 O   0  0  0  0  0  0  0  0  0  0  0  0
   14.0424    0.8916   -6.4801 C   0  0  2  0  0  0  0  0  0  0  0  0
   13.5458    0.5579   -7.7815 O   0  0  0  0  0  0  0  0  0  0  0  0
   12.8898    0.9141   -5.4432 C   0  0  2  0  0  0  0  0  0  0  0  0
   12.2270   -0.4035   -5.4057 N   0  0  0  0  0  0  0  0  0  0  0  0
   11.8806    1.9989   -5.8556 C   0  0  1  0  0  0  0  0  0  0  0  0
   10.8099    2.0606   -4.9095 O   0  0  0  0  0  0  0  0  0  0  0  0
   12.6155    3.3380   -5.8819 C   0  0  2  0  0  0  0  0  0  0  0  0
   11.6996    4.3564   -6.2638 O   0  0  0  0  0  0  0  0  0  0  0  0
   13.7754    3.2507   -6.9111 C   0  0  2  0  0  0  0  0  0  0  0  0
   14.7078    2.1909   -6.5357 O   0  0  0  0  0  0  0  0  0  0  0  0
   14.5569    4.5865   -6.9685 C   0  0  0  0  0  0  0  0  0  0  0  0
   13.6775    5.6802   -7.2881 O   0  0  0  0  0  0  0  0  0  0  0  0
  1  2  1  1  0  0  0
  1  3  1  0  0  0  0
  1  4  2  0  0  0  0
  1 16  1  0  0  0  0
  5  6  1  6  0  0  0
  5  7  1  0  0  0  0
  5 14  1  0  0  0  0
  7  8  1  6  0  0  0
  7  9  1  0  0  0  0
  9 10  1  1  0  0  0
  9 11  1  0  0  0  0
 11 12  1  6  0  0  0
 11 13  1  0  0  0  0
 13 14  1  0  0  0  0
 13 15  1  1  0  0  0
 15 16  1  0  0  0  0
M  CHG  1   3  -1
M  END
>  <CHROM.1>
-56.92785903,-168.20563291,-50.82871515,13.55587026,3.98647509,-6.77085975
-1.21699832,-0.52157261,3.04219134

>  <Name>
ligand

>  <RI>
0

>  <Rbt.Current_Directory>
/home/itssahil/PROJECTS/Mol_Feturizer/New_Systems/rnas/3B4C

>  <Rbt.Executable>
rbdock ($Id: //depot/dev/client3/rdock/2013.1/src/exe/rbdock.cxx#4 $)

>  <Rbt.Library>
libRbt.so (2013.1, Build901 2013/11/27)

>  <Rbt.Parameter_File>
/export/apps/rDock/src/rDock_2013.1_src/data/scripts/dock_solv.prm

>  <Rbt.Receptor>
prm/blind_docking_20.prm

>  <SCORE>
-4.44882

>  <SCORE.INTER>
-3.72937

>  <SCORE.INTER.CONST>
1

>  <SCORE.INTER.POLAR>
0

>  <SCORE.INTER.ROT>
3

>  <SCORE.INTER.SOLV>
14.189

>  <SCORE.INTER.VDW>
-12.8159

>  <SCORE.INTER.norm>
-0.233086

>  <SCORE.INTRA>
-0.719449

>  <SCORE.INTRA.DIHEDRAL>
-1.29096

>  <SCORE.INTRA.DIHEDRAL.0>
2.1318

>  <SCORE.INTRA.POLAR>
0

>  <SCORE.INTRA.POLAR.0>
0

>  <SCORE.INTRA.REPUL>
0

>  <SCORE.INTRA.REPUL.0>
0

>  <SCORE.INTRA.SOLV>
-0.658199

>  <SCORE.INTRA.SOLV.lig_0>
-58.6125

>  <SCORE.INTRA.VDW>
0.25513

>  <SCORE.INTRA.VDW.0>
-0.432734

>  <SCORE.INTRA.norm>
-0.0449655

>  <SCORE.RESTR>
0

>  <SCORE.RESTR.CAVITY>
0

>  <SCORE.RESTR.norm>
0

>  <SCORE.SYSTEM>
0

>  <SCORE.SYSTEM.CONST>
0

>  <SCORE.SYSTEM.DIHEDRAL>
0

>  <SCORE.SYSTEM.SOLV>
0

>  <SCORE.SYSTEM.norm>
0

>  <SCORE.heavy>
16

>  <SCORE.norm>
-0.278051

>  <RMSD>
42.500

$$$$
ligand
 OpenBabel11021811463D
libRbt.so/2013.1/901 2013/11/27
 16 16  0  0  0  0  0  0  0  0999 V2000
   14.1191    6.0194   -8.9128 P   0  0  2  0  0  0  0  0  0  0  0  0
   15.5061    6.0842   -9.4357 O   0  0  0  0  0  0  0  0  0  0  0  0
   13.4311    4.6434   -9.3842 O   0  5  0  0  0  0  0  0  0  0  0  0
   13.2748    7.2564   -9.5099 O   0  0  0  0  0  0  0  0  0  0  0  0
   14.6212    1.3197   -6.4633 C   0  0  2  0  0  0  0  0  0  0  0  0
   14.1210    1.0304   -7.7740 O   0  0  0  0  0  0  0  0  0  0  0  0
   13.4809    1.2535   -5.4149 C   0  0  2  0  0  0  0  0  0  0  0  0
   12.8640   -0.0867   -5.4330 N   0  0  0  0  0  0  0  0  0  0  0  0
   12.4304    2.3208   -5.7651 C   0  0  1  0  0  0  0  0  0  0  0  0
   11.3695    2.3008   -4.8063 O   0  0  0  0  0  0  0  0  0  0  0  0
   13.1188    3.6843   -5.7356 C   0  0  2  0  0  0  0  0  0  0  0  0
   12.1642    4.6872   -6.0594 O   0  0  0  0  0  0  0  0  0  0  0  0
   14.2687    3.6857   -6.7795 C   0  0  2  0  0  0  0  0  0  0  0  0
   15.2412    2.6425   -6.4642 O   0  0  0  0  0  0  0  0  0  0  0  0
   15.0033    5.0491   -6.7816 C   0  0  0  0  0  0  0  0  0  0  0  0
   14.1503    6.0889   -7.2942 O   0  0  0  0  0  0  0  0  0  0  0  0
  1  2  1  6  0  0  0
  1  3  1  0  0  0  0
  1  4  2  0  0  0  0
  1 16  1  0  0  0  0
  5  6  1  6  0  0  0
  5  7  1  0  0  0  0
  5 14  1  0  0  0  0
  7  8  1  6  0  0  0
  7  9  1  0  0  0  0
  9 10  1  1  0  0  0
  9 11  1  0  0  0  0
 11 12  1  6  0  0  0
 11 13  1  0  0  0  0
 13 14  1  0  0  0  0
 13 15  1  1  0  0  0
 15 16  1  0  0  0  0
M  CHG  1   3  -1
M  END
>  <CHROM.1>
-68.24693985,-79.19493182,-55.07360870,13.72590859,3.85341860,-7.18583819
-1.33602853,-0.68088276,2.70294868

>  <Name>
ligand

>  <RI>
0

>  <Rbt.Current_Directory>
/home/itssahil/PROJECTS/Mol_Feturizer/New_Systems/rnas/3B4C

>  <Rbt.Executable>
rbdock ($Id: //depot/dev/client3/rdock/2013.1/src/exe/rbdock.cxx#4 $)

>  <Rbt.Library>
libRbt.so (2013.1, Build901 2013/11/27)

>  <Rbt.Parameter_File>
/export/apps/rDock/src/rDock_2013.1_src/data/scripts/dock_solv.prm

>  <Rbt.Receptor>
prm/blind_docking_20.prm

>  <SCORE>
-3.13432

>  <SCORE.INTER>
-3.82119

>  <SCORE.INTER.CONST>
1

>  <SCORE.INTER.POLAR>
0

>  <SCORE.INTER.ROT>
3

>  <SCORE.INTER.SOLV>
7.41629

>  <SCORE.INTER.VDW>
-10.6196

>  <SCORE.INTER.norm>
-0.238824

>  <SCORE.INTRA>
0.686863

>  <SCORE.INTRA.DIHEDRAL>
-0.178471

>  <SCORE.INTRA.DIHEDRAL.0>
2.1318

>  <SCORE.INTRA.POLAR>
0

>  <SCORE.INTRA.POLAR.0>
0

>  <SCORE.INTRA.REPUL>
0

>  <SCORE.INTRA.REPUL.0>
0

>  <SCORE.INTRA.SOLV>
2.30889

>  <SCORE.INTRA.SOLV.lig_0>
-58.6125

>  <SCORE.INTRA.VDW>
-0.378346

>  <SCORE.INTRA.VDW.0>
-0.432734

>  <SCORE.INTRA.norm>
0.0429289

>  <SCORE.RESTR>
0

>  <SCORE.RESTR.CAVITY>
0

>  <SCORE.RESTR.norm>
0

>  <SCORE.SYSTEM>
0

>  <SCORE.SYSTEM.CONST>
0

>  <SCORE.SYSTEM.DIHEDRAL>
0

>  <SCORE.SYSTEM.SOLV>
0

>  <SCORE.SYSTEM.norm>
0

>  <SCORE.heavy>
16

>  <SCORE.norm>
-0.195895

>  <RMSD>
42.501

$$$$
ligand
 OpenBabel11021811463D
libRbt.so/2013.1/901 2013/11/27
 16 16  0  0  0  0  0  0  0  0999 V2000
   14.5041    6.7599   -7.7397 P   0  0  2  0  0  0  0  0  0  0  0  0
   14.7487    7.7761   -8.7927 O   0  0  0  0  0  0  0  0  0  0  0  0
   13.0377    6.9769   -7.1139 O   0  5  0  0  0  0  0  0  0  0  0  0
   15.6016    6.9391   -6.5722 O   0  0  0  0  0  0  0  0  0  0  0  0
   11.2165    3.3953   -6.8967 C   0  0  2  0  0  0  0  0  0  0  0  0
   10.7693    4.5703   -6.2101 O   0  0  0  0  0  0  0  0  0  0  0  0
   11.3587    2.2063   -5.9118 C   0  0  2  0  0  0  0  0  0  0  0  0
   10.0630    1.9434   -5.2570 N   0  0  0  0  0  0  0  0  0  0  0  0
   12.4175    2.5677   -4.8565 C   0  0  1  0  0  0  0  0  0  0  0  0
   12.5886    1.4840   -3.9392 O   0  0  0  0  0  0  0  0  0  0  0  0
   13.7344    2.8324   -5.5844 C   0  0  2  0  0  0  0  0  0  0  0  0
   14.7283    3.1713   -4.6258 O   0  0  0  0  0  0  0  0  0  0  0  0
   13.5282    4.0087   -6.5774 C   0  0  2  0  0  0  0  0  0  0  0  0
   12.4922    3.6746   -7.5513 O   0  0  0  0  0  0  0  0  0  0  0  0
   14.8380    4.3105   -7.3467 C   0  0  0  0  0  0  0  0  0  0  0  0
   14.6087    5.2781   -8.3871 O   0  0  0  0  0  0  0  0  0  0  0  0
  1  2  1  6  0  0  0
  1  3  1  0  0  0  0
  1  4  2  0  0  0  0
  1 16  1  0  0  0  0
  5  6  1  1  0  0  0
  5  7  1  0  0  0  0
  5 14  1  0  0  0  0
  7  8  1  1  0  0  0
  7  9  1  0  0  0  0
  9 10  1  1  0  0  0
  9 11  1  0  0  0  0
 11 12  1  1  0  0  0
 11 13  1  0  0  0  0
 13 14  1  0  0  0  0
 13 15  1  6  0  0  0
 15 16  1  0  0  0  0
M  CHG  1   3  -1
M  END
>  <CHROM.1>
172.50990102,77.24657194,160.16229610,13.27250163,4.48392400,-6.56798285
1.05265712,-0.22338247,-0.65305093

>  <Name>
ligand

>  <RI>
0

>  <Rbt.Current_Directory>
/home/itssahil/PROJECTS/Mol_Feturizer/New_Systems/rnas/3B4C

>  <Rbt.Executable>
rbdock ($Id: //depot/dev/client3/rdock/2013.1/src/exe/rbdock.cxx#4 $)

>  <Rbt.Library>
libRbt.so (2013.1, Build901 2013/11/27)

>  <Rbt.Parameter_File>
/export/apps/rDock/src/rDock_2013.1_src/data/scripts/dock_solv.prm

>  <Rbt.Receptor>
prm/blind_docking_20.prm

>  <SCORE>
-3.96086

>  <SCORE.INTER>
-4.97586

>  <SCORE.INTER.CONST>
1

>  <SCORE.INTER.POLAR>
0

>  <SCORE.INTER.ROT>
3

>  <SCORE.INTER.SOLV>
17.9224

>  <SCORE.INTER.VDW>
-14.8914

>  <SCORE.INTER.norm>
-0.310991

>  <SCORE.INTRA>
1.01344

>  <SCORE.INTRA.DIHEDRAL>
0.0256452

>  <SCORE.INTRA.DIHEDRAL.0>
2.1318

>  <SCORE.INTRA.POLAR>
0

>  <SCORE.INTRA.POLAR.0>
0

>  <SCORE.INTRA.REPUL>
0

>  <SCORE.INTRA.REPUL.0>
0

>  <SCORE.INTRA.SOLV>
2.9

>  <SCORE.INTRA.SOLV.lig_0>
-58.6125

>  <SCORE.INTRA.VDW>
-0.44938

>  <SCORE.INTRA.VDW.0>
-0.432734

>  <SCORE.INTRA.norm>
0.0633401

>  <SCORE.RESTR>
0.00155269

>  <SCORE.RESTR.CAVITY>
0.00155269

>  <SCORE.RESTR.norm>
9.70429e-05

>  <SCORE.SYSTEM>
0

>  <SCORE.SYSTEM.CONST>
0

>  <SCORE.SYSTEM.DIHEDRAL>
0

>  <SCORE.SYSTEM.SOLV>
0

>  <SCORE.SYSTEM.norm>
0

>  <SCORE.heavy>
16

>  <SCORE.norm>
-0.247554

>  <RMSD>
42.548

$$$$
ligand
 OpenBabel11021811463D
libRbt.so/2013.1/901 2013/11/27
 16 16  0  0  0  0  0  0  0  0999 V2000
   14.4884    6.8367   -7.7038 P   0  0  2  0  0  0  0  0  0  0  0  0
   15.5916    7.0048   -6.7261 O   0  0  0  0  0  0  0  0  0  0  0  0
   14.5956    7.9751   -8.8358 O   0  5  0  0  0  0  0  0  0  0  0  0
   13.0789    6.9941   -6.9370 O   0  0  0  0  0  0  0  0  0  0  0  0
   11.1892    3.4957   -6.9132 C   0  0  2  0  0  0  0  0  0  0  0  0
   10.7596    4.6650   -6.2059 O   0  0  0  0  0  0  0  0  0  0  0  0
   11.3243    2.2903   -5.9474 C   0  0  2  0  0  0  0  0  0  0  0  0
   10.0300    2.0318   -5.2882 N   0  0  0  0  0  0  0  0  0  0  0  0
   12.3939    2.6238   -4.8938 C   0  0  1  0  0  0  0  0  0  0  0  0
   12.5587    1.5244   -3.9942 O   0  0  0  0  0  0  0  0  0  0  0  0
   13.7089    2.8850   -5.6262 C   0  0  2  0  0  0  0  0  0  0  0  0
   14.7127    3.1982   -4.6690 O   0  0  0  0  0  0  0  0  0  0  0  0
   13.5096    4.0785   -6.5997 C   0  0  2  0  0  0  0  0  0  0  0  0
   12.4637    3.7709   -7.5719 O   0  0  0  0  0  0  0  0  0  0  0  0
   14.8178    4.3775   -7.3730 C   0  0  0  0  0  0  0  0  0  0  0  0
   14.5953    5.3722   -8.3891 O   0  0  0  0  0  0  0  0  0  0  0  0
  1  2  1  1  0  0  0
  1  3  1  0  0  0  0
  1  4  2  0  0  0  0
  1 16  1  0  0  0  0
  5  6  1  1  0  0  0
  5  7  1  0  0  0  0
  5 14  1  0  0  0  0
  7  8  1  1  0  0  0
  7  9  1  0  0  0  0
  9 10  1  1  0  0  0
  9 11  1  0  0  0  0
 11 12  1  1  0  0  0
 11 13  1  0  0  0  0
 13 14  1  0  0  0  0
 13 15  1  6  0  0  0
 15 16  1  0  0  0  0
M  CHG  1   3  -1
M  END
>  <CHROM.1>
173.02837821,76.07616549,46.31826473,13.24702965,4.56100434,-6.58336718,1.05916071
-0.20050306,-0.63169809

>  <Name>
ligand

>  <RI>
0

>  <Rbt.Current_Directory>
/home/itssahil/PROJECTS/Mol_Feturizer/New_Systems/rnas/3B4C

>  <Rbt.Executable>
rbdock ($Id: //depot/dev/client3/rdock/2013.1/src/exe/rbdock.cxx#4 $)

>  <Rbt.Library>
libRbt.so (2013.1, Build901 2013/11/27)

>  <Rbt.Parameter_File>
/export/apps/rDock/src/rDock_2013.1_src/data/scripts/dock_solv.prm

>  <Rbt.Receptor>
prm/blind_docking_20.prm

>  <SCORE>
-4.78713

>  <SCORE.INTER>
-5.21488

>  <SCORE.INTER.CONST>
1

>  <SCORE.INTER.POLAR>
0

>  <SCORE.INTER.ROT>
3

>  <SCORE.INTER.SOLV>
17.3289

>  <SCORE.INTER.VDW>
-14.8529

>  <SCORE.INTER.norm>
-0.32593

>  <SCORE.INTRA>
0.427753

>  <SCORE.INTRA.DIHEDRAL>
-0.464658

>  <SCORE.INTRA.DIHEDRAL.0>
2.1318

>  <SCORE.INTRA.POLAR>
0

>  <SCORE.INTRA.POLAR.0>
0

>  <SCORE.INTRA.REPUL>
0

>  <SCORE.INTRA.REPUL.0>
0

>  <SCORE.INTRA.SOLV>
1.88034

>  <SCORE.INTRA.SOLV.lig_0>
-58.6125

>  <SCORE.INTRA.VDW>
-0.280089

>  <SCORE.INTRA.VDW.0>
-0.432734

>  <SCORE.INTRA.norm>
0.0267346

>  <SCORE.RESTR>
0

>  <SCORE.RESTR.CAVITY>
0

>  <SCORE.RESTR.norm>
0

>  <SCORE.SYSTEM>
0

>  <SCORE.SYSTEM.CONST>
0

>  <SCORE.SYSTEM.DIHEDRAL>
0

>  <SCORE.SYSTEM.SOLV>
0

>  <SCORE.SYSTEM.norm>
0

>  <SCORE.heavy>
16

>  <SCORE.norm>
-0.299196

>  <RMSD>
42.563

$$$$
ligand
 OpenBabel11021811463D
libRbt.so/2013.1/901 2013/11/27
 16 16  0  0  0  0  0  0  0  0999 V2000
   14.6225    6.7808   -8.3377 P   0  0  2  0  0  0  0  0  0  0  0  0
   15.4489    6.4269   -9.5180 O   0  0  0  0  0  0  0  0  0  0  0  0
   13.7311    8.0771   -8.6752 O   0  5  0  0  0  0  0  0  0  0  0  0
   15.5960    7.1248   -7.0994 O   0  0  0  0  0  0  0  0  0  0  0  0
   13.5327    0.7325   -7.2395 C   0  0  2  0  0  0  0  0  0  0  0  0
   12.3785    0.6436   -8.0832 O   0  0  0  0  0  0  0  0  0  0  0  0
   13.1163    0.8072   -5.7479 C   0  0  2  0  0  0  0  0  0  0  0  0
   12.3234   -0.3847   -5.3910 N   0  0  0  0  0  0  0  0  0  0  0  0
   12.2782    2.0793   -5.5361 C   0  0  1  0  0  0  0  0  0  0  0  0
   11.8906    2.1908   -4.1640 O   0  0  0  0  0  0  0  0  0  0  0  0
   13.1411    3.2796   -5.9214 C   0  0  2  0  0  0  0  0  0  0  0  0
   12.3832    4.4681   -5.7350 O   0  0  0  0  0  0  0  0  0  0  0  0
   13.5546    3.1391   -7.4119 C   0  0  2  0  0  0  0  0  0  0  0  0
   14.3148    1.9083   -7.6135 O   0  0  0  0  0  0  0  0  0  0  0  0
   14.4396    4.3328   -7.8484 C   0  0  0  0  0  0  0  0  0  0  0  0
   13.6563    5.5347   -7.9642 O   0  0  0  0  0  0  0  0  0  0  0  0
  1  2  1  6  0  0  0
  1  3  1  0  0  0  0
  1  4  2  0  0  0  0
  1 16  1  0  0  0  0
  5  6  1  6  0  0  0
  5  7  1  0  0  0  0
  5 14  1  0  0  0  0
  7  8  1  6  0  0  0
  7  9  1  0  0  0  0
  9 10  1  1  0  0  0
  9 11  1  0  0  0  0
 11 12  1  6  0  0  0
 11 13  1  0  0  0  0
 13 14  1  0  0  0  0
 13 15  1  1  0  0  0
 15 16  1  0  0  0  0
M  CHG  1   3  -1
M  END
>  <CHROM.1>
-72.11475009,176.74683734,51.75044225,13.61669418,3.87970058,-7.14087330
-0.89324108,-1.06317169,-2.91016770

>  <Name>
ligand

>  <RI>
0

>  <Rbt.Current_Directory>
/home/itssahil/PROJECTS/Mol_Feturizer/New_Systems/rnas/3B4C

>  <Rbt.Executable>
rbdock ($Id: //depot/dev/client3/rdock/2013.1/src/exe/rbdock.cxx#4 $)

>  <Rbt.Library>
libRbt.so (2013.1, Build901 2013/11/27)

>  <Rbt.Parameter_File>
/export/apps/rDock/src/rDock_2013.1_src/data/scripts/dock_solv.prm

>  <Rbt.Receptor>
prm/blind_docking_20.prm

>  <SCORE>
-4.30965

>  <SCORE.INTER>
-3.0957

>  <SCORE.INTER.CONST>
1

>  <SCORE.INTER.POLAR>
0

>  <SCORE.INTER.ROT>
3

>  <SCORE.INTER.SOLV>
14.2362

>  <SCORE.INTER.VDW>
-12.4092

>  <SCORE.INTER.norm>
-0.193481

>  <SCORE.INTRA>
-1.21406

>  <SCORE.INTRA.DIHEDRAL>
-1.45999

>  <SCORE.INTRA.DIHEDRAL.0>
2.1318

>  <SCORE.INTRA.POLAR>
0

>  <SCORE.INTRA.POLAR.0>
0

>  <SCORE.INTRA.REPUL>
0

>  <SCORE.INTRA.REPUL.0>
0

>  <SCORE.INTRA.SOLV>
-0.699556

>  <SCORE.INTRA.SOLV.lig_0>
-58.6125

>  <SCORE.INTRA.VDW>
-0.134283

>  <SCORE.INTRA.VDW.0>
-0.432734

>  <SCORE.INTRA.norm>
-0.0758786

>  <SCORE.RESTR>
0.000101716

>  <SCORE.RESTR.CAVITY>
0.000101716

>  <SCORE.RESTR.norm>
6.35724e-06

>  <SCORE.SYSTEM>
0

>  <SCORE.SYSTEM.CONST>
0

>  <SCORE.SYSTEM.DIHEDRAL>
0

>  <SCORE.SYSTEM.SOLV>
0

>  <SCORE.SYSTEM.norm>
0

>  <SCORE.heavy>
16

>  <SCORE.norm>
-0.269353

>  <RMSD>
42.660

$$$$
ligand
 OpenBabel11021811463D
libRbt.so/2013.1/901 2013/11/27
 16 16  0  0  0  0  0  0  0  0999 V2000
   14.2170    7.1295   -7.3420 P   0  0  2  0  0  0  0  0  0  0  0  0
   15.6145    7.2340   -6.8549 O   0  0  0  0  0  0  0  0  0  0  0  0
   14.2125    7.0530   -8.9491 O   0  5  0  0  0  0  0  0  0  0  0  0
   13.4006    8.4407   -6.8796 O   0  0  0  0  0  0  0  0  0  0  0  0
   11.5039    2.2231   -6.2724 C   0  0  2  0  0  0  0  0  0  0  0  0
   11.7171    2.1610   -4.8573 O   0  0  0  0  0  0  0  0  0  0  0  0
   12.0317    0.9390   -6.9627 C   0  0  2  0  0  0  0  0  0  0  0  0
   11.3504   -0.2441   -6.4031 N   0  0  0  0  0  0  0  0  0  0  0  0
   13.5467    0.8382   -6.7180 C   0  0  1  0  0  0  0  0  0  0  0  0
   14.0723   -0.3281   -7.3572 O   0  0  0  0  0  0  0  0  0  0  0  0
   14.2019    2.0841   -7.3115 C   0  0  2  0  0  0  0  0  0  0  0  0
   15.6052    2.0123   -7.0937 O   0  0  0  0  0  0  0  0  0  0  0  0
   13.6167    3.3391   -6.6081 C   0  0  2  0  0  0  0  0  0  0  0  0
   12.1716    3.4060   -6.8099 O   0  0  0  0  0  0  0  0  0  0  0  0
   14.2471    4.6317   -7.1829 C   0  0  0  0  0  0  0  0  0  0  0  0
   13.5318    5.7952   -6.7289 O   0  0  0  0  0  0  0  0  0  0  0  0
  1  2  1  1  0  0  0
  1  3  1  0  0  0  0
  1  4  2  0  0  0  0
  1 16  1  0  0  0  0
  5  6  1  1  0  0  0
  5  7  1  0  0  0  0
  5 14  1  0  0  0  0
  7  8  1  1  0  0  0
  7  9  1  0  0  0  0
  9 10  1  6  0  0  0
  9 11  1  0  0  0  0
 11 12  1  1  0  0  0
 11 13  1  0  0  0  0
 13 14  1  0  0  0  0
 13 15  1  6  0  0  0
 15 16  1  0  0  0  0
M  CHG  1   3  -1
M  END
>  <CHROM.1>
168.79777769,179.80930540,-61.83796742,13.52361063,3.87718084,-6.93102887
1.32291440,0.39239940,-0.02223705

>  <Name>
ligand

>  <RI>
0

>  <Rbt.Current_Directory>
/home/itssahil/PROJECTS/Mol_Feturizer/New_Systems/rnas/3B4C

>  <Rbt.Executable>
rbdock ($Id: //depot/dev/client3/rdock/2013.1/src/exe/rbdock.cxx#4 $)

>  <Rbt.Library>
libRbt.so (2013.1, Build901 2013/11/27)

>  <Rbt.Parameter_File>
/export/apps/rDock/src/rDock_2013.1_src/data/scripts/dock_solv.prm

>  <Rbt.Receptor>
prm/blind_docking_20.prm

>  <SCORE>
-2.9795

>  <SCORE.INTER>
-1.58571

>  <SCORE.INTER.CONST>
1

>  <SCORE.INTER.POLAR>
0

>  <SCORE.INTER.ROT>
3

>  <SCORE.INTER.SOLV>
12.0151

>  <SCORE.INTER.VDW>
-10.6622

>  <SCORE.INTER.norm>
-0.099107

>  <SCORE.INTRA>
-1.39457

>  <SCORE.INTRA.DIHEDRAL>
-1.68674

>  <SCORE.INTRA.DIHEDRAL.0>
2.1318

>  <SCORE.INTRA.POLAR>
0

>  <SCORE.INTRA.POLAR.0>
0

>  <SCORE.INTRA.REPUL>
0

>  <SCORE.INTRA.REPUL.0>
0

>  <SCORE.INTRA.SOLV>
-0.96056

>  <SCORE.INTRA.SOLV.lig_0>
-58.6125

>  <SCORE.INTRA.VDW>
-0.0709167

>  <SCORE.INTRA.VDW.0>
-0.432734

>  <SCORE.INTRA.norm>
-0.0871605

>  <SCORE.RESTR>
0.000777234

>  <SCORE.RESTR.CAVITY>
0.000777234

>  <SCORE.RESTR.norm>
4.85771e-05

>  <SCORE.SYSTEM>
0

>  <SCORE.SYSTEM.CONST>
0

>  <SCORE.SYSTEM.DIHEDRAL>
0

>  <SCORE.SYSTEM.SOLV>
0

>  <SCORE.SYSTEM.norm>
0

>  <SCORE.heavy>
16

>  <SCORE.norm>
-0.186219

>  <RMSD>
42.680

$$$$
ligand
 OpenBabel11021811463D
libRbt.so/2013.1/901 2013/11/27
 16 16  0  0  0  0  0  0  0  0999 V2000
   14.2977    6.8327   -8.1998 P   0  0  2  0  0  0  0  0  0  0  0  0
   15.5476    7.0595   -8.9663 O   0  0  0  0  0  0  0  0  0  0  0  0
   13.0402    6.8564   -9.2033 O   0  5  0  0  0  0  0  0  0  0  0  0
   14.1239    8.0150   -7.1174 O   0  0  0  0  0  0  0  0  0  0  0  0
   11.7540    2.1230   -4.9792 C   0  0  2  0  0  0  0  0  0  0  0  0
   12.7001    2.0811   -3.9045 O   0  0  0  0  0  0  0  0  0  0  0  0
   12.0451    1.0012   -6.0091 C   0  0  2  0  0  0  0  0  0  0  0  0
   11.9909   -0.3140   -5.3427 N   0  0  0  0  0  0  0  0  0  0  0  0
   13.4446    1.2324   -6.6034 C   0  0  1  0  0  0  0  0  0  0  0  0
   13.7406    0.2240   -7.5733 O   0  0  0  0  0  0  0  0  0  0  0  0
   13.4480    2.6039   -7.2765 C   0  0  2  0  0  0  0  0  0  0  0  0
   14.7358    2.8392   -7.8316 O   0  0  0  0  0  0  0  0  0  0  0  0
   13.1217    3.6843   -6.2096 C   0  0  2  0  0  0  0  0  0  0  0  0
   11.8089    3.4347   -5.6200 O   0  0  0  0  0  0  0  0  0  0  0  0
   13.1065    5.0954   -6.8476 C   0  0  0  0  0  0  0  0  0  0  0  0
   14.3762    5.3957   -7.4552 O   0  0  0  0  0  0  0  0  0  0  0  0
  1  2  1  6  0  0  0
  1  3  1  0  0  0  0
  1  4  2  0  0  0  0
  1 16  1  0  0  0  0
  5  6  1  1  0  0  0
  5  7  1  0  0  0  0
  5 14  1  0  0  0  0
  7  8  1  1  0  0  0
  7  9  1  0  0  0  0
  9 10  1  6  0  0  0
  9 11  1  0  0  0  0
 11 12  1  1  0  0  0
 11 13  1  0  0  0  0
 13 14  1  0  0  0  0
 13 15  1  6  0  0  0
 15 16  1  0  0  0  0
M  CHG  1   3  -1
M  END
>  <CHROM.1>
-58.60696672,176.17045515,-172.90361301,13.43346405,3.93405082,-6.95038640
-1.09605087,-0.96158197,3.13986929

>  <Name>
ligand

>  <RI>
0

>  <Rbt.Current_Directory>
/home/itssahil/PROJECTS/Mol_Feturizer/New_Systems/rnas/3B4C

>  <Rbt.Executable>
rbdock ($Id: //depot/dev/client3/rdock/2013.1/src/exe/rbdock.cxx#4 $)

>  <Rbt.Library>
libRbt.so (2013.1, Build901 2013/11/27)

>  <Rbt.Parameter_File>
/export/apps/rDock/src/rDock_2013.1_src/data/scripts/dock_solv.prm

>  <Rbt.Receptor>
prm/blind_docking_20.prm

>  <SCORE>
-4.13962

>  <SCORE.INTER>
-3.17928

>  <SCORE.INTER.CONST>
1

>  <SCORE.INTER.POLAR>
0

>  <SCORE.INTER.ROT>
3

>  <SCORE.INTER.SOLV>
10.5166

>  <SCORE.INTER.VDW>
-11.225

>  <SCORE.INTER.norm>
-0.198705

>  <SCORE.INTRA>
-0.960356

>  <SCORE.INTRA.DIHEDRAL>
-1.96573

>  <SCORE.INTRA.DIHEDRAL.0>
2.1318

>  <SCORE.INTRA.POLAR>
0

>  <SCORE.INTRA.POLAR.0>
0

>  <SCORE.INTRA.REPUL>
0

>  <SCORE.INTRA.REPUL.0>
0

>  <SCORE.INTRA.SOLV>
0.114679

>  <SCORE.INTRA.SOLV.lig_0>
-58.6125

>  <SCORE.INTRA.VDW>
-0.0348288

>  <SCORE.INTRA.VDW.0>
-0.432734

>  <SCORE.INTRA.norm>
-0.0600222

>  <SCORE.RESTR>
1.05321e-05

>  <SCORE.RESTR.CAVITY>
1.05321e-05

>  <SCORE.RESTR.norm>
6.58254e-07

>  <SCORE.SYSTEM>
0

>  <SCORE.SYSTEM.CONST>
0

>  <SCORE.SYSTEM.DIHEDRAL>
0

>  <SCORE.SYSTEM.SOLV>
0

>  <SCORE.SYSTEM.norm>
0

>  <SCORE.heavy>
16

>  <SCORE.norm>
-0.258726

>  <RMSD>
42.706

$$$$
ligand
 OpenBabel11021811463D
libRbt.so/2013.1/901 2013/11/27
 16 16  0  0  0  0  0  0  0  0999 V2000
   14.6813    6.7936   -7.8097 P   0  0  2  0  0  0  0  0  0  0  0  0
   15.4050    6.6977   -9.1014 O   0  0  0  0  0  0  0  0  0  0  0  0
   13.3375    7.6557   -8.0095 O   0  5  0  0  0  0  0  0  0  0  0  0
   15.6238    7.5380   -6.7340 O   0  0  0  0  0  0  0  0  0  0  0  0
   13.3927    1.1108   -7.3840 C   0  0  2  0  0  0  0  0  0  0  0  0
   12.1872    0.6942   -8.0360 O   0  0  0  0  0  0  0  0  0  0  0  0
   13.2169    1.0921   -5.8437 C   0  0  2  0  0  0  0  0  0  0  0  0
   12.8491   -0.2661   -5.4001 N   0  0  0  0  0  0  0  0  0  0  0  0
   12.1075    2.0877   -5.4648 C   0  0  1  0  0  0  0  0  0  0  0  0
   11.9297    2.1104   -4.0460 O   0  0  0  0  0  0  0  0  0  0  0  0
   12.5349    3.4727   -5.9474 C   0  0  2  0  0  0  0  0  0  0  0  0
   11.5204    4.4097   -5.6088 O   0  0  0  0  0  0  0  0  0  0  0  0
   12.7262    3.4274   -7.4880 C   0  0  2  0  0  0  0  0  0  0  0  0
   13.7520    2.4502   -7.8433 O   0  0  0  0  0  0  0  0  0  0  0  0
   13.1681    4.8114   -8.0248 C   0  0  0  0  0  0  0  0  0  0  0  0
   14.3044    5.3050   -7.2923 O   0  0  0  0  0  0  0  0  0  0  0  0
  1  2  1  6  0  0  0
  1  3  1  0  0  0  0
  1  4  2  0  0  0  0
  1 16  1  0  0  0  0
  5  6  1  6  0  0  0
  5  7  1  0  0  0  0
  5 14  1  0  0  0  0
  7  8  1  6  0  0  0
  7  9  1  0  0  0  0
  9 10  1  1  0  0  0
  9 11  1  0  0  0  0
 11 12  1  6  0  0  0
 11 13  1  0  0  0  0
 13 14  1  0  0  0  0
 13 15  1  1  0  0  0
 15 16  1  0  0  0  0
M  CHG  1   3  -1
M  END
>  <CHROM.1>
51.61900131,-176.26942674,-77.53013189,13.41244338,4.00491274,-6.96189299
-0.83765719,-1.04686915,-2.78983563

>  <Name>
ligand

>  <RI>
0

>  <Rbt.Current_Directory>
/home/itssahil/PROJECTS/Mol_Feturizer/New_Systems/rnas/3B4C

>  <Rbt.Executable>
rbdock ($Id: //depot/dev/client3/rdock/2013.1/src/exe/rbdock.cxx#4 $)

>  <Rbt.Library>
libRbt.so (2013.1, Build901 2013/11/27)

>  <Rbt.Parameter_File>
/export/apps/rDock/src/rDock_2013.1_src/data/scripts/dock_solv.prm

>  <Rbt.Receptor>
prm/blind_docking_20.prm

>  <SCORE>
-2.87837

>  <SCORE.INTER>
-1.80964

>  <SCORE.INTER.CONST>
1

>  <SCORE.INTER.POLAR>
0

>  <SCORE.INTER.ROT>
3

>  <SCORE.INTER.SOLV>
13.9996

>  <SCORE.INTER.VDW>
-11.473

>  <SCORE.INTER.norm>
-0.113102

>  <SCORE.INTRA>
-1.06873

>  <SCORE.INTRA.DIHEDRAL>
-1.34708

>  <SCORE.INTRA.DIHEDRAL.0>
2.1318

>  <SCORE.INTRA.POLAR>
0

>  <SCORE.INTRA.POLAR.0>
0

>  <SCORE.INTRA.REPUL>
0

>  <SCORE.INTRA.REPUL.0>
0

>  <SCORE.INTRA.SOLV>
-0.6216

>  <SCORE.INTRA.SOLV.lig_0>
-58.6125

>  <SCORE.INTRA.VDW>
-0.0843882

>  <SCORE.INTRA.VDW.0>
-0.432734

>  <SCORE.INTRA.norm>
-0.0667956

>  <SCORE.RESTR>
0

>  <SCORE.RESTR.CAVITY>
0

>  <SCORE.RESTR.norm>
0

>  <SCORE.SYSTEM>
0

>  <SCORE.SYSTEM.CONST>
0

>  <SCORE.SYSTEM.DIHEDRAL>
0

>  <SCORE.SYSTEM.SOLV>
0

>  <SCORE.SYSTEM.norm>
0

>  <SCORE.heavy>
16

>  <SCORE.norm>
-0.179898

>  <RMSD>
42.753

$$$$
ligand
 OpenBabel11021811463D
libRbt.so/2013.1/901 2013/11/27
 16 16  0  0  0  0  0  0  0  0999 V2000
   14.5461    7.0085   -7.6372 P   0  0  2  0  0  0  0  0  0  0  0  0
   15.5887    7.3276   -6.6309 O   0  0  0  0  0  0  0  0  0  0  0  0
   15.2448    6.6773   -9.0482 O   0  5  0  0  0  0  0  0  0  0  0  0
   13.5833    8.2889   -7.8194 O   0  0  0  0  0  0  0  0  0  0  0  0
   12.1604    2.4589   -4.9513 C   0  0  2  0  0  0  0  0  0  0  0  0
   13.0577    1.4161   -4.5522 O   0  0  0  0  0  0  0  0  0  0  0  0
   11.2557    1.9862   -6.1183 C   0  0  2  0  0  0  0  0  0  0  0  0
   10.4898    0.7949   -5.7047 N   0  0  0  0  0  0  0  0  0  0  0  0
   12.1484    1.6452   -7.3234 C   0  0  1  0  0  0  0  0  0  0  0  0
   11.3444    1.2214   -8.4276 O   0  0  0  0  0  0  0  0  0  0  0  0
   12.9192    2.9068   -7.7084 C   0  0  2  0  0  0  0  0  0  0  0  0
   13.7540    2.6125   -8.8212 O   0  0  0  0  0  0  0  0  0  0  0  0
   13.7828    3.3533   -6.4973 C   0  0  2  0  0  0  0  0  0  0  0  0
   12.9318    3.6356   -5.3442 O   0  0  0  0  0  0  0  0  0  0  0  0
   14.5798    4.6368   -6.8378 C   0  0  0  0  0  0  0  0  0  0  0  0
   13.6894    5.7274   -7.1369 O   0  0  0  0  0  0  0  0  0  0  0  0
  1  2  1  1  0  0  0
  1  3  1  0  0  0  0
  1  4  2  0  0  0  0
  1 16  1  0  0  0  0
  5  6  1  6  0  0  0
  5  7  1  0  0  0  0
  5 14  1  0  0  0  0
  7  8  1  1  0  0  0
  7  9  1  0  0  0  0
  9 10  1  6  0  0  0
  9 11  1  0  0  0  0
 11 12  1  6  0  0  0
 11 13  1  0  0  0  0
 13 14  1  0  0  0  0
 13 15  1  6  0  0  0
 15 16  1  0  0  0  0
M  CHG  1   3  -1
M  END
>  <CHROM.1>
61.77861900,-174.16168538,-53.82464776,13.32688971,4.14336587,-6.98630606
-0.17707390,1.10470024,1.52138749

>  <Name>
ligand

>  <RI>
0

>  <Rbt.Current_Directory>
/home/itssahil/PROJECTS/Mol_Feturizer/New_Systems/rnas/3B4C

>  <Rbt.Executable>
rbdock ($Id: //depot/dev/client3/rdock/2013.1/src/exe/rbdock.cxx#4 $)

>  <Rbt.Library>
libRbt.so (2013.1, Build901 2013/11/27)

>  <Rbt.Parameter_File>
/export/apps/rDock/src/rDock_2013.1_src/data/scripts/dock_solv.prm

>  <Rbt.Receptor>
prm/blind_docking_20.prm

>  <SCORE>
-5.58863

>  <SCORE.INTER>
-4.04828

>  <SCORE.INTER.CONST>
1

>  <SCORE.INTER.POLAR>
0

>  <SCORE.INTER.ROT>
3

>  <SCORE.INTER.SOLV>
15.5559

>  <SCORE.INTER.VDW>
-13.4842

>  <SCORE.INTER.norm>
-0.253018

>  <SCORE.INTRA>
-1.54035

>  <SCORE.INTRA.DIHEDRAL>
-1.88637

>  <SCORE.INTRA.DIHEDRAL.0>
2.1318

>  <SCORE.INTRA.POLAR>
0

>  <SCORE.INTRA.POLAR.0>
0

>  <SCORE.INTRA.REPUL>
0

>  <SCORE.INTRA.REPUL.0>
0

>  <SCORE.INTRA.SOLV>
-0.766246

>  <SCORE.INTRA.SOLV.lig_0>
-58.6125

>  <SCORE.INTRA.VDW>
-0.214036

>  <SCORE.INTRA.VDW.0>
-0.432734

>  <SCORE.INTRA.norm>
-0.0962716

>  <SCORE.RESTR>
0

>  <SCORE.RESTR.CAVITY>
0

>  <SCORE.RESTR.norm>
0

>  <SCORE.SYSTEM>
0

>  <SCORE.SYSTEM.CONST>
0

>  <SCORE.SYSTEM.DIHEDRAL>
0

>  <SCORE.SYSTEM.SOLV>
0

>  <SCORE.SYSTEM.norm>
0

>  <SCORE.heavy>
16

>  <SCORE.norm>
-0.349289

>  <RMSD>
42.773

$$$$
ligand
 OpenBabel11021811463D
libRbt.so/2013.1/901 2013/11/27
 16 16  0  0  0  0  0  0  0  0999 V2000
   14.5335    6.9365   -7.6471 P   0  0  2  0  0  0  0  0  0  0  0  0
   15.5808    7.2696   -6.6503 O   0  0  0  0  0  0  0  0  0  0  0  0
   15.2248    6.5973   -9.0598 O   0  5  0  0  0  0  0  0  0  0  0  0
   13.5624    8.2100   -7.8336 O   0  0  0  0  0  0  0  0  0  0  0  0
   12.1851    2.4005   -4.9203 C   0  0  2  0  0  0  0  0  0  0  0  0
   13.0891    1.3661   -4.5145 O   0  0  0  0  0  0  0  0  0  0  0  0
   11.2747    1.9100   -6.0756 C   0  0  2  0  0  0  0  0  0  0  0  0
   10.5163    0.7209   -5.6425 N   0  0  0  0  0  0  0  0  0  0  0  0
   12.1609    1.5579   -7.2823 C   0  0  1  0  0  0  0  0  0  0  0  0
   11.3514    1.1175   -8.3759 O   0  0  0  0  0  0  0  0  0  0  0  0
   12.9242    2.8176   -7.6877 C   0  0  2  0  0  0  0  0  0  0  0  0
   13.7529    2.5131   -8.8023 O   0  0  0  0  0  0  0  0  0  0  0  0
   13.7938    3.2822   -6.4877 C   0  0  2  0  0  0  0  0  0  0  0  0
   12.9493    3.5753   -5.3326 O   0  0  0  0  0  0  0  0  0  0  0  0
   14.5835    4.5646   -6.8491 C   0  0  0  0  0  0  0  0  0  0  0  0
   13.6871    5.6549   -7.1305 O   0  0  0  0  0  0  0  0  0  0  0  0
  1  2  1  1  0  0  0
  1  3  1  0  0  0  0
  1  4  2  0  0  0  0
  1 16  1  0  0  0  0
  5  6  1  6  0  0  0
  5  7  1  0  0  0  0
  5 14  1  0  0  0  0
  7  8  1  1  0  0  0
  7  9  1  0  0  0  0
  9 10  1  6  0  0  0
  9 11  1  0  0  0  0
 11 12  1  6  0  0  0
 11 13  1  0  0  0  0
 13 14  1  0  0  0  0
 13 15  1  6  0  0  0
 15 16  1  0  0  0  0
M  CHG  1   3  -1
M  END
>  <CHROM.1>
62.88368736,-174.39625619,-54.75867818,13.33096720,4.06839373,-6.97205203
-0.17894503,1.11048754,1.51478390

>  <Name>
ligand

>  <RI>
0

>  <Rbt.Current_Directory>
/home/itssahil/PROJECTS/Mol_Feturizer/New_Systems/rnas/3B4C

>  <Rbt.Executable>
rbdock ($Id: //depot/dev/client3/rdock/2013.1/src/exe/rbdock.cxx#4 $)

>  <Rbt.Library>
libRbt.so (2013.1, Build901 2013/11/27)

>  <Rbt.Parameter_File>
/export/apps/rDock/src/rDock_2013.1_src/data/scripts/dock_solv.prm

>  <Rbt.Receptor>
prm/blind_docking_20.prm

>  <SCORE>
-5.57928

>  <SCORE.INTER>
-4.0182

>  <SCORE.INTER.CONST>
1

>  <SCORE.INTER.POLAR>
0

>  <SCORE.INTER.ROT>
3

>  <SCORE.INTER.SOLV>
15.2292

>  <SCORE.INTER.VDW>
-13.3552

>  <SCORE.INTER.norm>
-0.251137

>  <SCORE.INTRA>
-1.56108

>  <SCORE.INTRA.DIHEDRAL>
-1.89802

>  <SCORE.INTRA.DIHEDRAL.0>
2.1318

>  <SCORE.INTRA.POLAR>
0

>  <SCORE.INTRA.POLAR.0>
0

>  <SCORE.INTRA.REPUL>
0

>  <SCORE.INTRA.REPUL.0>
0

>  <SCORE.INTRA.SOLV>
-0.768271

>  <SCORE.INTRA.SOLV.lig_0>
-58.6125

>  <SCORE.INTRA.VDW>
-0.227938

>  <SCORE.INTRA.VDW.0>
-0.432734

>  <SCORE.INTRA.norm>
-0.0975677

>  <SCORE.RESTR>
0

>  <SCORE.RESTR.CAVITY>
0

>  <SCORE.RESTR.norm>
0

>  <SCORE.SYSTEM>
0

>  <SCORE.SYSTEM.CONST>
0

>  <SCORE.SYSTEM.DIHEDRAL>
0

>  <SCORE.SYSTEM.SOLV>
0

>  <SCORE.SYSTEM.norm>
0

>  <SCORE.heavy>
16

>  <SCORE.norm>
-0.348705

>  <RMSD>
42.773

$$$$
ligand
 OpenBabel11021811463D
libRbt.so/2013.1/901 2013/11/27
 16 16  0  0  0  0  0  0  0  0999 V2000
   14.5381    6.9769   -7.6410 P   0  0  2  0  0  0  0  0  0  0  0  0
   15.5921    7.2777   -6.6410 O   0  0  0  0  0  0  0  0  0  0  0  0
   15.2203    6.6781   -9.0672 O   0  5  0  0  0  0  0  0  0  0  0  0
   13.5694    8.2578   -7.7840 O   0  0  0  0  0  0  0  0  0  0  0  0
   12.1779    2.4309   -4.9784 C   0  0  2  0  0  0  0  0  0  0  0  0
   13.0813    1.4033   -4.5544 O   0  0  0  0  0  0  0  0  0  0  0  0
   11.2804    1.9269   -6.1379 C   0  0  2  0  0  0  0  0  0  0  0  0
   10.5217    0.7392   -5.7013 N   0  0  0  0  0  0  0  0  0  0  0  0
   12.1794    1.5668   -7.3327 C   0  0  1  0  0  0  0  0  0  0  0  0
   11.3820    1.1138   -8.4300 O   0  0  0  0  0  0  0  0  0  0  0  0
   12.9424    2.8254   -7.7421 C   0  0  2  0  0  0  0  0  0  0  0  0
   13.7829    2.5135   -8.8458 O   0  0  0  0  0  0  0  0  0  0  0  0
   13.7988    3.3038   -6.5381 C   0  0  2  0  0  0  0  0  0  0  0  0
   12.9421    3.6045   -5.3939 O   0  0  0  0  0  0  0  0  0  0  0  0
   14.5877    4.5855   -6.9035 C   0  0  0  0  0  0  0  0  0  0  0  0
   13.6915    5.6826   -7.1577 O   0  0  0  0  0  0  0  0  0  0  0  0
  1  2  1  1  0  0  0
  1  3  1  0  0  0  0
  1  4  2  0  0  0  0
  1 16  1  0  0  0  0
  5  6  1  6  0  0  0
  5  7  1  0  0  0  0
  5 14  1  0  0  0  0
  7  8  1  1  0  0  0
  7  9  1  0  0  0  0
  9 10  1  6  0  0  0
  9 11  1  0  0  0  0
 11 12  1  6  0  0  0
 11 13  1  0  0  0  0
 13 14  1  0  0  0  0
 13 15  1  6  0  0  0
 15 16  1  0  0  0  0
M  CHG  1   3  -1
M  END
>  <CHROM.1>
64.90619898,-175.91564082,-54.28970125,13.33818876,4.09438643,-7.00289019
-0.12109407,1.11592300,1.46453749

>  <Name>
ligand

>  <RI>
0

>  <Rbt.Current_Directory>
/home/itssahil/PROJECTS/Mol_Feturizer/New_Systems/rnas/3B4C

>  <Rbt.Executable>
rbdock ($Id: //depot/dev/client3/rdock/2013.1/src/exe/rbdock.cxx#4 $)

>  <Rbt.Library>
libRbt.so (2013.1, Build901 2013/11/27)

>  <Rbt.Parameter_File>
/export/apps/rDock/src/rDock_2013.1_src/data/scripts/dock_solv.prm

>  <Rbt.Receptor>
prm/blind_docking_20.prm

>  <SCORE>
-5.6213

>  <SCORE.INTER>
-4.03516

>  <SCORE.INTER.CONST>
1

>  <SCORE.INTER.POLAR>
0

>  <SCORE.INTER.ROT>
3

>  <SCORE.INTER.SOLV>
15.2891

>  <SCORE.INTER.VDW>
-13.3865

>  <SCORE.INTER.norm>
-0.252197

>  <SCORE.INTRA>
-1.58614

>  <SCORE.INTRA.DIHEDRAL>
-1.9042

>  <SCORE.INTRA.DIHEDRAL.0>
2.1318

>  <SCORE.INTRA.POLAR>
0

>  <SCORE.INTRA.POLAR.0>
0

>  <SCORE.INTRA.REPUL>
0

>  <SCORE.INTRA.REPUL.0>
0

>  <SCORE.INTRA.SOLV>
-0.830667

>  <SCORE.INTRA.SOLV.lig_0>
-58.6125

>  <SCORE.INTRA.VDW>
-0.218706

>  <SCORE.INTRA.VDW.0>
-0.432734

>  <SCORE.INTRA.norm>
-0.0991338

>  <SCORE.RESTR>
0

>  <SCORE.RESTR.CAVITY>
0

>  <SCORE.RESTR.norm>
0

>  <SCORE.SYSTEM>
0

>  <SCORE.SYSTEM.CONST>
0

>  <SCORE.SYSTEM.DIHEDRAL>
0

>  <SCORE.SYSTEM.SOLV>
0

>  <SCORE.SYSTEM.norm>
0

>  <SCORE.heavy>
16

>  <SCORE.norm>
-0.351331

>  <RMSD>
42.782

$$$$
ligand
 OpenBabel11021811463D
libRbt.so/2013.1/901 2013/11/27
 16 16  0  0  0  0  0  0  0  0999 V2000
   14.5234    6.5967   -8.5084 P   0  0  2  0  0  0  0  0  0  0  0  0
   15.5516    6.2741   -9.5283 O   0  0  0  0  0  0  0  0  0  0  0  0
   13.5521    7.7496   -9.0708 O   0  5  0  0  0  0  0  0  0  0  0  0
   15.2559    7.1350   -7.1767 O   0  0  0  0  0  0  0  0  0  0  0  0
   14.0338    0.6664   -6.6370 C   0  0  2  0  0  0  0  0  0  0  0  0
   13.5256    0.1852   -7.8868 O   0  0  0  0  0  0  0  0  0  0  0  0
   12.8934    0.7926   -5.5941 C   0  0  2  0  0  0  0  0  0  0  0  0
   12.2459   -0.5191   -5.4020 N   0  0  0  0  0  0  0  0  0  0  0  0
   11.8673    1.8150   -6.1112 C   0  0  1  0  0  0  0  0  0  0  0  0
   10.8072    1.9708   -5.1640 O   0  0  0  0  0  0  0  0  0  0  0  0
   12.5868    3.1500   -6.2956 C   0  0  2  0  0  0  0  0  0  0  0  0
   11.6551    4.1106   -6.7762 O   0  0  0  0  0  0  0  0  0  0  0  0
   13.7353    2.9602   -7.3237 C   0  0  2  0  0  0  0  0  0  0  0  0
   14.6839    1.9580   -6.8451 O   0  0  0  0  0  0  0  0  0  0  0  0
   14.5010    4.2890   -7.5391 C   0  0  0  0  0  0  0  0  0  0  0  0
   13.6590    5.2670   -8.1763 O   0  0  0  0  0  0  0  0  0  0  0  0
  1  2  1  6  0  0  0
  1  3  1  0  0  0  0
  1  4  2  0  0  0  0
  1 16  1  0  0  0  0
  5  6  1  6  0  0  0
  5  7  1  0  0  0  0
  5 14  1  0  0  0  0
  7  8  1  6  0  0  0
  7  9  1  0  0  0  0
  9 10  1  1  0  0  0
  9 11  1  0  0  0  0
 11 12  1  6  0  0  0
 11 13  1  0  0  0  0
 13 14  1  0  0  0  0
 13 15  1  1  0  0  0
 15 16  1  0  0  0  0
M  CHG  1   3  -1
M  END
>  <CHROM.1>
-66.55253394,-174.94886839,66.05540053,13.53248156,3.70403127,-7.26310269
-1.22192127,-0.51944575,2.92570416

>  <Name>
ligand

>  <RI>
0

>  <Rbt.Current_Directory>
/home/itssahil/PROJECTS/Mol_Feturizer/New_Systems/rnas/3B4C

>  <Rbt.Executable>
rbdock ($Id: //depot/dev/client3/rdock/2013.1/src/exe/rbdock.cxx#4 $)

>  <Rbt.Library>
libRbt.so (2013.1, Build901 2013/11/27)

>  <Rbt.Parameter_File>
/export/apps/rDock/src/rDock_2013.1_src/data/scripts/dock_solv.prm

>  <Rbt.Receptor>
prm/blind_docking_20.prm

>  <SCORE>
-4.57575

>  <SCORE.INTER>
-3.23854

>  <SCORE.INTER.CONST>
1

>  <SCORE.INTER.POLAR>
0

>  <SCORE.INTER.ROT>
3

>  <SCORE.INTER.SOLV>
11.0286

>  <SCORE.INTER.VDW>
-11.4352

>  <SCORE.INTER.norm>
-0.202409

>  <SCORE.INTRA>
-1.33721

>  <SCORE.INTRA.DIHEDRAL>
-1.79094

>  <SCORE.INTRA.DIHEDRAL.0>
2.1318

>  <SCORE.INTRA.POLAR>
0

>  <SCORE.INTRA.POLAR.0>
0

>  <SCORE.INTRA.REPUL>
0

>  <SCORE.INTRA.REPUL.0>
0

>  <SCORE.INTRA.SOLV>
-0.640201

>  <SCORE.INTRA.SOLV.lig_0>
-58.6125

>  <SCORE.INTRA.VDW>
-0.121639

>  <SCORE.INTRA.VDW.0>
-0.432734

>  <SCORE.INTRA.norm>
-0.0835757

>  <SCORE.RESTR>
0

>  <SCORE.RESTR.CAVITY>
0

>  <SCORE.RESTR.norm>
0

>  <SCORE.SYSTEM>
0

>  <SCORE.SYSTEM.CONST>
0

>  <SCORE.SYSTEM.DIHEDRAL>
0

>  <SCORE.SYSTEM.SOLV>
0

>  <SCORE.SYSTEM.norm>
0

>  <SCORE.heavy>
16

>  <SCORE.norm>
-0.285985

>  <RMSD>
42.808

$$$$
ligand
 OpenBabel11021811463D
libRbt.so/2013.1/901 2013/11/27
 16 16  0  0  0  0  0  0  0  0999 V2000
   14.5289    7.0264   -7.9018 P   0  0  2  0  0  0  0  0  0  0  0  0
   15.4876    6.6202   -8.9587 O   0  0  0  0  0  0  0  0  0  0  0  0
   13.5422    8.1592   -8.4780 O   0  5  0  0  0  0  0  0  0  0  0  0
   15.3495    7.6344   -6.6542 O   0  0  0  0  0  0  0  0  0  0  0  0
   12.0451    2.6412   -5.0140 C   0  0  2  0  0  0  0  0  0  0  0  0
   12.9357    1.6642   -4.4625 O   0  0  0  0  0  0  0  0  0  0  0  0
   11.2491    2.0466   -6.2043 C   0  0  2  0  0  0  0  0  0  0  0  0
   10.4852    0.8673   -5.7541 N   0  0  0  0  0  0  0  0  0  0  0  0
   12.2436    1.6403   -7.3049 C   0  0  1  0  0  0  0  0  0  0  0  0
   11.5416    1.1028   -8.4290 O   0  0  0  0  0  0  0  0  0  0  0  0
   13.0081    2.8920   -7.7321 C   0  0  2  0  0  0  0  0  0  0  0  0
   13.9364    2.5377   -8.7492 O   0  0  0  0  0  0  0  0  0  0  0  0
   13.7604    3.4626   -6.4989 C   0  0  2  0  0  0  0  0  0  0  0  0
   12.8131    3.8078   -5.4420 O   0  0  0  0  0  0  0  0  0  0  0  0
   14.5469    4.7407   -6.8817 C   0  0  0  0  0  0  0  0  0  0  0  0
   13.6666    5.7370   -7.4329 O   0  0  0  0  0  0  0  0  0  0  0  0
  1  2  1  6  0  0  0
  1  3  1  0  0  0  0
  1  4  2  0  0  0  0
  1 16  1  0  0  0  0
  5  6  1  6  0  0  0
  5  7  1  0  0  0  0
  5 14  1  0  0  0  0
  7  8  1  1  0  0  0
  7  9  1  0  0  0  0
  9 10  1  6  0  0  0
  9 11  1  0  0  0  0
 11 12  1  6  0  0  0
 11 13  1  0  0  0  0
 13 14  1  0  0  0  0
 13 15  1  6  0  0  0
 15 16  1  0  0  0  0
M  CHG  1   3  -1
M  END
>  <CHROM.1>
57.38636485,-176.75581196,61.51977744,13.32972041,4.19514718,-7.08444126
-0.04172512,1.11769530,1.33217947

>  <Name>
ligand

>  <RI>
0

>  <Rbt.Current_Directory>
/home/itssahil/PROJECTS/Mol_Feturizer/New_Systems/rnas/3B4C

>  <Rbt.Executable>
rbdock ($Id: //depot/dev/client3/rdock/2013.1/src/exe/rbdock.cxx#4 $)

>  <Rbt.Library>
libRbt.so (2013.1, Build901 2013/11/27)

>  <Rbt.Parameter_File>
/export/apps/rDock/src/rDock_2013.1_src/data/scripts/dock_solv.prm

>  <Rbt.Receptor>
prm/blind_docking_20.prm

>  <SCORE>
-5.28015

>  <SCORE.INTER>
-3.58053

>  <SCORE.INTER.CONST>
1

>  <SCORE.INTER.POLAR>
0

>  <SCORE.INTER.ROT>
3

>  <SCORE.INTER.SOLV>
16.1458

>  <SCORE.INTER.VDW>
-13.369

>  <SCORE.INTER.norm>
-0.223783

>  <SCORE.INTRA>
-1.69962

>  <SCORE.INTRA.DIHEDRAL>
-2.04941

>  <SCORE.INTRA.DIHEDRAL.0>
2.1318

>  <SCORE.INTRA.POLAR>
0

>  <SCORE.INTRA.POLAR.0>
0

>  <SCORE.INTRA.REPUL>
0

>  <SCORE.INTRA.REPUL.0>
0

>  <SCORE.INTRA.SOLV>
-0.81147

>  <SCORE.INTRA.SOLV.lig_0>
-58.6125

>  <SCORE.INTRA.VDW>
-0.269182

>  <SCORE.INTRA.VDW.0>
-0.432734

>  <SCORE.INTRA.norm>
-0.106227

>  <SCORE.RESTR>
0

>  <SCORE.RESTR.CAVITY>
0

>  <SCORE.RESTR.norm>
0

>  <SCORE.SYSTEM>
0

>  <SCORE.SYSTEM.CONST>
0

>  <SCORE.SYSTEM.DIHEDRAL>
0

>  <SCORE.SYSTEM.SOLV>
0

>  <SCORE.SYSTEM.norm>
0

>  <SCORE.heavy>
16

>  <SCORE.norm>
-0.330009

>  <RMSD>
42.809

$$$$
ligand
 OpenBabel11021811463D
libRbt.so/2013.1/901 2013/11/27
 16 16  0  0  0  0  0  0  0  0999 V2000
   14.5415    7.0090   -7.8816 P   0  0  2  0  0  0  0  0  0  0  0  0
   15.4885    6.6291   -8.9587 O   0  0  0  0  0  0  0  0  0  0  0  0
   13.5512    8.1583   -8.4177 O   0  5  0  0  0  0  0  0  0  0  0  0
   15.3761    7.5826   -6.6271 O   0  0  0  0  0  0  0  0  0  0  0  0
   12.1093    2.5897   -5.0162 C   0  0  2  0  0  0  0  0  0  0  0  0
   13.0058    1.5890   -4.5198 O   0  0  0  0  0  0  0  0  0  0  0  0
   11.2578    2.0309   -6.1853 C   0  0  2  0  0  0  0  0  0  0  0  0
   10.4943    0.8541   -5.7283 N   0  0  0  0  0  0  0  0  0  0  0  0
   12.2017    1.6324   -7.3324 C   0  0  1  0  0  0  0  0  0  0  0  0
   11.4477    1.1280   -8.4379 O   0  0  0  0  0  0  0  0  0  0  0  0
   12.9680    2.8812   -7.7651 C   0  0  2  0  0  0  0  0  0  0  0  0
   13.8498    2.5339   -8.8251 O   0  0  0  0  0  0  0  0  0  0  0  0
   13.7770    3.4158   -6.5519 C   0  0  2  0  0  0  0  0  0  0  0  0
   12.8777    3.7534   -5.4516 O   0  0  0  0  0  0  0  0  0  0  0  0
   14.5673    4.6897   -6.9407 C   0  0  0  0  0  0  0  0  0  0  0  0
   13.6815    5.7093   -7.4380 O   0  0  0  0  0  0  0  0  0  0  0  0
  1  2  1  6  0  0  0
  1  3  1  0  0  0  0
  1  4  2  0  0  0  0
  1 16  1  0  0  0  0
  5  6  1  6  0  0  0
  5  7  1  0  0  0  0
  5 14  1  0  0  0  0
  7  8  1  1  0  0  0
  7  9  1  0  0  0  0
  9 10  1  6  0  0  0
  9 11  1  0  0  0  0
 11 12  1  6  0  0  0
 11 13  1  0  0  0  0
 13 14  1  0  0  0  0
 13 15  1  6  0  0  0
 15 16  1  0  0  0  0
M  CHG  1   3  -1
M  END
>  <CHROM.1>
57.33321744,-178.13341944,60.67696440,13.33365393,4.17118315,-7.09320870
-0.12284612,1.11198692,1.42924539

>  <Name>
ligand

>  <RI>
0

>  <Rbt.Current_Directory>
/home/itssahil/PROJECTS/Mol_Feturizer/New_Systems/rnas/3B4C

>  <Rbt.Executable>
rbdock ($Id: //depot/dev/client3/rdock/2013.1/src/exe/rbdock.cxx#4 $)

>  <Rbt.Library>
libRbt.so (2013.1, Build901 2013/11/27)

>  <Rbt.Parameter_File>
/export/apps/rDock/src/rDock_2013.1_src/data/scripts/dock_solv.prm

>  <Rbt.Receptor>
prm/blind_docking_20.prm

>  <SCORE>
-5.34536

>  <SCORE.INTER>
-3.63322

>  <SCORE.INTER.CONST>
1

>  <SCORE.INTER.POLAR>
0

>  <SCORE.INTER.ROT>
3

>  <SCORE.INTER.SOLV>
16.0237

>  <SCORE.INTER.VDW>
-13.3634

>  <SCORE.INTER.norm>
-0.227076

>  <SCORE.INTRA>
-1.71214

>  <SCORE.INTRA.DIHEDRAL>
-2.08634

>  <SCORE.INTRA.DIHEDRAL.0>
2.1318

>  <SCORE.INTRA.POLAR>
0

>  <SCORE.INTRA.POLAR.0>
0

>  <SCORE.INTRA.REPUL>
0

>  <SCORE.INTRA.REPUL.0>
0

>  <SCORE.INTRA.SOLV>
-0.815894

>  <SCORE.INTRA.SOLV.lig_0>
-58.6125

>  <SCORE.INTRA.VDW>
-0.261022

>  <SCORE.INTRA.VDW.0>
-0.432734

>  <SCORE.INTRA.norm>
-0.107009

>  <SCORE.RESTR>
0

>  <SCORE.RESTR.CAVITY>
0

>  <SCORE.RESTR.norm>
0

>  <SCORE.SYSTEM>
0

>  <SCORE.SYSTEM.CONST>
0

>  <SCORE.SYSTEM.DIHEDRAL>
0

>  <SCORE.SYSTEM.SOLV>
0

>  <SCORE.SYSTEM.norm>
0

>  <SCORE.heavy>
16

>  <SCORE.norm>
-0.334085

>  <RMSD>
42.815

$$$$
ligand
 OpenBabel11021811463D
libRbt.so/2013.1/901 2013/11/27
 16 16  0  0  0  0  0  0  0  0999 V2000
   14.5062    6.9549   -7.8892 P   0  0  2  0  0  0  0  0  0  0  0  0
   15.4515    6.5334   -8.9522 O   0  0  0  0  0  0  0  0  0  0  0  0
   13.5192    8.0871   -8.4660 O   0  5  0  0  0  0  0  0  0  0  0  0
   15.3433    7.5710   -6.6566 O   0  0  0  0  0  0  0  0  0  0  0  0
   12.1012    2.4912   -4.9584 C   0  0  2  0  0  0  0  0  0  0  0  0
   13.0118    1.4790   -4.5135 O   0  0  0  0  0  0  0  0  0  0  0  0
   11.2426    1.9739   -6.1413 C   0  0  2  0  0  0  0  0  0  0  0  0
   10.4944    0.7719   -5.7263 N   0  0  0  0  0  0  0  0  0  0  0  0
   12.1779    1.6326   -7.3135 C   0  0  1  0  0  0  0  0  0  0  0  0
   11.4169    1.1679   -8.4316 O   0  0  0  0  0  0  0  0  0  0  0  0
   12.9284    2.9055   -7.7011 C   0  0  2  0  0  0  0  0  0  0  0  0
   13.8022    2.6112   -8.7836 O   0  0  0  0  0  0  0  0  0  0  0  0
   13.7453    3.3964   -6.4748 C   0  0  2  0  0  0  0  0  0  0  0  0
   12.8546    3.6792   -5.3523 O   0  0  0  0  0  0  0  0  0  0  0  0
   14.5202    4.6928   -6.8177 C   0  0  0  0  0  0  0  0  0  0  0  0
   13.6426    5.6747   -7.3984 O   0  0  0  0  0  0  0  0  0  0  0  0
  1  2  1  6  0  0  0
  1  3  1  0  0  0  0
  1  4  2  0  0  0  0
  1 16  1  0  0  0  0
  5  6  1  6  0  0  0
  5  7  1  0  0  0  0
  5 14  1  0  0  0  0
  7  8  1  1  0  0  0
  7  9  1  0  0  0  0
  9 10  1  6  0  0  0
  9 11  1  0  0  0  0
 11 12  1  6  0  0  0
 11 13  1  0  0  0  0
 13 14  1  0  0  0  0
 13 15  1  6  0  0  0
 15 16  1  0  0  0  0
M  CHG  1   3  -1
M  END
>  <CHROM.1>
51.11423556,-174.04565211,62.88398465,13.30558585,4.13461743,-7.06596122
0.23646706,-1.10496651,-1.59938041

>  <Name>
ligand

>  <RI>
0

>  <Rbt.Current_Directory>
/home/itssahil/PROJECTS/Mol_Feturizer/New_Systems/rnas/3B4C

>  <Rbt.Executable>
rbdock ($Id: //depot/dev/client3/rdock/2013.1/src/exe/rbdock.cxx#4 $)

>  <Rbt.Library>
libRbt.so (2013.1, Build901 2013/11/27)

>  <Rbt.Parameter_File>
/export/apps/rDock/src/rDock_2013.1_src/data/scripts/dock_solv.prm

>  <Rbt.Receptor>
prm/blind_docking_20.prm

>  <SCORE>
-5.05796

>  <SCORE.INTER>
-3.60107

>  <SCORE.INTER.CONST>
1

>  <SCORE.INTER.POLAR>
0

>  <SCORE.INTER.ROT>
3

>  <SCORE.INTER.SOLV>
15.5295

>  <SCORE.INTER.VDW>
-13.1772

>  <SCORE.INTER.norm>
-0.225067

>  <SCORE.INTRA>
-1.4569

>  <SCORE.INTRA.DIHEDRAL>
-1.66371

>  <SCORE.INTRA.DIHEDRAL.0>
2.1318

>  <SCORE.INTRA.POLAR>
0

>  <SCORE.INTRA.POLAR.0>
0

>  <SCORE.INTRA.REPUL>
0

>  <SCORE.INTRA.REPUL.0>
0

>  <SCORE.INTRA.SOLV>
-0.784951

>  <SCORE.INTRA.SOLV.lig_0>
-58.6125

>  <SCORE.INTRA.VDW>
-0.232564

>  <SCORE.INTRA.VDW.0>
-0.432734

>  <SCORE.INTRA.norm>
-0.0910559

>  <SCORE.RESTR>
0

>  <SCORE.RESTR.CAVITY>
0

>  <SCORE.RESTR.norm>
0

>  <SCORE.SYSTEM>
0

>  <SCORE.SYSTEM.CONST>
0

>  <SCORE.SYSTEM.DIHEDRAL>
0

>  <SCORE.SYSTEM.SOLV>
0

>  <SCORE.SYSTEM.norm>
0

>  <SCORE.heavy>
16

>  <SCORE.norm>
-0.316123

>  <RMSD>
42.827

$$$$
ligand
 OpenBabel11021811463D
libRbt.so/2013.1/901 2013/11/27
 16 16  0  0  0  0  0  0  0  0999 V2000
   14.5063    7.0425   -8.0341 P   0  0  2  0  0  0  0  0  0  0  0  0
   15.5117    6.6230   -9.0413 O   0  0  0  0  0  0  0  0  0  0  0  0
   13.5280    8.1455   -8.6785 O   0  5  0  0  0  0  0  0  0  0  0  0
   15.2684    7.6946   -6.7718 O   0  0  0  0  0  0  0  0  0  0  0  0
   12.0676    2.6436   -5.0267 C   0  0  2  0  0  0  0  0  0  0  0  0
   12.9756    1.6468   -4.5431 O   0  0  0  0  0  0  0  0  0  0  0  0
   11.2290    2.0931   -6.2089 C   0  0  2  0  0  0  0  0  0  0  0  0
   10.4796    0.8985   -5.7753 N   0  0  0  0  0  0  0  0  0  0  0  0
   12.1833    1.7269   -7.3582 C   0  0  1  0  0  0  0  0  0  0  0  0
   11.4410    1.2312   -8.4755 O   0  0  0  0  0  0  0  0  0  0  0  0
   12.9343    2.9932   -7.7662 C   0  0  2  0  0  0  0  0  0  0  0  0
   13.8254    2.6759   -8.8279 O   0  0  0  0  0  0  0  0  0  0  0  0
   13.7307    3.5181   -6.5405 C   0  0  2  0  0  0  0  0  0  0  0  0
   12.8220    3.8247   -5.4388 O   0  0  0  0  0  0  0  0  0  0  0  0
   14.5053    4.8090   -6.9040 C   0  0  0  0  0  0  0  0  0  0  0  0
   13.6437    5.7532   -7.5656 O   0  0  0  0  0  0  0  0  0  0  0  0
  1  2  1  6  0  0  0
  1  3  1  0  0  0  0
  1  4  2  0  0  0  0
  1 16  1  0  0  0  0
  5  6  1  6  0  0  0
  5  7  1  0  0  0  0
  5 14  1  0  0  0  0
  7  8  1  1  0  0  0
  7  9  1  0  0  0  0
  9 10  1  6  0  0  0
  9 11  1  0  0  0  0
 11 12  1  6  0  0  0
 11 13  1  0  0  0  0
 13 14  1  0  0  0  0
 13 15  1  6  0  0  0
 15 16  1  0  0  0  0
M  CHG  1   3  -1
M  END
>  <CHROM.1>
49.03845765,-175.67393090,63.90413687,13.29967782,4.23879432,-7.15737295
0.20278005,-1.10727167,-1.65481234

>  <Name>
ligand

>  <RI>
0

>  <Rbt.Current_Directory>
/home/itssahil/PROJECTS/Mol_Feturizer/New_Systems/rnas/3B4C

>  <Rbt.Executable>
rbdock ($Id: //depot/dev/client3/rdock/2013.1/src/exe/rbdock.cxx#4 $)

>  <Rbt.Library>
libRbt.so (2013.1, Build901 2013/11/27)

>  <Rbt.Parameter_File>
/export/apps/rDock/src/rDock_2013.1_src/data/scripts/dock_solv.prm

>  <Rbt.Receptor>
prm/blind_docking_20.prm

>  <SCORE>
-4.99496

>  <SCORE.INTER>
-3.60811

>  <SCORE.INTER.CONST>
1

>  <SCORE.INTER.POLAR>
0

>  <SCORE.INTER.ROT>
3

>  <SCORE.INTER.SOLV>
15.6295

>  <SCORE.INTER.VDW>
-13.2152

>  <SCORE.INTER.norm>
-0.225507

>  <SCORE.INTRA>
-1.38685

>  <SCORE.INTRA.DIHEDRAL>
-1.592

>  <SCORE.INTRA.DIHEDRAL.0>
2.1318

>  <SCORE.INTRA.POLAR>
0

>  <SCORE.INTRA.POLAR.0>
0

>  <SCORE.INTRA.REPUL>
0

>  <SCORE.INTRA.REPUL.0>
0

>  <SCORE.INTRA.SOLV>
-0.771575

>  <SCORE.INTRA.SOLV.lig_0>
-58.6125

>  <SCORE.INTRA.VDW>
-0.205058

>  <SCORE.INTRA.VDW.0>
-0.432734

>  <SCORE.INTRA.norm>
-0.0866779

>  <SCORE.RESTR>
0

>  <SCORE.RESTR.CAVITY>
0

>  <SCORE.RESTR.norm>
0

>  <SCORE.SYSTEM>
0

>  <SCORE.SYSTEM.CONST>
0

>  <SCORE.SYSTEM.DIHEDRAL>
0

>  <SCORE.SYSTEM.SOLV>
0

>  <SCORE.SYSTEM.norm>
0

>  <SCORE.heavy>
16

>  <SCORE.norm>
-0.312185

>  <RMSD>
42.860

$$$$
ligand
 OpenBabel11021811463D
libRbt.so/2013.1/901 2013/11/27
 16 16  0  0  0  0  0  0  0  0999 V2000
   14.5128    6.5394   -8.5348 P   0  0  2  0  0  0  0  0  0  0  0  0
   15.5343    6.2178   -9.5616 O   0  0  0  0  0  0  0  0  0  0  0  0
   13.5575    7.7150   -9.0771 O   0  5  0  0  0  0  0  0  0  0  0  0
   15.2554    7.0460   -7.1963 O   0  0  0  0  0  0  0  0  0  0  0  0
   13.9104    0.5749   -6.7878 C   0  0  2  0  0  0  0  0  0  0  0  0
   13.2816    0.1338   -7.9969 O   0  0  0  0  0  0  0  0  0  0  0  0
   12.8641    0.7421   -5.6558 C   0  0  2  0  0  0  0  0  0  0  0  0
   12.1714   -0.5397   -5.4235 N   0  0  0  0  0  0  0  0  0  0  0  0
   11.8506    1.8183   -6.0801 C   0  0  1  0  0  0  0  0  0  0  0  0
   10.8782    2.0125   -5.0497 O   0  0  0  0  0  0  0  0  0  0  0  0
   12.6167    3.1198   -6.3103 C   0  0  2  0  0  0  0  0  0  0  0  0
   11.6971    4.1294   -6.7064 O   0  0  0  0  0  0  0  0  0  0  0  0
   13.6691    2.8885   -7.4288 C   0  0  2  0  0  0  0  0  0  0  0  0
   14.6034    1.8366   -7.0364 O   0  0  0  0  0  0  0  0  0  0  0  0
   14.4785    4.1821   -7.6936 C   0  0  0  0  0  0  0  0  0  0  0  0
   13.6295    5.2174   -8.2218 O   0  0  0  0  0  0  0  0  0  0  0  0
  1  2  1  6  0  0  0
  1  3  1  0  0  0  0
  1  4  2  0  0  0  0
  1 16  1  0  0  0  0
  5  6  1  6  0  0  0
  5  7  1  0  0  0  0
  5 14  1  0  0  0  0
  7  8  1  6  0  0  0
  7  9  1  0  0  0  0
  9 10  1  1  0  0  0
  9 11  1  0  0  0  0
 11 12  1  6  0  0  0
 11 13  1  0  0  0  0
 13 14  1  0  0  0  0
 13 15  1  1  0  0  0
 15 16  1  0  0  0  0
M  CHG  1   3  -1
M  END
>  <CHROM.1>
-65.12362392,-178.11180718,61.80542820,13.49908287,3.65575693,-7.30579210
-1.19243125,-0.60392495,2.97009789

>  <Name>
ligand

>  <RI>
0

>  <Rbt.Current_Directory>
/home/itssahil/PROJECTS/Mol_Feturizer/New_Systems/rnas/3B4C

>  <Rbt.Executable>
rbdock ($Id: //depot/dev/client3/rdock/2013.1/src/exe/rbdock.cxx#4 $)

>  <Rbt.Library>
libRbt.so (2013.1, Build901 2013/11/27)

>  <Rbt.Parameter_File>
/export/apps/rDock/src/rDock_2013.1_src/data/scripts/dock_solv.prm

>  <Rbt.Receptor>
prm/blind_docking_20.prm

>  <SCORE>
-4.61215

>  <SCORE.INTER>
-3.19307

>  <SCORE.INTER.CONST>
1

>  <SCORE.INTER.POLAR>
0

>  <SCORE.INTER.ROT>
3

>  <SCORE.INTER.SOLV>
11.0149

>  <SCORE.INTER.VDW>
-11.4003

>  <SCORE.INTER.norm>
-0.199567

>  <SCORE.INTRA>
-1.41908

>  <SCORE.INTRA.DIHEDRAL>
-2.01313

>  <SCORE.INTRA.DIHEDRAL.0>
2.1318

>  <SCORE.INTRA.POLAR>
0

>  <SCORE.INTRA.POLAR.0>
0

>  <SCORE.INTRA.REPUL>
0

>  <SCORE.INTRA.REPUL.0>
0

>  <SCORE.INTRA.SOLV>
-0.630681

>  <SCORE.INTRA.SOLV.lig_0>
-58.6125

>  <SCORE.INTRA.VDW>
-0.097173

>  <SCORE.INTRA.VDW.0>
-0.432734

>  <SCORE.INTRA.norm>
-0.0886925

>  <SCORE.RESTR>
0

>  <SCORE.RESTR.CAVITY>
0

>  <SCORE.RESTR.norm>
0

>  <SCORE.SYSTEM>
0

>  <SCORE.SYSTEM.CONST>
0

>  <SCORE.SYSTEM.DIHEDRAL>
0

>  <SCORE.SYSTEM.SOLV>
0

>  <SCORE.SYSTEM.norm>
0

>  <SCORE.heavy>
16

>  <SCORE.norm>
-0.288259

>  <RMSD>
42.869

$$$$
ligand
 OpenBabel11021811463D
libRbt.so/2013.1/901 2013/11/27
 16 16  0  0  0  0  0  0  0  0999 V2000
   14.5483    6.7008   -8.6293 P   0  0  2  0  0  0  0  0  0  0  0  0
   15.4457    6.0239   -9.5977 O   0  0  0  0  0  0  0  0  0  0  0  0
   13.8843    7.9915   -9.3238 O   0  5  0  0  0  0  0  0  0  0  0  0
   15.4151    7.1806   -7.3573 O   0  0  0  0  0  0  0  0  0  0  0  0
   10.9863    2.3138   -7.1356 C   0  0  2  0  0  0  0  0  0  0  0  0
   10.1126    3.1776   -6.3993 O   0  0  0  0  0  0  0  0  0  0  0  0
   11.5720    1.2127   -6.2144 C   0  0  2  0  0  0  0  0  0  0  0  0
   10.4754    0.4274   -5.6164 N   0  0  0  0  0  0  0  0  0  0  0  0
   12.3992    1.8884   -5.1078 C   0  0  1  0  0  0  0  0  0  0  0  0
   12.9711    0.8996   -4.2472 O   0  0  0  0  0  0  0  0  0  0  0  0
   13.5151    2.6881   -5.7779 C   0  0  2  0  0  0  0  0  0  0  0  0
   14.2920    3.3240   -4.7710 O   0  0  0  0  0  0  0  0  0  0  0  0
   12.8755    3.7531   -6.7099 C   0  0  2  0  0  0  0  0  0  0  0  0
   12.0581    3.1064   -7.7332 O   0  0  0  0  0  0  0  0  0  0  0  0
   13.9709    4.5870   -7.4195 C   0  0  0  0  0  0  0  0  0  0  0  0
   13.3864    5.6723   -8.1626 O   0  0  0  0  0  0  0  0  0  0  0  0
  1  2  1  6  0  0  0
  1  3  1  0  0  0  0
  1  4  2  0  0  0  0
  1 16  1  0  0  0  0
  5  6  1  1  0  0  0
  5  7  1  0  0  0  0
  5 14  1  0  0  0  0
  7  8  1  1  0  0  0
  7  9  1  0  0  0  0
  9 10  1  1  0  0  0
  9 11  1  0  0  0  0
 11 12  1  1  0  0  0
 11 13  1  0  0  0  0
 13 14  1  0  0  0  0
 13 15  1  6  0  0  0
 15 16  1  0  0  0  0
M  CHG  1   3  -1
M  END
>  <CHROM.1>
-173.36111137,168.08930622,65.78481800,13.14166882,4.08662029,-7.03831701
1.07280639,-0.45088630,-0.76442368

>  <Name>
ligand

>  <RI>
0

>  <Rbt.Current_Directory>
/home/itssahil/PROJECTS/Mol_Feturizer/New_Systems/rnas/3B4C

>  <Rbt.Executable>
rbdock ($Id: //depot/dev/client3/rdock/2013.1/src/exe/rbdock.cxx#4 $)

>  <Rbt.Library>
libRbt.so (2013.1, Build901 2013/11/27)

>  <Rbt.Parameter_File>
/export/apps/rDock/src/rDock_2013.1_src/data/scripts/dock_solv.prm

>  <Rbt.Receptor>
prm/blind_docking_20.prm

>  <SCORE>
-3.55018

>  <SCORE.INTER>
-2.30447

>  <SCORE.INTER.CONST>
1

>  <SCORE.INTER.POLAR>
0

>  <SCORE.INTER.ROT>
3

>  <SCORE.INTER.SOLV>
15.1488

>  <SCORE.INTER.VDW>
-12.1859

>  <SCORE.INTER.norm>
-0.14403

>  <SCORE.INTRA>
-1.24606

>  <SCORE.INTRA.DIHEDRAL>
-1.23538

>  <SCORE.INTRA.DIHEDRAL.0>
2.1318

>  <SCORE.INTRA.POLAR>
0

>  <SCORE.INTRA.POLAR.0>
0

>  <SCORE.INTRA.REPUL>
0

>  <SCORE.INTRA.REPUL.0>
0

>  <SCORE.INTRA.SOLV>
-0.970553

>  <SCORE.INTRA.SOLV.lig_0>
-58.6125

>  <SCORE.INTRA.VDW>
-0.143099

>  <SCORE.INTRA.VDW.0>
-0.432734

>  <SCORE.INTRA.norm>
-0.0778789

>  <SCORE.RESTR>
0.000354139

>  <SCORE.RESTR.CAVITY>
0.000354139

>  <SCORE.RESTR.norm>
2.21337e-05

>  <SCORE.SYSTEM>
0

>  <SCORE.SYSTEM.CONST>
0

>  <SCORE.SYSTEM.DIHEDRAL>
0

>  <SCORE.SYSTEM.SOLV>
0

>  <SCORE.SYSTEM.norm>
0

>  <SCORE.heavy>
16

>  <SCORE.norm>
-0.221886

>  <RMSD>
42.981

$$$$
ligand
 OpenBabel11021811463D
libRbt.so/2013.1/901 2013/11/27
 16 16  0  0  0  0  0  0  0  0999 V2000
   14.5244    6.8854   -7.7397 P   0  0  2  0  0  0  0  0  0  0  0  0
   13.7142    8.0988   -8.0092 O   0  0  0  0  0  0  0  0  0  0  0  0
   15.6082    7.2065   -6.5947 O   0  5  0  0  0  0  0  0  0  0  0  0
   15.2999    6.4620   -9.0884 O   0  0  0  0  0  0  0  0  0  0  0  0
   11.8760    2.5654   -4.8964 C   0  0  2  0  0  0  0  0  0  0  0  0
   12.6703    1.4025   -4.6348 O   0  0  0  0  0  0  0  0  0  0  0  0
   10.7949    2.2612   -5.9654 C   0  0  2  0  0  0  0  0  0  0  0  0
    9.9326    1.1572   -5.5025 N   0  0  0  0  0  0  0  0  0  0  0  0
   11.4980    1.8659   -7.2749 C   0  0  1  0  0  0  0  0  0  0  0  0
   10.5294    1.5949   -8.2915 O   0  0  0  0  0  0  0  0  0  0  0  0
   12.3774    3.0378   -7.7077 C   0  0  2  0  0  0  0  0  0  0  0  0
   13.0397    2.6919   -8.9175 O   0  0  0  0  0  0  0  0  0  0  0  0
   13.4194    3.3191   -6.5910 C   0  0  2  0  0  0  0  0  0  0  0  0
   12.7442    3.6535   -5.3397 O   0  0  0  0  0  0  0  0  0  0  0  0
   14.3323    4.5075   -6.9821 C   0  0  0  0  0  0  0  0  0  0  0  0
   13.5509    5.6859   -7.2506 O   0  0  0  0  0  0  0  0  0  0  0  0
  1  2  1  6  0  0  0
  1  3  1  0  0  0  0
  1  4  2  0  0  0  0
  1 16  1  0  0  0  0
  5  6  1  6  0  0  0
  5  7  1  0  0  0  0
  5 14  1  0  0  0  0
  7  8  1  1  0  0  0
  7  9  1  0  0  0  0
  9 10  1  6  0  0  0
  9 11  1  0  0  0  0
 11 12  1  6  0  0  0
 11 13  1  0  0  0  0
 13 14  1  0  0  0  0
 13 15  1  6  0  0  0
 15 16  1  0  0  0  0
M  CHG  1   3  -1
M  END
>  <CHROM.1>
57.06290225,-176.72326654,-179.75214890,13.03135907,4.17023871,-7.00919764
-0.39560802,0.95679214,1.74877378

>  <Name>
ligand

>  <RI>
0

>  <Rbt.Current_Directory>
/home/itssahil/PROJECTS/Mol_Feturizer/New_Systems/rnas/3B4C

>  <Rbt.Executable>
rbdock ($Id: //depot/dev/client3/rdock/2013.1/src/exe/rbdock.cxx#4 $)

>  <Rbt.Library>
libRbt.so (2013.1, Build901 2013/11/27)

>  <Rbt.Parameter_File>
/export/apps/rDock/src/rDock_2013.1_src/data/scripts/dock_solv.prm

>  <Rbt.Receptor>
prm/blind_docking_20.prm

>  <SCORE>
-3.46986

>  <SCORE.INTER>
-2.00324

>  <SCORE.INTER.CONST>
1

>  <SCORE.INTER.POLAR>
0

>  <SCORE.INTER.ROT>
3

>  <SCORE.INTER.SOLV>
21.0014

>  <SCORE.INTER.VDW>
-13.936

>  <SCORE.INTER.norm>
-0.125203

>  <SCORE.INTRA>
-1.46662

>  <SCORE.INTRA.DIHEDRAL>
-2.04608

>  <SCORE.INTRA.DIHEDRAL.0>
2.1318

>  <SCORE.INTRA.POLAR>
0

>  <SCORE.INTRA.POLAR.0>
0

>  <SCORE.INTRA.REPUL>
0

>  <SCORE.INTRA.REPUL.0>
0

>  <SCORE.INTRA.SOLV>
-0.158027

>  <SCORE.INTRA.SOLV.lig_0>
-58.6125

>  <SCORE.INTRA.VDW>
-0.364568

>  <SCORE.INTRA.VDW.0>
-0.432734

>  <SCORE.INTRA.norm>
-0.0916638

>  <SCORE.RESTR>
0

>  <SCORE.RESTR.CAVITY>
0

>  <SCORE.RESTR.norm>
0

>  <SCORE.SYSTEM>
0

>  <SCORE.SYSTEM.CONST>
0

>  <SCORE.SYSTEM.DIHEDRAL>
0

>  <SCORE.SYSTEM.SOLV>
0

>  <SCORE.SYSTEM.norm>
0

>  <SCORE.heavy>
16

>  <SCORE.norm>
-0.216867

>  <RMSD>
43.017

$$$$
ligand
 OpenBabel11021811463D
libRbt.so/2013.1/901 2013/11/27
 16 16  0  0  0  0  0  0  0  0999 V2000
   13.5977    7.2927   -8.1212 P   0  0  2  0  0  0  0  0  0  0  0  0
   12.9386    7.9593   -9.2712 O   0  0  0  0  0  0  0  0  0  0  0  0
   13.4263    8.2003   -6.8037 O   0  5  0  0  0  0  0  0  0  0  0  0
   15.1694    7.1278   -8.4404 O   0  0  0  0  0  0  0  0  0  0  0  0
   13.7851    1.4645   -5.9662 C   0  0  2  0  0  0  0  0  0  0  0  0
   13.6678    0.8898   -7.2730 O   0  0  0  0  0  0  0  0  0  0  0  0
   12.4458    1.3467   -5.1939 C   0  0  2  0  0  0  0  0  0  0  0  0
   12.0553   -0.0720   -5.0860 N   0  0  0  0  0  0  0  0  0  0  0  0
   11.3677    2.1322   -5.9596 C   0  0  1  0  0  0  0  0  0  0  0  0
   10.1196    2.0605   -5.2650 O   0  0  0  0  0  0  0  0  0  0  0  0
   11.8204    3.5887   -6.0457 C   0  0  2  0  0  0  0  0  0  0  0  0
   10.8374    4.3335   -6.7532 O   0  0  0  0  0  0  0  0  0  0  0  0
   13.1773    3.6460   -6.7991 C   0  0  2  0  0  0  0  0  0  0  0  0
   14.1856    2.8640   -6.0882 O   0  0  0  0  0  0  0  0  0  0  0  0
   13.6822    5.1063   -6.9055 C   0  0  0  0  0  0  0  0  0  0  0  0
   12.9179    5.8420   -7.8782 O   0  0  0  0  0  0  0  0  0  0  0  0
  1  2  1  6  0  0  0
  1  3  1  0  0  0  0
  1  4  2  0  0  0  0
  1 16  1  0  0  0  0
  5  6  1  6  0  0  0
  5  7  1  0  0  0  0
  5 14  1  0  0  0  0
  7  8  1  6  0  0  0
  7  9  1  0  0  0  0
  9 10  1  1  0  0  0
  9 11  1  0  0  0  0
 11 12  1  6  0  0  0
 11 13  1  0  0  0  0
 13 14  1  0  0  0  0
 13 15  1  1  0  0  0
 15 16  1  0  0  0  0
M  CHG  1   3  -1
M  END
>  <CHROM.1>
-73.89463662,-171.98585658,171.13940285,12.88797549,4.29777916,-6.87863251
-1.34317343,-0.27535563,2.82653078

>  <Name>
ligand

>  <RI>
0

>  <Rbt.Current_Directory>
/home/itssahil/PROJECTS/Mol_Feturizer/New_Systems/rnas/3B4C

>  <Rbt.Executable>
rbdock ($Id: //depot/dev/client3/rdock/2013.1/src/exe/rbdock.cxx#4 $)

>  <Rbt.Library>
libRbt.so (2013.1, Build901 2013/11/27)

>  <Rbt.Parameter_File>
/export/apps/rDock/src/rDock_2013.1_src/data/scripts/dock_solv.prm

>  <Rbt.Receptor>
prm/blind_docking_20.prm

>  <SCORE>
-1.70186

>  <SCORE.INTER>
-0.823735

>  <SCORE.INTER.CONST>
1

>  <SCORE.INTER.POLAR>
0

>  <SCORE.INTER.ROT>
3

>  <SCORE.INTER.SOLV>
11.6074

>  <SCORE.INTER.VDW>
-10.0183

>  <SCORE.INTER.norm>
-0.0514835

>  <SCORE.INTRA>
-0.878128

>  <SCORE.INTRA.DIHEDRAL>
-1.02909

>  <SCORE.INTRA.DIHEDRAL.0>
2.1318

>  <SCORE.INTRA.POLAR>
0

>  <SCORE.INTRA.POLAR.0>
0

>  <SCORE.INTRA.REPUL>
0

>  <SCORE.INTRA.REPUL.0>
0

>  <SCORE.INTRA.SOLV>
-0.141166

>  <SCORE.INTRA.SOLV.lig_0>
-58.6125

>  <SCORE.INTRA.VDW>
-0.293002

>  <SCORE.INTRA.VDW.0>
-0.432734

>  <SCORE.INTRA.norm>
-0.054883

>  <SCORE.RESTR>
0

>  <SCORE.RESTR.CAVITY>
0

>  <SCORE.RESTR.norm>
0

>  <SCORE.SYSTEM>
0

>  <SCORE.SYSTEM.CONST>
0

>  <SCORE.SYSTEM.DIHEDRAL>
0

>  <SCORE.SYSTEM.SOLV>
0

>  <SCORE.SYSTEM.norm>
0

>  <SCORE.heavy>
16

>  <SCORE.norm>
-0.106366

>  <RMSD>
43.021

$$$$
ligand
 OpenBabel11021811463D
libRbt.so/2013.1/901 2013/11/27
 16 16  0  0  0  0  0  0  0  0999 V2000
   14.2036    6.0260   -8.9725 P   0  0  2  0  0  0  0  0  0  0  0  0
   15.5572    6.2812   -9.5239 O   0  0  0  0  0  0  0  0  0  0  0  0
   13.7122    4.5584   -9.4125 O   0  5  0  0  0  0  0  0  0  0  0  0
   13.1795    7.1197   -9.5680 O   0  0  0  0  0  0  0  0  0  0  0  0
   13.7576    2.2784   -5.7242 C   0  0  2  0  0  0  0  0  0  0  0  0
   13.9373    1.6779   -7.0122 O   0  0  0  0  0  0  0  0  0  0  0  0
   12.3920    1.8690   -5.1147 C   0  0  2  0  0  0  0  0  0  0  0  0
   12.3176    0.4000   -4.9993 N   0  0  0  0  0  0  0  0  0  0  0  0
   11.2712    2.3818   -6.0346 C   0  0  1  0  0  0  0  0  0  0  0  0
    9.9932    2.0371   -5.4931 O   0  0  0  0  0  0  0  0  0  0  0  0
   11.3946    3.9019   -6.1224 C   0  0  2  0  0  0  0  0  0  0  0  0
   10.3673    4.3973   -6.9717 O   0  0  0  0  0  0  0  0  0  0  0  0
   12.7884    4.2566   -6.7087 C   0  0  2  0  0  0  0  0  0  0  0  0
   13.8478    3.7309   -5.8517 O   0  0  0  0  0  0  0  0  0  0  0  0
   12.9639    5.7920   -6.8106 C   0  0  0  0  0  0  0  0  0  0  0  0
   14.2538    6.1242   -7.3558 O   0  0  0  0  0  0  0  0  0  0  0  0
  1  2  1  6  0  0  0
  1  3  1  0  0  0  0
  1  4  2  0  0  0  0
  1 16  1  0  0  0  0
  5  6  1  6  0  0  0
  5  7  1  0  0  0  0
  5 14  1  0  0  0  0
  7  8  1  6  0  0  0
  7  9  1  0  0  0  0
  9 10  1  1  0  0  0
  9 11  1  0  0  0  0
 11 12  1  6  0  0  0
 11 13  1  0  0  0  0
 13 14  1  0  0  0  0
 13 15  1  1  0  0  0
 15 16  1  0  0  0  0
M  CHG  1   3  -1
M  END
>  <CHROM.1>
-179.89896198,82.33153186,-176.27512935,12.98640649,4.12348317,-7.17649752
-1.14263185,-0.24297580,2.57669147

>  <Name>
ligand

>  <RI>
0

>  <Rbt.Current_Directory>
/home/itssahil/PROJECTS/Mol_Feturizer/New_Systems/rnas/3B4C

>  <Rbt.Executable>
rbdock ($Id: //depot/dev/client3/rdock/2013.1/src/exe/rbdock.cxx#4 $)

>  <Rbt.Library>
libRbt.so (2013.1, Build901 2013/11/27)

>  <Rbt.Parameter_File>
/export/apps/rDock/src/rDock_2013.1_src/data/scripts/dock_solv.prm

>  <Rbt.Receptor>
prm/blind_docking_20.prm

>  <SCORE>
-4.14758

>  <SCORE.INTER>
-4.93342

>  <SCORE.INTER.CONST>
1

>  <SCORE.INTER.POLAR>
0

>  <SCORE.INTER.ROT>
3

>  <SCORE.INTER.SOLV>
7.07222

>  <SCORE.INTER.VDW>
-11.2464

>  <SCORE.INTER.norm>
-0.308339

>  <SCORE.INTRA>
0.785848

>  <SCORE.INTRA.DIHEDRAL>
0.0877018

>  <SCORE.INTRA.DIHEDRAL.0>
2.1318

>  <SCORE.INTRA.POLAR>
0

>  <SCORE.INTRA.POLAR.0>
0

>  <SCORE.INTRA.REPUL>
0

>  <SCORE.INTRA.REPUL.0>
0

>  <SCORE.INTRA.SOLV>
2.433

>  <SCORE.INTRA.SOLV.lig_0>
-58.6125

>  <SCORE.INTRA.VDW>
-0.474504

>  <SCORE.INTRA.VDW.0>
-0.432734

>  <SCORE.INTRA.norm>
0.0491155

>  <SCORE.RESTR>
0

>  <SCORE.RESTR.CAVITY>
0

>  <SCORE.RESTR.norm>
0

>  <SCORE.SYSTEM>
0

>  <SCORE.SYSTEM.CONST>
0

>  <SCORE.SYSTEM.DIHEDRAL>
0

>  <SCORE.SYSTEM.SOLV>
0

>  <SCORE.SYSTEM.norm>
0

>  <SCORE.heavy>
16

>  <SCORE.norm>
-0.259224

>  <RMSD>
43.092

$$$$
ligand
 OpenBabel11021811463D
libRbt.so/2013.1/901 2013/11/27
 16 16  0  0  0  0  0  0  0  0999 V2000
   14.6095    6.3029   -8.1077 P   0  0  2  0  0  0  0  0  0  0  0  0
   13.3070    6.9759   -8.3357 O   0  0  0  0  0  0  0  0  0  0  0  0
   15.3881    7.0331   -6.9038 O   0  5  0  0  0  0  0  0  0  0  0  0
   15.4991    6.4137   -9.4478 O   0  0  0  0  0  0  0  0  0  0  0  0
   11.7225    1.7898   -4.8939 C   0  0  2  0  0  0  0  0  0  0  0  0
   12.8927    1.1178   -4.4134 O   0  0  0  0  0  0  0  0  0  0  0  0
   11.1147    1.0339   -6.1035 C   0  0  2  0  0  0  0  0  0  0  0  0
   10.7754   -0.3468   -5.7095 N   0  0  0  0  0  0  0  0  0  0  0  0
   12.1496    1.0169   -7.2412 C   0  0  1  0  0  0  0  0  0  0  0  0
   11.6152    0.3416   -8.3829 O   0  0  0  0  0  0  0  0  0  0  0  0
   12.4676    2.4654   -7.6080 C   0  0  2  0  0  0  0  0  0  0  0  0
   13.4260    2.4728   -8.6584 O   0  0  0  0  0  0  0  0  0  0  0  0
   13.0428    3.1827   -6.3563 C   0  0  2  0  0  0  0  0  0  0  0  0
   12.0706    3.1587   -5.2665 O   0  0  0  0  0  0  0  0  0  0  0  0
   13.3749    4.6609   -6.6777 C   0  0  0  0  0  0  0  0  0  0  0  0
   14.3530    4.7482   -7.7299 O   0  0  0  0  0  0  0  0  0  0  0  0
  1  2  1  6  0  0  0
  1  3  1  0  0  0  0
  1  4  2  0  0  0  0
  1 16  1  0  0  0  0
  5  6  1  6  0  0  0
  5  7  1  0  0  0  0
  5 14  1  0  0  0  0
  7  8  1  1  0  0  0
  7  9  1  0  0  0  0
  9 10  1  6  0  0  0
  9 11  1  0  0  0  0
 11 12  1  6  0  0  0
 11 13  1  0  0  0  0
 13 14  1  0  0  0  0
 13 15  1  6  0  0  0
 15 16  1  0  0  0  0
M  CHG  1   3  -1
M  END
>  <CHROM.1>
-60.18442784,176.42834672,-50.21492223,13.15134467,3.55199002,-7.10120680
0.07636082,-1.09892852,-1.83622675

>  <Name>
ligand

>  <RI>
0

>  <Rbt.Current_Directory>
/home/itssahil/PROJECTS/Mol_Feturizer/New_Systems/rnas/3B4C

>  <Rbt.Executable>
rbdock ($Id: //depot/dev/client3/rdock/2013.1/src/exe/rbdock.cxx#4 $)

>  <Rbt.Library>
libRbt.so (2013.1, Build901 2013/11/27)

>  <Rbt.Parameter_File>
/export/apps/rDock/src/rDock_2013.1_src/data/scripts/dock_solv.prm

>  <Rbt.Receptor>
prm/blind_docking_20.prm

>  <SCORE>
-1.64247

>  <SCORE.INTER>
-0.466414

>  <SCORE.INTER.CONST>
1

>  <SCORE.INTER.POLAR>
0

>  <SCORE.INTER.ROT>
3

>  <SCORE.INTER.SOLV>
18.6549

>  <SCORE.INTER.VDW>
-12.1292

>  <SCORE.INTER.norm>
-0.0291509

>  <SCORE.INTRA>
-1.17605

>  <SCORE.INTRA.DIHEDRAL>
-1.9096

>  <SCORE.INTRA.DIHEDRAL.0>
2.1318

>  <SCORE.INTRA.POLAR>
0

>  <SCORE.INTRA.POLAR.0>
0

>  <SCORE.INTRA.REPUL>
0

>  <SCORE.INTRA.REPUL.0>
0

>  <SCORE.INTRA.SOLV>
-0.648037

>  <SCORE.INTRA.SOLV.lig_0>
-58.6125

>  <SCORE.INTRA.VDW>
0.102763

>  <SCORE.INTRA.VDW.0>
-0.432734

>  <SCORE.INTRA.norm>
-0.0735034

>  <SCORE.RESTR>
0

>  <SCORE.RESTR.CAVITY>
0

>  <SCORE.RESTR.norm>
0

>  <SCORE.SYSTEM>
0

>  <SCORE.SYSTEM.CONST>
0

>  <SCORE.SYSTEM.DIHEDRAL>
0

>  <SCORE.SYSTEM.SOLV>
0

>  <SCORE.SYSTEM.norm>
0

>  <SCORE.heavy>
16

>  <SCORE.norm>
-0.102654

>  <RMSD>
43.093

$$$$
ligand
 OpenBabel11021811463D
libRbt.so/2013.1/901 2013/11/27
 16 16  0  0  0  0  0  0  0  0999 V2000
   14.5974    6.3410   -8.4075 P   0  0  2  0  0  0  0  0  0  0  0  0
   15.5884    6.3313   -9.5117 O   0  0  0  0  0  0  0  0  0  0  0  0
   13.2057    6.9479   -8.9401 O   0  5  0  0  0  0  0  0  0  0  0  0
   15.1506    7.2732   -7.2140 O   0  0  0  0  0  0  0  0  0  0  0  0
   11.5823    2.0668   -4.9900 C   0  0  2  0  0  0  0  0  0  0  0  0
   12.7222    1.5656   -4.2821 O   0  0  0  0  0  0  0  0  0  0  0  0
   11.1872    1.1068   -6.1417 C   0  0  2  0  0  0  0  0  0  0  0  0
   10.8914   -0.2316   -5.5960 N   0  0  0  0  0  0  0  0  0  0  0  0
   12.3593    1.0230   -7.1339 C   0  0  1  0  0  0  0  0  0  0  0  0
   12.0228    0.1578   -8.2217 O   0  0  0  0  0  0  0  0  0  0  0  0
   12.6260    2.4303   -7.6653 C   0  0  2  0  0  0  0  0  0  0  0  0
   13.7097    2.3758   -8.5843 O   0  0  0  0  0  0  0  0  0  0  0  0
   12.9860    3.3551   -6.4706 C   0  0  2  0  0  0  0  0  0  0  0  0
   11.8848    3.3973   -5.5120 O   0  0  0  0  0  0  0  0  0  0  0  0
   13.2588    4.7989   -6.9599 C   0  0  0  0  0  0  0  0  0  0  0  0
   14.3670    4.8271   -7.8779 O   0  0  0  0  0  0  0  0  0  0  0  0
  1  2  1  6  0  0  0
  1  3  1  0  0  0  0
  1  4  2  0  0  0  0
  1 16  1  0  0  0  0
  5  6  1  6  0  0  0
  5  7  1  0  0  0  0
  5 14  1  0  0  0  0
  7  8  1  1  0  0  0
  7  9  1  0  0  0  0
  9 10  1  6  0  0  0
  9 11  1  0  0  0  0
 11 12  1  6  0  0  0
 11 13  1  0  0  0  0
 13 14  1  0  0  0  0
 13 15  1  6  0  0  0
 15 16  1  0  0  0  0
M  CHG  1   3  -1
M  END
>  <CHROM.1>
-60.85704777,178.21333967,-170.89495381,13.16875293,3.63521620,-7.22148120
-0.24818129,-1.10734908,-2.25369548

>  <Name>
ligand

>  <RI>
0

>  <Rbt.Current_Directory>
/home/itssahil/PROJECTS/Mol_Feturizer/New_Systems/rnas/3B4C

>  <Rbt.Executable>
rbdock ($Id: //depot/dev/client3/rdock/2013.1/src/exe/rbdock.cxx#4 $)

>  <Rbt.Library>
libRbt.so (2013.1, Build901 2013/11/27)

>  <Rbt.Parameter_File>
/export/apps/rDock/src/rDock_2013.1_src/data/scripts/dock_solv.prm

>  <Rbt.Receptor>
prm/blind_docking_20.prm

>  <SCORE>
-4.63423

>  <SCORE.INTER>
-3.61083

>  <SCORE.INTER.CONST>
1

>  <SCORE.INTER.POLAR>
0

>  <SCORE.INTER.ROT>
3

>  <SCORE.INTER.SOLV>
12.5534

>  <SCORE.INTER.VDW>
-12.1917

>  <SCORE.INTER.norm>
-0.225677

>  <SCORE.INTRA>
-1.0234

>  <SCORE.INTRA.DIHEDRAL>
-1.97477

>  <SCORE.INTRA.DIHEDRAL.0>
2.1318

>  <SCORE.INTRA.POLAR>
0

>  <SCORE.INTRA.POLAR.0>
0

>  <SCORE.INTRA.REPUL>
0

>  <SCORE.INTRA.REPUL.0>
0

>  <SCORE.INTRA.SOLV>
0.0685976

>  <SCORE.INTRA.SOLV.lig_0>
-58.6125

>  <SCORE.INTRA.VDW>
-0.0703167

>  <SCORE.INTRA.VDW.0>
-0.432734

>  <SCORE.INTRA.norm>
-0.0639626

>  <SCORE.RESTR>
0

>  <SCORE.RESTR.CAVITY>
0

>  <SCORE.RESTR.norm>
0

>  <SCORE.SYSTEM>
0

>  <SCORE.SYSTEM.CONST>
0

>  <SCORE.SYSTEM.DIHEDRAL>
0

>  <SCORE.SYSTEM.SOLV>
0

>  <SCORE.SYSTEM.norm>
0

>  <SCORE.heavy>
16

>  <SCORE.norm>
-0.289639

>  <RMSD>
43.129

$$$$
ligand
 OpenBabel11021811463D
libRbt.so/2013.1/901 2013/11/27
 16 16  0  0  0  0  0  0  0  0999 V2000
   14.2036    6.0189   -8.9417 P   0  0  2  0  0  0  0  0  0  0  0  0
   15.5445    6.3098   -9.5061 O   0  0  0  0  0  0  0  0  0  0  0  0
   13.7092    4.5741   -9.4485 O   0  5  0  0  0  0  0  0  0  0  0  0
   13.1630    7.1372   -9.4578 O   0  0  0  0  0  0  0  0  0  0  0  0
   13.7013    2.1365   -5.8997 C   0  0  2  0  0  0  0  0  0  0  0  0
   13.7757    1.5929   -7.2229 O   0  0  0  0  0  0  0  0  0  0  0  0
   12.3594    1.7525   -5.2245 C   0  0  2  0  0  0  0  0  0  0  0  0
   12.2295    0.2837   -5.1726 N   0  0  0  0  0  0  0  0  0  0  0  0
   11.2071    2.3536   -6.0470 C   0  0  1  0  0  0  0  0  0  0  0  0
    9.9513    2.0340   -5.4421 O   0  0  0  0  0  0  0  0  0  0  0  0
   11.3897    3.8702   -6.0721 C   0  0  2  0  0  0  0  0  0  0  0  0
   10.3344    4.4467   -6.8307 O   0  0  0  0  0  0  0  0  0  0  0  0
   12.7588    4.1973   -6.7285 C   0  0  2  0  0  0  0  0  0  0  0  0
   13.8454    3.5887   -5.9655 O   0  0  0  0  0  0  0  0  0  0  0  0
   12.9931    5.7276   -6.7702 C   0  0  0  0  0  0  0  0  0  0  0  0
   14.2865    6.0321   -7.3235 O   0  0  0  0  0  0  0  0  0  0  0  0
  1  2  1  6  0  0  0
  1  3  1  0  0  0  0
  1  4  2  0  0  0  0
  1 16  1  0  0  0  0
  5  6  1  6  0  0  0
  5  7  1  0  0  0  0
  5 14  1  0  0  0  0
  7  8  1  6  0  0  0
  7  9  1  0  0  0  0
  9 10  1  1  0  0  0
  9 11  1  0  0  0  0
 11 12  1  6  0  0  0
 11 13  1  0  0  0  0
 13 14  1  0  0  0  0
 13 15  1  1  0  0  0
 15 16  1  0  0  0  0
M  CHG  1   3  -1
M  END
>  <CHROM.1>
177.43778730,82.93176533,-179.01401888,12.95832431,4.07967526,-7.19442129
-1.11751708,-0.31620434,2.63923569

>  <Name>
ligand

>  <RI>
0

>  <Rbt.Current_Directory>
/home/itssahil/PROJECTS/Mol_Feturizer/New_Systems/rnas/3B4C

>  <Rbt.Executable>
rbdock ($Id: //depot/dev/client3/rdock/2013.1/src/exe/rbdock.cxx#4 $)

>  <Rbt.Library>
libRbt.so (2013.1, Build901 2013/11/27)

>  <Rbt.Parameter_File>
/export/apps/rDock/src/rDock_2013.1_src/data/scripts/dock_solv.prm

>  <Rbt.Receptor>
prm/blind_docking_20.prm

>  <SCORE>
-3.98428

>  <SCORE.INTER>
-4.7472

>  <SCORE.INTER.CONST>
1

>  <SCORE.INTER.POLAR>
0

>  <SCORE.INTER.ROT>
3

>  <SCORE.INTER.SOLV>
6.83436

>  <SCORE.INTER.VDW>
-11.0429

>  <SCORE.INTER.norm>
-0.2967

>  <SCORE.INTRA>
0.762922

>  <SCORE.INTRA.DIHEDRAL>
0.193352

>  <SCORE.INTRA.DIHEDRAL.0>
2.1318

>  <SCORE.INTRA.POLAR>
0

>  <SCORE.INTRA.POLAR.0>
0

>  <SCORE.INTRA.REPUL>
0

>  <SCORE.INTRA.REPUL.0>
0

>  <SCORE.INTRA.SOLV>
2.38875

>  <SCORE.INTRA.SOLV.lig_0>
-58.6125

>  <SCORE.INTRA.VDW>
-0.52813

>  <SCORE.INTRA.VDW.0>
-0.432734

>  <SCORE.INTRA.norm>
0.0476826

>  <SCORE.RESTR>
0

>  <SCORE.RESTR.CAVITY>
0

>  <SCORE.RESTR.norm>
0

>  <SCORE.SYSTEM>
0

>  <SCORE.SYSTEM.CONST>
0

>  <SCORE.SYSTEM.DIHEDRAL>
0

>  <SCORE.SYSTEM.SOLV>
0

>  <SCORE.SYSTEM.norm>
0

>  <SCORE.heavy>
16

>  <SCORE.norm>
-0.249018

>  <RMSD>
43.139

$$$$
ligand
 OpenBabel11021811463D
libRbt.so/2013.1/901 2013/11/27
 16 16  0  0  0  0  0  0  0  0999 V2000
   14.6895    6.4029   -7.4747 P   0  0  2  0  0  0  0  0  0  0  0  0
   13.2662    6.5667   -7.0888 O   0  0  0  0  0  0  0  0  0  0  0  0
   15.6027    7.3896   -6.5908 O   0  5  0  0  0  0  0  0  0  0  0  0
   14.8591    6.7889   -9.0309 O   0  0  0  0  0  0  0  0  0  0  0  0
   11.6400    3.2666   -5.6025 C   0  0  2  0  0  0  0  0  0  0  0  0
   12.3728    2.4433   -4.6876 O   0  0  0  0  0  0  0  0  0  0  0  0
   10.7014    2.4036   -6.4847 C   0  0  2  0  0  0  0  0  0  0  0  0
    9.7667    1.6486   -5.6284 N   0  0  0  0  0  0  0  0  0  0  0  0
   11.5611    1.4312   -7.3098 C   0  0  1  0  0  0  0  0  0  0  0  0
   10.7278    0.6293   -8.1510 O   0  0  0  0  0  0  0  0  0  0  0  0
   12.5099    2.2606   -8.1734 C   0  0  2  0  0  0  0  0  0  0  0  0
   13.3172    1.3795   -8.9440 O   0  0  0  0  0  0  0  0  0  0  0  0
   13.4033    3.1263   -7.2436 C   0  0  2  0  0  0  0  0  0  0  0  0
   12.5776    4.0180   -6.4333 O   0  0  0  0  0  0  0  0  0  0  0  0
   14.3802    3.9929   -8.0761 C   0  0  0  0  0  0  0  0  0  0  0  0
   15.1419    4.8674   -7.2236 O   0  0  0  0  0  0  0  0  0  0  0  0
  1  2  1  1  0  0  0
  1  3  1  0  0  0  0
  1  4  2  0  0  0  0
  1 16  1  0  0  0  0
  5  6  1  1  0  0  0
  5  7  1  0  0  0  0
  5 14  1  0  0  0  0
  7  8  1  1  0  0  0
  7  9  1  0  0  0  0
  9 10  1  6  0  0  0
  9 11  1  0  0  0  0
 11 12  1  1  0  0  0
 11 13  1  0  0  0  0
 13 14  1  0  0  0  0
 13 15  1  6  0  0  0
 15 16  1  0  0  0  0
M  CHG  1   3  -1
M  END
>  <CHROM.1>
175.81634180,-111.17540346,63.36986388,13.08230767,3.90845528,-7.16883245
0.50605558,0.82554549,0.79023545

>  <Name>
ligand

>  <RI>
0

>  <Rbt.Current_Directory>
/home/itssahil/PROJECTS/Mol_Feturizer/New_Systems/rnas/3B4C

>  <Rbt.Executable>
rbdock ($Id: //depot/dev/client3/rdock/2013.1/src/exe/rbdock.cxx#4 $)

>  <Rbt.Library>
libRbt.so (2013.1, Build901 2013/11/27)

>  <Rbt.Parameter_File>
/export/apps/rDock/src/rDock_2013.1_src/data/scripts/dock_solv.prm

>  <Rbt.Receptor>
prm/blind_docking_20.prm

>  <SCORE>
-0.147586

>  <SCORE.INTER>
-1.77509

>  <SCORE.INTER.CONST>
1

>  <SCORE.INTER.POLAR>
0

>  <SCORE.INTER.ROT>
3

>  <SCORE.INTER.SOLV>
20.8068

>  <SCORE.INTER.VDW>
-13.719

>  <SCORE.INTER.norm>
-0.110943

>  <SCORE.INTRA>
1.62751

>  <SCORE.INTRA.DIHEDRAL>
4.7745

>  <SCORE.INTRA.DIHEDRAL.0>
2.1318

>  <SCORE.INTRA.POLAR>
0

>  <SCORE.INTRA.POLAR.0>
0

>  <SCORE.INTRA.REPUL>
0

>  <SCORE.INTRA.REPUL.0>
0

>  <SCORE.INTRA.SOLV>
-0.292962

>  <SCORE.INTRA.SOLV.lig_0>
-58.6125

>  <SCORE.INTRA.VDW>
-0.613263

>  <SCORE.INTRA.VDW.0>
-0.432734

>  <SCORE.INTRA.norm>
0.101719

>  <SCORE.RESTR>
0

>  <SCORE.RESTR.CAVITY>
0

>  <SCORE.RESTR.norm>
0

>  <SCORE.SYSTEM>
0

>  <SCORE.SYSTEM.CONST>
0

>  <SCORE.SYSTEM.DIHEDRAL>
0

>  <SCORE.SYSTEM.SOLV>
0

>  <SCORE.SYSTEM.norm>
0

>  <SCORE.heavy>
16

>  <SCORE.norm>
-0.00922411

>  <RMSD>
43.144

$$$$
ligand
 OpenBabel11021811463D
libRbt.so/2013.1/901 2013/11/27
 16 16  0  0  0  0  0  0  0  0999 V2000
   14.5858    6.3444   -8.4216 P   0  0  2  0  0  0  0  0  0  0  0  0
   15.5653    6.3671   -9.5358 O   0  0  0  0  0  0  0  0  0  0  0  0
   13.2141    7.0376   -8.8980 O   0  5  0  0  0  0  0  0  0  0  0  0
   15.1863    7.1762   -7.1778 O   0  0  0  0  0  0  0  0  0  0  0  0
   11.7114    2.0106   -4.9599 C   0  0  2  0  0  0  0  0  0  0  0  0
   12.9003    1.3955   -4.4501 O   0  0  0  0  0  0  0  0  0  0  0  0
   11.1019    1.1598   -6.1039 C   0  0  2  0  0  0  0  0  0  0  0  0
   10.7938   -0.1952   -5.6079 N   0  0  0  0  0  0  0  0  0  0  0  0
   12.1216    1.0802   -7.2524 C   0  0  1  0  0  0  0  0  0  0  0  0
   11.5849    0.3158   -8.3354 O   0  0  0  0  0  0  0  0  0  0  0  0
   12.4074    2.5043   -7.7258 C   0  0  2  0  0  0  0  0  0  0  0  0
   13.3515    2.4539   -8.7879 O   0  0  0  0  0  0  0  0  0  0  0  0
   12.9857    3.3191   -6.5367 C   0  0  2  0  0  0  0  0  0  0  0  0
   12.0287    3.3555   -5.4339 O   0  0  0  0  0  0  0  0  0  0  0  0
   13.2856    4.7763   -6.9671 C   0  0  0  0  0  0  0  0  0  0  0  0
   14.3008    4.8097   -7.9867 O   0  0  0  0  0  0  0  0  0  0  0  0
  1  2  1  6  0  0  0
  1  3  1  0  0  0  0
  1  4  2  0  0  0  0
  1 16  1  0  0  0  0
  5  6  1  6  0  0  0
  5  7  1  0  0  0  0
  5 14  1  0  0  0  0
  7  8  1  1  0  0  0
  7  9  1  0  0  0  0
  9 10  1  6  0  0  0
  9 11  1  0  0  0  0
 11 12  1  6  0  0  0
 11 13  1  0  0  0  0
 13 14  1  0  0  0  0
 13 15  1  6  0  0  0
 15 16  1  0  0  0  0
M  CHG  1   3  -1
M  END
>  <CHROM.1>
-63.30177542,179.66717768,-176.20364894,13.10911641,3.64339166,-7.26275037
0.08182987,-1.10783999,-1.87923752

>  <Name>
ligand

>  <RI>
0

>  <Rbt.Current_Directory>
/home/itssahil/PROJECTS/Mol_Feturizer/New_Systems/rnas/3B4C

>  <Rbt.Executable>
rbdock ($Id: //depot/dev/client3/rdock/2013.1/src/exe/rbdock.cxx#4 $)

>  <Rbt.Library>
libRbt.so (2013.1, Build901 2013/11/27)

>  <Rbt.Parameter_File>
/export/apps/rDock/src/rDock_2013.1_src/data/scripts/dock_solv.prm

>  <Rbt.Receptor>
prm/blind_docking_20.prm

>  <SCORE>
-4.6536

>  <SCORE.INTER>
-3.47003

>  <SCORE.INTER.CONST>
1

>  <SCORE.INTER.POLAR>
0

>  <SCORE.INTER.ROT>
3

>  <SCORE.INTER.SOLV>
12.2854

>  <SCORE.INTER.VDW>
-12.0085

>  <SCORE.INTER.norm>
-0.216877

>  <SCORE.INTRA>
-1.18357

>  <SCORE.INTRA.DIHEDRAL>
-2.06575

>  <SCORE.INTRA.DIHEDRAL.0>
2.1318

>  <SCORE.INTRA.POLAR>
0

>  <SCORE.INTRA.POLAR.0>
0

>  <SCORE.INTRA.REPUL>
0

>  <SCORE.INTRA.REPUL.0>
0

>  <SCORE.INTRA.SOLV>
0.0392609

>  <SCORE.INTRA.SOLV.lig_0>
-58.6125

>  <SCORE.INTRA.VDW>
-0.170324

>  <SCORE.INTRA.VDW.0>
-0.432734

>  <SCORE.INTRA.norm>
-0.0739731

>  <SCORE.RESTR>
0

>  <SCORE.RESTR.CAVITY>
0

>  <SCORE.RESTR.norm>
0

>  <SCORE.SYSTEM>
0

>  <SCORE.SYSTEM.CONST>
0

>  <SCORE.SYSTEM.DIHEDRAL>
0

>  <SCORE.SYSTEM.SOLV>
0

>  <SCORE.SYSTEM.norm>
0

>  <SCORE.heavy>
16

>  <SCORE.norm>
-0.29085

>  <RMSD>
43.197

$$$$
ligand
 OpenBabel11021811463D
libRbt.so/2013.1/901 2013/11/27
 16 16  0  0  0  0  0  0  0  0999 V2000
   14.5708    6.2978   -8.3626 P   0  0  2  0  0  0  0  0  0  0  0  0
   15.5057    6.3399   -9.5139 O   0  0  0  0  0  0  0  0  0  0  0  0
   13.1881    7.0144   -8.7670 O   0  5  0  0  0  0  0  0  0  0  0  0
   15.2279    7.0931   -7.1236 O   0  0  0  0  0  0  0  0  0  0  0  0
   11.7635    1.8998   -4.9262 C   0  0  2  0  0  0  0  0  0  0  0  0
   12.9572    1.2341   -4.4974 O   0  0  0  0  0  0  0  0  0  0  0  0
   11.0796    1.1127   -6.0737 C   0  0  2  0  0  0  0  0  0  0  0  0
   10.7576   -0.2534   -5.6188 N   0  0  0  0  0  0  0  0  0  0  0  0
   12.0434    1.0549   -7.2708 C   0  0  1  0  0  0  0  0  0  0  0  0
   11.4373    0.3499   -8.3575 O   0  0  0  0  0  0  0  0  0  0  0  0
   12.3460    2.4897   -7.6994 C   0  0  2  0  0  0  0  0  0  0  0  0
   13.2390    2.4593   -8.8056 O   0  0  0  0  0  0  0  0  0  0  0  0
   12.9998    3.2396   -6.5068 C   0  0  2  0  0  0  0  0  0  0  0  0
   12.0954    3.2546   -5.3600 O   0  0  0  0  0  0  0  0  0  0  0  0
   13.3194    4.7053   -6.8918 C   0  0  0  0  0  0  0  0  0  0  0  0
   14.2886    4.7552   -7.9547 O   0  0  0  0  0  0  0  0  0  0  0  0
  1  2  1  6  0  0  0
  1  3  1  0  0  0  0
  1  4  2  0  0  0  0
  1 16  1  0  0  0  0
  5  6  1  6  0  0  0
  5  7  1  0  0  0  0
  5 14  1  0  0  0  0
  7  8  1  1  0  0  0
  7  9  1  0  0  0  0
  9 10  1  6  0  0  0
  9 11  1  0  0  0  0
 11 12  1  6  0  0  0
 11 13  1  0  0  0  0
 13 14  1  0  0  0  0
 13 15  1  6  0  0  0
 15 16  1  0  0  0  0
M  CHG  1   3  -1
M  END
>  <CHROM.1>
-63.35078565,178.42858436,-176.50970207,13.08995289,3.59008470,-7.23232067
0.19991779,-1.09654008,-1.73645808

>  <Name>
ligand

>  <RI>
0

>  <Rbt.Current_Directory>
/home/itssahil/PROJECTS/Mol_Feturizer/New_Systems/rnas/3B4C

>  <Rbt.Executable>
rbdock ($Id: //depot/dev/client3/rdock/2013.1/src/exe/rbdock.cxx#4 $)

>  <Rbt.Library>
libRbt.so (2013.1, Build901 2013/11/27)

>  <Rbt.Parameter_File>
/export/apps/rDock/src/rDock_2013.1_src/data/scripts/dock_solv.prm

>  <Rbt.Receptor>
prm/blind_docking_20.prm

>  <SCORE>
-4.61699

>  <SCORE.INTER>
-3.41837

>  <SCORE.INTER.CONST>
1

>  <SCORE.INTER.POLAR>
0

>  <SCORE.INTER.ROT>
3

>  <SCORE.INTER.SOLV>
12.276

>  <SCORE.INTER.VDW>
-11.9709

>  <SCORE.INTER.norm>
-0.213648

>  <SCORE.INTRA>
-1.19862

>  <SCORE.INTRA.DIHEDRAL>
-2.0567

>  <SCORE.INTRA.DIHEDRAL.0>
2.1318

>  <SCORE.INTRA.POLAR>
0

>  <SCORE.INTRA.POLAR.0>
0

>  <SCORE.INTRA.REPUL>
0

>  <SCORE.INTRA.REPUL.0>
0

>  <SCORE.INTRA.SOLV>
0.0514049

>  <SCORE.INTRA.SOLV.lig_0>
-58.6125

>  <SCORE.INTRA.VDW>
-0.195973

>  <SCORE.INTRA.VDW.0>
-0.432734

>  <SCORE.INTRA.norm>
-0.0749137

>  <SCORE.RESTR>
0

>  <SCORE.RESTR.CAVITY>
0

>  <SCORE.RESTR.norm>
0

>  <SCORE.SYSTEM>
0

>  <SCORE.SYSTEM.CONST>
0

>  <SCORE.SYSTEM.DIHEDRAL>
0

>  <SCORE.SYSTEM.SOLV>
0

>  <SCORE.SYSTEM.norm>
0

>  <SCORE.heavy>
16

>  <SCORE.norm>
-0.288562

>  <RMSD>
43.207

$$$$
ligand
 OpenBabel11021811463D
libRbt.so/2013.1/901 2013/11/27
 16 16  0  0  0  0  0  0  0  0999 V2000
   14.6336    6.3077   -7.9684 P   0  0  2  0  0  0  0  0  0  0  0  0
   15.3979    6.1890   -9.2345 O   0  0  0  0  0  0  0  0  0  0  0  0
   13.1847    6.9377   -8.2726 O   0  5  0  0  0  0  0  0  0  0  0  0
   15.4288    7.2881   -6.9654 O   0  0  0  0  0  0  0  0  0  0  0  0
   12.3154    1.6747   -5.5326 C   0  0  2  0  0  0  0  0  0  0  0  0
   13.5372    1.0252   -5.1620 O   0  0  0  0  0  0  0  0  0  0  0  0
   11.4468    0.7437   -6.4173 C   0  0  2  0  0  0  0  0  0  0  0  0
   11.1514   -0.5044   -5.6880 N   0  0  0  0  0  0  0  0  0  0  0  0
   12.2232    0.4281   -7.7068 C   0  0  1  0  0  0  0  0  0  0  0  0
   11.4430   -0.4162   -8.5574 O   0  0  0  0  0  0  0  0  0  0  0  0
   12.5055    1.7494   -8.4200 C   0  0  2  0  0  0  0  0  0  0  0  0
   13.2261    1.4803   -9.6159 O   0  0  0  0  0  0  0  0  0  0  0  0
   13.3498    2.6532   -7.4806 C   0  0  2  0  0  0  0  0  0  0  0  0
   12.6234    2.9148   -6.2408 O   0  0  0  0  0  0  0  0  0  0  0  0
   13.6562    4.0113   -8.1591 C   0  0  0  0  0  0  0  0  0  0  0  0
   14.4633    4.8402   -7.3029 O   0  0  0  0  0  0  0  0  0  0  0  0
  1  2  1  6  0  0  0
  1  3  1  0  0  0  0
  1  4  2  0  0  0  0
  1 16  1  0  0  0  0
  5  6  1  6  0  0  0
  5  7  1  0  0  0  0
  5 14  1  0  0  0  0
  7  8  1  1  0  0  0
  7  9  1  0  0  0  0
  9 10  1  6  0  0  0
  9 11  1  0  0  0  0
 11 12  1  6  0  0  0
 11 13  1  0  0  0  0
 13 14  1  0  0  0  0
 13 15  1  6  0  0  0
 15 16  1  0  0  0  0
M  CHG  1   3  -1
M  END
>  <CHROM.1>
-178.73719755,-173.96519280,-64.92323047,13.30800407,3.26492687,-7.47900408
-0.09699704,1.15138151,1.50086469

>  <Name>
ligand

>  <RI>
0

>  <Rbt.Current_Directory>
/home/itssahil/PROJECTS/Mol_Feturizer/New_Systems/rnas/3B4C

>  <Rbt.Executable>
rbdock ($Id: //depot/dev/client3/rdock/2013.1/src/exe/rbdock.cxx#4 $)

>  <Rbt.Library>
libRbt.so (2013.1, Build901 2013/11/27)

>  <Rbt.Parameter_File>
/export/apps/rDock/src/rDock_2013.1_src/data/scripts/dock_solv.prm

>  <Rbt.Receptor>
prm/blind_docking_20.prm

>  <SCORE>
-3.29583

>  <SCORE.INTER>
-1.73897

>  <SCORE.INTER.CONST>
1

>  <SCORE.INTER.POLAR>
0

>  <SCORE.INTER.ROT>
3

>  <SCORE.INTER.SOLV>
12.6683

>  <SCORE.INTER.VDW>
-10.9821

>  <SCORE.INTER.norm>
-0.108685

>  <SCORE.INTRA>
-1.55686

>  <SCORE.INTRA.DIHEDRAL>
-1.90664

>  <SCORE.INTRA.DIHEDRAL.0>
2.1318

>  <SCORE.INTRA.POLAR>
0

>  <SCORE.INTRA.POLAR.0>
0

>  <SCORE.INTRA.REPUL>
0

>  <SCORE.INTRA.REPUL.0>
0

>  <SCORE.INTRA.SOLV>
-0.915975

>  <SCORE.INTRA.SOLV.lig_0>
-58.6125

>  <SCORE.INTRA.VDW>
-0.145556

>  <SCORE.INTRA.VDW.0>
-0.432734

>  <SCORE.INTRA.norm>
-0.0973039

>  <SCORE.RESTR>
0

>  <SCORE.RESTR.CAVITY>
0

>  <SCORE.RESTR.norm>
0

>  <SCORE.SYSTEM>
0

>  <SCORE.SYSTEM.CONST>
0

>  <SCORE.SYSTEM.DIHEDRAL>
0

>  <SCORE.SYSTEM.SOLV>
0

>  <SCORE.SYSTEM.norm>
0

>  <SCORE.heavy>
16

>  <SCORE.norm>
-0.205989

>  <RMSD>
43.257

$$$$
ligand
 OpenBabel11021811463D
libRbt.so/2013.1/901 2013/11/27
 16 16  0  0  0  0  0  0  0  0999 V2000
   14.5923    6.2657   -8.3511 P   0  0  2  0  0  0  0  0  0  0  0  0
   15.5775    6.3832   -9.4542 O   0  0  0  0  0  0  0  0  0  0  0  0
   13.2631    7.0905   -8.7277 O   0  5  0  0  0  0  0  0  0  0  0  0
   15.2308    6.8895   -7.0084 O   0  0  0  0  0  0  0  0  0  0  0  0
   12.1559    1.6272   -4.9931 C   0  0  2  0  0  0  0  0  0  0  0  0
   13.3899    0.9026   -4.9284 O   0  0  0  0  0  0  0  0  0  0  0  0
   11.1847    0.9657   -6.0045 C   0  0  2  0  0  0  0  0  0  0  0  0
   10.9269   -0.4317   -5.6076 N   0  0  0  0  0  0  0  0  0  0  0  0
   11.8289    1.0056   -7.4006 C   0  0  1  0  0  0  0  0  0  0  0  0
   10.9511    0.4185   -8.3649 O   0  0  0  0  0  0  0  0  0  0  0  0
   12.0771    2.4692   -7.7613 C   0  0  2  0  0  0  0  0  0  0  0  0
   12.6755    2.5289   -9.0498 O   0  0  0  0  0  0  0  0  0  0  0  0
   13.0285    3.0899   -6.7022 C   0  0  2  0  0  0  0  0  0  0  0  0
   12.4281    3.0113   -5.3730 O   0  0  0  0  0  0  0  0  0  0  0  0
   13.3048    4.5798   -7.0222 C   0  0  0  0  0  0  0  0  0  0  0  0
   14.2216    4.7046   -8.1248 O   0  0  0  0  0  0  0  0  0  0  0  0
  1  2  1  6  0  0  0
  1  3  1  0  0  0  0
  1  4  2  0  0  0  0
  1 16  1  0  0  0  0
  5  6  1  6  0  0  0
  5  7  1  0  0  0  0
  5 14  1  0  0  0  0
  7  8  1  1  0  0  0
  7  9  1  0  0  0  0
  9 10  1  6  0  0  0
  9 11  1  0  0  0  0
 11 12  1  6  0  0  0
 11 13  1  0  0  0  0
 13 14  1  0  0  0  0
 13 15  1  6  0  0  0
 15 16  1  0  0  0  0
M  CHG  1   3  -1
M  END
>  <CHROM.1>
-75.22949882,-175.03588013,177.82639568,13.09060850,3.49997524,-7.29876661
-0.60366405,1.00566911,1.89714463

>  <Name>
ligand

>  <RI>
0

>  <Rbt.Current_Directory>
/home/itssahil/PROJECTS/Mol_Feturizer/New_Systems/rnas/3B4C

>  <Rbt.Executable>
rbdock ($Id: //depot/dev/client3/rdock/2013.1/src/exe/rbdock.cxx#4 $)

>  <Rbt.Library>
libRbt.so (2013.1, Build901 2013/11/27)

>  <Rbt.Parameter_File>
/export/apps/rDock/src/rDock_2013.1_src/data/scripts/dock_solv.prm

>  <Rbt.Receptor>
prm/blind_docking_20.prm

>  <SCORE>
-3.92189

>  <SCORE.INTER>
-2.92879

>  <SCORE.INTER.CONST>
1

>  <SCORE.INTER.POLAR>
0

>  <SCORE.INTER.ROT>
3

>  <SCORE.INTER.SOLV>
11.1899

>  <SCORE.INTER.VDW>
-11.2825

>  <SCORE.INTER.norm>
-0.183049

>  <SCORE.INTRA>
-0.9931

>  <SCORE.INTRA.DIHEDRAL>
-1.21071

>  <SCORE.INTRA.DIHEDRAL.0>
2.1318

>  <SCORE.INTRA.POLAR>
0

>  <SCORE.INTRA.POLAR.0>
0

>  <SCORE.INTRA.REPUL>
0

>  <SCORE.INTRA.REPUL.0>
0

>  <SCORE.INTRA.SOLV>
-0.124608

>  <SCORE.INTRA.SOLV.lig_0>
-58.6125

>  <SCORE.INTRA.VDW>
-0.325443

>  <SCORE.INTRA.VDW.0>
-0.432734

>  <SCORE.INTRA.norm>
-0.0620688

>  <SCORE.RESTR>
0

>  <SCORE.RESTR.CAVITY>
0

>  <SCORE.RESTR.norm>
0

>  <SCORE.SYSTEM>
0

>  <SCORE.SYSTEM.CONST>
0

>  <SCORE.SYSTEM.DIHEDRAL>
0

>  <SCORE.SYSTEM.SOLV>
0

>  <SCORE.SYSTEM.norm>
0

>  <SCORE.heavy>
16

>  <SCORE.norm>
-0.245118

>  <RMSD>
43.261

$$$$
ligand
 OpenBabel11021811463D
libRbt.so/2013.1/901 2013/11/27
 16 16  0  0  0  0  0  0  0  0999 V2000
   14.3287    6.4160   -8.3727 P   0  0  2  0  0  0  0  0  0  0  0  0
   15.3178    5.7243   -9.2357 O   0  0  0  0  0  0  0  0  0  0  0  0
   13.2033    7.1064   -9.2923 O   0  5  0  0  0  0  0  0  0  0  0  0
   15.0828    7.5602   -7.5233 O   0  0  0  0  0  0  0  0  0  0  0  0
   10.7147    1.4491   -7.2691 C   0  0  2  0  0  0  0  0  0  0  0  0
    9.7345    2.1653   -6.5087 O   0  0  0  0  0  0  0  0  0  0  0  0
   11.6484    0.6386   -6.3336 C   0  0  2  0  0  0  0  0  0  0  0  0
   10.8501   -0.3046   -5.5273 N   0  0  0  0  0  0  0  0  0  0  0  0
   12.3913    1.6204   -5.4119 C   0  0  1  0  0  0  0  0  0  0  0  0
   13.2775    0.9074   -4.5450 O   0  0  0  0  0  0  0  0  0  0  0  0
   13.1971    2.5732   -6.2932 C   0  0  2  0  0  0  0  0  0  0  0  0
   13.8912    3.4927   -5.4597 O   0  0  0  0  0  0  0  0  0  0  0  0
   12.2193    3.3350   -7.2290 C   0  0  2  0  0  0  0  0  0  0  0  0
   11.4873    2.3936   -8.0723 O   0  0  0  0  0  0  0  0  0  0  0  0
   12.9927    4.3110   -8.1497 C   0  0  0  0  0  0  0  0  0  0  0  0
   13.6375    5.3402   -7.3774 O   0  0  0  0  0  0  0  0  0  0  0  0
  1  2  1  6  0  0  0
  1  3  1  0  0  0  0
  1  4  2  0  0  0  0
  1 16  1  0  0  0  0
  5  6  1  1  0  0  0
  5  7  1  0  0  0  0
  5 14  1  0  0  0  0
  7  8  1  1  0  0  0
  7  9  1  0  0  0  0
  9 10  1  1  0  0  0
  9 11  1  0  0  0  0
 11 12  1  1  0  0  0
 11 13  1  0  0  0  0
 13 14  1  0  0  0  0
 13 15  1  6  0  0  0
 15 16  1  0  0  0  0
M  CHG  1   3  -1
M  END
>  <CHROM.1>
-64.24620372,-175.10858525,-58.92556239,12.89758672,3.70947115,-7.15143743
1.03831922,-0.54377216,-0.71777120

>  <Name>
ligand

>  <RI>
0

>  <Rbt.Current_Directory>
/home/itssahil/PROJECTS/Mol_Feturizer/New_Systems/rnas/3B4C

>  <Rbt.Executable>
rbdock ($Id: //depot/dev/client3/rdock/2013.1/src/exe/rbdock.cxx#4 $)

>  <Rbt.Library>
libRbt.so (2013.1, Build901 2013/11/27)

>  <Rbt.Parameter_File>
/export/apps/rDock/src/rDock_2013.1_src/data/scripts/dock_solv.prm

>  <Rbt.Receptor>
prm/blind_docking_20.prm

>  <SCORE>
-2.87728

>  <SCORE.INTER>
-1.53414

>  <SCORE.INTER.CONST>
1

>  <SCORE.INTER.POLAR>
0

>  <SCORE.INTER.ROT>
3

>  <SCORE.INTER.SOLV>
10.6224

>  <SCORE.INTER.VDW>
-10.1636

>  <SCORE.INTER.norm>
-0.0958838

>  <SCORE.INTRA>
-1.34314

>  <SCORE.INTRA.DIHEDRAL>
-1.9461

>  <SCORE.INTRA.DIHEDRAL.0>
2.1318

>  <SCORE.INTRA.POLAR>
0

>  <SCORE.INTRA.POLAR.0>
0

>  <SCORE.INTRA.REPUL>
0

>  <SCORE.INTRA.REPUL.0>
0

>  <SCORE.INTRA.SOLV>
-0.643085

>  <SCORE.INTRA.SOLV.lig_0>
-58.6125

>  <SCORE.INTRA.VDW>
-0.0485424

>  <SCORE.INTRA.VDW.0>
-0.432734

>  <SCORE.INTRA.norm>
-0.083946

>  <SCORE.RESTR>
0

>  <SCORE.RESTR.CAVITY>
0

>  <SCORE.RESTR.norm>
0

>  <SCORE.SYSTEM>
0

>  <SCORE.SYSTEM.CONST>
0

>  <SCORE.SYSTEM.DIHEDRAL>
0

>  <SCORE.SYSTEM.SOLV>
0

>  <SCORE.SYSTEM.norm>
0

>  <SCORE.heavy>
16

>  <SCORE.norm>
-0.17983

>  <RMSD>
43.334

$$$$
ligand
 OpenBabel11021811463D
libRbt.so/2013.1/901 2013/11/27
 16 16  0  0  0  0  0  0  0  0999 V2000
   14.6067    6.2445   -8.3367 P   0  0  2  0  0  0  0  0  0  0  0  0
   15.4755    6.0159   -9.5174 O   0  0  0  0  0  0  0  0  0  0  0  0
   13.1892    6.8336   -8.8187 O   0  5  0  0  0  0  0  0  0  0  0  0
   15.3146    7.3182   -7.3643 O   0  0  0  0  0  0  0  0  0  0  0  0
   12.4560    1.6351   -5.6452 C   0  0  2  0  0  0  0  0  0  0  0  0
   13.7130    1.0332   -5.3144 O   0  0  0  0  0  0  0  0  0  0  0  0
   11.5806    0.6568   -6.4702 C   0  0  2  0  0  0  0  0  0  0  0  0
   11.3576   -0.5825   -5.7014 N   0  0  0  0  0  0  0  0  0  0  0  0
   12.3105    0.3358   -7.7854 C   0  0  1  0  0  0  0  0  0  0  0  0
   11.5220   -0.5523   -8.5821 O   0  0  0  0  0  0  0  0  0  0  0  0
   12.5187    1.6483   -8.5390 C   0  0  2  0  0  0  0  0  0  0  0  0
   13.1953    1.3741   -9.7592 O   0  0  0  0  0  0  0  0  0  0  0  0
   13.3730    2.5999   -7.6577 C   0  0  2  0  0  0  0  0  0  0  0  0
   12.6927    2.8674   -6.3932 O   0  0  0  0  0  0  0  0  0  0  0  0
   13.6056    3.9508   -8.3786 C   0  0  0  0  0  0  0  0  0  0  0  0
   14.3797    4.8428   -7.5561 O   0  0  0  0  0  0  0  0  0  0  0  0
  1  2  1  6  0  0  0
  1  3  1  0  0  0  0
  1  4  2  0  0  0  0
  1 16  1  0  0  0  0
  5  6  1  6  0  0  0
  5  7  1  0  0  0  0
  5 14  1  0  0  0  0
  7  8  1  1  0  0  0
  7  9  1  0  0  0  0
  9 10  1  6  0  0  0
  9 11  1  0  0  0  0
 11 12  1  6  0  0  0
 11 13  1  0  0  0  0
 13 14  1  0  0  0  0
 13 15  1  6  0  0  0
 15 16  1  0  0  0  0
M  CHG  1   3  -1
M  END
>  <CHROM.1>
179.11555820,179.95928180,-67.00440254,13.34518705,3.19678013,-7.68911541
-0.21949928,1.16905816,1.58237713

>  <Name>
ligand

>  <RI>
0

>  <Rbt.Current_Directory>
/home/itssahil/PROJECTS/Mol_Feturizer/New_Systems/rnas/3B4C

>  <Rbt.Executable>
rbdock ($Id: //depot/dev/client3/rdock/2013.1/src/exe/rbdock.cxx#4 $)

>  <Rbt.Library>
libRbt.so (2013.1, Build901 2013/11/27)

>  <Rbt.Parameter_File>
/export/apps/rDock/src/rDock_2013.1_src/data/scripts/dock_solv.prm

>  <Rbt.Receptor>
prm/blind_docking_20.prm

>  <SCORE>
-3.51281

>  <SCORE.INTER>
-1.90857

>  <SCORE.INTER.CONST>
1

>  <SCORE.INTER.POLAR>
0

>  <SCORE.INTER.ROT>
3

>  <SCORE.INTER.SOLV>
11.633

>  <SCORE.INTER.VDW>
-10.75

>  <SCORE.INTER.norm>
-0.119285

>  <SCORE.INTRA>
-1.60424

>  <SCORE.INTRA.DIHEDRAL>
-2.04894

>  <SCORE.INTRA.DIHEDRAL.0>
2.1318

>  <SCORE.INTRA.POLAR>
0

>  <SCORE.INTRA.POLAR.0>
0

>  <SCORE.INTRA.REPUL>
0

>  <SCORE.INTRA.REPUL.0>
0

>  <SCORE.INTRA.SOLV>
-0.94151

>  <SCORE.INTRA.SOLV.lig_0>
-58.6125

>  <SCORE.INTRA.VDW>
-0.109016

>  <SCORE.INTRA.VDW.0>
-0.432734

>  <SCORE.INTRA.norm>
-0.100265

>  <SCORE.RESTR>
0

>  <SCORE.RESTR.CAVITY>
0

>  <SCORE.RESTR.norm>
0

>  <SCORE.SYSTEM>
0

>  <SCORE.SYSTEM.CONST>
0

>  <SCORE.SYSTEM.DIHEDRAL>
0

>  <SCORE.SYSTEM.SOLV>
0

>  <SCORE.SYSTEM.norm>
0

>  <SCORE.heavy>
16

>  <SCORE.norm>
-0.21955

>  <RMSD>
43.341

$$$$
ligand
 OpenBabel11021811463D
libRbt.so/2013.1/901 2013/11/27
 16 16  0  0  0  0  0  0  0  0999 V2000
   14.6189    6.2605   -8.3418 P   0  0  2  0  0  0  0  0  0  0  0  0
   15.4870    6.0187   -9.5204 O   0  0  0  0  0  0  0  0  0  0  0  0
   13.2029    6.8489   -8.8291 O   0  5  0  0  0  0  0  0  0  0  0  0
   15.3298    7.3412   -7.3793 O   0  0  0  0  0  0  0  0  0  0  0  0
   12.2624    1.7520   -5.6847 C   0  0  2  0  0  0  0  0  0  0  0  0
   13.4790    1.1753   -5.1957 O   0  0  0  0  0  0  0  0  0  0  0  0
   11.4790    0.7286   -6.5467 C   0  0  2  0  0  0  0  0  0  0  0  0
   11.1790   -0.4729   -5.7448 N   0  0  0  0  0  0  0  0  0  0  0  0
   12.3423    0.3482   -7.7614 C   0  0  1  0  0  0  0  0  0  0  0  0
   11.6423   -0.5831   -8.5907 O   0  0  0  0  0  0  0  0  0  0  0  0
   12.6259    1.6234   -8.5535 C   0  0  2  0  0  0  0  0  0  0  0  0
   13.4263    1.2941   -9.6817 O   0  0  0  0  0  0  0  0  0  0  0  0
   13.3825    2.6227   -7.6364 C   0  0  2  0  0  0  0  0  0  0  0  0
   12.5739    2.9476   -6.4643 O   0  0  0  0  0  0  0  0  0  0  0  0
   13.6869    3.9381   -8.3953 C   0  0  0  0  0  0  0  0  0  0  0  0
   14.3882    4.8666   -7.5483 O   0  0  0  0  0  0  0  0  0  0  0  0
  1  2  1  6  0  0  0
  1  3  1  0  0  0  0
  1  4  2  0  0  0  0
  1 16  1  0  0  0  0
  5  6  1  6  0  0  0
  5  7  1  0  0  0  0
  5 14  1  0  0  0  0
  7  8  1  1  0  0  0
  7  9  1  0  0  0  0
  9 10  1  6  0  0  0
  9 11  1  0  0  0  0
 11 12  1  6  0  0  0
 11 13  1  0  0  0  0
 13 14  1  0  0  0  0
 13 15  1  6  0  0  0
 15 16  1  0  0  0  0
M  CHG  1   3  -1
M  END
>  <CHROM.1>
-179.99715229,-176.86371518,-63.29280428,13.33670950,3.22561170,-7.69140040
0.05641267,1.16754904,1.28273397

>  <Name>
ligand

>  <RI>
0

>  <Rbt.Current_Directory>
/home/itssahil/PROJECTS/Mol_Feturizer/New_Systems/rnas/3B4C

>  <Rbt.Executable>
rbdock ($Id: //depot/dev/client3/rdock/2013.1/src/exe/rbdock.cxx#4 $)

>  <Rbt.Library>
libRbt.so (2013.1, Build901 2013/11/27)

>  <Rbt.Parameter_File>
/export/apps/rDock/src/rDock_2013.1_src/data/scripts/dock_solv.prm

>  <Rbt.Receptor>
prm/blind_docking_20.prm

>  <SCORE>
-3.52716

>  <SCORE.INTER>
-1.89721

>  <SCORE.INTER.CONST>
1

>  <SCORE.INTER.POLAR>
0

>  <SCORE.INTER.ROT>
3

>  <SCORE.INTER.SOLV>
12.1623

>  <SCORE.INTER.VDW>
-10.9189

>  <SCORE.INTER.norm>
-0.118576

>  <SCORE.INTRA>
-1.62995

>  <SCORE.INTRA.DIHEDRAL>
-2.06401

>  <SCORE.INTRA.DIHEDRAL.0>
2.1318

>  <SCORE.INTRA.POLAR>
0

>  <SCORE.INTRA.POLAR.0>
0

>  <SCORE.INTRA.REPUL>
0

>  <SCORE.INTRA.REPUL.0>
0

>  <SCORE.INTRA.SOLV>
-0.954723

>  <SCORE.INTRA.SOLV.lig_0>
-58.6125

>  <SCORE.INTRA.VDW>
-0.120588

>  <SCORE.INTRA.VDW.0>
-0.432734

>  <SCORE.INTRA.norm>
-0.101872

>  <SCORE.RESTR>
0

>  <SCORE.RESTR.CAVITY>
0

>  <SCORE.RESTR.norm>
0

>  <SCORE.SYSTEM>
0

>  <SCORE.SYSTEM.CONST>
0

>  <SCORE.SYSTEM.DIHEDRAL>
0

>  <SCORE.SYSTEM.SOLV>
0

>  <SCORE.SYSTEM.norm>
0

>  <SCORE.heavy>
16

>  <SCORE.norm>
-0.220448

>  <RMSD>
43.345

$$$$
ligand
 OpenBabel11021811463D
libRbt.so/2013.1/901 2013/11/27
 16 16  0  0  0  0  0  0  0  0999 V2000
   14.5482    6.3082   -8.0944 P   0  0  2  0  0  0  0  0  0  0  0  0
   15.4293    5.9968   -9.2468 O   0  0  0  0  0  0  0  0  0  0  0  0
   13.1800    6.9667   -8.6269 O   0  5  0  0  0  0  0  0  0  0  0  0
   15.2958    7.3641   -7.1323 O   0  0  0  0  0  0  0  0  0  0  0  0
   11.8423    1.8887   -5.5584 C   0  0  2  0  0  0  0  0  0  0  0  0
   13.0009    1.3530   -4.9084 O   0  0  0  0  0  0  0  0  0  0  0  0
   11.1848    0.8225   -6.4721 C   0  0  2  0  0  0  0  0  0  0  0  0
   10.8107   -0.3586   -5.6710 N   0  0  0  0  0  0  0  0  0  0  0  0
   12.1936    0.4211   -7.5615 C   0  0  1  0  0  0  0  0  0  0  0  0
   11.6134   -0.5504   -8.4360 O   0  0  0  0  0  0  0  0  0  0  0  0
   12.5491    1.6758   -8.3573 C   0  0  2  0  0  0  0  0  0  0  0  0
   13.4841    1.3270   -9.3701 O   0  0  0  0  0  0  0  0  0  0  0  0
   13.1738    2.7193   -7.3913 C   0  0  2  0  0  0  0  0  0  0  0  0
   12.2252    3.0648   -6.3357 O   0  0  0  0  0  0  0  0  0  0  0  0
   13.5452    4.0156   -8.1530 C   0  0  0  0  0  0  0  0  0  0  0  0
   14.2195    4.9439   -7.2842 O   0  0  0  0  0  0  0  0  0  0  0  0
  1  2  1  6  0  0  0
  1  3  1  0  0  0  0
  1  4  2  0  0  0  0
  1 16  1  0  0  0  0
  5  6  1  6  0  0  0
  5  7  1  0  0  0  0
  5 14  1  0  0  0  0
  7  8  1  1  0  0  0
  7  9  1  0  0  0  0
  9 10  1  6  0  0  0
  9 11  1  0  0  0  0
 11 12  1  6  0  0  0
 11 13  1  0  0  0  0
 13 14  1  0  0  0  0
 13 15  1  6  0  0  0
 15 16  1  0  0  0  0
M  CHG  1   3  -1
M  END
>  <CHROM.1>
-175.47849367,-178.02293507,-60.48471506,13.17175323,3.30083005,-7.48129744
0.31448435,1.11588672,1.00826965

>  <Name>
ligand

>  <RI>
0

>  <Rbt.Current_Directory>
/home/itssahil/PROJECTS/Mol_Feturizer/New_Systems/rnas/3B4C

>  <Rbt.Executable>
rbdock ($Id: //depot/dev/client3/rdock/2013.1/src/exe/rbdock.cxx#4 $)

>  <Rbt.Library>
libRbt.so (2013.1, Build901 2013/11/27)

>  <Rbt.Parameter_File>
/export/apps/rDock/src/rDock_2013.1_src/data/scripts/dock_solv.prm

>  <Rbt.Receptor>
prm/blind_docking_20.prm

>  <SCORE>
-3.40522

>  <SCORE.INTER>
-1.76284

>  <SCORE.INTER.CONST>
1

>  <SCORE.INTER.POLAR>
0

>  <SCORE.INTER.ROT>
3

>  <SCORE.INTER.SOLV>
13.0043

>  <SCORE.INTER.VDW>
-11.11

>  <SCORE.INTER.norm>
-0.110177

>  <SCORE.INTRA>
-1.64238

>  <SCORE.INTRA.DIHEDRAL>
-2.03469

>  <SCORE.INTRA.DIHEDRAL.0>
2.1318

>  <SCORE.INTRA.POLAR>
0

>  <SCORE.INTRA.POLAR.0>
0

>  <SCORE.INTRA.REPUL>
0

>  <SCORE.INTRA.REPUL.0>
0

>  <SCORE.INTRA.SOLV>
-1.00794

>  <SCORE.INTRA.SOLV.lig_0>
-58.6125

>  <SCORE.INTRA.VDW>
-0.121064

>  <SCORE.INTRA.VDW.0>
-0.432734

>  <SCORE.INTRA.norm>
-0.102649

>  <SCORE.RESTR>
0

>  <SCORE.RESTR.CAVITY>
0

>  <SCORE.RESTR.norm>
0

>  <SCORE.SYSTEM>
0

>  <SCORE.SYSTEM.CONST>
0

>  <SCORE.SYSTEM.DIHEDRAL>
0

>  <SCORE.SYSTEM.SOLV>
0

>  <SCORE.SYSTEM.norm>
0

>  <SCORE.heavy>
16

>  <SCORE.norm>
-0.212826

>  <RMSD>
43.361

$$$$
ligand
 OpenBabel11021811463D
libRbt.so/2013.1/901 2013/11/27
 16 16  0  0  0  0  0  0  0  0999 V2000
   14.0511    5.6995   -8.9025 P   0  0  2  0  0  0  0  0  0  0  0  0
   13.5699    4.3855   -9.3954 O   0  0  0  0  0  0  0  0  0  0  0  0
   12.9997    6.8457   -9.3144 O   0  5  0  0  0  0  0  0  0  0  0  0
   15.4745    6.0270   -9.5854 O   0  0  0  0  0  0  0  0  0  0  0  0
   13.4296    1.7028   -6.0574 C   0  0  2  0  0  0  0  0  0  0  0  0
   13.4620    1.2401   -7.4127 O   0  0  0  0  0  0  0  0  0  0  0  0
   12.0739    1.3527   -5.3915 C   0  0  2  0  0  0  0  0  0  0  0  0
   11.8617   -0.1069   -5.4296 N   0  0  0  0  0  0  0  0  0  0  0  0
   10.9505    2.0677   -6.1611 C   0  0  1  0  0  0  0  0  0  0  0  0
    9.6838    1.7813   -5.5623 O   0  0  0  0  0  0  0  0  0  0  0  0
   11.2183    3.5703   -6.0939 C   0  0  2  0  0  0  0  0  0  0  0  0
   10.1909    4.2514   -6.8025 O   0  0  0  0  0  0  0  0  0  0  0  0
   12.5981    3.8610   -6.7450 C   0  0  2  0  0  0  0  0  0  0  0  0
   13.6550    3.1460   -6.0344 O   0  0  0  0  0  0  0  0  0  0  0  0
   12.9181    5.3755   -6.6941 C   0  0  0  0  0  0  0  0  0  0  0  0
   14.1998    5.6476   -7.2897 O   0  0  0  0  0  0  0  0  0  0  0  0
  1  2  1  6  0  0  0
  1  3  1  0  0  0  0
  1  4  2  0  0  0  0
  1 16  1  0  0  0  0
  5  6  1  6  0  0  0
  5  7  1  0  0  0  0
  5 14  1  0  0  0  0
  7  8  1  6  0  0  0
  7  9  1  0  0  0  0
  9 10  1  1  0  0  0
  9 11  1  0  0  0  0
 11 12  1  6  0  0  0
 11 13  1  0  0  0  0
 13 14  1  0  0  0  0
 13 15  1  1  0  0  0
 15 16  1  0  0  0  0
M  CHG  1   3  -1
M  END
>  <CHROM.1>
179.66402443,80.86198966,-61.01660946,12.76858196,3.75673132,-7.23695787
-1.07646717,-0.35456410,2.70461964

>  <Name>
ligand

>  <RI>
0

>  <Rbt.Current_Directory>
/home/itssahil/PROJECTS/Mol_Feturizer/New_Systems/rnas/3B4C

>  <Rbt.Executable>
rbdock ($Id: //depot/dev/client3/rdock/2013.1/src/exe/rbdock.cxx#4 $)

>  <Rbt.Library>
libRbt.so (2013.1, Build901 2013/11/27)

>  <Rbt.Parameter_File>
/export/apps/rDock/src/rDock_2013.1_src/data/scripts/dock_solv.prm

>  <Rbt.Receptor>
prm/blind_docking_20.prm

>  <SCORE>
-2.50621

>  <SCORE.INTER>
-1.99424

>  <SCORE.INTER.CONST>
1

>  <SCORE.INTER.POLAR>
0

>  <SCORE.INTER.ROT>
3

>  <SCORE.INTER.SOLV>
11.0805

>  <SCORE.INTER.VDW>
-10.623

>  <SCORE.INTER.norm>
-0.12464

>  <SCORE.INTRA>
-0.511972

>  <SCORE.INTRA.DIHEDRAL>
-0.185069

>  <SCORE.INTRA.DIHEDRAL.0>
2.1318

>  <SCORE.INTRA.POLAR>
0

>  <SCORE.INTRA.POLAR.0>
0

>  <SCORE.INTRA.REPUL>
0

>  <SCORE.INTRA.REPUL.0>
0

>  <SCORE.INTRA.SOLV>
-0.0992331

>  <SCORE.INTRA.SOLV.lig_0>
-58.6125

>  <SCORE.INTRA.VDW>
-0.369821

>  <SCORE.INTRA.VDW.0>
-0.432734

>  <SCORE.INTRA.norm>
-0.0319983

>  <SCORE.RESTR>
0

>  <SCORE.RESTR.CAVITY>
0

>  <SCORE.RESTR.norm>
0

>  <SCORE.SYSTEM>
0

>  <SCORE.SYSTEM.CONST>
0

>  <SCORE.SYSTEM.DIHEDRAL>
0

>  <SCORE.SYSTEM.SOLV>
0

>  <SCORE.SYSTEM.norm>
0

>  <SCORE.heavy>
16

>  <SCORE.norm>
-0.156638

>  <RMSD>
43.379

$$$$
ligand
 OpenBabel11021811463D
libRbt.so/2013.1/901 2013/11/27
 16 16  0  0  0  0  0  0  0  0999 V2000
   14.5740    6.3521   -8.3055 P   0  0  2  0  0  0  0  0  0  0  0  0
   15.5481    6.4548   -9.4199 O   0  0  0  0  0  0  0  0  0  0  0  0
   13.3324    7.3366   -8.5849 O   0  5  0  0  0  0  0  0  0  0  0  0
   15.2958    6.7986   -6.9347 O   0  0  0  0  0  0  0  0  0  0  0  0
   12.8856    1.0197   -6.6737 C   0  0  2  0  0  0  0  0  0  0  0  0
   12.5233    0.6170   -7.9998 O   0  0  0  0  0  0  0  0  0  0  0  0
   11.6675    0.9211   -5.7194 C   0  0  2  0  0  0  0  0  0  0  0  0
   11.1576   -0.4633   -5.7028 N   0  0  0  0  0  0  0  0  0  0  0  0
   10.5733    1.8786   -6.2208 C   0  0  1  0  0  0  0  0  0  0  0  0
    9.4383    1.8274   -5.3522 O   0  0  0  0  0  0  0  0  0  0  0  0
   11.1514    3.2927   -6.2217 C   0  0  2  0  0  0  0  0  0  0  0  0
   10.1551    4.1952   -6.6849 O   0  0  0  0  0  0  0  0  0  0  0  0
   12.3835    3.3277   -7.1666 C   0  0  2  0  0  0  0  0  0  0  0  0
   13.4014    2.3860   -6.7078 O   0  0  0  0  0  0  0  0  0  0  0  0
   13.0103    4.7436   -7.1951 C   0  0  0  0  0  0  0  0  0  0  0  0
   14.0460    4.8245   -8.1913 O   0  0  0  0  0  0  0  0  0  0  0  0
  1  2  1  6  0  0  0
  1  3  1  0  0  0  0
  1  4  2  0  0  0  0
  1 16  1  0  0  0  0
  5  6  1  6  0  0  0
  5  7  1  0  0  0  0
  5 14  1  0  0  0  0
  7  8  1  6  0  0  0
  7  9  1  0  0  0  0
  9 10  1  1  0  0  0
  9 11  1  0  0  0  0
 11 12  1  6  0  0  0
 11 13  1  0  0  0  0
 13 14  1  0  0  0  0
 13 15  1  1  0  0  0
 15 16  1  0  0  0  0
M  CHG  1   3  -1
M  END
>  <CHROM.1>
-172.85756632,174.10301944,-174.69908444,12.74778099,3.74353435,-7.19033334
-0.96520943,-0.40570053,3.01821396

>  <Name>
ligand

>  <RI>
0

>  <Rbt.Current_Directory>
/home/itssahil/PROJECTS/Mol_Feturizer/New_Systems/rnas/3B4C

>  <Rbt.Executable>
rbdock ($Id: //depot/dev/client3/rdock/2013.1/src/exe/rbdock.cxx#4 $)

>  <Rbt.Library>
libRbt.so (2013.1, Build901 2013/11/27)

>  <Rbt.Parameter_File>
/export/apps/rDock/src/rDock_2013.1_src/data/scripts/dock_solv.prm

>  <Rbt.Receptor>
prm/blind_docking_20.prm

>  <SCORE>
-5.20816

>  <SCORE.INTER>
-3.91794

>  <SCORE.INTER.CONST>
1

>  <SCORE.INTER.POLAR>
0

>  <SCORE.INTER.ROT>
3

>  <SCORE.INTER.SOLV>
11.6722

>  <SCORE.INTER.VDW>
-12.1027

>  <SCORE.INTER.norm>
-0.244871

>  <SCORE.INTRA>
-1.29022

>  <SCORE.INTRA.DIHEDRAL>
-1.72694

>  <SCORE.INTRA.DIHEDRAL.0>
2.1318

>  <SCORE.INTRA.POLAR>
0

>  <SCORE.INTRA.POLAR.0>
0

>  <SCORE.INTRA.REPUL>
0

>  <SCORE.INTRA.REPUL.0>
0

>  <SCORE.INTRA.SOLV>
-0.420704

>  <SCORE.INTRA.SOLV.lig_0>
-58.6125

>  <SCORE.INTRA.VDW>
-0.216397

>  <SCORE.INTRA.VDW.0>
-0.432734

>  <SCORE.INTRA.norm>
-0.0806387

>  <SCORE.RESTR>
0

>  <SCORE.RESTR.CAVITY>
0

>  <SCORE.RESTR.norm>
0

>  <SCORE.SYSTEM>
0

>  <SCORE.SYSTEM.CONST>
0

>  <SCORE.SYSTEM.DIHEDRAL>
0

>  <SCORE.SYSTEM.SOLV>
0

>  <SCORE.SYSTEM.norm>
0

>  <SCORE.heavy>
16

>  <SCORE.norm>
-0.32551

>  <RMSD>
43.463

$$$$
ligand
 OpenBabel11021811463D
libRbt.so/2013.1/901 2013/11/27
 16 16  0  0  0  0  0  0  0  0999 V2000
   14.5568    6.2949   -8.4824 P   0  0  2  0  0  0  0  0  0  0  0  0
   15.4915    5.9707   -9.5881 O   0  0  0  0  0  0  0  0  0  0  0  0
   13.1907    6.8889   -9.0905 O   0  5  0  0  0  0  0  0  0  0  0  0
   15.2332    7.4087   -7.5329 O   0  0  0  0  0  0  0  0  0  0  0  0
   12.0920    1.8636   -5.7304 C   0  0  2  0  0  0  0  0  0  0  0  0
   13.3076    1.3070   -5.2162 O   0  0  0  0  0  0  0  0  0  0  0  0
   11.3282    0.8175   -6.5826 C   0  0  2  0  0  0  0  0  0  0  0  0
   11.0290   -0.3717   -5.7622 N   0  0  0  0  0  0  0  0  0  0  0  0
   12.2095    0.4226   -7.7796 C   0  0  1  0  0  0  0  0  0  0  0  0
   11.5278   -0.5301   -8.5998 O   0  0  0  0  0  0  0  0  0  0  0  0
   12.4915    1.6854   -8.5917 C   0  0  2  0  0  0  0  0  0  0  0  0
   13.3084    1.3426   -9.7039 O   0  0  0  0  0  0  0  0  0  0  0  0
   13.2281    2.7083   -7.6843 C   0  0  2  0  0  0  0  0  0  0  0  0
   12.4024    3.0473   -6.5281 O   0  0  0  0  0  0  0  0  0  0  0  0
   13.5301    4.0121   -8.4637 C   0  0  0  0  0  0  0  0  0  0  0  0
   14.2393    4.9509   -7.6347 O   0  0  0  0  0  0  0  0  0  0  0  0
  1  2  1  6  0  0  0
  1  3  1  0  0  0  0
  1  4  2  0  0  0  0
  1 16  1  0  0  0  0
  5  6  1  6  0  0  0
  5  7  1  0  0  0  0
  5 14  1  0  0  0  0
  7  8  1  1  0  0  0
  7  9  1  0  0  0  0
  9 10  1  6  0  0  0
  9 11  1  0  0  0  0
 11 12  1  6  0  0  0
 11 13  1  0  0  0  0
 13 14  1  0  0  0  0
 13 15  1  6  0  0  0
 15 16  1  0  0  0  0
M  CHG  1   3  -1
M  END
>  <CHROM.1>
-178.71043917,179.28902548,-65.17440640,13.22108539,3.29164204,-7.76649011
0.06905362,1.15421006,1.24566741

>  <Name>
ligand

>  <RI>
0

>  <Rbt.Current_Directory>
/home/itssahil/PROJECTS/Mol_Feturizer/New_Systems/rnas/3B4C

>  <Rbt.Executable>
rbdock ($Id: //depot/dev/client3/rdock/2013.1/src/exe/rbdock.cxx#4 $)

>  <Rbt.Library>
libRbt.so (2013.1, Build901 2013/11/27)

>  <Rbt.Parameter_File>
/export/apps/rDock/src/rDock_2013.1_src/data/scripts/dock_solv.prm

>  <Rbt.Receptor>
prm/blind_docking_20.prm

>  <SCORE>
-3.55979

>  <SCORE.INTER>
-1.91486

>  <SCORE.INTER.CONST>
1

>  <SCORE.INTER.POLAR>
0

>  <SCORE.INTER.ROT>
3

>  <SCORE.INTER.SOLV>
12.0003

>  <SCORE.INTER.VDW>
-10.8767

>  <SCORE.INTER.norm>
-0.119679

>  <SCORE.INTRA>
-1.64493

>  <SCORE.INTRA.DIHEDRAL>
-2.07806

>  <SCORE.INTRA.DIHEDRAL.0>
2.1318

>  <SCORE.INTRA.POLAR>
0

>  <SCORE.INTRA.POLAR.0>
0

>  <SCORE.INTRA.REPUL>
0

>  <SCORE.INTRA.REPUL.0>
0

>  <SCORE.INTRA.SOLV>
-0.972361

>  <SCORE.INTRA.SOLV.lig_0>
-58.6125

>  <SCORE.INTRA.VDW>
-0.119717

>  <SCORE.INTRA.VDW.0>
-0.432734

>  <SCORE.INTRA.norm>
-0.102808

>  <SCORE.RESTR>
0

>  <SCORE.RESTR.CAVITY>
0

>  <SCORE.RESTR.norm>
0

>  <SCORE.SYSTEM>
0

>  <SCORE.SYSTEM.CONST>
0

>  <SCORE.SYSTEM.DIHEDRAL>
0

>  <SCORE.SYSTEM.SOLV>
0

>  <SCORE.SYSTEM.norm>
0

>  <SCORE.heavy>
16

>  <SCORE.norm>
-0.222487

>  <RMSD>
43.465

$$$$
ligand
 OpenBabel11021811463D
libRbt.so/2013.1/901 2013/11/27
 16 16  0  0  0  0  0  0  0  0999 V2000
   14.5432    6.2988   -8.5084 P   0  0  2  0  0  0  0  0  0  0  0  0
   15.5363    5.9103   -9.5399 O   0  0  0  0  0  0  0  0  0  0  0  0
   13.2116    6.8486   -9.2247 O   0  5  0  0  0  0  0  0  0  0  0  0
   15.1669    7.4719   -7.5950 O   0  0  0  0  0  0  0  0  0  0  0  0
   11.8104    2.1095   -5.6871 C   0  0  2  0  0  0  0  0  0  0  0  0
   12.9488    1.5960   -4.9856 O   0  0  0  0  0  0  0  0  0  0  0  0
   11.1330    0.9931   -6.5231 C   0  0  2  0  0  0  0  0  0  0  0  0
   10.7210   -0.1127   -5.6376 N   0  0  0  0  0  0  0  0  0  0  0  0
   12.1402    0.4833   -7.5676 C   0  0  1  0  0  0  0  0  0  0  0  0
   11.5423   -0.5377   -8.3710 O   0  0  0  0  0  0  0  0  0  0  0  0
   12.5355    1.6633   -8.4537 C   0  0  2  0  0  0  0  0  0  0  0  0
   13.4697    1.2136   -9.4267 O   0  0  0  0  0  0  0  0  0  0  0  0
   13.1790    2.7619   -7.5642 C   0  0  2  0  0  0  0  0  0  0  0  0
   12.2308    3.2120   -6.5484 O   0  0  0  0  0  0  0  0  0  0  0  0
   13.5910    3.9856   -8.4194 C   0  0  0  0  0  0  0  0  0  0  0  0
   14.1813    5.0088   -7.5970 O   0  0  0  0  0  0  0  0  0  0  0  0
  1  2  1  6  0  0  0
  1  3  1  0  0  0  0
  1  4  2  0  0  0  0
  1 16  1  0  0  0  0
  5  6  1  6  0  0  0
  5  7  1  0  0  0  0
  5 14  1  0  0  0  0
  7  8  1  1  0  0  0
  7  9  1  0  0  0  0
  9 10  1  6  0  0  0
  9 11  1  0  0  0  0
 11 12  1  6  0  0  0
 11 13  1  0  0  0  0
 13 14  1  0  0  0  0
 13 15  1  6  0  0  0
 15 16  1  0  0  0  0
M  CHG  1   3  -1
M  END
>  <CHROM.1>
179.68633444,-177.60102038,-61.74143419,13.15099661,3.35298864,-7.69225391
0.32353762,1.10510015,0.92737251

>  <Name>
ligand

>  <RI>
0

>  <Rbt.Current_Directory>
/home/itssahil/PROJECTS/Mol_Feturizer/New_Systems/rnas/3B4C

>  <Rbt.Executable>
rbdock ($Id: //depot/dev/client3/rdock/2013.1/src/exe/rbdock.cxx#4 $)

>  <Rbt.Library>
libRbt.so (2013.1, Build901 2013/11/27)

>  <Rbt.Parameter_File>
/export/apps/rDock/src/rDock_2013.1_src/data/scripts/dock_solv.prm

>  <Rbt.Receptor>
prm/blind_docking_20.prm

>  <SCORE>
-3.53689

>  <SCORE.INTER>
-1.88473

>  <SCORE.INTER.CONST>
1

>  <SCORE.INTER.POLAR>
0

>  <SCORE.INTER.ROT>
3

>  <SCORE.INTER.SOLV>
12.7066

>  <SCORE.INTER.VDW>
-11.092

>  <SCORE.INTER.norm>
-0.117795

>  <SCORE.INTRA>
-1.65217

>  <SCORE.INTRA.DIHEDRAL>
-2.09618

>  <SCORE.INTRA.DIHEDRAL.0>
2.1318

>  <SCORE.INTRA.POLAR>
0

>  <SCORE.INTRA.POLAR.0>
0

>  <SCORE.INTRA.REPUL>
0

>  <SCORE.INTRA.REPUL.0>
0

>  <SCORE.INTRA.SOLV>
-0.975303

>  <SCORE.INTRA.SOLV.lig_0>
-58.6125

>  <SCORE.INTRA.VDW>
-0.116428

>  <SCORE.INTRA.VDW.0>
-0.432734

>  <SCORE.INTRA.norm>
-0.103261

>  <SCORE.RESTR>
0

>  <SCORE.RESTR.CAVITY>
0

>  <SCORE.RESTR.norm>
0

>  <SCORE.SYSTEM>
0

>  <SCORE.SYSTEM.CONST>
0

>  <SCORE.SYSTEM.DIHEDRAL>
0

>  <SCORE.SYSTEM.SOLV>
0

>  <SCORE.SYSTEM.norm>
0

>  <SCORE.heavy>
16

>  <SCORE.norm>
-0.221056

>  <RMSD>
43.467

$$$$
ligand
 OpenBabel11021811463D
libRbt.so/2013.1/901 2013/11/27
 16 16  0  0  0  0  0  0  0  0999 V2000
   14.5980    6.3316   -8.4017 P   0  0  2  0  0  0  0  0  0  0  0  0
   15.5959    6.4095   -9.4969 O   0  0  0  0  0  0  0  0  0  0  0  0
   13.3764    7.3305   -8.7158 O   0  5  0  0  0  0  0  0  0  0  0  0
   15.2982    6.7814   -7.0207 O   0  0  0  0  0  0  0  0  0  0  0  0
   12.8631    1.0140   -6.8146 C   0  0  2  0  0  0  0  0  0  0  0  0
   12.4223    0.6452   -8.1267 O   0  0  0  0  0  0  0  0  0  0  0  0
   11.6969    0.9168   -5.7975 C   0  0  2  0  0  0  0  0  0  0  0  0
   11.1633   -0.4586   -5.7805 N   0  0  0  0  0  0  0  0  0  0  0  0
   10.5950    1.9033   -6.2195 C   0  0  1  0  0  0  0  0  0  0  0  0
    9.5080    1.8538   -5.2915 O   0  0  0  0  0  0  0  0  0  0  0  0
   11.1981    3.3069   -6.2240 C   0  0  2  0  0  0  0  0  0  0  0  0
   10.1950    4.2359   -6.6143 O   0  0  0  0  0  0  0  0  0  0  0  0
   12.3777    3.3401   -7.2337 C   0  0  2  0  0  0  0  0  0  0  0  0
   13.4014    2.3716   -6.8498 O   0  0  0  0  0  0  0  0  0  0  0  0
   13.0281    4.7452   -7.2685 C   0  0  0  0  0  0  0  0  0  0  0  0
   14.0461    4.8127   -8.2837 O   0  0  0  0  0  0  0  0  0  0  0  0
  1  2  1  6  0  0  0
  1  3  1  0  0  0  0
  1  4  2  0  0  0  0
  1 16  1  0  0  0  0
  5  6  1  6  0  0  0
  5  7  1  0  0  0  0
  5 14  1  0  0  0  0
  7  8  1  6  0  0  0
  7  9  1  0  0  0  0
  9 10  1  1  0  0  0
  9 11  1  0  0  0  0
 11 12  1  6  0  0  0
 11 13  1  0  0  0  0
 13 14  1  0  0  0  0
 13 15  1  1  0  0  0
 15 16  1  0  0  0  0
M  CHG  1   3  -1
M  END
>  <CHROM.1>
-175.09337629,174.10336959,-177.08574302,12.76215109,3.74352442,-7.25862023
-0.94471788,-0.45763710,3.04911691

>  <Name>
ligand

>  <RI>
0

>  <Rbt.Current_Directory>
/home/itssahil/PROJECTS/Mol_Feturizer/New_Systems/rnas/3B4C

>  <Rbt.Executable>
rbdock ($Id: //depot/dev/client3/rdock/2013.1/src/exe/rbdock.cxx#4 $)

>  <Rbt.Library>
libRbt.so (2013.1, Build901 2013/11/27)

>  <Rbt.Parameter_File>
/export/apps/rDock/src/rDock_2013.1_src/data/scripts/dock_solv.prm

>  <Rbt.Receptor>
prm/blind_docking_20.prm

>  <SCORE>
-5.16589

>  <SCORE.INTER>
-3.80463

>  <SCORE.INTER.CONST>
1

>  <SCORE.INTER.POLAR>
0

>  <SCORE.INTER.ROT>
3

>  <SCORE.INTER.SOLV>
11.582

>  <SCORE.INTER.VDW>
-11.9971

>  <SCORE.INTER.norm>
-0.237789

>  <SCORE.INTRA>
-1.36126

>  <SCORE.INTRA.DIHEDRAL>
-1.85607

>  <SCORE.INTRA.DIHEDRAL.0>
2.1318

>  <SCORE.INTRA.POLAR>
0

>  <SCORE.INTRA.POLAR.0>
0

>  <SCORE.INTRA.REPUL>
0

>  <SCORE.INTRA.REPUL.0>
0

>  <SCORE.INTRA.SOLV>
-0.411296

>  <SCORE.INTRA.SOLV.lig_0>
-58.6125

>  <SCORE.INTRA.VDW>
-0.227582

>  <SCORE.INTRA.VDW.0>
-0.432734

>  <SCORE.INTRA.norm>
-0.085079

>  <SCORE.RESTR>
0

>  <SCORE.RESTR.CAVITY>
0

>  <SCORE.RESTR.norm>
0

>  <SCORE.SYSTEM>
0

>  <SCORE.SYSTEM.CONST>
0

>  <SCORE.SYSTEM.DIHEDRAL>
0

>  <SCORE.SYSTEM.SOLV>
0

>  <SCORE.SYSTEM.norm>
0

>  <SCORE.heavy>
16

>  <SCORE.norm>
-0.322868

>  <RMSD>
43.486

$$$$
ligand
 OpenBabel11021811463D
libRbt.so/2013.1/901 2013/11/27
 16 16  0  0  0  0  0  0  0  0999 V2000
   14.3597    6.3456   -8.6258 P   0  0  2  0  0  0  0  0  0  0  0  0
   15.5735    6.3995   -9.4773 O   0  0  0  0  0  0  0  0  0  0  0  0
   13.1213    7.0053   -9.4133 O   0  5  0  0  0  0  0  0  0  0  0  0
   14.6276    7.1864   -7.2764 O   0  0  0  0  0  0  0  0  0  0  0  0
   11.5737    2.0267   -5.1207 C   0  0  2  0  0  0  0  0  0  0  0  0
   12.8123    1.4764   -4.6572 O   0  0  0  0  0  0  0  0  0  0  0  0
   10.9298    1.1042   -6.1877 C   0  0  2  0  0  0  0  0  0  0  0  0
   10.7014   -0.2364   -5.6156 N   0  0  0  0  0  0  0  0  0  0  0  0
   11.8826    1.0071   -7.3911 C   0  0  1  0  0  0  0  0  0  0  0  0
   11.3117    0.1763   -8.4055 O   0  0  0  0  0  0  0  0  0  0  0  0
   12.0875    2.4171   -7.9424 C   0  0  2  0  0  0  0  0  0  0  0  0
   12.9688    2.3504   -9.0563 O   0  0  0  0  0  0  0  0  0  0  0  0
   12.7042    3.3045   -6.8269 C   0  0  2  0  0  0  0  0  0  0  0  0
   11.8129    3.3586   -5.6711 O   0  0  0  0  0  0  0  0  0  0  0  0
   12.9245    4.7499   -7.3377 C   0  0  0  0  0  0  0  0  0  0  0  0
   14.0209    4.8018   -8.2686 O   0  0  0  0  0  0  0  0  0  0  0  0
  1  2  1  6  0  0  0
  1  3  1  0  0  0  0
  1  4  2  0  0  0  0
  1 16  1  0  0  0  0
  5  6  1  6  0  0  0
  5  7  1  0  0  0  0
  5 14  1  0  0  0  0
  7  8  1  1  0  0  0
  7  9  1  0  0  0  0
  9 10  1  6  0  0  0
  9 11  1  0  0  0  0
 11 12  1  6  0  0  0
 11 13  1  0  0  0  0
 13 14  1  0  0  0  0
 13 15  1  6  0  0  0
 15 16  1  0  0  0  0
M  CHG  1   3  -1
M  END
>  <CHROM.1>
-72.23255443,-172.17835170,174.40277119,12.87720922,3.61877375,-7.45767560
-0.12851905,1.11766289,1.30980902

>  <Name>
ligand

>  <RI>
0

>  <Rbt.Current_Directory>
/home/itssahil/PROJECTS/Mol_Feturizer/New_Systems/rnas/3B4C

>  <Rbt.Executable>
rbdock ($Id: //depot/dev/client3/rdock/2013.1/src/exe/rbdock.cxx#4 $)

>  <Rbt.Library>
libRbt.so (2013.1, Build901 2013/11/27)

>  <Rbt.Parameter_File>
/export/apps/rDock/src/rDock_2013.1_src/data/scripts/dock_solv.prm

>  <Rbt.Receptor>
prm/blind_docking_20.prm

>  <SCORE>
-3.99168

>  <SCORE.INTER>
-3.01966

>  <SCORE.INTER.CONST>
1

>  <SCORE.INTER.POLAR>
0

>  <SCORE.INTER.ROT>
3

>  <SCORE.INTER.SOLV>
10.5958

>  <SCORE.INTER.VDW>
-11.145

>  <SCORE.INTER.norm>
-0.188729

>  <SCORE.INTRA>
-0.972019

>  <SCORE.INTRA.DIHEDRAL>
-1.26306

>  <SCORE.INTRA.DIHEDRAL.0>
2.1318

>  <SCORE.INTRA.POLAR>
0

>  <SCORE.INTRA.POLAR.0>
0

>  <SCORE.INTRA.REPUL>
0

>  <SCORE.INTRA.REPUL.0>
0

>  <SCORE.INTRA.SOLV>
-0.117069

>  <SCORE.INTRA.SOLV.lig_0>
-58.6125

>  <SCORE.INTRA.VDW>
-0.281957

>  <SCORE.INTRA.VDW.0>
-0.432734

>  <SCORE.INTRA.norm>
-0.0607512

>  <SCORE.RESTR>
0

>  <SCORE.RESTR.CAVITY>
0

>  <SCORE.RESTR.norm>
0

>  <SCORE.SYSTEM>
0

>  <SCORE.SYSTEM.CONST>
0

>  <SCORE.SYSTEM.DIHEDRAL>
0

>  <SCORE.SYSTEM.SOLV>
0

>  <SCORE.SYSTEM.norm>
0

>  <SCORE.heavy>
16

>  <SCORE.norm>
-0.24948

>  <RMSD>
43.498

$$$$
ligand
 OpenBabel11021811463D
libRbt.so/2013.1/901 2013/11/27
 16 16  0  0  0  0  0  0  0  0999 V2000
   11.4323   -0.9553   -6.2051 P   0  0  2  0  0  0  0  0  0  0  0  0
   10.5009   -1.5849   -5.2369 O   0  0  0  0  0  0  0  0  0  0  0  0
   11.9831   -2.0717   -7.2245 O   0  5  0  0  0  0  0  0  0  0  0  0
   12.6782   -0.3235   -5.4000 O   0  0  0  0  0  0  0  0  0  0  0  0
   14.4790    3.0635   -7.9313 C   0  0  2  0  0  0  0  0  0  0  0  0
   15.2066    2.4521   -6.8596 O   0  0  0  0  0  0  0  0  0  0  0  0
   13.7853    4.3641   -7.4504 C   0  0  2  0  0  0  0  0  0  0  0  0
   14.7953    5.3042   -6.9279 N   0  0  0  0  0  0  0  0  0  0  0  0
   12.7803    4.0032   -6.3435 C   0  0  1  0  0  0  0  0  0  0  0  0
   12.1069    5.1794   -5.8872 O   0  0  0  0  0  0  0  0  0  0  0  0
   11.7621    3.0290   -6.9335 C   0  0  2  0  0  0  0  0  0  0  0  0
   10.8232    2.6799   -5.9244 O   0  0  0  0  0  0  0  0  0  0  0  0
   12.5116    1.7611   -7.4262 C   0  0  2  0  0  0  0  0  0  0  0  0
   13.4932    2.1170   -8.4475 O   0  0  0  0  0  0  0  0  0  0  0  0
   11.5189    0.7438   -8.0411 C   0  0  0  0  0  0  0  0  0  0  0  0
   10.6511    0.2005   -7.0295 O   0  0  0  0  0  0  0  0  0  0  0  0
  1  2  1  1  0  0  0
  1  3  1  0  0  0  0
  1  4  2  0  0  0  0
  1 16  1  0  0  0  0
  5  6  1  1  0  0  0
  5  7  1  0  0  0  0
  5 14  1  0  0  0  0
  7  8  1  1  0  0  0
  7  9  1  0  0  0  0
  9 10  1  6  0  0  0
  9 11  1  0  0  0  0
 11 12  1  1  0  0  0
 11 13  1  0  0  0  0
 13 14  1  0  0  0  0
 13 15  1  6  0  0  0
 15 16  1  0  0  0  0
M  CHG  1   3  -1
M  END
>  <CHROM.1>
-67.75072673,-79.39979990,-175.56417213,12.42503949,1.60529623,-6.75903223
-2.04415198,0.46892650,0.09949893

>  <Name>
ligand

>  <RI>
0

>  <Rbt.Current_Directory>
/home/itssahil/PROJECTS/Mol_Feturizer/New_Systems/rnas/3B4C

>  <Rbt.Executable>
rbdock ($Id: //depot/dev/client3/rdock/2013.1/src/exe/rbdock.cxx#4 $)

>  <Rbt.Library>
libRbt.so (2013.1, Build901 2013/11/27)

>  <Rbt.Parameter_File>
/export/apps/rDock/src/rDock_2013.1_src/data/scripts/dock_solv.prm

>  <Rbt.Receptor>
prm/blind_docking_20.prm

>  <SCORE>
-0.909307

>  <SCORE.INTER>
-1.89984

>  <SCORE.INTER.CONST>
1

>  <SCORE.INTER.POLAR>
0

>  <SCORE.INTER.ROT>
3

>  <SCORE.INTER.SOLV>
13.3609

>  <SCORE.INTER.VDW>
-11.3202

>  <SCORE.INTER.norm>
-0.11874

>  <SCORE.INTRA>
0.990537

>  <SCORE.INTRA.DIHEDRAL>
-0.181097

>  <SCORE.INTRA.DIHEDRAL.0>
2.1318

>  <SCORE.INTRA.POLAR>
0

>  <SCORE.INTRA.POLAR.0>
0

>  <SCORE.INTRA.REPUL>
0

>  <SCORE.INTRA.REPUL.0>
0

>  <SCORE.INTRA.SOLV>
3.19933

>  <SCORE.INTRA.SOLV.lig_0>
-58.6125

>  <SCORE.INTRA.VDW>
-0.51858

>  <SCORE.INTRA.VDW.0>
-0.432734

>  <SCORE.INTRA.norm>
0.0619086

>  <SCORE.RESTR>
0

>  <SCORE.RESTR.CAVITY>
0

>  <SCORE.RESTR.norm>
0

>  <SCORE.SYSTEM>
0

>  <SCORE.SYSTEM.CONST>
0

>  <SCORE.SYSTEM.DIHEDRAL>
0

>  <SCORE.SYSTEM.SOLV>
0

>  <SCORE.SYSTEM.norm>
0

>  <SCORE.heavy>
16

>  <SCORE.norm>
-0.0568317

>  <RMSD>
43.833

$$$$
