@<TRIPOS>MOLECULE
3B4C_rdock.pdb
 3038 3396 0 0 0
SMALL
GASTEIGER

@<TRIPOS>ATOM
      1  P         43.5050    8.7070   19.1470 P.3     1  G1          0.0000
      2  C5'       43.8390   10.9090   20.5600 C.3     1  G1          0.0000
      3  O5'       44.3340   10.0060   19.5600 O.3     1  G1          0.0000
      4  C4'       44.9390   11.3000   21.5310 C.3     1  G1          0.0000
      5  O4'       46.0470   11.8730   20.8050 O.3     1  G1          0.0000
      6  C3'       44.4640   12.3900   22.4840 C.3     1  G1          0.0000
      7  O3'       44.8260   12.1520   23.8440 O.3     1  G1          0.0000
      8  C2'       44.9520   13.7160   21.8910 C.3     1  G1          0.0000
      9  O2'       45.4070   14.6470   22.8590 O.3     1  G1          0.0000
     10  C1'       46.1620   13.2470   21.0900 C.3     1  G1          0.0000
     11  N1        49.8720   13.4200   17.7450 N.ar    1  G1          0.0000
     12  C2        49.7100   12.6330   18.8590 C.ar    1  G1          0.0000
     13  N2        50.6640   11.7380   19.1190 N.pl3   1  G1          0.0000
     14  N3        48.6800   12.7120   19.6620 N.ar    1  G1          0.0000
     15  C4        47.7960   13.6520   19.2660 C.ar    1  G1          0.0000
     16  C5        47.8510   14.4880   18.1780 C.ar    1  G1          0.0000
     17  C6        48.9730   14.3890   17.3040 C.ar    1  G1          0.0000
     18  O6        49.2100   15.0260   16.2590 O.2     1  G1          0.0000
     19  N7        46.7310   15.3090   18.1340 N.ar    1  G1          0.0000
     20  C8        46.0290   14.9480   19.1770 C.ar    1  G1          0.0000
     21  N9        46.6190   13.9400   19.8940 N.ar    1  G1          0.0000
     22  OP1       42.1490    9.1680   18.7780 O.3     1  G1         -0.5000
     23  OP2       44.2790    7.9020   18.1810 O.co2   1  G1         -0.5000
     24  P         44.1140   10.9840   24.6800 P.3     2  C2          0.0000
     25  C5'       46.1750    9.3920   24.4640 C.3     2  C2          0.0000
     26  O5'       44.8190    9.6630   24.1520 O.3     2  C2          0.0000
     27  C4'       46.4500    7.9160   24.3310 C.3     2  C2          0.0000
     28  O4'       46.1300    7.4920   22.9800 O.3     2  C2          0.0000
     29  C3'       47.9000    7.5120   24.5350 C.3     2  C2          0.0000
     30  O3'       48.1570    7.2820   25.9100 O.3     2  C2          0.0000
     31  C2'       47.9990    6.2280   23.7280 C.3     2  C2          0.0000
     32  O2'       47.4960    5.1100   24.4340 O.3     2  C2          0.0000
     33  C1'       47.1000    6.5570   22.5320 C.3     2  C2          0.0000
     34  N1        47.8380    7.1630   21.4100 N.ar    2  C2          0.0000
     35  C2        48.7120    6.3710   20.6690 C.ar    2  C2          0.0000
     36  O2        48.8100    5.1670   20.9430 O.2     2  C2          0.0000
     37  N3        49.4250    6.9340   19.6720 N.ar    2  C2          0.0000
     38  C4        49.2800    8.2290   19.4000 C.ar    2  C2          0.0000
     39  N4        50.0100    8.7490   18.4220 N.pl3   2  C2          0.0000
     40  C5        48.3810    9.0520   20.1220 C.ar    2  C2          0.0000
     41  C6        47.6850    8.4860   21.1080 C.ar    2  C2          0.0000
     42  OP1       42.6720   10.9100   24.3340 O.2     2  C2         -0.5000
     43  OP2       44.5140   11.1860   26.0930 O.co2   2  C2         -0.5000
     44  P         49.6280    7.5380   26.4910 P.3     3  G3          0.0000
     45  C5'       50.2980    4.9810   26.5540 C.3     3  G3          0.0000
     46  O5'       50.4560    6.2790   25.9760 O.3     3  G3          0.0000
     47  C4'       51.3150    4.0340   25.9670 C.3     3  G3          0.0000
     48  O4'       51.0670    3.9010   24.5420 O.3     3  G3          0.0000
     49  C3'       52.7500    4.5260   26.0440 C.3     3  G3          0.0000
     50  O3'       53.3120    4.2110   27.3050 O.3     3  G3          0.0000
     51  C2'       53.4140    3.7750   24.8970 C.3     3  G3          0.0000
     52  O2'       53.7330    2.4290   25.2030 O.3     3  G3          0.0000
     53  C1'       52.3040    3.7970   23.8460 C.3     3  G3          0.0000
     54  N1        54.7330    5.6490   19.7850 N.ar    3  G3          0.0000
     55  C2        54.9630    4.4900   20.4830 C.ar    3  G3          0.0000
     56  N2        55.9620    3.7190   20.0420 N.pl3   3  G3          0.0000
     57  N3        54.2640    4.1140   21.5390 N.ar    3  G3          0.0000
     58  C4        53.3020    5.0070   21.8510 C.ar    3  G3          0.0000
     59  C5        52.9940    6.1930   21.2210 C.ar    3  G3          0.0000
     60  C6        53.7480    6.5810   20.0860 C.ar    3  G3          0.0000
     61  O6        53.6220    7.5940   19.3850 O.2     3  G3          0.0000
     62  N7        51.9350    6.8270   21.8540 N.ar    3  G3          0.0000
     63  C8        51.6210    6.0300   22.8380 C.ar    3  G3          0.0000
     64  N9        52.4040    4.9020   22.8920 N.ar    3  G3          0.0000
     65  OP1       49.5890    7.5270   27.9820 O.3     3  G3         -0.5000
     66  OP2       50.1870    8.7120   25.7780 O.co2   3  G3         -0.5000
     67  P         54.5660    5.0550   27.8470 P.3     4  C4          0.0000
     68  C5'       56.1650    3.1470   27.0050 C.3     4  C4          0.0000
     69  O5'       55.7850    4.5220   26.9710 O.3     4  C4          0.0000
     70  C4'       57.2470    2.8660   25.9810 C.3     4  C4          0.0000
     71  O4'       56.7290    3.0340   24.6320 O.3     4  C4          0.0000
     72  C3'       58.4770    3.7560   26.0370 C.3     4  C4          0.0000
     73  O3'       59.4050    3.2480   26.9820 O.3     4  C4          0.0000
     74  C2'       59.0320    3.6180   24.6270 C.3     4  C4          0.0000
     75  O2'       59.7950    2.4390   24.4720 O.3     4  C4          0.0000
     76  C1'       57.7500    3.5460   23.7910 C.3     4  C4          0.0000
     77  N1        57.3250    4.8620   23.2820 N.ar    4  C4          0.0000
     78  C2        58.0700    5.4690   22.2690 C.ar    4  C4          0.0000
     79  O2        59.0590    4.8770   21.8070 O.2     4  C4          0.0000
     80  N3        57.7000    6.6850   21.8190 N.ar    4  C4          0.0000
     81  C4        56.6330    7.2900   22.3330 C.ar    4  C4          0.0000
     82  N4        56.3100    8.4880   21.8590 N.pl3   4  C4          0.0000
     83  C5        55.8510    6.6940   23.3540 C.ar    4  C4          0.0000
     84  C6        56.2270    5.4920   23.7950 C.ar    4  C4          0.0000
     85  OP1       54.8290    4.7070   29.2720 O.3     4  C4         -0.5000
     86  OP2       54.3040    6.4680   27.4690 O.co2   4  C4         -0.5000
     87  P         60.6050    4.1740   27.5020 P.3     5  C5          0.0000
     88  C5'       62.2690    4.0010   25.4650 C.3     5  C5          0.0000
     89  O5'       61.2790    4.7410   26.1740 O.3     5  C5          0.0000
     90  C4'       63.1200    4.9390   24.6430 C.3     5  C5          0.0000
     91  O4'       62.2800    5.6110   23.6790 O.3     5  C5          0.0000
     92  C3'       63.8050    6.0440   25.4380 C.3     5  C5          0.0000
     93  O3'       65.0610    5.5980   25.9960 O.3     5  C5          0.0000
     94  C2'       63.8490    7.2500   24.4990 C.3     5  C5          0.0000
     95  O2'       65.0790    7.4870   23.8450 O.3     5  C5          0.0000
     96  C1'       62.7230    6.9410   23.5030 C.3     5  C5          0.0000
     97  N1        61.5530    7.8320   23.5430 N.ar    5  C5          0.0000
     98  C2        61.4600    8.8460   22.5940 C.ar    5  C5          0.0000
     99  O2        62.3670    8.9700   21.7660 O.2     5  C5          0.0000
    100  N3        60.3860    9.6650   22.5950 N.ar    5  C5          0.0000
    101  C4        59.4250    9.4980   23.5010 C.ar    5  C5          0.0000
    102  N4        58.3810   10.3320   23.4630 N.pl3   5  C5          0.0000
    103  C5        59.4930    8.4710   24.4870 C.ar    5  C5          0.0000
    104  C6        60.5680    7.6720   24.4750 C.ar    5  C5          0.0000
    105  OP1       61.5800    3.2920   28.1810 O.2     5  C5         -0.5000
    106  OP2       60.0160    5.3160   28.2420 O.co2   5  C5         -0.5000
    107  P         66.3000    5.1440   25.0400 P.3     6  U6          0.0000
    108  C5'       68.7370    6.1470   25.1370 C.3     6  U6          0.0000
    109  O5'       67.3260    6.3660   25.1280 O.3     6  U6          0.0000
    110  C4'       69.3490    6.6270   23.8430 C.3     6  U6          0.0000
    111  O4'       68.7160    5.9130   22.7430 O.3     6  U6          0.0000
    112  C3'       69.1390    8.0970   23.5110 C.3     6  U6          0.0000
    113  O3'       70.1420    8.9170   24.1070 O.3     6  U6          0.0000
    114  C2'       69.2410    8.1020   21.9890 C.3     6  U6          0.0000
    115  O2'       70.5760    8.0820   21.5270 O.3     6  U6          0.0000
    116  C1'       68.5560    6.7810   21.6310 C.3     6  U6          0.0000
    117  OP1       65.8750    5.0030   23.6210 O.2     6  U6         -0.5000
    118  OP2       66.9180    3.9740   25.7250 O.co2   6  U6         -0.5000
    119  P         69.8540   10.4840   24.3450 P.3     7  G7          0.0000
    120  C5'       70.6630   11.1330   21.9260 C.3     7  G7          0.0000
    121  O5'       69.6080   11.0670   22.8810 O.3     7  G7          0.0000
    122  C4'       70.3450   12.1600   20.8660 C.3     7  G7          0.0000
    123  O4'       69.1770   11.7430   20.1110 O.3     7  G7          0.0000
    124  C3'       69.9740   13.5300   21.3990 C.3     7  G7          0.0000
    125  O3'       71.1270   14.3070   21.6560 O.3     7  G7          0.0000
    126  C2'       69.1540   14.1140   20.2600 C.3     7  G7          0.0000
    127  O2'       69.9480   14.6480   19.2220 O.3     7  G7          0.0000
    128  C1'       68.3930   12.8810   19.7710 C.3     7  G7          0.0000
    129  N1        63.6900   14.7910   20.1100 N.ar    7  G7          0.0000
    130  C2        64.7610   15.2420   19.3820 C.ar    7  G7          0.0000
    131  N2        64.5520   16.3400   18.6420 N.pl3   7  G7          0.0000
    132  N3        65.9500   14.6590   19.3770 N.ar    7  G7          0.0000
    133  C4        65.9810   13.5690   20.1720 C.ar    7  G7          0.0000
    134  C5        64.9680   13.0380   20.9380 C.ar    7  G7          0.0000
    135  C6        63.6990   13.6720   20.9320 C.ar    7  G7          0.0000
    136  O6        62.6750   13.3480   21.5400 O.2     7  G7          0.0000
    137  N7        65.4020   11.9080   21.6140 N.ar    7  G7          0.0000
    138  C8        66.6470   11.7720   21.2530 C.ar    7  G7          0.0000
    139  N9        67.0660   12.7440   20.3750 N.ar    7  G7          0.0000
    140  OP1       71.0790   11.1320   24.8890 O.2     7  G7         -0.5000
    141  OP2       68.5780   10.5820   25.1050 O.co2   7  G7         -0.5000
    142  P         71.0330   15.5400   22.6710 P.3     8  G8          0.0000
    143  C5'       69.9760   17.1940   20.9520 C.3     8  G8          0.0000
    144  O5'       69.8190   16.3880   22.1020 O.3     8  G8          0.0000
    145  C4'       68.7630   18.0560   20.7770 C.3     8  G8          0.0000
    146  O4'       67.6140   17.2010   20.5660 O.3     8  G8          0.0000
    147  C3'       68.4070   18.8980   21.9850 C.3     8  G8          0.0000
    148  O3'       69.1060   20.1350   21.9170 O.3     8  G8          0.0000
    149  C2'       66.9100   19.0870   21.7950 C.3     8  G8          0.0000
    150  O2'       66.6430   20.0720   20.8160 O.3     8  G8          0.0000
    151  C1'       66.4950   17.7130   21.2590 C.3     8  G8          0.0000
    152  N1        62.8580   16.0450   24.4070 N.ar    8  G8          0.0000
    153  C2        62.8100   17.0700   23.5000 C.ar    8  G8          0.0000
    154  N2        61.6460   17.7330   23.4300 N.pl3   8  G8          0.0000
    155  N3        63.8220   17.4160   22.7190 N.ar    8  G8          0.0000
    156  C4        64.9000   16.6320   22.9220 C.ar    8  G8          0.0000
    157  C5        65.0440   15.5810   23.8010 C.ar    8  G8          0.0000
    158  C6        63.9560   15.2300   24.6340 C.ar    8  G8          0.0000
    159  O6        63.8920   14.3340   25.4870 O.2     8  G8          0.0000
    160  N7        66.3120   15.0290   23.7070 N.ar    8  G8          0.0000
    161  C8        66.9070   15.7410   22.7930 C.ar    8  G8          0.0000
    162  N9        66.1140   16.7360   22.2790 N.ar    8  G8          0.0000
    163  OP1       72.2530   16.3790   22.5620 O.2     8  G8         -0.5000
    164  OP2       70.6350   14.9980   24.0000 O.co2   8  G8         -0.5000
    165  P         69.3320   21.0050   23.2480 P.3     9  A9          0.0000
    166  C5'       66.9480   22.0770   23.4740 C.3     9  A9          0.0000
    167  O5'       67.8860   21.0960   23.8980 O.3     9  A9          0.0000
    168  C4'       65.7520   22.0610   24.3850 C.3     9  A9          0.0000
    169  O4'       65.0900   20.7750   24.2530 O.3     9  A9          0.0000
    170  C3'       66.0770   22.1660   25.8650 C.3     9  A9          0.0000
    171  O3'       66.1960   23.5280   26.2630 O.3     9  A9          0.0000
    172  C2'       64.8600   21.5100   26.4910 C.3     9  A9          0.0000
    173  O2'       63.7550   22.3840   26.4530 O.3     9  A9          0.0000
    174  C1'       64.5960   20.3660   25.5120 C.3     9  A9          0.0000
    175  N1        64.5390   16.3350   28.7000 N.ar    9  A9          0.0000
    176  C2        63.8170   17.4580   28.6600 C.ar    9  A9          0.0000
    177  N3        63.8950   18.4800   27.8160 N.ar    9  A9          0.0000
    178  C4        64.8580   18.2670   26.9070 C.ar    9  A9          0.0000
    179  C5        65.6840   17.1640   26.8220 C.ar    9  A9          0.0000
    180  C6        65.5010   16.1560   27.7770 C.ar    9  A9          0.0000
    181  N6        66.2220   15.0400   27.8230 N.pl3   9  A9          0.0000
    182  N7        66.5630   17.2910   25.7610 N.ar    9  A9          0.0000
    183  C8        66.2500   18.4470   25.2300 C.ar    9  A9          0.0000
    184  N9        65.2190   19.0880   25.8660 N.ar    9  A9          0.0000
    185  OP1       69.7470   22.3690   22.8360 O.2     9  A9         -0.5000
    186  OP2       70.1720   20.2360   24.1960 O.co2   9  A9         -0.5000
    187  P         67.1930   23.9260   27.4660 P.3    10  C10         0.0000
    188  C5'       65.3190   23.8640   29.3110 C.3    10  C10         0.0000
    189  O5'       66.5100   23.3080   28.7630 O.3    10  C10         0.0000
    190  C4'       64.8580   23.0320   30.4800 C.3    10  C10         0.0000
    191  O4'       64.4150   21.7310   30.0090 O.3    10  C10         0.0000
    192  C3'       65.9400   22.7000   31.4920 C.3    10  C10         0.0000
    193  O3'       66.1190   23.7610   32.4150 O.3    10  C10         0.0000
    194  C2'       65.3770   21.4590   32.1610 C.3    10  C10         0.0000
    195  O2'       64.3730   21.7600   33.1000 O.3    10  C10         0.0000
    196  C1'       64.7450   20.7440   30.9700 C.3    10  C10         0.0000
    197  N1        65.6840   19.7870   30.3770 N.ar   10  C10         0.0000
    198  C2        65.8340   18.5520   30.9910 C.ar   10  C10         0.0000
    199  O2        65.1510   18.2990   31.9900 O.2    10  C10         0.0000
    200  N3        66.7140   17.6640   30.4870 N.ar   10  C10         0.0000
    201  C4        67.4290   17.9760   29.4070 C.ar   10  C10         0.0000
    202  N4        68.2940   17.0640   28.9460 N.pl3  10  C10         0.0000
    203  C5        67.2890   19.2320   28.7500 C.ar   10  C10         0.0000
    204  C6        66.4110   20.0970   29.2620 C.ar   10  C10         0.0000
    205  OP1       67.2220   25.4100   27.6100 O.3    10  C10        -0.5000
    206  OP2       68.4610   23.1830   27.2840 O.co2  10  C10        -0.5000
    207  P         67.4760   23.8480   33.2680 P.3    11  U11         0.0000
    208  C5'       66.2740   22.6950   35.2900 C.3    11  U11         0.0000
    209  O5'       67.3380   22.6950   34.3530 O.3    11  U11         0.0000
    210  C4'       66.3940   21.4990   36.1920 C.3    11  U11         0.0000
    211  O4'       66.3420   20.2990   35.3900 O.3    11  U11         0.0000
    212  C3'       67.7180   21.4030   36.9150 C.3    11  U11         0.0000
    213  O3'       67.6570   22.1740   38.1030 O.3    11  U11         0.0000
    214  C2'       67.8430   19.9140   37.1950 C.3    11  U11         0.0000
    215  O2'       67.1660   19.5170   38.3630 O.3    11  U11         0.0000
    216  C1'       67.1680   19.3110   35.9630 C.3    11  U11         0.0000
    217  N1        68.1070   18.8400   34.9360 N.ar   11  U11         0.0000
    218  C2        68.7680   17.6560   35.1790 C.ar   11  U11         0.0000
    219  O2        68.6000   17.0060   36.1970 O.2    11  U11         0.0000
    220  N3        69.6310   17.2580   34.1870 N.ar   11  U11         0.0000
    221  C4        69.8960   17.9140   33.0030 C.ar   11  U11         0.0000
    222  O4        70.7160   17.4380   32.2160 O.2    11  U11         0.0000
    223  C5        69.1710   19.1340   32.8250 C.ar   11  U11         0.0000
    224  C6        68.3230   19.5460   33.7740 C.ar   11  U11         0.0000
    225  OP1       67.5020   25.1740   33.9390 O.3    11  U11        -0.5000
    226  OP2       68.6020   23.4410   32.3980 O.co2  11  U11        -0.5000
    227  P         68.9980   22.7860   38.7170 P.3    12  U12         0.0000
    228  C5'       69.1910   20.9410   40.5540 C.3    12  U12         0.0000
    229  O5'       69.7170   21.5320   39.3750 O.3    12  U12         0.0000
    230  C4'       69.9190   19.6630   40.8680 C.3    12  U12         0.0000
    231  O4'       69.6820   18.7000   39.8090 O.3    12  U12         0.0000
    232  C3'       71.4270   19.7770   40.9370 C.3    12  U12         0.0000
    233  O3'       71.8210   20.2820   42.2110 O.3    12  U12         0.0000
    234  C2'       71.8530   18.3370   40.6740 C.3    12  U12         0.0000
    235  O2'       71.6690   17.4920   41.7930 O.3    12  U12         0.0000
    236  C1'       70.8520   17.9270   39.5930 C.3    12  U12         0.0000
    237  N1        71.3090   18.1700   38.2150 N.ar   12  U12         0.0000
    238  C2        72.0210   17.1710   37.5700 C.ar   12  U12         0.0000
    239  O2        72.2970   16.1130   38.0920 O.2    12  U12         0.0000
    240  N3        72.3980   17.4670   36.2870 N.ar   12  U12         0.0000
    241  C4        72.1480   18.6400   35.5990 C.ar   12  U12         0.0000
    242  O4        72.5640   18.7720   34.4460 O.2    12  U12         0.0000
    243  C5        71.4180   19.6190   36.3330 C.ar   12  U12         0.0000
    244  C6        71.0340   19.3600   37.5790 C.ar   12  U12         0.0000
    245  OP1       68.6110   23.7320   39.7860 O.3    12  U12        -0.5000
    246  OP2       69.8050   23.2610   37.5700 O.co2  12  U12        -0.5000
    247  P         73.1530   21.1850   42.3440 P.3    13  A13         0.0000
    248  C5'       74.4520   19.0500   43.1310 C.3    13  A13         0.0000
    249  O5'       74.3190   20.1100   42.1850 O.3    13  A13         0.0000
    250  C4'       75.4830   18.0510   42.6700 C.3    13  A13         0.0000
    251  O4'       74.9920   17.3220   41.5200 O.3    13  A13         0.0000
    252  C3'       76.7950   18.6460   42.2040 C.3    13  A13         0.0000
    253  O3'       77.6160   18.9360   43.3210 O.3    13  A13         0.0000
    254  C2'       77.3440   17.5450   41.3040 C.3    13  A13         0.0000
    255  O2'       77.9410   16.4600   41.9880 O.3    13  A13         0.0000
    256  C1'       76.0620   17.0560   40.6320 C.3    13  A13         0.0000
    257  N1        76.6560   16.8790   35.5530 N.ar   13  A13         0.0000
    258  C2        77.0540   16.0660   36.5370 C.ar   13  A13         0.0000
    259  N3        76.8630   16.1770   37.8450 N.ar   13  A13         0.0000
    260  C4        76.1690   17.2940   38.1310 C.ar   13  A13         0.0000
    261  C5        75.6940   18.2300   37.2320 C.ar   13  A13         0.0000
    262  C6        75.9590   17.9940   35.8730 C.ar   13  A13         0.0000
    263  N6        75.5640   18.8090   34.8880 N.pl3  13  A13         0.0000
    264  N7        75.0300   19.2560   37.8930 N.ar   13  A13         0.0000
    265  C8        75.1140   18.9190   39.1570 C.ar   13  A13         0.0000
    266  N9        75.7870   17.7390   39.3710 N.ar   13  A13         0.0000
    267  OP1       73.1990   21.7230   43.7310 O.3    13  A13        -0.5000
    268  OP2       73.2250   22.1280   41.1920 O.co2  13  A13        -0.5000
    269  P         78.6620   20.1440   43.2380 P.3    14  A14         0.0000
    270  C5'       80.5470   18.3550   42.9080 C.3    14  A14         0.0000
    271  O5'       79.8630   19.5040   42.4120 O.3    14  A14         0.0000
    272  C4'       81.4400   17.7680   41.8420 C.3    14  A14         0.0000
    273  O4'       80.6240   17.2200   40.7690 O.3    14  A14         0.0000
    274  C3'       82.3680   18.7460   41.1380 C.3    14  A14         0.0000
    275  O3'       83.5440   19.0440   41.8890 O.3    14  A14         0.0000
    276  C2'       82.6630   18.0100   39.8370 C.3    14  A14         0.0000
    277  O2'       83.6520   17.0060   39.9770 O.3    14  A14         0.0000
    278  C1'       81.2890   17.4030   39.5260 C.3    14  A14         0.0000
    279  N1        79.5290   18.4620   34.7940 N.ar   14  A14         0.0000
    280  C2        80.2940   17.4700   35.2690 C.ar   14  A14         0.0000
    281  N3        80.7100   17.2450   36.5170 N.ar   14  A14         0.0000
    282  C4        80.2520   18.1950   37.3490 C.ar   14  A14         0.0000
    283  C5        79.4570   19.2790   37.0120 C.ar   14  A14         0.0000
    284  C6        79.0860   19.4030   35.6560 C.ar   14  A14         0.0000
    285  N6        78.3250   20.3940   35.1830 N.pl3  14  A14         0.0000
    286  N7        79.1790   20.0520   38.1320 N.ar   14  A14         0.0000
    287  C8        79.7990   19.4290   39.1060 C.ar   14  A14         0.0000
    288  N9        80.4760   18.3010   38.7020 N.ar   14  A14         0.0000
    289  OP1       79.1080   20.4330   44.6280 O.3    14  A14        -0.5000
    290  OP2       78.0600   21.2280   42.4190 O.co2  14  A14        -0.5000
    291  P         84.2400   20.4900   41.7310 P.3    15  A15         0.0000
    292  C5'       85.9180   19.5430   39.9500 C.3    15  A15         0.0000
    293  O5'       84.8600   20.4450   40.2630 O.3    15  A15         0.0000
    294  C4'       86.2510   19.6020   38.4760 C.3    15  A15         0.0000
    295  O4'       85.1060   19.1380   37.7050 O.3    15  A15         0.0000
    296  C3'       86.5470   20.9780   37.8880 C.3    15  A15         0.0000
    297  O3'       87.8700   21.4480   38.1220 O.3    15  A15         0.0000
    298  C2'       86.2790   20.7390   36.4100 C.3    15  A15         0.0000
    299  O2'       87.3320   20.0600   35.7490 O.3    15  A15         0.0000
    300  C1'       85.0190   19.8730   36.4890 C.3    15  A15         0.0000
    301  N1        81.3200   22.2000   33.7840 N.ar   15  A15         0.0000
    302  C2        82.2970   21.3560   33.4320 C.ar   15  A15         0.0000
    303  N3        83.2130   20.7640   34.1920 N.ar   15  A15         0.0000
    304  C4        83.0640   21.1220   35.4790 C.ar   15  A15         0.0000
    305  C5        82.1100   21.9790   35.9960 C.ar   15  A15         0.0000
    306  C6        81.1980   22.5390   35.0870 C.ar   15  A15         0.0000
    307  N6        80.2260   23.3840   35.4410 N.pl3  15  A15         0.0000
    308  N7        82.2610   22.1140   37.3700 N.ar   15  A15         0.0000
    309  C8        83.2870   21.3500   37.6490 C.ar   15  A15         0.0000
    310  N9        83.8340   20.7320   36.5480 N.ar   15  A15         0.0000
    311  OP1       85.3550   20.5830   42.7100 O.3    15  A15        -0.5000
    312  OP2       83.1700   21.5250   41.7440 O.co2  15  A15        -0.5000
    313  P         88.1430   23.0350   38.1830 P.3    16  G16         0.0000
    314  C5'       89.0800   23.1870   35.7340 C.3    16  G16         0.0000
    315  O5'       88.0470   23.5150   36.6620 O.3    16  G16         0.0000
    316  C4'       88.7340   23.6590   34.3360 C.3    16  G16         0.0000
    317  O4'       87.4910   23.0440   33.9060 O.3    16  G16         0.0000
    318  C3'       88.5040   25.1470   34.1070 C.3    16  G16         0.0000
    319  O3'       89.7360   25.8570   33.9530 O.3    16  G16         0.0000
    320  C2'       87.7210   25.1350   32.7990 C.3    16  G16         0.0000
    321  O2'       88.5480   24.9650   31.6630 O.3    16  G16         0.0000
    322  C1'       86.8310   23.9020   32.9860 C.3    16  G16         0.0000
    323  N1        82.0980   25.3820   31.8710 N.ar   16  G16         0.0000
    324  C2        83.1520   25.1320   31.0300 C.ar   16  G16         0.0000
    325  N2        82.9200   25.3040   29.7230 N.pl3  16  G16         0.0000
    326  N3        84.3470   24.7410   31.4400 N.ar   16  G16         0.0000
    327  C4        84.4050   24.6180   32.7820 C.ar   16  G16         0.0000
    328  C5        83.4100   24.8430   33.7090 C.ar   16  G16         0.0000
    329  C6        82.1330   25.2620   33.2550 C.ar   16  G16         0.0000
    330  O6        81.1210   25.5140   33.9210 O.2    16  G16         0.0000
    331  N7        83.8710   24.6040   34.9960 N.ar   16  G16         0.0000
    332  C8        85.1160   24.2450   34.8330 C.ar   16  G16         0.0000
    333  N9        85.5080   24.2360   33.5150 N.ar   16  G16         0.0000
    334  OP1       89.5400   23.2250   38.6430 O.2    16  G16        -0.5000
    335  OP2       87.0330   23.6600   38.9470 O.co2  16  G16        -0.5000
    336  P         89.7540   27.4720   34.0140 P.3    17  C17         0.0000
    337  C5'       89.7960   27.9170   31.4150 C.3    17  C17         0.0000
    338  O5'       89.0700   27.9320   32.6450 O.3    17  C17         0.0000
    339  C4'       88.9340   28.4330   30.2800 C.3    17  C17         0.0000
    340  O4'       87.7720   27.5680   30.1270 O.3    17  C17         0.0000
    341  C3'       88.3300   29.8230   30.4440 C.3    17  C17         0.0000
    342  O3'       89.2380   30.8700   30.1080 O.3    17  C17         0.0000
    343  C2'       87.1580   29.7620   29.4730 C.3    17  C17         0.0000
    344  O2'       87.5450   29.9040   28.1180 O.3    17  C17         0.0000
    345  C1'       86.6460   28.3420   29.7230 C.3    17  C17         0.0000
    346  N1        85.6160   28.3010   30.7900 N.ar   17  C17         0.0000
    347  C2        84.2960   28.6780   30.4770 C.ar   17  C17         0.0000
    348  O2        84.0220   29.0180   29.3150 O.2    17  C17         0.0000
    349  N3        83.3560   28.6630   31.4510 N.ar   17  C17         0.0000
    350  C4        83.6840   28.2930   32.6910 C.ar   17  C17         0.0000
    351  N4        82.7260   28.2980   33.6180 N.pl3  17  C17         0.0000
    352  C5        85.0090   27.9000   33.0360 C.ar   17  C17         0.0000
    353  C6        85.9330   27.9170   32.0660 C.ar   17  C17         0.0000
    354  OP1       91.1740   27.9100   33.9890 O.2    17  C17        -0.5000
    355  OP2       88.8770   27.9110   35.1330 O.co2  17  C17        -0.5000
    356  P         89.0120   32.3500   30.7120 P.3    18  C18         0.0000
    357  C5'       87.6490   33.1700   28.6140 C.3    18  C18         0.0000
    358  O5'       87.6790   32.8710   30.0090 O.3    18  C18         0.0000
    359  C4'       86.2680   33.6280   28.2000 C.3    18  C18         0.0000
    360  O4'       85.3080   32.5720   28.4910 O.3    18  C18         0.0000
    361  C3'       85.7100   34.8400   28.9330 C.3    18  C18         0.0000
    362  O3'       86.1730   36.0710   28.3820 O.3    18  C18         0.0000
    363  C2'       84.2100   34.6640   28.7340 C.3    18  C18         0.0000
    364  O2'       83.7590   35.0820   27.4590 O.3    18  C18         0.0000
    365  C1'       84.0660   33.1470   28.8820 C.3    18  C18         0.0000
    366  N1        83.7660   32.7510   30.2770 N.ar   18  C18         0.0000
    367  C2        82.4240   32.6820   30.6900 C.ar   18  C18         0.0000
    368  O2        81.5250   32.9250   29.8680 O.2    18  C18         0.0000
    369  N3        82.1440   32.3540   31.9730 N.ar   18  C18         0.0000
    370  C4        83.1340   32.0960   32.8290 C.ar   18  C18         0.0000
    371  N4        82.8110   31.7810   34.0850 N.pl3  18  C18         0.0000
    372  C5        84.5020   32.1480   32.4360 C.ar   18  C18         0.0000
    373  C6        84.7710   32.4730   31.1640 C.ar   18  C18         0.0000
    374  OP1       90.1380   33.2080   30.2590 O.2    18  C18        -0.5000
    375  OP2       88.7280   32.2190   32.1660 O.co2  18  C18        -0.5000
    376  P         86.1690   37.4020   29.2900 P.3    19  A19         0.0000
    377  C5'       84.2140   38.6030   30.6170 C.3    19  A19         0.0000
    378  O5'       84.6230   37.6550   29.6180 O.3    19  A19         0.0000
    379  C4'       82.7780   38.3430   31.0390 C.3    19  A19         0.0000
    380  O4'       82.6600   36.9640   31.5060 O.3    19  A19         0.0000
    381  C3'       82.2620   39.1600   32.2190 C.3    19  A19         0.0000
    382  O3'       81.8070   40.4730   31.8890 O.3    19  A19         0.0000
    383  C2'       81.1300   38.2800   32.7320 C.3    19  A19         0.0000
    384  O2'       79.9600   38.3370   31.9400 O.3    19  A19         0.0000
    385  C1'       81.7740   36.9000   32.6200 C.3    19  A19         0.0000
    386  N1        81.6020   36.0300   37.6970 N.ar   19  A19         0.0000
    387  C2        80.6450   36.2690   36.7900 C.ar   19  A19         0.0000
    388  N3        80.7570   36.4760   35.4790 N.ar   19  A19         0.0000
    389  C4        82.0450   36.4150   35.0960 C.ar   19  A19         0.0000
    390  C5        83.1400   36.1770   35.9100 C.ar   19  A19         0.0000
    391  C6        82.8870   35.9780   37.2810 C.ar   19  A19         0.0000
    392  N6        83.8420   35.7440   38.1850 N.pl3  19  A19         0.0000
    393  N7        84.3140   36.1850   35.1680 N.ar   19  A19         0.0000
    394  C8        83.9120   36.4260   33.9430 C.ar   19  A19         0.0000
    395  N9        82.5510   36.5860   33.8260 N.ar   19  A19         0.0000
    396  OP1       86.6630   38.5230   28.4490 O.2    19  A19        -0.5000
    397  OP2       86.8760   37.0670   30.5550 O.co2  19  A19        -0.5000
    398  P         81.6170   41.5660   33.0640 P.3    20  U20         0.0000
    399  C5'       80.5430   41.3430   35.4640 C.3    20  U20         0.0000
    400  O5'       80.9670   40.7250   34.2520 O.3    20  U20         0.0000
    401  C4'       80.1910   40.2800   36.4800 C.3    20  U20         0.0000
    402  O4'       81.3920   39.5380   36.8230 O.3    20  U20         0.0000
    403  C3'       79.6710   40.7640   37.8240 C.3    20  U20         0.0000
    404  O3'       78.2760   41.0510   37.7650 O.3    20  U20         0.0000
    405  C2'       79.9590   39.5650   38.7250 C.3    20  U20         0.0000
    406  O2'       78.9920   38.5350   38.6310 O.3    20  U20         0.0000
    407  C1'       81.2980   39.0760   38.1640 C.3    20  U20         0.0000
    408  N1        82.4530   39.5700   38.9300 N.ar   20  U20         0.0000
    409  C2        82.9630   38.7490   39.9260 C.ar   20  U20         0.0000
    410  O2        82.5210   37.6350   40.1660 O.2    20  U20         0.0000
    411  N3        84.0120   39.2820   40.6340 N.ar   20  U20         0.0000
    412  C4        84.5970   40.5210   40.4530 C.ar   20  U20         0.0000
    413  O4        85.5290   40.8630   41.1830 O.2    20  U20         0.0000
    414  C5        84.0260   41.3020   39.3970 C.ar   20  U20         0.0000
    415  C6        83.0030   40.8130   38.6880 C.ar   20  U20         0.0000
    416  OP1       80.6180   42.5690   32.6070 O.2    20  U20        -0.5000
    417  OP2       82.9600   42.0220   33.5050 O.co2  20  U20        -0.5000
    418  P         72.9740   33.3220   39.3610 P.3    23  G23         0.0000
    419  C5'       72.3210   32.7760   36.8850 C.3    23  G23         0.0000
    420  O5'       72.0240   33.4650   38.0910 O.3    23  G23         0.0000
    421  C4'       72.5700   33.7600   35.7670 C.3    23  G23         0.0000
    422  O4'       73.5690   34.7380   36.1780 O.3    23  G23         0.0000
    423  C3'       73.1420   33.1290   34.5100 C.3    23  G23         0.0000
    424  O3'       72.1040   32.6060   33.6940 O.3    23  G23         0.0000
    425  C2'       73.8920   34.2920   33.8770 C.3    23  G23         0.0000
    426  O2'       73.0380   35.1950   33.2020 O.3    23  G23         0.0000
    427  C1'       74.4890   34.9660   35.1170 C.3    23  G23         0.0000
    428  N1        79.3130   34.0110   33.7580 N.ar   23  G23         0.0000
    429  C2        78.3220   34.6420   33.0460 C.ar   23  G23         0.0000
    430  N2        78.6520   35.0600   31.8130 N.pl3  23  G23         0.0000
    431  N3        77.0970   34.8490   33.5090 N.ar   23  G23         0.0000
    432  C4        76.9430   34.3700   34.7640 C.ar   23  G23         0.0000
    433  C5        77.8720   33.7290   35.5590 C.ar   23  G23         0.0000
    434  C6        79.1770   33.5100   35.0500 C.ar   23  G23         0.0000
    435  O6        80.1360   32.9540   35.6030 O.2    23  G23         0.0000
    436  N7        77.3220   33.3930   36.7880 N.ar   23  G23         0.0000
    437  C8        76.0920   33.8220   36.7220 C.ar   23  G23         0.0000
    438  N9        75.7870   34.4160   35.5180 N.ar   23  G23         0.0000
    439  OP1       73.1360   34.6720   39.9610 O.3    23  G23         0.0000
    440  OP2       72.4740   32.2020   40.1980 O.co2  23  G23        -1.0000
    441  P         72.2380   31.1190   33.0980 P.3    24  G24         0.0000
    442  C5'       72.7550   32.0150   30.6880 C.3    24  G24         0.0000
    443  O5'       73.1950   31.3060   31.8420 O.3    24  G24         0.0000
    444  C4'       73.8360   32.0120   29.6400 C.3    24  G24         0.0000
    445  O4'       74.9660   32.7840   30.1220 O.3    24  G24         0.0000
    446  C3'       74.4000   30.6360   29.3310 C.3    24  G24         0.0000
    447  O3'       73.6210   29.9920   28.3300 O.3    24  G24         0.0000
    448  C2'       75.8120   30.9570   28.8600 C.3    24  G24         0.0000
    449  O2'       75.8600   31.3590   27.5040 O.3    24  G24         0.0000
    450  C1'       76.1760   32.1320   29.7730 C.3    24  G24         0.0000
    451  N1        80.2440   29.9040   31.8520 N.ar   24  G24         0.0000
    452  C2        79.9270   30.0690   30.5290 C.ar   24  G24         0.0000
    453  N2        80.8060   29.5830   29.6490 N.pl3  24  G24         0.0000
    454  N3        78.8300   30.6660   30.1020 N.ar   24  G24         0.0000
    455  C4        78.0610   31.0950   31.1230 C.ar   24  G24         0.0000
    456  C5        78.2890   30.9790   32.4780 C.ar   24  G24         0.0000
    457  C6        79.4670   30.3380   32.9200 C.ar   24  G24         0.0000
    458  O6        79.8470   30.1410   34.0800 O.2    24  G24         0.0000
    459  N7        77.2520   31.5480   33.2030 N.ar   24  G24         0.0000
    460  C8        76.4280   31.9920   32.2950 C.ar   24  G24         0.0000
    461  N9        76.8580   31.7530   31.0110 N.ar   24  G24         0.0000
    462  OP1       70.9010   30.7090   32.5930 O.2    24  G24        -0.5000
    463  OP2       72.9420   30.2600   34.0890 O.co2  24  G24        -0.5000
    464  P         73.5700   28.3880   28.2680 P.3    25  C25         0.0000
    465  C5'       75.3410   28.3370   26.3300 C.3    25  C25         0.0000
    466  O5'       74.9850   27.9860   27.6640 O.3    25  C25         0.0000
    467  C4'       76.7180   27.8120   26.0140 C.3    25  C25         0.0000
    468  O4'       77.6800   28.4520   26.8910 O.3    25  C25         0.0000
    469  C3'       76.8980   26.3220   26.2590 C.3    25  C25         0.0000
    470  O3'       76.5050   25.5850   25.1050 O.3    25  C25         0.0000
    471  C2'       78.3900   26.2070   26.5370 C.3    25  C25         0.0000
    472  O2'       79.1670   26.1540   25.3600 O.3    25  C25         0.0000
    473  C1'       78.6670   27.5150   27.2830 C.3    25  C25         0.0000
    474  N1        78.6530   27.3980   28.7550 N.ar   25  C25         0.0000
    475  C2        79.7320   26.7740   29.3930 C.ar   25  C25         0.0000
    476  O2        80.6600   26.3180   28.7040 O.2    25  C25         0.0000
    477  N3        79.7360   26.6790   30.7410 N.ar   25  C25         0.0000
    478  C4        78.7190   27.1690   31.4480 C.ar   25  C25         0.0000
    479  N4        78.7680   27.0530   32.7740 N.pl3  25  C25         0.0000
    480  C5        77.6060   27.8020   30.8260 C.ar   25  C25         0.0000
    481  C6        77.6130   27.8930   29.4920 C.ar   25  C25         0.0000
    482  OP1       72.5210   27.9880   27.2920 O.2    25  C25        -0.5000
    483  OP2       73.5080   27.8770   29.6660 O.co2  25  C25        -0.5000
    484  P         76.1890   24.0130   25.2280 P.3    26  U26         0.0000
    485  C5'       78.6500   23.4240   24.5720 C.3    26  U26         0.0000
    486  O5'       77.6090   23.3700   25.5330 O.3    26  U26         0.0000
    487  C4'       79.8630   22.7190   25.1010 C.3    26  U26         0.0000
    488  O4'       80.4300   23.4740   26.2000 O.3    26  U26         0.0000
    489  C3'       79.5670   21.3570   25.6980 C.3    26  U26         0.0000
    490  O3'       79.5030   20.3850   24.6610 O.3    26  U26         0.0000
    491  C2'       80.7440   21.1520   26.6430 C.3    26  U26         0.0000
    492  O2'       81.9000   20.6740   25.9890 O.3    26  U26         0.0000
    493  C1'       80.9940   22.5790   27.1420 C.3    26  U26         0.0000
    494  N1        80.4380   22.8700   28.4750 N.ar   26  U26         0.0000
    495  C2        81.1800   22.4810   29.5820 C.ar   26  U26         0.0000
    496  O2        82.2430   21.8950   29.4970 O.2    26  U26         0.0000
    497  N3        80.6250   22.8020   30.7970 N.ar   26  U26         0.0000
    498  C4        79.4310   23.4480   31.0200 C.ar   26  U26         0.0000
    499  O4        79.0690   23.6660   32.1780 O.2    26  U26         0.0000
    500  C5        78.7160   23.8070   29.8320 C.ar   26  U26         0.0000
    501  C6        79.2300   23.5130   28.6300 C.ar   26  U26         0.0000
    502  OP1       75.7280   23.5120   23.9050 O.2    26  U26        -0.5000
    503  OP2       75.3350   23.8120   26.4270 O.co2  26  U26        -0.5000
    504  P         78.7040   19.0110   24.9000 P.3    27  U27         0.0000
    505  C5'       81.0000   17.8660   25.4190 C.3    27  U27         0.0000
    506  O5'       79.6790   18.1840   25.8410 O.3    27  U27         0.0000
    507  C4'       81.7770   17.2810   26.5650 C.3    27  U27         0.0000
    508  O4'       82.1080   18.3120   27.5250 O.3    27  U27         0.0000
    509  C3'       81.0000   16.2550   27.3610 C.3    27  U27         0.0000
    510  O3'       81.0640   15.0000   26.6970 O.3    27  U27         0.0000
    511  C2'       81.7010   16.2850   28.7130 C.3    27  U27         0.0000
    512  O2'       82.8640   15.4900   28.7500 O.3    27  U27         0.0000
    513  C1'       82.0790   17.7670   28.8330 C.3    27  U27         0.0000
    514  N1        81.1590   18.5710   29.6560 N.ar   27  U27         0.0000
    515  C2        81.4430   18.6940   31.0100 C.ar   27  U27         0.0000
    516  O2        82.4130   18.1750   31.5360 O.2    27  U27         0.0000
    517  N3        80.5460   19.4490   31.7250 N.ar   27  U27         0.0000
    518  C4        79.4180   20.0800   31.2440 C.ar   27  U27         0.0000
    519  O4        78.7050   20.7200   32.0200 O.2    27  U27         0.0000
    520  C5        79.1930   19.9120   29.8390 C.ar   27  U27         0.0000
    521  C6        80.0480   19.1830   29.1120 C.ar   27  U27         0.0000
    522  OP1       78.6090   18.3010   23.5970 O.2    27  U27        -0.5000
    523  OP2       77.4660   19.3040   25.6670 O.co2  27  U27        -0.5000
    524  P         79.7970   14.0120   26.7370 P.3    28  U28         0.0000
    525  C5'       81.2290   12.6910   28.4820 C.3    28  U28         0.0000
    526  O5'       79.9780   13.2740   28.1340 O.3    28  U28         0.0000
    527  C4'       81.2950   12.4640   29.9650 C.3    28  U28         0.0000
    528  O4'       81.3830   13.7320   30.6600 O.3    28  U28         0.0000
    529  C3'       80.0450   11.8290   30.5290 C.3    28  U28         0.0000
    530  O3'       80.0750   10.4320   30.3100 O.3    28  U28         0.0000
    531  C2'       80.1030   12.2290   31.9970 C.3    28  U28         0.0000
    532  O2'       80.9400   11.4090   32.7830 O.3    28  U28         0.0000
    533  C1'       80.6990   13.6360   31.9010 C.3    28  U28         0.0000
    534  N1        79.7000   14.7150   31.9840 N.ar   28  U28         0.0000
    535  C2        79.2320   15.0600   33.2440 C.ar   28  U28         0.0000
    536  O2        79.5950   14.4980   34.2660 O.2    28  U28         0.0000
    537  N3        78.3190   16.0870   33.2640 N.ar   28  U28         0.0000
    538  C4        77.8290   16.7880   32.1790 C.ar   28  U28         0.0000
    539  O4        77.0110   17.6940   32.3600 O.2    28  U28         0.0000
    540  C5        78.3510   16.3670   30.9110 C.ar   28  U28         0.0000
    541  C6        79.2440   15.3710   30.8580 C.ar   28  U28         0.0000
    542  OP1       79.9570   12.9890   25.6700 O.2    28  U28        -0.5000
    543  OP2       78.5600   14.8370   26.7800 O.co2  28  U28        -0.5000
    544  P         78.6990    9.6450   30.0560 P.3    29  A29         0.0000
    545  C5'       78.7960    8.9580   32.5890 C.3    29  A29         0.0000
    546  O5'       78.0690    9.5620   31.5190 O.3    29  A29         0.0000
    547  C4'       78.1180    9.2270   33.9120 C.3    29  A29         0.0000
    548  O4'       78.3320   10.6010   34.3400 O.3    29  A29         0.0000
    549  C3'       76.6120    9.0780   33.9120 C.3    29  A29         0.0000
    550  O3'       76.2270    7.7140   33.9760 O.3    29  A29         0.0000
    551  C2'       76.2240    9.8800   35.1460 C.3    29  A29         0.0000
    552  O2'       76.4810    9.1850   36.3470 O.3    29  A29         0.0000
    553  C1'       77.1840   11.0650   35.0430 C.3    29  A29         0.0000
    554  N1        74.2740   15.3250   35.2830 N.ar   29  A29         0.0000
    555  C2        74.6210   14.4220   36.2090 C.ar   29  A29         0.0000
    556  N3        75.3810   13.3320   36.0860 N.ar   29  A29         0.0000
    557  C4        75.8120   13.1950   34.8210 C.ar   29  A29         0.0000
    558  C5        75.5360   14.0400   33.7590 C.ar   29  A29         0.0000
    559  C6        74.7260   15.1590   34.0210 C.ar   29  A29         0.0000
    560  N6        74.3860   16.0590   33.0950 N.pl3  29  A29         0.0000
    561  N7        76.1450   13.5850   32.5990 N.ar   29  A29         0.0000
    562  C8        76.7680   12.4950   32.9770 C.ar   29  A29         0.0000
    563  N9        76.6130   12.2000   34.3110 N.ar   29  A29         0.0000
    564  OP1       79.0340    8.2630   29.6060 O.3    29  A29        -0.5000
    565  OP2       77.8290   10.5030   29.2020 O.co2  29  A29        -0.5000
    566  P         74.7530    7.2840   33.4940 P.3    30  A30         0.0000
    567  C5'       74.0910    7.4870   36.0250 C.3    30  A30         0.0000
    568  O5'       73.8220    7.8280   34.6660 O.3    30  A30         0.0000
    569  C4'       73.2160    8.2970   36.9510 C.3    30  A30         0.0000
    570  O4'       73.6300    9.6940   36.9680 O.3    30  A30         0.0000
    571  C3'       71.7590    8.3670   36.5510 C.3    30  A30         0.0000
    572  O3'       71.0580    7.1900   36.9050 O.3    30  A30         0.0000
    573  C2'       71.2970    9.6030   37.3070 C.3    30  A30         0.0000
    574  O2'       71.1120    9.3760   38.6910 O.3    30  A30         0.0000
    575  C1'       72.4860   10.5340   37.0760 C.3    30  A30         0.0000
    576  N1        70.9410   14.8790   34.8090 N.ar   30  A30         0.0000
    577  C2        71.0080   14.5060   36.0930 C.ar   30  A30         0.0000
    578  N3        71.4340   13.3620   36.6200 N.ar   30  A30         0.0000
    579  C4        71.8350   12.5220   35.6560 C.ar   30  A30         0.0000
    580  C5        71.8260   12.7590   34.2920 C.ar   30  A30         0.0000
    581  C6        71.3490   14.0080   33.8640 C.ar   30  A30         0.0000
    582  N6        71.2750   14.3750   32.5850 N.pl3  30  A30         0.0000
    583  N7        72.3110   11.6600   33.5990 N.ar   30  A30         0.0000
    584  C8        72.5990   10.7980   34.5420 C.ar   30  A30         0.0000
    585  N9        72.3260   11.2520   35.8130 N.ar   30  A30         0.0000
    586  OP1       74.6660    5.7980   33.4790 O.3    30  A30        -0.5000
    587  OP2       74.4210    8.0510   32.2630 O.co2  30  A30        -0.5000
    588  P         69.6370    6.8920   36.2260 P.3    31  G31         0.0000
    589  C5'       67.6740    8.5920   35.9090 C.3    31  G31         0.0000
    590  O5'       68.7640    8.1390   36.6890 O.3    31  G31         0.0000
    591  C4'       67.1360    9.8690   36.4810 C.3    31  G31         0.0000
    592  O4'       68.1130   10.9310   36.3160 O.3    31  G31         0.0000
    593  C3'       65.9080   10.3880   35.7760 C.3    31  G31         0.0000
    594  O3'       64.7720    9.7380   36.3100 O.3    31  G31         0.0000
    595  C2'       65.9730   11.8670   36.1100 C.3    31  G31         0.0000
    596  O2'       65.6710   12.1160   37.4650 O.3    31  G31         0.0000
    597  C1'       67.4630   12.1290   35.9180 C.3    31  G31         0.0000
    598  N1        67.4030   15.5180   32.1240 N.ar   31  G31         0.0000
    599  C2        66.9120   15.6290   33.4030 C.ar   31  G31         0.0000
    600  N2        66.3310   16.7910   33.7160 N.pl3  31  G31         0.0000
    601  N3        66.9850   14.6700   34.3100 N.ar   31  G31         0.0000
    602  C4        67.5980   13.5690   33.8330 C.ar   31  G31         0.0000
    603  C5        68.1220   13.3530   32.5760 C.ar   31  G31         0.0000
    604  C6        68.0380   14.3940   31.6070 C.ar   31  G31         0.0000
    605  O6        68.4440   14.3970   30.4320 O.2    31  G31         0.0000
    606  N7        68.6640   12.0800   32.4820 N.ar   31  G31         0.0000
    607  C8        68.4640   11.5550   33.6580 C.ar   31  G31         0.0000
    608  N9        67.8250   12.4050   34.5290 N.ar   31  G31         0.0000
    609  OP1       69.0760    5.6730   36.8580 O.3    31  G31        -0.5000
    610  OP2       69.7740    6.9560   34.7450 O.co2  31  G31        -0.5000
    611  P         63.4700    9.5600   35.4030 P.3    32  U32         0.0000
    612  C5'       62.5880   11.8540   36.3050 C.3    32  U32         0.0000
    613  O5'       62.9930   11.0620   35.1900 O.3    32  U32         0.0000
    614  C4'       62.0230   13.1630   35.8320 C.3    32  U32         0.0000
    615  O4'       63.1040   14.0110   35.3780 O.3    32  U32         0.0000
    616  C3'       61.1140   13.0550   34.6230 C.3    32  U32         0.0000
    617  O3'       59.7900   12.7080   34.9730 O.3    32  U32         0.0000
    618  C2'       61.2140   14.4470   34.0320 C.3    32  U32         0.0000
    619  O2'       60.4790   15.3950   34.7730 O.3    32  U32         0.0000
    620  C1'       62.7020   14.7180   34.2140 C.3    32  U32         0.0000
    621  N1        63.4920   14.2340   33.0730 N.ar   32  U32         0.0000
    622  C2        63.4470   14.9740   31.9140 C.ar   32  U32         0.0000
    623  O2        62.7820   15.9830   31.8080 O.2    32  U32         0.0000
    624  N3        64.2060   14.4870   30.8850 N.ar   32  U32         0.0000
    625  C4        64.9890   13.3550   30.9000 C.ar   32  U32         0.0000
    626  O4        65.6290   13.0500   29.8940 O.2    32  U32         0.0000
    627  C5        64.9780   12.6370   32.1340 C.ar   32  U32         0.0000
    628  C6        64.2490   13.0880   33.1510 C.ar   32  U32         0.0000
    629  OP1       62.4580    8.8290   36.2100 O.3    32  U32        -0.5000
    630  OP2       63.8710    9.0370   34.0780 O.co2  32  U32        -0.5000
    631  P         58.8540   12.0140   33.8830 P.3    33  U33         0.0000
    632  C5'       58.1950   14.3590   32.9830 C.3    33  U33         0.0000
    633  O5'       58.7700   13.0930   32.7240 O.3    33  U33         0.0000
    634  C4'       58.2930   15.2380   31.7680 C.3    33  U33         0.0000
    635  O4'       59.6780   15.4870   31.4490 O.3    33  U33         0.0000
    636  C3'       57.7250   14.6550   30.4910 C.3    33  U33         0.0000
    637  O3'       56.3330   14.8850   30.4550 O.3    33  U33         0.0000
    638  C2'       58.4280   15.4840   29.4320 C.3    33  U33         0.0000
    639  O2'       57.8410   16.7600   29.2980 O.3    33  U33         0.0000
    640  C1'       59.8180   15.6330   30.0460 C.3    33  U33         0.0000
    641  N1        60.7830   14.6350   29.5580 N.ar   33  U33         0.0000
    642  C2        61.4110   14.8830   28.3490 C.ar   33  U33         0.0000
    643  O2        61.1920   15.8770   27.6690 O.2    33  U33         0.0000
    644  N3        62.3060   13.9200   27.9610 N.ar   33  U33         0.0000
    645  C4        62.6260   12.7640   28.6350 C.ar   33  U33         0.0000
    646  O4        63.4430   11.9870   28.1460 O.2    33  U33         0.0000
    647  C5        61.9350   12.5810   29.8660 C.ar   33  U33         0.0000
    648  C6        61.0600   13.4960   30.2750 C.ar   33  U33         0.0000
    649  OP1       57.5100   11.8670   34.4720 O.3    33  U33        -0.5000
    650  OP2       59.5700   10.8200   33.3780 O.co2  33  U33        -0.5000
    651  P         55.3960   13.9080   29.6200 P.3    34  G34         0.0000
    652  C5'       55.9820   15.2100   27.3930 C.3    34  G34         0.0000
    653  O5'       55.9760   13.9850   28.1350 O.3    34  G34         0.0000
    654  C4'       56.6480   15.0130   26.0430 C.3    34  G34         0.0000
    655  O4'       58.0640   14.7530   26.2100 O.3    34  G34         0.0000
    656  C3'       56.1180   13.8400   25.2370 C.3    34  G34         0.0000
    657  O3'       55.0020   14.2770   24.4720 O.3    34  G34         0.0000
    658  C2'       57.3050   13.4590   24.3570 C.3    34  G34         0.0000
    659  O2'       57.4090   14.2560   23.1970 O.3    34  G34         0.0000
    660  C1'       58.4850   13.7660   25.2800 C.3    34  G34         0.0000
    661  N1        62.2150   10.3350   25.7430 N.ar   34  G34         0.0000
    662  C2        62.0760   11.3540   24.8340 C.ar   34  G34         0.0000
    663  N2        63.0600   11.4800   23.9360 N.pl3  34  G34         0.0000
    664  N3        61.0490   12.1880   24.8070 N.ar   34  G34         0.0000
    665  C4        60.1540   11.9240   25.7850 C.ar   34  G34         0.0000
    666  C5        60.1980   10.9380   26.7440 C.ar   34  G34         0.0000
    667  C6        61.3100   10.0380   26.7570 C.ar   34  G34         0.0000
    668  O6        61.5300    9.0820   27.5250 O.2    34  G34         0.0000
    669  N7        59.0820   11.0040   27.5680 N.ar   34  G34         0.0000
    670  C8        58.3930   12.0070   27.1020 C.ar   34  G34         0.0000
    671  N9        58.9850   12.6130   26.0240 N.ar   34  G34         0.0000
    672  OP1       54.0500   14.5000   29.6640 O.2    34  G34        -0.5000
    673  OP2       55.5980   12.5360   30.1080 O.co2  34  G34        -0.5000
    674  P         53.5830   13.5570   24.6480 P.3    35  A35         0.0000
    675  C5'       51.9670   15.5250   25.4340 C.3    35  A35         0.0000
    676  O5'       52.5560   14.7500   24.3690 O.3    35  A35         0.0000
    677  C4'       50.4730   15.6330   25.2140 C.3    35  A35         0.0000
    678  O4'       50.2530   16.1070   23.8670 O.3    35  A35         0.0000
    679  C3'       49.8060   14.2670   25.2910 C.3    35  A35         0.0000
    680  O3'       48.5780   14.2400   26.0280 O.3    35  A35         0.0000
    681  C2'       49.7090   13.7670   23.8480 C.3    35  A35         0.0000
    682  O2'       48.4920   13.1170   23.5650 O.3    35  A35         0.0000
    683  C1'       49.7260   15.0750   23.0600 C.3    35  A35         0.0000
    684  N1        49.7680   17.4400   18.5940 N.ar   35  A35         0.0000
    685  C2        48.9590   17.4950   19.6480 C.ar   35  A35         0.0000
    686  N3        49.0000   16.8060   20.7690 N.ar   35  A35         0.0000
    687  C4        50.0340   15.9580   20.7620 C.ar   35  A35         0.0000
    688  C5        50.9520   15.7780   19.7550 C.ar   35  A35         0.0000
    689  C6        50.7960   16.5720   18.6120 C.ar   35  A35         0.0000
    690  N6        51.5930   16.5180   17.5420 N.pl3  35  A35         0.0000
    691  N7        51.8750   14.8060   20.1040 N.ar   35  A35         0.0000
    692  C8        51.5020   14.4380   21.3050 C.ar   35  A35         0.0000
    693  N9        50.4080   15.1140   21.7710 N.ar   35  A35         0.0000
    694  OP1       53.4460   13.1020   26.0610 O.3    35  A35        -0.5000
    695  OP2       53.4830   12.5630   23.5540 O.co2  35  A35        -0.5000
    696  P         48.5400   14.6360   27.5870 P.3    36  C36         0.0000
    697  C5'       47.5930   16.7520   28.7980 C.3    36  C36         0.0000
    698  O5'       47.9950   16.1280   27.5810 O.3    36  C36         0.0000
    699  C4'       46.3000   17.5050   28.6040 C.3    36  C36         0.0000
    700  O4'       46.4950   18.5280   27.6000 O.3    36  C36         0.0000
    701  C3'       45.1270   16.6920   28.0870 C.3    36  C36         0.0000
    702  O3'       44.4830   16.0920   29.1930 O.3    36  C36         0.0000
    703  C2'       44.2480   17.7700   27.4720 C.3    36  C36         0.0000
    704  O2'       43.5610   18.5040   28.4580 O.3    36  C36         0.0000
    705  C1'       45.2900   18.7230   26.8880 C.3    36  C36         0.0000
    706  N1        45.5490   18.5560   25.4510 N.ar   36  C36         0.0000
    707  C2        44.5690   18.9650   24.5470 C.ar   36  C36         0.0000
    708  O2        43.5230   19.4620   24.9800 O.2    36  C36         0.0000
    709  N3        44.7820   18.8120   23.2270 N.ar   36  C36         0.0000
    710  C4        45.9220   18.2860   22.8000 C.ar   36  C36         0.0000
    711  N4        46.0820   18.1620   21.4980 N.pl3  36  C36         0.0000
    712  C5        46.9450   17.8670   23.6930 C.ar   36  C36         0.0000
    713  C6        46.7180   18.0170   24.9990 C.ar   36  C36         0.0000
    714  OP1       49.8950   14.6470   28.1970 O.2    36  C36         0.0000
    715  OP2       47.4820   13.7920   28.1820 O.co2  36  C36        -1.0000
    716  P         44.2160   14.5140   29.2110 P.3    37  G37         0.0000
    717  C5'       41.7320   14.0220   28.4190 C.3    37  G37         0.0000
    718  O5'       42.6430   14.4120   29.4500 O.3    37  G37         0.0000
    719  C4'       40.8480   15.1810   28.0540 C.3    37  G37         0.0000
    720  O4'       41.6740   16.1190   27.3260 O.3    37  G37         0.0000
    721  C3'       39.6840   14.8870   27.1190 C.3    37  G37         0.0000
    722  O3'       38.5270   14.5280   27.8680 O.3    37  G37         0.0000
    723  C2'       39.4760   16.2330   26.4460 C.3    37  G37         0.0000
    724  O2'       38.7940   17.1270   27.3100 O.3    37  G37         0.0000
    725  C1'       40.9190   16.7170   26.2900 C.3    37  G37         0.0000
    726  N1        40.9440   17.3040   21.2400 N.ar   37  G37         0.0000
    727  C2        39.9950   17.6760   22.1420 C.ar   37  G37         0.0000
    728  N2        38.9330   18.3060   21.6400 N.pl3  37  G37         0.0000
    729  N3        40.0760   17.4480   23.4410 N.ar   37  G37         0.0000
    730  C4        41.2030   16.8000   23.7630 C.ar   37  G37         0.0000
    731  C5        42.2160   16.3800   22.9300 C.ar   37  G37         0.0000
    732  C6        42.1160   16.6350   21.5520 C.ar   37  G37         0.0000
    733  O6        42.9160   16.3420   20.6590 O.2    37  G37         0.0000
    734  N7        43.2130   15.7420   23.6460 N.ar   37  G37         0.0000
    735  C8        42.7980   15.7860   24.8820 C.ar   37  G37         0.0000
    736  N9        41.5950   16.4340   25.0270 N.ar   37  G37         0.0000
    737  OP1       44.8370   13.9500   30.4330 O.3    37  G37        -0.5000
    738  OP2       44.5700   13.9550   27.8850 O.co2  37  G37        -0.5000
    739  P         37.4800   13.4460   27.2790 P.3    38  A38         0.0000
    740  C5'       35.7870   15.1100   26.1730 C.3    38  A38         0.0000
    741  O5'       36.8460   14.1780   26.0140 O.3    38  A38         0.0000
    742  C4'       35.3950   15.6720   24.8440 C.3    38  A38         0.0000
    743  O4'       36.5730   16.2460   24.2350 O.3    38  A38         0.0000
    744  C3'       34.9190   14.6680   23.8150 C.3    38  A38         0.0000
    745  O3'       33.5310   14.3950   23.9760 O.3    38  A38         0.0000
    746  C2'       35.1730   15.4230   22.5170 C.3    38  A38         0.0000
    747  O2'       34.1990   16.4240   22.2720 O.3    38  A38         0.0000
    748  C1'       36.5020   16.1000   22.8290 C.3    38  A38         0.0000
    749  N1        39.2540   14.5290   18.7860 N.ar   38  A38         0.0000
    750  C2        38.1040   15.2000   18.8760 C.ar   38  A38         0.0000
    751  N3        37.4260   15.5630   19.9600 N.ar   38  A38         0.0000
    752  C4        38.0590   15.1530   21.0750 C.ar   38  A38         0.0000
    753  C5        39.2490   14.4500   21.1370 C.ar   38  A38         0.0000
    754  C6        39.8640   14.1340   19.9210 C.ar   38  A38         0.0000
    755  N6        41.0100   13.4690   19.8300 N.pl3  38  A38         0.0000
    756  N7        39.5980   14.1870   22.4560 N.ar   38  A38         0.0000
    757  C8        38.6290   14.7340   23.1530 C.ar   38  A38         0.0000
    758  N9        37.6720   15.3510   22.3800 N.ar   38  A38         0.0000
    759  OP1       36.4010   13.2550   28.2820 O.2    38  A38         0.0000
    760  OP2       38.2250   12.2500   26.7860 O.co2  38  A38        -1.0000
    761  P         32.9250   12.9820   23.4910 P.3    39  G39         0.0000
    762  C5'       32.7120   13.6010   20.9610 C.3    39  G39         0.0000
    763  O5'       33.3720   12.8530   21.9680 O.3    39  G39         0.0000
    764  C4'       33.2420   13.2160   19.6120 C.3    39  G39         0.0000
    765  O4'       34.6350   13.5970   19.5460 O.3    39  G39         0.0000
    766  C3'       33.2590   11.7240   19.3330 C.3    39  G39         0.0000
    767  O3'       32.0210   11.2890   18.7930 O.3    39  G39         0.0000
    768  C2'       34.3580   11.6170   18.2980 C.3    39  G39         0.0000
    769  O2'       33.9350   12.1000   17.0410 O.3    39  G39         0.0000
    770  C1'       35.3720   12.6010   18.8580 C.3    39  G39         0.0000
    771  N1        40.0270   10.7220   19.4010 N.ar   39  G39         0.0000
    772  C2        39.3790   11.1100   18.2690 C.ar   39  G39         0.0000
    773  N2        40.0680   11.0080   17.1380 N.pl3  39  G39         0.0000
    774  N3        38.1400   11.5620   18.2470 N.ar   39  G39         0.0000
    775  C4        37.5910   11.5760   19.4740 C.ar   39  G39         0.0000
    776  C5        38.1520   11.2010   20.6650 C.ar   39  G39         0.0000
    777  C6        39.4820   10.7380   20.6740 C.ar   39  G39         0.0000
    778  O6        40.1670   10.3740   21.6410 O.2    39  G39         0.0000
    779  N7        37.2540   11.3640   21.7040 N.ar   39  G39         0.0000
    780  C8        36.1810   11.8340   21.1320 C.ar   39  G39         0.0000
    781  N9        36.3310   12.0120   19.7850 N.ar   39  G39         0.0000
    782  OP1       31.4480   13.1350   23.5210 O.2    39  G39        -0.5000
    783  OP2       33.5770   11.8920   24.2870 O.co2  39  G39        -0.5000
    784  P         31.5960    9.7430   18.9180 P.3    40  G40         0.0000
    785  C5'       32.1110    9.3210   16.3860 C.3    40  G40         0.0000
    786  O5'       32.3950    9.0310   17.7450 O.3    40  G40         0.0000
    787  C4'       33.2330    8.8240   15.5290 C.3    40  G40         0.0000
    788  O4'       34.4580    9.4590   15.9910 O.3    40  G40         0.0000
    789  C3'       33.5160    7.3400   15.6740 C.3    40  G40         0.0000
    790  O3'       32.6650    6.5670   14.8160 O.3    40  G40         0.0000
    791  C2'       34.9830    7.2650   15.2730 C.3    40  G40         0.0000
    792  O2'       35.1390    7.3370   13.8700 O.3    40  G40         0.0000
    793  C1'       35.5400    8.5500   15.8960 C.3    40  G40         0.0000
    794  N1        39.7580    7.3920   18.4840 N.ar   40  G40         0.0000
    795  C2        39.5860    7.5500   17.1260 C.ar   40  G40         0.0000
    796  N2        40.6680    7.3500   16.3520 N.pl3  40  G40         0.0000
    797  N3        38.4360    7.8790   16.5650 N.ar   40  G40         0.0000
    798  C4        37.4580    8.0480   17.4840 C.ar   40  G40         0.0000
    799  C5        37.5380    7.9210   18.8570 C.ar   40  G40         0.0000
    800  C6        38.7670    7.5550   19.4380 C.ar   40  G40         0.0000
    801  O6        39.0230    7.3670   20.6180 O.2    40  G40         0.0000
    802  N7        36.3150    8.1900   19.4480 N.ar   40  G40         0.0000
    803  C8        35.5190    8.4570   18.4450 C.ar   40  G40         0.0000
    804  N9        36.1410    8.3720   17.2210 N.ar   40  G40         0.0000
    805  OP1       30.1460    9.7380   18.5990 O.2    40  G40        -0.5000
    806  OP2       32.0810    9.1390   20.2010 O.co2  40  G40        -0.5000
    807  P         31.7570    5.3740   15.4390 P.3    41  G41         0.0000
    808  C5'       33.0170    3.9410   13.6430 C.3    41  G41         0.0000
    809  O5'       32.4340    4.0150   14.9350 O.3    41  G41         0.0000
    810  C4'       33.7140    2.6160   13.4300 C.3    41  G41         0.0000
    811  O4'       34.6590    2.3750   14.5130 O.3    41  G41         0.0000
    812  C3'       32.7240    1.4520   13.4810 C.3    41  G41         0.0000
    813  O3'       32.7810    0.5950   12.3380 O.3    41  G41         0.0000
    814  C2'       32.8430    0.8360   14.8770 C.3    41  G41         0.0000
    815  O2'       32.8600   -0.5770   14.8750 O.3    41  G41         0.0000
    816  C1'       34.2580    1.2460   15.2490 C.3    41  G41         0.0000
    817  N1        38.0970    0.5740   18.4790 N.ar   41  G41         0.0000
    818  C2        38.0690    0.4600   17.1110 C.ar   41  G41         0.0000
    819  N2        39.2220    0.1060   16.5230 N.pl3  41  G41         0.0000
    820  N3        36.9930    0.6800   16.3710 N.ar   41  G41         0.0000
    821  C4        35.9270    1.0420   17.1190 C.ar   41  G41         0.0000
    822  C5        35.8470    1.1900   18.4820 C.ar   41  G41         0.0000
    823  C6        37.0150    0.9390   19.2710 C.ar   41  G41         0.0000
    824  O6        37.1500    1.0080   20.5000 O.2    41  G41         0.0000
    825  N7        34.5670    1.5820   18.8570 N.ar   41  G41         0.0000
    826  C8        33.9070    1.6660   17.7330 C.ar   41  G41         0.0000
    827  N9        34.6680    1.3370   16.6430 N.ar   41  G41         0.0000
    828  OP1       30.3950    5.4790   14.8410 O.2    41  G41        -0.5000
    829  OP2       31.9170    5.3950   16.9200 O.co2  41  G41        -0.5000
    830  P         31.4290    0.0430   11.6730 P.3    42  C42         0.0000
    831  C5'       30.6980   -2.1630   12.9160 C.3    42  C42         0.0000
    832  O5'       31.5080   -1.5310   11.9230 O.3    42  C42         0.0000
    833  C4'       30.3700   -3.5730   12.4980 C.3    42  C42         0.0000
    834  O4'       29.5800   -3.5530   11.2770 O.3    42  C42         0.0000
    835  C3'       31.5840   -4.4110   12.1620 C.3    42  C42         0.0000
    836  O3'       32.0790   -5.0450   13.3220 O.3    42  C42         0.0000
    837  C2'       31.0220   -5.4170   11.1760 C.3    42  C42         0.0000
    838  O2'       30.3210   -6.4560   11.8250 O.3    42  C42         0.0000
    839  C1'       30.0590   -4.5380   10.3760 C.3    42  C42         0.0000
    840  N1        30.6840   -3.8420    9.2250 N.ar   42  C42         0.0000
    841  C2        31.2390   -4.5960    8.1700 C.ar   42  C42         0.0000
    842  O2        31.1930   -5.8360    8.2150 O.2    42  C42         0.0000
    843  N3        31.8100   -3.9480    7.1300 N.ar   42  C42         0.0000
    844  C4        31.8370   -2.6110    7.1070 C.ar   42  C42         0.0000
    845  N4        32.4020   -2.0090    6.0570 N.pl3  42  C42         0.0000
    846  C5        31.2830   -1.8290    8.1580 C.ar   42  C42         0.0000
    847  C6        30.7240   -2.4760    9.1840 C.ar   42  C42         0.0000
    848  OP1       31.4980    0.2920   10.2110 O.2    42  C42        -0.5000
    849  OP2       30.2910    0.5950   12.4500 O.co2  42  C42        -0.5000
    850  P         33.6030   -5.5220   13.3590 P.3    43  A43         0.0000
    851  C5'       33.3940   -8.0740   12.7340 C.3    43  A43         0.0000
    852  O5'       33.6470   -6.7310   12.3210 O.3    43  A43         0.0000
    853  C4'       33.9110   -9.0470   11.7000 C.3    43  A43         0.0000
    854  O4'       33.1950   -8.8300   10.4590 O.3    43  A43         0.0000
    855  C3'       35.3750   -8.8910   11.3190 C.3    43  A43         0.0000
    856  O3'       36.2270   -9.6150   12.1950 O.3    43  A43         0.0000
    857  C2'       35.4130   -9.4890    9.9240 C.3    43  A43         0.0000
    858  O2'       35.4680  -10.9010    9.9450 O.3    43  A43         0.0000
    859  C1'       34.0710   -9.0260    9.3620 C.3    43  A43         0.0000
    860  N1        35.2120   -6.8790    4.8390 N.ar   43  A43         0.0000
    861  C2        35.2650   -8.1450    5.2750 C.ar   43  A43         0.0000
    862  N3        34.9650   -8.6360    6.4740 N.ar   43  A43         0.0000
    863  C4        34.5610   -7.6530    7.3000 C.ar   43  A43         0.0000
    864  C5        34.4570   -6.3060    6.9990 C.ar   43  A43         0.0000
    865  C6        34.8010   -5.9160    5.6960 C.ar   43  A43         0.0000
    866  N6        34.7420   -4.6560    5.2610 N.pl3  43  A43         0.0000
    867  N7        34.0140   -5.5890    8.1020 N.ar   43  A43         0.0000
    868  C8        33.8580   -6.5020    9.0290 C.ar   43  A43         0.0000
    869  N9        34.1610   -7.7750    8.6090 N.ar   43  A43         0.0000
    870  OP1       33.9320   -6.0340   14.7160 O.3    43  A43        -0.5000
    871  OP2       34.3940   -4.4040   12.7840 O.co2  43  A43        -0.5000
    872  P         37.7780   -9.2050   12.3140 P.3    44  G44         0.0000
    873  C5'       38.5140  -10.7360   10.3110 C.3    44  G44         0.0000
    874  O5'       38.3600   -9.4210   10.8420 O.3    44  G44         0.0000
    875  C4'       38.9670  -10.6940    8.8660 C.3    44  G44         0.0000
    876  O4'       37.9790  -10.0190    8.0510 O.3    44  G44         0.0000
    877  C3'       40.2500   -9.9470    8.5540 C.3    44  G44         0.0000
    878  O3'       41.3810  -10.7620    8.8230 O.3    44  G44         0.0000
    879  C2'       40.1210   -9.6980    7.0550 C.3    44  G44         0.0000
    880  O2'       40.5260  -10.7940    6.2650 O.3    44  G44         0.0000
    881  C1'       38.6150   -9.4930    6.9000 C.3    44  G44         0.0000
    882  N1        38.2680   -5.6250    3.6650 N.ar   44  G44         0.0000
    883  C2        38.6880   -6.9080    3.4450 C.ar   44  G44         0.0000
    884  N2        39.0700   -7.1950    2.1980 N.pl3  44  G44         0.0000
    885  N3        38.7330   -7.8390    4.3790 N.ar   44  G44         0.0000
    886  C4        38.3210   -7.3700    5.5770 C.ar   44  G44         0.0000
    887  C5        37.8870   -6.1070    5.9010 C.ar   44  G44         0.0000
    888  C6        37.8390   -5.1220    4.8850 C.ar   44  G44         0.0000
    889  O6        37.4800   -3.9480    4.9710 O.2    44  G44         0.0000
    890  N7        37.5520   -6.0300    7.2470 N.ar   44  G44         0.0000
    891  C8        37.7860   -7.2280    7.7070 C.ar   44  G44         0.0000
    892  N9        38.2520   -8.0900    6.7450 N.ar   44  G44         0.0000
    893  OP1       38.4500  -10.1640   13.2340 O.3    44  G44        -0.5000
    894  OP2       37.8120   -7.7490   12.6190 O.co2  44  G44        -0.5000
    895  P         42.8360  -10.0900    8.9390 P.3    45  G45         0.0000
    896  C5'       43.3700  -10.2080    6.3750 C.3    45  G45         0.0000
    897  O5'       43.0680   -9.4090    7.5150 O.3    45  G45         0.0000
    898  C4'       43.5090   -9.3550    5.1360 C.3    45  G45         0.0000
    899  O4'       42.2420   -8.7230    4.8070 O.3    45  G45         0.0000
    900  C3'       44.4650   -8.1820    5.2080 C.3    45  G45         0.0000
    901  O3'       45.8220   -8.5890    5.1000 O.3    45  G45         0.0000
    902  C2'       44.0110   -7.3500    4.0150 C.3    45  G45         0.0000
    903  O2'       44.4660   -7.8430    2.7730 O.3    45  G45         0.0000
    904  C1'       42.4930   -7.5170    4.0970 C.3    45  G45         0.0000
    905  N1        40.8130   -2.7460    3.7580 N.ar   45  G45         0.0000
    906  C2        41.3740   -3.5430    2.7940 C.ar   45  G45         0.0000
    907  N2        41.5120   -2.9950    1.5830 N.pl3  45  G45         0.0000
    908  N3        41.7700   -4.7860    3.0040 N.ar   45  G45         0.0000
    909  C4        41.5610   -5.1750    4.2790 C.ar   45  G45         0.0000
    910  C5        41.0130   -4.4550    5.3180 C.ar   45  G45         0.0000
    911  C6        40.5870   -3.1230    5.0770 C.ar   45  G45         0.0000
    912  O6        40.0710   -2.3230    5.8650 O.2    45  G45         0.0000
    913  N7        40.9730   -5.2170    6.4790 N.ar   45  G45         0.0000
    914  C8        41.4900   -6.3650    6.1310 C.ar   45  G45         0.0000
    915  N9        41.8700   -6.4060    4.8100 N.ar   45  G45         0.0000
    916  OP1       43.8350  -11.1820    9.0950 O.2    45  G45        -0.5000
    917  OP2       42.7460   -9.0210    9.9730 O.co2  45  G45        -0.5000
    918  P         46.9820   -7.6400    5.6900 P.3    46  G46         0.0000
    919  C5'       47.2670   -6.5520    3.3290 C.3    46  G46         0.0000
    920  O5'       46.9690   -6.3810    4.7100 O.3    46  G46         0.0000
    921  C4'       47.0530   -5.2710    2.5650 C.3    46  G46         0.0000
    922  O4'       45.6460   -4.9200    2.5380 O.3    46  G46         0.0000
    923  C3'       47.7030   -4.0230    3.1210 C.3    46  G46         0.0000
    924  O3'       49.0880   -3.9720    2.8460 O.3    46  G46         0.0000
    925  C2'       46.9380   -2.9370    2.3850 C.3    46  G46         0.0000
    926  O2'       47.3630   -2.7710    1.0460 O.3    46  G46         0.0000
    927  C1'       45.5180   -3.5060    2.4280 C.3    46  G46         0.0000
    928  N1        43.1000    0.4700    4.4310 N.ar   46  G46         0.0000
    929  C2        43.7080    0.3440    3.2080 C.ar   46  G46         0.0000
    930  N2        43.6750    1.4280    2.4130 N.pl3  46  G46         0.0000
    931  N3        44.3040   -0.7580    2.7930 N.ar   46  G46         0.0000
    932  C4        44.2400   -1.7420    3.7130 C.ar   46  G46         0.0000
    933  C5        43.6580   -1.7170    4.9620 C.ar   46  G46         0.0000
    934  C6        43.0260   -0.5290    5.3950 C.ar   46  G46         0.0000
    935  O6        42.4600   -0.3060    6.4680 O.2    46  G46         0.0000
    936  N7        43.8130   -2.9370    5.6050 N.ar   46  G46         0.0000
    937  C8        44.4750   -3.6700    4.7500 C.ar   46  G46         0.0000
    938  N9        44.7720   -3.0040    3.5820 N.ar   46  G46         0.0000
    939  OP1       48.2880   -8.3370    5.5270 O.2    46  G46        -0.5000
    940  OP2       46.5570   -7.1890    7.0430 O.co2  46  G46        -0.5000
    941  P         50.0650   -3.2540    3.8940 P.3    47  U47         0.0000
    942  C5'       49.8560   -1.0510    2.4870 C.3    47  U47         0.0000
    943  O5'       49.7070   -1.7110    3.7400 O.3    47  U47         0.0000
    944  C4'       49.3210    0.3570    2.5730 C.3    47  U47         0.0000
    945  O4'       47.8760    0.3330    2.7460 O.3    47  U47         0.0000
    946  C3'       49.8220    1.1750    3.7490 C.3    47  U47         0.0000
    947  O3'       51.0870    1.7510    3.4640 O.3    47  U47         0.0000
    948  C2'       48.7310    2.2250    3.8780 C.3    47  U47         0.0000
    949  O2'       48.8140    3.2090    2.8660 O.3    47  U47         0.0000
    950  C1'       47.4820    1.3790    3.6290 C.3    47  U47         0.0000
    951  N1        46.9140    0.7810    4.8540 N.ar   47  U47         0.0000
    952  C2        46.2220    1.6080    5.7380 C.ar   47  U47         0.0000
    953  O2        46.0720    2.8130    5.5630 O.2    47  U47         0.0000
    954  N3        45.7130    0.9670    6.8390 N.ar   47  U47         0.0000
    955  C4        45.8200   -0.3730    7.1480 C.ar   47  U47         0.0000
    956  O4        45.2950   -0.8040    8.1760 O.2    47  U47         0.0000
    957  C5        46.5480   -1.1460    6.2010 C.ar   47  U47         0.0000
    958  C6        47.0560   -0.5610    5.1180 C.ar   47  U47         0.0000
    959  OP1       51.4740   -3.4330    3.4630 O.2    47  U47        -0.5000
    960  OP2       49.6440   -3.7140    5.2440 O.co2  47  U47        -0.5000
    961  P         52.0120    2.2740    4.6690 P.3    48  U48         0.0000
    962  C5'       51.0480    4.6360    4.0980 C.3    48  U48         0.0000
    963  O5'       51.3420    3.6590    5.0900 O.3    48  U48         0.0000
    964  C4'       50.6130    5.9470    4.7180 C.3    48  U48         0.0000
    965  O4'       49.3650    5.7490    5.4380 O.3    48  U48         0.0000
    966  C3'       51.6070    6.4790    5.7450 C.3    48  U48         0.0000
    967  O3'       52.1890    7.7470    5.4130 O.3    48  U48         0.0000
    968  C2'       51.0530    6.1050    7.1240 C.3    48  U48         0.0000
    969  O2'       51.1040    7.1340    8.0840 O.3    48  U48         0.0000
    970  C1'       49.5670    5.9150    6.8280 C.3    48  U48         0.0000
    971  N1        48.8650    4.8660    7.5840 N.ar   48  U48         0.0000
    972  C2        47.6650    5.2220    8.1830 C.ar   48  U48         0.0000
    973  O2        47.1670    6.3270    8.0570 O.2    48  U48         0.0000
    974  N3        47.0700    4.2380    8.9310 N.ar   48  U48         0.0000
    975  C4        47.5360    2.9560    9.1370 C.ar   48  U48         0.0000
    976  O4        46.8940    2.1870    9.8600 O.2    48  U48         0.0000
    977  C5        48.7710    2.6550    8.4690 C.ar   48  U48         0.0000
    978  C6        49.3750    3.5950    7.7300 C.ar   48  U48         0.0000
    979  OP1       53.3610    2.5710    4.1230 O.2    48  U48        -0.5000
    980  OP2       51.8690    1.3060    5.7920 O.co2  48  U48        -0.5000
    981  P         53.1390    8.5260    6.4590 P.3    49  U49         0.0000
    982  C5'       51.6810   10.6120    5.9160 C.3    49  U49         0.0000
    983  O5'       52.2170    9.7450    6.9060 O.3    49  U49         0.0000
    984  C4'       50.4190   11.2920    6.4010 C.3    49  U49         0.0000
    985  O4'       49.9260   12.1140    5.3080 O.3    49  U49         0.0000
    986  C3'       49.2610   10.3700    6.7580 C.3    49  U49         0.0000
    987  O3'       48.7990   10.3430    8.1260 O.3    49  U49         0.0000
    988  C2'       48.3580   10.2910    5.5250 C.3    49  U49         0.0000
    989  O2'       46.9800   10.3830    5.8010 O.3    49  U49         0.0000
    990  C1'       48.7580   11.5430    4.7380 C.3    49  U49         0.0000
    991  N1        49.0210   11.2680    3.3140 N.ar   49  U49         0.0000
    992  C2        48.1150   11.7530    2.3840 C.ar   49  U49         0.0000
    993  O2        47.1340   12.4140    2.6900 O.2    49  U49         0.0000
    994  N3        48.4020   11.4370    1.0790 N.ar   49  U49         0.0000
    995  C4        49.4750   10.7080    0.6180 C.ar   49  U49         0.0000
    996  O4        49.5800   10.4880   -0.5850 O.2    49  U49         0.0000
    997  C5        50.3710   10.2520    1.6320 C.ar   49  U49         0.0000
    998  C6        50.1220   10.5390    2.9120 C.ar   49  U49         0.0000
    999  OP1       54.2530    9.1050    5.6680 O.2    49  U49        -0.5000
   1000  OP2       53.4560    7.6800    7.6410 O.co2  49  U49        -0.5000
   1001  P         47.7740   11.4720    8.6710 P.3    50  A50         0.0000
   1002  C5'       45.2900   11.4200    7.7820 C.3    50  A50         0.0000
   1003  O5'       46.3230   10.8110    8.5660 O.3    50  A50         0.0000
   1004  C4'       43.9670   11.4150    8.5230 C.3    50  A50         0.0000
   1005  O4'       43.4980   10.0570    8.7140 O.3    50  A50         0.0000
   1006  C3'       44.1170   12.0090    9.9150 C.3    50  A50         0.0000
   1007  O3'       43.0680   12.9150   10.2230 O.3    50  A50         0.0000
   1008  C2'       44.2580   10.8230   10.8630 C.3    50  A50         0.0000
   1009  O2'       43.5550   11.0300   12.0640 O.3    50  A50         0.0000
   1010  C1'       43.5370    9.7220   10.0830 C.3    50  A50         0.0000
   1011  N1        42.6010    5.1690   12.2380 N.ar   50  A50         0.0000
   1012  C2        41.9290    6.3240   12.2530 C.ar   50  A50         0.0000
   1013  N3        42.2250    7.4740   11.6590 N.ar   50  A50         0.0000
   1014  C4        43.3740    7.3710   10.9710 C.ar   50  A50         0.0000
   1015  C5        44.1690    6.2490   10.8560 C.ar   50  A50         0.0000
   1016  C6        43.7510    5.1000   11.5280 C.ar   50  A50         0.0000
   1017  N6        44.4310    3.9480   11.4980 N.pl3  50  A50         0.0000
   1018  N7        45.2750    6.5090   10.0650 N.ar   50  A50         0.0000
   1019  C8        45.1310    7.7690    9.7280 C.ar   50  A50         0.0000
   1020  N9        44.0060    8.3510   10.2440 N.ar   50  A50         0.0000
   1021  OP1       47.8320   12.6620    7.7830 O.2    50  A50        -0.5000
   1022  OP2       48.0790   11.6280   10.1100 O.co2  50  A50        -0.5000
   1023  P         43.3680   14.4740   10.3950 P.3    51  U51         0.0000
   1024  C5'       40.8270   14.9760    9.9560 C.3    51  U51         0.0000
   1025  O5'       41.9520   15.0520   10.8220 O.3    51  U51         0.0000
   1026  C4'       39.5740   15.3170   10.7240 C.3    51  U51         0.0000
   1027  O4'       39.2300   14.2180   11.6040 O.3    51  U51         0.0000
   1028  C3'       39.7040   16.5040   11.6660 C.3    51  U51         0.0000
   1029  O3'       39.5170   17.7360   11.0010 O.3    51  U51         0.0000
   1030  C2'       38.5870   16.2460   12.6560 C.3    51  U51         0.0000
   1031  O2'       37.3200   16.6190   12.1670 O.3    51  U51         0.0000
   1032  C1'       38.6720   14.7290   12.8040 C.3    51  U51         0.0000
   1033  N1        39.5290   14.3490   13.9370 N.ar   51  U51         0.0000
   1034  C2        39.0410   14.5980   15.2090 C.ar   51  U51         0.0000
   1035  O2        37.9330   15.0850   15.4060 O.2    51  U51         0.0000
   1036  N3        39.8900   14.2600   16.2340 N.ar   51  U51         0.0000
   1037  C4        41.1470   13.7100   16.1190 C.ar   51  U51         0.0000
   1038  O4        41.7960   13.4620   17.1330 O.2    51  U51         0.0000
   1039  C5        41.5710   13.4710   14.7780 C.ar   51  U51         0.0000
   1040  C6        40.7680   13.7860   13.7590 C.ar   51  U51         0.0000
   1041  OP1       43.7070   15.0700    9.0760 O.2    51  U51        -0.5000
   1042  OP2       44.3060   14.6280   11.5420 O.co2  51  U51        -0.5000
   1043  P         40.1910   19.0590   11.5920 P.3    52  C52         0.0000
   1044  C5'       38.0570   19.6930   12.9710 C.3    52  C52         0.0000
   1045  O5'       39.4300   19.3080   12.9710 O.3    52  C52         0.0000
   1046  C4'       37.5680   19.9390   14.3760 C.3    52  C52         0.0000
   1047  O4'       37.5850   18.6970   15.1170 O.3    52  C52         0.0000
   1048  C3'       38.4120   20.8690   15.2220 C.3    52  C52         0.0000
   1049  O3'       38.1240   22.2170   14.9350 O.3    52  C52         0.0000
   1050  C2'       37.9920   20.4810   16.6290 C.3    52  C52         0.0000
   1051  O2'       36.7550   21.0420   17.0250 O.3    52  C52         0.0000
   1052  C1'       37.8790   18.9620   16.4810 C.3    52  C52         0.0000
   1053  N1        39.1460   18.3000   16.8250 N.ar   52  C52         0.0000
   1054  C2        39.4670   18.1320   18.1750 C.ar   52  C52         0.0000
   1055  O2        38.6550   18.5070   19.0320 O.2    52  C52         0.0000
   1056  N3        40.6490   17.5690   18.5100 N.ar   52  C52         0.0000
   1057  C4        41.4870   17.1720   17.5540 C.ar   52  C52         0.0000
   1058  N4        42.6540   16.6270   17.9240 N.pl3  52  C52         0.0000
   1059  C5        41.1710   17.3140   16.1710 C.ar   52  C52         0.0000
   1060  C6        40.0040   17.8770   15.8550 C.ar   52  C52         0.0000
   1061  OP1       39.8500   20.1850   10.6930 O.2    52  C52        -0.5000
   1062  OP2       41.6080   18.7530   11.8860 O.co2  52  C52        -0.5000
   1063  P         39.3020   23.1760   14.4440 P.3    53  G53         0.0000
   1064  C5'       38.8380   24.8000   16.4360 C.3    53  G53         0.0000
   1065  O5'       39.7560   23.9710   15.7420 O.3    53  G53         0.0000
   1066  C4'       38.7250   24.3650   17.8750 C.3    53  G53         0.0000
   1067  O4'       38.8820   22.9180   17.9410 O.3    53  G53         0.0000
   1068  C3'       39.7940   24.8260   18.8430 C.3    53  G53         0.0000
   1069  O3'       39.5700   26.1760   19.2370 O.3    53  G53         0.0000
   1070  C2'       39.5470   23.8620   19.9920 C.3    53  G53         0.0000
   1071  O2'       38.3180   24.1440   20.6380 O.3    53  G53         0.0000
   1072  C1'       39.3470   22.5550   19.2310 C.3    53  G53         0.0000
   1073  N1        42.9640   19.9740   21.6890 N.ar   53  G53         0.0000
   1074  C2        41.9340   20.7150   22.2030 C.ar   53  G53         0.0000
   1075  N2        41.8550   20.7740   23.5380 N.pl3  53  G53         0.0000
   1076  N3        41.0470   21.3560   21.4570 N.ar   53  G53         0.0000
   1077  C4        41.2850   21.1910   20.1370 C.ar   53  G53         0.0000
   1078  C5        42.2880   20.4710   19.5320 C.ar   53  G53         0.0000
   1079  C6        43.2200   19.7950   20.3370 C.ar   53  G53         0.0000
   1080  O6        44.1740   19.1110   19.9810 O.2    53  G53         0.0000
   1081  N7        42.1930   20.5530   18.1530 N.ar   53  G53         0.0000
   1082  C8        41.1480   21.3100   17.9440 C.ar   53  G53         0.0000
   1083  N9        40.5450   21.7270   19.1030 N.ar   53  G53         0.0000
   1084  OP1       38.6880   24.1230   13.4880 O.2    53  G53        -0.5000
   1085  OP2       40.4430   22.3230   14.0230 O.co2  53  G53        -0.5000
   1086  P         40.8060   27.0840   19.7440 P.3    54  A54         0.0000
   1087  C5'       40.4050   26.6120   22.2760 C.3    54  A54         0.0000
   1088  O5'       41.2180   26.4350   21.1330 O.3    54  A54         0.0000
   1089  C4'       41.1400   26.1570   23.5040 C.3    54  A54         0.0000
   1090  O4'       41.3510   24.7250   23.4580 O.3    54  A54         0.0000
   1091  C3'       42.5310   26.7290   23.6580 C.3    54  A54         0.0000
   1092  O3'       42.4070   28.0030   24.2520 O.3    54  A54         0.0000
   1093  C2'       43.1800   25.7240   24.5950 C.3    54  A54         0.0000
   1094  O2'       42.8020   25.9230   25.9350 O.3    54  A54         0.0000
   1095  C1'       42.5700   24.4110   24.1040 C.3    54  A54         0.0000
   1096  N1        46.6980   21.4570   23.5650 N.ar   54  A54         0.0000
   1097  C2        46.0870   21.9580   24.6330 C.ar   54  A54         0.0000
   1098  N3        45.0070   22.7170   24.6980 N.ar   54  A54         0.0000
   1099  C4        44.5270   22.9600   23.4760 C.ar   54  A54         0.0000
   1100  C5        45.0400   22.5130   22.2880 C.ar   54  A54         0.0000
   1101  C6        46.1910   21.7250   22.3530 C.ar   54  A54         0.0000
   1102  N6        46.8150   21.2280   21.2880 N.pl3  54  A54         0.0000
   1103  N7        44.2700   22.9570   21.2260 N.ar   54  A54         0.0000
   1104  C8        43.3270   23.6630   21.7940 C.ar   54  A54         0.0000
   1105  N9        43.4260   23.7100   23.1540 N.ar   54  A54         0.0000
   1106  OP1       40.2930   28.4460   20.0340 O.3    54  A54        -0.5000
   1107  OP2       41.9500   26.9010   18.8020 O.co2  54  A54        -0.5000
   1108  P         43.5770   29.0850   24.0910 P.3    55  G55         0.0000
   1109  C5'       45.4960   29.7460   25.7540 C.3    55  G55         0.0000
   1110  O5'       44.3030   29.0140   25.5100 O.3    55  G55         0.0000
   1111  C4'       45.6810   29.9560   27.2350 C.3    55  G55         0.0000
   1112  O4'       44.5290   30.6040   27.7630 O.3    55  G55         0.0000
   1113  C3'       45.8950   28.6840   28.0350 C.3    55  G55         0.0000
   1114  O3'       47.2290   28.7260   28.5760 O.3    55  G55         0.0000
   1115  C2'       44.9790   28.8160   29.2640 C.3    55  G55         0.0000
   1116  O2'       45.6800   28.7360   30.4900 O.3    55  G55         0.0000
   1117  C1'       44.3740   30.2120   29.0880 C.3    55  G55         0.0000
   1118  N1        39.4080   29.4540   28.3240 N.ar   55  G55         0.0000
   1119  C2        40.4660   28.7440   27.8270 C.ar   55  G55         0.0000
   1120  N2        40.1620   27.7500   26.9720 N.pl3  55  G55         0.0000
   1121  N3        41.7250   28.9840   28.1360 N.ar   55  G55         0.0000
   1122  C4        41.8420   30.0100   29.0020 C.ar   55  G55         0.0000
   1123  C5        40.8480   30.7750   29.5590 C.ar   55  G55         0.0000
   1124  C6        39.5040   30.5100   29.2140 C.ar   55  G55         0.0000
   1125  O6        38.4790   31.0840   29.6030 O.2    55  G55         0.0000
   1126  N7        41.3830   31.7240   30.4200 N.ar   55  G55         0.0000
   1127  C8        42.6680   31.5330   30.3540 C.ar   55  G55         0.0000
   1128  N9        43.0160   30.5400   29.4820 N.ar   55  G55         0.0000
   1129  OP1       42.9230   30.4070   23.9630 O.3    55  G55        -0.5000
   1130  OP2       44.5280   28.6340   23.0370 O.co2  55  G55        -0.5000
   1131  P         48.5380   28.8160   27.6310 P.3    56  A56         0.0000
   1132  C5'       49.3680   26.5650   28.6650 C.3    56  A56         0.0000
   1133  O5'       48.9410   27.2860   27.5230 O.3    56  A56         0.0000
   1134  C4'       50.0140   25.2940   28.2180 C.3    56  A56         0.0000
   1135  O4'       48.9890   24.4080   27.7030 O.3    56  A56         0.0000
   1136  C3'       50.9750   25.5370   27.0660 C.3    56  A56         0.0000
   1137  O3'       52.2820   25.7640   27.5840 O.3    56  A56         0.0000
   1138  C2'       50.8440   24.2600   26.2520 C.3    56  A56         0.0000
   1139  O2'       51.5910   23.2100   26.8210 O.3    56  A56         0.0000
   1140  C1'       49.3560   23.9510   26.4210 C.3    56  A56         0.0000
   1141  N1        47.9720   24.5420   21.4900 N.ar   56  A56         0.0000
   1142  C2        48.9660   23.8560   22.0560 C.ar   56  A56         0.0000
   1143  N3        49.3010   23.7560   23.3440 N.ar   56  A56         0.0000
   1144  C4        48.4620   24.4760   24.1010 C.ar   56  A56         0.0000
   1145  C5        47.3960   25.2350   23.6560 C.ar   56  A56         0.0000
   1146  C6        47.1580   25.2580   22.2830 C.ar   56  A56         0.0000
   1147  N6        46.1740   25.9540   21.7260 N.pl3  56  A56         0.0000
   1148  N7        46.7510   25.8440   24.7190 N.ar   56  A56         0.0000
   1149  C8        47.4240   25.4400   25.7660 C.ar   56  A56         0.0000
   1150  N9        48.4640   24.5990   25.4660 N.ar   56  A56         0.0000
   1151  OP1       49.6020   29.4930   28.4250 O.3    56  A56        -0.5000
   1152  OP2       48.2420   29.3180   26.2580 O.co2  56  A56        -0.5000
   1153  P         53.1870   26.9560   26.9930 P.3    57  C57         0.0000
   1154  C5'       53.7270   25.1620   25.1820 C.3    57  C57         0.0000
   1155  O5'       53.4280   26.5200   25.4810 O.3    57  C57         0.0000
   1156  C4'       54.2860   25.0230   23.7880 C.3    57  C57         0.0000
   1157  O4'       53.2200   25.0360   22.8080 O.3    57  C57         0.0000
   1158  C3'       55.2050   26.1430   23.3800 C.3    57  C57         0.0000
   1159  O3'       56.6130   25.8850   23.3640 O.3    57  C57         0.0000
   1160  C2'       54.3860   27.1140   22.5260 C.3    57  C57         0.0000
   1161  O2'       55.0380   27.5450   21.3600 O.3    57  C57         0.0000
   1162  C1'       53.2310   26.2340   22.0560 C.3    57  C57         0.0000
   1163  N1        51.8800   26.8250   22.1290 N.ar   57  C57         0.0000
   1164  C2        51.1050   26.9020   20.9600 C.ar   57  C57         0.0000
   1165  O2        51.5700   26.4620   19.8940 O.2    57  C57         0.0000
   1166  N3        49.8640   27.4430   21.0230 N.ar   57  C57         0.0000
   1167  C4        49.3870   27.8860   22.1890 C.ar   57  C57         0.0000
   1168  N4        48.1550   28.4150   22.2120 N.pl3  57  C57         0.0000
   1169  C5        50.1490   27.8130   23.3900 C.ar   57  C57         0.0000
   1170  C6        51.3790   27.2850   23.3150 C.ar   57  C57         0.0000
   1171  OP1       54.4710   26.8480   27.7360 O.3    57  C57        -0.5000
   1172  OP2       52.4360   28.2510   27.0050 O.co2  57  C57        -0.5000
   1173  P         57.2710   25.0560   22.1520 P.3    58  A58         0.0000
   1174  C5'       56.4240   22.6000   21.8700 C.3    58  A58         0.0000
   1175  O5'       57.2190   23.5280   22.5970 O.3    58  A58         0.0000
   1176  C4'       57.1380   21.2800   21.7180 C.3    58  A58         0.0000
   1177  O4'       58.4970   21.5150   21.2950 O.3    58  A58         0.0000
   1178  C3'       57.2350   20.5180   23.0320 C.3    58  A58         0.0000
   1179  O3'       56.9830   19.1370   22.7580 O.3    58  A58         0.0000
   1180  C2'       58.6160   20.8410   23.5910 C.3    58  A58         0.0000
   1181  O2'       59.2600   19.7310   24.1560 O.3    58  A58         0.0000
   1182  C1'       59.3830   21.1350   22.3140 C.3    58  A58         0.0000
   1183  N1        64.2880   21.5920   21.0410 N.ar   58  A58         0.0000
   1184  C2        63.4150   20.5800   20.9280 C.ar   58  A58         0.0000
   1185  N3        62.1450   20.5320   21.2950 N.ar   58  A58         0.0000
   1186  C4        61.7700   21.7010   21.8480 C.ar   58  A58         0.0000
   1187  C5        62.5520   22.8230   22.0340 C.ar   58  A58         0.0000
   1188  C6        63.8700   22.7530   21.6040 C.ar   58  A58         0.0000
   1189  N6        64.7280   23.7730   21.7210 N.pl3  58  A58         0.0000
   1190  N7        61.8280   23.8390   22.6430 N.ar   58  A58         0.0000
   1191  C8        60.6350   23.3170   22.8040 C.ar   58  A58         0.0000
   1192  N9        60.5300   22.0300   22.3390 N.ar   58  A58         0.0000
   1193  OP1       58.6930   25.4680   22.0930 O.3    58  A58        -0.5000
   1194  OP2       56.4010   25.2270   20.9560 O.co2  58  A58        -0.5000
   1195  P         56.3640   18.1670   23.8710 P.3    59  U59         0.0000
   1196  C5'       54.6780   16.9310   22.2500 C.3    59  U59         0.0000
   1197  O5'       54.8990   17.8860   23.2950 O.3    59  U59         0.0000
   1198  C4'       53.7200   17.4720   21.1930 C.3    59  U59         0.0000
   1199  O4'       52.3780   17.6210   21.7310 O.3    59  U59         0.0000
   1200  C3'       54.1490   18.8670   20.7470 C.3    59  U59         0.0000
   1201  O3'       54.0760   19.0590   19.3400 O.3    59  U59         0.0000
   1202  C2'       53.2700   19.8370   21.5190 C.3    59  U59         0.0000
   1203  O2'       52.8740   20.9260   20.7330 O.3    59  U59         0.0000
   1204  C1'       52.0270   18.9860   21.7540 C.3    59  U59         0.0000
   1205  N1        51.1600   19.3100   22.8990 N.ar   59  U59         0.0000
   1206  C2        49.9250   19.8770   22.6070 C.ar   59  U59         0.0000
   1207  O2        49.5250   20.0520   21.4680 O.2    59  U59         0.0000
   1208  N3        49.1800   20.2360   23.6980 N.ar   59  U59         0.0000
   1209  C4        49.5250   20.0890   25.0200 C.ar   59  U59         0.0000
   1210  O4        48.7540   20.4850   25.8900 O.2    59  U59         0.0000
   1211  C5        50.7980   19.4740   25.2450 C.ar   59  U59         0.0000
   1212  C6        51.5500   19.1060   24.2030 C.ar   59  U59         0.0000
   1213  OP1       56.2350   18.8920   25.1590 O.3    59  U59        -0.5000
   1214  OP2       57.1740   16.9190   23.8240 O.co2  59  U59        -0.5000
   1215  P         55.0860   18.2940   18.3630 P.3    60  C60         0.0000
   1216  C5'       56.7400   20.2930   17.9310 C.3    60  C60         0.0000
   1217  O5'       56.4610   19.0620   18.5840 O.3    60  C60         0.0000
   1218  C4'       58.1780   20.3120   17.4790 C.3    60  C60         0.0000
   1219  O4'       59.0550   20.3380   18.6370 O.3    60  C60         0.0000
   1220  C3'       58.5930   19.0640   16.7160 C.3    60  C60         0.0000
   1221  O3'       58.2760   19.1780   15.3350 O.3    60  C60         0.0000
   1222  C2'       60.0920   19.0220   16.9530 C.3    60  C60         0.0000
   1223  O2'       60.7840   19.9000   16.0910 O.3    60  C60         0.0000
   1224  C1'       60.1780   19.5030   18.4040 C.3    60  C60         0.0000
   1225  N1        60.1460   18.3950   19.3790 N.ar   60  C60         0.0000
   1226  C2        61.2890   17.5940   19.5440 C.ar   60  C60         0.0000
   1227  O2        62.3040   17.8390   18.8760 O.2    60  C60         0.0000
   1228  N3        61.2560   16.5720   20.4250 N.ar   60  C60         0.0000
   1229  C4        60.1530   16.3340   21.1270 C.ar   60  C60         0.0000
   1230  N4        60.1680   15.3190   21.9770 N.pl3  60  C60         0.0000
   1231  C5        58.9840   17.1280   20.9870 C.ar   60  C60         0.0000
   1232  C6        59.0230   18.1390   20.1110 C.ar   60  C60         0.0000
   1233  OP1       54.6080   18.5240   16.9730 O.2    60  C60        -0.5000
   1234  OP2       55.2410   16.9020   18.8650 O.co2  60  C60        -0.5000
   1235  P         57.9400   17.8560   14.4820 P.3    61  G61         0.0000
   1236  C5'       60.4190   17.0640   14.1940 C.3    61  G61         0.0000
   1237  O5'       59.1480   16.8640   14.8110 O.3    61  G61         0.0000
   1238  C4'       61.3470   15.9040   14.4630 C.3    61  G61         0.0000
   1239  O4'       61.7780   15.9320   15.8460 O.3    61  G61         0.0000
   1240  C3'       60.8000   14.5040   14.2430 C.3    61  G61         0.0000
   1241  O3'       60.8970   14.1340   12.8650 O.3    61  G61         0.0000
   1242  C2'       61.7240   13.6730   15.1250 C.3    61  G61         0.0000
   1243  O2'       62.9660   13.4240   14.5010 O.3    61  G61         0.0000
   1244  C1'       61.9340   14.6070   16.3230 C.3    61  G61         0.0000
   1245  N1        60.4930   11.6620   20.2080 N.ar   61  G61         0.0000
   1246  C2        61.5610   11.5240   19.3590 C.ar   61  G61         0.0000
   1247  N2        62.3280   10.4530   19.5570 N.pl3  61  G61         0.0000
   1248  N3        61.8510   12.3710   18.3860 N.ar   61  G61         0.0000
   1249  C4        60.9640   13.3810   18.3180 C.ar   61  G61         0.0000
   1250  C5        59.8620   13.6110   19.1140 C.ar   61  G61         0.0000
   1251  C6        59.5660   12.6980   20.1600 C.ar   61  G61         0.0000
   1252  O6        58.6310   12.7290   20.9720 O.2    61  G61         0.0000
   1253  N7        59.1990   14.7620   18.7150 N.ar   61  G61         0.0000
   1254  C8        59.8920   15.1990   17.7020 C.ar   61  G61         0.0000
   1255  N9        60.9740   14.4050   17.4040 N.ar   61  G61         0.0000
   1256  OP1       58.0150   18.2770   13.0520 O.2    61  G61        -0.5000
   1257  OP2       56.6810   17.2600   15.0020 O.co2  61  G61        -0.5000
   1258  P         60.0790   12.8570   12.3060 P.3    62  G62         0.0000
   1259  C5'       62.0250   11.2050   12.9080 C.3    62  G62         0.0000
   1260  O5'       60.6830   11.6250   13.1180 O.3    62  G62         0.0000
   1261  C4'       62.2940    9.9120   13.6390 C.3    62  G62         0.0000
   1262  O4'       62.3360   10.1390   15.0720 O.3    62  G62         0.0000
   1263  C3'       61.2380    8.8410   13.4590 C.3    62  G62         0.0000
   1264  O3'       61.4230    8.1530   12.2330 O.3    62  G62         0.0000
   1265  C2'       61.4490    7.9630   14.6870 C.3    62  G62         0.0000
   1266  O2'       62.5120    7.0430   14.5540 O.3    62  G62         0.0000
   1267  C1'       61.8030    9.0100   15.7480 C.3    62  G62         0.0000
   1268  N1        59.0320    8.2740   19.9370 N.ar   62  G62         0.0000
   1269  C2        60.1380    7.5970   19.5010 C.ar   62  G62         0.0000
   1270  N2        60.5590    6.5910   20.2810 N.pl3  62  G62         0.0000
   1271  N3        60.7830    7.8820   18.3840 N.ar   62  G62         0.0000
   1272  C4        60.2180    8.9140   17.7250 C.ar   62  G62         0.0000
   1273  C5        59.1140    9.6540   18.0770 C.ar   62  G62         0.0000
   1274  C6        58.4380    9.3420   19.2810 C.ar   62  G62         0.0000
   1275  O6        57.4460    9.8880   19.7720 O.2    62  G62         0.0000
   1276  N7        58.8540   10.6320   17.1280 N.ar   62  G62         0.0000
   1277  C8        59.7880   10.4730   16.2340 C.ar   62  G62         0.0000
   1278  N9        60.6510    9.4480   16.5330 N.ar   62  G62         0.0000
   1279  OP1       60.4370   12.7020   10.8750 O.2    62  G62        -0.5000
   1280  OP2       58.6530   12.9780   12.6830 O.co2  62  G62        -0.5000
   1281  P         60.1670    7.4500   11.5270 P.3    63  C63         0.0000
   1282  C5'       60.8810    5.1980   12.6790 C.3    63  C63         0.0000
   1283  O5'       59.8820    6.1960   12.4780 O.3    63  C63         0.0000
   1284  C4'       60.5320    4.3070   13.8470 C.3    63  C63         0.0000
   1285  O4'       60.5820    5.0570   15.0910 O.3    63  C63         0.0000
   1286  C3'       59.1360    3.7190   13.8760 C.3    63  C63         0.0000
   1287  O3'       58.9750    2.6320   12.9860 O.3    63  C63         0.0000
   1288  C2'       59.0210    3.2850   15.3310 C.3    63  C63         0.0000
   1289  O2'       59.6930    2.0850   15.6470 O.3    63  C63         0.0000
   1290  C1'       59.6960    4.4600   16.0370 C.3    63  C63         0.0000
   1291  N1        58.6630    5.4340   16.4450 N.ar   63  C63         0.0000
   1292  C2        57.9880    5.2250   17.6570 C.ar   63  C63         0.0000
   1293  O2        58.3280    4.2760   18.3820 O.2    63  C63         0.0000
   1294  N3        56.9850    6.0600   18.0040 N.ar   63  C63         0.0000
   1295  C4        56.6530    7.0750   17.2020 C.ar   63  C63         0.0000
   1296  N4        55.6430    7.8600   17.5720 N.pl3  63  C63         0.0000
   1297  C5        57.3390    7.3280   15.9820 C.ar   63  C63         0.0000
   1298  C6        58.3330    6.4950   15.6470 C.ar   63  C63         0.0000
   1299  OP1       60.5880    6.9750   10.1830 O.2    63  C63        -0.5000
   1300  OP2       59.0200    8.3920   11.6320 O.co2  63  C63        -0.5000
   1301  P         57.5510    2.3980   12.2740 P.3    64  G64         0.0000
   1302  C5'       56.7960    0.5600   13.9860 C.3    64  G64         0.0000
   1303  O5'       56.6020    1.8600   13.4410 O.3    64  G64         0.0000
   1304  C4'       55.9260    0.3460   15.2040 C.3    64  G64         0.0000
   1305  O4'       56.1810    1.3940   16.1820 O.3    64  G64         0.0000
   1306  C3'       54.4250    0.4280   15.0110 C.3    64  G64         0.0000
   1307  O3'       53.8680   -0.7480   14.4660 O.3    64  G64         0.0000
   1308  C2'       53.9530    0.6430   16.4390 C.3    64  G64         0.0000
   1309  O2'       53.9980   -0.5190   17.2420 O.3    64  G64         0.0000
   1310  C1'       54.9880    1.6550   16.9210 C.3    64  G64         0.0000
   1311  N1        51.7660    5.3490   18.2310 N.ar   64  G64         0.0000
   1312  C2        51.9730    4.1250   18.8100 C.ar   64  G64         0.0000
   1313  N2        51.2170    3.8370   19.8730 N.pl3  64  G64         0.0000
   1314  N3        52.8570    3.2460   18.3800 N.ar   64  G64         0.0000
   1315  C4        53.5360    3.6960   17.3040 C.ar   64  G64         0.0000
   1316  C5        53.4070    4.9000   16.6480 C.ar   64  G64         0.0000
   1317  C6        52.4510    5.8360   17.1240 C.ar   64  G64         0.0000
   1318  O6        52.1910    6.9610   16.6850 O.2    64  G64         0.0000
   1319  N7        54.2950    4.9790   15.5810 N.ar   64  G64         0.0000
   1320  C8        54.9370    3.8420   15.6060 C.ar   64  G64         0.0000
   1321  N9        54.5210    3.0100   16.6220 N.ar   64  G64         0.0000
   1322  OP1       57.7300    1.2970   11.2900 O.2    64  G64        -0.5000
   1323  OP2       57.0560    3.7260   11.8160 O.co2  64  G64        -0.5000
   1324  P         52.4830   -0.6550   13.6580 P.3    65  G65         0.0000
   1325  C5'       50.9890   -1.0230   15.7860 C.3    65  G65         0.0000
   1326  O5'       51.4170   -0.1630   14.7350 O.3    65  G65         0.0000
   1327  C4'       49.9000   -0.3620   16.6030 C.3    65  G65         0.0000
   1328  O4'       50.3790    0.9120   17.1080 O.3    65  G65         0.0000
   1329  C3'       48.6080    0.0030   15.8880 C.3    65  G65         0.0000
   1330  O3'       47.7580   -1.1330   15.8280 O.3    65  G65         0.0000
   1331  C2'       48.0240    1.0450   16.8330 C.3    65  G65         0.0000
   1332  O2'       47.4300    0.4530   17.9660 O.3    65  G65         0.0000
   1333  C1'       49.2800    1.7920   17.2840 C.3    65  G65         0.0000
   1334  N1        47.8400    6.6020   16.6100 N.ar   65  G65         0.0000
   1335  C2        47.4020    5.6760   17.5260 C.ar   65  G65         0.0000
   1336  N2        46.4410    6.0770   18.3670 N.pl3  65  G65         0.0000
   1337  N3        47.8730    4.4450   17.6120 N.ar   65  G65         0.0000
   1338  C4        48.8410    4.2080   16.7010 C.ar   65  G65         0.0000
   1339  C5        49.3530    5.0590   15.7520 C.ar   65  G65         0.0000
   1340  C6        48.8310    6.3780   15.6620 C.ar   65  G65         0.0000
   1341  O6        49.1460    7.2760   14.8820 O.2    65  G65         0.0000
   1342  N7        50.3450    4.4310   15.0120 N.ar   65  G65         0.0000
   1343  C8        50.4100    3.2290   15.5120 C.ar   65  G65         0.0000
   1344  N9        49.5140    3.0220   16.5310 N.ar   65  G65         0.0000
   1345  OP1       52.1080   -2.0310   13.2240 O.3    65  G65        -0.5000
   1346  OP2       52.6170    0.4310   12.6470 O.co2  65  G65        -0.5000
   1347  P         46.4820   -1.1340   14.8550 P.3    66  G66         0.0000
   1348  C5'       44.6960    0.1520   16.2870 C.3    66  G66         0.0000
   1349  O5'       45.6620    0.1730   15.2420 O.3    66  G66         0.0000
   1350  C4'       44.0740    1.5180   16.4480 C.3    66  G66         0.0000
   1351  O4'       45.1200    2.4870   16.7380 O.3    66  G66         0.0000
   1352  C3'       43.3870    2.0730   15.2120 C.3    66  G66         0.0000
   1353  O3'       42.0570    1.6040   15.1160 O.3    66  G66         0.0000
   1354  C2'       43.4400    3.5670   15.4730 C.3    66  G66         0.0000
   1355  O2'       42.4770    3.9980   16.4180 O.3    66  G66         0.0000
   1356  C1'       44.8490    3.6990   16.0530 C.3    66  G66         0.0000
   1357  N1        46.8370    6.8290   12.5960 N.ar   66  G66         0.0000
   1358  C2        45.8320    7.0530   13.4960 C.ar   66  G66         0.0000
   1359  N2        45.2810    8.2690   13.4690 N.pl3  66  G66         0.0000
   1360  N3        45.3980    6.1530   14.3560 N.ar   66  G66         0.0000
   1361  C4        46.0660    4.9850   14.2470 C.ar   66  G66         0.0000
   1362  C5        47.0830    4.6580   13.3840 C.ar   66  G66         0.0000
   1363  C6        47.5360    5.6380   12.4600 C.ar   66  G66         0.0000
   1364  O6        48.4240    5.5440   11.6080 O.2    66  G66         0.0000
   1365  N7        47.5050    3.3520   13.5930 N.ar   66  G66         0.0000
   1366  C8        46.7490    2.9190   14.5610 C.ar   66  G66         0.0000
   1367  N9        45.8500    3.8580   15.0020 N.ar   66  G66         0.0000
   1368  OP1       45.6620   -2.3180   15.2190 O.3    66  G66        -0.5000
   1369  OP2       46.9500   -0.9590   13.4630 O.co2  66  G66        -0.5000
   1370  P         41.4780    1.1440   13.6920 P.3    67  U67         0.0000
   1371  C5'       39.2240    2.0820   12.7370 C.3    67  U67         0.0000
   1372  O5'       40.5120    2.3410   13.2800 O.3    67  U67         0.0000
   1373  C4'       38.1860    2.9690   13.3850 C.3    67  U67         0.0000
   1374  O4'       38.1860    2.7600   14.8080 O.3    67  U67         0.0000
   1375  C3'       38.4060    4.4680   13.2740 C.3    67  U67         0.0000
   1376  O3'       37.8630    5.0480   12.0810 O.3    67  U67         0.0000
   1377  C2'       37.5970    5.0310   14.4480 C.3    67  U67         0.0000
   1378  O2'       36.2730    5.3030   14.0860 O.3    67  U67         0.0000
   1379  C1'       37.5230    3.8480   15.4020 C.3    67  U67         0.0000
   1380  N1        37.9740    4.0360   16.7840 N.ar   67  U67         0.0000
   1381  C2        37.0130    4.4250   17.7130 C.ar   67  U67         0.0000
   1382  O2        35.8560    4.6980   17.4100 O.2    67  U67         0.0000
   1383  N3        37.4560    4.4770   19.0070 N.ar   67  U67         0.0000
   1384  C4        38.7310    4.2020   19.4600 C.ar   67  U67         0.0000
   1385  O4        38.9700    4.2640   20.6690 O.2    67  U67         0.0000
   1386  C5        39.6710    3.8520   18.4340 C.ar   67  U67         0.0000
   1387  C6        39.2720    3.7920   17.1620 C.ar   67  U67         0.0000
   1388  OP1       40.6500   -0.0700   13.9090 O.3    67  U67        -0.5000
   1389  OP2       42.6010    1.0910   12.7290 O.co2  67  U67        -0.5000
   1390  P         36.8880    4.2050   11.1020 P.3    68  G68         0.0000
   1391  C5'       36.5790    6.5970   10.1080 C.3    68  G68         0.0000
   1392  O5'       36.7000    5.1980    9.8760 O.3    68  G68         0.0000
   1393  C4'       37.7750    7.3330    9.5480 C.3    68  G68         0.0000
   1394  O4'       38.9960    6.8640   10.1640 O.3    68  G68         0.0000
   1395  C3'       38.0490    7.1040    8.0810 C.3    68  G68         0.0000
   1396  O3'       37.1530    7.8620    7.2950 O.3    68  G68         0.0000
   1397  C2'       39.4900    7.5610    7.9480 C.3    68  G68         0.0000
   1398  O2'       39.6090    8.9640    7.8730 O.3    68  G68         0.0000
   1399  C1'       40.0750    7.0630    9.2680 C.3    68  G68         0.0000
   1400  N1        44.0030    4.7310    7.0750 N.ar   68  G68         0.0000
   1401  C2        43.5460    6.0150    6.9100 C.ar   68  G68         0.0000
   1402  N2        44.2360    6.7850    6.0520 N.pl3  68  G68         0.0000
   1403  N3        42.4940    6.5110    7.5360 N.ar   68  G68         0.0000
   1404  C4        41.9280    5.6080    8.3580 C.ar   68  G68         0.0000
   1405  C5        42.3040    4.3040    8.5940 C.ar   68  G68         0.0000
   1406  C6        43.4290    3.7820    7.9110 C.ar   68  G68         0.0000
   1407  O6        43.9090    2.6440    7.9750 O.2    68  G68         0.0000
   1408  N7        41.4530    3.7040    9.5110 N.ar   68  G68         0.0000
   1409  C8        40.5900    4.6380    9.8090 C.ar   68  G68         0.0000
   1410  N9        40.8260    5.8190    9.1490 N.ar   68  G68         0.0000
   1411  OP1       35.5460    4.0290   11.7060 O.3    68  G68        -0.5000
   1412  OP2       37.6300    3.0240   10.6040 O.co2  68  G68        -0.5000
   1413  P         36.3410    7.1320    6.1280 P.3    69  C69         0.0000
   1414  C5'       38.1760    7.9100    4.4430 C.3    69  C69         0.0000
   1415  O5'       37.4910    6.8350    5.0700 O.3    69  C69         0.0000
   1416  C4'       39.3520    7.3950    3.6600 C.3    69  C69         0.0000
   1417  O4'       40.3490    6.8870    4.5780 O.3    69  C69         0.0000
   1418  C3'       39.0760    6.2220    2.7350 C.3    69  C69         0.0000
   1419  O3'       38.4920    6.6530    1.5060 O.3    69  C69         0.0000
   1420  C2'       40.4690    5.6260    2.5680 C.3    69  C69         0.0000
   1421  O2'       41.2800    6.3600    1.6650 O.3    69  C69         0.0000
   1422  C1'       41.0250    5.7910    3.9840 C.3    69  C69         0.0000
   1423  N1        40.8380    4.6170    4.8500 N.ar   69  C69         0.0000
   1424  C2        41.8980    3.7210    5.0050 C.ar   69  C69         0.0000
   1425  O2        42.9500    3.9220    4.3780 O.2    69  C69         0.0000
   1426  N3        41.7530    2.6600    5.8340 N.ar   69  C69         0.0000
   1427  C4        40.6010    2.4750    6.4850 C.ar   69  C69         0.0000
   1428  N4        40.5020    1.4240    7.3000 N.pl3  69  C69         0.0000
   1429  C5        39.4980    3.3640    6.3300 C.ar   69  C69         0.0000
   1430  C6        39.6580    4.4100    5.5080 C.ar   69  C69         0.0000
   1431  OP1       35.3870    8.1200    5.5590 O.2    69  C69        -0.5000
   1432  OP2       35.8290    5.8270    6.6470 O.co2  69  C69        -0.5000
   1433  P         37.3810    5.7370    0.7890 P.3    70  C70         0.0000
   1434  C5'       39.0380    4.7810   -1.0330 C.3    70  C70         0.0000
   1435  O5'       38.2430    4.5580    0.1370 O.3    70  C70         0.0000
   1436  C4'       39.8530    3.5450   -1.3750 C.3    70  C70         0.0000
   1437  O4'       40.7590    3.2570   -0.2760 O.3    70  C70         0.0000
   1438  C3'       39.0820    2.2450   -1.5650 C.3    70  C70         0.0000
   1439  O3'       38.5510    2.0800   -2.8730 O.3    70  C70         0.0000
   1440  C2'       40.1370    1.1880   -1.2790 C.3    70  C70         0.0000
   1441  O2'       40.9590    0.8990   -2.3860 O.3    70  C70         0.0000
   1442  C1'       40.9290    1.8520   -0.1530 C.3    70  C70         0.0000
   1443  N1        40.4290    1.4260    1.1650 N.ar   70  C70         0.0000
   1444  C2        40.8280    0.1750    1.6520 C.ar   70  C70         0.0000
   1445  O2        41.5840   -0.5240    0.9610 O.2    70  C70         0.0000
   1446  N3        40.3800   -0.2410    2.8530 N.ar   70  C70         0.0000
   1447  C4        39.5600    0.5360    3.5630 C.ar   70  C70         0.0000
   1448  N4        39.1430    0.0780    4.7510 N.pl3  70  C70         0.0000
   1449  C5        39.1310    1.8160    3.0900 C.ar   70  C70         0.0000
   1450  C6        39.5880    2.2180    1.9000 C.ar   70  C70         0.0000
   1451  OP1       36.7550    6.5620   -0.2780 O.2    70  C70        -0.5000
   1452  OP2       36.5170    5.1260    1.8350 O.co2  70  C70        -0.5000
   1453  P         37.3930    0.9930   -3.1150 P.3    71  C71         0.0000
   1454  C5'       38.8890   -0.9520   -4.0410 C.3    71  C71         0.0000
   1455  O5'       38.1420   -0.4030   -2.9640 O.3    71  C71         0.0000
   1456  C4'       39.2430   -2.3870   -3.7450 C.3    71  C71         0.0000
   1457  O4'       40.0010   -2.4250   -2.5070 O.3    71  C71         0.0000
   1458  C3'       38.0710   -3.3170   -3.4780 C.3    71  C71         0.0000
   1459  O3'       37.5070   -3.8280   -4.6740 O.3    71  C71         0.0000
   1460  C2'       38.7260   -4.4130   -2.6560 C.3    71  C71         0.0000
   1461  O2'       39.4820   -5.3150   -3.4420 O.3    71  C71         0.0000
   1462  C1'       39.6520   -3.5860   -1.7640 C.3    71  C71         0.0000
   1463  N1        38.9880   -3.1670   -0.5100 N.ar   71  C71         0.0000
   1464  C2        39.0470   -4.0180    0.6060 C.ar   71  C71         0.0000
   1465  O2        39.6820   -5.0870    0.5210 O.2    71  C71         0.0000
   1466  N3        38.4130   -3.6540    1.7450 N.ar   71  C71         0.0000
   1467  C4        37.7460   -2.5010    1.7990 C.ar   71  C71         0.0000
   1468  N4        37.1250   -2.1900    2.9370 N.pl3  71  C71         0.0000
   1469  C5        37.6810   -1.6140    0.6870 C.ar   71  C71         0.0000
   1470  C6        38.3110   -1.9790   -0.4330 C.ar   71  C71         0.0000
   1471  OP1       36.8920    1.1170   -4.5080 O.2    71  C71        -0.5000
   1472  OP2       36.4370    1.0980   -1.9830 O.co2  71  C71        -0.5000
   1473  P         35.9570   -4.2380   -4.7010 P.3    72  U72         0.0000
   1474  C5'       36.4670   -6.7430   -4.1230 C.3    72  U72         0.0000
   1475  O5'       35.8730   -5.5100   -3.7500 O.3    72  U72         0.0000
   1476  C4'       36.1910   -7.7910   -3.0710 C.3    72  U72         0.0000
   1477  O4'       36.9130   -7.4780   -1.8450 O.3    72  U72         0.0000
   1478  C3'       34.7460   -7.8970   -2.6170 C.3    72  U72         0.0000
   1479  O3'       33.9550   -8.6340   -3.5390 O.3    72  U72         0.0000
   1480  C2'       34.9030   -8.5900   -1.2720 C.3    72  U72         0.0000
   1481  O2'       35.1750   -9.9690   -1.4070 O.3    72  U72         0.0000
   1482  C1'       36.1340   -7.8680   -0.7180 C.3    72  U72         0.0000
   1483  N1        35.7800   -6.6630    0.0610 N.ar   72  U72         0.0000
   1484  C2        35.7140   -6.7750    1.4470 C.ar   72  U72         0.0000
   1485  O2        35.9570   -7.8120    2.0490 O.2    72  U72         0.0000
   1486  N3        35.3520   -5.6230    2.1070 N.ar   72  U72         0.0000
   1487  C4        35.0570   -4.3940    1.5470 C.ar   72  U72         0.0000
   1488  O4        34.7460   -3.4500    2.2820 O.2    72  U72         0.0000
   1489  C5        35.1530   -4.3530    0.1190 C.ar   72  U72         0.0000
   1490  C6        35.5030   -5.4550   -0.5580 C.ar   72  U72         0.0000
   1491  OP1       35.5780   -4.6550   -6.0750 O.2    72  U72        -0.5000
   1492  OP2       35.2250   -3.1290   -4.0450 O.co2  72  U72        -0.5000
   1493  P         32.3790   -8.3200   -3.6710 P.3    73  G73         0.0000
   1494  C5'       31.9640  -10.4450   -2.1860 C.3    73  G73         0.0000
   1495  O5'       31.7680   -9.0440   -2.3900 O.3    73  G73         0.0000
   1496  C4'       31.5990  -10.8340   -0.7720 C.3    73  G73         0.0000
   1497  O4'       32.5620  -10.2690    0.1620 O.3    73  G73         0.0000
   1498  C3'       30.2530  -10.3270   -0.2810 C.3    73  G73         0.0000
   1499  O3'       29.1870  -11.1700   -0.7050 O.3    73  G73         0.0000
   1500  C2'       30.4450  -10.3470    1.2290 C.3    73  G73         0.0000
   1501  O2'       30.3240  -11.6560    1.7520 O.3    73  G73         0.0000
   1502  C1'       31.8950   -9.8630    1.3520 C.3    73  G73         0.0000
   1503  N1        32.1100   -5.9280    4.5940 N.ar   73  G73         0.0000
   1504  C2        31.9330   -7.2630    4.8580 C.ar   73  G73         0.0000
   1505  N2        31.7940   -7.5940    6.1490 N.pl3  73  G73         0.0000
   1506  N3        31.8940   -8.2030    3.9270 N.ar   73  G73         0.0000
   1507  C4        32.0440   -7.6930    2.6850 C.ar   73  G73         0.0000
   1508  C5        32.2250   -6.3750    2.3150 C.ar   73  G73         0.0000
   1509  C6        32.2700   -5.3770    3.3290 C.ar   73  G73         0.0000
   1510  O6        32.4260   -4.1550    3.2060 O.2    73  G73         0.0000
   1511  N7        32.3330   -6.2610    0.9350 N.ar   73  G73         0.0000
   1512  C8        32.2200   -7.4860    0.4960 C.ar   73  G73         0.0000
   1513  N9        32.0450   -8.4100    1.5020 N.ar   73  G73         0.0000
   1514  OP1       31.8910   -9.0380   -4.8750 O.2    73  G73        -0.5000
   1515  OP2       32.1470   -6.8500   -3.5570 O.co2  73  G73        -0.5000
   1516  P         27.6870  -10.5860   -0.7700 P.3    74  C74         0.0000
   1517  C5'       27.2900  -11.4940    1.6640 C.3    74  C74         0.0000
   1518  O5'       27.3090  -10.3840    0.7630 O.3    74  C74         0.0000
   1519  C4'       27.0560  -11.0190    3.0790 C.3    74  C74         0.0000
   1520  O4'       28.2350  -10.3250    3.5760 O.3    74  C74         0.0000
   1521  C3'       25.9380  -10.0040    3.2200 C.3    74  C74         0.0000
   1522  O3'       24.6590  -10.6140    3.2320 O.3    74  C74         0.0000
   1523  C2'       26.3210   -9.2830    4.5050 C.3    74  C74         0.0000
   1524  O2'       26.0000   -9.9960    5.6870 O.3    74  C74         0.0000
   1525  C1'       27.8400   -9.1830    4.3270 C.3    74  C74         0.0000
   1526  N1        28.2550   -7.9670    3.5840 N.ar   74  C74         0.0000
   1527  C2        28.7240   -6.8570    4.3020 C.ar   74  C74         0.0000
   1528  O2        28.7890   -6.9200    5.5410 O.2    74  C74         0.0000
   1529  N3        29.0980   -5.7450    3.6240 N.ar   74  C74         0.0000
   1530  C4        29.0180   -5.7130    2.2920 C.ar   74  C74         0.0000
   1531  N4        29.3990   -4.5980    1.6690 N.pl3  74  C74         0.0000
   1532  C5        28.5460   -6.8220    1.5390 C.ar   74  C74         0.0000
   1533  C6        28.1800   -7.9170    2.2170 C.ar   74  C74         0.0000
   1534  OP1       26.7930  -11.6400   -1.3210 O.3    74  C74        -0.5000
   1535  OP2       27.7270   -9.2490   -1.4250 O.co2  74  C74        -0.5000
   1536  P         23.4120   -9.8380    2.5820 P.3    75  G75         0.0000
   1537  C5'       23.0390   -8.8760    4.9950 C.3    75  G75         0.0000
   1538  O5'       23.1820   -8.6290    3.5940 O.3    75  G75         0.0000
   1539  C4'       23.0330   -7.5780    5.7710 C.3    75  G75         0.0000
   1540  O4'       24.3710   -7.0150    5.8590 O.3    75  G75         0.0000
   1541  C3'       22.2070   -6.4540    5.1750 C.3    75  G75         0.0000
   1542  O3'       20.8250   -6.6330    5.4330 O.3    75  G75         0.0000
   1543  C2'       22.7940   -5.2400    5.8780 C.3    75  G75         0.0000
   1544  O2'       22.3270   -5.1060    7.2100 O.3    75  G75         0.0000
   1545  C1'       24.2860   -5.5940    5.8730 C.3    75  G75         0.0000
   1546  N1        26.3010   -1.5000    3.6080 N.ar   75  G75         0.0000
   1547  C2        25.6710   -1.5940    4.8210 C.ar   75  G75         0.0000
   1548  N2        25.5550   -0.4560    5.5110 N.pl3  75  G75         0.0000
   1549  N3        25.1880   -2.7210    5.3180 N.ar   75  G75         0.0000
   1550  C4        25.3870   -3.7670    4.4830 C.ar   75  G75         0.0000
   1551  C5        26.0050   -3.7740    3.2500 C.ar   75  G75         0.0000
   1552  C6        26.5180   -2.5590    2.7350 C.ar   75  G75         0.0000
   1553  O6        27.0950   -2.3640    1.6670 O.2    75  G75         0.0000
   1554  N7        26.0080   -5.0520    2.7060 N.ar   75  G75         0.0000
   1555  C8        25.4030   -5.7880    3.5980 C.ar   75  G75         0.0000
   1556  N9        24.9960   -5.0750    4.7030 N.ar   75  G75         0.0000
   1557  OP1       22.2280  -10.7380    2.6290 O.3    75  G75        -0.5000
   1558  OP2       23.8470   -9.2650    1.2800 O.co2  75  G75        -0.5000
   1559  P         19.7580   -6.2900    4.2850 P.3    76  G76         0.0000
   1560  C5'       19.0240   -4.2150    5.7170 C.3    76  G76         0.0000
   1561  O5'       19.4890   -4.7310    4.4710 O.3    76  G76         0.0000
   1562  C4'       19.2880   -2.7310    5.8040 C.3    76  G76         0.0000
   1563  O4'       20.7180   -2.4880    5.8320 O.3    76  G76         0.0000
   1564  C3'       18.8000   -1.9250    4.6150 C.3    76  G76         0.0000
   1565  O3'       17.4200   -1.6270    4.7360 O.3    76  G76         0.0000
   1566  C2'       19.6850   -0.6870    4.6690 C.3    76  G76         0.0000
   1567  O2'       19.2560    0.2950    5.5900 O.3    76  G76         0.0000
   1568  C1'       21.0140   -1.2910    5.1260 C.3    76  G76         0.0000
   1569  N1        23.9150    0.6140    1.4340 N.ar   76  G76         0.0000
   1570  C2        23.1330    1.2660    2.3570 C.ar   76  G76         0.0000
   1571  N2        23.1190    2.6090    2.2920 N.pl3  76  G76         0.0000
   1572  N3        22.4140    0.6500    3.2750 N.ar   76  G76         0.0000
   1573  C4        22.5380   -0.6930    3.2000 C.ar   76  G76         0.0000
   1574  C5        23.2880   -1.4410    2.3180 C.ar   76  G76         0.0000
   1575  C6        24.0590   -0.7670    1.3360 C.ar   76  G76         0.0000
   1576  O6        24.7930   -1.2500    0.4660 O.2    76  G76         0.0000
   1577  N7        23.1390   -2.7980    2.5700 N.ar   76  G76         0.0000
   1578  C8        22.3170   -2.8490    3.5840 C.ar   76  G76         0.0000
   1579  N9        21.9160   -1.6060    4.0180 N.ar   76  G76         0.0000
   1580  OP1       18.5000   -7.0180    4.5870 O.3    76  G76        -0.5000
   1581  OP2       20.4360   -6.5020    2.9780 O.co2  76  G76        -0.5000
   1582  P         16.5460   -1.3960    3.4150 P.3    77  U77         0.0000
   1583  C5'       16.7520    1.1760    3.8760 C.3    77  U77         0.0000
   1584  O5'       16.9240    0.0870    2.9740 O.3    77  U77         0.0000
   1585  C4'       17.4180    2.4220    3.3420 C.3    77  U77         0.0000
   1586  O4'       18.8520    2.2300    3.2770 O.3    77  U77         0.0000
   1587  C3'       17.0270    2.8290    1.9320 C.3    77  U77         0.0000
   1588  O3'       15.8320    3.5910    1.9520 O.3    77  U77         0.0000
   1589  C2'       18.2090    3.6830    1.4960 C.3    77  U77         0.0000
   1590  O2'       18.1140    5.0280    1.9200 O.3    77  U77         0.0000
   1591  C1'       19.3800    2.9690    2.1840 C.3    77  U77         0.0000
   1592  N1        20.0920    2.0450    1.2870 N.ar   77  U77         0.0000
   1593  C2        20.8620    2.5930    0.2750 C.ar   77  U77         0.0000
   1594  O2        20.9940    3.7960    0.1160 O.2    77  U77         0.0000
   1595  N3        21.4710    1.6760   -0.5440 N.ar   77  U77         0.0000
   1596  C4        21.3980    0.2990   -0.4550 C.ar   77  U77         0.0000
   1597  O4        22.0040   -0.3950   -1.2740 O.2    77  U77         0.0000
   1598  C5        20.5980   -0.1860    0.6200 C.ar   77  U77         0.0000
   1599  C6        19.9890    0.6780    1.4340 C.ar   77  U77         0.0000
   1600  OP1       15.1140   -1.4040    3.8030 O.3    77  U77        -0.5000
   1601  OP2       17.0380   -2.3680    2.3980 O.co2  77  U77        -0.5000
   1602  P         14.5550    3.0850    1.1280 P.3    78  C78         0.0000
   1603  C5'       13.6390    5.2420   -0.0960 C.3    78  C78         0.0000
   1604  O5'       14.4830    4.0840   -0.1130 O.3    78  C78         0.0000
   1605  C4'       13.7960    6.0150   -1.3890 C.3    78  C78         0.0000
   1606  O4'       15.1860    6.4250   -1.4820 O.3    78  C78         0.0000
   1607  C3'       13.5090    5.2250   -2.6680 C.3    78  C78         0.0000
   1608  O3'       12.1400    5.3550   -3.1120 O.3    78  C78         0.0000
   1609  C2'       14.4430    5.8840   -3.6880 C.3    78  C78         0.0000
   1610  O2'       13.8640    7.0100   -4.3230 O.3    78  C78         0.0000
   1611  C1'       15.6360    6.3130   -2.8180 C.3    78  C78         0.0000
   1612  N1        16.8090    5.4070   -2.8410 N.ar   78  C78         0.0000
   1613  C2        17.9210    5.7510   -3.6270 C.ar   78  C78         0.0000
   1614  O2        17.9050    6.8190   -4.2590 O.2    78  C78         0.0000
   1615  N3        18.9860    4.9080   -3.6740 N.ar   78  C78         0.0000
   1616  C4        18.9700    3.7700   -2.9750 C.ar   78  C78         0.0000
   1617  N4        20.0300    2.9650   -3.0580 N.pl3  78  C78         0.0000
   1618  C5        17.8630    3.4040   -2.1580 C.ar   78  C78         0.0000
   1619  C6        16.8150    4.2430   -2.1190 C.ar   78  C78         0.0000
   1620  OP1       13.3670    3.3010    1.9860 O.3    78  C78        -0.5000
   1621  OP2       14.8520    1.7170    0.6260 O.co2  78  C78        -0.5000
   1622  P         10.9170    4.7610   -2.2200 P.3    80  U80         0.0000
   1623  C5'        8.7020    4.4370   -3.6750 C.3    80  U80         0.0000
   1624  O5'        9.9910    3.9560   -3.2530 O.3    80  U80         0.0000
   1625  C4'        7.5880    3.6060   -3.0530 C.3    80  U80         0.0000
   1626  O4'        6.3550    3.8220   -3.8030 O.3    80  U80         0.0000
   1627  C3'        7.7780    2.0940   -3.0860 C.3    80  U80         0.0000
   1628  O3'        8.5040    1.6490   -1.9470 O.3    80  U80         0.0000
   1629  C2'        6.3490    1.5710   -3.0330 C.3    80  U80         0.0000
   1630  O2'        5.8000    1.5290   -1.7330 O.3    80  U80         0.0000
   1631  C1'        5.6110    2.6070   -3.8800 C.3    80  U80         0.0000
   1632  N1         5.4520    2.2260   -5.3000 N.ar   80  U80         0.0000
   1633  C2         5.0650    0.9140   -5.6060 C.ar   80  U80         0.0000
   1634  O2         4.8440    0.0590   -4.7580 O.2    80  U80         0.0000
   1635  N3         4.9530    0.6430   -6.9490 N.ar   80  U80         0.0000
   1636  C4         5.1760    1.5140   -7.9980 C.ar   80  U80         0.0000
   1637  O4         5.0480    1.1130   -9.1550 O.2    80  U80         0.0000
   1638  C5         5.5580    2.8340   -7.6100 C.ar   80  U80         0.0000
   1639  C6         5.6800    3.1400   -6.3120 C.ar   80  U80         0.0000
   1640  OP1       10.1460    5.9220   -1.6840 O.2    80  U80        -0.5000
   1641  OP2       11.4670    3.7500   -1.2750 O.co2  80  U80        -0.5000
   1642  P          9.2340    0.2150   -1.9720 P.3    81  C81         0.0000
   1643  C5'        7.4250   -1.6880   -1.7450 C.3    81  C81         0.0000
   1644  O5'        8.1420   -0.7800   -2.5760 O.3    81  C81         0.0000
   1645  C4'        6.8970   -2.8410   -2.5660 C.3    81  C81         0.0000
   1646  O4'        6.0760   -2.3110   -3.6380 O.3    81  C81         0.0000
   1647  C3'        7.9440   -3.6840   -3.2800 C.3    81  C81         0.0000
   1648  O3'        8.4400   -4.7060   -2.4210 O.3    81  C81         0.0000
   1649  C2'        7.1550   -4.2840   -4.4380 C.3    81  C81         0.0000
   1650  O2'        6.4420   -5.4490   -4.0750 O.3    81  C81         0.0000
   1651  C1'        6.1840   -3.1490   -4.7780 C.3    81  C81         0.0000
   1652  N1         6.6100   -2.3320   -5.9300 N.ar   81  C81         0.0000
   1653  C2         6.0620   -2.6030   -7.1930 C.ar   81  C81         0.0000
   1654  O2         5.2270   -3.5130   -7.3080 O.2    81  C81         0.0000
   1655  N3         6.4550   -1.8670   -8.2540 N.ar   81  C81         0.0000
   1656  C4         7.3560   -0.8960   -8.0960 C.ar   81  C81         0.0000
   1657  N4         7.7140   -0.1950   -9.1730 N.pl3  81  C81         0.0000
   1658  C5         7.9280   -0.5970   -6.8260 C.ar   81  C81         0.0000
   1659  C6         7.5300   -1.3310   -5.7810 C.ar   81  C81         0.0000
   1660  OP1        9.5220   -0.1760   -0.5620 O.3    81  C81        -0.5000
   1661  OP2       10.3500    0.3080   -2.9520 O.co2  81  C81        -0.5000
   1662  P          9.9940   -5.1190   -2.4840 P.3    82  C82         0.0000
   1663  C5'        9.8980   -7.6030   -3.3750 C.3    82  C82         0.0000
   1664  O5'       10.0770   -6.2100   -3.6470 O.3    82  C82         0.0000
   1665  C4'       10.2650   -8.4270   -4.5910 C.3    82  C82         0.0000
   1666  O4'        9.4590   -7.9870   -5.7130 O.3    82  C82         0.0000
   1667  C3'       11.7070   -8.3010   -5.0580 C.3    82  C82         0.0000
   1668  O3'       12.5020   -9.2880   -4.4040 O.3    82  C82         0.0000
   1669  C2'       11.6110   -8.5770   -6.5560 C.3    82  C82         0.0000
   1670  O2'       11.6320   -9.9570   -6.8630 O.3    82  C82         0.0000
   1671  C1'       10.2350   -8.0000   -6.8980 C.3    82  C82         0.0000
   1672  N1        10.2270   -6.6390   -7.4790 N.ar   82  C82         0.0000
   1673  C2        10.5730   -6.4720   -8.8340 C.ar   82  C82         0.0000
   1674  O2        10.9100   -7.4660   -9.5040 O.2    82  C82         0.0000
   1675  N3        10.5290   -5.2300   -9.3740 N.ar   82  C82         0.0000
   1676  C4        10.1690   -4.1840   -8.6240 C.ar   82  C82         0.0000
   1677  N4        10.1380   -2.9820   -9.2000 N.pl3  82  C82         0.0000
   1678  C5         9.8270   -4.3240   -7.2490 C.ar   82  C82         0.0000
   1679  C6         9.8720   -5.5540   -6.7220 C.ar   82  C82         0.0000
   1680  OP1       10.3600   -5.7760   -1.2010 O.3    82  C82        -0.5000
   1681  OP2       10.7450   -3.9160   -2.9290 O.co2  82  C82        -0.5000
   1682  P         14.0920   -9.0850   -4.2810 P.3    83  U83         0.0000
   1683  C5'       14.7780  -10.3470   -6.4970 C.3    83  U83         0.0000
   1684  O5'       14.6080   -9.1130   -5.7910 O.3    83  U83         0.0000
   1685  C4'       15.4970  -10.1140   -7.8150 C.3    83  U83         0.0000
   1686  O4'       14.6820   -9.2660   -8.6660 O.3    83  U83         0.0000
   1687  C3'       16.8460   -9.4100   -7.7330 C.3    83  U83         0.0000
   1688  O3'       17.8870  -10.3630   -7.5050 O.3    83  U83         0.0000
   1689  C2'       16.9740   -8.7670   -9.1110 C.3    83  U83         0.0000
   1690  O2'       17.4740   -9.6560  -10.0880 O.3    83  U83         0.0000
   1691  C1'       15.5180   -8.4220   -9.4390 C.3    83  U83         0.0000
   1692  N1        15.1330   -7.0220   -9.1940 N.ar   83  U83         0.0000
   1693  C2        15.6540   -6.0460  -10.0320 C.ar   83  U83         0.0000
   1694  O2        16.4270   -6.2910  -10.9460 O.2    83  U83         0.0000
   1695  N3        15.2360   -4.7680   -9.7590 N.ar   83  U83         0.0000
   1696  C4        14.3740   -4.3690   -8.7570 C.ar   83  U83         0.0000
   1697  O4        14.0900   -3.1750   -8.6410 O.2    83  U83         0.0000
   1698  C5        13.8860   -5.4300   -7.9320 C.ar   83  U83         0.0000
   1699  C6        14.2720   -6.6860   -8.1710 C.ar   83  U83         0.0000
   1700  OP1       14.6690  -10.2560   -3.5650 O.3    83  U83        -0.5000
   1701  OP2       14.3100   -7.7160   -3.7410 O.co2  83  U83        -0.5000
   1702  P         19.2900   -9.8890   -6.8700 P.3    84  G84         0.0000
   1703  C5'       20.7070   -9.8960   -9.0860 C.3    84  G84         0.0000
   1704  O5'       20.0380   -9.1480   -8.0690 O.3    84  G84         0.0000
   1705  C4'       21.2110   -8.9820  -10.1820 C.3    84  G84         0.0000
   1706  O4'       20.0890   -8.2650  -10.7680 O.3    84  G84         0.0000
   1707  C3'       22.1580   -7.8680   -9.7660 C.3    84  G84         0.0000
   1708  O3'       23.4970   -8.3340   -9.6180 O.3    84  G84         0.0000
   1709  C2'       22.0240   -6.8930  -10.9310 C.3    84  G84         0.0000
   1710  O2'       22.7820   -7.2700  -12.0630 O.3    84  G84         0.0000
   1711  C1'       20.5340   -7.0090  -11.2570 C.3    84  G84         0.0000
   1712  N1        18.8080   -2.2660  -11.7450 N.ar   84  G84         0.0000
   1713  C2        19.5790   -3.0070  -12.6050 C.ar   84  G84         0.0000
   1714  N2        19.9420   -2.3970  -13.7430 N.pl3  84  G84         0.0000
   1715  N3        19.9640   -4.2510  -12.3680 N.ar   84  G84         0.0000
   1716  C4        19.5060   -4.7020  -11.1790 C.ar   84  G84         0.0000
   1717  C5        18.7320   -4.0440  -10.2490 C.ar   84  G84         0.0000
   1718  C6        18.3270   -2.7090  -10.5180 C.ar   84  G84         0.0000
   1719  O6        17.6410   -1.9550   -9.8210 O.2    84  G84         0.0000
   1720  N7        18.4770   -4.8590   -9.1550 N.ar   84  G84         0.0000
   1721  C8        19.0900   -5.9770   -9.4340 C.ar   84  G84         0.0000
   1722  N9        19.7380   -5.9480  -10.6460 N.ar   84  G84         0.0000
   1723  OP1       20.0680  -11.1090   -6.5190 O.2    84  G84        -0.5000
   1724  OP2       19.0030   -8.8760   -5.8230 O.co2  84  G84        -0.5000
   1725  P         24.5260   -7.5170   -8.6850 P.3    85  C85         0.0000
   1726  C5'       25.2180   -6.0430  -10.7450 C.3    85  C85         0.0000
   1727  O5'       24.6870   -6.1100   -9.4230 O.3    85  C85         0.0000
   1728  C4'       25.0430   -4.6580  -11.3330 C.3    85  C85         0.0000
   1729  O4'       23.6370   -4.3090  -11.4010 O.3    85  C85         0.0000
   1730  C3'       25.6650   -3.4970  -10.5770 C.3    85  C85         0.0000
   1731  O3'       27.0650   -3.4160  -10.8540 O.3    85  C85         0.0000
   1732  C2'       24.9000   -2.3040  -11.1470 C.3    85  C85         0.0000
   1733  O2'       25.4050   -1.8420  -12.3830 O.3    85  C85         0.0000
   1734  C1'       23.5050   -2.8990  -11.3620 C.3    85  C85         0.0000
   1735  N1        22.5420   -2.5290  -10.3090 N.ar   85  C85         0.0000
   1736  C2        21.7280   -1.3920  -10.5020 C.ar   85  C85         0.0000
   1737  O2        21.8360   -0.7350  -11.5530 O.2    85  C85         0.0000
   1738  N3        20.8460   -1.0410   -9.5380 N.ar   85  C85         0.0000
   1739  C4        20.7540   -1.7660   -8.4210 C.ar   85  C85         0.0000
   1740  N4        19.8690   -1.3790   -7.5010 N.pl3  85  C85         0.0000
   1741  C5        21.5660   -2.9200   -8.1980 C.ar   85  C85         0.0000
   1742  C6        22.4360   -3.2630   -9.1580 C.ar   85  C85         0.0000
   1743  OP1       25.8420   -8.2110   -8.7100 O.2    85  C85        -0.5000
   1744  OP2       23.8500   -7.2800   -7.3820 O.co2  85  C85        -0.5000
   1745  P         28.0810   -2.8610   -9.7310 P.3    86  G86         0.0000
   1746  C5'       27.9530   -0.4460  -10.7490 C.3    86  G86         0.0000
   1747  O5'       27.7280   -1.3080   -9.6400 O.3    86  G86         0.0000
   1748  C4'       27.2940    0.8940  -10.5240 C.3    86  G86         0.0000
   1749  O4'       25.8580    0.7190  -10.4410 O.3    86  G86         0.0000
   1750  C3'       27.6480    1.6150   -9.2350 C.3    86  G86         0.0000
   1751  O3'       28.8850    2.3150   -9.3390 O.3    86  G86         0.0000
   1752  C2'       26.4630    2.5580   -9.0700 C.3    86  G86         0.0000
   1753  O2'       26.5310    3.7120   -9.8880 O.3    86  G86         0.0000
   1754  C1'       25.3130    1.6610   -9.5280 C.3    86  G86         0.0000
   1755  N1        22.0350    1.8830   -5.6420 N.ar   86  G86         0.0000
   1756  C2        22.4000    2.8680   -6.5310 C.ar   86  G86         0.0000
   1757  N2        21.8120    4.0660   -6.3640 N.pl3  86  G86         0.0000
   1758  N3        23.2770    2.6920   -7.5110 N.ar   86  G86         0.0000
   1759  C4        23.7690    1.4310   -7.5300 C.ar   86  G86         0.0000
   1760  C5        23.4720    0.3780   -6.6860 C.ar   86  G86         0.0000
   1761  C6        22.5280    0.5800   -5.6400 C.ar   86  G86         0.0000
   1762  O6        22.1330   -0.2290   -4.7890 O.2    86  G86         0.0000
   1763  N7        24.1970   -0.7540   -7.0360 N.ar   86  G86         0.0000
   1764  C8        24.9050   -0.3800   -8.0670 C.ar   86  G86         0.0000
   1765  N9        24.6920    0.9330   -8.4230 N.ar   86  G86         0.0000
   1766  OP1       29.4670   -3.0000  -10.2510 O.2    86  G86        -0.5000
   1767  OP2       27.7200   -3.5090   -8.4380 O.co2  86  G86        -0.5000
   1768  P         29.7110    2.6760   -8.0060 P.3    87  A87         0.0000
   1769  C5'       28.7650    5.1160   -7.9550 C.3    87  A87         0.0000
   1770  O5'       28.8470    3.8360   -7.3430 O.3    87  A87         0.0000
   1771  C4'       27.9340    6.0490   -7.1120 C.3    87  A87         0.0000
   1772  O4'       26.5400    5.6330   -7.1650 O.3    87  A87         0.0000
   1773  C3'       28.2450    6.0470   -5.6240 C.3    87  A87         0.0000
   1774  O3'       29.3800    6.8080   -5.2490 O.3    87  A87         0.0000
   1775  C2'       26.9530    6.5970   -5.0540 C.3    87  A87         0.0000
   1776  O2'       26.8240    7.9920   -5.2620 O.3    87  A87         0.0000
   1777  C1'       25.9410    5.8060   -5.8850 C.3    87  A87         0.0000
   1778  N1        23.2520    3.0270   -2.5020 N.ar   87  A87         0.0000
   1779  C2        23.1500    4.3010   -2.9070 C.ar   87  A87         0.0000
   1780  N3        23.8720    4.9590   -3.8100 N.ar   87  A87         0.0000
   1781  C4        24.8100    4.1540   -4.3390 C.ar   87  A87         0.0000
   1782  C5        25.0380    2.8230   -4.0250 C.ar   87  A87         0.0000
   1783  C6        24.2050    2.2470   -3.0530 C.ar   87  A87         0.0000
   1784  N6        24.3050    0.9800   -2.6470 N.pl3  87  A87         0.0000
   1785  N7        26.0930    2.3150   -4.7700 N.ar   87  A87         0.0000
   1786  C8        26.4750    3.3300   -5.5060 C.ar   87  A87         0.0000
   1787  N9        25.7490    4.4820   -5.2860 N.ar   87  A87         0.0000
   1788  OP1       31.0310    3.2330   -8.4110 O.2    87  A87        -0.5000
   1789  OP2       29.6600    1.4970   -7.1030 O.co2  87  A87        -0.5000
   1790  P         30.1730    6.4150   -3.9080 P.3    88  C88         0.0000
   1791  C5'       28.5620    8.0150   -2.5960 C.3    88  C88         0.0000
   1792  O5'       29.1160    6.7100   -2.7520 O.3    88  C88         0.0000
   1793  C4'       27.6620    8.0820   -1.3810 C.3    88  C88         0.0000
   1794  O4'       26.4810    7.2580   -1.5810 O.3    88  C88         0.0000
   1795  C3'       28.2290    7.5700   -0.0700 C.3    88  C88         0.0000
   1796  O3'       29.1080    8.5040    0.5450 O.3    88  C88         0.0000
   1797  C2'       26.9590    7.3530    0.7410 C.3    88  C88         0.0000
   1798  O2'       26.4050    8.5520    1.2440 O.3    88  C88         0.0000
   1799  C1'       26.0310    6.7650   -0.3230 C.3    88  C88         0.0000
   1800  N1        26.0910    5.2910   -0.3330 N.ar   88  C88         0.0000
   1801  C2        25.4260    4.5820    0.6780 C.ar   88  C88         0.0000
   1802  O2        24.7900    5.2100    1.5400 O.2    88  C88         0.0000
   1803  N3        25.4960    3.2330    0.6920 N.ar   88  C88         0.0000
   1804  C4        26.1900    2.5900   -0.2480 C.ar   88  C88         0.0000
   1805  N4        26.2330    1.2590   -0.1930 N.pl3  88  C88         0.0000
   1806  C5        26.8710    3.2830   -1.2880 C.ar   88  C88         0.0000
   1807  C6        26.7930    4.6190   -1.2950 C.ar   88  C88         0.0000
   1808  OP1       31.3160    7.3520   -3.7510 O.3    88  C88        -0.5000
   1809  OP2       30.4260    4.9500   -3.9440 O.co2  88  C88        -0.5000
   1810  P         30.0320    8.0330    1.7770 P.3    89  C89         0.0000
   1811  C5'       29.2330    6.9620    4.0560 C.3    89  C89         0.0000
   1812  O5'       28.9860    7.8570    2.9700 O.3    89  C89         0.0000
   1813  C4'       27.9240    6.5100    4.6680 C.3    89  C89         0.0000
   1814  O4'       27.0920    5.9010    3.6390 O.3    89  C89         0.0000
   1815  C3'       28.0510    5.4380    5.7380 C.3    89  C89         0.0000
   1816  O3'       28.2640    6.0020    7.0210 O.3    89  C89         0.0000
   1817  C2'       26.6970    4.7570    5.6600 C.3    89  C89         0.0000
   1818  O2'       25.6890    5.5340    6.2710 O.3    89  C89         0.0000
   1819  C1'       26.4770    4.7260    4.1480 C.3    89  C89         0.0000
   1820  N1        27.0940    3.5480    3.4910 N.ar   89  C89         0.0000
   1821  C2        26.5510    2.2650    3.7150 C.ar   89  C89         0.0000
   1822  O2        25.5650    2.1420    4.4580 O.2    89  C89         0.0000
   1823  N3        27.1210    1.1950    3.1160 N.ar   89  C89         0.0000
   1824  C4        28.1840    1.3600    2.3240 C.ar   89  C89         0.0000
   1825  N4        28.7170    0.2760    1.7570 N.pl3  89  C89         0.0000
   1826  C5        28.7510    2.6410    2.0800 C.ar   89  C89         0.0000
   1827  C6        28.1830    3.6950    2.6750 C.ar   89  C89         0.0000
   1828  OP1       30.9410    9.1580    2.1180 O.3    89  C89        -0.5000
   1829  OP2       30.6100    6.6990    1.4400 O.co2  89  C89        -0.5000
   1830  P         29.0920    5.1770    8.1240 P.3    90  G90         0.0000
   1831  C5'       26.9340    3.9510    9.0300 C.3    90  G90         0.0000
   1832  O5'       28.2150    3.8690    8.3960 O.3    90  G90         0.0000
   1833  C4'       26.4420    2.5710    9.4220 C.3    90  G90         0.0000
   1834  O4'       26.4660    1.7240    8.2460 O.3    90  G90         0.0000
   1835  C3'       27.3820    1.9070   10.4370 C.3    90  G90         0.0000
   1836  O3'       26.7170    1.2200   11.5010 O.3    90  G90         0.0000
   1837  C2'       28.2960    0.9900    9.6290 C.3    90  G90         0.0000
   1838  O2'       28.4980   -0.2690   10.2320 O.3    90  G90         0.0000
   1839  C1'       27.4260    0.7120    8.4160 C.3    90  G90         0.0000
   1840  N1        28.9860   -3.1590    5.6250 N.ar   90  G90         0.0000
   1841  C2        28.4170   -3.1460    6.8720 C.ar   90  G90         0.0000
   1842  N2        28.2220   -4.3350    7.4590 N.pl3  90  G90         0.0000
   1843  N3        28.0620   -2.0480    7.5000 N.ar   90  G90         0.0000
   1844  C4        28.3230   -0.9400    6.7720 C.ar   90  G90         0.0000
   1845  C5        28.8850   -0.8420    5.5240 C.ar   90  G90         0.0000
   1846  C6        29.2660   -2.0330    4.8580 C.ar   90  G90         0.0000
   1847  O6        29.7840   -2.1620    3.7440 O.2    90  G90         0.0000
   1848  N7        28.9770    0.4880    5.1300 N.ar   90  G90         0.0000
   1849  C8        28.4740    1.1590    6.1320 C.ar   90  G90         0.0000
   1850  N9        28.0540    0.3490    7.1560 N.ar   90  G90         0.0000
   1851  OP1       29.1190    5.9880    9.3690 O.3    90  G90        -0.5000
   1852  OP2       30.3720    4.7500    7.4960 O.co2  90  G90        -0.5000
   1853  P         26.0750    2.0250   12.7320 P.3    91  U91         0.0000
   1854  C5'       23.5610    1.8870   11.9580 C.3    91  U91         0.0000
   1855  O5'       24.6040    1.4090   12.8180 O.3    91  U91         0.0000
   1856  C4'       22.4350    0.8660   11.8150 C.3    91  U91         0.0000
   1857  O4'       22.8530   -0.2350   10.9610 O.3    91  U91         0.0000
   1858  C3'       22.0400    0.2330   13.1490 C.3    91  U91         0.0000
   1859  O3'       20.6370    0.2820   13.4270 O.3    91  U91         0.0000
   1860  C2'       22.7430   -1.1280   13.1990 C.3    91  U91         0.0000
   1861  O2'       21.9250   -2.1480   13.7310 O.3    91  U91         0.0000
   1862  C1'       22.9370   -1.4310   11.7110 C.3    91  U91         0.0000
   1863  N1        24.0870   -2.2380   11.2690 N.ar   91  U91         0.0000
   1864  C2        23.8330   -3.5650   10.9240 C.ar   91  U91         0.0000
   1865  O2        22.7220   -4.0680   10.9790 O.2    91  U91         0.0000
   1866  N3        24.9260   -4.2780   10.5010 N.ar   91  U91         0.0000
   1867  C4        26.2190   -3.8240   10.3850 C.ar   91  U91         0.0000
   1868  O4        27.0930   -4.5920    9.9720 O.2    91  U91         0.0000
   1869  C5        26.4070   -2.4510   10.7640 C.ar   91  U91         0.0000
   1870  C6        25.3600   -1.7240   11.1840 C.ar   91  U91         0.0000
   1871  OP1       25.9490    3.4670   12.3950 O.2    91  U91        -0.5000
   1872  OP2       26.8530    1.6150   13.9300 O.co2  91  U91        -0.5000
   1873  P         20.0930    1.0110   14.7520 P.3    92  U92         0.0000
   1874  C5'       18.8640    3.0290   13.6070 C.3    92  U92         0.0000
   1875  O5'       19.9870    2.5500   14.3410 O.3    92  U92         0.0000
   1876  C4'       18.8950    4.5410   13.4860 C.3    92  U92         0.0000
   1877  O4'       18.8860    5.1360   14.8100 O.3    92  U92         0.0000
   1878  C3'       20.1560    5.0650   12.8080 C.3    92  U92         0.0000
   1879  O3'       19.9130    5.9660   11.7330 O.3    92  U92         0.0000
   1880  C2'       21.0960    5.5220   13.9240 C.3    92  U92         0.0000
   1881  O2'       21.7040    6.7660   13.6390 O.3    92  U92         0.0000
   1882  C1'       20.1220    5.7700   15.0780 C.3    92  U92         0.0000
   1883  N1        20.5850    5.4030   16.4270 N.ar   92  U92         0.0000
   1884  C2        20.6650    6.4240   17.3690 C.ar   92  U92         0.0000
   1885  O2        20.3590    7.5850   17.1240 O.2    92  U92         0.0000
   1886  N3        21.1140    6.0350   18.6080 N.ar   92  U92         0.0000
   1887  C4        21.4820    4.7600   19.0000 C.ar   92  U92         0.0000
   1888  O4        21.8710    4.5720   20.1560 O.2    92  U92         0.0000
   1889  C5        21.3680    3.7610   17.9760 C.ar   92  U92         0.0000
   1890  C6        20.9340    4.1060   16.7560 C.ar   92  U92         0.0000
   1891  OP1       21.0930    0.8640   15.8390 O.3    92  U92        -0.5000
   1892  OP2       18.7170    0.4920   14.9510 O.co2  92  U92        -0.5000
   1893  P         19.4850    5.4000   10.2940 P.3    93  A93         0.0000
   1894  C5'       22.0120    5.3440    9.5520 C.3    93  A93         0.0000
   1895  O5'       20.7890    4.6440    9.7750 O.3    93  A93         0.0000
   1896  C4'       22.7810    4.6990    8.4230 C.3    93  A93         0.0000
   1897  O4'       23.0930    3.3310    8.7860 O.3    93  A93         0.0000
   1898  C3'       22.0230    4.6010    7.1080 C.3    93  A93         0.0000
   1899  O3'       22.2330    5.7880    6.3460 O.3    93  A93         0.0000
   1900  C2'       22.6600    3.3890    6.4400 C.3    93  A93         0.0000
   1901  O2'       23.8380    3.7160    5.7350 O.3    93  A93         0.0000
   1902  C1'       23.0000    2.5020    7.6440 C.3    93  A93         0.0000
   1903  N1        22.4040   -2.5080    8.6180 N.ar   93  A93         0.0000
   1904  C2        23.4800   -1.7620    8.3580 C.ar   93  A93         0.0000
   1905  N3        23.5640   -0.4610    8.1080 N.ar   93  A93         0.0000
   1906  C4        22.3480    0.1090    8.1390 C.ar   93  A93         0.0000
   1907  C5        21.1470   -0.5250    8.3910 C.ar   93  A93         0.0000
   1908  C6        21.1970   -1.9100    8.6430 C.ar   93  A93         0.0000
   1909  N6        20.1250   -2.6590    8.9010 N.pl3  93  A93         0.0000
   1910  N7        20.0960    0.3790    8.3400 N.ar   93  A93         0.0000
   1911  C8        20.6760    1.5230    8.0650 C.ar   93  A93         0.0000
   1912  N9        22.0390    1.4340    7.9330 N.ar   93  A93         0.0000
   1913  OP1       19.2100    6.5720    9.4170 O.2    93  A93        -0.5000
   1914  OP2       18.4250    4.3770   10.5070 O.co2  93  A93        -0.5000
   1915  P         21.1380    6.2530    5.2700 P.3    94  G94         0.0000
   1916  C5'       22.9680    7.0880    3.6080 C.3    94  G94         0.0000
   1917  O5'       21.8650    7.4030    4.4450 O.3    94  G94         0.0000
   1918  C4'       23.5900    8.3380    3.0220 C.3    94  G94         0.0000
   1919  O4'       22.6300    8.9990    2.1450 O.3    94  G94         0.0000
   1920  C3'       23.9490    9.3680    4.0930 C.3    94  G94         0.0000
   1921  O3'       25.3130    9.7680    4.0790 O.3    94  G94         0.0000
   1922  C2'       22.8330   10.4140    4.0880 C.3    94  G94         0.0000
   1923  O2'       23.2910   11.7490    4.1450 O.3    94  G94         0.0000
   1924  C1'       22.2620   10.2490    2.6840 C.3    94  G94         0.0000
   1925  N1        18.7570   12.5370   -0.1370 N.ar   94  G94         0.0000
   1926  C2        20.1070   12.4110   -0.3510 C.ar   94  G94         0.0000
   1927  N2        20.5900   13.0100   -1.4480 N.pl3  94  G94         0.0000
   1928  N3        20.9200   11.7490    0.4510 N.ar   94  G94         0.0000
   1929  C4        20.2660   11.2100    1.5020 C.ar   94  G94         0.0000
   1930  C5        18.9240   11.2740    1.8060 C.ar   94  G94         0.0000
   1931  C6        18.0610   11.9900    0.9380 C.ar   94  G94         0.0000
   1932  O6        16.8360   12.1650    1.0380 O.2    94  G94         0.0000
   1933  N7        18.6520   10.5810    2.9790 N.ar   94  G94         0.0000
   1934  C8        19.8130   10.1240    3.3610 C.ar   94  G94         0.0000
   1935  N9        20.8370   10.4930    2.5210 N.ar   94  G94         0.0000
   1936  OP1       19.9690    6.8570    5.9630 O.3    94  G94        -0.5000
   1937  OP2       20.9460    5.0960    4.3630 O.co2  94  G94        -0.5000
   1938  P         25.9120   10.6850    5.2530 P.3    95  A95         0.0000
   1939  C5'       28.1350   10.7990    3.8610 C.3    95  A95         0.0000
   1940  O5'       27.0530   11.4900    4.4860 O.3    95  A95         0.0000
   1941  C4'       28.3800   11.3280    2.4640 C.3    95  A95         0.0000
   1942  O4'       27.2390   11.0400    1.6100 O.3    95  A95         0.0000
   1943  C3'       28.5460   12.8300    2.3130 C.3    95  A95         0.0000
   1944  O3'       29.8340   13.2900    2.6970 O.3    95  A95         0.0000
   1945  C2'       28.2910   13.0100    0.8240 C.3    95  A95         0.0000
   1946  O2'       29.3730   12.6130    0.0090 O.3    95  A95         0.0000
   1947  C1'       27.1220   12.0520    0.6180 C.3    95  A95         0.0000
   1948  N1        23.6310   15.1500   -1.5200 N.ar   95  A95         0.0000
   1949  C2        24.7510   14.5900   -1.9930 C.ar   95  A95         0.0000
   1950  N3        25.6120   13.7780   -1.3820 N.ar   95  A95         0.0000
   1951  C4        25.2250   13.5410   -0.1160 C.ar   95  A95         0.0000
   1952  C5        24.1030   14.0430    0.5140 C.ar   95  A95         0.0000
   1953  C6        23.2700   14.8920   -0.2440 C.ar   95  A95         0.0000
   1954  N6        22.1510   15.4500    0.2290 N.pl3  95  A95         0.0000
   1955  N7        24.0320   13.5860    1.8240 N.ar   95  A95         0.0000
   1956  C8        25.0950   12.8310    1.9530 C.ar   95  A95         0.0000
   1957  N9        25.8640   12.7640    0.8200 N.ar   95  A95         0.0000
   1958  OP1       26.5550    9.7720    6.2320 O.3    95  A95        -0.5000
   1959  OP2       24.9140   11.6760    5.7310 O.co2  95  A95        -0.5000
   1960  P         29.9670   14.6630    3.5230 P.3    96  G96         0.0000
   1961  C5'       29.6460   16.2160    1.4260 C.3    96  G96         0.0000
   1962  O5'       29.1420   15.7210    2.6630 O.3    96  G96         0.0000
   1963  C4'       28.6700   17.1950    0.8170 C.3    96  G96         0.0000
   1964  O4'       27.4170   16.5110    0.5350 O.3    96  G96         0.0000
   1965  C3'       28.2370   18.3530    1.7030 C.3    96  G96         0.0000
   1966  O3'       29.1880   19.4020    1.7540 O.3    96  G96         0.0000
   1967  C2'       26.9300   18.7750    1.0490 C.3    96  G96         0.0000
   1968  O2'       27.0790   19.5380   -0.1330 O.3    96  G96         0.0000
   1969  C1'       26.3300   17.4090    0.7220 C.3    96  G96         0.0000
   1970  N1        21.9050   17.8730    3.1070 N.ar   96  G96         0.0000
   1971  C2        22.3620   18.5020    1.9760 C.ar   96  G96         0.0000
   1972  N2        21.5340   19.3840    1.4070 N.pl3  96  G96         0.0000
   1973  N3        23.5450   18.2830    1.4420 N.ar   96  G96         0.0000
   1974  C4        24.2520   17.3680    2.1380 C.ar   96  G96         0.0000
   1975  C5        23.8910   16.6810    3.2760 C.ar   96  G96         0.0000
   1976  C6        22.6150   16.9250    3.8400 C.ar   96  G96         0.0000
   1977  O6        22.1080   16.4140    4.8470 O.2    96  G96         0.0000
   1978  N7        24.9080   15.8260    3.6800 N.ar   96  G96         0.0000
   1979  C8        25.8510   16.0080    2.7970 C.ar   96  G96         0.0000
   1980  N9        25.5160   16.9370    1.8380 N.ar   96  G96         0.0000
   1981  OP1       31.3980   15.0560    3.5080 O.2    96  G96        -0.5000
   1982  OP2       29.2650   14.4980    4.8200 O.co2  96  G96        -0.5000
   1983  P         29.3150   20.2840    3.0910 P.3    97  G97         0.0000
   1984  C5'       27.9920   22.3460    2.1620 C.3    97  G97         0.0000
   1985  O5'       28.0380   21.2390    3.0550 O.3    97  G97         0.0000
   1986  C4'       26.6580   23.0460    2.2440 C.3    97  G97         0.0000
   1987  O4'       25.5970   22.0910    1.9590 O.3    97  G97         0.0000
   1988  C3'       26.2440   23.6140    3.5930 C.3    97  G97         0.0000
   1989  O3'       26.8530   24.8690    3.8930 O.3    97  G97         0.0000
   1990  C2'       24.7430   23.7750    3.3940 C.3    97  G97         0.0000
   1991  O2'       24.4140   24.9080    2.6110 O.3    97  G97         0.0000
   1992  C1'       24.4090   22.4930    2.6300 C.3    97  G97         0.0000
   1993  N1        20.8750   20.9660    5.9410 N.ar   97  G97         0.0000
   1994  C2        20.9250   22.1080    5.1840 C.ar   97  G97         0.0000
   1995  N2        19.9020   22.9630    5.3380 N.pl3  97  G97         0.0000
   1996  N3        21.9040   22.3940    4.3390 N.ar   97  G97         0.0000
   1997  C4        22.8460   21.4270    4.3090 C.ar   97  G97         0.0000
   1998  C5        22.8900   20.2510    5.0220 C.ar   97  G97         0.0000
   1999  C6        21.8320   19.9580    5.9290 C.ar   97  G97         0.0000
   2000  O6        21.6910   18.9700    6.6550 O.2    97  G97         0.0000
   2001  N7        24.0310   19.5260    4.7050 N.ar   97  G97         0.0000
   2002  C8        24.6500   20.2620    3.8230 C.ar   97  G97         0.0000
   2003  N9        23.9890   21.4320    3.5410 N.ar   97  G97         0.0000
   2004  OP1       30.5350   21.1180    2.9290 O.2    97  G97        -0.5000
   2005  OP2       29.1880   19.3830    4.2690 O.co2  97  G97        -0.5000
   2006  P         26.8140   25.4280    5.4060 P.3    98  A98         0.0000
   2007  C5'       24.6240   26.8220    5.0010 C.3    98  A98         0.0000
   2008  O5'       25.2730   25.7430    5.6670 O.3    98  A98         0.0000
   2009  C4'       23.2850   27.0990    5.6370 C.3    98  A98         0.0000
   2010  O4'       22.4460   25.9240    5.5020 O.3    98  A98         0.0000
   2011  C3'       23.3070   27.3670    7.1330 C.3    98  A98         0.0000
   2012  O3'       23.5910   28.7330    7.4030 O.3    98  A98         0.0000
   2013  C2'       21.8850   27.0090    7.5410 C.3    98  A98         0.0000
   2014  O2'       20.9610   28.0400    7.2580 O.3    98  A98         0.0000
   2015  C1'       21.6110   25.8010    6.6430 C.3    98  A98         0.0000
   2016  N1        19.8670   22.1950    9.8690 N.ar   98  A98         0.0000
   2017  C2        19.3410   23.3480    9.4410 C.ar   98  A98         0.0000
   2018  N3        19.8510   24.2450    8.5980 N.ar   98  A98         0.0000
   2019  C4        21.0660   23.8560    8.1670 C.ar   98  A98         0.0000
   2020  C5        21.7370   22.6990    8.5170 C.ar   98  A98         0.0000
   2021  C6        21.0890   21.8330    9.4170 C.ar   98  A98         0.0000
   2022  N6        21.6130   20.6830    9.8440 N.pl3  98  A98         0.0000
   2023  N7        22.9680   22.6320    7.8770 N.ar   98  A98         0.0000
   2024  C8        23.0150   23.7310    7.1650 C.ar   98  A98         0.0000
   2025  N9        21.8940   24.5200    7.2910 N.ar   98  A98         0.0000
   2026  OP1       27.5620   26.7140    5.4410 O.2    98  A98        -0.5000
   2027  OP2       27.2090   24.3260    6.3230 O.co2  98  A98        -0.5000
   2028  P         24.1990   29.1560    8.8310 P.3    99  C99         0.0000
   2029  C5'       21.8010   29.6630    9.7680 C.3    99  C99         0.0000
   2030  O5'       23.0060   28.9140    9.8600 O.3    99  C99         0.0000
   2031  C4'       20.7500   29.0650   10.6640 C.3    99  C99         0.0000
   2032  O4'       20.4450   27.7190   10.2160 O.3    99  C99         0.0000
   2033  C3'       21.1670   28.8800   12.1100 C.3    99  C99         0.0000
   2034  O3'       20.9890   30.0740   12.8520 O.3    99  C99         0.0000
   2035  C2'       20.2250   27.7820   12.5790 C.3    99  C99         0.0000
   2036  O2'       18.9380   28.2660   12.9100 O.3    99  C99         0.0000
   2037  C1'       20.1650   26.8920   11.3370 C.3    99  C99         0.0000
   2038  N1        21.1550   25.7970   11.3750 N.ar   99  C99         0.0000
   2039  C2        20.8400   24.6170   12.0770 C.ar   99  C99         0.0000
   2040  O2        19.7290   24.5150   12.6300 O.2    99  C99         0.0000
   2041  N3        21.7550   23.6210   12.1300 N.ar   99  C99         0.0000
   2042  C4        22.9350   23.7620   11.5190 C.ar   99  C99         0.0000
   2043  N4        23.8030   22.7550   11.6010 N.pl3  99  C99         0.0000
   2044  C5        23.2760   24.9400   10.7970 C.ar   99  C99         0.0000
   2045  C6        22.3660   25.9220   10.7500 C.ar   99  C99         0.0000
   2046  OP1       24.4810   30.6160    8.7610 O.2    99  C99        -0.5000
   2047  OP2       25.2930   28.2090    9.1740 O.co2  99  C99        -0.5000
   2048  P         21.9120   30.3520   14.1350 P.3   100  U100        0.0000
   2049  C5'       20.1200   29.5270   15.8870 C.3   100  U100        0.0000
   2050  O5'       21.3740   29.3260   15.2330 O.3   100  U100        0.0000
   2051  C4'       19.8330   28.3790   16.8250 C.3   100  U100        0.0000
   2052  O4'       19.7710   27.1500   16.0500 O.3   100  U100        0.0000
   2053  C3'       20.9040   28.1020   17.8670 C.3   100  U100        0.0000
   2054  O3'       20.7730   28.9180   19.0260 O.3   100  U100        0.0000
   2055  C2'       20.6810   26.6290   18.1790 C.3   100  U100        0.0000
   2056  O2'       19.6130   26.3890   19.0760 O.3   100  U100        0.0000
   2057  C1'       20.3440   26.0810   16.7920 C.3   100  U100        0.0000
   2058  N1        21.5180   25.5620   16.0630 N.ar  100  U100        0.0000
   2059  C2        22.0890   24.3660   16.5020 C.ar  100  U100        0.0000
   2060  O2        21.6740   23.7360   17.4620 O.2   100  U100        0.0000
   2061  N3        23.1690   23.9350   15.7760 N.ar  100  U100        0.0000
   2062  C4        23.7320   24.5510   14.6870 C.ar  100  U100        0.0000
   2063  O4        24.7050   24.0330   14.1400 O.2   100  U100        0.0000
   2064  C5        23.0990   25.7730   14.2960 C.ar  100  U100        0.0000
   2065  C6        22.0430   26.2250   14.9790 C.ar  100  U100        0.0000
   2066  OP1       21.6430   31.7410   14.5970 O.3   100  U100       -0.5000
   2067  OP2       23.3000   29.9530   13.7710 O.co2 100  U100       -0.5000
   2068  P         22.0570   29.1720   19.9720 P.3   101  G101        0.0000
   2069  C5'       21.5940   26.9740   21.3320 C.3   101  G101        0.0000
   2070  O5'       22.4730   27.7160   20.4880 O.3   101  G101        0.0000
   2071  C4'       22.1030   25.5610   21.5490 C.3   101  G101        0.0000
   2072  O4'       22.4530   24.9620   20.2770 O.3   101  G101        0.0000
   2073  C3'       23.3650   25.3500   22.3780 C.3   101  G101        0.0000
   2074  O3'       23.0620   25.3980   23.7780 O.3   101  G101        0.0000
   2075  C2'       23.7680   23.9310   21.9750 C.3   101  G101        0.0000
   2076  O2'       23.0330   22.9510   22.6670 O.3   101  G101        0.0000
   2077  C1'       23.3250   23.8720   20.5140 C.3   101  G101        0.0000
   2078  N1        27.0490   21.1240   18.4610 N.ar  101  G101        0.0000
   2079  C2        26.2110   20.8220   19.5000 C.ar  101  G101        0.0000
   2080  N2        26.3730   19.6100   20.0590 N.pl3 101  G101        0.0000
   2081  N3        25.2820   21.6410   19.9610 N.ar  101  G101        0.0000
   2082  C4        25.2590   22.8070   19.2880 C.ar  101  G101        0.0000
   2083  C5        26.0530   23.2090   18.2370 C.ar  101  G101        0.0000
   2084  C6        27.0470   22.3170   17.7520 C.ar  101  G101        0.0000
   2085  O6        27.8540   22.4820   16.8280 O.2   101  G101        0.0000
   2086  N7        25.7130   24.4920   17.8250 N.ar  101  G101        0.0000
   2087  C8        24.7340   24.8390   18.6180 C.ar  101  G101        0.0000
   2088  N9        24.3980   23.8550   19.5200 N.ar  101  G101        0.0000
   2089  OP1       21.6200   29.9580   21.1580 O.3   101  G101       -0.5000
   2090  OP2       23.1440   29.7020   19.0990 O.co2 101  G101       -0.5000
   2091  P         24.2340   25.6900   24.8530 P.3   102  G102        0.0000
   2092  C5'       24.8130   23.1520   24.9100 C.3   102  G102        0.0000
   2093  O5'       25.2530   24.4790   24.6760 O.3   102  G102        0.0000
   2094  C4'       25.7910   22.1410   24.3570 C.3   102  G102        0.0000
   2095  O4'       26.1220   22.4880   22.9810 O.3   102  G102        0.0000
   2096  C3'       27.1170   22.1460   25.1040 C.3   102  G102        0.0000
   2097  O3'       27.4850   20.9400   25.7590 O.3   102  G102        0.0000
   2098  C2'       28.1140   22.9340   24.2630 C.3   102  G102        0.0000
   2099  O2'       29.3530   22.2690   24.1330 O.3   102  G102        0.0000
   2100  C1'       27.4800   22.8700   22.8790 C.3   102  G102        0.0000
   2101  N1        29.6640   24.8980   18.8120 N.ar  102  G102        0.0000
   2102  C2        29.7480   23.6210   19.3060 C.ar  102  G102        0.0000
   2103  N2        30.5260   22.7730   18.6200 N.pl3 102  G102        0.0000
   2104  N3        29.1160   23.2080   20.3880 N.ar  102  G102        0.0000
   2105  C4        28.3770   24.1910   20.9420 C.ar  102  G102        0.0000
   2106  C5        28.2230   25.4960   20.5230 C.ar  102  G102        0.0000
   2107  C6        28.9070   25.9240   19.3680 C.ar  102  G102        0.0000
   2108  O6        28.9000   27.0390   18.8400 O.2   102  G102        0.0000
   2109  N7        27.3700   26.1890   21.3710 N.ar  102  G102        0.0000
   2110  C8        27.0280   25.3080   22.2730 C.ar  102  G102        0.0000
   2111  N9        27.6090   24.0770   22.0710 N.ar  102  G102        0.0000
   2112  OP1       23.6600   25.5840   26.2200 O.3   102  G102       -0.5000
   2113  OP2       24.9200   26.9390   24.4420 O.co2 102  G102       -0.5000
   2114  P         28.4780   20.9870   27.0200 P.3   103  U103        0.0000
   2115  C5'       27.4230   22.0140   29.2240 C.3   103  U103        0.0000
   2116  O5'       27.9590   22.2190   27.9070 O.3   103  U103        0.0000
   2117  C4'       28.5320   22.0640   30.2590 C.3   103  U103        0.0000
   2118  O4'       28.0340   21.5360   31.5250 O.3   103  U103        0.0000
   2119  C3'       29.6940   21.1610   29.8940 C.3   103  U103        0.0000
   2120  O3'       30.9070   21.7640   29.4650 O.3   103  U103        0.0000
   2121  C2'       29.5200   19.8410   30.6400 C.3   103  U103        0.0000
   2122  O2'       30.7040   19.2820   31.1680 O.3   103  U103        0.0000
   2123  C1'       28.5910   20.2520   31.7880 C.3   103  U103        0.0000
   2124  OP1       29.8220   21.3700   26.5050 O.2   103  U103       -0.5000
   2125  OP2       28.3150   19.6880   27.7570 O.co2 103  U103       -0.5000
   2126  P         32.1260   21.9530   30.4970 P.3   104  A104        0.0000
   2127  C5'       33.0730   19.5930   29.9320 C.3   104  A104        0.0000
   2128  O5'       33.2540   20.9920   29.9250 O.3   104  A104        0.0000
   2129  C4'       34.3620   18.9190   29.5940 C.3   104  A104        0.0000
   2130  O4'       34.7830   19.3460   28.2810 O.3   104  A104        0.0000
   2131  C3'       35.5350   19.2760   30.4810 C.3   104  A104        0.0000
   2132  O3'       35.4230   18.4890   31.6630 O.3   104  A104        0.0000
   2133  C2'       36.7110   18.8910   29.5920 C.3   104  A104        0.0000
   2134  O2'       36.9060   17.4990   29.5940 O.3   104  A104        0.0000
   2135  C1'       36.1870   19.2710   28.2030 C.3   104  A104        0.0000
   2136  N1        39.4260   21.4580   24.9160 N.ar  104  A104        0.0000
   2137  C2        39.2110   20.1850   25.2520 C.ar  104  A104        0.0000
   2138  N3        38.3560   19.6830   26.1290 N.ar  104  A104        0.0000
   2139  C4        37.6520   20.6630   26.7090 C.ar  104  A104        0.0000
   2140  C5        37.7620   22.0140   26.4720 C.ar  104  A104        0.0000
   2141  C6        38.7050   22.4180   25.5240 C.ar  104  A104        0.0000
   2142  N6        38.9320   23.6940   25.1940 N.pl3 104  A104        0.0000
   2143  N7        36.8770   22.7220   27.2670 N.ar  104  A104        0.0000
   2144  C8        36.2610   21.7940   27.9520 C.ar  104  A104        0.0000
   2145  N9        36.6740   20.5280   27.6570 N.ar  104  A104        0.0000
   2146  OP1       31.7250   21.4500   31.8530 O.3   104  A104       -0.5000
   2147  OP2       32.6210   23.3600   30.3410 O.co2 104  A104       -0.5000
   2148  P         36.4830   18.6500   32.8580 P.3   105  A105        0.0000
   2149  C5'       39.0090   18.1180   32.8930 C.3   105  A105        0.0000
   2150  O5'       37.7880   18.0380   32.2220 O.3   105  A105        0.0000
   2151  C4'       40.1300   17.8130   31.9480 C.3   105  A105        0.0000
   2152  O4'       39.7750   18.1210   30.5760 O.3   105  A105        0.0000
   2153  C3'       41.2810   18.7260   32.2290 C.3   105  A105        0.0000
   2154  O3'       41.9720   18.2180   33.3290 O.3   105  A105        0.0000
   2155  C2'       42.0280   18.7450   30.9130 C.3   105  A105        0.0000
   2156  O2'       42.8040   17.5920   30.7310 O.3   105  A105        0.0000
   2157  C1'       40.8690   18.7430   29.9210 C.3   105  A105        0.0000
   2158  N1        41.7630   22.7460   26.8420 N.ar  105  A105        0.0000
   2159  C2        42.2480   21.5040   26.8630 C.ar  105  A105        0.0000
   2160  N3        41.9510   20.5000   27.6700 N.ar  105  A105        0.0000
   2161  C4        41.0190   20.8680   28.5600 C.ar  105  A105        0.0000
   2162  C5        40.4190   22.1070   28.6620 C.ar  105  A105        0.0000
   2163  C6        40.8290   23.0860   27.7470 C.ar  105  A105        0.0000
   2164  N6        40.3480   24.3220   27.7280 N.pl3 105  A105        0.0000
   2165  N7        39.4940   22.1220   29.6980 N.ar  105  A105        0.0000
   2166  C8        39.5600   20.9130   30.1960 C.ar  105  A105        0.0000
   2167  N9        40.4810   20.1080   29.5710 N.ar  105  A105        0.0000
   2168  OP1       36.0940   17.7240   33.9320 O.3   105  A105       -0.5000
   2169  OP2       36.6920   20.0720   33.1700 O.co2 105  A105       -0.5000
   2170  P         42.3940   19.2210   34.4800 P.3   106  A106        0.0000
   2171  C5'       44.8450   18.8230   33.6380 C.3   106  A106        0.0000
   2172  O5'       43.8030   19.7490   33.9480 O.3   106  A106        0.0000
   2173  C4'       45.6280   19.2630   32.4250 C.3   106  A106        0.0000
   2174  O4'       44.7160   19.6350   31.3540 O.3   106  A106        0.0000
   2175  C3'       46.4750   20.5090   32.5760 C.3   106  A106        0.0000
   2176  O3'       47.6820   20.2330   33.2570 O.3   106  A106        0.0000
   2177  C2'       46.7130   20.8830   31.1220 C.3   106  A106        0.0000
   2178  O2'       47.6650   20.0710   30.4790 O.3   106  A106        0.0000
   2179  C1'       45.3380   20.6010   30.5220 C.3   106  A106        0.0000
   2180  N1        44.1900   24.8100   27.8840 N.ar  106  A106        0.0000
   2181  C2        44.9530   23.7530   27.6160 C.ar  106  A106        0.0000
   2182  N3        45.1970   22.6800   28.3560 N.ar  106  A106        0.0000
   2183  C4        44.5370   22.7520   29.5210 C.ar  106  A106        0.0000
   2184  C5        43.7180   23.7730   29.9470 C.ar  106  A106        0.0000
   2185  C6        43.5510   24.8640   29.0610 C.ar  106  A106        0.0000
   2186  N6        42.8070   25.9440   29.3200 N.pl3 106  A106        0.0000
   2187  N7        43.2120   23.4940   31.2110 N.ar  106  A106        0.0000
   2188  C8        43.7290   22.3300   31.5100 C.ar  106  A106        0.0000
   2189  N9        44.5490   21.8290   30.5360 N.ar  106  A106        0.0000
   2190  OP1       42.5790   18.4570   35.7480 O.3   106  A106       -0.5000
   2191  OP2       41.3790   20.3160   34.4210 O.co2 106  A106       -0.5000
   2192  P         48.0250   21.0290   34.6030 P.3   107  A107        0.0000
   2193  C5'       48.7210   23.0840   33.1730 C.3   107  A107        0.0000
   2194  O5'       47.8770   22.5570   34.1830 O.3   107  A107        0.0000
   2195  C4'       48.2530   24.4450   32.7290 C.3   107  A107        0.0000
   2196  O4'       46.8830   24.3600   32.2650 O.3   107  A107        0.0000
   2197  C3'       48.1910   25.5490   33.7660 C.3   107  A107        0.0000
   2198  O3'       49.4860   26.0940   34.0260 O.3   107  A107        0.0000
   2199  C2'       47.2890   26.5550   33.0580 C.3   107  A107        0.0000
   2200  O2'       47.9470   27.3080   32.0630 O.3   107  A107        0.0000
   2201  C1'       46.2730   25.6360   32.3750 C.3   107  A107        0.0000
   2202  N1        42.1420   28.1450   33.9540 N.ar  107  A107        0.0000
   2203  C2        43.0590   28.4090   33.0340 C.ar  107  A107        0.0000
   2204  N3        44.0800   27.6720   32.6340 N.ar  107  A107        0.0000
   2205  C4        44.1190   26.5130   33.3020 C.ar  107  A107        0.0000
   2206  C5        43.2410   26.0890   34.2750 C.ar  107  A107        0.0000
   2207  C6        42.2050   26.9720   34.6140 C.ar  107  A107        0.0000
   2208  N6        41.2900   26.7210   35.5570 N.pl3 107  A107        0.0000
   2209  N7        43.5920   24.8240   34.7380 N.ar  107  A107        0.0000
   2210  C8        44.6710   24.5270   34.0510 C.ar  107  A107        0.0000
   2211  N9        45.0680   25.5270   33.1940 N.ar  107  A107        0.0000
   2212  OP1       49.4540   20.8110   34.8880 O.2   107  A107       -0.5000
   2213  OP2       47.0160   20.6610   35.6210 O.co2 107  A107       -0.5000
   2214  P         50.1220   25.9770   35.5060 P.3   108  C108        0.0000
   2215  C5'       48.6210   27.9450   36.3680 C.3   108  C108        0.0000
   2216  O5'       49.0030   26.5800   36.4680 O.3   108  C108        0.0000
   2217  C4'       47.4420   28.2240   37.2540 C.3   108  C108        0.0000
   2218  O4'       46.2670   27.5890   36.7110 O.3   108  C108        0.0000
   2219  C3'       47.5440   27.6740   38.6570 C.3   108  C108        0.0000
   2220  O3'       48.2420   28.5810   39.4780 O.3   108  C108        0.0000
   2221  C2'       46.0880   27.6100   39.0660 C.3   108  C108        0.0000
   2222  O2'       45.5960   28.8900   39.3460 O.3   108  C108        0.0000
   2223  C1'       45.4440   27.1370   37.7690 C.3   108  C108        0.0000
   2224  N1        45.3210   25.6700   37.6850 N.ar  108  C108        0.0000
   2225  C2        44.2280   25.0680   38.2760 C.ar  108  C108        0.0000
   2226  O2        43.4270   25.7670   38.8830 O.2   108  C108        0.0000
   2227  N3        44.0660   23.7410   38.1760 N.ar  108  C108        0.0000
   2228  C4        44.9600   23.0090   37.5170 C.ar  108  C108        0.0000
   2229  N4        44.7450   21.7040   37.4280 N.pl3 108  C108        0.0000
   2230  C5        46.1110   23.5880   36.9160 C.ar  108  C108        0.0000
   2231  C6        46.2520   24.9140   37.0250 C.ar  108  C108        0.0000
   2232  OP1       51.2990   26.8710   35.5810 O.2   108  C108       -0.5000
   2233  OP2       50.2700   24.5380   35.8620 O.co2 108  C108       -0.5000
   2234  P         49.1050   28.0300   40.7090 P.3   109  C109        0.0000
   2235  C5'       47.0950   28.5210   42.3300 C.3   109  C109        0.0000
   2236  O5'       48.0190   27.5880   41.7900 O.3   109  C109        0.0000
   2237  C4'       46.0930   27.8170   43.2160 C.3   109  C109        0.0000
   2238  O4'       45.1970   27.0200   42.4100 O.3   109  C109        0.0000
   2239  C3'       46.6730   26.8160   44.1920 C.3   109  C109        0.0000
   2240  O3'       47.0850   27.4380   45.3750 O.3   109  C109        0.0000
   2241  C2'       45.4870   25.9320   44.4960 C.3   109  C109        0.0000
   2242  O2'       44.6300   26.5490   45.4160 O.3   109  C109        0.0000
   2243  C1'       44.8180   25.8550   43.1320 C.3   109  C109        0.0000
   2244  N1        45.2420   24.6690   42.3770 N.ar  109  C109        0.0000
   2245  C2        44.6330   23.4580   42.6550 C.ar  109  C109        0.0000
   2246  O2        43.7970   23.4100   43.5490 O.2   109  C109        0.0000
   2247  N3        44.9690   22.3660   41.9460 N.ar  109  C109        0.0000
   2248  C4        45.8850   22.4520   40.9930 C.ar  109  C109        0.0000
   2249  N4        46.1760   21.3520   40.3140 N.pl3 109  C109        0.0000
   2250  C5        46.5430   23.6760   40.6960 C.ar  109  C109        0.0000
   2251  C6        46.1990   24.7490   41.4100 C.ar  109  C109        0.0000
   2252  OP1       49.8930   29.1670   41.2400 O.3   109  C109       -0.5000
   2253  OP2       49.8000   26.8130   40.2100 O.co2 109  C109       -0.5000
   2254  P         48.1580   26.7070   46.3030 P.3   110  A110        0.0000
   2255  C5'       46.3410   25.7190   47.9090 C.3   110  A110        0.0000
   2256  O5'       47.3430   25.4940   46.9350 O.3   110  A110        0.0000
   2257  C4'       45.7220   24.4110   48.3240 C.3   110  A110        0.0000
   2258  O4'       45.0830   23.7910   47.1760 O.3   110  A110        0.0000
   2259  C3'       46.7000   23.3550   48.8200 C.3   110  A110        0.0000
   2260  O3'       47.0190   23.5380   50.1990 O.3   110  A110        0.0000
   2261  C2'       45.9180   22.0710   48.5830 C.3   110  A110        0.0000
   2262  O2'       44.9110   21.8780   49.5550 O.3   110  A110        0.0000
   2263  C1'       45.2420   22.3800   47.2480 C.3   110  A110        0.0000
   2264  N1        46.1400   18.5260   43.9340 N.ar  110  A110        0.0000
   2265  C2        45.4470   18.5800   45.0710 C.ar  110  A110        0.0000
   2266  N3        45.2820   19.5950   45.9160 N.ar  110  A110        0.0000
   2267  C4        45.9430   20.6760   45.4870 C.ar  110  A110        0.0000
   2268  C5        46.7100   20.7680   44.3420 C.ar  110  A110        0.0000
   2269  C6        46.7960   19.6270   43.5320 C.ar  110  A110        0.0000
   2270  N6        47.4830   19.5800   42.3920 N.pl3 110  A110        0.0000
   2271  N7        47.2510   22.0350   44.2170 N.ar  110  A110        0.0000
   2272  C8        46.7950   22.6780   45.2670 C.ar  110  A110        0.0000
   2273  N9        45.9750   21.9270   46.0630 N.ar  110  A110        0.0000
   2274  OP1       48.5130   27.6740   47.3850 O.3   110  A110       -0.5000
   2275  OP2       49.2360   26.1320   45.4300 O.co2 110  A110       -0.5000
   2276  P         48.4070   22.9700   50.7790 P.3   111  C111        0.0000
   2277  C5'       47.3380   20.7670   51.6640 C.3   111  C111        0.0000
   2278  O5'       48.2070   21.3960   50.7490 O.3   111  C111        0.0000
   2279  C4'       47.2740   19.2970   51.3770 C.3   111  C111        0.0000
   2280  O4'       46.6530   19.0790   50.0910 O.3   111  C111        0.0000
   2281  C3'       48.6110   18.6170   51.2250 C.3   111  C111        0.0000
   2282  O3'       49.1290   18.2700   52.4800 O.3   111  C111        0.0000
   2283  C2'       48.2280   17.3680   50.4650 C.3   111  C111        0.0000
   2284  O2'       47.5620   16.4410   51.2900 O.3   111  C111        0.0000
   2285  C1'       47.2210   17.9340   49.4790 C.3   111  C111        0.0000
   2286  N1        47.8680   18.3210   48.2170 N.ar  111  C111        0.0000
   2287  C2        48.0470   17.3400   47.2440 C.ar  111  C111        0.0000
   2288  O2        47.6330   16.1900   47.4610 O.2   111  C111        0.0000
   2289  N3        48.6630   17.6630   46.0940 N.ar  111  C111        0.0000
   2290  C4        49.0900   18.9030   45.8950 C.ar  111  C111        0.0000
   2291  N4        49.6960   19.1560   44.7600 N.pl3 111  C111        0.0000
   2292  C5        48.9120   19.9270   46.8570 C.ar  111  C111        0.0000
   2293  C6        48.3000   19.5990   47.9950 C.ar  111  C111        0.0000
   2294  OP1       48.4990   23.4020   52.1950 O.3   111  C111       -0.5000
   2295  OP2       49.5180   23.2890   49.8390 O.co2 111  C111       -0.5000
   2296  P         50.6980   18.0330   52.6300 P.3   112  A112        0.0000
   2297  C5'       50.5620   15.4870   52.0990 C.3   112  A112        0.0000
   2298  O5'       50.9960   16.7750   51.6930 O.3   112  A112        0.0000
   2299  C4'       51.0360   14.4310   51.1400 C.3   112  A112        0.0000
   2300  O4'       50.3330   14.5380   49.8810 O.3   112  A112        0.0000
   2301  C3'       52.4910   14.4760   50.7360 C.3   112  A112        0.0000
   2302  O3'       53.3260   13.9340   51.7430 O.3   112  A112        0.0000
   2303  C2'       52.4510   13.6090   49.4900 C.3   112  A112        0.0000
   2304  O2'       52.2590   12.2460   49.8020 O.3   112  A112        0.0000
   2305  C1'       51.1870   14.1440   48.8240 C.3   112  A112        0.0000
   2306  N1        52.8960   15.7150   44.2540 N.ar  112  A112        0.0000
   2307  C2        52.6790   14.5120   44.7710 C.ar  112  A112        0.0000
   2308  N3        52.2180   14.1790   45.9750 N.ar  112  A112        0.0000
   2309  C4        51.9600   15.2730   46.7080 C.ar  112  A112        0.0000
   2310  C5        52.1320   16.5850   46.3190 C.ar  112  A112        0.0000
   2311  C6        52.6280   16.7980   45.0110 C.ar  112  A112        0.0000
   2312  N6        52.8400   18.0040   44.4830 N.pl3 112  A112        0.0000
   2313  N7        51.7620   17.4540   47.3420 N.ar  112  A112        0.0000
   2314  C8        51.3780   16.6550   48.3120 C.ar  112  A112        0.0000
   2315  N9        51.4810   15.3190   47.9970 N.ar  112  A112        0.0000
   2316  OP1       50.9740   17.6380   54.0500 O.3   112  A112       -0.5000
   2317  OP2       51.3380   19.2540   52.0530 O.co2 112  A112       -0.5000
   2318  P         54.8160   14.5060   51.9380 P.3   113  G113        0.0000
   2319  C5'       55.7370   12.5200   50.4820 C.3   113  G113        0.0000
   2320  O5'       55.6100   13.9230   50.6810 O.3   113  G113        0.0000
   2321  C4'       56.3630   12.2290   49.1420 C.3   113  G113        0.0000
   2322  O4'       55.5000   12.7280   48.0880 O.3   113  G113        0.0000
   2323  C3'       57.6780   12.9210   48.8260 C.3   113  G113        0.0000
   2324  O3'       58.7930   12.3370   49.4780 O.3   113  G113        0.0000
   2325  C2'       57.7440   12.7820   47.3110 C.3   113  G113        0.0000
   2326  O2'       58.1230   11.4970   46.8590 O.3   113  G113        0.0000
   2327  C1'       56.2860   13.0300   46.9360 C.3   113  G113        0.0000
   2328  N1        56.7590   16.5200   43.2760 N.ar  113  G113        0.0000
   2329  C2        57.0480   15.1920   43.2440 C.ar  113  G113        0.0000
   2330  N2        57.5390   14.7500   42.0960 N.pl3 113  G113        0.0000
   2331  N3        56.8670   14.3620   44.2620 N.ar  113  G113        0.0000
   2332  C4        56.3540   14.9930   45.3390 C.ar  113  G113        0.0000
   2333  C5        56.0210   16.3180   45.4720 C.ar  113  G113        0.0000
   2334  C6        56.2310   17.1940   44.3650 C.ar  113  G113        0.0000
   2335  O6        56.0110   18.4090   44.2830 O.2   113  G113        0.0000
   2336  N7        55.5180   16.5720   46.7410 N.ar  113  G113        0.0000
   2337  C8        55.5620   15.4170   47.3460 C.ar  113  G113        0.0000
   2338  N9        56.0680   14.4200   46.5600 N.ar  113  G113        0.0000
   2339  OP1       55.3190   13.8720   53.1860 O.3   113  G113       -0.5000
   2340  OP2       54.7990   15.9960   51.8220 O.co2 113  G113       -0.5000
   2341  P         59.9550   13.2910   50.0520 P.3   114  G114        0.0000
   2342  C5'       61.3500   12.7480   47.9200 C.3   114  G114        0.0000
   2343  O5'       60.7380   13.7300   48.7400 O.3   114  G114        0.0000
   2344  C4'       61.8980   13.3670   46.6570 C.3   114  G114        0.0000
   2345  O4'       60.8220   13.7840   45.7800 O.3   114  G114        0.0000
   2346  C3'       62.7380   14.6220   46.8000 C.3   114  G114        0.0000
   2347  O3'       64.0620   14.3050   47.2350 O.3   114  G114        0.0000
   2348  C2'       62.7230   15.1410   45.3660 C.3   114  G114        0.0000
   2349  O2'       63.6500   14.4470   44.5430 O.3   114  G114        0.0000
   2350  C1'       61.2790   14.8280   44.9430 C.3   114  G114        0.0000
   2351  N1        59.4880   19.1210   42.9270 N.ar  114  G114        0.0000
   2352  C2        60.2170   18.1300   42.3270 C.ar  114  G114        0.0000
   2353  N2        60.5600   18.3390   41.0400 N.pl3 114  G114        0.0000
   2354  N3        60.5840   17.0160   42.9390 N.ar  114  G114        0.0000
   2355  C4        60.1510   16.9760   44.2160 C.ar  114  G114        0.0000
   2356  C5        59.4090   17.9130   44.8970 C.ar  114  G114        0.0000
   2357  C6        59.0360   19.1000   44.2380 C.ar  114  G114        0.0000
   2358  O6        58.4010   20.0560   44.6830 O.2   114  G114        0.0000
   2359  N7        59.1550   17.4910   46.1940 N.ar  114  G114        0.0000
   2360  C8        59.7510   16.3330   46.2800 C.ar  114  G114        0.0000
   2361  N9        60.4090   15.9810   45.1310 N.ar  114  G114        0.0000
   2362  OP1       60.8560   12.4720   50.9010 O.3   114  G114       -0.5000
   2363  OP2       59.3320   14.5090   50.6300 O.co2 114  G114       -0.5000
   2364  P         64.7940   15.2400   48.3200 P.3   115  C115        0.0000
   2365  C5'       65.0390   17.8440   48.4960 C.3   115  C115        0.0000
   2366  O5'       64.6970   16.7090   47.7130 O.3   115  C115        0.0000
   2367  C4'       65.8140   18.8460   47.6700 C.3   115  C115        0.0000
   2368  O4'       67.1100   18.3070   47.3170 O.3   115  C115        0.0000
   2369  C3'       65.1970   19.2220   46.3400 C.3   115  C115        0.0000
   2370  O3'       64.2420   20.2470   46.5420 O.3   115  C115        0.0000
   2371  C2'       66.3900   19.7350   45.5510 C.3   115  C115        0.0000
   2372  O2'       66.6790   21.0720   45.8760 O.3   115  C115        0.0000
   2373  C1'       67.5190   18.8380   46.0660 C.3   115  C115        0.0000
   2374  N1        67.8830   17.7190   45.1760 N.ar  115  C115        0.0000
   2375  C2        68.6690   17.9750   44.0380 C.ar  115  C115        0.0000
   2376  O2        69.0280   19.1510   43.7940 O.2   115  C115        0.0000
   2377  N3        69.0160   16.9370   43.2350 N.ar  115  C115        0.0000
   2378  C4        68.6090   15.6980   43.5260 C.ar  115  C115        0.0000
   2379  N4        68.9780   14.7060   42.7160 N.pl3 115  C115        0.0000
   2380  C5        67.8070   15.4170   44.6640 C.ar  115  C115        0.0000
   2381  C6        67.4700   16.4440   45.4530 C.ar  115  C115        0.0000
   2382  OP1       66.2140   14.8410   48.2590 O.2   115  C115       -0.5000
   2383  OP2       64.0630   15.1850   49.6210 O.co2 115  C115       -0.5000
   2384  P         62.8010   20.1130   45.8660 P.3   116  G116        0.0000
   2385  C5'       63.6320   21.6070   43.9060 C.3   116  G116        0.0000
   2386  O5'       63.0910   20.3780   44.3290 O.3   116  G116        0.0000
   2387  C4'       64.2660   21.4380   42.5640 C.3   116  G116        0.0000
   2388  O4'       65.2800   20.4190   42.6670 O.3   116  G116        0.0000
   2389  C3'       63.3350   20.9420   41.4820 C.3   116  G116        0.0000
   2390  O3'       62.7060   22.0650   40.8960 O.3   116  G116        0.0000
   2391  C2'       64.2910   20.2620   40.5140 C.3   116  G116        0.0000
   2392  O2'       64.8920   21.1770   39.6310 O.3   116  G116        0.0000
   2393  C1'       65.3410   19.6820   41.4670 C.3   116  G116        0.0000
   2394  N1        66.6110   14.8920   40.4520 N.ar  116  G116        0.0000
   2395  C2        66.9960   16.0460   39.8240 C.ar  116  G116        0.0000
   2396  N2        67.8370   15.9200   38.7990 N.pl3 116  G116        0.0000
   2397  N3        66.5860   17.2400   40.1740 N.ar  116  G116        0.0000
   2398  C4        65.7420   17.1970   41.2180 C.ar  116  G116        0.0000
   2399  C5        65.2940   16.1010   41.9160 C.ar  116  G116        0.0000
   2400  C6        65.7420   14.8230   41.5340 C.ar  116  G116        0.0000
   2401  O6        65.4600   13.7230   42.0350 O.2   116  G116        0.0000
   2402  N7        64.4310   16.4830   42.9320 N.ar  116  G116        0.0000
   2403  C8        64.3690   17.7840   42.8330 C.ar  116  G116        0.0000
   2404  N9        65.1500   18.2810   41.8180 N.ar  116  G116        0.0000
   2405  OP1       61.8810   21.1580   46.3980 O.3   116  G116       -0.5000
   2406  OP2       62.4330   18.6800   45.9630 O.co2 116  G116       -0.5000
   2407  P         61.2580   21.9170   40.2430 P.3   117  A117        0.0000
   2408  C5'       61.8820   22.1970   37.7000 C.3   117  A117        0.0000
   2409  O5'       61.5640   21.3300   38.7920 O.3   117  A117        0.0000
   2410  C4'       62.3880   21.3940   36.5210 C.3   117  A117        0.0000
   2411  O4'       63.4030   20.4860   37.0110 O.3   117  A117        0.0000
   2412  C3'       61.3660   20.4820   35.8720 C.3   117  A117        0.0000
   2413  O3'       60.6670   21.1620   34.8480 O.3   117  A117        0.0000
   2414  C2'       62.2250   19.3840   35.2700 C.3   117  A117        0.0000
   2415  O2'       62.7510   19.7370   34.0230 O.3   117  A117        0.0000
   2416  C1'       63.3490   19.2720   36.2930 C.3   117  A117        0.0000
   2417  N1        64.8190   14.5790   37.7010 N.ar  117  A117        0.0000
   2418  C2        65.2300   15.3890   36.7260 C.ar  117  A117        0.0000
   2419  N3        64.8040   16.6060   36.4140 N.ar  117  A117        0.0000
   2420  C4        63.8270   16.9960   37.2510 C.ar  117  A117        0.0000
   2421  C5        63.3050   16.2770   38.3010 C.ar  117  A117        0.0000
   2422  C6        63.8360   15.0020   38.5240 C.ar  117  A117        0.0000
   2423  N6        63.4270   14.1930   39.4980 N.pl3 117  A117        0.0000
   2424  N7        62.3190   17.0030   38.9490 N.ar  117  A117        0.0000
   2425  C8        62.2690   18.1250   38.2830 C.ar  117  A117        0.0000
   2426  N9        63.1500   18.1860   37.2420 N.ar  117  A117        0.0000
   2427  OP1       60.6510   23.2520   40.0500 O.2   117  A117       -0.5000
   2428  OP2       60.5330   20.9030   41.0470 O.co2 117  A117       -0.5000
   2429  P         59.1240   21.5670   35.0630 P.3   118  C118        0.0000
   2430  C5'       58.5440   19.0630   34.4270 C.3   118  C118        0.0000
   2431  O5'       58.3360   20.1900   35.2710 O.3   118  C118        0.0000
   2432  C4'       58.5080   17.7830   35.2460 C.3   118  C118        0.0000
   2433  O4'       59.1870   18.0380   36.5040 O.3   118  C118        0.0000
   2434  C3'       57.1730   17.2430   35.7300 C.3   118  C118        0.0000
   2435  O3'       56.4940   16.5030   34.7210 O.3   118  C118        0.0000
   2436  C2'       57.6050   16.3300   36.8750 C.3   118  C118        0.0000
   2437  O2'       58.1590   15.0920   36.4910 O.3   118  C118        0.0000
   2438  C1'       58.7280   17.1410   37.4950 C.3   118  C118        0.0000
   2439  N1        58.2470   17.9000   38.6430 N.ar  118  C118        0.0000
   2440  C2        57.9750   17.2070   39.8140 C.ar  118  C118        0.0000
   2441  O2        58.1670   15.9860   39.8410 O.2   118  C118        0.0000
   2442  N3        57.5010   17.8750   40.8810 N.ar  118  C118        0.0000
   2443  C4        57.2920   19.1880   40.8010 C.ar  118  C118        0.0000
   2444  N4        56.8040   19.8000   41.8710 N.pl3 118  C118        0.0000
   2445  C5        57.5700   19.9250   39.6200 C.ar  118  C118        0.0000
   2446  C6        58.0460   19.2490   38.5740 C.ar  118  C118        0.0000
   2447  OP1       58.6850   22.2600   33.8210 O.2   118  C118       -0.5000
   2448  OP2       59.0300   22.2840   36.3680 O.co2 118  C118       -0.5000
   2449  P         54.9170   16.2450   34.8650 P.3   119  U119        0.0000
   2450  C5'       55.4180   13.9070   35.9120 C.3   119  U119        0.0000
   2451  O5'       54.8260   15.1810   36.0380 O.3   119  U119        0.0000
   2452  C4'       55.1870   13.1110   37.1750 C.3   119  U119        0.0000
   2453  O4'       55.8130   13.7930   38.2930 O.3   119  U119        0.0000
   2454  C3'       53.7470   12.9690   37.6370 C.3   119  U119        0.0000
   2455  O3'       53.0600   11.9390   36.9390 O.3   119  U119        0.0000
   2456  C2'       53.9340   12.6130   39.0980 C.3   119  U119        0.0000
   2457  O2'       54.4030   11.2900   39.2020 O.3   119  U119        0.0000
   2458  C1'       55.0780   13.5450   39.4810 C.3   119  U119        0.0000
   2459  N1        54.6660   14.8360   40.0590 N.ar  119  U119        0.0000
   2460  C2        54.2990   14.8700   41.4010 C.ar  119  U119        0.0000
   2461  O2        54.2880   13.8790   42.1260 O.2   119  U119        0.0000
   2462  N3        53.9450   16.1060   41.8680 N.ar  119  U119        0.0000
   2463  C4        53.9200   17.2810   41.1570 C.ar  119  U119        0.0000
   2464  O4        53.5610   18.3230   41.7160 O.2   119  U119        0.0000
   2465  C5        54.3100   17.1600   39.7880 C.ar  119  U119        0.0000
   2466  C6        54.6550   15.9730   39.3010 C.ar  119  U119        0.0000
   2467  OP1       54.3560   15.6430   33.6300 O.2   119  U119       -0.5000
   2468  OP2       54.3560   17.5280   35.3750 O.co2 119  U119       -0.5000
   2469  P         51.4710   12.0560   36.7320 P.3   120  G120        0.0000
   2470  C5'       50.9610   10.2620   38.5360 C.3   120  G120        0.0000
   2471  O5'       50.8740   11.6010   38.1320 O.3   120  G120        0.0000
   2472  C4'       50.4020   10.1190   39.9080 C.3   120  G120        0.0000
   2473  O4'       51.1550   10.9580   40.8090 O.3   120  G120        0.0000
   2474  C3'       48.9820   10.6060   40.0920 C.3   120  G120        0.0000
   2475  O3'       48.0830    9.6140   39.6500 O.3   120  G120        0.0000
   2476  C2'       48.9360   10.7990   41.5990 C.3   120  G120        0.0000
   2477  O2'       48.8760    9.5860   42.3310 O.3   120  G120        0.0000
   2478  C1'       50.3070   11.4320   41.8420 C.3   120  G120        0.0000
   2479  N1        49.3800   15.7680   44.3030 N.ar  120  G120        0.0000
   2480  C2        49.2410   14.4760   44.7460 C.ar  120  G120        0.0000
   2481  N2        48.8120   14.3270   46.0060 N.pl3 120  G120        0.0000
   2482  N3        49.5020   13.4150   44.0070 N.ar  120  G120        0.0000
   2483  C4        49.9250   13.7570   42.7770 C.ar  120  G120        0.0000
   2484  C5        50.0910   15.0140   42.2440 C.ar  120  G120        0.0000
   2485  C6        49.8070   16.1360   43.0340 C.ar  120  G120        0.0000
   2486  O6        49.8950   17.3380   42.7260 O.2   120  G120        0.0000
   2487  N7        50.5320   14.9400   40.9360 N.ar  120  G120        0.0000
   2488  C8        50.6330   13.6610   40.7000 C.ar  120  G120        0.0000
   2489  N9        50.2880   12.8890   41.7760 N.ar  120  G120        0.0000
   2490  OP1       51.0810   11.0890   35.6650 O.2   120  G120       -0.5000
   2491  OP2       51.0940   13.4960   36.6040 O.co2 120  G120       -0.5000
   2492  P         46.6950   10.0390   38.9800 P.3   121  U121        0.0000
   2493  C5'       45.4530    9.8590   41.2460 C.3   121  U121        0.0000
   2494  O5'       45.9290   10.7000   40.2070 O.3   121  U121        0.0000
   2495  C4'       44.9140   10.6580   42.4020 C.3   121  U121        0.0000
   2496  O4'       45.9660   11.4550   42.9770 O.3   121  U121        0.0000
   2497  C3'       43.8030   11.6530   42.1340 C.3   121  U121        0.0000
   2498  O3'       42.5520   10.9730   42.0680 O.3   121  U121        0.0000
   2499  C2'       43.9020   12.5110   43.3810 C.3   121  U121        0.0000
   2500  O2'       43.3970   11.8260   44.5080 O.3   121  U121        0.0000
   2501  C1'       45.4160   12.6280   43.5390 C.3   121  U121        0.0000
   2502  N1        45.9740   13.7950   42.8370 N.ar  121  U121        0.0000
   2503  C2        45.9240   15.0070   43.4870 C.ar  121  U121        0.0000
   2504  O2        45.4590   15.1410   44.6080 O.2   121  U121        0.0000
   2505  N3        46.4330   16.0660   42.7800 N.ar  121  U121        0.0000
   2506  C4        46.9720   16.0420   41.5240 C.ar  121  U121        0.0000
   2507  O4        47.3650   17.0920   41.0230 O.2   121  U121        0.0000
   2508  C5        47.0020   14.7600   40.9140 C.ar  121  U121        0.0000
   2509  C6        46.5160   13.7030   41.5720 C.ar  121  U121        0.0000
   2510  OP1       46.0270    8.7600   38.6450 O.3   121  U121       -0.5000
   2511  OP2       46.9200   11.0370   37.9070 O.co2 121  U121       -0.5000
   2512  P         41.2500   11.7300   41.5030 P.3   122  G122        0.0000
   2513  C5'       40.4370   12.6950   43.7910 C.3   122  G122        0.0000
   2514  O5'       41.0680   12.9220   42.5370 O.3   122  G122        0.0000
   2515  C4'       40.1680   13.9980   44.4770 C.3   122  G122        0.0000
   2516  O4'       41.4300   14.6230   44.8020 O.3   122  G122        0.0000
   2517  C3'       39.4570   15.0400   43.6420 C.3   122  G122        0.0000
   2518  O3'       38.0620   14.8620   43.7020 O.3   122  G122        0.0000
   2519  C2'       39.8480   16.3130   44.3570 C.3   122  G122        0.0000
   2520  O2'       39.1000   16.4400   45.5420 O.3   122  G122        0.0000
   2521  C1'       41.3120   16.0240   44.6770 C.3   122  G122        0.0000
   2522  N1        43.6320   19.9000   42.4980 N.ar  122  G122        0.0000
   2523  C2        42.9160   19.8600   43.6470 C.ar  122  G122        0.0000
   2524  N2        42.7700   21.0200   44.3010 N.pl3 122  G122        0.0000
   2525  N3        42.3770   18.7720   44.1310 N.ar  122  G122        0.0000
   2526  C4        42.6160   17.7090   43.3550 C.ar  122  G122        0.0000
   2527  C5        43.3230   17.6440   42.1870 C.ar  122  G122        0.0000
   2528  C6        43.8930   18.8200   41.6810 C.ar  122  G122        0.0000
   2529  O6        44.5530   18.9760   40.6470 O.2   122  G122        0.0000
   2530  N7        43.3370   16.3480   41.6900 N.ar  122  G122        0.0000
   2531  C8        42.6450   15.6680   42.5590 C.ar  122  G122        0.0000
   2532  N9        42.1660   16.4430   43.5810 N.ar  122  G122        0.0000
   2533  OP1       40.1000   10.7910   41.6490 O.3   122  G122       -0.5000
   2534  OP2       41.5190   12.3440   40.1840 O.co2 122  G122       -0.5000
   2535  P         37.1310   15.5770   42.6140 P.3   123  G123        0.0000
   2536  C5'       36.8640   17.8100   43.9550 C.3   123  G123        0.0000
   2537  O5'       37.3950   17.1360   42.8270 O.3   123  G123        0.0000
   2538  C4'       37.1970   19.2780   43.9030 C.3   123  G123        0.0000
   2539  O4'       38.6350   19.4570   43.9710 O.3   123  G123        0.0000
   2540  C3'       36.8000   20.0400   42.6550 C.3   123  G123        0.0000
   2541  O3'       35.4390   20.4350   42.7270 O.3   123  G123        0.0000
   2542  C2'       37.6970   21.2580   42.7830 C.3   123  G123        0.0000
   2543  O2'       37.2350   22.1260   43.7970 O.3   123  G123        0.0000
   2544  C1'       39.0090   20.6140   43.2350 C.3   123  G123        0.0000
   2545  N1        42.2150   22.0540   39.5520 N.ar  123  G123        0.0000
   2546  C2        41.7230   22.7870   40.5980 C.ar  123  G123        0.0000
   2547  N2        42.0930   24.0620   40.6410 N.pl3 123  G123        0.0000
   2548  N3        40.9270   22.3000   41.5320 N.ar  123  G123        0.0000
   2549  C4        40.6580   20.9950   41.3290 C.ar  123  G123        0.0000
   2550  C5        41.1070   20.1790   40.3180 C.ar  123  G123        0.0000
   2551  C6        41.9520   20.7070   39.3300 C.ar  123  G123        0.0000
   2552  O6        42.4430   20.1250   38.3500 O.2   123  G123        0.0000
   2553  N7        40.6110   18.9020   40.4620 N.ar  123  G123        0.0000
   2554  C8        39.8700   18.9600   41.5320 C.ar  123  G123        0.0000
   2555  N9        39.8270   20.2040   42.0920 N.ar  123  G123        0.0000
   2556  OP1       35.7250   15.2700   43.0230 O.3   123  G123       -0.5000
   2557  OP2       37.6120   15.2150   41.2470 O.co2 123  G123       -0.5000
   2558  P         34.6240   20.7990   41.3850 P.3   124  C124        0.0000
   2559  C5'       35.4450   23.2660   41.4530 C.3   124  C124        0.0000
   2560  O5'       35.4100   22.0370   40.7460 O.3   124  C124        0.0000
   2561  C4'       36.2390   24.3360   40.7360 C.3   124  C124        0.0000
   2562  O4'       37.6530   24.0140   40.6490 O.3   124  C124        0.0000
   2563  C3'       35.9510   24.7760   39.3150 C.3   124  C124        0.0000
   2564  O3'       34.7380   25.4940   39.2000 O.3   124  C124        0.0000
   2565  C2'       37.1230   25.7340   39.1100 C.3   124  C124        0.0000
   2566  O2'       36.9330   26.9360   39.8220 O.3   124  C124        0.0000
   2567  C1'       38.2630   24.9850   39.8100 C.3   124  C124        0.0000
   2568  N1        39.1770   24.3520   38.8510 N.ar  124  C124        0.0000
   2569  C2        40.1680   25.1440   38.2650 C.ar  124  C124        0.0000
   2570  O2        40.2870   26.3300   38.6260 O.2   124  C124        0.0000
   2571  N3        40.9730   24.6040   37.3270 N.ar  124  C124        0.0000
   2572  C4        40.8310   23.3280   36.9830 C.ar  124  C124        0.0000
   2573  N4        41.6450   22.8400   36.0520 N.pl3 124  C124        0.0000
   2574  C5        39.8500   22.4960   37.5790 C.ar  124  C124        0.0000
   2575  C6        39.0540   23.0410   38.5050 C.ar  124  C124        0.0000
   2576  OP1       33.2890   21.2580   41.8710 O.3   124  C124       -0.5000
   2577  OP2       34.7010   19.6570   40.4460 O.co2 124  C124       -0.5000
   2578  P         33.9420   25.5190   37.7880 P.3   125  A125        0.0000
   2579  C5'       34.6820   27.9380   37.0420 C.3   125  A125        0.0000
   2580  O5'       34.7740   26.5230   36.8640 O.3   125  A125        0.0000
   2581  C4'       35.3550   28.6730   35.8960 C.3   125  A125        0.0000
   2582  O4'       36.7870   28.4680   35.9300 O.3   125  A125        0.0000
   2583  C3'       34.9530   28.2760   34.4920 C.3   125  A125        0.0000
   2584  O3'       33.7810   28.9660   34.0990 O.3   125  A125        0.0000
   2585  C2'       36.1320   28.7760   33.6780 C.3   125  A125        0.0000
   2586  O2'       36.0650   30.1580   33.3900 O.3   125  A125        0.0000
   2587  C1'       37.3010   28.4810   34.6150 C.3   125  A125        0.0000
   2588  N1        40.5140   25.8070   31.6320 N.ar  125  A125        0.0000
   2589  C2        40.1900   27.0910   31.6580 C.ar  125  A125        0.0000
   2590  N3        39.3620   27.7300   32.4690 N.ar  125  A125        0.0000
   2591  C4        38.8130   26.8840   33.3490 C.ar  125  A125        0.0000
   2592  C5        39.0510   25.5360   33.4460 C.ar  125  A125        0.0000
   2593  C6        39.9530   24.9840   32.5410 C.ar  125  A125        0.0000
   2594  N6        40.2920   23.6900   32.5370 N.pl3 125  A125        0.0000
   2595  N7        38.3180   24.9810   34.4770 N.ar  125  A125        0.0000
   2596  C8        37.6570   25.9950   34.9740 C.ar  125  A125        0.0000
   2597  N9        37.8990   27.1760   34.3340 N.ar  125  A125        0.0000
   2598  OP1       32.6240   26.1580   38.0630 O.3   125  A125       -0.5000
   2599  OP2       33.9790   24.1810   37.1380 O.co2 125  A125       -0.5000
   2600  P         32.8990   28.4080   32.8830 P.3   126  U126        0.0000
   2601  C5'       34.1570   29.7140   30.9980 C.3   126  U126        0.0000
   2602  O5'       33.8410   28.4740   31.6080 O.3   126  U126        0.0000
   2603  C4'       35.2050   29.5190   29.9240 C.3   126  U126        0.0000
   2604  O4'       36.3940   28.9160   30.4970 O.3   126  U126        0.0000
   2605  C3'       34.8470   28.5810   28.7910 C.3   126  U126        0.0000
   2606  O3'       34.1090   29.2890   27.8190 O.3   126  U126        0.0000
   2607  C2'       36.2210   28.2340   28.2610 C.3   126  U126        0.0000
   2608  O2'       36.7720   29.3570   27.6030 O.3   126  U126        0.0000
   2609  C1'       36.9790   28.0280   29.5630 C.3   126  U126        0.0000
   2610  N1        36.8850   26.6640   30.1050 N.ar  126  U126        0.0000
   2611  C2        37.7590   25.7130   29.6200 C.ar  126  U126        0.0000
   2612  O2        38.5770   25.9530   28.7570 O.2   126  U126        0.0000
   2613  N3        37.6390   24.4680   30.1850 N.ar  126  U126        0.0000
   2614  C4        36.7560   24.0900   31.1560 C.ar  126  U126        0.0000
   2615  O4        36.7740   22.9420   31.5710 O.2   126  U126        0.0000
   2616  C5        35.8790   25.1200   31.5990 C.ar  126  U126        0.0000
   2617  C6        35.9690   26.3400   31.0710 C.ar  126  U126        0.0000
   2618  OP1       31.7480   29.3230   32.6760 O.2   126  U126       -0.5000
   2619  OP2       32.6600   26.9710   33.1180 O.co2 126  U126       -0.5000
   2620  P         33.1690   28.4880   26.7960 P.3   127  A127        0.0000
   2621  C5'       33.6970   27.3280   24.5040 C.3   127  A127        0.0000
   2622  O5'       34.1750   27.8680   25.7280 O.3   127  A127        0.0000
   2623  C4'       34.8500   26.9970   23.5960 C.3   127  A127        0.0000
   2624  O4'       35.6980   26.0020   24.2160 O.3   127  A127        0.0000
   2625  C3'       34.4420   26.3720   22.2780 C.3   127  A127        0.0000
   2626  O3'       34.1230   27.3980   21.3600 O.3   127  A127        0.0000
   2627  C2'       35.6890   25.6070   21.8680 C.3   127  A127        0.0000
   2628  O2'       36.6560   26.4480   21.2680 O.3   127  A127        0.0000
   2629  C1'       36.1840   25.1090   23.2260 C.3   127  A127        0.0000
   2630  N1        37.1230   20.0870   22.8630 N.ar  127  A127        0.0000
   2631  C2        37.6950   21.1460   22.2920 C.ar  127  A127        0.0000
   2632  N3        37.3810   22.4260   22.3980 N.ar  127  A127        0.0000
   2633  C4        36.3310   22.5850   23.2130 C.ar  127  A127        0.0000
   2634  C5        35.6370   21.5950   23.8700 C.ar  127  A127        0.0000
   2635  C6        36.0680   20.2830   23.6780 C.ar  127  A127        0.0000
   2636  N6        35.4940   19.2170   24.2550 N.pl3 127  A127        0.0000
   2637  N7        34.6090   22.1350   24.6230 N.ar  127  A127        0.0000
   2638  C8        34.7090   23.4200   24.4130 C.ar  127  A127        0.0000
   2639  N9        35.7460   23.7650   23.5900 N.ar  127  A127        0.0000
   2640  OP1       32.3260   29.4990   26.0830 O.2   127  A127       -0.5000
   2641  OP2       32.5270   27.3650   27.5480 O.co2 127  A127       -0.5000
   2642  P         32.8020   27.2690   20.4750 P.3   128  G128        0.0000
   2643  C5'       34.2560   26.7040   18.3700 C.3   128  G128        0.0000
   2644  O5'       33.2490   26.3020   19.2890 O.3   128  G128        0.0000
   2645  C4'       34.8550   25.4990   17.6790 C.3   128  G128        0.0000
   2646  O4'       35.6000   24.6910   18.6320 O.3   128  G128        0.0000
   2647  C3'       33.8670   24.5280   17.0620 C.3   128  G128        0.0000
   2648  O3'       33.4360   24.9500   15.7790 O.3   128  G128        0.0000
   2649  C2'       34.6900   23.2520   16.9930 C.3   128  G128        0.0000
   2650  O2'       35.6090   23.2670   15.9170 O.3   128  G128        0.0000
   2651  C1'       35.4270   23.3180   18.3310 C.3   128  G128        0.0000
   2652  N1        34.4930   19.1860   21.0740 N.ar  128  G128        0.0000
   2653  C2        35.3660   19.3550   20.0430 C.ar  128  G128        0.0000
   2654  N2        36.0970   18.2910   19.7120 N.pl3 128  G128        0.0000
   2655  N3        35.5160   20.4840   19.3890 N.ar  128  G128        0.0000
   2656  C4        34.7130   21.4490   19.8670 C.ar  128  G128        0.0000
   2657  C5        33.8100   21.3800   20.8950 C.ar  128  G128        0.0000
   2658  C6        33.6530   20.1690   21.5790 C.ar  128  G128        0.0000
   2659  O6        32.8960   19.9090   22.5230 O.2   128  G128        0.0000
   2660  N7        33.1860   22.5980   21.0850 N.ar  128  G128        0.0000
   2661  C8        33.7120   23.3700   20.1810 C.ar  128  G128        0.0000
   2662  N9        34.6490   22.7340   19.4130 N.ar  128  G128        0.0000
   2663  OP1       32.4740   28.6130   19.9320 O.2   128  G128       -0.5000
   2664  OP2       31.8120   26.5480   21.3120 O.co2 128  G128       -0.5000
   2665  P         32.0980   24.3170   15.1520 P.3   129  A129        0.0000
   2666  C5'       33.4460   22.6300   13.6400 C.3   129  A129        0.0000
   2667  O5'       32.5560   22.8360   14.7420 O.3   129  A129        0.0000
   2668  C4'       33.8950   21.1870   13.5590 C.3   129  A129        0.0000
   2669  O4'       34.5130   20.8180   14.8160 O.3   129  A129        0.0000
   2670  C3'       32.8230   20.1280   13.3760 C.3   129  A129        0.0000
   2671  O3'       32.4310   19.9470   12.0250 O.3   129  A129        0.0000
   2672  C2'       33.5280   18.8830   13.8780 C.3   129  A129        0.0000
   2673  O2'       34.4330   18.3700   12.9340 O.3   129  A129        0.0000
   2674  C1'       34.2870   19.4420   15.0740 C.3   129  A129        0.0000
   2675  N1        33.1280   16.5460   19.1370 N.ar  129  A129        0.0000
   2676  C2        33.9460   16.3440   18.1130 C.ar  129  A129        0.0000
   2677  N3        34.2010   17.1380   17.0800 N.ar  129  A129        0.0000
   2678  C4        33.4920   18.2750   17.1690 C.ar  129  A129        0.0000
   2679  C5        32.6120   18.6190   18.1640 C.ar  129  A129        0.0000
   2680  C6        32.4310   17.7050   19.1890 C.ar  129  A129        0.0000
   2681  N6        31.6040   17.9180   20.2160 N.pl3 129  A129        0.0000
   2682  N7        32.0610   19.8650   17.9250 N.ar  129  A129        0.0000
   2683  C8        32.6170   20.2440   16.8040 C.ar  129  A129        0.0000
   2684  N9        33.4970   19.3310   16.2940 N.ar  129  A129        0.0000
   2685  OP1       31.7820   25.1030   13.9260 O.2   129  A129       -0.5000
   2686  OP2       31.0820   24.2230   16.2430 O.co2 129  A129       -0.5000
   2687  P         30.9530   19.3920   11.7010 P.3   130  G130        0.0000
   2688  C5'       31.9740   17.1150   10.9030 C.3   130  G130        0.0000
   2689  O5'       31.0920   17.7970   11.7850 O.3   130  G130        0.0000
   2690  C4'       31.8950   15.6050   11.0560 C.3   130  G130        0.0000
   2691  O4'       32.7530   15.0410   10.0400 O.3   130  G130        0.0000
   2692  C3'       32.4030   15.0690   12.3880 C.3   130  G130        0.0000
   2693  O3'       31.7030   13.9140   12.8720 O.3   130  G130        0.0000
   2694  C2'       33.8670   14.7070   12.1440 C.3   130  G130        0.0000
   2695  O2'       34.1670   13.4640   12.7460 O.3   130  G130        0.0000
   2696  C1'       33.9060   14.4930   10.6270 C.3   130  G130        0.0000
   2697  N1        36.8300   18.4260    9.1980 N.ar  130  G130        0.0000
   2698  C2        35.7360   18.4180   10.0220 C.ar  130  G130        0.0000
   2699  N2        35.3640   19.6120   10.5240 N.pl3 130  G130        0.0000
   2700  N3        35.0510   17.3240   10.3340 N.ar  130  G130        0.0000
   2701  C4        35.5610   16.2220    9.7480 C.ar  130  G130        0.0000
   2702  C5        36.6490   16.1220    8.9070 C.ar  130  G130        0.0000
   2703  C6        37.3700   17.3050    8.5750 C.ar  130  G130        0.0000
   2704  O6        38.3610   17.4280    7.8330 O.2   130  G130        0.0000
   2705  N7        36.8490   14.8050    8.5130 N.ar  130  G130        0.0000
   2706  C8        35.8950   14.1420    9.1080 C.ar  130  G130        0.0000
   2707  N9        35.0730   14.9400    9.8680 N.ar  130  G130        0.0000
   2708  OP1       30.6550   19.8070   10.3090 O.2   130  G130       -0.5000
   2709  OP2       30.0440   19.8260   12.8010 O.co2 130  G130       -0.5000
   2710  P         30.1550   13.9880   13.2980 P.3   131  C131        0.0000
   2711  C5'       30.5510   13.2780   15.8070 C.3   131  C131        0.0000
   2712  O5'       30.1720   14.2860   14.8650 O.3   131  C131        0.0000
   2713  C4'       30.1070   13.6720   17.1960 C.3   131  C131        0.0000
   2714  O4'       30.7610   14.9100   17.5730 O.3   131  C131        0.0000
   2715  C3'       28.6240   13.9760   17.3120 C.3   131  C131        0.0000
   2716  O3'       27.8890   12.7750   17.5310 O.3   131  C131        0.0000
   2717  C2'       28.5730   14.9460   18.4860 C.3   131  C131        0.0000
   2718  O2'       28.6470   14.3300   19.7530 O.3   131  C131        0.0000
   2719  C1'       29.8490   15.7490   18.2580 C.3   131  C131        0.0000
   2720  N1        29.6460   16.9700   17.4620 N.ar  131  C131        0.0000
   2721  C2        28.9710   18.0560   18.0460 C.ar  131  C131        0.0000
   2722  O2        28.5380   17.9470   19.2070 O.2   131  C131        0.0000
   2723  N3        28.8050   19.1910   17.3320 N.ar  131  C131        0.0000
   2724  C4        29.2700   19.2660   16.0840 C.ar  131  C131        0.0000
   2725  N4        29.0870   20.4060   15.4170 N.pl3 131  C131        0.0000
   2726  C5        29.9460   18.1760   15.4610 C.ar  131  C131        0.0000
   2727  C6        30.1100   17.0580   16.1790 C.ar  131  C131        0.0000
   2728  OP1       29.6130   12.6170   13.1230 O.3   131  C131       -0.5000
   2729  OP2       29.5050   15.1290   12.6010 O.co2 131  C131       -0.5000
   2730  P         26.4500   12.5850   16.8420 P.3   132  A132        0.0000
   2731  C5'       25.2780   13.3830   19.0550 C.3   132  A132        0.0000
   2732  O5'       25.5130   13.5770   17.6640 O.3   132  A132        0.0000
   2733  C4'       24.3700   14.4690   19.5800 C.3   132  A132        0.0000
   2734  O4'       25.0550   15.7480   19.5130 O.3   132  A132        0.0000
   2735  C3'       23.0990   14.6950   18.7720 C.3   132  A132        0.0000
   2736  O3'       22.0750   13.7620   19.1190 O.3   132  A132        0.0000
   2737  C2'       22.7310   16.1330   19.1290 C.3   132  A132        0.0000
   2738  O2'       22.0310   16.2550   20.3540 O.3   132  A132        0.0000
   2739  C1'       24.1130   16.7800   19.2490 C.3   132  A132        0.0000
   2740  N1        23.7330   21.1930   16.6470 N.ar  132  A132        0.0000
   2741  C2        23.1500   20.7500   17.7660 C.ar  132  A132        0.0000
   2742  N3        23.2820   19.5760   18.3810 N.ar  132  A132        0.0000
   2743  C4        24.1370   18.7870   17.7130 C.ar  132  A132        0.0000
   2744  C5        24.8090   19.0960   16.5460 C.ar  132  A132        0.0000
   2745  C6        24.5850   20.3740   15.9980 C.ar  132  A132        0.0000
   2746  N6        25.1670   20.8180   14.8800 N.pl3 132  A132        0.0000
   2747  N7        25.5990   18.0310   16.1400 N.ar  132  A132        0.0000
   2748  C8        25.3960   17.1190   17.0610 C.ar  132  A132        0.0000
   2749  N9        24.5330   17.5150   18.0520 N.ar  132  A132        0.0000
   2750  OP1       26.0390   11.1830   17.0970 O.3   132  A132       -0.5000
   2751  OP2       26.5000   13.0890   15.4430 O.co2 132  A132       -0.5000
   2752  P         20.9710   13.3490   18.0270 P.3   133  G133        0.0000
   2753  C5'       19.4090   15.2390   18.9450 C.3   133  G133        0.0000
   2754  O5'       20.1230   14.6840   17.8470 O.3   133  G133        0.0000
   2755  C4'       18.7580   16.5420   18.5490 C.3   133  G133        0.0000
   2756  O4'       19.7510   17.5920   18.4180 O.3   133  G133        0.0000
   2757  C3'       18.0430   16.5670   17.2110 C.3   133  G133        0.0000
   2758  O3'       16.7570   15.9660   17.3000 O.3   133  G133        0.0000
   2759  C2'       17.9440   18.0650   16.9350 C.3   133  G133        0.0000
   2760  O2'       16.8420   18.6850   17.5770 O.3   133  G133        0.0000
   2761  C1'       19.2630   18.5790   17.5240 C.3   133  G133        0.0000
   2762  N1        21.0030   21.8850   14.1050 N.ar  133  G133        0.0000
   2763  C2        19.9860   22.0230   15.0090 C.ar  133  G133        0.0000
   2764  N2        19.3300   23.1900   14.9810 N.pl3 133  G133        0.0000
   2765  N3        19.6350   21.0860   15.8760 N.ar  133  G133        0.0000
   2766  C4        20.3940   19.9770   15.7560 C.ar  133  G133        0.0000
   2767  C5        21.4300   19.7370   14.8860 C.ar  133  G133        0.0000
   2768  C6        21.7990   20.7560   13.9640 C.ar  133  G133        0.0000
   2769  O6        22.6930   20.7380   13.1080 O.2   133  G133        0.0000
   2770  N7        21.9530   18.4650   15.0830 N.ar  133  G133        0.0000
   2771  C8        21.2340   17.9650   16.0490 C.ar  133  G133        0.0000
   2772  N9        20.2630   18.8260   16.4940 N.ar  133  G133        0.0000
   2773  OP1       20.1320   12.2950   18.6490 O.3   133  G133       -0.5000
   2774  OP2       21.6350   13.0750   16.7300 O.co2 133  G133       -0.5000
   2775  P         16.0150   15.4700   15.9610 P.3   134  U134        0.0000
   2776  C5'       14.6900   17.7040   15.5080 C.3   134  U134        0.0000
   2777  O5'       15.7410   16.8090   15.1290 O.3   134  U134        0.0000
   2778  C4'       14.6320   18.9100   14.5860 C.3   134  U134        0.0000
   2779  O4'       15.8260   19.7230   14.7450 O.3   134  U134        0.0000
   2780  C3'       14.5640   18.6500   13.0880 C.3   134  U134        0.0000
   2781  O3'       13.2540   18.3240   12.6400 O.3   134  U134        0.0000
   2782  C2'       15.0440   19.9800   12.5190 C.3   134  U134        0.0000
   2783  O2'       14.0550   20.9960   12.5170 O.3   134  U134        0.0000
   2784  C1'       16.1670   20.3230   13.4990 C.3   134  U134        0.0000
   2785  N1        17.4530   19.7660   13.0470 N.ar  134  U134        0.0000
   2786  C2        18.2170   20.5160   12.1610 C.ar  134  U134        0.0000
   2787  O2        17.8900   21.6250   11.7600 O.2   134  U134        0.0000
   2788  N3        19.3830   19.9160   11.7600 N.ar  134  U134        0.0000
   2789  C4        19.8570   18.6790   12.1450 C.ar  134  U134        0.0000
   2790  O4        20.9250   18.2760   11.6900 O.2   134  U134        0.0000
   2791  C5        19.0230   17.9760   13.0670 C.ar  134  U134        0.0000
   2792  C6        17.8820   18.5260   13.4760 C.ar  134  U134        0.0000
   2793  OP1       14.7160   14.9150   16.4200 O.3   134  U134       -0.5000
   2794  OP2       16.9530   14.6080   15.1930 O.co2 134  U134       -0.5000
   2795  P         13.0630   17.5850   11.2240 P.3   135  C135        0.0000
   2796  C5'       12.6060   19.8640    9.9860 C.3   135  C135        0.0000
   2797  O5'       13.4300   18.7100   10.1530 O.3   135  C135        0.0000
   2798  C4'       13.2010   20.7970    8.9530 C.3   135  C135        0.0000
   2799  O4'       14.4970   21.2650    9.4210 O.3   135  C135        0.0000
   2800  C3'       13.5030   20.1970    7.5860 C.3   135  C135        0.0000
   2801  O3'       12.3590   20.1390    6.7380 O.3   135  C135        0.0000
   2802  C2'       14.5580   21.1560    7.0470 C.3   135  C135        0.0000
   2803  O2'       14.0240   22.3590    6.5210 O.3   135  C135        0.0000
   2804  C1'       15.3750   21.4330    8.3120 C.3   135  C135        0.0000
   2805  N1        16.5160   20.5000    8.4540 N.ar  135  C135        0.0000
   2806  C2        17.6410   20.6670    7.6230 C.ar  135  C135        0.0000
   2807  O2        17.6590   21.6060    6.8080 O.2   135  C135        0.0000
   2808  N3        18.6730   19.8010    7.7300 N.ar  135  C135        0.0000
   2809  C4        18.6190   18.8050    8.6160 C.ar  135  C135        0.0000
   2810  N4        19.6550   17.9710    8.6790 N.pl3 135  C135        0.0000
   2811  C5        17.5000   18.6180    9.4770 C.ar  135  C135        0.0000
   2812  C6        16.4830   19.4800    9.3660 C.ar  135  C135        0.0000
   2813  OP1       11.6180   17.2590   11.0980 O.2   135  C135       -0.5000
   2814  OP2       14.0730   16.4970   11.1090 O.co2 135  C135       -0.5000
   2815  P         12.3690   19.1650    5.4520 P.3   136  C136        0.0000
   2816  C5'       13.2330   21.1020    3.8890 C.3   136  C136        0.0000
   2817  O5'       13.4500   19.8210    4.4790 O.3   136  C136        0.0000
   2818  C4'       14.3990   21.4730    3.0020 C.3   136  C136        0.0000
   2819  O4'       15.5940   21.6210    3.8210 O.3   136  C136        0.0000
   2820  C3'       14.7940   20.4290    1.9680 C.3   136  C136        0.0000
   2821  O3'       14.0060   20.4830    0.7840 O.3   136  C136        0.0000
   2822  C2'       16.2470   20.7900    1.6950 C.3   136  C136        0.0000
   2823  O2'       16.3880   21.9000    0.8290 O.3   136  C136        0.0000
   2824  C1'       16.7280   21.1460    3.1020 C.3   136  C136        0.0000
   2825  N1        17.3010   19.9810    3.8140 N.ar  136  C136        0.0000
   2826  C2        18.6350   19.6260    3.5660 C.ar  136  C136        0.0000
   2827  O2        19.2990   20.2960    2.7600 O.2   136  C136        0.0000
   2828  N3        19.1660   18.5620    4.2100 N.ar  136  C136        0.0000
   2829  C4        18.4230   17.8630    5.0690 C.ar  136  C136        0.0000
   2830  N4        18.9890   16.8240    5.6840 N.pl3 136  C136        0.0000
   2831  C5        17.0660   18.1970    5.3370 C.ar  136  C136        0.0000
   2832  C6        16.5500   19.2520    4.6960 C.ar  136  C136        0.0000
   2833  OP1       11.0340   19.2720    4.8020 O.2   136  C136       -0.5000
   2834  OP2       12.8820   17.8250    5.8600 O.co2 136  C136       -0.5000
   2835  P         13.7760   19.1400   -0.0730 P.3   137  G137        0.0000
   2836  C5'       16.1400   19.1090   -1.2570 C.3   137  G137        0.0000
   2837  O5'       15.2450   18.5530   -0.2870 O.3   137  G137        0.0000
   2838  C4'       17.3730   18.2370   -1.3970 C.3   137  G137        0.0000
   2839  O4'       18.0970   18.2250   -0.1380 O.3   137  G137        0.0000
   2840  C3'       17.1090   16.7670   -1.7030 C.3   137  G137        0.0000
   2841  O3'       16.9630   16.5510   -3.1080 O.3   137  G137        0.0000
   2842  C2'       18.3580   16.0870   -1.1520 C.3   137  G137        0.0000
   2843  O2'       19.4600   16.1270   -2.0360 O.3   137  G137        0.0000
   2844  C1'       18.6510   16.9390    0.0860 C.3   137  G137        0.0000
   2845  N1        19.3330   13.8200    4.0300 N.ar  137  G137        0.0000
   2846  C2        20.1840   14.1160    2.9940 C.ar  137  G137        0.0000
   2847  N2        21.3690   13.4980    3.0120 N.pl3 137  G137        0.0000
   2848  N3        19.8940   14.9560    2.0160 N.ar  137  G137        0.0000
   2849  C4        18.6630   15.4900    2.1600 C.ar  137  G137        0.0000
   2850  C5        17.7370   15.2630    3.1570 C.ar  137  G137        0.0000
   2851  C6        18.0610   14.3560    4.1990 C.ar  137  G137        0.0000
   2852  O6        17.3760   14.0210    5.1720 O.2   137  G137        0.0000
   2853  N7        16.5890   16.0130    2.9440 N.ar  137  G137        0.0000
   2854  C8        16.8320   16.6680    1.8410 C.ar  137  G137        0.0000
   2855  N9        18.0720   16.3930    1.3110 N.ar  137  G137        0.0000
   2856  OP1       13.2410   19.5400   -1.4010 O.2   137  G137       -0.5000
   2857  OP2       13.0150   18.1700    0.7660 O.co2 137  G137       -0.5000
   2858  P         15.5690   15.9910   -3.6990 P.3   138  G138        0.0000
   2859  C5'       16.4530   13.5320   -3.3810 C.3   138  G138        0.0000
   2860  O5'       15.9280   14.5350   -4.2460 O.3   138  G138        0.0000
   2861  C4'       17.4100   12.6380   -4.1370 C.3   138  G138        0.0000
   2862  O4'       18.1060   11.8050   -3.1790 O.3   138  G138        0.0000
   2863  C3'       16.7340   11.6790   -5.1080 C.3   138  G138        0.0000
   2864  O3'       17.1250   11.7450   -6.4850 O.3   138  G138        0.0000
   2865  C2'       16.6250   10.3350   -4.3900 C.3   138  G138        0.0000
   2866  O2'       17.0280    9.2520   -5.2010 O.3   138  G138        0.0000
   2867  C1'       17.6710   10.4630   -3.2780 C.3   138  G138        0.0000
   2868  N1        18.6770    7.6860    0.8570 N.ar  138  G138        0.0000
   2869  C2        19.4410    7.8830   -0.2670 C.ar  138  G138        0.0000
   2870  N2        20.6230    7.2500   -0.2920 N.pl3 138  G138        0.0000
   2871  N3        19.0730    8.6430   -1.2880 N.ar  138  G138        0.0000
   2872  C4        17.8580    9.2000   -1.0910 C.ar  138  G138        0.0000
   2873  C5        17.0170    9.0690   -0.0050 C.ar  138  G138        0.0000
   2874  C6        17.4250    8.2500    1.0830 C.ar  138  G138        0.0000
   2875  O6        16.8210    8.0080    2.1360 O.2   138  G138        0.0000
   2876  N7        15.8560    9.8100   -0.1870 N.ar  138  G138        0.0000
   2877  C8        16.0070   10.3670   -1.3580 C.ar  138  G138        0.0000
   2878  N9        17.1970   10.0340   -1.9650 N.ar  138  G138        0.0000
   2879  OP1       15.2120   16.8420   -4.8660 O.2   138  G138       -0.5000
   2880  OP2       14.5980   15.8390   -2.5790 O.co2 138  G138       -0.5000
   2881  P         16.0700   11.3710   -7.6480 P.3   139  G139        0.0000
   2882  C5'       17.5100    9.2380   -8.1560 C.3   139  G139        0.0000
   2883  O5'       16.8990   10.4320   -8.6340 O.3   139  G139        0.0000
   2884  C4'       18.4420    8.6610   -9.1960 C.3   139  G139        0.0000
   2885  O4'       19.2900    7.6700   -8.5600 O.3   139  G139        0.0000
   2886  C3'       17.7910    7.9250  -10.3620 C.3   139  G139        0.0000
   2887  O3'       17.4470    8.8280  -11.4140 O.3   139  G139        0.0000
   2888  C2'       18.8970    6.9680  -10.8000 C.3   139  G139        0.0000
   2889  O2'       19.8650    7.5830  -11.6320 O.3   139  G139        0.0000
   2890  C1'       19.5420    6.6050   -9.4600 C.3   139  G139        0.0000
   2891  N1        20.3010    1.6180   -8.9000 N.ar  139  G139        0.0000
   2892  C2        21.0160    2.5310   -9.6320 C.ar  139  G139        0.0000
   2893  N2        22.0790    2.0530  -10.2950 N.pl3 139  G139        0.0000
   2894  N3        20.7140    3.8170   -9.7090 N.ar  139  G139        0.0000
   2895  C4        19.6160    4.1210   -8.9850 C.ar  139  G139        0.0000
   2896  C5        18.8310    3.2850   -8.2210 C.ar  139  G139        0.0000
   2897  C6        19.1710    1.9080   -8.1450 C.ar  139  G139        0.0000
   2898  O6        18.6030    1.0060   -7.5180 O.2   139  G139        0.0000
   2899  N7        17.7880    3.9880   -7.6350 N.ar  139  G139        0.0000
   2900  C8        17.9560    5.2160   -8.0430 C.ar  139  G139        0.0000
   2901  N9        19.0520    5.3680   -8.8580 N.ar  139  G139        0.0000
   2902  OP1       15.7250   12.6180   -8.3820 O.2   139  G139       -0.5000
   2903  OP2       14.9850   10.5490   -7.0470 O.co2 139  G139       -0.5000
   2904  P         16.3510    8.3990  -12.5170 P.3   140  C140        0.0000
   2905  C5'       17.9850    7.2130  -14.2080 C.3   140  C140        0.0000
   2906  O5'       16.9650    7.0990  -13.2150 O.3   140  C140        0.0000
   2907  C4'       18.4850    5.8460  -14.6350 C.3   140  C140        0.0000
   2908  O4'       19.0650    5.1470  -13.4980 O.3   140  C140        0.0000
   2909  C3'       17.4720    4.8440  -15.1630 C.3   140  C140        0.0000
   2910  O3'       17.1110    5.1000  -16.5160 O.3   140  C140        0.0000
   2911  C2'       18.2490    3.5390  -15.0410 C.3   140  C140        0.0000
   2912  O2'       19.2070    3.3650  -16.0660 O.3   140  C140        0.0000
   2913  C1'       18.9700    3.7430  -13.7090 C.3   140  C140        0.0000
   2914  N1        18.2330    3.1240  -12.5900 N.ar  140  C140        0.0000
   2915  C2        18.5380    1.7950  -12.2310 C.ar  140  C140        0.0000
   2916  O2        19.4320    1.1870  -12.8430 O.2   140  C140        0.0000
   2917  N3        17.8470    1.2110  -11.2270 N.ar  140  C140        0.0000
   2918  C4        16.8910    1.8920  -10.5890 C.ar  140  C140        0.0000
   2919  N4        16.2320    1.2700   -9.6100 N.pl3 140  C140        0.0000
   2920  C5        16.5680    3.2410  -10.9270 C.ar  140  C140        0.0000
   2921  C6        17.2580    3.8130  -11.9210 C.ar  140  C140        0.0000
   2922  OP1       16.3110    9.4990  -13.5220 O.2   140  C140       -0.5000
   2923  OP2       15.1010    8.0020  -11.8130 O.co2 140  C140       -0.5000
   2924  P         15.8180    4.3750  -17.1460 P.3   141  A141        0.0000
   2925  C5'       17.4040    2.4450  -17.9590 C.3   141  A141        0.0000
   2926  O5'       16.2450    2.8410  -17.2290 O.3   141  A141        0.0000
   2927  C4'       17.7470    1.0010  -17.6710 C.3   141  A141        0.0000
   2928  O4'       18.0510    0.8290  -16.2580 O.3   141  A141        0.0000
   2929  C3'       16.6360   -0.0040  -17.9180 C.3   141  A141        0.0000
   2930  O3'       16.5130   -0.3290  -19.2960 O.3   141  A141        0.0000
   2931  C2'       17.0880   -1.1820  -17.0650 C.3   141  A141        0.0000
   2932  O2'       18.1170   -1.9560  -17.6520 O.3   141  A141        0.0000
   2933  C1'       17.6120   -0.4550  -15.8260 C.3   141  A141        0.0000
   2934  N1        15.0260   -2.6660  -11.9730 N.ar  141  A141        0.0000
   2935  C2        16.0470   -3.0840  -12.7300 C.ar  141  A141        0.0000
   2936  N3        16.6860   -2.4490  -13.7090 N.ar  141  A141        0.0000
   2937  C4        16.1660   -1.2220  -13.8970 C.ar  141  A141        0.0000
   2938  C5        15.1160   -0.6500  -13.1990 C.ar  141  A141        0.0000
   2939  C6        14.5260   -1.4280  -12.1870 C.ar  141  A141        0.0000
   2940  N6        13.5060   -1.0130  -11.4330 N.pl3 141  A141        0.0000
   2941  N7        14.8500    0.6300  -13.6680 N.ar  141  A141        0.0000
   2942  C8        15.7300    0.8030  -14.6250 C.ar  141  A141        0.0000
   2943  N9        16.5540   -0.2830  -14.8250 N.ar  141  A141        0.0000
   2944  OP1       15.6490    4.8910  -18.5290 O.2   141  A141       -0.5000
   2945  OP2       14.6960    4.4950  -16.1770 O.co2 141  A141       -0.5000
   2946  P         15.1330   -0.9410  -19.8430 P.3   142  G142        0.0000
   2947  C5'       13.9070   -3.1220  -19.0800 C.3   142  G142        0.0000
   2948  O5'       15.1130   -2.3950  -19.1980 O.3   142  G142        0.0000
   2949  C4'       14.2050   -4.5490  -18.7090 C.3   142  G142        0.0000
   2950  O4'       14.9890   -4.5830  -17.4890 O.3   142  G142        0.0000
   2951  C3'       12.9720   -5.3680  -18.3920 C.3   142  G142        0.0000
   2952  O3'       12.3970   -5.8690  -19.5870 O.3   142  G142        0.0000
   2953  C2'       13.5280   -6.4460  -17.4740 C.3   142  G142        0.0000
   2954  O2'       14.1990   -7.4790  -18.1710 O.3   142  G142        0.0000
   2955  C1'       14.5250   -5.6300  -16.6470 C.3   142  G142        0.0000
   2956  N1        12.8740   -6.3460  -11.8830 N.ar  142  G142        0.0000
   2957  C2        13.4440   -7.2490  -12.7460 C.ar  142  G142        0.0000
   2958  N2        13.5870   -8.5020  -12.2830 N.pl3 142  G142        0.0000
   2959  N3        13.8440   -6.9470  -13.9720 N.ar  142  G142        0.0000
   2960  C4        13.6240   -5.6470  -14.2680 C.ar  142  G142        0.0000
   2961  C5        13.0620   -4.6680  -13.4740 C.ar  142  G142        0.0000
   2962  C6        12.6390   -5.0050  -12.1690 C.ar  142  G142        0.0000
   2963  O6        12.1170   -4.2750  -11.3200 O.2   142  G142        0.0000
   2964  N7        13.0120   -3.4550  -14.1460 N.ar  142  G142        0.0000
   2965  C8        13.5310   -3.7100  -15.3150 C.ar  142  G142        0.0000
   2966  N9        13.9220   -5.0220  -15.4600 N.ar  142  G142        0.0000
   2967  OP1       15.2740   -1.0810  -21.3150 O.2   142  G142       -0.5000
   2968  OP2       13.9990   -0.1560  -19.2860 O.co2 142  G142       -0.5000
   2969  P         10.8650   -5.5320  -19.9210 P.3   143  G143        0.0000
   2970  C5'        8.7480   -5.9200  -18.4160 C.3   143  G143        0.0000
   2971  O5'       10.0730   -6.2950  -18.7700 O.3   143  G143        0.0000
   2972  C4'        8.2750   -6.7430  -17.2440 C.3   143  G143        0.0000
   2973  O4'        9.2130   -6.6090  -16.1430 O.3   143  G143        0.0000
   2974  C3'        6.9300   -6.3240  -16.6790 C.3   143  G143        0.0000
   2975  O3'        5.8910   -6.9780  -17.4060 O.3   143  G143        0.0000
   2976  C2'        7.0250   -6.7910  -15.2290 C.3   143  G143        0.0000
   2977  O2'        6.7370   -8.1680  -15.0660 O.3   143  G143        0.0000
   2978  C1'        8.5050   -6.5330  -14.9170 C.3   143  G143        0.0000
   2979  N1         7.4080   -3.2890  -11.1470 N.ar  143  G143        0.0000
   2980  C2         6.8980   -4.5430  -11.3900 C.ar  143  G143        0.0000
   2981  N2         5.9740   -4.9870  -10.5240 N.pl3 143  G143        0.0000
   2982  N3         7.2660   -5.3060  -12.4070 N.ar  143  G143        0.0000
   2983  C4         8.2030   -4.7040  -13.1750 C.ar  143  G143        0.0000
   2984  C5         8.7780   -3.4580  -13.0160 C.ar  143  G143        0.0000
   2985  C6         8.3730   -2.6510  -11.9250 C.ar  143  G143        0.0000
   2986  O6         8.7640   -1.5180  -11.6210 O.2   143  G143        0.0000
   2987  N7         9.7040   -3.2090  -14.0190 N.ar  143  G143        0.0000
   2988  C8         9.6770   -4.2840  -14.7600 C.ar  143  G143        0.0000
   2989  N9         8.7840   -5.2310  -14.3100 N.ar  143  G143        0.0000
   2990  OP1       10.5440   -6.1830  -21.2190 O.2   143  G143       -0.5000
   2991  OP2       10.6500   -4.0670  -19.7590 O.co2 143  G143       -0.5000
   2992  P          4.4790   -6.2410  -17.6370 P.3   144  A144        0.0000
   2993  C5'        3.5610   -7.8500  -15.7620 C.3   144  A144        0.0000
   2994  O5'        3.6790   -6.5240  -16.2860 O.3   144  A144        0.0000
   2995  C4'        3.0950   -7.8120  -14.3220 C.3   144  A144        0.0000
   2996  O4'        4.0770   -7.1080  -13.5090 O.3   144  A144        0.0000
   2997  C3'        1.7930   -7.0660  -14.0770 C.3   144  A144        0.0000
   2998  O3'        0.6770   -7.9200  -14.3010 O.3   144  A144        0.0000
   2999  C2'        1.9210   -6.6650  -12.6120 C.3   144  A144        0.0000
   3000  O2'        1.6050   -7.7250  -11.7290 O.3   144  A144        0.0000
   3001  C1'        3.4160   -6.3410  -12.5130 C.3   144  A144        0.0000
   3002  N1         2.8880   -1.5100  -10.7530 N.ar  144  A144        0.0000
   3003  C2         2.4230   -2.6830  -10.3090 C.ar  144  A144        0.0000
   3004  N3         2.5960   -3.9070  -10.8110 N.ar  144  A144        0.0000
   3005  C4         3.3590   -3.8640  -11.9180 C.ar  144  A144        0.0000
   3006  C5         3.9120   -2.7330  -12.4960 C.ar  144  A144        0.0000
   3007  C6         3.6510   -1.4970  -11.8660 C.ar  144  A144        0.0000
   3008  N6         4.1120   -0.3230  -12.3060 N.pl3 144  A144        0.0000
   3009  N7         4.6410   -3.0680  -13.6300 N.ar  144  A144        0.0000
   3010  C8         4.5140   -4.3710  -13.7140 C.ar  144  A144        0.0000
   3011  N9         3.7500   -4.9230  -12.7110 N.ar  144  A144        0.0000
   3012  OP1        3.7840   -6.9570  -18.7400 O.2   144  A144       -0.5000
   3013  OP2        4.7140   -4.7740  -17.7470 O.co2 144  A144       -0.5000
   3014 MG         39.4190   11.2000   24.9620 Mg    302  MG302       0.0000
   3015 MG         46.2580   18.4160   15.5970 Mg    303  MG303       0.0000
   3016  C5'       41.4020    6.4210   24.1250 C.3    -1  3AD-1       0.0000
   3017  O5'       42.0480    6.8680   25.3240 O.3    -1  3AD-1       0.0000
   3018  C4'       42.2350    6.8040   22.9270 C.3    -1  3AD-1       0.0000
   3019  O4'       43.3040    5.8400   22.7650 O.3    -1  3AD-1       0.0000
   3020  C3'       41.5310    6.8010   21.5770 C.3    -1  3AD-1       0.0000
   3021  C2'       42.7100    6.6830   20.6240 C.3    -1  3AD-1       0.0000
   3022  O2'       43.4260    7.9000   20.5370 O.3    -1  3AD-1       0.0000
   3023  C1'       43.5880    5.6850   21.3850 C.3    -1  3AD-1       0.0000
   3024  N1        45.7670    1.3210   19.8130 N.ar   -1  3AD-1       0.0000
   3025  C2        46.2720    2.5150   20.1380 C.ar   -1  3AD-1       0.0000
   3026  N3        45.6440    3.6050   20.5540 N.ar   -1  3AD-1       0.0000
   3027  C4        44.3170    3.3900   20.6310 C.ar   -1  3AD-1       0.0000
   3028  C5        43.6480    2.2180   20.3350 C.ar   -1  3AD-1       0.0000
   3029  C6        44.4320    1.1330   19.9020 C.ar   -1  3AD-1       0.0000
   3030  N6        43.9310   -0.0650   19.5740 N.pl3  -1  3AD-1       0.0000
   3031  N7        42.2800    2.3640   20.5420 N.ar   -1  3AD-1       0.0000
   3032  C8        42.1530    3.6040   20.9470 C.ar   -1  3AD-1       0.0000
   3033  N9        43.3470    4.2880   21.0140 N.ar   -1  3AD-1       0.0000
   3034 MG         46.5590   12.6770   26.8460 Mg    301  MG301       0.0000
   3035 MG         53.4050    8.4390   14.9160 Mg    304  MG304       0.0000
   3036  O         46.0960   11.3630   28.0370 O.3   401  HOH401      0.0000
   3037  O         53.3600   16.1060   15.0480 O.3   403  HOH403      0.0000
   3038  O         46.2420   14.0120   25.3070 O.3   402  HOH402      0.0000
@<TRIPOS>BOND
     1     1  3022    1
     2   715  3034    1
     3   760  3014    1
     4  3016  3018    1
     5  3016  3017    1
     6  3018  3019    1
     7  3018  3020    1
     8  3019  3023    1
     9  3020  3021    1
    10  3021  3022    1
    11  3021  3023    1
    12  3023  3033    1
    13  3024  3025   ar
    14  3024  3029   ar
    15  3025  3026   ar
    16  3026  3027   ar
    17  3027  3028   ar
    18  3027  3033   ar
    19  3028  3029   ar
    20  3028  3031   ar
    21  3029  3030    1
    22  3031  3032   ar
    23  3032  3033   ar
    24  3034  3036    1
    25  3034  3038    1
    26  2967  2946    2
    27  2990  2969    2
    28  2969  2991    1
    29  2969  2952    1
    30  2969  2971    1
    31  2946  2930    1
    32  2946  2968    1
    33  2946  2948    1
    34  2952  2951    1
    35  2930  2929    1
    36  2948  2947    1
    37  2947  2949    1
    38  2971  2970    1
    39  3012  2992    2
    40  2949  2951    1
    41  2949  2950    1
    42  2944  2924    2
    43  2970  2972    1
    44  2951  2953    1
    45  2954  2953    1
    46  2925  2927    1
    47  2925  2926    1
    48  2929  2927    1
    49  2929  2931    1
    50  3013  2992    1
    51  2927  2928    1
    52  2932  2931    1
    53  2992  2975    1
    54  2992  2994    1
    55  2950  2955    1
    56  2953  2955    1
    57  2975  2974    1
    58  2972  2974    1
    59  2972  2973    1
    60  2926  2924    1
    61  2924  2910    1
    62  2924  2945    1
    63  2931  2933    1
    64  2974  2976    1
    65  2955  2966    1
    66  2910  2909    1
    67  2994  2993    1
    68  2928  2933    1
    69  2973  2978    1
    70  2912  2911    1
    71  2933  2943    1
    72  2993  2995    1
    73  2966  2965   ar
    74  2966  2960   ar
    75  2965  2964   ar
    76  2976  2977    1
    77  2976  2978    1
    78  2909  2911    1
    79  2909  2907    1
    80  2911  2913    1
    81  2978  2989    1
    82  2943  2942   ar
    83  2943  2937   ar
    84  2988  2989   ar
    85  2988  2987   ar
    86  2907  2905    1
    87  2907  2908    1
    88  2942  2941   ar
    89  2995  2997    1
    90  2995  2996    1
    91  2989  2983   ar
    92  2998  2997    1
    93  2960  2959   ar
    94  2960  2961   ar
    95  2905  2906    1
    96  2964  2961   ar
    97  2997  2999    1
    98  2987  2984   ar
    99  2959  2957   ar
   100  2937  2936   ar
   101  2937  2938   ar
   102  1714  1713    1
   103  3010  3009   ar
   104  3010  3011   ar
   105  2913  2908    1
   106  2913  2914    1
   107  2936  2935   ar
   108  2941  2938   ar
   109  3009  3006   ar
   110  2922  2904    2
   111  2996  3001    1
   112  2961  2962   ar
   113  2906  2904    1
   114  2938  2939   ar
   115  2983  2984   ar
   116  2983  2982   ar
   117  2984  2985   ar
   118  2916  2915    2
   119  2957  2958    1
   120  2957  2956   ar
   121  2935  2934   ar
   122  3011  3001    1
   123  3011  3005   ar
   124  2999  3001    1
   125  2999  3000    1
   126  1713  1715   ar
   127  1713  1712   ar
   128  2914  2915   ar
   129  2914  2921   ar
   130  2904  2923    1
   131  2904  2887    1
   132  3006  3005   ar
   133  3006  3007   ar
   134  2982  2980   ar
   135  1733  1732    1
   136  1715  1716   ar
   137  3008  3007    1
   138  2915  2917   ar
   139  2939  2934   ar
   140  2939  2940    1
   141  2962  2956   ar
   142  2962  2963    2
   143  1710  1709    1
   144  2985  2986    2
   145  2985  2979   ar
   146  2921  2920   ar
   147  3005  3004   ar
   148  3007  3002   ar
   149  1712  1718   ar
   150  2889  2888    1
   151  1737  1736    2
   152  2887  2886    1
   153  1729  1734    1
   154  1729  1728    1
   155  2980  2979   ar
   156  2980  2981    1
   157  1734  1732    1
   158  1734  1735    1
   159  1728  1726    1
   160  1728  1730    1
   161  1711  1709    1
   162  1711  1706    1
   163  1711  1722    1
   164  2917  2918   ar
   165  1716  1722   ar
   166  1716  1717   ar
   167  1732  1730    1
   168  1694  1693    2
   169  1709  1707    1
   170  2920  2918   ar
   171  1731  1730    1
   172  1731  1745    1
   173  3004  3003   ar
   174  2888  2886    1
   175  2888  2890    1
   176  1706  1705    1
   177  3002  3003   ar
   178  1746  1748    1
   179  1746  1747    1
   180  1726  1727    1
   181  1722  1721   ar
   182  2918  2919    1
   183  1748  1749    1
   184  1748  1750    1
   185  1718  1717   ar
   186  1718  1719    2
   187  1736  1735   ar
   188  1736  1738   ar
   189  1749  1754    1
   190  2886  2884    1
   191  1735  1742   ar
   192  2893  2892    1
   193  1766  1745    2
   194  1717  1720   ar
   195  1705  1707    1
   196  1705  1703    1
   197  1690  1689    1
   198  1693  1695   ar
   199  1693  1692   ar
   200  1753  1752    1
   201  1707  1708    1
   202  1695  1696   ar
   203  1745  1747    1
   204  1745  1767    1
   205  2894  2892   ar
   206  2894  2895   ar
   207  2892  2891   ar
   208  1708  1725    1
   209  1738  1739   ar
   210  1754  1752    1
   211  1754  1765    1
   212  1674  1673    2
   213  2890  2901    1
   214  2890  2885    1
   215  1691  1692    1
   216  1691  1689    1
   217  1691  1686    1
   218  1721  1720   ar
   219  1727  1725    1
   220  1675  1673   ar
   221  1675  1676   ar
   222  1751  1750    1
   223  1751  1768    1
   224  1750  1752    1
   225  1677  1676    1
   226  2884  2885    1
   227  2884  2882    1
   228  1692  1699   ar
   229  1657  1656    1
   230  1742  1741   ar
   231  1637  1636    2
   232  1689  1687    1
   233  1703  1704    1
   234  2895  2901   ar
   235  2895  2896   ar
   236  2891  2897   ar
   237  2901  2900   ar
   238  1673  1672   ar
   239  1696  1697    2
   240  1696  1698   ar
   241  1743  1725    2
   242  1725  1744    1
   243  1686  1685    1
   244  2883  2882    1
   245  2883  2881    1
   246  1676  1678   ar
   247  1765  1764   ar
   248  1765  1759   ar
   249  1739  1741   ar
   250  1739  1740    1
   251  1788  1768    2
   252  2902  2881    2
   253  1655  1656   ar
   254  1655  1653   ar
   255  2896  2897   ar
   256  2896  2899   ar
   257  1699  1698   ar
   258  2897  2898    2
   259  1656  1658   ar
   260  1704  1702    1
   261  1764  1763   ar
   262  2900  2899   ar
   263  1768  1770    1
   264  1768  1789    1
   265  1636  1638   ar
   266  1636  1635   ar
   267  1769  1770    1
   268  1769  1771    1
   269  1685  1687    1
   270  1685  1683    1
   271  1687  1688    1
   272  2881  2903    1
   273  2881  2864    1
   274  1638  1639   ar
   275  1759  1758   ar
   276  1759  1760   ar
   277  1758  1756   ar
   278  1688  1702    1
   279  1672  1671    1
   280  1672  1679   ar
   281  1654  1653    2
   282  1678  1679   ar
   283  1653  1652   ar
   284  1772  1771    1
   285  1772  1777    1
   286  1771  1773    1
   287  1763  1760   ar
   288  1635  1633   ar
   289  1671  1669    1
   290  1671  1666    1
   291  1702  1723    2
   292  1702  1724    1
   293  1670  1669    1
   294  1658  1659   ar
   295  1760  1761   ar
   296  1669  1667    1
   297  1756  1757    1
   298  1756  1755   ar
   299  1683  1684    1
   300  2864  2863    1
   301  1639  1632   ar
   302  1491  1473    2
   303  1652  1659   ar
   304  1652  1651    1
   305  1777  1787    1
   306  1777  1775    1
   307  1684  1682    1
   308  1666  1665    1
   309  1755  1761   ar
   310  1761  1762    2
   311  1773  1774    1
   312  1773  1775    1
   313  1633  1632   ar
   314  1633  1634    2
   315  1786  1787   ar
   316  1786  1785   ar
   317  1632  1631    1
   318  1787  1781   ar
   319  1776  1775    1
   320  1774  1790    1
   321  2866  2865    1
   322  2863  2865    1
   323  2863  2861    1
   324  1667  1665    1
   325  1667  1668    1
   326  1514  1493    2
   327  2879  2858    2
   328  1651  1649    1
   329  1651  1646    1
   330  1785  1782   ar
   331  1473  1459    1
   332  1473  1492    1
   333  1473  1475    1
   334  1459  1458    1
   335  1665  1663    1
   336  1471  1453    2
   337  1649  1650    1
   338  1649  1647    1
   339  1668  1682    1
   340  2865  2867    1
   341  1781  1782   ar
   342  1781  1780   ar
   343  1610  1609    1
   344  1682  1701    2
   345  1682  1700    1
   346  1614  1613    2
   347  2860  2858    1
   348  2860  2859    1
   349  2861  2859    1
   350  2861  2862    1
   351  1474  1475    1
   352  1474  1476    1
   353  1454  1456    1
   354  1454  1455    1
   355  1782  1783   ar
   356  1809  1790    2
   357  1790  1808    1
   358  1790  1792    1
   359  1631  1626    1
   360  1631  1629    1
   361  1780  1779   ar
   362  1626  1625    1
   363  1456  1458    1
   364  1456  1457    1
   365  2858  2841    1
   366  2858  2880    1
   367  1609  1611    1
   368  1609  1607    1
   369  1623  1624    1
   370  1623  1625    1
   371  1615  1613   ar
   372  1615  1616   ar
   373  1493  1515    1
   374  1493  1479    1
   375  1493  1495    1
   376  1664  1663    1
   377  1664  1662    1
   378  1646  1645    1
   379  1613  1612   ar
   380  1479  1478    1
   381  1458  1460    1
   382  1461  1460    1
   383  1647  1645    1
   384  1647  1648    1
   385  2867  2862    1
   386  2867  2878    1
   387  1624  1622    1
   388  1453  1455    1
   389  1453  1439    1
   390  1453  1472    1
   391  1608  1607    1
   392  1608  1622    1
   393  2841  2840    1
   394  1627  1625    1
   395  1627  1629    1
   396  1627  1628    1
   397  1476  1478    1
   398  1476  1477    1
   399  1617  1616    1
   400  1783  1784    1
   401  1783  1778   ar
   402  1629  1630    1
   403  1616  1618   ar
   404  1661  1642    2
   405  1681  1662    2
   406  1779  1778   ar
   407  1439  1438    1
   408  1612  1611    1
   409  1612  1619   ar
   410  1611  1606    1
   411  1792  1791    1
   412  1607  1605    1
   413  1460  1462    1
   414  1478  1480    1
   415  1791  1793    1
   416  1644  1642    1
   417  1644  1643    1
   418  1645  1643    1
   419  1457  1462    1
   420  1662  1648    1
   421  1662  1680    1
   422  1495  1494    1
   423  1441  1440    1
   424  1622  1640    2
   425  1622  1641    1
   426  1494  1496    1
   427  1618  1619   ar
   428  2843  2842    1
   429  1949  1948   ar
   430  1949  1950   ar
   431  1642  1628    1
   432  1642  1660    1
   433  2878  2877   ar
   434  2878  2872   ar
   435  1477  1482    1
   436  1462  1463    1
   437  2840  2838    1
   438  2840  2842    1
   439  1794  1793    1
   440  1794  1799    1
   441  1438  1436    1
   442  1438  1440    1
   443  1948  1953   ar
   444  1606  1605    1
   445  1927  1926    1
   446  1535  1516    2
   447  1481  1480    1
   448  2856  2835    2
   449  2838  2836    1
   450  2838  2839    1
   451  1605  1603    1
   452  1950  1951   ar
   453  1793  1795    1
   454  1436  1434    1
   455  1436  1437    1
   456  2877  2876   ar
   457  1534  1516    1
   458  1807  1806   ar
   459  1807  1800   ar
   460  2871  2872   ar
   461  2871  2869   ar
   462  1806  1804   ar
   463  1440  1442    1
   464  1597  1596    2
   465  1480  1482    1
   466  2836  2837    1
   467  2842  2844    1
   468  2872  2873   ar
   469  1434  1435    1
   470  1496  1498    1
   471  1496  1497    1
   472  1516  1499    1
   473  1516  1518    1
   474  1482  1483    1
   475  1499  1498    1
   476   996   995    2
   477  1490  1483   ar
   478  1490  1489   ar
   479  1595  1596   ar
   480  1595  1593   ar
   481  1463  1470   ar
   482  1463  1464   ar
   483  1596  1598   ar
   484  1470  1469   ar
   485  1926  1925   ar
   486  1926  1928   ar
   487  1800  1799    1
   488  1800  1801   ar
   489  1799  1797    1
   490  2870  2869    1
   491  2837  2835    1
   492  1498  1500    1
   493  1451  1433    2
   494  1437  1442    1
   495  2869  2868   ar
   496  1804  1805    1
   497  1804  1803   ar
   498  1953  1954    1
   499  1953  1952   ar
   500  2876  2873   ar
   501  1442  1443    1
   502  2839  2844    1
   503  1925  1931   ar
   504  1968  1967    1
   505  1951  1952   ar
   506  1951  1957   ar
   507  1604  1603    1
   508  1604  1602    1
   509  2835  2857    1
   510  2835  2821    1
   511  1795  1796    1
   512  1795  1797    1
   513  2873  2874   ar
   514  1946  1945    1
   515  1483  1484   ar
   516  2844  2855    1
   517  1594  1593    2
   518  1489  1487   ar
   519  1435  1433    1
   520  1497  1502    1
   521  1593  1592   ar
   522  1928  1929   ar
   523  1576  1575    2
   524  1512  1511   ar
   525  1512  1513   ar
   526  1952  1955   ar
   527  1465  1464    2
   528  1964  1969    1
   529  1964  1963    1
   530  1796  1810    1
   531  1464  1466   ar
   532   995   994   ar
   533   995   997   ar
   534  1947  1957    1
   535  1947  1945    1
   536  1947  1942    1
   537  1598  1599   ar
   538  1621  1602    2
   539  1801  1803   ar
   540  1801  1802    2
   541  1469  1467   ar
   542  1969  1967    1
   543  1969  1980    1
   544  1797  1798    1
   545  1518  1517    1
   546  2821  2820    1
   547  1433  1419    1
   548  1433  1452    1
   549  1963  1961    1
   550  1963  1965    1
   551  1957  1956   ar
   552  1945  1943    1
   553  2823  2822    1
   554  2868  2874   ar
   555  1511  1508   ar
   556  1931  1932    2
   557  1931  1930   ar
   558  1445  1444    2
   559   926   925    1
   560  1967  1965    1
   561   994   992   ar
   562  2874  2875    2
   563  1602  1588    1
   564  1602  1620    1
   565  1443  1444   ar
   566  1443  1450   ar
   567  1500  1502    1
   568  1500  1501    1
   569  1558  1536    2
   570  1592  1599   ar
   571  1592  1591    1
   572  2855  2854   ar
   573  2855  2849   ar
   574  1575  1569   ar
   575  1575  1574   ar
   576  1502  1513    1
   577  1972  1971    1
   578  1961  1962    1
   579  1569  1570   ar
   580  1829  1810    2
   581  1973  1971   ar
   582  1973  1974   ar
   583  1484  1485    2
   584  1484  1486   ar
   585  1589  1590    1
   586  1589  1587    1
   587  1589  1591    1
   588  1929  1930   ar
   589  1929  1935   ar
   590  1513  1507   ar
   591  1419  1418    1
   592  1532  1533   ar
   593  1532  1530   ar
   594  1487  1486   ar
   595  1487  1488    2
   596   907   906    1
   597  1942  1941    1
   598   997   998   ar
   599  1444  1446   ar
   600  1517  1519    1
   601  1421  1420    1
   602  1553  1552    2
   603  1531  1530    1
   604  2822  2820    1
   605  2822  2824    1
   606  1965  1966    1
   607  1466  1467   ar
   608  1966  1983    1
   609  1825  1824    1
   610  1810  1828    1
   611  1810  1812    1
   612  1467  1468    1
   613  1930  1933   ar
   614  1955  1956   ar
   615  1980  1974   ar
   616  1980  1979   ar
   617  2854  2853   ar
   618  1450  1449   ar
   619  1587  1588    1
   620  1587  1585    1
   621  1987  1986    1
   622  1987  1992    1
   623  2820  2818    1
   624  1971  1970   ar
   625  2848  2849   ar
   626  2848  2846   ar
   627  1826  1824   ar
   628  1826  1827   ar
   629  1974  1975   ar
   630  1919  1924    1
   631  1919  1918    1
   632  2849  2850   ar
   633  1984  1986    1
   634  1984  1985    1
   635  1591  1586    1
   636   884   883    1
   637  1533  1526   ar
   638  1986  1988    1
   639  1530  1529   ar
   640  1571  1570    1
   641  1943  1941    1
   642  1943  1944    1
   643  1508  1507   ar
   644  1508  1509   ar
   645  1574  1577   ar
   646  1574  1573   ar
   647  1824  1823   ar
   648  1570  1572   ar
   649   992   993    2
   650   992   991   ar
   651   925   927    1
   652   925   923    1
   653  1601  1582    2
   654   930   929    1
   655   927   922    1
   656   927   938    1
   657  1941  1939    1
   658   942   944    1
   659   942   943    1
   660  1935  1924    1
   661  1935  1934   ar
   662   922   921    1
   663   921   923    1
   664   921   919    1
   665  1420  1418    1
   666  1420  1422    1
   667  1577  1578   ar
   668   944   945    1
   669   944   946    1
   670  1536  1557    1
   671  1536  1522    1
   672  1536  1538    1
   673  1991  1990    1
   674  1992  1990    1
   675  1992  2003    1
   676  1962  1960    1
   677  1827  1820   ar
   678  1924  1922    1
   679  1507  1506   ar
   680  1944  1960    1
   681  1554  1551   ar
   682  1554  1555   ar
   683  1418  1416    1
   684  1552  1551   ar
   685  1552  1546   ar
   686   945   950    1
   687  2827  2826    2
   688   903   902    1
   689   931   929   ar
   690   931   932   ar
   691   906   908   ar
   692   906   905   ar
   693  1979  1978   ar
   694   924   923    1
   695   924   941    1
   696  1446  1447   ar
   697   949   948    1
   698   998   991   ar
   699  2004  1983    2
   700  2853  2850   ar
   701  1812  1811    1
   702  1584  1582    1
   703  1584  1583    1
   704  1581  1559    2
   705  1933  1934   ar
   706  2846  2847    1
   707  2846  2845   ar
   708  2818  2819    1
   709  2818  2816    1
   710   908   909   ar
   711  1918  1916    1
   712  1918  1920    1
   713  1985  1983    1
   714  1519  1521    1
   715  1519  1520    1
   716  1449  1447   ar
   717  1983  2005    1
   718  2824  2825    1
   719  2824  2819    1
   720  1970  1976   ar
   721  1823  1821   ar
   722  2850  2851   ar
   723  1573  1572   ar
   724  1573  1579   ar
   725  1510  1509    2
   726   929   928   ar
   727  1521  1522    1
   728  1521  1523    1
   729  1551  1550   ar
   730  1975  1978   ar
   731  1975  1976   ar
   732  1586  1585    1
   733   991   990    1
   734   919   920    1
   735  1509  1503   ar
   736  1585  1583    1
   737  1990  1988    1
   738  1582  1600    1
   739  1582  1565    1
   740   883   882   ar
   741   883   885   ar
   742   959   941    2
   743   947   946    1
   744   947   961    1
   745  1820  1821   ar
   746  1820  1819    1
   747  1981  1960    2
   748  1960  1982    1
   749  2003  2002   ar
   750  2003  1997   ar
   751  1447  1448    1
   752  2826  2825   ar
   753  2826  2828   ar
   754  1520  1525    1
   755   938   932   ar
   756   938   937   ar
   757  1526  1527   ar
   758  1526  1525    1
   759  1578  1579   ar
   760  1988  1989    1
   761  1538  1537    1
   762  1555  1556   ar
   763  1546  1547   ar
   764  1916  1917    1
   765  1529  1527   ar
   766   950   948    1
   767   950   951    1
   768  1814  1819    1
   769  1814  1813    1
   770  1416  1414    1
   771  1416  1417    1
   772   882   888   ar
   773   932   933   ar
   774  1821  1822    2
   775   943   941    1
   776  1847  1846    2
   777   946   948    1
   778   905   911   ar
   779  2825  2832   ar
   780  2002  2001   ar
   781  1976  1977    2
   782  1939  1940    1
   783  2816  2817    1
   784  1989  2006    1
   785   941   960    1
   786  1506  1504   ar
   787  1422  1417    1
   788  1422  1423    1
   789   902   904    1
   790   902   900    1
   791  1579  1568    1
   792  2845  2851   ar
   793  1811  1813    1
   794  1921  1920    1
   795  1921  1938    1
   796  1922  1920    1
   797  1922  1923    1
   798   904   899    1
   799   904   915    1
   800   962   964    1
   801   962   963    1
   802   979   961    2
   803  1819  1817    1
   804  2851  2852    2
   805  2828  2829   ar
   806   909   915   ar
   807   909   910   ar
   808  1559  1561    1
   809  1559  1580    1
   810  1559  1542    1
   811  1527  1528    2
   812  1997  1996   ar
   813  1997  1998   ar
   814  1525  1523    1
   815  1996  1994   ar
   816  1937  1915    2
   817  1425  1424    2
   818   885   886   ar
   819   928   934   ar
   820  1414  1415    1
   821  1917  1915    1
   822  1561  1560    1
   823  2817  2815    1
   824  1550  1556   ar
   825  1550  1549   ar
   826  1940  1938    1
   827  1523  1524    1
   828  1503  1504   ar
   829  1564  1566    1
   830  1564  1565    1
   831  1564  1562    1
   832  1813  1815    1
   833  1566  1568    1
   834  1566  1567    1
   835   961   963    1
   836   961   980    1
   837  2832  2831   ar
   838  1556  1545    1
   839  2001  1998   ar
   840   920   918    1
   841   964   965    1
   842   964   966    1
   843   990   985    1
   844   990   988    1
   845   937   936   ar
   846  2833  2815    2
   847   899   898    1
   848   915   914   ar
   849  1547  1549   ar
   850  1547  1548    1
   851   860   861   ar
   852   860   865   ar
   853  1423  1424   ar
   854  1423  1430   ar
   855   951   958   ar
   856   951   952   ar
   857  1504  1505    1
   858  1846  1845   ar
   859  1846  1840   ar
   860   888   889    2
   861   888   887   ar
   862   933   934   ar
   863   933   936   ar
   864  1537  1539    1
   865  2007  2009    1
   866  2007  2008    1
   867  1424  1426   ar
   868  1998  1999   ar
   869  2829  2831   ar
   870  2829  2830    1
   871  1415  1413    1
   872   911   910   ar
   873   911   912    2
   874   901   900    1
   875   901   918    1
   876   958   957   ar
   877  1568  1563    1
   878  1848  1845   ar
   879  1848  1849   ar
   880   898   900    1
   881   898   896    1
   882  1541  1542    1
   883  1541  1539    1
   884  1541  1543    1
   885  1994  1995    1
   886  1994  1993   ar
   887  1938  1959    2
   888  1938  1958    1
   889   866   865    1
   890  1915  1936    1
   891  1915  1899    1
   892   861   862   ar
   893   985   984    1
   894   910   913   ar
   895   934   935    2
   896  2006  2026    2
   897  2006  2008    1
   898  2006  2027    1
   899   967   966    1
   900   967   981    1
   901   965   970    1
   902  2815  2834    1
   903  2815  2801    1
   904  2010  2009    1
   905  2010  2015    1
   906  1430  1429   ar
   907  1845  1844   ar
   908   988   989    1
   909   988   986    1
   910   939   918    2
   911  1431  1413    2
   912   953   952    2
   913   886   887   ar
   914   886   892   ar
   915  1840  1841   ar
   916  2009  2011    1
   917  1817  1815    1
   918  1817  1818    1
   919   999   981    2
   920   918   940    1
   921   865   864   ar
   922  1560  1562    1
   923  1901  1900    1
   924  1815  1816    1
   925   952   954   ar
   926   966   968    1
   927  1539  1540    1
   928  1562  1563    1
   929  1426  1427   ar
   930  1540  1545    1
   931  1545  1543    1
   932  1543  1544    1
   933   887   890   ar
   934   982   984    1
   935   982   983    1
   936  1999  1993   ar
   937  1999  2000    2
   938  1402  1401    1
   939   845   844    1
   940  1413  1432    1
   941  1413  1396    1
   942   914   913   ar
   943  1849  1850   ar
   944   957   955   ar
   945   880   879    1
   946  1429  1427   ar
   947  1899  1898    1
   948   896   897    1
   949   984   986    1
   950  1900  1898    1
   951  1900  1902    1
   952   981   983    1
   953   981  1000    1
   954   862   863   ar
   955  1427  1428    1
   956  2803  2802    1
   957  2015  2025    1
   958  2015  2013    1
   959  2801  2800    1
   960   892   881    1
   961   892   891   ar
   962   986   987    1
   963  1844  1850   ar
   964  1844  1843   ar
   965  2807  2806    2
   966   970   968    1
   967   970   971    1
   968   954   955   ar
   969  1841  1842    1
   970  1841  1843   ar
   971   881   879    1
   972   881   876    1
   973  1401  1400   ar
   974  1401  1403   ar
   975   864   863   ar
   976   864   867   ar
   977  1816  1830    1
   978  2802  2800    1
   979  2802  2804    1
   980   879   877    1
   981  1400  1406   ar
   982   844   843   ar
   983   844   846   ar
   984  1898  1896    1
   985   968   969    1
   986   843   841   ar
   987  2011  2012    1
   988  2011  2013    1
   989   955   956    2
   990  1850  1839    1
   991  2024  2025   ar
   992  2024  2023   ar
   993   890   891   ar
   994  2014  2013    1
   995  2025  2019   ar
   996  1396  1395    1
   997   863   869   ar
   998  2012  2028    1
   999  1852  1830    2
  1000   897   895    1
  1001  1403  1404   ar
  1002   971   978   ar
  1003   971   972   ar
  1004  2800  2798    1
  1005  2806  2808   ar
  1006  2806  2805   ar
  1007  1902  1912    1
  1008  1902  1897    1
  1009  2808  2809   ar
  1010   978   977   ar
  1011  1002  1004    1
  1012  1002  1003    1
  1013  1021  1001    2
  1014  2704  2703    2
  1015  1398  1397    1
  1016  2023  2020   ar
  1017  1406  1407    2
  1018  1406  1405   ar
  1019  1912  1911   ar
  1020  1912  1906   ar
  1021  1397  1395    1
  1022  1397  1399    1
  1023   876   875    1
  1024   973   972    2
  1025  1911  1910   ar
  1026  1395  1393    1
  1027   867   868   ar
  1028  1905  1906   ar
  1029  1905  1904   ar
  1030  1830  1832    1
  1031  1830  1851    1
  1032   987  1001    1
  1033  1906  1907   ar
  1034   846   847   ar
  1035  2019  2020   ar
  1036  2019  2018   ar
  1037   841   842    2
  1038   841   840   ar
  1039   972   974   ar
  1040  1834  1839    1
  1041  1834  1833    1
  1042  2804  2805    1
  1043  2804  2799    1
  1044  1910  1907   ar
  1045  1404  1405   ar
  1046  1404  1410   ar
  1047  1904  1903   ar
  1048  1907  1908   ar
  1049  1832  1831    1
  1050  1839  1837    1
  1051  1896  1897    1
  1052  1896  1894    1
  1053  2805  2812   ar
  1054   977   975   ar
  1055  2705  2702   ar
  1056  2705  2706   ar
  1057  2020  2021   ar
  1058  1004  1005    1
  1059  1004  1006    1
  1060   877   878    1
  1061   877   875    1
  1062  1003  1001    1
  1063  2703  2702   ar
  1064  2703  2697   ar
  1065  1405  1408   ar
  1066  2018  2017   ar
  1067   869   868   ar
  1068   869   859    1
  1069  2809  2810    1
  1070  2809  2811   ar
  1071  1903  1908   ar
  1072  1908  1909    1
  1073  1001  1022    1
  1074  1005  1010    1
  1075  2046  2028    2
  1076   878   895    1
  1077  2028  2047    1
  1078  2028  2030    1
  1079   875   873    1
  1080  2702  2701   ar
  1081   974   975   ar
  1082   895   916    2
  1083   895   917    1
  1084  2798  2799    1
  1085  2798  2796    1
  1086  1831  1833    1
  1087  1041  1023    2
  1088  2706  2707   ar
  1089   975   976    2
  1090  1410  1399    1
  1091  1410  1409   ar
  1092   847   840   ar
  1093  2697  2698   ar
  1094   840   839    1
  1095  1399  1394    1
  1096   859   857    1
  1097   859   854    1
  1098  2812  2811   ar
  1099  1913  1893    2
  1100  2021  2022    1
  1101  2021  2016   ar
  1102  1833  1835    1
  1103  2017  2016   ar
  1104  1408  1409   ar
  1105  1393  1391    1
  1106  1393  1394    1
  1107  1894  1895    1
  1108  1837  1838    1
  1109  1837  1835    1
  1110  1019  1018   ar
  1111  1019  1020   ar
  1112  2701  2707   ar
  1113  2701  2700   ar
  1114  2029  2030    1
  1115  2029  2031    1
  1116  1895  1893    1
  1117  2707  2696    1
  1118  1392  1391    1
  1119  1392  1390    1
  1120  1006  1007    1
  1121  1006  1008    1
  1122   857   858    1
  1123   857   855    1
  1124  1024  1026    1
  1125  1024  1025    1
  1126  1868  1867    2
  1127  2796  2797    1
  1128  2698  2700   ar
  1129  2698  2699    1
  1130  2691  2696    1
  1131  2691  2690    1
  1132  1018  1015   ar
  1133  1010  1020    1
  1134  1010  1008    1
  1135  2797  2795    1
  1136  1299  1281    2
  1137   848   830    2
  1138  2032  2031    1
  1139  2032  2037    1
  1140  1007  1023    1
  1141  1020  1014   ar
  1142  1893  1914    1
  1143  1893  1879    1
  1144  2708  2687    2
  1145   873   874    1
  1146   839   837    1
  1147   839   834    1
  1148  1867  1866   ar
  1149  1867  1869   ar
  1150  1023  1025    1
  1151  1023  1042    1
  1152  1835  1836    1
  1153   854   853    1
  1154  1866  1864   ar
  1155  1412  1390    2
  1156  2696  2694    1
  1157  2031  2033    1
  1158  1061  1043    2
  1159  1026  1027    1
  1160  1026  1028    1
  1161  2045  2044   ar
  1162  2045  2038   ar
  1163  1869  1870   ar
  1164  2044  2042   ar
  1165   874   872    1
  1166  1015  1014   ar
  1167  1015  1016   ar
  1168  1008  1009    1
  1169  1279  1258    2
  1170  2688  2690    1
  1171  2688  2689    1
  1172  1864  1865    2
  1173  1864  1863   ar
  1174  1857  1862    1
  1175  1857  1856    1
  1176  1014  1013   ar
  1177  1029  1043    1
  1178  1029  1028    1
  1179  2690  2692    1
  1180  2813  2795    2
  1181  1390  1411    1
  1182  1390  1376    1
  1183  2814  2795    1
  1184   837   838    1
  1185   837   835    1
  1186  1870  1863   ar
  1187  2795  2781    1
  1188  1863  1862    1
  1189   834   833    1
  1190  1322  1301    2
  1191   855   853    1
  1192   855   856    1
  1193  2037  2038    1
  1194  2037  2035    1
  1195  2038  2039   ar
  1196  1017  1016    1
  1197  1836  1853    1
  1198  2042  2043    1
  1199  2042  2041   ar
  1200  1281  1300    1
  1201  1281  1264    1
  1202  1281  1283    1
  1203  1016  1011   ar
  1204  1043  1062    1
  1205  1043  1045    1
  1206  1027  1032    1
  1207  1364  1363    2
  1208  1013  1012   ar
  1209  1028  1030    1
  1210   830   832    1
  1211   830   813    1
  1212   830   849    1
  1213  2790  2789    2
  1214   853   851    1
  1215  2687  2689    1
  1216  2687  2671    1
  1217  2687  2709    1
  1218  1862  1860    1
  1219  1879  1878    1
  1220  2787  2786    2
  1221  2788  2789   ar
  1222  2788  2786   ar
  1223  1856  1854    1
  1224  1856  1858    1
  1225  1323  1301    1
  1226   832   831    1
  1227  1854  1855    1
  1228  2671  2670    1
  1229  2039  2041   ar
  1230  2039  2040    2
  1231  1376  1375    1
  1232  2033  2035    1
  1233  2033  2034    1
  1234  2694  2692    1
  1235  2694  2695    1
  1236  2789  2791   ar
  1237  2786  2785   ar
  1238   835   833    1
  1239   835   836    1
  1240  1031  1030    1
  1241   856   872    1
  1242  1264  1263    1
  1243  1011  1012   ar
  1244  1301  1287    1
  1245  1301  1303    1
  1246  1258  1280    1
  1247  1258  1241    1
  1248  1258  1260    1
  1249   872   894    2
  1250   872   893    1
  1251   852   851    1
  1252   852   850    1
  1253   813   812    1
  1254  2692  2693    1
  1255  1871  1853    2
  1256  1363  1357   ar
  1257  1363  1362   ar
  1258  1283  1282    1
  1259   833   831    1
  1260  2783  2782    1
  1261  2782  2780    1
  1262  2782  2784    1
  1263  2035  2036    1
  1264  1357  1358   ar
  1265  2729  2710    2
  1266  2781  2780    1
  1267  1346  1324    2
  1268  1030  1032    1
  1269  1282  1284    1
  1270  1389  1370    2
  1271  1853  1855    1
  1272  1853  1872    1
  1273  1371  1372    1
  1274  1371  1373    1
  1275   871   850    2
  1276  1032  1033    1
  1277  1878  1876    1
  1278  1878  1880    1
  1279  2034  2048    1
  1280  1241  1240    1
  1281  2693  2710    1
  1282  1259  1260    1
  1283  1259  1261    1
  1284  2673  2672    1
  1285  1045  1044    1
  1286  1044  1046    1
  1287  1287  1286    1
  1288  2785  2792   ar
  1289  2785  2784    1
  1290  1256  1235    2
  1291  2791  2792   ar
  1292  2780  2778    1
  1293  2769  2768    2
  1294  2728  2710    1
  1295  1858  1860    1
  1296  1858  1859    1
  1297  1860  1861    1
  1298  1345  1324    1
  1299  1375  1373    1
  1300  1375  1377    1
  1301  1372  1370    1
  1302  2710  2712    1
  1303   836   850    1
  1304   850   870    1
  1305  2670  2668    1
  1306  2670  2672    1
  1307  1362  1365   ar
  1308  1362  1361   ar
  1309  1373  1374    1
  1310  1859  1873    1
  1311   810   812    1
  1312   810   808    1
  1313   810   811    1
  1314  1303  1302    1
  1315  1263  1261    1
  1316  1263  1265    1
  1317  1369  1347    2
  1318  1359  1358    1
  1319   812   814    1
  1320  1876  1874    1
  1321  1876  1877    1
  1322  1084  1063    2
  1323  1358  1360   ar
  1324  2784  2779    1
  1325  2668  2666    1
  1326  2668  2669    1
  1327  1365  1366   ar
  1328  1874  1875    1
  1329  1261  1262    1
  1330  1881  1880    1
  1331  2666  2667    1
  1332   808   809    1
  1333  1324  1307    1
  1334  1324  1326    1
  1335  1370  1388    1
  1336  1370  1353    1
  1337  1040  1033   ar
  1338  1040  1039   ar
  1339  2067  2048    2
  1340  1284  1286    1
  1341  1284  1285    1
  1342   792   791    1
  1343  1286  1288    1
  1344  2672  2674    1
  1345  1880  1882    1
  1346  2685  2665    2
  1347  1033  1034   ar
  1348  2768  2762   ar
  1349  2768  2767   ar
  1350  1302  1304    1
  1351  1085  1063    1
  1352  1378  1377    1
  1353  2762  2763   ar
  1354  2048  2066    1
  1355  2048  2050    1
  1356  2063  2062    2
  1357  1236  1238    1
  1358  1236  1237    1
  1359  1240  1238    1
  1360  1240  1242    1
  1361  1361  1360   ar
  1362  1361  1367   ar
  1363  2064  2062   ar
  1364  2064  2065   ar
  1365  1875  1873    1
  1366  1046  1047    1
  1367  1046  1048    1
  1368  1063  1049    1
  1369  1063  1065    1
  1370  1377  1379    1
  1371  1238  1239    1
  1372  1307  1306    1
  1373  1235  1237    1
  1374  1235  1257    1
  1375  1235  1221    1
  1376  1243  1242    1
  1377   811   816    1
  1378  1266  1265    1
  1379  1366  1367   ar
  1380  2778  2779    1
  1381  2778  2776    1
  1382  2062  2061   ar
  1383  1265  1267    1
  1384  1326  1325    1
  1385  2667  2665    1
  1386  1873  1892    2
  1387  1873  1891    1
  1388  1039  1037   ar
  1389  1374  1379    1
  1390  1877  1882    1
  1391  2669  2674    1
  1392   790   807    1
  1393   790   789    1
  1394   828   807    2
  1395  1347  1368    1
  1396  1347  1349    1
  1397  1347  1330    1
  1398  2712  2711    1
  1399   815   814    1
  1400   814   816    1
  1401  2746  2745    1
  1402  1341  1340    2
  1403  2767  2770   ar
  1404  2767  2766   ar
  1405   809   807    1
  1406  1049  1048    1
  1407  2065  2058   ar
  1408  2764  2763    1
  1409  1367  1356    1
  1410  2763  2765   ar
  1411  1306  1304    1
  1412  1306  1308    1
  1413  1342  1343   ar
  1414  1342  1339   ar
  1415  1262  1267    1
  1416  2674  2684    1
  1417  1882  1883    1
  1418  2770  2771   ar
  1419  1285  1290    1
  1420  1353  1352    1
  1421  1047  1052    1
  1422  1242  1244    1
  1423  2777  2776    1
  1424  2777  2775    1
  1425  2665  2648    1
  1426  2665  2686    1
  1427  2794  2775    2
  1428  1304  1305    1
  1429  1034  1035    2
  1430  1034  1036   ar
  1431  1352  1354    1
  1432  1352  1350    1
  1433  1048  1050    1
  1434  2050  2049    1
  1435  1349  1348    1
  1436   816   827    1
  1437   791   789    1
  1438   791   793    1
  1439  1288  1289    1
  1440  1288  1290    1
  1441  1221  1220    1
  1442  1379  1380    1
  1443  2725  2724    1
  1444   807   829    1
  1445  2751  2730    2
  1446  2726  2724   ar
  1447  2726  2727   ar
  1448  1354  1356    1
  1449  1354  1355    1
  1450  1343  1344   ar
  1451   787   789    1
  1452   787   788    1
  1453   787   785    1
  1454  1319  1320   ar
  1455  1319  1316   ar
  1456  1320  1321   ar
  1457  1298  1297   ar
  1458  1298  1291   ar
  1459  1340  1339   ar
  1460  1340  1334   ar
  1461  1065  1064    1
  1462  1267  1278    1
  1463  1339  1338   ar
  1464  2766  2765   ar
  1465  2766  2772   ar
  1466  2061  2059   ar
  1467  2648  2647    1
  1468  1325  1327    1
  1469  2711  2713    1
  1470  1330  1329    1
  1471  1239  1244    1
  1472  1060  1059   ar
  1473  1060  1053   ar
  1474  2049  2051    1
  1475  1329  1327    1
  1476  1329  1331    1
  1477   793   788    1
  1478   793   804    1
  1479  2650  2649    1
  1480  2775  2793    1
  1481  2775  2758    1
  1482  1297  1295   ar
  1483  2745  2744   ar
  1484  2745  2740   ar
  1485  1290  1291    1
  1486  2771  2772   ar
  1487  2052  2057    1
  1488  2052  2051    1
  1489  1356  1351    1
  1490  2058  2059   ar
  1491  2058  2057    1
  1492  2724  2723   ar
  1493  1223  1222    1
  1494  1037  1036   ar
  1495  1037  1038    2
  1496  2747  2744   ar
  1497  2747  2748   ar
  1498  1059  1057   ar
  1499  2727  2720   ar
  1500  1305  1310    1
  1501  1277  1278   ar
  1502  1277  1276   ar
  1503    18    17    2
  1504  1348  1350    1
  1505  2684  2683   ar
  1506  2684  2678   ar
  1507  1244  1255    1
  1508   796   795    1
  1509   820   818   ar
  1510   820   821   ar
  1511   785   786    1
  1512  1883  1890   ar
  1513  1883  1884   ar
  1514  1064  1066    1
  1515  1308  1310    1
  1516  1308  1309    1
  1517  1291  1292   ar
  1518  1350  1351    1
  1519  1052  1050    1
  1520  1052  1053    1
  1521  2772  2761    1
  1522  2059  2060    2
  1523   819   818    1
  1524  1344  1338   ar
  1525  1344  1333    1
  1526  1278  1272   ar
  1527  2744  2743   ar
  1528   797   795   ar
  1529   797   798   ar
  1530  1327  1328    1
  1531  1334  1335   ar
  1532  1321  1310    1
  1533  1321  1315   ar
  1534  1050  1051    1
  1535   827   821   ar
  1536   827   826   ar
  1537  2740  2741   ar
  1538  1316  1317   ar
  1539  1316  1315   ar
  1540  1318  1317    2
  1541  1338  1337   ar
  1542  1220  1222    1
  1543  1220  1218    1
  1544  2774  2752    2
  1545  1890  1889   ar
  1546  1380  1387   ar
  1547  1380  1381   ar
  1548  2057  2055    1
  1549  2683  2682   ar
  1550  2051  2053    1
  1551  1053  1054   ar
  1552  2085  2084    2
  1553  1331  1333    1
  1554  1331  1332    1
  1555  2730  2750    1
  1556  2730  2716    1
  1557  2730  2732    1
  1558  2759  2757    1
  1559  2759  2761    1
  1560  2759  2760    1
  1561  1222  1224    1
  1562  1233  1215    2
  1563  2649  2647    1
  1564  2649  2651    1
  1565   769   768    1
  1566  2748  2749   ar
  1567  2647  2645    1
  1568  2677  2678   ar
  1569  2677  2676   ar
  1570  1328  1333    1
  1571   818   817   ar
  1572   821   822   ar
  1573  1885  1884    2
  1574  1317  1311   ar
  1575   795   794   ar
  1576  1276  1273   ar
  1577   773   772    1
  1578  1387  1386   ar
  1579  2678  2679   ar
  1580  2713  2715    1
  1581  2713  2714    1
  1582  1295  1296    1
  1583  1295  1294   ar
  1584  2757  2758    1
  1585  2757  2755    1
  1586   804   798   ar
  1587   804   803   ar
  1588  1315  1314   ar
  1589    17    11   ar
  1590    17    16   ar
  1591  2715  2716    1
  1592  2715  2717    1
  1593  2723  2721   ar
  1594  1884  1886   ar
  1595  1255  1254   ar
  1596  1255  1249   ar
  1597  1382  1381    2
  1598  2720  2721   ar
  1599  2720  2719    1
  1600  1218  1216    1
  1601  1218  1219    1
  1602   798   799   ar
  1603  2761  2756    1
  1604  1335  1337   ar
  1605  1335  1336    1
  1606   690   689    1
  1607  1057  1058    1
  1608  1057  1056   ar
  1609  2714  2719    1
  1610  1292  1294   ar
  1611  1292  1293    2
  1612  2732  2731    1
  1613  2645  2643    1
  1614  2645  2646    1
  1615  1254  1253   ar
  1616  2743  2749   ar
  1617  2743  2742   ar
  1618  1381  1383   ar
  1619  1272  1273   ar
  1620  1272  1271   ar
  1621   826   825   ar
  1622   786   784    1
  1623    11    12   ar
  1624  2084  2083   ar
  1625  2084  2078   ar
  1626  2741  2742   ar
  1627  2086  2083   ar
  1628  2086  2087   ar
  1629  2754  2752    1
  1630  2754  2753    1
  1631  2053  2055    1
  1632  2053  2054    1
  1633  1066  1067    1
  1634  1066  1068    1
  1635  2682  2679   ar
  1636  1216  1217    1
  1637  1067  1072    1
  1638  1082  1081   ar
  1639  1082  1083   ar
  1640  1889  1887   ar
  1641  2752  2773    1
  1642  2752  2736    1
  1643  2721  2722    2
  1644  2749  2739    1
  1645  1273  1274   ar
  1646  2676  2675   ar
  1647    19    16   ar
  1648    19    20   ar
  1649  1081  1078   ar
  1650  2679  2680   ar
  1651  1054  1056   ar
  1652  1054  1055    2
  1653    16    15   ar
  1654  2055  2056    1
  1655    23     1    2
  1656  1311  1312   ar
  1657  2083  2082   ar
  1658   774   772   ar
  1659   774   775   ar
  1660  2719  2717    1
  1661   772   771   ar
  1662   768   770    1
  1663   768   766    1
  1664  1249  1248   ar
  1665  1249  1250   ar
  1666  2651  2646    1
  1667  2651  2662    1
  1668  1215  1217    1
  1669  1215  1234    1
  1670  1215  1201    1
  1671  2643  2644    1
  1672  1314  1312   ar
  1673  1271  1269   ar
  1674  1248  1246   ar
  1675  1224  1219    1
  1676  1224  1225    1
  1677  2756  2755    1
  1678    39    38    1
  1679  1386  1384   ar
  1680   803   802   ar
  1681  2078  2079   ar
  1682   817   823   ar
  1683   822   825   ar
  1684   822   823   ar
  1685   794   800   ar
  1686  2717  2718    1
  1687  2755  2753    1
  1688   684   689   ar
  1689   684   685   ar
  1690   805   784    2
  1691  1886  1887   ar
  1692   689   688   ar
  1693  2087  2088   ar
  1694  2103  2102    1
  1695   131   130    1
  1696  1253  1250   ar
  1697  2735  2736    1
  1698  2735  2737    1
  1699  2735  2733    1
  1700    22     1    1
  1701   749   750   ar
  1702   749   754   ar
  1703   767   784    1
  1704   767   766    1
  1705  1107  1086    2
  1706  1312  1313    1
  1707  2101  2102   ar
  1708  2101  2107   ar
  1709  2108  2107    2
  1710  1068  1069    1
  1711  1068  1070    1
  1712   799   800   ar
  1713   799   802   ar
  1714   770   765    1
  1715   770   781    1
  1716    12    13    1
  1717    12    14   ar
  1718   750   751   ar
  1719  1227  1226    2
  1720   784   806    1
  1721  1887  1888    2
  1722  1383  1384   ar
  1723  2054  2068    1
  1724  2731  2733    1
  1725  2090  2068    2
  1726  1083  1072    1
  1727  1083  1077   ar
  1728  1250  1251   ar
  1729  2737  2739    1
  1730  2737  2738    1
  1731  2675  2680   ar
  1732     1     3    1
  1733    20    21   ar
  1734  2680  2681    1
  1735   127   126    1
  1736  1072  1070    1
  1737  1069  1086    1
  1738  2739  2734    1
  1739    15    14   ar
  1740    15    21   ar
  1741   823   824    2
  1742  1274  1275    2
  1743  1274  1268   ar
  1744  2082  2088   ar
  1745  2082  2081   ar
  1746  2644  2642    1
  1747  2102  2104   ar
  1748   766   764    1
  1749  1201  1200    1
  1750  1246  1247    1
  1751  1246  1245   ar
  1752  2107  2106   ar
  1753   132   130   ar
  1754   132   133   ar
  1755  1225  1226   ar
  1756  1225  1232   ar
  1757   130   129   ar
  1758    61    60    2
  1759  2655  2656   ar
  1760  2655  2653   ar
  1761    38    37   ar
  1762    38    40   ar
  1763   771   777   ar
  1764  2662  2656   ar
  1765  2662  2661   ar
  1766   800   801    2
  1767  1384  1385    2
  1768   775   781   ar
  1769   775   776   ar
  1770  2079  2081   ar
  1771  2079  2080    1
  1772  1269  1268   ar
  1773  1269  1270    1
  1774  2734  2733    1
  1775  2088  2077    1
  1776  1078  1077   ar
  1777  1078  1079   ar
  1778  1226  1228   ar
  1779   765   764    1
  1780     3     2    1
  1781   764   762    1
  1782   685   686   ar
  1783    37    35   ar
  1784  2654  2653    1
  1785  1086  1106    1
  1786  1086  1088    1
  1787   688   691   ar
  1788   688   687   ar
  1789   128   123    1
  1790   128   126    1
  1791   128   139    1
  1792   781   780   ar
  1793    54    60   ar
  1794    54    55   ar
  1795   755   754    1
  1796  2656  2657   ar
  1797  1165  1164    2
  1798    21    10    1
  1799   754   753   ar
  1800  2663  2642    2
  1801   751   752   ar
  1802  2068  2070    1
  1803  2068  2089    1
  1804  1080  1079    2
  1805  1070  1071    1
  1806    56    55    1
  1807  2653  2652   ar
  1808    60    59   ar
  1809   691   692   ar
  1810   129   135   ar
  1811   123   122    1
  1812  1232  1231   ar
  1813    40    41   ar
  1814  1077  1076   ar
  1815  1251  1245   ar
  1816  1251  1252    2
  1817   133   139   ar
  1818   133   134   ar
  1819  2661  2660   ar
  1820   126   124    1
  1821  2072  2077    1
  1822  2072  2071    1
  1823  1079  1073   ar
  1824   139   138   ar
  1825  2104  2105   ar
  1826  1228  1229   ar
  1827  2642  2664    1
  1828  2642  2626    1
  1829    55    57   ar
  1830  2070  2069    1
  1831  2077  2075    1
  1832  2106  2105   ar
  1833  2106  2109   ar
  1834     2     4    1
  1835   146   145    1
  1836   146   151    1
  1837   733   732    2
  1838   776   777   ar
  1839   776   779   ar
  1840    35    36    2
  1841    35    34   ar
  1842   777   778    2
  1843  1203  1202    1
  1844  1200  1198    1
  1845  1200  1202    1
  1846   687   686   ar
  1847   687   693   ar
  1848   145   143    1
  1849   145   147    1
  1850     5    10    1
  1851     5     4    1
  1852   150   149    1
  1853   122   124    1
  1854   122   120    1
  1855  2657  2660   ar
  1856  2657  2658   ar
  1857  1184  1183   ar
  1858  1184  1185   ar
  1859   135   134   ar
  1860   135   136    2
  1861   134   137   ar
  1862  2105  2111   ar
  1863   143   144    1
  1864  1194  1173    2
  1865  1164  1166   ar
  1866  1164  1163   ar
  1867   762   763    1
  1868  1231  1229   ar
  1869  1166  1167   ar
  1870  1183  1188   ar
  1871  2652  2658   ar
  1872   752   753   ar
  1873   752   758   ar
  1874    10     8    1
  1875    41    34   ar
  1876  1229  1230    1
  1877   780   779   ar
  1878  1088  1087    1
  1879   753   756   ar
  1880  1198  1199    1
  1881  1198  1196    1
  1882    59    58   ar
  1883    59    62   ar
  1884  1103  1104   ar
  1885  1103  1100   ar
  1886   726   732   ar
  1887   726   727   ar
  1888   138   137   ar
  1889   151   149    1
  1890   151   162    1
  1891  2628  2627    1
  1892  1102  1101    1
  1893  1185  1186   ar
  1894  1177  1176    1
  1895  1177  1182    1
  1896   692   693   ar
  1897  2069  2071    1
  1898  1161  1160    1
  1899  2626  2625    1
  1900  2109  2110   ar
  1901   124   125    1
  1902    34    33    1
  1903  1076  1074   ar
  1904  1207  1206    2
  1905  1141  1142   ar
  1906  1141  1146   ar
  1907   711   710    1
  1908  1202  1204    1
  1909   115   114    1
  1910     4     6    1
  1911    57    58   ar
  1912  2071  2073    1
  1913   732   731   ar
  1914  2658  2659    2
  1915  1188  1189    1
  1916  1188  1187   ar
  1917   116   114    1
  1918   116   111    1
  1919   728   727    1
  1920   125   142    1
  1921  1073  1074   ar
  1922  1176  1174    1
  1923  1176  1178    1
  1924  1147  1146    1
  1925  1199  1204    1
  1926  1204  1205    1
  1927    99    98    2
  1928   693   683    1
  1929  1104  1105   ar
  1930   149   147    1
  1931    79    78    2
  1932    80    78   ar
  1933    80    81   ar
  1934  1186  1187   ar
  1935  1186  1192   ar
  1936    58    64   ar
  1937    62    63   ar
  1938    82    81    1
  1939  2627  2625    1
  1940  2627  2629    1
  1941  1174  1175    1
  1942     8     6    1
  1943     8     9    1
  1944   148   147    1
  1945   148   165    1
  1946   120   121    1
  1947   763   761    1
  1948  2075  2073    1
  1949  2075  2076    1
  1950   114   112    1
  1951  1187  1190   ar
  1952  1162  1163    1
  1953  1162  1160    1
  1954  1162  1157    1
  1955  1142  1143   ar
  1956  2111  2110   ar
  1957  2111  2100    1
  1958  1193  1173    1
  1959   144   142    1
  1960  1163  1170   ar
  1961   727   729   ar
  1962  1173  1175    1
  1963  1173  1159    1
  1964  1167  1168    1
  1965  1167  1169   ar
  1966  1074  1075    1
  1967  1196  1197    1
  1968    78    77   ar
  1969   747   746    1
  1970  1087  1089    1
  1971  2625  2623    1
  1972   162   161   ar
  1973   162   156   ar
  1974  1146  1145   ar
  1975  1100  1101   ar
  1976  1100  1099   ar
  1977  2631  2632   ar
  1978  2631  2630   ar
  1979  1182  1192    1
  1980  1182  1180    1
  1981    81    83   ar
  1982  1192  1191   ar
  1983  1101  1096   ar
  1984  2073  2074    1
  1985   758   748    1
  1986   758   757   ar
  1987  2632  2633   ar
  1988   756   757   ar
  1989     6     7    1
  1990   746   748    1
  1991   746   744    1
  1992  1160  1158    1
  1993    33    28    1
  1994    33    31    1
  1995   163   142    2
  1996    98   100   ar
  1997    98    97   ar
  1998   100   101   ar
  1999  1206  1205   ar
  2000  1206  1208   ar
  2001  1190  1191   ar
  2002   142   164    1
  2003   155   156   ar
  2004   155   153   ar
  2005   111   110    1
  2006  1179  1178    1
  2007  1179  1195    1
  2008   161   160   ar
  2009   710   709   ar
  2010   710   712   ar
  2011  1157  1156    1
  2012   748   743    1
  2013   185   165    2
  2014    63    64   ar
  2015  2630  2635   ar
  2016  2100  2095    1
  2017  2100  2098    1
  2018   121   119    1
  2019    64    53    1
  2020  1205  1212   ar
  2021   156   157   ar
  2022   731   734   ar
  2023   731   730   ar
  2024    28    27    1
  2025  2095  2094    1
  2026  1178  1180    1
  2027  1130  1108    2
  2028   683   681    1
  2029   683   678    1
  2030  1105  1099   ar
  2031  1105  1095    1
  2032   659   658    1
  2033  2633  2639   ar
  2034  2633  2634   ar
  2035  2629  2639    1
  2036  2629  2624    1
  2037   709   707   ar
  2038   165   167    1
  2039   165   186    1
  2040    77    76    1
  2041    77    84   ar
  2042  1197  1195    1
  2043  1170  1169   ar
  2044  1143  1144   ar
  2045    83    84   ar
  2046  1159  1158    1
  2047  1158  1156    1
  2048   154   153    1
  2049   729   730   ar
  2050  1090  1089    1
  2051  1090  1095    1
  2052   102   101    1
  2053   166   167    1
  2054   166   168    1
  2055  1099  1098   ar
  2056   761   782    2
  2057   761   745    1
  2058   761   783    1
  2059   153   152   ar
  2060   101   103   ar
  2061    96    97    1
  2062    96    91    1
  2063    96    94    1
  2064  1089  1091    1
  2065   112   110    1
  2066   112   113    1
  2067    97   104   ar
  2068   695   674    2
  2069  1096  1097   ar
  2070   682   681    1
  2071  2639  2638   ar
  2072  1180  1181    1
  2073  2623  2624    1
  2074  2623  2621    1
  2075   522   504    2
  2076   117   107    2
  2077   734   735   ar
  2078  1145  1144   ar
  2079  1145  1148   ar
  2080  1091  1092    1
  2081  1091  1093    1
  2082  2635  2634   ar
  2083  2635  2636    1
  2084    91    90    1
  2085   712   713   ar
  2086  1208  1209   ar
  2087   160   157   ar
  2088    31    32    1
  2089    31    29    1
  2090   730   736   ar
  2091  2074  2091    1
  2092  1156  1154    1
  2093    76    74    1
  2094    76    71    1
  2095   157   158   ar
  2096   744   745    1
  2097   744   742    1
  2098  1214  1195    2
  2099   110   108    1
  2100     7    24    1
  2101    95    94    1
  2102    53    48    1
  2103    53    51    1
  2104   681   679    1
  2105   678   677    1
  2106  2634  2637   ar
  2107  1195  1213    1
  2108   502   484    2
  2109   663   662    1
  2110  1129  1108    1
  2111  1108  1092    1
  2112  1108  1110    1
  2113  1144  1150   ar
  2114  1095  1093    1
  2115   113   119    1
  2116  2099  2098    1
  2117    26    25    1
  2118    26    24    1
  2119  1212  1211   ar
  2120   743   742    1
  2121   169   168    1
  2122   169   174    1
  2123  2098  2096    1
  2124    27    25    1
  2125    27    29    1
  2126    42    24    2
  2127   119   140    2
  2128   119   141    1
  2129  2094  2092    1
  2130  2094  2096    1
  2131   658   656    1
  2132   658   660    1
  2133   676   674    1
  2134   676   675    1
  2135   168   170    1
  2136   152   158   ar
  2137  2638  2637   ar
  2138  2113  2091    2
  2139    75    74    1
  2140   657   674    1
  2141   657   656    1
  2142   104   103   ar
  2143    94    92    1
  2144  2621  2622    1
  2145    29    30    1
  2146    48    47    1
  2147   707   708    2
  2148   707   706   ar
  2149   485   487    1
  2150   485   486    1
  2151  1093  1094    1
  2152    74    72    1
  2153    71    70    1
  2154  1097  1098   ar
  2155   158   159    2
  2156    90    92    1
  2157    90    88    1
  2158   674   694    1
  2159   490   504    1
  2160   490   489    1
  2161  2093  2091    1
  2162  2093  2092    1
  2163    24    43    1
  2164  1148  1149   ar
  2165   664   662   ar
  2166   664   665   ar
  2167   662   661   ar
  2168   742   740    1
  2169  2091  2112    1
  2170   735   736   ar
  2171    51    52    1
  2172    51    49    1
  2173   504   523    1
  2174   504   506    1
  2175  2136  2137   ar
  2176  2136  2141   ar
  2177   713   706   ar
  2178  1209  1211   ar
  2179  1209  1210    2
  2180   736   725    1
  2181   107   109    1
  2182   107   118    1
  2183   107    93    1
  2184   487   489    1
  2185   487   488    1
  2186  2096  2097    1
  2187   470   484    1
  2188   470   469    1
  2189   109   108    1
  2190  1154  1155    1
  2191  2142  2141    1
  2192   677   679    1
  2193   677   675    1
  2194   484   486    1
  2195   484   503    1
  2196   183   182   ar
  2197   183   184   ar
  2198   656   654    1
  2199  2137  2138   ar
  2200   660   671    1
  2201   660   655    1
  2202   679   680    1
  2203   472   471    1
  2204   505   506    1
  2205   505   507    1
  2206    92    93    1
  2207   706   705    1
  2208    88    89    1
  2209  1150  1149   ar
  2210  1150  1140    1
  2211  1155  1153    1
  2212  1110  1109    1
  2213   174   184    1
  2214   174   172    1
  2215  2141  2140   ar
  2216   542   524    2
  2217   489   491    1
  2218  2622  2620    1
  2219   661   667   ar
  2220  1109  1111    1
  2221  2097  2114    1
  2222   182   179   ar
  2223    66    44    2
  2224   665   671   ar
  2225   665   666   ar
  2226   170   171    1
  2227   170   172    1
  2228   184   178   ar
  2229    30    44    1
  2230    47    49    1
  2231    47    45    1
  2232    46    44    1
  2233    46    45    1
  2234    70    72    1
  2235    70    68    1
  2236   492   491    1
  2237   741   740    1
  2238   741   739    1
  2239   467   469    1
  2240   467   465    1
  2241   467   468    1
  2242   671   670   ar
  2243   680   696    1
  2244    72    73    1
  2245   654   655    1
  2246   654   652    1
  2247    49    50    1
  2248  2640  2620    2
  2249  2138  2139   ar
  2250    89    87    1
  2251   488   493    1
  2252  1138  1140    1
  2253  1138  1139    1
  2254  1138  1136    1
  2255  1152  1131    2
  2256   469   471    1
  2257   171   187    1
  2258   725   723    1
  2259   725   720    1
  2260   465   466    1
  2261  1140  1135    1
  2262   723   721    1
  2263   723   724    1
  2264   173   172    1
  2265  2140  2139   ar
  2266  2140  2143   ar
  2267    44    65    1
  2268  2124  2114    2
  2269   471   473    1
  2270   507   509    1
  2271   507   508    1
  2272   491   493    1
  2273   510   524    1
  2274   510   509    1
  2275  2139  2145   ar
  2276   524   543    1
  2277   524   526    1
  2278   666   667   ar
  2279   666   669   ar
  2280   667   668    2
  2281   760   739    1
  2282  2620  2641    1
  2283  2620  2606    1
  2284   179   178   ar
  2285   179   180   ar
  2286  2158  2159   ar
  2287  2158  2163   ar
  2288  2159  2160   ar
  2289   705   703    1
  2290   705   700    1
  2291   468   473    1
  2292   178   177   ar
  2293    69    68    1
  2294    69    67    1
  2295  1120  1119    1
  2296    73    87    1
  2297  1153  1172    2
  2298  1153  1137    1
  2299  1153  1171    1
  2300  2114  2125    1
  2301  2114  2116    1
  2302  1136  1137    1
  2303  1136  1134    1
  2304   670   669   ar
  2305   721   722    1
  2306   721   719    1
  2307   493   494    1
  2308  1111  1112    1
  2309  1111  1113    1
  2310  2143  2144   ar
  2311   739   722    1
  2312   739   759    2
  2313   473   474    1
  2314   206   187    2
  2315   482   464    2
  2316    50    67    1
  2317   720   719    1
  2318   509   511    1
  2319   652   653    1
  2320   364   363    1
  2321   187   205    1
  2322   187   189    1
  2323    86    67    2
  2324   703   701    1
  2325   703   704    1
  2326    87   105    2
  2327    87   106    1
  2328   449   448    1
  2329  1133  1131    1
  2330  1133  1132    1
  2331   508   513    1
  2332   698   696    1
  2333   698   697    1
  2334   696   715    1
  2335   696   714    2
  2336   700   699    1
  2337  2608  2607    1
  2338  2181  2180   ar
  2339  2181  2182   ar
  2340  1131  1151    1
  2341  1131  1114    1
  2342  2145  2144   ar
  2343  2145  2135    1
  2344   466   464    1
  2345   643   642    2
  2346  2160  2161   ar
  2347  1135  1134    1
  2348  2164  2163    1
  2349  2163  2162   ar
  2350  1112  1117    1
  2351   180   181    1
  2352   180   175   ar
  2353   177   176   ar
  2354  2606  2605    1
  2355  1119  1121   ar
  2356  1119  1118   ar
  2357    67    85    1
  2358  2180  2185   ar
  2359   738   716    2
  2360  2116  2115    1
  2361   644   642   ar
  2362   644   645   ar
  2363  1113  1114    1
  2364  1113  1115    1
  2365   719   717    1
  2366   701   699    1
  2367   701   702    1
  2368   344   343    1
  2369   526   525    1
  2370   653   651    1
  2371  1121  1122   ar
  2372   646   645    2
  2373   359   360    1
  2374   359   357    1
  2375   359   361    1
  2376  2135  2130    1
  2377  2135  2133    1
  2378  1134  1132    1
  2379  2607  2605    1
  2380  2607  2609    1
  2381   464   447    1
  2382   464   483    1
  2383  2130  2129    1
  2384  1118  1124   ar
  2385   447   446    1
  2386   642   641   ar
  2387  2182  2183   ar
  2388   362   361    1
  2389   362   376    1
  2390   717   718    1
  2391   396   376    2
  2392   494   501   ar
  2393   494   495   ar
  2394   525   527    1
  2395   360   365    1
  2396  2161  2162   ar
  2397  2161  2167   ar
  2398   699   697    1
  2399   357   358    1
  2400   501   500   ar
  2401   645   647   ar
  2402   176   175   ar
  2403  2162  2165   ar
  2404   476   475    2
  2405   511   512    1
  2406   511   513    1
  2407   363   365    1
  2408   363   361    1
  2409   203   204   ar
  2410   203   201   ar
  2411   474   475   ar
  2412   474   481   ar
  2413  2612  2611    2
  2414   189   188    1
  2415  2605  2603    1
  2416   513   514    1
  2417   448   446    1
  2418   448   450    1
  2419   365   366    1
  2420   202   201    1
  2421  1122  1128   ar
  2422  1122  1123   ar
  2423  2185  2186    1
  2424  2185  2184   ar
  2425  1117  1115    1
  2426  1117  1128    1
  2427   521   514   ar
  2428   521   520   ar
  2429   702   716    1
  2430   565   544    2
  2431   716   718    1
  2432   716   737    1
  2433  1124  1123   ar
  2434  1124  1125    2
  2435  2115  2117    1
  2436   204   197   ar
  2437  1115  1116    1
  2438   376   378    1
  2439   376   397    1
  2440   639   638    1
  2441   188   190    1
  2442   348   347    2
  2443   446   444    1
  2444   475   477   ar
  2445   201   200   ar
  2446   638   640    1
  2447   638   636    1
  2448  2120  2119    1
  2449  2120  2126    1
  2450   343   345    1
  2451   343   341    1
  2452  1128  1127   ar
  2453   481   480   ar
  2454   496   495    2
  2455  2183  2184   ar
  2456  2183  2189   ar
  2457   641   640    1
  2458   641   648   ar
  2459  1123  1126   ar
  2460  2609  2610    1
  2461  2609  2604    1
  2462  2167  2157    1
  2463  2167  2166   ar
  2464   495   497   ar
  2465  2133  2134    1
  2466  2133  2131    1
  2467  2129  2127    1
  2468  2129  2131    1
  2469   564   544    1
  2470   378   377    1
  2471   651   672    2
  2472   651   673    1
  2473   651   637    1
  2474  2611  2610   ar
  2475  2611  2613   ar
  2476   444   445    1
  2477   444   442    1
  2478   453   452    1
  2479   514   515   ar
  2480  2165  2166   ar
  2481   325   324    1
  2482   345   340    1
  2483   345   346    1
  2484   450   445    1
  2485   450   461    1
  2486   500   498   ar
  2487   520   518   ar
  2488   647   648   ar
  2489   368   367    2
  2490  2119  2117    1
  2491  2119  2121    1
  2492   626   625    2
  2493  2157  2152    1
  2494  2157  2155    1
  2495  2603  2604    1
  2496  2603  2601    1
  2497  2128  2127    1
  2498  2128  2126    1
  2499  2184  2187   ar
  2500   527   529    1
  2501   527   528    1
  2502   191   190    1
  2503   191   196    1
  2504   358   356    1
  2505   640   635    1
  2506   544   530    1
  2507   544   546    1
  2508   454   452   ar
  2509   454   455   ar
  2510  2610  2617   ar
  2511   342   341    1
  2512   342   356    1
  2513   340   339    1
  2514  2613  2614   ar
  2515   374   356    2
  2516  2117  2118    1
  2517   366   367   ar
  2518   366   373   ar
  2519   339   341    1
  2520   339   337    1
  2521   530   529    1
  2522  2147  2126    2
  2523  1127  1126   ar
  2524   197   196    1
  2525   197   198   ar
  2526   605   604    2
  2527   637   636    1
  2528   347   346   ar
  2529   347   349   ar
  2530  2178  2177    1
  2531   190   192    1
  2532  2131  2132    1
  2533   200   198   ar
  2534   636   634    1
  2535  2126  2146    1
  2536  2179  2189    1
  2537  2179  2177    1
  2538  2179  2174    1
  2539   452   451   ar
  2540   529   531    1
  2541  2189  2188   ar
  2542  2152  2151    1
  2543   377   379    1
  2544  2121  2122    1
  2545  2121  2123    1
  2546   528   533    1
  2547   442   443    1
  2548   367   369   ar
  2549   356   375    1
  2550  2156  2155    1
  2551   477   478   ar
  2552   346   353   ar
  2553   497   498   ar
  2554   480   478   ar
  2555   541   540   ar
  2556   541   534   ar
  2557   624   625   ar
  2558   624   622   ar
  2559   625   627   ar
  2560   540   538   ar
  2561  2155  2153    1
  2562   196   194    1
  2563   198   199    2
  2564  2601  2602    1
  2565   515   516    2
  2566   515   517   ar
  2567   461   455   ar
  2568   461   460   ar
  2569   498   499    2
  2570   324   326   ar
  2571   324   323   ar
  2572   379   380    1
  2573   379   381    1
  2574  2617  2616   ar
  2575  2177  2175    1
  2576   455   456   ar
  2577  2614  2615    2
  2578  2614  2616   ar
  2579   373   372   ar
  2580  2187  2188   ar
  2581   518   517   ar
  2582   518   519    2
  2583  2174  2173    1
  2584   337   338    1
  2585   326   327   ar
  2586   478   479    1
  2587   635   634    1
  2588   349   350   ar
  2589   192   194    1
  2590   192   193    1
  2591   380   385    1
  2592   546   545    1
  2593  2118  2123    1
  2594   604   598   ar
  2595   604   603   ar
  2596  2602  2600    1
  2597  2588  2589   ar
  2598  2588  2593   ar
  2599  2589  2590   ar
  2600  2132  2148    1
  2601   321   320    1
  2602   634   632    1
  2603   623   622    2
  2604   430   429    1
  2605   443   441    1
  2606   451   457   ar
  2607   323   329   ar
  2608   382   381    1
  2609   382   398    1
  2610   533   534    1
  2611   533   531    1
  2612   622   621   ar
  2613   384   383    1
  2614  2151  2153    1
  2615  2151  2149    1
  2616   369   370   ar
  2617   534   535   ar
  2618   531   532    1
  2619  2200  2199    1
  2620   353   352   ar
  2621   598   599   ar
  2622   627   628   ar
  2623   194   195    1
  2624   538   539    2
  2625   538   537   ar
  2626   222   221    2
  2627   381   383    1
  2628  2150  2148    1
  2629  2150  2149    1
  2630  2153  2154    1
  2631   587   566    2
  2632  2196  2201    1
  2633  2196  2195    1
  2634   460   459   ar
  2635  2201  2199    1
  2636  2201  2211    1
  2637   226   207    2
  2638   193   207    1
  2639  2173  2175    1
  2640  2173  2171    1
  2641   372   370   ar
  2642  2590  2591   ar
  2643   456   457   ar
  2644   456   459   ar
  2645   606   603   ar
  2646   606   607   ar
  2647  2594  2593    1
  2648  2593  2592   ar
  2649   603   602   ar
  2650  2175  2176    1
  2651   582   581    1
  2652   545   547    1
  2653   462   441    2
  2654   561   562   ar
  2655   561   558   ar
  2656   416   398    2
  2657   385   383    1
  2658   385   395    1
  2659  2204  2203   ar
  2660  2204  2205   ar
  2661   338   336    1
  2662  2618  2600    2
  2663   350   352   ar
  2664   350   351    1
  2665   633   632    1
  2666   633   631    1
  2667  2195  2193    1
  2668  2195  2197    1
  2669   327   333   ar
  2670   327   328   ar
  2671   320   322    1
  2672   320   318    1
  2673   223   221   ar
  2674   223   224   ar
  2675   370   371    1
  2676  2148  2169    2
  2677  2148  2168    1
  2678  2600  2619    1
  2679  2600  2584    1
  2680   457   458    2
  2681   562   563   ar
  2682   322   333    1
  2683   322   317    1
  2684   221   220   ar
  2685  2203  2202   ar
  2686   429   431   ar
  2687   429   428   ar
  2688  2199  2197    1
  2689   398   417    1
  2690   398   400    1
  2691   621   628   ar
  2692   621   620    1
  2693   560   559    1
  2694   441   424    1
  2695   441   463    1
  2696  2193  2194    1
  2697  2211  2205   ar
  2698  2211  2210   ar
  2699   426   425    1
  2700   535   537   ar
  2701   535   536    2
  2702   329   328   ar
  2703   329   330    2
  2704  2176  2192    1
  2705   207   225    1
  2706   207   209    1
  2707  2205  2206   ar
  2708  2154  2170    1
  2709  2591  2592   ar
  2710  2591  2597   ar
  2711   650   631    2
  2712  2586  2585    1
  2713   599   600    1
  2714   599   601   ar
  2715   302   301   ar
  2716   302   303   ar
  2717  2592  2595   ar
  2718   586   566    1
  2719   566   550    1
  2720   566   568    1
  2721   431   432   ar
  2722   333   332   ar
  2723   583   580   ar
  2724   583   584   ar
  2725  2467  2449    2
  2726  2171  2172    1
  2727   607   608   ar
  2728  2585  2583    1
  2729  2585  2587    1
  2730   424   423    1
  2731   328   331   ar
  2732   428   434   ar
  2733   558   559   ar
  2734   558   557   ar
  2735  2197  2198    1
  2736   224   217   ar
  2737   301   306   ar
  2738  2447  2429    2
  2739   395   394   ar
  2740   395   389   ar
  2741   602   601   ar
  2742   602   608   ar
  2743   581   580   ar
  2744   581   576   ar
  2745   425   423    1
  2746   425   427    1
  2747   631   649    1
  2748   631   617    1
  2749   317   316    1
  2750   547   549    1
  2751   547   548    1
  2752   549   550    1
  2753   549   551    1
  2754   394   393   ar
  2755  2172  2170    1
  2756   319   336    1
  2757   319   318    1
  2758  2202  2207   ar
  2759   354   336    2
  2760   336   355    1
  2761   559   554   ar
  2762  2415  2414    1
  2763  2198  2214    1
  2764   618   620    1
  2765   618   616    1
  2766   618   619    1
  2767  2210  2209   ar
  2768   630   611    2
  2769  2584  2583    1
  2770   318   316    1
  2771  2194  2192    1
  2772   220   218   ar
  2773   303   304   ar
  2774   620   615    1
  2775   400   399    1
  2776  2206  2207   ar
  2777  2206  2209   ar
  2778   580   579   ar
  2779   563   557   ar
  2780   563   553    1
  2781  2597  2587    1
  2782  2597  2596   ar
  2783   316   314    1
  2784   548   553    1
  2785   209   208    1
  2786  2191  2170    2
  2787  2430  2432    1
  2788  2430  2431    1
  2789   242   241    2
  2790  2595  2596   ar
  2791  2170  2190    1
  2792  2583  2581    1
  2793   423   421    1
  2794   608   597    1
  2795   584   585   ar
  2796  2192  2212    2
  2797  2192  2213    1
  2798  2207  2208    1
  2799  2587  2582    1
  2800   616   617    1
  2801   616   614    1
  2802   568   567    1
  2803  2435  2449    1
  2804  2435  2434    1
  2805   610   588    2
  2806   432   438   ar
  2807   432   433   ar
  2808   279   280   ar
  2809   279   284   ar
  2810   576   577   ar
  2811   557   556   ar
  2812   332   331   ar
  2813  2413  2429    1
  2814  2413  2412    1
  2815  2449  2468    1
  2816  2449  2451    1
  2817   263   262    1
  2818   217   218   ar
  2819   217   216    1
  2820   553   551    1
  2821   434   433   ar
  2822   434   435    2
  2823  2429  2431    1
  2824  2429  2448    1
  2825   306   307    1
  2826   306   305   ar
  2827   389   388   ar
  2828   389   390   ar
  2829   427   438    1
  2830   427   422    1
  2831   551   552    1
  2832   393   390   ar
  2833   218   219    2
  2834   285   284    1
  2835   613   611    1
  2836   613   612    1
  2837  2432  2434    1
  2838  2432  2433    1
  2839   280   281   ar
  2840  2414  2412    1
  2841  2414  2416    1
  2842   554   555   ar
  2843   208   210    1
  2844   615   614    1
  2845   211   216    1
  2846   211   210    1
  2847   611   629    1
  2848   611   594    1
  2849   399   401    1
  2850   388   387   ar
  2851   304   305   ar
  2852   304   310   ar
  2853  2214  2232    2
  2854  2214  2233    1
  2855  2214  2216    1
  2856   438   437   ar
  2857   257   262   ar
  2858   257   258   ar
  2859   433   436   ar
  2860   241   240   ar
  2861   241   243   ar
  2862   579   585   ar
  2863   579   578   ar
  2864   284   283   ar
  2865  2490  2469    2
  2866  2434  2436    1
  2867   314   315    1
  2868   299   298    1
  2869   421   422    1
  2870   421   419    1
  2871   593   595    1
  2872   593   594    1
  2873   593   591    1
  2874   585   575    1
  2875   614   612    1
  2876  2412  2410    1
  2877   262   261   ar
  2878  2581  2582    1
  2879  2581  2579    1
  2880   589   591    1
  2881   589   590    1
  2882   390   391   ar
  2883  2450  2451    1
  2884  2450  2452    1
  2885   597   595    1
  2886   597   592    1
  2887   216   214    1
  2888   305   308   ar
  2889   567   569    1
  2890  2573  2572    1
  2891   556   555   ar
  2892   577   578   ar
  2893   595   596    1
  2894   210   212    1
  2895   588   590    1
  2896   588   609    1
  2897   588   572    1
  2898   240   238   ar
  2899  2416  2411    1
  2900  2416  2426    1
  2901   592   591    1
  2902   243   244   ar
  2903  2215  2216    1
  2904  2215  2217    1
  2905   298   300    1
  2906   298   296    1
  2907  2419  2418   ar
  2908  2419  2420   ar
  2909   401   402    1
  2910   401   403    1
  2911   300   310    1
  2912   300   295    1
  2913  2437  2436    1
  2914  2433  2438    1
  2915   281   282   ar
  2916  2410  2411    1
  2917  2410  2408    1
  2918   258   259   ar
  2919   310   309   ar
  2920   571   572    1
  2921   571   569    1
  2922   571   573    1
  2923  2491  2469    1
  2924   315   313    1
  2925  2218  2217    1
  2926  2218  2223    1
  2927   437   436   ar
  2928  2418  2417   ar
  2929  2469  2455    1
  2930  2469  2471    1
  2931   387   386   ar
  2932   402   407    1
  2933  2580  2579    1
  2934  2580  2578    1
  2935  2436  2438    1
  2936   419   420    1
  2937   212   214    1
  2938   212   213    1
  2939  2230  2231   ar
  2940  2230  2228   ar
  2941  2455  2454    1
  2942   569   570    1
  2943   570   575    1
  2944  2572  2571   ar
  2945  2572  2574   ar
  2946   283   282   ar
  2947   283   286   ar
  2948  2231  2224   ar
  2949   575   573    1
  2950  2599  2578    2
  2951  2452  2454    1
  2952  2452  2453    1
  2953   214   215    1
  2954   261   264   ar
  2955   261   260   ar
  2956  2426  2420   ar
  2957  2426  2425   ar
  2958  2420  2421   ar
  2959  2217  2219    1
  2960   391   386   ar
  2961   391   392    1
  2962   573   574    1
  2963  2571  2569   ar
  2964   282   288   ar
  2965   308   309   ar
  2966  2229  2228    1
  2967  2438  2439    1
  2968  2228  2227   ar
  2969   246   227    2
  2970   238   239    2
  2971   238   237   ar
  2972   244   237   ar
  2973  2574  2575   ar
  2974  2454  2456    1
  2975  2224  2223    1
  2976  2224  2225   ar
  2977  2408  2409    1
  2978  2417  2422   ar
  2979   295   294    1
  2980   404   403    1
  2981  2223  2221    1
  2982  2578  2598    1
  2983  2578  2564    1
  2984   403   405    1
  2985   259   260   ar
  2986   296   297    1
  2987   296   294    1
  2988   264   265   ar
  2989  2511  2492    2
  2990   420   418    1
  2991   213   227    1
  2992   297   313    1
  2993   260   266   ar
  2994   286   287   ar
  2995  2471  2470    1
  2996   407   405    1
  2997   407   408    1
  2998  2227  2225   ar
  2999   313   334    2
  3000   313   335    1
  3001   237   236    1
  3002  2569  2570    2
  3003  2569  2568   ar
  3004  2225  2226    2
  3005  2425  2424   ar
  3006  2453  2458    1
  3007  2421  2422   ar
  3008  2421  2424   ar
  3009  2552  2551    2
  3010   294   292    1
  3011  2575  2568   ar
  3012  2422  2423    1
  3013  2470  2472    1
  3014  2446  2439   ar
  3015  2446  2445   ar
  3016   406   405    1
  3017  2439  2440   ar
  3018  2510  2492    1
  3019  2219  2221    1
  3020  2219  2220    1
  3021   415   408   ar
  3022   415   414   ar
  3023   288   287   ar
  3024   288   278    1
  3025   227   229    1
  3026   227   245    1
  3027  2409  2407    1
  3028  2396  2395    1
  3029  2568  2567    1
  3030   408   409   ar
  3031  2492  2475    1
  3032  2492  2494    1
  3033  2221  2222    1
  3034  2456  2457    1
  3035  2456  2458    1
  3036  2565  2563    1
  3037  2565  2567    1
  3038  2565  2566    1
  3039   265   266   ar
  3040  2564  2563    1
  3041  2466  2465   ar
  3042  2466  2459   ar
  3043  2563  2561    1
  3044  2551  2545   ar
  3045  2551  2550   ar
  3046   418   439    1
  3047   418   440    1
  3048   266   256    1
  3049   229   228    1
  3050   414   412   ar
  3051  2220  2234    1
  3052  2458  2459    1
  3053   278   276    1
  3054   278   273    1
  3055  2545  2546   ar
  3056   236   231    1
  3057   236   234    1
  3058  2445  2443   ar
  3059  2392  2391    1
  3060  2475  2474    1
  3061  2465  2463   ar
  3062   231   230    1
  3063  2567  2562    1
  3064  2440  2441    2
  3065  2440  2442   ar
  3066  2395  2397   ar
  3067  2395  2394   ar
  3068   276   277    1
  3069   276   274    1
  3070  2472  2474    1
  3071  2472  2473    1
  3072   409   410    2
  3073   409   411   ar
  3074   292   293    1
  3075  2427  2407    2
  3076  2459  2460   ar
  3077  2474  2476    1
  3078  2397  2398   ar
  3079  2534  2512    2
  3080  2494  2493    1
  3081  2253  2234    2
  3082  2407  2390    1
  3083  2407  2428    1
  3084   293   291    1
  3085  2249  2248    1
  3086  2550  2553   ar
  3087  2550  2549   ar
  3088  2577  2558    2
  3089  2394  2400   ar
  3090   412   411   ar
  3091   412   413    2
  3092  2553  2554   ar
  3093  2391  2393    1
  3094  2391  2389    1
  3095   228   230    1
  3096  2546  2547    1
  3097  2546  2548   ar
  3098   256   254    1
  3099   256   251    1
  3100  2529  2528    2
  3101  2562  2561    1
  3102   234   232    1
  3103   234   235    1
  3104  2250  2248   ar
  3105  2250  2251   ar
  3106  2488  2487   ar
  3107  2488  2489   ar
  3108  2234  2252    1
  3109  2234  2236    1
  3110  2561  2559    1
  3111  2560  2558    1
  3112  2560  2559    1
  3113   273   272    1
  3114  2443  2442   ar
  3115  2443  2444    1
  3116  2473  2478    1
  3117   230   232    1
  3118  2390  2389    1
  3119  2508  2506   ar
  3120  2508  2509   ar
  3121  2487  2484   ar
  3122   232   233    1
  3123  2248  2247   ar
  3124  2507  2506    2
  3125  2353  2352    1
  3126   274   272    1
  3127   274   275    1
  3128  2463  2464    2
  3129  2463  2462   ar
  3130   268   247    2
  3131  2398  2404   ar
  3132  2398  2399   ar
  3133  2493  2495    1
  3134  2557  2535    2
  3135   254   255    1
  3136   254   252    1
  3137  2549  2548   ar
  3138  2549  2555   ar
  3139  2558  2576    1
  3140  2558  2541    1
  3141  2460  2462   ar
  3142  2460  2461    2
  3143  2251  2244   ar
  3144  2393  2404    1
  3145  2393  2388    1
  3146  2389  2387    1
  3147  2512  2533    1
  3148  2512  2498    1
  3149  2512  2514    1
  3150   251   250    1
  3151  2506  2505   ar
  3152  2554  2555   ar
  3153  2400  2399   ar
  3154  2400  2401    2
  3155  2509  2502   ar
  3156  2476  2478    1
  3157  2476  2477    1
  3158  2528  2527   ar
  3159  2528  2522   ar
  3160  2530  2527   ar
  3161  2530  2531   ar
  3162   291   312    2
  3163   291   275    1
  3164   291   311    1
  3165  2489  2478    1
  3166  2489  2483   ar
  3167  2236  2235    1
  3168  2404  2403   ar
  3169   272   270    1
  3170  2399  2402   ar
  3171  2247  2245   ar
  3172  2498  2497    1
  3173  2555  2544    1
  3174  2330  2329    1
  3175  2497  2495    1
  3176  2497  2499    1
  3177   249   247    1
  3178   249   248    1
  3179  2527  2526   ar
  3180   252   250    1
  3181   252   253    1
  3182   233   247    1
  3183  2484  2483   ar
  3184  2484  2485   ar
  3185  2352  2351   ar
  3186  2352  2354   ar
  3187  2235  2237    1
  3188   247   267    1
  3189  2244  2245   ar
  3190  2244  2243    1
  3191  2270  2269    1
  3192  2495  2496    1
  3193  2238  2243    1
  3194  2238  2237    1
  3195   271   270    1
  3196   271   269    1
  3197   290   269    2
  3198  2522  2523   ar
  3199  2514  2513    1
  3200  2531  2532   ar
  3201  2387  2388    1
  3202  2387  2385    1
  3203  2535  2537    1
  3204  2535  2556    1
  3205  2535  2518    1
  3206  2245  2246    2
  3207  2540  2541    1
  3208  2540  2542    1
  3209  2540  2538    1
  3210   250   248    1
  3211  2379  2378    1
  3212  2486  2485    2
  3213  2483  2482   ar
  3214  2505  2503   ar
  3215  2542  2544    1
  3216  2542  2543    1
  3217  2537  2536    1
  3218  2403  2402   ar
  3219  2502  2503   ar
  3220  2502  2501    1
  3221  2351  2357   ar
  3222  2354  2355   ar
  3223  2496  2501    1
  3224  2485  2479   ar
  3225  2243  2241    1
  3226  2237  2239    1
  3227  2544  2539    1
  3228  2377  2378   ar
  3229  2377  2375   ar
  3230   269   253    1
  3231   269   289    1
  3232  2329  2328   ar
  3233  2329  2331   ar
  3234  2328  2334   ar
  3235  2526  2532   ar
  3236  2526  2525   ar
  3237  2499  2501    1
  3238  2499  2500    1
  3239  2503  2504    2
  3240  2378  2380   ar
  3241  2269  2264   ar
  3242  2269  2268   ar
  3243  2532  2521    1
  3244  2517  2518    1
  3245  2517  2519    1
  3246  2517  2515    1
  3247  2523  2525   ar
  3248  2523  2524    1
  3249  2513  2515    1
  3250  2376  2375    2
  3251  2538  2536    1
  3252  2538  2539    1
  3253  2385  2386    1
  3254  2264  2265   ar
  3255  2482  2480   ar
  3256  2375  2374   ar
  3257  2239  2241    1
  3258  2239  2240    1
  3259  2355  2356   ar
  3260  2355  2361   ar
  3261  2271  2268   ar
  3262  2271  2272   ar
  3263  2357  2358    2
  3264  2357  2356   ar
  3265  2306  2307   ar
  3266  2306  2311   ar
  3267  2331  2332   ar
  3268  2335  2334    2
  3269  2479  2480   ar
  3270  2386  2384    1
  3271  2268  2267   ar
  3272  2519  2521    1
  3273  2519  2520    1
  3274  2334  2333   ar
  3275  2515  2516    1
  3276  2312  2311    1
  3277  2241  2242    1
  3278  2349  2348    1
  3279  2380  2381   ar
  3280  2521  2516    1
  3281  2480  2481    1
  3282  2291  2290    1
  3283  2307  2308   ar
  3284  2356  2359   ar
  3285  2350  2361    1
  3286  2350  2348    1
  3287  2350  2345    1
  3288  2311  2310   ar
  3289  2265  2266   ar
  3290  2361  2360   ar
  3291  2374  2381   ar
  3292  2374  2373    1
  3293  2272  2273   ar
  3294  2332  2333   ar
  3295  2332  2338   ar
  3296  2348  2346    1
  3297  2240  2254    1
  3298  2275  2254    2
  3299  2333  2336   ar
  3300  2267  2266   ar
  3301  2267  2273   ar
  3302  2371  2372    1
  3303  2371  2373    1
  3304  2371  2369    1
  3305  2345  2344    1
  3306  2384  2406    2
  3307  2384  2405    1
  3308  2384  2370    1
  3309  2290  2289   ar
  3310  2290  2292   ar
  3311  2308  2309   ar
  3312  2273  2263    1
  3313  2373  2368    1
  3314  2289  2287   ar
  3315  2359  2360   ar
  3316  2254  2256    1
  3317  2254  2274    1
  3318  2310  2309   ar
  3319  2310  2313   ar
  3320  2369  2370    1
  3321  2369  2367    1
  3322  2338  2327    1
  3323  2338  2337   ar
  3324  2344  2346    1
  3325  2344  2342    1
  3326  2309  2315   ar
  3327  2336  2337   ar
  3328  2346  2347    1
  3329  2292  2293   ar
  3330  2326  2325    1
  3331  2256  2255    1
  3332  2327  2325    1
  3333  2327  2322    1
  3334  2258  2263    1
  3335  2258  2257    1
  3336  2347  2364    1
  3337  2287  2288    2
  3338  2287  2286   ar
  3339  2263  2261    1
  3340  2325  2323    1
  3341  2368  2367    1
  3342  2313  2314   ar
  3343  2367  2365    1
  3344  2366  2364    1
  3345  2366  2365    1
  3346  2255  2257    1
  3347  2342  2343    1
  3348  2293  2286   ar
  3349  2315  2314   ar
  3350  2315  2305    1
  3351  2322  2321    1
  3352  2286  2285    1
  3353  2382  2364    2
  3354  2364  2383    1
  3355  2257  2259    1
  3356  2261  2259    1
  3357  2261  2262    1
  3358  2343  2341    1
  3359  2259  2260    1
  3360  2305  2303    1
  3361  2305  2300    1
  3362  2323  2321    1
  3363  2323  2324    1
  3364  2321  2319    1
  3365  2324  2341    1
  3366  2285  2280    1
  3367  2285  2283    1
  3368  2303  2304    1
  3369  2303  2301    1
  3370  2295  2276    2
  3371  2300  2299    1
  3372  2341  2363    2
  3373  2341  2362    1
  3374  2280  2279    1
  3375  2260  2276    1
  3376  2283  2281    1
  3377  2283  2284    1
  3378  2319  2320    1
  3379  2320  2318    1
  3380  2301  2299    1
  3381  2301  2302    1
  3382  2278  2276    1
  3383  2278  2277    1
  3384  2276  2294    1
  3385  2299  2297    1
  3386  2281  2279    1
  3387  2281  2282    1
  3388  2279  2277    1
  3389  2298  2297    1
  3390  2298  2296    1
  3391  2302  2318    1
  3392  2340  2318    2
  3393  2318  2339    1
  3394  2317  2296    2
  3395  2282  2296    1
  3396  2296  2316    1
