ligand
  PyMOL2.2          3D                             0

 10  9  0  0  0  0  0  0  0  0999 V2000
   32.2230   16.1140   19.3270 N   0  0  0  0  0  0  0  0  0  0  0  0
   31.6070   16.9140   20.4230 C   0  0  0  0  0  0  0  0  0  0  0  0
   32.6550   17.3860   21.4210 C   0  0  0  0  0  0  0  0  0  0  0  0
   33.8250   17.0030   21.3750 O   0  0  0  0  0  0  0  0  0  0  0  0
   30.5070   16.1200   21.1240 C   0  0  0  0  0  0  0  0  0  0  0  0
   29.3100   15.8630   20.2380 C   0  0  0  0  0  0  0  0  0  0  0  0
   28.1350   15.3440   21.0230 C   0  0  0  0  0  0  0  0  0  0  0  0
   26.8780   15.3370   20.1710 C   0  0  0  0  0  0  0  0  0  0  0  0
   26.9140   14.2770   19.1300 N   0  0  0  0  0  0  0  0  0  0  0  0
   32.3640   18.2030   22.2960 O   0  0  0  0  0  0  0  0  0  0  0  0
  1  2  1  0  0  0  0
  2  3  1  0  0  0  0
  2  5  1  0  0  0  0
  3  4  4  0  0  0  0
  3 10  4  0  0  0  0
  5  6  1  0  0  0  0
  6  7  1  0  0  0  0
  7  8  1  0  0  0  0
  8  9  1  0  0  0  0
M  END
$$$$
